# generated using pymatgen
data_Li4Hf4In4Pd4CO
_symmetry_space_group_name_H-M   'P 1'
_cell_length_a   6.51419000
_cell_length_b   6.51419000
_cell_length_c   24.88560000
_cell_angle_alpha   90.00000000
_cell_angle_beta   90.00000000
_cell_angle_gamma   90.00000000
_symmetry_Int_Tables_number   1
_chemical_formula_structural   Li4Hf4In4Pd4CO
_chemical_formula_sum   'Li4 Hf4 In4 Pd4 C1 O1'
_cell_volume   1056.01225750
_cell_formula_units_Z   1
loop_
 _symmetry_equiv_pos_site_id
 _symmetry_equiv_pos_as_xyz
  1  'x, y, z'
loop_
 _atom_site_type_symbol
 _atom_site_label
 _atom_site_symmetry_multiplicity
 _atom_site_fract_x
 _atom_site_fract_y
 _atom_site_fract_z
 _atom_site_occupancy
  Li  Li0  1  0.74135000  0.24135000  0.03600000  1.0
  Li  Li1  1  0.75000000  0.75000000  0.90184000  1.0
  Li  Li2  1  0.25000000  0.25000000  0.90184000  1.0
  Li  Li3  1  0.25874000  0.75873000  0.03598000  1.0
  Hf  Hf4  1  0.00001000  0.00011000  0.09783000  1.0
  Hf  Hf5  1  0.00000000  0.50000000  0.96728000  1.0
  Hf  Hf6  1  0.50000000  0.00000000  0.96728000  1.0
  Hf  Hf7  1  0.50009000  0.49997000  0.09783000  1.0
  In  In8  1  0.00004000  0.49992000  0.09889000  1.0
  In  In9  1  0.00000000  0.00000000  0.96728000  1.0
  In  In10  1  0.50000000  0.50000000  0.96728000  1.0
  In  In11  1  0.50012000  0.00001000  0.11275000  1.0
  Pd  Pd12  1  0.25675000  0.24323000  0.03479000  1.0
  Pd  Pd13  1  0.25000000  0.75000000  0.90184000  1.0
  Pd  Pd14  1  0.75000000  0.25000000  0.90184000  1.0
  Pd  Pd15  1  0.74334000  0.75665000  0.03479000  1.0
  C  C16  1  0.99983000  0.50016000  0.19393000  1.0
  O  O17  1  0.00005000  0.49997000  0.24016000  1.0
