data_image0
_chemical_formula_structural       Li16Ge8Au8C
_chemical_formula_sum              "Li16 Ge8 Au8 C1"
_cell_length_a       6.30953
_cell_length_b       8.92302
_cell_length_c       26.6923
_cell_angle_alpha    90
_cell_angle_beta     90
_cell_angle_gamma    90

_space_group_name_H-M_alt    "P 1"
_space_group_IT_number       1

loop_
  _space_group_symop_operation_xyz
  'x, y, z'

loop_
  _atom_site_type_symbol
  _atom_site_label
  _atom_site_symmetry_multiplicity
  _atom_site_fract_x
  _atom_site_fract_y
  _atom_site_fract_z
  _atom_site_occupancy
  Li  Li1       1.0  0.00000  0.75000  0.95821  1.0000
  Li  Li2       1.0  0.50000  0.00000  0.87464  1.0000
  Li  Li3       1.0  0.00000  0.25000  0.95821  1.0000
  Li  Li4       1.0  0.50000  0.50000  0.87464  1.0000
  Li  Li5       1.0  0.25000  0.25000  0.87464  1.0000
  Li  Li6       1.0  0.25000  0.75000  0.87464  1.0000
  Li  Li7       1.0  0.75000  0.50000  0.95821  1.0000
  Li  Li8       1.0  0.75000  0.00000  0.95821  1.0000
  Li  Li9       1.0  0.98055  0.25000  0.12949  1.0000
  Li  Li10      1.0  0.51133  0.50393  0.03707  1.0000
  Li  Li11      1.0  0.04465  0.75000  0.12573  1.0000
  Li  Li12      1.0  0.51133  0.99607  0.03707  1.0000
  Li  Li13      1.0  0.26067  0.75000  0.04176  1.0000
  Li  Li14      1.0  0.25709  0.25000  0.05082  1.0000
  Li  Li15      1.0  0.72938  0.97385  0.12588  1.0000
  Li  Li16      1.0  0.72938  0.52615  0.12588  1.0000
  Ge  Ge1       1.0  0.00000  0.00000  0.87464  1.0000
  Ge  Ge2       1.0  0.50000  0.25000  0.95821  1.0000
  Ge  Ge3       1.0  0.50000  0.75000  0.95821  1.0000
  Ge  Ge4       1.0  0.00000  0.50000  0.87464  1.0000
  Ge  Ge5       1.0  0.99863  0.50109  0.04479  1.0000
  Ge  Ge6       1.0  0.47523  0.75000  0.13408  1.0000
  Ge  Ge7       1.0  0.58023  0.25000  0.14945  1.0000
  Ge  Ge8       1.0  0.99863  0.99891  0.04479  1.0000
  Au  Au1       1.0  0.25000  0.00000  0.95821  1.0000
  Au  Au2       1.0  0.25000  0.50000  0.95821  1.0000
  Au  Au3       1.0  0.75000  0.75000  0.87464  1.0000
  Au  Au4       1.0  0.75000  0.25000  0.87464  1.0000
  Au  Au5       1.0  0.27926  0.49529  0.12037  1.0000
  Au  Au6       1.0  0.27926  0.00471  0.12037  1.0000
  Au  Au7       1.0  0.76154  0.25000  0.03854  1.0000
  Au  Au8       1.0  0.75206  0.75000  0.04846  1.0000
  C   C1        1.0  0.29587  0.25000  0.13443  1.0000
