# generated using pymatgen
data_Li16Ge8Au8C
_symmetry_space_group_name_H-M   'P 1'
_cell_length_a   8.92302000
_cell_length_b   6.30953000
_cell_length_c   26.69230000
_cell_angle_alpha   90.00000000
_cell_angle_beta   90.00000000
_cell_angle_gamma   90.00000000
_symmetry_Int_Tables_number   1
_chemical_formula_structural   Li16Ge8Au8C
_chemical_formula_sum   'Li16 Ge8 Au8 C1'
_cell_volume   1502.77815508
_cell_formula_units_Z   1
loop_
 _symmetry_equiv_pos_site_id
 _symmetry_equiv_pos_as_xyz
  1  'x, y, z'
loop_
 _atom_site_type_symbol
 _atom_site_label
 _atom_site_symmetry_multiplicity
 _atom_site_fract_x
 _atom_site_fract_y
 _atom_site_fract_z
 _atom_site_occupancy
  Li  Li0  1  0.50000000  1.00000000  0.04179000  1.0
  Li  Li1  1  0.75000000  0.50000000  0.12536000  1.0
  Li  Li2  1  0.00000000  0.00000000  0.04179000  1.0
  Li  Li3  1  0.25000000  0.50000000  0.12536000  1.0
  Li  Li4  1  0.00000000  0.25000000  0.12536000  1.0
  Li  Li5  1  0.50000000  0.25000000  0.12536000  1.0
  Li  Li6  1  0.25000000  0.75000000  0.04179000  1.0
  Li  Li7  1  0.75000000  0.75000000  0.04179000  1.0
  Li  Li8  1  0.00000000  0.98056000  0.87052000  1.0
  Li  Li9  1  0.25395000  0.51133000  0.96293000  1.0
  Li  Li10  1  0.50000000  0.04467000  0.87425000  1.0
  Li  Li11  1  0.74605000  0.51133000  0.96293000  1.0
  Li  Li12  1  0.50000000  0.26063000  0.95823000  1.0
  Li  Li13  1  0.00000000  0.25710000  0.94917000  1.0
  Li  Li14  1  0.72385000  0.72943000  0.87412000  1.0
  Li  Li15  1  0.27615000  0.72943000  0.87412000  1.0
  Ge  Ge16  1  0.75000000  0.00000000  0.12536000  1.0
  Ge  Ge17  1  0.00000000  0.50000000  0.04179000  1.0
  Ge  Ge18  1  0.50000000  0.50000000  0.04179000  1.0
  Ge  Ge19  1  0.25000000  0.00000000  0.12536000  1.0
  Ge  Ge20  1  0.25106000  0.99865000  0.95521000  1.0
  Ge  Ge21  1  0.50000000  0.47526000  0.86594000  1.0
  Ge  Ge22  1  0.00000000  0.58020000  0.85056000  1.0
  Ge  Ge23  1  0.74894000  0.99865000  0.95521000  1.0
  Au  Au24  1  0.75000000  0.25000000  0.04179000  1.0
  Au  Au25  1  0.25000000  0.25000000  0.04179000  1.0
  Au  Au26  1  0.50000000  0.75000000  0.12536000  1.0
  Au  Au27  1  0.00000000  0.75000000  0.12536000  1.0
  Au  Au28  1  0.24530000  0.27927000  0.87964000  1.0
  Au  Au29  1  0.75470000  0.27927000  0.87964000  1.0
  Au  Au30  1  0.00000000  0.76154000  0.96144000  1.0
  Au  Au31  1  0.50000000  0.75207000  0.95153000  1.0
  C  C32  1  0.00000000  0.29594000  0.86559000  1.0
