# generated using pymatgen
data_Li4Ga4Ge4Pd4CO
_symmetry_space_group_name_H-M   'P 1'
_cell_length_a   6.27488000
_cell_length_b   6.27488000
_cell_length_c   24.70620000
_cell_angle_alpha   90.00000000
_cell_angle_beta   90.00000000
_cell_angle_gamma   90.00000000
_symmetry_Int_Tables_number   1
_chemical_formula_structural   Li4Ga4Ge4Pd4CO
_chemical_formula_sum   'Li4 Ga4 Ge4 Pd4 C1 O1'
_cell_volume   972.78485919
_cell_formula_units_Z   1
loop_
 _symmetry_equiv_pos_site_id
 _symmetry_equiv_pos_as_xyz
  1  'x, y, z'
loop_
 _atom_site_type_symbol
 _atom_site_label
 _atom_site_symmetry_multiplicity
 _atom_site_fract_x
 _atom_site_fract_y
 _atom_site_fract_z
 _atom_site_occupancy
  Li  Li0  1  0.74125000  0.25875000  0.03300000  1.0
  Li  Li1  1  0.75000000  0.75000000  0.90476000  1.0
  Li  Li2  1  0.25000000  0.25000000  0.90476000  1.0
  Li  Li3  1  0.25876000  0.74125000  0.03300000  1.0
  Ga  Ga4  1  0.00018000  0.00001000  0.08689000  1.0
  Ga  Ga5  1  0.00000000  0.50000000  0.96825000  1.0
  Ga  Ga6  1  0.50000000  0.00000000  0.96825000  1.0
  Ga  Ga7  1  0.49989000  0.50007000  0.10430000  1.0
  Ge  Ge8  1  0.00001000  0.49991000  0.09981000  1.0
  Ge  Ge9  1  0.00000000  0.00000000  0.96825000  1.0
  Ge  Ge10  1  0.50000000  0.50000000  0.96825000  1.0
  Ge  Ge11  1  0.49992000  0.00022000  0.09982000  1.0
  Pd  Pd12  1  0.25504000  0.25490000  0.03105000  1.0
  Pd  Pd13  1  0.25000000  0.75000000  0.90476000  1.0
  Pd  Pd14  1  0.75000000  0.25000000  0.90476000  1.0
  Pd  Pd15  1  0.74508000  0.74507000  0.03101000  1.0
  C  C16  1  0.99999000  0.99999000  0.17658000  1.0
  O  O17  1  0.99993000  0.99984000  0.22281000  1.0
