data_image0
_chemical_formula_structural       VZn3VZn3VZn3VZn3C
_chemical_formula_sum              "V4 Zn12 C1"
_cell_length_a       7.64728
_cell_length_b       5.40744
_cell_length_c       24.0556
_cell_angle_alpha    90
_cell_angle_beta     90
_cell_angle_gamma    90

_space_group_name_H-M_alt    "P 1"
_space_group_IT_number       1

loop_
  _space_group_symop_operation_xyz
  'x, y, z'

loop_
  _atom_site_type_symbol
  _atom_site_label
  _atom_site_symmetry_multiplicity
  _atom_site_fract_x
  _atom_site_fract_y
  _atom_site_fract_z
  _atom_site_occupancy
  V   V1        1.0  0.00000  0.00000  0.91570  1.0000
  Zn  Zn1       1.0  0.00000  0.50000  0.91570  1.0000
  Zn  Zn2       1.0  0.25000  0.75000  0.97190  1.0000
  Zn  Zn3       1.0  0.25000  0.25000  0.97190  1.0000
  V   V2        1.0  0.00000  0.50000  0.02810  1.0000
  Zn  Zn4       1.0  0.00000  0.00000  0.02810  1.0000
  Zn  Zn5       1.0  0.25000  0.25000  0.08430  1.0000
  Zn  Zn6       1.0  0.25000  0.75000  0.08430  1.0000
  V   V3        1.0  0.50000  0.00000  0.91570  1.0000
  Zn  Zn7       1.0  0.50000  0.50000  0.91570  1.0000
  Zn  Zn8       1.0  0.75000  0.75000  0.97190  1.0000
  Zn  Zn9       1.0  0.75000  0.25000  0.97190  1.0000
  V   V4        1.0  0.50000  0.50000  0.02810  1.0000
  Zn  Zn10      1.0  0.50000  0.00000  0.02810  1.0000
  Zn  Zn11      1.0  0.75000  0.25000  0.08430  1.0000
  Zn  Zn12      1.0  0.75000  0.75000  0.08430  1.0000
  C   C1        1.0  0.00000  0.00000  0.11755  1.0000
