# generated using pymatgen
data_V4Zn12C
_symmetry_space_group_name_H-M   Pmm2
_cell_length_a   5.40744000
_cell_length_b   7.64728000
_cell_length_c   24.05560000
_cell_angle_alpha   90.00000000
_cell_angle_beta   90.00000000
_cell_angle_gamma   90.00000000
_symmetry_Int_Tables_number   25
_chemical_formula_structural   V4Zn12C
_chemical_formula_sum   'V4 Zn12 C1'
_cell_volume   994.75216907
_cell_formula_units_Z   1
loop_
 _symmetry_equiv_pos_site_id
 _symmetry_equiv_pos_as_xyz
  1  'x, y, z'
  2  '-x, -y, z'
  3  '-x, y, z'
  4  'x, -y, z'
loop_
 _atom_site_type_symbol
 _atom_site_label
 _atom_site_symmetry_multiplicity
 _atom_site_fract_x
 _atom_site_fract_y
 _atom_site_fract_z
 _atom_site_occupancy
  V  V0  1  0.00000000  0.00000000  0.08430000  1.0
  V  V1  1  0.00000000  0.50000000  0.08430000  1.0
  V  V2  1  0.50000000  0.00000000  0.97478000  1.0
  V  V3  1  0.50000000  0.50000000  0.96428000  1.0
  Zn  Zn4  4  0.25000000  0.25000000  0.02810000  1.0
  Zn  Zn5  4  0.25115000  0.22428000  0.90750000  1.0
  Zn  Zn6  1  0.00000000  0.00000000  0.98115000  1.0
  Zn  Zn7  1  0.00000000  0.50000000  0.95649000  1.0
  Zn  Zn8  1  0.50000000  0.00000000  0.08430000  1.0
  Zn  Zn9  1  0.50000000  0.50000000  0.08430000  1.0
  C  C10  1  0.00000000  0.00000000  0.89729000  1.0
