data_image0
_chemical_formula_structural       Li12Au4CO
_chemical_formula_sum              "Li12 Au4 C1 O1"
_cell_length_a       6.35005
_cell_length_b       6.35005
_cell_length_c       24.7625
_cell_angle_alpha    90
_cell_angle_beta     90
_cell_angle_gamma    90

_space_group_name_H-M_alt    "P 1"
_space_group_IT_number       1

loop_
  _space_group_symop_operation_xyz
  'x, y, z'

loop_
  _atom_site_type_symbol
  _atom_site_label
  _atom_site_symmetry_multiplicity
  _atom_site_fract_x
  _atom_site_fract_y
  _atom_site_fract_z
  _atom_site_occupancy
  Li  Li1       1.0  0.25016  0.24991  0.03173  1.0000
  Li  Li2       1.0  0.75000  0.75000  0.90384  1.0000
  Li  Li3       1.0  0.74981  0.24992  0.03174  1.0000
  Li  Li4       1.0  0.25000  0.75000  0.90384  1.0000
  Li  Li5       1.0  0.74981  0.75010  0.03174  1.0000
  Li  Li6       1.0  0.25000  0.25000  0.90384  1.0000
  Li  Li7       1.0  0.25016  0.75010  0.03174  1.0000
  Li  Li8       1.0  0.75000  0.25000  0.90384  1.0000
  Li  Li9       1.0  0.00000  0.00000  0.96795  1.0000
  Li  Li10      1.0  0.49996  0.00002  0.10590  1.0000
  Li  Li11      1.0  0.00003  0.49998  0.10830  1.0000
  Li  Li12      1.0  0.50000  0.50000  0.96795  1.0000
  Au  Au1       1.0  0.99981  0.99994  0.08882  1.0000
  Au  Au2       1.0  0.50007  0.50010  0.09005  1.0000
  Au  Au3       1.0  0.50000  0.00000  0.96795  1.0000
  Au  Au4       1.0  0.00000  0.50000  0.96795  1.0000
  C   C1        1.0  0.99991  0.50004  0.19313  1.0000
  O   O1        1.0  0.99981  0.50008  0.23917  1.0000
