# generated using pymatgen
data_Li12Au4CO
_symmetry_space_group_name_H-M   P1
_cell_length_a   6.35005000
_cell_length_b   6.35005000
_cell_length_c   24.76250000
_cell_angle_alpha   90.00000000
_cell_angle_beta   90.00000000
_cell_angle_gamma   90.00000000
_symmetry_Int_Tables_number   1
_chemical_formula_structural   Li12Au4CO
_chemical_formula_sum   'Li12 Au4 C1 O1'
_cell_volume   998.50163050
_cell_formula_units_Z   1
loop_
 _symmetry_equiv_pos_site_id
 _symmetry_equiv_pos_as_xyz
  1  'x, y, z'
loop_
 _atom_site_type_symbol
 _atom_site_label
 _atom_site_symmetry_multiplicity
 _atom_site_fract_x
 _atom_site_fract_y
 _atom_site_fract_z
 _atom_site_occupancy
  Li  Li0  1  0.00000000  0.00000000  0.96795000  1.0
  Li  Li1  1  0.00003000  0.49998000  0.10830000  1.0
  Li  Li2  1  0.25000000  0.25000000  0.90384000  1.0
  Li  Li3  1  0.25000000  0.75000000  0.90384000  1.0
  Li  Li4  1  0.25016000  0.24991000  0.03173000  1.0
  Li  Li5  1  0.25016000  0.75010000  0.03174000  1.0
  Li  Li6  1  0.49996000  0.00002000  0.10590000  1.0
  Li  Li7  1  0.50000000  0.50000000  0.96795000  1.0
  Li  Li8  1  0.74981000  0.24992000  0.03174000  1.0
  Li  Li9  1  0.74981000  0.75010000  0.03174000  1.0
  Li  Li10  1  0.75000000  0.25000000  0.90384000  1.0
  Li  Li11  1  0.75000000  0.75000000  0.90384000  1.0
  Au  Au12  1  0.00000000  0.50000000  0.96795000  1.0
  Au  Au13  1  0.50000000  0.00000000  0.96795000  1.0
  Au  Au14  1  0.50007000  0.50010000  0.09005000  1.0
  Au  Au15  1  0.99981000  0.99994000  0.08882000  1.0
  C  C16  1  0.99991000  0.50004000  0.19313000  1.0
  O  O17  1  0.99981000  0.50008000  0.23917000  1.0
