# generated using pymatgen
data_Li8Ag4Sn4CO
_symmetry_space_group_name_H-M   'P 1'
_cell_length_a   6.65960000
_cell_length_b   6.65960000
_cell_length_c   24.99470000
_cell_angle_alpha   90.00000000
_cell_angle_beta   90.00000000
_cell_angle_gamma   90.00000000
_symmetry_Int_Tables_number   1
_chemical_formula_structural   Li8Ag4Sn4CO
_chemical_formula_sum   'Li8 Ag4 Sn4 C1 O1'
_cell_volume   1108.52174756
_cell_formula_units_Z   1
loop_
 _symmetry_equiv_pos_site_id
 _symmetry_equiv_pos_as_xyz
  1  'x, y, z'
loop_
 _atom_site_type_symbol
 _atom_site_label
 _atom_site_symmetry_multiplicity
 _atom_site_fract_x
 _atom_site_fract_y
 _atom_site_fract_z
 _atom_site_occupancy
  Li  Li0  1  0.00000000  0.00000000  0.96669000  1
  Li  Li1  1  1.00000000  0.50000000  0.10560000  1
  Li  Li2  1  0.50000000  0.00000000  0.10560000  1
  Li  Li3  1  0.50000000  0.50000000  0.96669000  1
  Li  Li4  1  0.72599000  0.27401000  0.03794000  1
  Li  Li5  1  0.24998000  0.24998000  0.90008000  1
  Li  Li6  1  0.27401000  0.72599000  0.03794000  1
  Li  Li7  1  0.75002000  0.75002000  0.90008000  1
  Ag  Ag8  1  0.74999000  0.25001000  0.90008000  1
  Ag  Ag9  1  0.27630500  0.27630500  0.03753000  1
  Ag  Ag10  1  0.25001000  0.74999000  0.90008000  1
  Ag  Ag11  1  0.72369500  0.72369500  0.03753000  1
  Sn  Sn12  1  0.00000000  0.00000000  0.08942000  1
  Sn  Sn13  1  0.50000000  0.50000000  0.11760000  1
  Sn  Sn14  1  1.00000000  0.50000000  0.96669000  1
  Sn  Sn15  1  0.50000000  0.00000000  0.96669000  1
  C  C16  1  1.00000000  0.00000000  0.17749000  1
  O  O17  1  1.00000000  0.00000000  0.22373000  1
