data_image0
_chemical_formula_structural       VPt3VPt3VPt3VPt3VPt3VPt3VPt3VPt3CO
_chemical_formula_sum              "V8 Pt24 C1 O1"
_cell_length_a       7.87849
_cell_length_b       7.87849
_cell_length_c       25.9089
_cell_angle_alpha    90
_cell_angle_beta     90
_cell_angle_gamma    90

_space_group_name_H-M_alt    "P 1"
_space_group_IT_number       1

loop_
  _space_group_symop_operation_xyz
  'x, y, z'

loop_
  _atom_site_type_symbol
  _atom_site_label
  _atom_site_symmetry_multiplicity
  _atom_site_fract_x
  _atom_site_fract_y
  _atom_site_fract_z
  _atom_site_occupancy
  V   V1        1.0  0.00000  0.00000  0.88597  1.0000
  Pt  Pt1       1.0  0.00000  0.25000  0.96199  1.0000
  Pt  Pt2       1.0  0.25000  0.00000  0.96199  1.0000
  Pt  Pt3       1.0  0.25000  0.25000  0.88597  1.0000
  V   V2        1.0  0.00000  0.00000  0.03801  1.0000
  Pt  Pt4       1.0  0.00000  0.25000  0.11403  1.0000
  Pt  Pt5       1.0  0.25000  0.00000  0.11403  1.0000
  Pt  Pt6       1.0  0.25000  0.25000  0.03801  1.0000
  V   V3        1.0  0.00000  0.50000  0.88597  1.0000
  Pt  Pt7       1.0  0.00000  0.75000  0.96199  1.0000
  Pt  Pt8       1.0  0.25000  0.50000  0.96199  1.0000
  Pt  Pt9       1.0  0.25000  0.75000  0.88597  1.0000
  V   V4        1.0  0.00000  0.50000  0.03801  1.0000
  Pt  Pt10      1.0  0.00000  0.75000  0.11403  1.0000
  Pt  Pt11      1.0  0.25000  0.50000  0.11403  1.0000
  Pt  Pt12      1.0  0.25000  0.75000  0.03801  1.0000
  V   V5        1.0  0.50000  0.00000  0.88597  1.0000
  Pt  Pt13      1.0  0.50000  0.25000  0.96199  1.0000
  Pt  Pt14      1.0  0.75000  0.00000  0.96199  1.0000
  Pt  Pt15      1.0  0.75000  0.25000  0.88597  1.0000
  V   V6        1.0  0.50000  0.00000  0.03801  1.0000
  Pt  Pt16      1.0  0.50000  0.25000  0.11403  1.0000
  Pt  Pt17      1.0  0.75000  0.00000  0.11403  1.0000
  Pt  Pt18      1.0  0.75000  0.25000  0.03801  1.0000
  V   V7        1.0  0.50000  0.50000  0.88597  1.0000
  Pt  Pt19      1.0  0.50000  0.75000  0.96199  1.0000
  Pt  Pt20      1.0  0.75000  0.50000  0.96199  1.0000
  Pt  Pt21      1.0  0.75000  0.75000  0.88597  1.0000
  V   V8        1.0  0.50000  0.50000  0.03801  1.0000
  Pt  Pt22      1.0  0.50000  0.75000  0.11403  1.0000
  Pt  Pt23      1.0  0.75000  0.50000  0.11403  1.0000
  Pt  Pt24      1.0  0.75000  0.75000  0.03801  1.0000
  C   C1        1.0  0.25000  0.00000  0.18737  1.0000
  O   O1        1.0  0.25000  0.00000  0.23175  1.0000
