# generated using pymatgen
data_Li8Y8In8Pt8C
_symmetry_space_group_name_H-M   'P 1'
_cell_length_a   9.62122000
_cell_length_b   6.80323000
_cell_length_c   27.21590000
_cell_angle_alpha   90.00000000
_cell_angle_beta   90.00000000
_cell_angle_gamma   90.00000000
_symmetry_Int_Tables_number   1
_chemical_formula_structural   Li8Y8In8Pt8C
_chemical_formula_sum   'Li8 Y8 In8 Pt8 C1'
_cell_volume   1781.42687353
_cell_formula_units_Z   1
loop_
 _symmetry_equiv_pos_site_id
 _symmetry_equiv_pos_as_xyz
  1  'x, y, z'
loop_
 _atom_site_type_symbol
 _atom_site_label
 _atom_site_symmetry_multiplicity
 _atom_site_fract_x
 _atom_site_fract_y
 _atom_site_fract_z
 _atom_site_occupancy
  Li  Li0  1  0.75000000  0.75000000  0.04419000  1.0
  Li  Li1  1  0.25000000  0.75000000  0.04419000  1.0
  Li  Li2  1  0.00000000  0.25000000  0.13257000  1.0
  Li  Li3  1  0.50000000  0.25000000  0.13257000  1.0
  Li  Li4  1  0.28672000  0.53449000  0.80990000  1.0
  Li  Li5  1  0.71328000  0.53449000  0.80990000  1.0
  Li  Li6  1  0.50000000  0.25219000  0.95827000  1.0
  Li  Li7  1  0.00000000  0.20409000  0.93870000  1.0
  Y  Y8  1  0.00000000  0.00000000  0.04419000  1.0
  Y  Y9  1  0.50000000  1.00000000  0.04419000  1.0
  Y  Y10  1  0.25000000  0.50000000  0.13257000  1.0
  Y  Y11  1  0.75000000  0.50000000  0.13257000  1.0
  Y  Y12  1  0.50000000  0.96713000  0.87098000  1.0
  Y  Y13  1  0.00000000  0.85860000  0.86607000  1.0
  Y  Y14  1  0.75580000  0.50180000  0.95117000  1.0
  Y  Y15  1  0.24420000  0.50180000  0.95117000  1.0
  In  In16  1  0.75000000  0.00000000  0.13257000  1.0
  In  In17  1  0.25000000  0.00000000  0.13257000  1.0
  In  In18  1  0.50000000  0.50000000  0.04419000  1.0
  In  In19  1  0.00000000  0.50000000  0.04419000  1.0
  In  In20  1  0.25323000  0.99086000  0.95510000  1.0
  In  In21  1  0.74677000  0.99086000  0.95510000  1.0
  In  In22  1  0.00000000  0.44918000  0.80953000  1.0
  In  In23  1  0.50000000  0.46311000  0.87074000  1.0
  Pt  Pt24  1  0.75000000  0.25000000  0.04419000  1.0
  Pt  Pt25  1  0.25000000  0.25000000  0.04419000  1.0
  Pt  Pt26  1  0.00000000  0.75000000  0.13257000  1.0
  Pt  Pt27  1  0.50000000  0.75000000  0.13257000  1.0
  Pt  Pt28  1  0.21121000  0.24197000  0.87206000  1.0
  Pt  Pt29  1  0.78879000  0.24197000  0.87206000  1.0
  Pt  Pt30  1  0.50000000  0.74248000  0.95775000  1.0
  Pt  Pt31  1  0.00000000  0.75264000  0.96379000  1.0
  C  C32  1  0.00000000  0.18420000  0.85791000  1.0
