# generated using pymatgen
data_Li2SbPt
_symmetry_space_group_name_H-M   'P 1'
_cell_length_a   4.52921692
_cell_length_b   4.52921692
_cell_length_c   24.80400000
_cell_angle_alpha   90.00000000
_cell_angle_beta   90.00000000
_cell_angle_gamma   90.00000000
_symmetry_Int_Tables_number   1
_chemical_formula_structural   Li2SbPt
_chemical_formula_sum   'Li4 Sb2 Pt2'
_cell_volume   508.82444252
_cell_formula_units_Z   2
loop_
 _symmetry_equiv_pos_site_id
 _symmetry_equiv_pos_as_xyz
  1  'x, y, z'
loop_
 _atom_site_type_symbol
 _atom_site_label
 _atom_site_symmetry_multiplicity
 _atom_site_fract_x
 _atom_site_fract_y
 _atom_site_fract_z
 _atom_site_occupancy
  Li  Li0  1  0.00000000  0.00000000  0.97088000  1.0
  Li  Li1  1  0.50000000  0.50000000  0.09684000  1.0
  Li  Li2  1  0.00000000  0.50000000  0.89090000  1.0
  Li  Li3  1  0.50000000  0.00000000  0.03228000  1.0
  Sb  Sb4  1  0.00000000  0.00000000  0.09684000  1.0
  Sb  Sb5  1  0.50000000  0.50000000  0.96494000  1.0
  Pt  Pt6  1  0.00000000  0.50000000  0.03228000  1.0
  Pt  Pt7  1  0.50000000  0.00000000  0.91276000  1.0
