# generated using pymatgen
data_Zr8In8Cu16C
_symmetry_space_group_name_H-M   'P 1'
_cell_length_a   9.16384000
_cell_length_b   6.47982000
_cell_length_c   26.87290000
_cell_angle_alpha   90.00000000
_cell_angle_beta   90.00000000
_cell_angle_gamma   90.00000000
_symmetry_Int_Tables_number   1
_chemical_formula_structural   Zr8In8Cu16C
_chemical_formula_sum   'Zr8 In8 Cu16 C1'
_cell_volume   1595.71370785
_cell_formula_units_Z   1
loop_
 _symmetry_equiv_pos_site_id
 _symmetry_equiv_pos_as_xyz
  1  'x, y, z'
loop_
 _atom_site_type_symbol
 _atom_site_label
 _atom_site_symmetry_multiplicity
 _atom_site_fract_x
 _atom_site_fract_y
 _atom_site_fract_z
 _atom_site_occupancy
  Zr  Zr0  1  0.75000000  0.00000000  0.12788000  1.0
  Zr  Zr1  1  0.00000000  0.50000000  0.04263000  1.0
  Zr  Zr2  1  0.50000000  0.50000000  0.04263000  1.0
  Zr  Zr3  1  0.25000000  0.00000000  0.12788000  1.0
  Zr  Zr4  1  0.25617000  0.00181000  0.95478000  1.0
  Zr  Zr5  1  0.50000000  0.47221000  0.87781000  1.0
  Zr  Zr6  1  0.00000000  0.51434000  0.88083000  1.0
  Zr  Zr7  1  0.74383000  0.00181000  0.95478000  1.0
  In  In8  1  0.50000000  0.00000000  0.04263000  1.0
  In  In9  1  0.75000000  0.50000000  0.12788000  1.0
  In  In10  1  0.00000000  0.00000000  0.04263000  1.0
  In  In11  1  0.25000000  0.50000000  0.12788000  1.0
  In  In12  1  0.00000000  0.90438000  0.83230000  1.0
  In  In13  1  0.24842000  0.49794000  0.95829000  1.0
  In  In14  1  0.50000000  0.00615000  0.86428000  1.0
  In  In15  1  0.75158000  0.49794000  0.95829000  1.0
  Cu  Cu16  1  0.75000000  0.25000000  0.04263000  1.0
  Cu  Cu17  1  0.25000000  0.75000000  0.04263000  1.0
  Cu  Cu18  1  0.75000000  0.75000000  0.04263000  1.0
  Cu  Cu19  1  0.25000000  0.25000000  0.04263000  1.0
  Cu  Cu20  1  0.50000000  0.75000000  0.12788000  1.0
  Cu  Cu21  1  0.00000000  0.25000000  0.12788000  1.0
  Cu  Cu22  1  0.50000000  0.25000000  0.12788000  1.0
  Cu  Cu23  1  0.00000000  0.75000000  0.12788000  1.0
  Cu  Cu24  1  0.22107000  0.22486000  0.86371000  1.0
  Cu  Cu25  1  0.73912000  0.74001000  0.87102000  1.0
  Cu  Cu26  1  0.26088000  0.74001000  0.87102000  1.0
  Cu  Cu27  1  0.77893000  0.22486000  0.86371000  1.0
  Cu  Cu28  1  0.00000000  0.77975000  0.95911000  1.0
  Cu  Cu29  1  0.50000000  0.24565000  0.96006000  1.0
  Cu  Cu30  1  0.00000000  0.22589000  0.95589000  1.0
  Cu  Cu31  1  0.50000000  0.74914000  0.95619000  1.0
  C  C32  1  0.00000000  0.23083000  0.84737000  1.0
