# generated using pymatgen
data_Li4In4Cu4Sn4C
_symmetry_space_group_name_H-M   'P 1'
_cell_length_a   6.73938000
_cell_length_b   6.73938000
_cell_length_c   25.05450000
_cell_angle_alpha   90.00000000
_cell_angle_beta   90.00000000
_cell_angle_gamma   90.00000000
_symmetry_Int_Tables_number   1
_chemical_formula_structural   Li4In4Cu4Sn4C
_chemical_formula_sum   'Li4 In4 Cu4 Sn4 C1'
_cell_volume   1137.95641834
_cell_formula_units_Z   1
loop_
 _symmetry_equiv_pos_site_id
 _symmetry_equiv_pos_as_xyz
  1  'x, y, z'
loop_
 _atom_site_type_symbol
 _atom_site_label
 _atom_site_symmetry_multiplicity
 _atom_site_fract_x
 _atom_site_fract_y
 _atom_site_fract_z
 _atom_site_occupancy
  Li  Li0  1  0.46845000  0.96854000  0.88677000  1
  Li  Li1  1  0.00000000  0.00000000  0.03362000  1
  Li  Li2  1  0.50000000  0.50000000  0.03362000  1
  Li  Li3  1  0.03146000  0.53155000  0.88677000  1
  In  In4  1  0.25011500  0.74988500  0.98250000  1
  In  In5  1  0.75000000  0.75000000  0.10087000  1
  In  In6  1  0.25000000  0.25000000  0.10087000  1
  In  In7  1  0.74964500  0.25035500  0.95896000  1
  Cu  Cu8  1  0.05426000  0.94574000  0.90643000  1
  Cu  Cu9  1  0.50000000  1.00000000  0.03362000  1
  Cu  Cu10  1  0.00000000  0.50000000  0.03362000  1
  Cu  Cu11  1  0.44698000  0.55302000  0.90669000  1
  Sn  Sn12  1  0.24937000  0.24941000  0.96013000  1
  Sn  Sn13  1  0.75000000  0.25000000  0.10087000  1
  Sn  Sn14  1  0.25000000  0.75000000  0.10087000  1
  Sn  Sn15  1  0.75059000  0.75063000  0.96013000  1
  C  C16  1  0.25078000  0.74922000  0.88888000  1
