# generated using pymatgen
data_Zr8Ni16Sb8CO
_symmetry_space_group_name_H-M   'P 1'
_cell_length_a   6.34847000
_cell_length_b   8.97809000
_cell_length_c   26.73360000
_cell_angle_alpha   90.00000000
_cell_angle_beta   90.00000000
_cell_angle_gamma   90.00000000
_symmetry_Int_Tables_number   1
_chemical_formula_structural   Zr8Ni16Sb8CO
_chemical_formula_sum   'Zr8 Ni16 Sb8 C1 O1'
_cell_volume   1523.73860883
_cell_formula_units_Z   1
loop_
 _symmetry_equiv_pos_site_id
 _symmetry_equiv_pos_as_xyz
  1  'x, y, z'
loop_
 _atom_site_type_symbol
 _atom_site_label
 _atom_site_symmetry_multiplicity
 _atom_site_fract_x
 _atom_site_fract_y
 _atom_site_fract_z
 _atom_site_occupancy
  Zr  Zr0  1  0.00000000  0.75000000  0.87406000  1.0
  Zr  Zr1  1  0.50000000  0.00000000  0.95802000  1.0
  Zr  Zr2  1  0.50000000  0.50000000  0.95802000  1.0
  Zr  Zr3  1  0.00000000  0.25000000  0.87406000  1.0
  Zr  Zr4  1  0.00000000  0.25559000  0.04205000  1.0
  Zr  Zr5  1  0.50000000  0.50000000  0.12862000  1.0
  Zr  Zr6  1  0.50000000  0.00000000  0.12467000  1.0
  Zr  Zr7  1  0.00000000  0.74441000  0.04205000  1.0
  Ni  Ni8  1  0.25000000  0.75000000  0.95802000  1.0
  Ni  Ni9  1  0.75000000  0.25000000  0.95802000  1.0
  Ni  Ni10  1  0.75000000  0.75000000  0.95802000  1.0
  Ni  Ni11  1  0.25000000  0.25000000  0.95802000  1.0
  Ni  Ni12  1  0.75000000  0.50000000  0.87406000  1.0
  Ni  Ni13  1  0.25000000  0.00000000  0.87406000  1.0
  Ni  Ni14  1  0.25000000  0.50000000  0.87406000  1.0
  Ni  Ni15  1  0.75000000  0.00000000  0.87406000  1.0
  Ni  Ni16  1  0.26811000  0.25254000  0.11835000  1.0
  Ni  Ni17  1  0.73189000  0.74746000  0.11835000  1.0
  Ni  Ni18  1  0.73189000  0.25254000  0.11835000  1.0
  Ni  Ni19  1  0.26811000  0.74746000  0.11835000  1.0
  Ni  Ni20  1  0.77549000  0.00000000  0.04312000  1.0
  Ni  Ni21  1  0.26508000  0.50000000  0.04732000  1.0
  Ni  Ni22  1  0.22451000  0.00000000  0.04312000  1.0
  Ni  Ni23  1  0.73492000  0.50000000  0.04732000  1.0
  Sb  Sb24  1  0.00000000  0.50000000  0.95802000  1.0
  Sb  Sb25  1  0.50000000  0.75000000  0.87406000  1.0
  Sb  Sb26  1  0.00000000  0.00000000  0.95802000  1.0
  Sb  Sb27  1  0.50000000  0.25000000  0.87406000  1.0
  Sb  Sb28  1  0.00000000  0.00000000  0.13226000  1.0
  Sb  Sb29  1  0.50000000  0.24498000  0.03938000  1.0
  Sb  Sb30  1  0.00000000  0.50000000  0.13228000  1.0
  Sb  Sb31  1  0.50000000  0.75502000  0.03938000  1.0
  C  C32  1  0.50000000  0.00000000  0.21015000  1.0
  O  O33  1  0.50000000  0.00000000  0.25318000  1.0
