# generated using pymatgen
data_Zr8Ni16Sb8CO
_symmetry_space_group_name_H-M   Pmm2
_cell_length_a   6.34847000
_cell_length_b   8.97809000
_cell_length_c   26.73360000
_cell_angle_alpha   90.00000000
_cell_angle_beta   90.00000000
_cell_angle_gamma   90.00000000
_symmetry_Int_Tables_number   25
_chemical_formula_structural   Zr8Ni16Sb8CO
_chemical_formula_sum   'Zr8 Ni16 Sb8 C1 O1'
_cell_volume   1523.73860883
_cell_formula_units_Z   1
loop_
 _symmetry_equiv_pos_site_id
 _symmetry_equiv_pos_as_xyz
  1  'x, y, z'
  2  '-x, -y, z'
  3  '-x, y, z'
  4  'x, -y, z'
loop_
 _atom_site_type_symbol
 _atom_site_label
 _atom_site_symmetry_multiplicity
 _atom_site_fract_x
 _atom_site_fract_y
 _atom_site_fract_z
 _atom_site_occupancy
  Zr  Zr0  2  0.00000000  0.25000000  0.87406000  1.0
  Zr  Zr1  2  0.00000000  0.25559000  0.04205000  1.0
  Zr  Zr2  1  0.50000000  0.00000000  0.12467000  1.0
  Zr  Zr3  1  0.50000000  0.00000000  0.95802000  1.0
  Zr  Zr4  1  0.50000000  0.50000000  0.12862000  1.0
  Zr  Zr5  1  0.50000000  0.50000000  0.95802000  1.0
  Ni  Ni6  4  0.25000000  0.25000000  0.95802000  1.0
  Ni  Ni7  4  0.26811000  0.25254000  0.11835000  1.0
  Ni  Ni8  2  0.22451000  0.00000000  0.04312000  1.0
  Ni  Ni9  2  0.25000000  0.50000000  0.87406000  1.0
  Ni  Ni10  2  0.25000000  0.00000000  0.87406000  1.0
  Ni  Ni11  2  0.26508000  0.50000000  0.04732000  1.0
  Sb  Sb12  2  0.50000000  0.24498000  0.03938000  1.0
  Sb  Sb13  2  0.50000000  0.25000000  0.87406000  1.0
  Sb  Sb14  1  0.00000000  0.00000000  0.13226000  1.0
  Sb  Sb15  1  0.00000000  0.00000000  0.95802000  1.0
  Sb  Sb16  1  0.00000000  0.50000000  0.13228000  1.0
  Sb  Sb17  1  0.00000000  0.50000000  0.95802000  1.0
  C  C18  1  0.50000000  0.00000000  0.21015000  1.0
  O  O19  1  0.50000000  0.00000000  0.25318000  1.0
