# generated using pymatgen
data_Li16Al8Pd8C
_symmetry_space_group_name_H-M   Pm
_cell_length_a   6.13337000
_cell_length_b   8.67390000
_cell_length_c   26.50540000
_cell_angle_alpha   90.00000000
_cell_angle_beta   90.00000000
_cell_angle_gamma   90.00000000
_symmetry_Int_Tables_number   6
_chemical_formula_structural   Li16Al8Pd8C
_chemical_formula_sum   'Li16 Al8 Pd8 C1'
_cell_volume   1410.09358942
_cell_formula_units_Z   1
loop_
 _symmetry_equiv_pos_site_id
 _symmetry_equiv_pos_as_xyz
  1  'x, y, z'
  2  'x, -y, z'
loop_
 _atom_site_type_symbol
 _atom_site_label
 _atom_site_symmetry_multiplicity
 _atom_site_fract_x
 _atom_site_fract_y
 _atom_site_fract_z
 _atom_site_occupancy
  Li  Li0  2  0.25000000  0.25001000  0.95909000  1.0
  Li  Li1  2  0.27285000  0.23489000  0.12658000  1.0
  Li  Li2  2  0.49896000  0.24165000  0.04074000  1.0
  Li  Li3  2  0.50000000  0.25001000  0.87728000  1.0
  Li  Li4  1  0.00000000  0.00000000  0.95909000  1.0
  Li  Li5  1  0.00000000  0.50000000  0.95909000  1.0
  Li  Li6  1  0.00426000  0.50000000  0.12652000  1.0
  Li  Li7  1  0.75000000  0.00000000  0.87728000  1.0
  Li  Li8  1  0.75000000  0.50000000  0.87728000  1.0
  Li  Li9  1  0.75924000  0.50000000  0.03747000  1.0
  Li  Li10  1  0.76107000  0.00000000  0.04517000  1.0
  Li  Li11  1  0.99909000  0.00000000  0.14511000  1.0
  Al  Al12  2  0.00000000  0.25001000  0.87728000  1.0
  Al  Al13  2  0.00666000  0.25616000  0.03943000  1.0
  Al  Al14  1  0.50000000  0.00000000  0.95909000  1.0
  Al  Al15  1  0.50000000  0.50000000  0.95909000  1.0
  Al  Al16  1  0.52426000  0.50000000  0.11655000  1.0
  Al  Al17  1  0.58598000  0.00000000  0.14009000  1.0
  Pd  Pd18  2  0.75000000  0.24999000  0.95909000  1.0
  Pd  Pd19  2  0.75814000  0.25782000  0.11616000  1.0
  Pd  Pd20  1  0.23554000  0.00000000  0.04105000  1.0
  Pd  Pd21  1  0.25000000  0.00000000  0.87728000  1.0
  Pd  Pd22  1  0.25000000  0.50000000  0.87728000  1.0
  Pd  Pd23  1  0.25459000  0.50000000  0.04250000  1.0
  C  C24  1  0.29693000  0.00000000  0.11732000  1.0
