# generated using pymatgen
data_Ca24Pb8C
_symmetry_space_group_name_H-M   'P 1'
_cell_length_a   10.21910000
_cell_length_b   10.21910000
_cell_length_c   27.66430000
_cell_angle_alpha   90.00000000
_cell_angle_beta   90.00000000
_cell_angle_gamma   90.00000000
_symmetry_Int_Tables_number   1
_chemical_formula_structural   Ca24Pb8C
_chemical_formula_sum   'Ca24 Pb8 C1'
_cell_volume   2888.98298207
_cell_formula_units_Z   1
loop_
 _symmetry_equiv_pos_site_id
 _symmetry_equiv_pos_as_xyz
  1  'x, y, z'
loop_
 _atom_site_type_symbol
 _atom_site_label
 _atom_site_symmetry_multiplicity
 _atom_site_fract_x
 _atom_site_fract_y
 _atom_site_fract_z
 _atom_site_occupancy
  Ca  Ca0  1  0.00027000  0.25300000  0.04886000  1.0
  Ca  Ca1  1  0.25017000  0.99999000  0.04564000  1.0
  Ca  Ca2  1  0.24994000  0.24088000  0.14942000  1.0
  Ca  Ca3  1  0.00000000  0.25000000  0.86148000  1.0
  Ca  Ca4  1  0.25000000  0.00000000  0.86148000  1.0
  Ca  Ca5  1  0.25000000  0.25000000  0.95383000  1.0
  Ca  Ca6  1  0.00026000  0.74702000  0.04888000  1.0
  Ca  Ca7  1  0.24988000  0.50003000  0.05136000  1.0
  Ca  Ca8  1  0.24989000  0.75912000  0.14945000  1.0
  Ca  Ca9  1  0.00000000  0.75000000  0.86148000  1.0
  Ca  Ca10  1  0.25000000  0.50000000  0.86148000  1.0
  Ca  Ca11  1  0.25000000  0.75000000  0.95383000  1.0
  Ca  Ca12  1  0.49983000  0.25309000  0.04887000  1.0
  Ca  Ca13  1  0.75017000  0.00000000  0.05375000  1.0
  Ca  Ca14  1  0.75002000  0.29095000  0.15039000  1.0
  Ca  Ca15  1  0.50000000  0.25000000  0.86148000  1.0
  Ca  Ca16  1  0.75000000  0.00000000  0.86148000  1.0
  Ca  Ca17  1  0.75000000  0.25000000  0.95383000  1.0
  Ca  Ca18  1  0.49983000  0.74690000  0.04886000  1.0
  Ca  Ca19  1  0.75000000  0.50003000  0.04572000  1.0
  Ca  Ca20  1  0.75002000  0.70905000  0.15040000  1.0
  Ca  Ca21  1  0.50000000  0.75000000  0.86148000  1.0
  Ca  Ca22  1  0.75000000  0.50000000  0.86148000  1.0
  Ca  Ca23  1  0.75000000  0.75000000  0.95383000  1.0
  Pb  Pb24  1  0.01331000  0.99997000  0.13699000  1.0
  Pb  Pb25  1  0.00000000  0.00000000  0.95383000  1.0
  Pb  Pb26  1  0.00184000  0.50001000  0.13001000  1.0
  Pb  Pb27  1  0.00000000  0.50000000  0.95383000  1.0
  Pb  Pb28  1  0.48845000  0.00002000  0.13694000  1.0
  Pb  Pb29  1  0.50000000  0.00000000  0.95383000  1.0
  Pb  Pb30  1  0.49809000  0.49999000  0.13003000  1.0
  Pb  Pb31  1  0.50000000  0.50000000  0.95383000  1.0
  C  C32  1  0.25140000  0.99998000  0.13382000  1.0
