data_image0
_chemical_formula_structural       Li8Mg16Ga8CO
_chemical_formula_sum              "Li8 Mg16 Ga8 C1 O1"
_cell_length_a       6.69031
_cell_length_b       9.46152
_cell_length_c       27.0961
_cell_angle_alpha    90
_cell_angle_beta     90
_cell_angle_gamma    90

_space_group_name_H-M_alt    "P 1"
_space_group_IT_number       1

loop_
  _space_group_symop_operation_xyz
  'x, y, z'

loop_
  _atom_site_type_symbol
  _atom_site_label
  _atom_site_symmetry_multiplicity
  _atom_site_fract_x
  _atom_site_fract_y
  _atom_site_fract_z
  _atom_site_occupancy
  Li  Li1       1.0  0.00000  0.00000  0.86906  1.0000
  Li  Li2       1.0  0.50000  0.25000  0.95635  1.0000
  Li  Li3       1.0  0.50000  0.75000  0.95635  1.0000
  Li  Li4       1.0  0.00000  0.50000  0.86906  1.0000
  Li  Li5       1.0  0.00638  0.50000  0.04950  1.0000
  Li  Li6       1.0  0.50540  0.74711  0.13888  1.0000
  Li  Li7       1.0  0.50539  0.25290  0.13887  1.0000
  Li  Li8       1.0  0.99429  1.00000  0.04733  1.0000
  Mg  Mg1       1.0  0.25000  0.00000  0.95635  1.0000
  Mg  Mg2       1.0  0.75000  0.50000  0.95635  1.0000
  Mg  Mg3       1.0  0.75000  0.00000  0.95635  1.0000
  Mg  Mg4       1.0  0.25000  0.50000  0.95635  1.0000
  Mg  Mg5       1.0  0.75000  0.75000  0.86906  1.0000
  Mg  Mg6       1.0  0.25000  0.25000  0.86906  1.0000
  Mg  Mg7       1.0  0.25000  0.75000  0.86906  1.0000
  Mg  Mg8       1.0  0.75000  0.25000  0.86906  1.0000
  Mg  Mg9       1.0  0.24133  0.50001  0.14108  1.0000
  Mg  Mg10      1.0  0.76075  0.00001  0.13813  1.0000
  Mg  Mg11      1.0  0.75892  0.50000  0.13840  1.0000
  Mg  Mg12      1.0  0.23649  0.00000  0.13712  1.0000
  Mg  Mg13      1.0  0.75008  0.25307  0.04599  1.0000
  Mg  Mg14      1.0  0.25135  0.75097  0.04675  1.0000
  Mg  Mg15      1.0  0.25135  0.24903  0.04675  1.0000
  Mg  Mg16      1.0  0.75008  0.74693  0.04599  1.0000
  Ga  Ga1       1.0  0.00000  0.75000  0.95635  1.0000
  Ga  Ga2       1.0  0.50000  0.00000  0.86906  1.0000
  Ga  Ga3       1.0  0.00000  0.25000  0.95635  1.0000
  Ga  Ga4       1.0  0.50000  0.50000  0.86906  1.0000
  Ga  Ga5       1.0  0.99680  0.25260  0.13246  1.0000
  Ga  Ga6       1.0  0.49570  0.50000  0.04783  1.0000
  Ga  Ga7       1.0  0.99680  0.74741  0.13246  1.0000
  Ga  Ga8       1.0  0.50422  0.00000  0.04780  1.0000
  C   C1        1.0  0.25217  1.00000  0.22026  1.0000
  O   O1        1.0  0.26538  1.00000  0.26246  1.0000
