# generated using pymatgen
data_Li8Mg16Ga8CO
_symmetry_space_group_name_H-M   'P 1'
_cell_length_a   9.46152000
_cell_length_b   6.69031000
_cell_length_c   27.09610000
_cell_angle_alpha   90.00000000
_cell_angle_beta   90.00000000
_cell_angle_gamma   90.00000000
_symmetry_Int_Tables_number   1
_chemical_formula_structural   Li8Mg16Ga8CO
_chemical_formula_sum   'Li8 Mg16 Ga8 C1 O1'
_cell_volume   1715.19672875
_cell_formula_units_Z   1
loop_
 _symmetry_equiv_pos_site_id
 _symmetry_equiv_pos_as_xyz
  1  'x, y, z'
loop_
 _atom_site_type_symbol
 _atom_site_label
 _atom_site_symmetry_multiplicity
 _atom_site_fract_x
 _atom_site_fract_y
 _atom_site_fract_z
 _atom_site_occupancy
  Li  Li0  1  0.00000000  0.00000000  0.13094000  1.0
  Li  Li1  1  0.25000000  0.50000000  0.04365000  1.0
  Li  Li2  1  0.75000000  0.50000000  0.04365000  1.0
  Li  Li3  1  0.50000000  0.00000000  0.13094000  1.0
  Li  Li4  1  0.50000000  0.00638000  0.95050000  1.0
  Li  Li5  1  0.74711000  0.50540000  0.86112000  1.0
  Li  Li6  1  0.25289000  0.50540000  0.86112000  1.0
  Li  Li7  1  0.00000000  0.99429000  0.95267000  1.0
  Mg  Mg8  1  0.00000000  0.25000000  0.04365000  1.0
  Mg  Mg9  1  0.50000000  0.75000000  0.04365000  1.0
  Mg  Mg10  1  0.00000000  0.75000000  0.04365000  1.0
  Mg  Mg11  1  0.50000000  0.25000000  0.04365000  1.0
  Mg  Mg12  1  0.75000000  0.75000000  0.13094000  1.0
  Mg  Mg13  1  0.25000000  0.25000000  0.13094000  1.0
  Mg  Mg14  1  0.75000000  0.25000000  0.13094000  1.0
  Mg  Mg15  1  0.25000000  0.75000000  0.13094000  1.0
  Mg  Mg16  1  0.50000000  0.24133000  0.85892000  1.0
  Mg  Mg17  1  0.00000000  0.76075000  0.86187000  1.0
  Mg  Mg18  1  0.50000000  0.75892000  0.86160000  1.0
  Mg  Mg19  1  0.00000000  0.23649000  0.86288000  1.0
  Mg  Mg20  1  0.25307000  0.75008000  0.95401000  1.0
  Mg  Mg21  1  0.75097000  0.25135000  0.95325000  1.0
  Mg  Mg22  1  0.24903000  0.25135000  0.95325000  1.0
  Mg  Mg23  1  0.74693000  0.75008000  0.95401000  1.0
  Ga  Ga24  1  0.75000000  0.00000000  0.04365000  1.0
  Ga  Ga25  1  0.00000000  0.50000000  0.13094000  1.0
  Ga  Ga26  1  0.25000000  0.00000000  0.04365000  1.0
  Ga  Ga27  1  0.50000000  0.50000000  0.13094000  1.0
  Ga  Ga28  1  0.25260000  0.99680000  0.86754000  1.0
  Ga  Ga29  1  0.50000000  0.49570000  0.95217000  1.0
  Ga  Ga30  1  0.74740000  0.99680000  0.86754000  1.0
  Ga  Ga31  1  0.00000000  0.50422000  0.95220000  1.0
  C  C32  1  0.00000000  0.25217000  0.77974000  1.0
  O  O33  1  0.00000000  0.26538000  0.73754000  1.0
