# generated using pymatgen
data_Li8Mg16Ga8CO
_symmetry_space_group_name_H-M   Pm
_cell_length_a   6.69031000
_cell_length_b   9.46152000
_cell_length_c   27.09610000
_cell_angle_alpha   90.00000000
_cell_angle_beta   90.00000000
_cell_angle_gamma   90.00000000
_symmetry_Int_Tables_number   6
_chemical_formula_structural   Li8Mg16Ga8CO
_chemical_formula_sum   'Li8 Mg16 Ga8 C1 O1'
_cell_volume   1715.19672875
_cell_formula_units_Z   1
loop_
 _symmetry_equiv_pos_site_id
 _symmetry_equiv_pos_as_xyz
  1  'x, y, z'
  2  'x, -y, z'
loop_
 _atom_site_type_symbol
 _atom_site_label
 _atom_site_symmetry_multiplicity
 _atom_site_fract_x
 _atom_site_fract_y
 _atom_site_fract_z
 _atom_site_occupancy
  Li  Li0  2  0.50000000  0.25000000  0.95635000  1.0
  Li  Li1  2  0.50540000  0.25289000  0.13888000  1.0
  Li  Li2  1  0.00000000  0.00000000  0.86906000  1.0
  Li  Li3  1  0.00000000  0.50000000  0.86906000  1.0
  Li  Li4  1  0.00638000  0.50000000  0.04950000  1.0
  Li  Li5  1  0.99429000  0.00000000  0.04733000  1.0
  Mg  Mg6  2  0.25000000  0.25000000  0.86906000  1.0
  Mg  Mg7  2  0.25135000  0.24903000  0.04675000  1.0
  Mg  Mg8  2  0.75000000  0.25000000  0.86906000  1.0
  Mg  Mg9  2  0.75008000  0.25307000  0.04599000  1.0
  Mg  Mg10  1  0.23649000  0.00000000  0.13712000  1.0
  Mg  Mg11  1  0.24133000  0.50000000  0.14108000  1.0
  Mg  Mg12  1  0.25000000  0.00000000  0.95635000  1.0
  Mg  Mg13  1  0.25000000  0.50000000  0.95635000  1.0
  Mg  Mg14  1  0.75000000  0.00000000  0.95635000  1.0
  Mg  Mg15  1  0.75000000  0.50000000  0.95635000  1.0
  Mg  Mg16  1  0.75892000  0.50000000  0.13840000  1.0
  Mg  Mg17  1  0.76075000  0.00000000  0.13813000  1.0
  Ga  Ga18  2  0.00000000  0.25000000  0.95635000  1.0
  Ga  Ga19  2  0.99680000  0.25260000  0.13246000  1.0
  Ga  Ga20  1  0.49570000  0.50000000  0.04783000  1.0
  Ga  Ga21  1  0.50000000  0.00000000  0.86906000  1.0
  Ga  Ga22  1  0.50000000  0.50000000  0.86906000  1.0
  Ga  Ga23  1  0.50422000  0.00000000  0.04780000  1.0
  C  C24  1  0.25217000  0.00000000  0.22026000  1.0
  O  O25  1  0.26538000  0.00000000  0.26246000  1.0
