# generated using pymatgen
data_Pd12Pb4CO
_symmetry_space_group_name_H-M   'P 1'
_cell_length_a   5.88450000
_cell_length_b   8.32195000
_cell_length_c   24.41340000
_cell_angle_alpha   90.00000000
_cell_angle_beta   90.00000000
_cell_angle_gamma   90.00000000
_symmetry_Int_Tables_number   1
_chemical_formula_structural   Pd12Pb4CO
_chemical_formula_sum   'Pd12 Pb4 C1 O1'
_cell_volume   1195.53676541
_cell_formula_units_Z   1
loop_
 _symmetry_equiv_pos_site_id
 _symmetry_equiv_pos_as_xyz
  1  'x, y, z'
loop_
 _atom_site_type_symbol
 _atom_site_label
 _atom_site_symmetry_multiplicity
 _atom_site_fract_x
 _atom_site_fract_y
 _atom_site_fract_z
 _atom_site_occupancy
  Pd  Pd0  1  0.50000000  0.00000000  0.90728000  1.0
  Pd  Pd1  1  0.75446000  0.24995000  0.97066000  1.0
  Pd  Pd2  1  0.24554000  0.24995000  0.97066000  1.0
  Pd  Pd3  1  0.00000000  0.00000000  0.03013000  1.0
  Pd  Pd4  1  0.25000000  0.25000000  0.09039000  1.0
  Pd  Pd5  1  0.75000000  0.25000000  0.09039000  1.0
  Pd  Pd6  1  0.50000000  0.50000000  0.91526000  1.0
  Pd  Pd7  1  0.75446000  0.75005000  0.97066000  1.0
  Pd  Pd8  1  0.24554000  0.75005000  0.97066000  1.0
  Pd  Pd9  1  0.00000000  0.50000000  0.03013000  1.0
  Pd  Pd10  1  0.25000000  0.75000000  0.09039000  1.0
  Pd  Pd11  1  0.75000000  0.75000000  0.09039000  1.0
  Pb  Pb12  1  0.00000000  0.00000000  0.91135000  1.0
  Pb  Pb13  1  0.50000000  0.00000000  0.03013000  1.0
  Pb  Pb14  1  0.00000000  0.50000000  0.91015000  1.0
  Pb  Pb15  1  0.50000000  0.50000000  0.03013000  1.0
  C  C16  1  0.50000000  0.00000000  0.82721000  1.0
  O  O17  1  0.50000000  0.00000000  0.78004000  1.0
