# generated using pymatgen
data_Zr8Ni16Sn8C
_symmetry_space_group_name_H-M   'P 1'
_cell_length_a   6.34024000
_cell_length_b   8.96645000
_cell_length_c   26.72480000
_cell_angle_alpha   90.00000000
_cell_angle_beta   90.00000000
_cell_angle_gamma   90.00000000
_symmetry_Int_Tables_number   1
_chemical_formula_structural   Zr8Ni16Sn8C
_chemical_formula_sum   'Zr8 Ni16 Sn8 C1'
_cell_volume   1519.29004635
_cell_formula_units_Z   1
loop_
 _symmetry_equiv_pos_site_id
 _symmetry_equiv_pos_as_xyz
  1  'x, y, z'
loop_
 _atom_site_type_symbol
 _atom_site_label
 _atom_site_symmetry_multiplicity
 _atom_site_fract_x
 _atom_site_fract_y
 _atom_site_fract_z
 _atom_site_occupancy
  Zr  Zr0  1  0.00000000  0.00000000  0.87418000  1.0
  Zr  Zr1  1  0.50000000  0.25000000  0.95806000  1.0
  Zr  Zr2  1  0.50000000  0.75000000  0.95806000  1.0
  Zr  Zr3  1  0.00000000  0.50000000  0.87418000  1.0
  Zr  Zr4  1  0.00000000  0.50000000  0.04142000  1.0
  Zr  Zr5  1  0.50000000  0.74799000  0.12480000  1.0
  Zr  Zr6  1  0.50000000  0.25201000  0.12480000  1.0
  Zr  Zr7  1  0.00000000  0.00000000  0.04519000  1.0
  Ni  Ni8  1  0.25000000  0.00000000  0.95806000  1.0
  Ni  Ni9  1  0.75000000  0.50000000  0.95806000  1.0
  Ni  Ni10  1  0.75000000  0.00000000  0.95806000  1.0
  Ni  Ni11  1  0.25000000  0.50000000  0.95806000  1.0
  Ni  Ni12  1  0.75000000  0.75000000  0.87418000  1.0
  Ni  Ni13  1  0.25000000  0.25000000  0.87418000  1.0
  Ni  Ni14  1  0.25000000  0.75000000  0.87418000  1.0
  Ni  Ni15  1  0.75000000  0.25000000  0.87418000  1.0
  Ni  Ni16  1  0.27461000  0.50000000  0.11930000  1.0
  Ni  Ni17  1  0.71591000  0.00000000  0.12695000  1.0
  Ni  Ni18  1  0.72539000  0.50000000  0.11930000  1.0
  Ni  Ni19  1  0.28409000  0.00000000  0.12695000  1.0
  Ni  Ni20  1  0.75849000  0.25305000  0.04433000  1.0
  Ni  Ni21  1  0.24151000  0.74695000  0.04433000  1.0
  Ni  Ni22  1  0.24151000  0.25305000  0.04433000  1.0
  Ni  Ni23  1  0.75849000  0.74695000  0.04433000  1.0
  Sn  Sn24  1  0.00000000  0.75000000  0.95806000  1.0
  Sn  Sn25  1  0.50000000  0.00000000  0.87418000  1.0
  Sn  Sn26  1  0.00000000  0.25000000  0.95806000  1.0
  Sn  Sn27  1  0.50000000  0.50000000  0.87418000  1.0
  Sn  Sn28  1  0.00000000  0.27046000  0.13728000  1.0
  Sn  Sn29  1  0.50000000  0.50000000  0.03809000  1.0
  Sn  Sn30  1  0.00000000  0.72954000  0.13728000  1.0
  Sn  Sn31  1  0.50000000  0.00000000  0.04078000  1.0
  C  C32  1  0.00000000  0.00000000  0.13376000  1.0
