# generated using pymatgen
data_V8Fe16Si8CO
_symmetry_space_group_name_H-M   'P 1'
_cell_length_a   5.64262000
_cell_length_b   7.97986000
_cell_length_c   25.98490000
_cell_angle_alpha   90.00000000
_cell_angle_beta   90.00000000
_cell_angle_gamma   90.00000000
_symmetry_Int_Tables_number   1
_chemical_formula_structural   V8Fe16Si8CO
_chemical_formula_sum   'V8 Fe16 Si8 C1 O1'
_cell_volume   1170.03034597
_cell_formula_units_Z   1
loop_
 _symmetry_equiv_pos_site_id
 _symmetry_equiv_pos_as_xyz
  1  'x, y, z'
loop_
 _atom_site_type_symbol
 _atom_site_label
 _atom_site_symmetry_multiplicity
 _atom_site_fract_x
 _atom_site_fract_y
 _atom_site_fract_z
 _atom_site_occupancy
  V  V0  1  0.00000000  0.75000000  0.88484000  1.0
  V  V1  1  0.50000000  0.00000000  0.96161000  1.0
  V  V2  1  0.50000000  0.50000000  0.96161000  1.0
  V  V3  1  0.00000000  0.25000000  0.88484000  1.0
  V  V4  1  0.00000000  0.25083000  0.04057000  1.0
  V  V5  1  0.50000000  0.50000000  0.11577000  1.0
  V  V6  1  0.50000000  0.00000000  0.11699000  1.0
  V  V7  1  0.00000000  0.74917000  0.04057000  1.0
  Fe  Fe8  1  0.25000000  0.75000000  0.96161000  1.0
  Fe  Fe9  1  0.75000000  0.25000000  0.96161000  1.0
  Fe  Fe10  1  0.75000000  0.75000000  0.96161000  1.0
  Fe  Fe11  1  0.25000000  0.25000000  0.96161000  1.0
  Fe  Fe12  1  0.75000000  0.50000000  0.88484000  1.0
  Fe  Fe13  1  0.25000000  0.00000000  0.88484000  1.0
  Fe  Fe14  1  0.25000000  0.50000000  0.88484000  1.0
  Fe  Fe15  1  0.75000000  0.00000000  0.88484000  1.0
  Fe  Fe16  1  0.24352000  0.25104000  0.11178000  1.0
  Fe  Fe17  1  0.75648000  0.74896000  0.11178000  1.0
  Fe  Fe18  1  0.75648000  0.25104000  0.11178000  1.0
  Fe  Fe19  1  0.24352000  0.74896000  0.11178000  1.0
  Fe  Fe20  1  0.74951000  0.00000000  0.03670000  1.0
  Fe  Fe21  1  0.25318000  0.50000000  0.03801000  1.0
  Fe  Fe22  1  0.25049000  0.00000000  0.03670000  1.0
  Fe  Fe23  1  0.74682000  0.50000000  0.03801000  1.0
  Si  Si24  1  0.00000000  0.50000000  0.96161000  1.0
  Si  Si25  1  0.50000000  0.75000000  0.88484000  1.0
  Si  Si26  1  0.00000000  0.00000000  0.96161000  1.0
  Si  Si27  1  0.50000000  0.25000000  0.88484000  1.0
  Si  Si28  1  0.00000000  0.00000000  0.11523000  1.0
  Si  Si29  1  0.50000000  0.24855000  0.03914000  1.0
  Si  Si30  1  0.00000000  0.50000000  0.11748000  1.0
  Si  Si31  1  0.50000000  0.75145000  0.03914000  1.0
  C  C32  1  0.50000000  0.00000000  0.19391000  1.0
  O  O33  1  0.50000000  0.00000000  0.23835000  1.0
