# generated using pymatgen
data_Li8Al8Sn8Pd8C
_symmetry_space_group_name_H-M   Pm
_cell_length_a   6.48942000
_cell_length_b   9.17742000
_cell_length_c   26.88310000
_cell_angle_alpha   90.00000000
_cell_angle_beta   90.00000000
_cell_angle_gamma   90.00000000
_symmetry_Int_Tables_number   6
_chemical_formula_structural   Li8Al8Sn8Pd8C
_chemical_formula_sum   'Li8 Al8 Sn8 Pd8 C1'
_cell_volume   1601.05347627
_cell_formula_units_Z   1
loop_
 _symmetry_equiv_pos_site_id
 _symmetry_equiv_pos_as_xyz
  1  'x, y, z'
  2  'x, -y, z'
loop_
 _atom_site_type_symbol
 _atom_site_label
 _atom_site_symmetry_multiplicity
 _atom_site_fract_x
 _atom_site_fract_y
 _atom_site_fract_z
 _atom_site_occupancy
  Li  Li0  2  0.73209000  0.23003000  0.14191000  1.0
  Li  Li1  2  0.75000000  0.24998000  0.95733000  1.0
  Li  Li2  1  0.20258000  0.00000000  0.04954000  1.0
  Li  Li3  1  0.24184000  0.50000000  0.04299000  1.0
  Li  Li4  1  0.25000000  0.00000000  0.87198000  1.0
  Li  Li5  1  0.25000000  0.50000000  0.87198000  1.0
  Al  Al6  2  0.00000000  0.24998000  0.87198000  1.0
  Al  Al7  2  0.97866000  0.25792000  0.04622000  1.0
  Al  Al8  1  0.45304000  0.00000000  0.12548000  1.0
  Al  Al9  1  0.48001000  0.50000000  0.12623000  1.0
  Al  Al10  1  0.50000000  0.00000000  0.95733000  1.0
  Al  Al11  1  0.50000000  0.50000000  0.95733000  1.0
  Sn  Sn12  2  0.50000000  0.25002000  0.87198000  1.0
  Sn  Sn13  2  0.50173000  0.24520000  0.04319000  1.0
  Sn  Sn14  1  -0.00000000  0.50000000  0.95733000  1.0
  Sn  Sn15  1  0.00000000  0.00000000  0.95733000  1.0
  Sn  Sn16  1  0.04182000  0.00000000  0.16692000  1.0
  Sn  Sn17  1  0.97141000  0.50000000  0.13232000  1.0
  Pd  Pd18  2  0.23440000  0.25243000  0.11934000  1.0
  Pd  Pd19  2  0.25000000  0.24998000  0.95733000  1.0
  Pd  Pd20  1  0.74038000  0.50000000  0.03556000  1.0
  Pd  Pd21  1  0.75000000  0.00000000  0.87198000  1.0
  Pd  Pd22  1  0.75000000  0.50000000  0.87198000  1.0
  Pd  Pd23  1  0.76694000  0.00000000  0.04503000  1.0
  C  C24  1  0.74245000  0.00000000  0.13399000  1.0
