# generated using pymatgen
data_Ti12Au4CO
_symmetry_space_group_name_H-M   P1
_cell_length_a   5.78605000
_cell_length_b   8.18271000
_cell_length_c   24.33950000
_cell_angle_alpha   90.00000000
_cell_angle_beta   90.00000000
_cell_angle_gamma   90.00000000
_symmetry_Int_Tables_number   1
_chemical_formula_structural   Ti12Au4CO
_chemical_formula_sum   'Ti12 Au4 C1 O1'
_cell_volume   1152.36748143
_cell_formula_units_Z   1
loop_
 _symmetry_equiv_pos_site_id
 _symmetry_equiv_pos_as_xyz
  1  'x, y, z'
loop_
 _atom_site_type_symbol
 _atom_site_label
 _atom_site_symmetry_multiplicity
 _atom_site_fract_x
 _atom_site_fract_y
 _atom_site_fract_z
 _atom_site_occupancy
  Ti  Ti0  1  0.20334000  0.75000000  0.91045000  1.0
  Ti  Ti1  1  0.20480000  0.25000000  0.92245000  1.0
  Ti  Ti2  1  0.25000000  0.25000000  0.02972000  1.0
  Ti  Ti3  1  0.25000000  0.75000000  0.02972000  1.0
  Ti  Ti4  1  0.50000000  0.00000000  0.08915000  1.0
  Ti  Ti5  1  0.50000000  0.50000000  0.08915000  1.0
  Ti  Ti6  1  0.71717000  0.25002000  0.91839000  1.0
  Ti  Ti7  1  0.72919000  0.75000000  0.91473000  1.0
  Ti  Ti8  1  0.75000000  0.25000000  0.02972000  1.0
  Ti  Ti9  1  0.75000000  0.75000000  0.02972000  1.0
  Ti  Ti10  1  0.96582000  0.00342000  0.97669000  1.0
  Ti  Ti11  1  0.96583000  0.49656000  0.97670000  1.0
  Au  Au12  1  0.00000000  0.00000000  0.08915000  1.0
  Au  Au13  1  0.00000000  0.50000000  0.08915000  1.0
  Au  Au14  1  0.46770000  0.99174000  0.96655000  1.0
  Au  Au15  1  0.46771000  0.50827000  0.96661000  1.0
  C  C16  1  0.93984000  0.75001000  0.85262000  1.0
  O  O17  1  0.12997000  0.74999000  0.82713000  1.0
