# generated using pymatgen
data_LiNbAlPd
_symmetry_space_group_name_H-M   'P 1'
_cell_length_a   6.26744000
_cell_length_b   4.43175000
_cell_length_c   26.64760000
_cell_angle_alpha   90.00000000
_cell_angle_beta   90.00000000
_cell_angle_gamma   90.00000000
_symmetry_Int_Tables_number   1
_chemical_formula_structural   LiNbAlPd
_chemical_formula_sum   'Li4 Nb4 Al4 Pd4'
_cell_volume   740.15646867
_cell_formula_units_Z   4
loop_
 _symmetry_equiv_pos_site_id
 _symmetry_equiv_pos_as_xyz
  1  'x, y, z'
loop_
 _atom_site_type_symbol
 _atom_site_label
 _atom_site_symmetry_multiplicity
 _atom_site_fract_x
 _atom_site_fract_y
 _atom_site_fract_z
 _atom_site_occupancy
  Li  Li0  1  0.75000000  0.00000000  0.95842000  1.0
  Li  Li1  1  0.25000000  0.50000000  0.87527000  1.0
  Li  Li2  1  0.70564000  0.00000000  0.16537000  1.0
  Li  Li3  1  0.25509000  0.50000000  0.04177000  1.0
  Nb  Nb4  1  0.00000000  0.50000000  0.95842000  1.0
  Nb  Nb5  1  0.50000000  0.00000000  0.87527000  1.0
  Nb  Nb6  1  0.98288000  0.50000000  0.11949000  1.0
  Nb  Nb7  1  0.50930500  0.00000000  0.04572000  1.0
  Al  Al8  1  0.00000000  0.00000000  0.87527000  1.0
  Al  Al9  1  0.50000000  0.50000000  0.95842000  1.0
  Al  Al10  1  0.99507000  0.00000000  0.04228000  1.0
  Al  Al11  1  0.50107000  0.50000000  0.12545000  1.0
  Pd  Pd12  1  0.25000000  0.00000000  0.95842000  1.0
  Pd  Pd13  1  0.75000000  0.50000000  0.87527000  1.0
  Pd  Pd14  1  0.23438000  0.00000000  0.11878000  1.0
  Pd  Pd15  1  0.74861500  0.50000000  0.03885000  1.0
