# generated using pymatgen
data_Li4Y4Sn4Pd4CO
_symmetry_space_group_name_H-M   P1
_cell_length_a   6.77715000
_cell_length_b   6.77715000
_cell_length_c   25.08290000
_cell_angle_alpha   90.00000000
_cell_angle_beta   90.00000000
_cell_angle_gamma   90.00000000
_symmetry_Int_Tables_number   1
_chemical_formula_structural   Li4Y4Sn4Pd4CO
_chemical_formula_sum   'Li4 Y4 Sn4 Pd4 C1 O1'
_cell_volume   1152.05163034
_cell_formula_units_Z   1
loop_
 _symmetry_equiv_pos_site_id
 _symmetry_equiv_pos_as_xyz
  1  'x, y, z'
loop_
 _atom_site_type_symbol
 _atom_site_label
 _atom_site_symmetry_multiplicity
 _atom_site_fract_x
 _atom_site_fract_y
 _atom_site_fract_z
 _atom_site_occupancy
  Li  Li0  1  0.00000000  0.00000000  0.89868000  1.0
  Li  Li1  1  0.49903000  0.99818000  0.03553000  1.0
  Li  Li2  1  0.50000000  0.50000000  0.89868000  1.0
  Li  Li3  1  0.99819000  0.49902000  0.03552000  1.0
  Y  Y4  1  0.24920000  0.74936000  0.10579000  1.0
  Y  Y5  1  0.25000000  0.25000000  0.96623000  1.0
  Y  Y6  1  0.74937000  0.24918000  0.10580000  1.0
  Y  Y7  1  0.75000000  0.75000000  0.96623000  1.0
  Sn  Sn8  1  0.24881000  0.24883000  0.10136000  1.0
  Sn  Sn9  1  0.25000000  0.75000000  0.96623000  1.0
  Sn  Sn10  1  0.74922000  0.74924000  0.10398000  1.0
  Sn  Sn11  1  0.75000000  0.25000000  0.96623000  1.0
  Pd  Pd12  1  0.00000000  0.50000000  0.89868000  1.0
  Pd  Pd13  1  0.50000000  0.00000000  0.89868000  1.0
  Pd  Pd14  1  0.50118000  0.50119000  0.03384000  1.0
  Pd  Pd15  1  0.99831000  0.99832000  0.03393000  1.0
  C  C16  1  0.36295000  0.36294000  0.24759000  1.0
  O  O17  1  0.25145000  0.25157000  0.26313000  1.0
