# generated using pymatgen
data_Li16Be16C
_symmetry_space_group_name_H-M   'P 1'
_cell_length_a   5.62306000
_cell_length_b   7.95221000
_cell_length_c   25.96420000
_cell_angle_alpha   90.00000000
_cell_angle_beta   90.00000000
_cell_angle_gamma   90.00000000
_symmetry_Int_Tables_number   1
_chemical_formula_structural   Li16Be16C
_chemical_formula_sum   'Li16 Be16 C1'
_cell_volume   1161.00877904
_cell_formula_units_Z   1
loop_
 _symmetry_equiv_pos_site_id
 _symmetry_equiv_pos_as_xyz
  1  'x, y, z'
loop_
 _atom_site_type_symbol
 _atom_site_label
 _atom_site_symmetry_multiplicity
 _atom_site_fract_x
 _atom_site_fract_y
 _atom_site_fract_z
 _atom_site_occupancy
  Li  Li0  1  0.00000000  0.50000000  0.88515000  1.0
  Li  Li1  1  0.00000000  0.75001000  0.96172000  1.0
  Li  Li2  1  0.00000000  0.50000000  0.03911000  1.0
  Li  Li3  1  0.00000000  0.75027000  0.13387000  1.0
  Li  Li4  1  0.00000000  0.00000000  0.88515000  1.0
  Li  Li5  1  0.00000000  0.24999000  0.96172000  1.0
  Li  Li6  1  0.00000000  0.00000000  0.02618000  1.0
  Li  Li7  1  0.00000000  0.24973000  0.13387000  1.0
  Li  Li8  1  0.50000000  0.50000000  0.88515000  1.0
  Li  Li9  1  0.50000000  0.75001000  0.96172000  1.0
  Li  Li10  1  0.50000000  0.50000000  0.03497000  1.0
  Li  Li11  1  0.50000000  0.78515000  0.12991000  1.0
  Li  Li12  1  0.50000000  0.00000000  0.88515000  1.0
  Li  Li13  1  0.50000000  0.24999000  0.96172000  1.0
  Li  Li14  1  0.50000000  0.00000000  0.03630000  1.0
  Li  Li15  1  0.50000000  0.21485000  0.12991000  1.0
  Be  Be16  1  0.25000000  0.75001000  0.88515000  1.0
  Be  Be17  1  0.25000000  0.50000000  0.96172000  1.0
  Be  Be18  1  0.24271000  0.76126000  0.04668000  1.0
  Be  Be19  1  0.28875000  0.50000000  0.11244000  1.0
  Be  Be20  1  0.25000000  0.24999000  0.88515000  1.0
  Be  Be21  1  0.25000000  0.00000000  0.96172000  1.0
  Be  Be22  1  0.24271000  0.23874000  0.04668000  1.0
  Be  Be23  1  0.20083000  0.00000000  0.09811000  1.0
  Be  Be24  1  0.75000000  0.75001000  0.88515000  1.0
  Be  Be25  1  0.75000000  0.50000000  0.96172000  1.0
  Be  Be26  1  0.75729000  0.76126000  0.04668000  1.0
  Be  Be27  1  0.71125000  0.50000000  0.11244000  1.0
  Be  Be28  1  0.75000000  0.24999000  0.88515000  1.0
  Be  Be29  1  0.75000000  0.00000000  0.96172000  1.0
  Be  Be30  1  0.75729000  0.23874000  0.04668000  1.0
  Be  Be31  1  0.79917000  0.00000000  0.09811000  1.0
  C  C32  1  0.00000000  0.50000000  0.12020000  1.0
