data_image0
_chemical_formula_structural       Li8In8Cu8Ge8C
_chemical_formula_sum              "Li8 In8 Cu8 Ge8 C1"
_cell_length_a       6.49386
_cell_length_b       9.1837
_cell_length_c       26.8878
_cell_angle_alpha    90
_cell_angle_beta     90
_cell_angle_gamma    90

_space_group_name_H-M_alt    "P 1"
_space_group_IT_number       1

loop_
  _space_group_symop_operation_xyz
  'x, y, z'

loop_
  _atom_site_type_symbol
  _atom_site_label
  _atom_site_symmetry_multiplicity
  _atom_site_fract_x
  _atom_site_fract_y
  _atom_site_fract_z
  _atom_site_occupancy
  Li  Li1       1.0  0.00000  0.25000  0.95731  1.0000
  Li  Li2       1.0  0.00000  0.75000  0.95731  1.0000
  Li  Li3       1.0  0.50000  0.50000  0.87192  1.0000
  Li  Li4       1.0  0.50000  0.00000  0.87192  1.0000
  Li  Li5       1.0  0.78677  0.77210  0.18760  1.0000
  Li  Li6       1.0  0.78673  0.22792  0.18759  1.0000
  Li  Li7       1.0  0.41865  0.99998  0.05477  1.0000
  Li  Li8       1.0  0.43798  0.49998  0.05411  1.0000
  In  In1       1.0  0.25000  0.00000  0.95731  1.0000
  In  In2       1.0  0.25000  0.50000  0.95731  1.0000
  In  In3       1.0  0.75000  0.25000  0.87192  1.0000
  In  In4       1.0  0.75000  0.75000  0.87192  1.0000
  In  In5       1.0  0.11064  0.50001  0.13877  1.0000
  In  In6       1.0  0.16087  0.00000  0.14780  1.0000
  In  In7       1.0  0.72622  0.75004  0.04861  1.0000
  In  In8       1.0  0.72622  0.24991  0.04861  1.0000
  Cu  Cu1       1.0  0.00000  0.00000  0.87192  1.0000
  Cu  Cu2       1.0  0.00000  0.50000  0.87192  1.0000
  Cu  Cu3       1.0  0.50000  0.75000  0.95731  1.0000
  Cu  Cu4       1.0  0.50000  0.25000  0.95731  1.0000
  Cu  Cu5       1.0  0.98648  0.49995  0.03461  1.0000
  Cu  Cu6       1.0  0.98927  0.99997  0.03418  1.0000
  Cu  Cu7       1.0  0.43370  0.26555  0.12187  1.0000
  Cu  Cu8       1.0  0.43375  0.73448  0.12187  1.0000
  Ge  Ge1       1.0  0.75000  0.00000  0.95731  1.0000
  Ge  Ge2       1.0  0.75000  0.50000  0.95731  1.0000
  Ge  Ge3       1.0  0.25000  0.25000  0.87192  1.0000
  Ge  Ge4       1.0  0.25000  0.75000  0.87192  1.0000
  Ge  Ge5       1.0  0.58596  0.50000  0.15333  1.0000
  Ge  Ge6       1.0  0.65146  0.99997  0.13129  1.0000
  Ge  Ge7       1.0  0.17401  0.75005  0.05312  1.0000
  Ge  Ge8       1.0  0.17397  0.24991  0.05313  1.0000
  C   C1        1.0  0.85109  0.99994  0.18166  1.0000
