data_image0
_chemical_formula_structural       Ti8Co16Sn8
_chemical_formula_sum              "Ti8 Co16 Sn8"
_cell_length_a       6.11439
_cell_length_b       8.64705
_cell_length_c       26.4853
_cell_angle_alpha    90
_cell_angle_beta     90
_cell_angle_gamma    90

_space_group_name_H-M_alt    "P 1"
_space_group_IT_number       1

loop_
  _space_group_symop_operation_xyz
  'x, y, z'

loop_
  _atom_site_type_symbol
  _atom_site_label
  _atom_site_symmetry_multiplicity
  _atom_site_fract_x
  _atom_site_fract_y
  _atom_site_fract_z
  _atom_site_occupancy
  Ti  Ti1       1.0  0.00000  0.00000  0.87757  1.0000
  Ti  Ti2       1.0  0.50000  0.25000  0.95919  1.0000
  Ti  Ti3       1.0  0.50000  0.75000  0.95919  1.0000
  Ti  Ti4       1.0  0.00000  0.50000  0.87757  1.0000
  Ti  Ti5       1.0  0.00000  0.50000  0.04081  1.0000
  Ti  Ti6       1.0  0.50000  0.75000  0.12243  1.0000
  Ti  Ti7       1.0  0.50000  0.25000  0.12243  1.0000
  Ti  Ti8       1.0  0.00000  0.00000  0.04081  1.0000
  Co  Co1       1.0  0.25000  0.00000  0.95919  1.0000
  Co  Co2       1.0  0.75000  0.50000  0.95919  1.0000
  Co  Co3       1.0  0.75000  0.00000  0.95919  1.0000
  Co  Co4       1.0  0.25000  0.50000  0.95919  1.0000
  Co  Co5       1.0  0.75000  0.75000  0.87757  1.0000
  Co  Co6       1.0  0.25000  0.25000  0.87757  1.0000
  Co  Co7       1.0  0.25000  0.75000  0.87757  1.0000
  Co  Co8       1.0  0.75000  0.25000  0.87757  1.0000
  Co  Co9       1.0  0.25000  0.50000  0.12243  1.0000
  Co  Co10      1.0  0.75000  0.00000  0.12243  1.0000
  Co  Co11      1.0  0.75000  0.50000  0.12243  1.0000
  Co  Co12      1.0  0.25000  0.00000  0.12243  1.0000
  Co  Co13      1.0  0.75000  0.25000  0.04081  1.0000
  Co  Co14      1.0  0.25000  0.75000  0.04081  1.0000
  Co  Co15      1.0  0.25000  0.25000  0.04081  1.0000
  Co  Co16      1.0  0.75000  0.75000  0.04081  1.0000
  Sn  Sn1       1.0  0.00000  0.75000  0.95919  1.0000
  Sn  Sn2       1.0  0.50000  0.00000  0.87757  1.0000
  Sn  Sn3       1.0  0.00000  0.25000  0.95919  1.0000
  Sn  Sn4       1.0  0.50000  0.50000  0.87757  1.0000
  Sn  Sn5       1.0  0.00000  0.25000  0.12243  1.0000
  Sn  Sn6       1.0  0.50000  0.50000  0.04081  1.0000
  Sn  Sn7       1.0  0.00000  0.75000  0.12243  1.0000
  Sn  Sn8       1.0  0.50000  0.00000  0.04081  1.0000
