# generated using pymatgen
data_TiCo2Sn
_symmetry_space_group_name_H-M   Pmm2
_cell_length_a   4.32352500
_cell_length_b   6.11439000
_cell_length_c   26.48530000
_cell_angle_alpha   90.00000000
_cell_angle_beta   90.00000000
_cell_angle_gamma   90.00000000
_symmetry_Int_Tables_number   25
_chemical_formula_structural   TiCo2Sn
_chemical_formula_sum   'Ti4 Co8 Sn4'
_cell_volume   700.15792260
_cell_formula_units_Z   4
loop_
 _symmetry_equiv_pos_site_id
 _symmetry_equiv_pos_as_xyz
  1  'x, y, z'
  2  '-x, -y, z'
  3  '-x, y, z'
  4  'x, -y, z'
loop_
 _atom_site_type_symbol
 _atom_site_label
 _atom_site_symmetry_multiplicity
 _atom_site_fract_x
 _atom_site_fract_y
 _atom_site_fract_z
 _atom_site_occupancy
  Ti  Ti0  1  0.00000000  0.00000000  0.12243000  1.0
  Ti  Ti1  1  0.00000000  0.00000000  0.95731000  1.0
  Ti  Ti2  1  0.50000000  0.50000000  0.04081000  1.0
  Ti  Ti3  1  0.50000000  0.50000000  0.88099000  1.0
  Co  Co4  2  0.00000000  0.24058500  0.88431000  1.0
  Co  Co5  2  0.00000000  0.25000000  0.04081000  1.0
  Co  Co6  2  0.50000000  0.24769500  0.95681500  1.0
  Co  Co7  2  0.50000000  0.25000000  0.12243000  1.0
  Sn  Sn8  1  0.00000000  0.50000000  0.12243000  1.0
  Sn  Sn9  1  0.00000000  0.50000000  0.96058000  1.0
  Sn  Sn10  1  0.50000000  0.00000000  0.04081000  1.0
  Sn  Sn11  1  0.50000000  0.00000000  0.86708000  1.0
