# generated using pymatgen
data_Y8In8Ag8Pd8C
_symmetry_space_group_name_H-M   'P 1'
_cell_length_a   9.79574000
_cell_length_b   6.92663000
_cell_length_c   27.34680000
_cell_angle_alpha   90.00000000
_cell_angle_beta   90.00000000
_cell_angle_gamma   90.00000000
_symmetry_Int_Tables_number   1
_chemical_formula_structural   Y8In8Ag8Pd8C
_chemical_formula_sum   'Y8 In8 Ag8 Pd8 C1'
_cell_volume   1855.52048562
_cell_formula_units_Z   1
loop_
 _symmetry_equiv_pos_site_id
 _symmetry_equiv_pos_as_xyz
  1  'x, y, z'
loop_
 _atom_site_type_symbol
 _atom_site_label
 _atom_site_symmetry_multiplicity
 _atom_site_fract_x
 _atom_site_fract_y
 _atom_site_fract_z
 _atom_site_occupancy
  Y  Y0  1  0.75000000  0.75000000  0.04478000  1.0
  Y  Y1  1  0.25000000  0.75000000  0.04478000  1.0
  Y  Y2  1  0.00000000  0.25000000  0.13433000  1.0
  Y  Y3  1  0.50000000  0.25000000  0.13433000  1.0
  Y  Y4  1  0.23512000  0.73573000  0.86786000  1.0
  Y  Y5  1  0.76488000  0.73573000  0.86786000  1.0
  Y  Y6  1  0.50000000  0.25913000  0.95213000  1.0
  Y  Y7  1  0.00000000  0.26222000  0.94712000  1.0
  In  In8  1  0.75000000  0.25000000  0.04478000  1.0
  In  In9  1  0.25000000  0.25000000  0.04478000  1.0
  In  In10  1  0.00000000  0.75000000  0.13433000  1.0
  In  In11  1  0.50000000  0.75000000  0.13433000  1.0
  In  In12  1  0.25876000  0.23404000  0.86194000  1.0
  In  In13  1  0.74124000  0.23404000  0.86194000  1.0
  In  In14  1  0.50000000  0.74652000  0.95483000  1.0
  In  In15  1  0.00000000  0.75185000  0.95494000  1.0
  Ag  Ag16  1  0.75000000  0.00000000  0.13433000  1.0
  Ag  Ag17  1  0.25000000  0.00000000  0.13433000  1.0
  Ag  Ag18  1  0.50000000  0.50000000  0.04478000  1.0
  Ag  Ag19  1  0.00000000  0.50000000  0.04478000  1.0
  Ag  Ag20  1  0.25189000  0.00312000  0.95568000  1.0
  Ag  Ag21  1  0.74811000  0.00312000  0.95568000  1.0
  Ag  Ag22  1  0.00000000  0.44489000  0.84064000  1.0
  Ag  Ag23  1  0.50000000  0.47865000  0.85406000  1.0
  Pd  Pd24  1  0.00000000  0.00000000  0.04478000  1.0
  Pd  Pd25  1  0.50000000  0.00000000  0.04478000  1.0
  Pd  Pd26  1  0.25000000  0.50000000  0.13433000  1.0
  Pd  Pd27  1  0.75000000  0.50000000  0.13433000  1.0
  Pd  Pd28  1  0.50000000  0.99558000  0.87401000  1.0
  Pd  Pd29  1  0.00000000  0.05156000  0.85748000  1.0
  Pd  Pd30  1  0.74749000  0.50126000  0.95781000  1.0
  Pd  Pd31  1  0.25251000  0.50126000  0.95781000  1.0
  C  C32  1  0.00000000  0.75245000  0.86854000  1.0
