# generated using pymatgen
data_Li8Y8Ge8Pb8CO
_symmetry_space_group_name_H-M   'P 1'
_cell_length_a   8.65500000
_cell_length_b   8.55406000
_cell_length_c   27.39600000
_cell_angle_alpha   90.00000000
_cell_angle_beta   90.00000000
_cell_angle_gamma   90.00000000
_symmetry_Int_Tables_number   1
_chemical_formula_structural   Li8Y8Ge8Pb8CO
_chemical_formula_sum   'Li8 Y8 Ge8 Pb8 C1 O1'
_cell_volume   2028.27352526
_cell_formula_units_Z   1
loop_
 _symmetry_equiv_pos_site_id
 _symmetry_equiv_pos_as_xyz
  1  'x, y, z'
loop_
 _atom_site_type_symbol
 _atom_site_label
 _atom_site_symmetry_multiplicity
 _atom_site_fract_x
 _atom_site_fract_y
 _atom_site_fract_z
 _atom_site_occupancy
  Li  Li0  1  0.75002000  0.25000000  0.04499000  1.0
  Li  Li1  1  0.74996000  0.24839000  0.86457000  1.0
  Li  Li2  1  0.24998000  0.25000000  0.04499000  1.0
  Li  Li3  1  0.25004000  0.24839000  0.86457000  1.0
  Li  Li4  1  0.75002000  0.75000000  0.04499000  1.0
  Li  Li5  1  0.74996000  0.75160000  0.86457000  1.0
  Li  Li6  1  0.24998000  0.75000000  0.04499000  1.0
  Li  Li7  1  0.25004000  0.75160000  0.86457000  1.0
  Y  Y8  1  0.00000000  0.25000000  0.13498000  1.0
  Y  Y9  1  0.00000000  0.25221000  0.95382000  1.0
  Y  Y10  1  0.50000000  0.25000000  0.13498000  1.0
  Y  Y11  1  0.50000000  0.25118000  0.95382000  1.0
  Y  Y12  1  0.00000000  0.75000000  0.13498000  1.0
  Y  Y13  1  0.00000000  0.74778000  0.95382000  1.0
  Y  Y14  1  0.50000000  0.75000000  0.13498000  1.0
  Y  Y15  1  0.50000000  0.74881000  0.95382000  1.0
  Ge  Ge16  1  0.75002000  0.00000000  0.13498000  1.0
  Ge  Ge17  1  0.75007000  0.00000000  0.93827000  1.0
  Ge  Ge18  1  0.24998000  0.00000000  0.13498000  1.0
  Ge  Ge19  1  0.24993000  0.00000000  0.93827000  1.0
  Ge  Ge20  1  0.75002000  0.50000000  0.13498000  1.0
  Ge  Ge21  1  0.75000000  0.49999000  0.93437000  1.0
  Ge  Ge22  1  0.24998000  0.50000000  0.13498000  1.0
  Ge  Ge23  1  0.25000000  0.49999000  0.93437000  1.0
  Pb  Pb24  1  0.00000000  0.00000000  0.04499000  1.0
  Pb  Pb25  1  0.00000000  0.00000000  0.85633000  1.0
  Pb  Pb26  1  0.50000000  1.00000000  0.04499000  1.0
  Pb  Pb27  1  0.50000000  1.00000000  0.85586000  1.0
  Pb  Pb28  1  0.00000000  0.50000000  0.04499000  1.0
  Pb  Pb29  1  0.00000000  0.50000000  0.85318000  1.0
  Pb  Pb30  1  0.50000000  0.50000000  0.04499000  1.0
  Pb  Pb31  1  0.50000000  0.50000000  0.85344000  1.0
  C  C32  1  0.00000000  0.00019000  0.71005000  1.0
  O  O33  1  0.00000000  0.99997000  0.66863000  1.0
