# generated using pymatgen
data_Y16Ag16CO
_symmetry_space_group_name_H-M   Pm
_cell_length_a   10.35920000
_cell_length_b   7.32505000
_cell_length_c   27.76940000
_cell_angle_alpha   90.00000000
_cell_angle_beta   90.00000000
_cell_angle_gamma   90.00000000
_symmetry_Int_Tables_number   6
_chemical_formula_structural   Y16Ag16CO
_chemical_formula_sum   'Y16 Ag16 C1 O1'
_cell_volume   2107.18811255
_cell_formula_units_Z   1
loop_
 _symmetry_equiv_pos_site_id
 _symmetry_equiv_pos_as_xyz
  1  'x, y, z'
  2  'x, -y, z'
loop_
 _atom_site_type_symbol
 _atom_site_label
 _atom_site_symmetry_multiplicity
 _atom_site_fract_x
 _atom_site_fract_y
 _atom_site_fract_z
 _atom_site_occupancy
  Y  Y0  2  0.00000000  0.25000000  0.95337000  1.0
  Y  Y1  2  0.24991000  0.24912000  0.04595000  1.0
  Y  Y2  2  0.25000000  0.25000000  0.86011000  1.0
  Y  Y3  2  0.50000000  0.25000000  0.95337000  1.0
  Y  Y4  2  0.50161000  0.25247000  0.13904000  1.0
  Y  Y5  2  0.74989000  0.25069000  0.04641000  1.0
  Y  Y6  2  0.75000000  0.25000000  0.86011000  1.0
  Y  Y7  2  0.99826000  0.25232000  0.13892000  1.0
  Ag  Ag8  1  0.00000000  0.00000000  0.86011000  1.0
  Ag  Ag9  1  0.00000000  0.50000000  0.86011000  1.0
  Ag  Ag10  1  0.00085000  0.50000000  0.04767000  1.0
  Ag  Ag11  1  0.24998000  0.00000000  0.13615000  1.0
  Ag  Ag12  1  0.24998000  0.50000000  0.13383000  1.0
  Ag  Ag13  1  0.25000000  0.00000000  0.95337000  1.0
  Ag  Ag14  1  0.25000000  0.50000000  0.95337000  1.0
  Ag  Ag15  1  0.49897000  0.50000000  0.04768000  1.0
  Ag  Ag16  1  0.50000000  0.00000000  0.86011000  1.0
  Ag  Ag17  1  0.50000000  0.50000000  0.86011000  1.0
  Ag  Ag18  1  0.50109000  0.00000000  0.04813000  1.0
  Ag  Ag19  1  0.74990000  0.00000000  0.13444000  1.0
  Ag  Ag20  1  0.74995000  0.50000000  0.13489000  1.0
  Ag  Ag21  1  0.75000000  0.00000000  0.95337000  1.0
  Ag  Ag22  1  0.75000000  0.50000000  0.95337000  1.0
  Ag  Ag23  1  0.99821000  0.00000000  0.04784000  1.0
  C  C24  1  0.25283000  0.00000000  0.21562000  1.0
  O  O25  1  0.24973000  0.00000000  0.25731000  1.0
