data_image0
_chemical_formula_structural       Cu16Pd16CO
_chemical_formula_sum              "Cu16 Pd16 C1 O1"
_cell_length_a       6.09666
_cell_length_b       8.62198
_cell_length_c       26.4665
_cell_angle_alpha    90
_cell_angle_beta     90
_cell_angle_gamma    90

_space_group_name_H-M_alt    "P 1"
_space_group_IT_number       1

loop_
  _space_group_symop_operation_xyz
  'x, y, z'

loop_
  _atom_site_type_symbol
  _atom_site_label
  _atom_site_symmetry_multiplicity
  _atom_site_fract_x
  _atom_site_fract_y
  _atom_site_fract_z
  _atom_site_occupancy
  Cu  Cu1       1.0  0.00000  0.00000  0.87784  1.0000
  Cu  Cu2       1.0  0.00000  0.25000  0.95928  1.0000
  Cu  Cu3       1.0  0.00704  0.00000  0.04140  1.0000
  Cu  Cu4       1.0  0.99579  0.25101  0.12065  1.0000
  Cu  Cu5       1.0  0.00000  0.50000  0.87784  1.0000
  Cu  Cu6       1.0  0.00000  0.75000  0.95928  1.0000
  Cu  Cu7       1.0  0.99938  0.50000  0.04063  1.0000
  Cu  Cu8       1.0  0.99579  0.74899  0.12065  1.0000
  Cu  Cu9       1.0  0.50000  0.00000  0.87784  1.0000
  Cu  Cu10      1.0  0.50000  0.25000  0.95928  1.0000
  Cu  Cu11      1.0  0.49298  0.00000  0.04145  1.0000
  Cu  Cu12      1.0  0.50457  0.25096  0.12065  1.0000
  Cu  Cu13      1.0  0.50000  0.50000  0.87784  1.0000
  Cu  Cu14      1.0  0.50000  0.75000  0.95928  1.0000
  Cu  Cu15      1.0  0.50078  0.50000  0.04064  1.0000
  Cu  Cu16      1.0  0.50458  0.74904  0.12065  1.0000
  Pd  Pd1       1.0  0.25000  0.25000  0.87784  1.0000
  Pd  Pd2       1.0  0.25000  0.00000  0.95928  1.0000
  Pd  Pd3       1.0  0.25004  0.25013  0.04052  1.0000
  Pd  Pd4       1.0  0.24998  0.00000  0.12683  1.0000
  Pd  Pd5       1.0  0.25000  0.75000  0.87784  1.0000
  Pd  Pd6       1.0  0.25000  0.50000  0.95928  1.0000
  Pd  Pd7       1.0  0.25004  0.74987  0.04052  1.0000
  Pd  Pd8       1.0  0.25019  0.50000  0.12109  1.0000
  Pd  Pd9       1.0  0.75000  0.25000  0.87784  1.0000
  Pd  Pd10      1.0  0.75000  0.00000  0.95928  1.0000
  Pd  Pd11      1.0  0.75004  0.24799  0.03985  1.0000
  Pd  Pd12      1.0  0.75012  0.00000  0.12017  1.0000
  Pd  Pd13      1.0  0.75000  0.75000  0.87784  1.0000
  Pd  Pd14      1.0  0.75000  0.50000  0.95928  1.0000
  Pd  Pd15      1.0  0.75004  0.75201  0.03985  1.0000
  Pd  Pd16      1.0  0.75013  0.50000  0.12072  1.0000
  C   C1        1.0  0.24839  0.00000  0.19932  1.0000
  O   O1        1.0  0.24833  0.00000  0.24272  1.0000
