# generated using pymatgen
data_Cu16Pd16CO
_symmetry_space_group_name_H-M   Pm
_cell_length_a   6.09666000
_cell_length_b   8.62198000
_cell_length_c   26.46650000
_cell_angle_alpha   90.00000000
_cell_angle_beta   90.00000000
_cell_angle_gamma   90.00000000
_symmetry_Int_Tables_number   6
_chemical_formula_structural   Cu16Pd16CO
_chemical_formula_sum   'Cu16 Pd16 C1 O1'
_cell_volume   1391.21899865
_cell_formula_units_Z   1
loop_
 _symmetry_equiv_pos_site_id
 _symmetry_equiv_pos_as_xyz
  1  'x, y, z'
  2  'x, -y, z'
loop_
 _atom_site_type_symbol
 _atom_site_label
 _atom_site_symmetry_multiplicity
 _atom_site_fract_x
 _atom_site_fract_y
 _atom_site_fract_z
 _atom_site_occupancy
  Cu  Cu0  2  0.00000000  0.25000000  0.95928000  1.0
  Cu  Cu1  2  0.50000000  0.25000000  0.95928000  1.0
  Cu  Cu2  2  0.50457000  0.25096000  0.12065000  1.0
  Cu  Cu3  2  0.99579000  0.25101000  0.12065000  1.0
  Cu  Cu4  1  0.00000000  0.00000000  0.87784000  1.0
  Cu  Cu5  1  0.00000000  0.50000000  0.87784000  1.0
  Cu  Cu6  1  0.00704000  0.00000000  0.04140000  1.0
  Cu  Cu7  1  0.49298000  0.00000000  0.04145000  1.0
  Cu  Cu8  1  0.50000000  0.00000000  0.87784000  1.0
  Cu  Cu9  1  0.50000000  0.50000000  0.87784000  1.0
  Cu  Cu10  1  0.50078000  0.50000000  0.04064000  1.0
  Cu  Cu11  1  0.99938000  0.50000000  0.04063000  1.0
  Pd  Pd12  2  0.25000000  0.25000000  0.87784000  1.0
  Pd  Pd13  2  0.25004000  0.25013000  0.04052000  1.0
  Pd  Pd14  2  0.75000000  0.25000000  0.87784000  1.0
  Pd  Pd15  2  0.75004000  0.24799000  0.03985000  1.0
  Pd  Pd16  1  0.24998000  0.00000000  0.12683000  1.0
  Pd  Pd17  1  0.25000000  0.00000000  0.95928000  1.0
  Pd  Pd18  1  0.25000000  0.50000000  0.95928000  1.0
  Pd  Pd19  1  0.25019000  0.50000000  0.12109000  1.0
  Pd  Pd20  1  0.75000000  0.00000000  0.95928000  1.0
  Pd  Pd21  1  0.75000000  0.50000000  0.95928000  1.0
  Pd  Pd22  1  0.75012000  0.00000000  0.12017000  1.0
  Pd  Pd23  1  0.75013000  0.50000000  0.12072000  1.0
  C  C24  1  0.24839000  0.00000000  0.19932000  1.0
  O  O25  1  0.24833000  0.00000000  0.24272000  1.0
