# generated using pymatgen
data_Zr12In4C
_symmetry_space_group_name_H-M   'P 1'
_cell_length_a   6.34923000
_cell_length_b   8.97917000
_cell_length_c   24.76190000
_cell_angle_alpha   90.00000000
_cell_angle_beta   90.00000000
_cell_angle_gamma   90.00000000
_symmetry_Int_Tables_number   1
_chemical_formula_structural   Zr12In4C
_chemical_formula_sum   'Zr12 In4 C1'
_cell_volume   1411.69611330
_cell_formula_units_Z   1
loop_
 _symmetry_equiv_pos_site_id
 _symmetry_equiv_pos_as_xyz
  1  'x, y, z'
loop_
 _atom_site_type_symbol
 _atom_site_label
 _atom_site_symmetry_multiplicity
 _atom_site_fract_x
 _atom_site_fract_y
 _atom_site_fract_z
 _atom_site_occupancy
  Zr  Zr0  1  0.50000000  0.00000000  0.09615000  1.0
  Zr  Zr1  1  0.75000000  0.25000000  0.03205000  1.0
  Zr  Zr2  1  0.25000000  0.25000000  0.03205000  1.0
  Zr  Zr3  1  0.00000000  0.00000000  0.98119000  1.0
  Zr  Zr4  1  0.23285000  0.19248000  0.90037000  1.0
  Zr  Zr5  1  0.76715000  0.19248000  0.90037000  1.0
  Zr  Zr6  1  0.50000000  0.50000000  0.09615000  1.0
  Zr  Zr7  1  0.75000000  0.75000000  0.03205000  1.0
  Zr  Zr8  1  0.25000000  0.75000000  0.03205000  1.0
  Zr  Zr9  1  0.00000000  0.50000000  0.96419000  1.0
  Zr  Zr10  1  0.23285000  0.80752000  0.90037000  1.0
  Zr  Zr11  1  0.76715000  0.80752000  0.90037000  1.0
  In  In12  1  0.00000000  0.00000000  0.09615000  1.0
  In  In13  1  0.50000000  0.00000000  0.97543000  1.0
  In  In14  1  0.00000000  0.50000000  0.09615000  1.0
  In  In15  1  0.50000000  0.50000000  0.95701000  1.0
  C  C16  1  0.00000000  0.00000000  0.88729000  1.0
