# generated using pymatgen
data_LiAl3
_symmetry_space_group_name_H-M   Pmm2
_cell_length_a   4.00310500
_cell_length_b   5.66125000
_cell_length_c   24.24590000
_cell_angle_alpha   90.00000000
_cell_angle_beta   90.00000000
_cell_angle_gamma   90.00000000
_symmetry_Int_Tables_number   25
_chemical_formula_structural   LiAl3
_chemical_formula_sum   'Li2 Al6'
_cell_volume   549.47460432
_cell_formula_units_Z   2
loop_
 _symmetry_equiv_pos_site_id
 _symmetry_equiv_pos_as_xyz
  1  'x, y, z'
  2  '-x, -y, z'
  3  '-x, y, z'
  4  'x, -y, z'
loop_
 _atom_site_type_symbol
 _atom_site_label
 _atom_site_symmetry_multiplicity
 _atom_site_fract_x
 _atom_site_fract_y
 _atom_site_fract_z
 _atom_site_occupancy
  Li  Li0  1  0.00000000  0.00000000  0.90623500  1.0
  Li  Li1  1  0.00000000  0.50000000  0.02919000  1.0
  Al  Al2  2  0.50000000  0.24607000  0.96860000  1.0
  Al  Al3  2  0.50000000  0.25000000  0.08756000  1.0
  Al  Al4  1  0.00000000  0.00000000  0.02919000  1.0
  Al  Al5  1  0.00000000  0.50000000  0.91190000  1.0
