# generated using pymatgen
data_Li8Y8Ag8Pb8CO
_symmetry_space_group_name_H-M   'P 1'
_cell_length_a   7.20907000
_cell_length_b   10.19520000
_cell_length_c   27.64640000
_cell_angle_alpha   90.00000000
_cell_angle_beta   90.00000000
_cell_angle_gamma   90.00000000
_symmetry_Int_Tables_number   1
_chemical_formula_structural   Li8Y8Ag8Pb8CO
_chemical_formula_sum   'Li8 Y8 Ag8 Pb8 C1 O1'
_cell_volume   2031.95263185
_cell_formula_units_Z   1
loop_
 _symmetry_equiv_pos_site_id
 _symmetry_equiv_pos_as_xyz
  1  'x, y, z'
loop_
 _atom_site_type_symbol
 _atom_site_label
 _atom_site_symmetry_multiplicity
 _atom_site_fract_x
 _atom_site_fract_y
 _atom_site_fract_z
 _atom_site_occupancy
  Li  Li0  1  0.25000000  0.00000000  0.95390000  1.0
  Li  Li1  1  0.25000000  0.50000000  0.95390000  1.0
  Li  Li2  1  0.75000000  0.25000000  0.86171000  1.0
  Li  Li3  1  0.75000000  0.75000000  0.86171000  1.0
  Li  Li4  1  0.24321000  0.50010000  0.13365000  1.0
  Li  Li5  1  0.24996000  0.00003000  0.13667000  1.0
  Li  Li6  1  0.75730000  0.75075000  0.04610000  1.0
  Li  Li7  1  0.75731000  0.24925000  0.04618000  1.0
  Y  Y8  1  0.75000000  0.00000000  0.95390000  1.0
  Y  Y9  1  0.75000000  0.50000000  0.95390000  1.0
  Y  Y10  1  0.25000000  0.25000000  0.86171000  1.0
  Y  Y11  1  0.25000000  0.75000000  0.86171000  1.0
  Y  Y12  1  0.76419000  0.49999000  0.13903000  1.0
  Y  Y13  1  0.76096000  0.00023000  0.13896000  1.0
  Y  Y14  1  0.24481000  0.74963000  0.04789000  1.0
  Y  Y15  1  0.24477000  0.25030000  0.04791000  1.0
  Ag  Ag16  1  0.00000000  0.00000000  0.86171000  1.0
  Ag  Ag17  1  0.00000000  0.50000000  0.86171000  1.0
  Ag  Ag18  1  0.50000000  0.75000000  0.95390000  1.0
  Ag  Ag19  1  0.50000000  0.25000000  0.95390000  1.0
  Ag  Ag20  1  0.99478000  0.50000000  0.04698000  1.0
  Ag  Ag21  1  0.99649000  0.99994000  0.04731000  1.0
  Ag  Ag22  1  0.51880000  0.25285000  0.13087000  1.0
  Ag  Ag23  1  0.51926000  0.74732000  0.13078000  1.0
  Pb  Pb24  1  0.00000000  0.25000000  0.95390000  1.0
  Pb  Pb25  1  0.00000000  0.75000000  0.95390000  1.0
  Pb  Pb26  1  0.50000000  0.50000000  0.86171000  1.0
  Pb  Pb27  1  0.50000000  0.00000000  0.86171000  1.0
  Pb  Pb28  1  0.01675000  0.75045000  0.14777000  1.0
  Pb  Pb29  1  0.01727000  0.24995000  0.14790000  1.0
  Pb  Pb30  1  0.50072000  0.99999000  0.04822000  1.0
  Pb  Pb31  1  0.50429000  0.49998000  0.04781000  1.0
  C  C32  1  0.35053000  0.99994000  0.20747000  1.0
  O  O33  1  0.38334000  0.99991000  0.24816000  1.0
