# generated using pymatgen
data_V8Ga8Ni16C
_symmetry_space_group_name_H-M   Pmm2
_cell_length_a   5.81624000
_cell_length_b   8.22541000
_cell_length_c   26.16910000
_cell_angle_alpha   90.00000000
_cell_angle_beta   90.00000000
_cell_angle_gamma   90.00000000
_symmetry_Int_Tables_number   25
_chemical_formula_structural   V8Ga8Ni16C
_chemical_formula_sum   'V8 Ga8 Ni16 C1'
_cell_volume   1251.95483123
_cell_formula_units_Z   1
loop_
 _symmetry_equiv_pos_site_id
 _symmetry_equiv_pos_as_xyz
  1  'x, y, z'
  2  '-x, -y, z'
  3  '-x, y, z'
  4  'x, -y, z'
loop_
 _atom_site_type_symbol
 _atom_site_label
 _atom_site_symmetry_multiplicity
 _atom_site_fract_x
 _atom_site_fract_y
 _atom_site_fract_z
 _atom_site_occupancy
  V  V0  2  0.50000000  0.24588000  0.11471000  1.0
  V  V1  2  0.50000000  0.24999000  0.96071000  1.0
  V  V2  1  0.00000000  0.00000000  0.04107000  1.0
  V  V3  1  0.00000000  0.00000000  0.88213000  1.0
  V  V4  1  0.00000000  0.50000000  0.04777000  1.0
  V  V5  1  0.00000000  0.50000000  0.88213000  1.0
  Ga  Ga6  2  0.00000000  0.24003000  0.12766000  1.0
  Ga  Ga7  2  0.00000000  0.25001000  0.96071000  1.0
  Ga  Ga8  1  0.50000000  0.00000000  0.03756000  1.0
  Ga  Ga9  1  0.50000000  0.00000000  0.88213000  1.0
  Ga  Ga10  1  0.50000000  0.50000000  0.03996000  1.0
  Ga  Ga11  1  0.50000000  0.50000000  0.88213000  1.0
  Ni  Ni12  4  0.24222000  0.24568000  0.03981000  1.0
  Ni  Ni13  4  0.25000000  0.25001000  0.88213000  1.0
  Ni  Ni14  2  0.25000000  0.50000000  0.96071000  1.0
  Ni  Ni15  2  0.25000000  0.00000000  0.96071000  1.0
  Ni  Ni16  2  0.25987000  0.00000000  0.11582000  1.0
  Ni  Ni17  2  0.30079000  0.50000000  0.12533000  1.0
  C  C18  1  0.00000000  0.50000000  0.12616000  1.0
