data_image0
_chemical_formula_structural       Li4Al4Cu4Ge4C
_chemical_formula_sum              "Li4 Al4 Cu4 Ge4 C1"
_cell_length_a       7.61632
_cell_length_b       5.50126
_cell_length_c       24.1259
_cell_angle_alpha    90
_cell_angle_beta     90
_cell_angle_gamma    90

_space_group_name_H-M_alt    "P 1"
_space_group_IT_number       1

loop_
  _space_group_symop_operation_xyz
  'x, y, z'

loop_
  _atom_site_type_symbol
  _atom_site_label
  _atom_site_symmetry_multiplicity
  _atom_site_fract_x
  _atom_site_fract_y
  _atom_site_fract_z
  _atom_site_occupancy
  Li  Li1       1.0  0.00000  0.50000  0.91449  1.0000
  Li  Li2       1.0  0.00000  0.99925  0.02850  1.0000
  Li  Li3       1.0  0.50000  0.50000  0.91449  1.0000
  Li  Li4       1.0  0.50000  0.99925  0.02850  1.0000
  Al  Al1       1.0  0.00000  0.00000  0.91449  1.0000
  Al  Al2       1.0  0.00000  0.49925  0.02850  1.0000
  Al  Al3       1.0  0.50000  0.00000  0.91449  1.0000
  Al  Al4       1.0  0.50000  0.49925  0.02850  1.0000
  Cu  Cu1       1.0  0.25000  0.74962  0.97150  1.0000
  Cu  Cu2       1.0  0.25000  0.24887  0.08551  1.0000
  Cu  Cu3       1.0  0.75000  0.74962  0.97150  1.0000
  Cu  Cu4       1.0  0.75000  0.24887  0.08551  1.0000
  Ge  Ge1       1.0  0.25000  0.24962  0.97150  1.0000
  Ge  Ge2       1.0  0.25000  0.74887  0.08551  1.0000
  Ge  Ge3       1.0  0.75000  0.24962  0.97150  1.0000
  Ge  Ge4       1.0  0.75000  0.74887  0.08551  1.0000
  C   C1        1.0  0.00000  0.99925  0.11867  1.0000
