# generated using pymatgen
data_Li4Al4Cu4Ge4C
_symmetry_space_group_name_H-M   Pm
_cell_length_a   5.50126000
_cell_length_b   7.61632000
_cell_length_c   24.12590000
_cell_angle_alpha   90.00000000
_cell_angle_beta   90.00000000
_cell_angle_gamma   90.00000000
_symmetry_Int_Tables_number   6
_chemical_formula_structural   Li4Al4Cu4Ge4C
_chemical_formula_sum   'Li4 Al4 Cu4 Ge4 C1'
_cell_volume   1010.85968651
_cell_formula_units_Z   1
loop_
 _symmetry_equiv_pos_site_id
 _symmetry_equiv_pos_as_xyz
  1  'x, y, z'
  2  'x, -y, z'
loop_
 _atom_site_type_symbol
 _atom_site_label
 _atom_site_symmetry_multiplicity
 _atom_site_fract_x
 _atom_site_fract_y
 _atom_site_fract_z
 _atom_site_occupancy
  Li  Li0  1  0.00174000  0.00000000  0.97831000  1.0
  Li  Li1  1  0.01067000  0.50000000  0.95783000  1.0
  Li  Li2  1  0.50000000  0.00000000  0.08551000  1.0
  Li  Li3  1  0.50000000  0.50000000  0.08551000  1.0
  Al  Al4  1  0.00000000  0.00000000  0.08551000  1.0
  Al  Al5  1  0.00000000  0.50000000  0.08551000  1.0
  Al  Al6  1  0.47754000  0.00000000  0.97787000  1.0
  Al  Al7  1  0.52156000  0.50000000  0.96186000  1.0
  Cu  Cu8  2  0.25038000  0.25001000  0.02850000  1.0
  Cu  Cu9  2  0.74598000  0.18713000  0.91614000  1.0
  Ge  Ge10  2  0.23620000  0.19364000  0.89754000  1.0
  Ge  Ge11  2  0.75038000  0.25001000  0.02850000  1.0
  C  C12  1  0.98542000  0.00000000  0.89145000  1.0
