# generated using pymatgen
data_Al8Cr8Co16C
_symmetry_space_group_name_H-M   Pmm2
_cell_length_a   5.71826000
_cell_length_b   8.08683000
_cell_length_c   26.06510000
_cell_angle_alpha   90.00000000
_cell_angle_beta   90.00000000
_cell_angle_gamma   90.00000000
_symmetry_Int_Tables_number   25
_chemical_formula_structural   Al8Cr8Co16C
_chemical_formula_sum   'Al8 Cr8 Co16 C1'
_cell_volume   1205.31790244
_cell_formula_units_Z   1
loop_
 _symmetry_equiv_pos_site_id
 _symmetry_equiv_pos_as_xyz
  1  'x, y, z'
  2  '-x, -y, z'
  3  '-x, y, z'
  4  'x, -y, z'
loop_
 _atom_site_type_symbol
 _atom_site_label
 _atom_site_symmetry_multiplicity
 _atom_site_fract_x
 _atom_site_fract_y
 _atom_site_fract_z
 _atom_site_occupancy
  Al  Al0  2  0.50000000  0.24933000  0.11853000  1.0
  Al  Al1  2  0.50000000  0.25000000  0.96122000  1.0
  Al  Al2  1  0.00000000  0.00000000  0.03551000  1.0
  Al  Al3  1  0.00000000  0.00000000  0.88365000  1.0
  Al  Al4  1  0.00000000  0.50000000  0.03918000  1.0
  Al  Al5  1  0.00000000  0.50000000  0.88365000  1.0
  Cr  Cr6  2  0.00000000  0.25000000  0.96122000  1.0
  Cr  Cr7  2  0.00000000  0.25417000  0.11705000  1.0
  Cr  Cr8  1  0.50000000  0.00000000  0.03884000  1.0
  Cr  Cr9  1  0.50000000  0.00000000  0.88365000  1.0
  Cr  Cr10  1  0.50000000  0.50000000  0.04069000  1.0
  Cr  Cr11  1  0.50000000  0.50000000  0.88365000  1.0
  Co  Co12  4  0.24975000  0.24858000  0.03866000  1.0
  Co  Co13  4  0.25000000  0.25000000  0.88365000  1.0
  Co  Co14  2  0.22713000  0.00000000  0.11586000  1.0
  Co  Co15  2  0.25000000  0.00000000  0.96122000  1.0
  Co  Co16  2  0.25000000  0.50000000  0.96122000  1.0
  Co  Co17  2  0.25399000  0.50000000  0.11435000  1.0
  C  C18  1  0.50000000  0.00000000  0.14772000  1.0
