# generated using pymatgen
data_Ni24Sn8C
_symmetry_space_group_name_H-M   'P 1'
_cell_length_a   8.44136000
_cell_length_b   5.96895000
_cell_length_c   26.33100000
_cell_angle_alpha   90.00000000
_cell_angle_beta   90.00000000
_cell_angle_gamma   90.00000000
_symmetry_Int_Tables_number   1
_chemical_formula_structural   Ni24Sn8C
_chemical_formula_sum   'Ni24 Sn8 C1'
_cell_volume   1326.71523453
_cell_formula_units_Z   1
loop_
 _symmetry_equiv_pos_site_id
 _symmetry_equiv_pos_as_xyz
  1  'x, y, z'
loop_
 _atom_site_type_symbol
 _atom_site_label
 _atom_site_symmetry_multiplicity
 _atom_site_fract_x
 _atom_site_fract_y
 _atom_site_fract_z
 _atom_site_occupancy
  Ni  Ni0  1  0.00000000  0.75000000  0.04007000  1.0
  Ni  Ni1  1  0.50000000  0.25000000  0.04007000  1.0
  Ni  Ni2  1  0.00000000  0.25000000  0.04007000  1.0
  Ni  Ni3  1  0.50000000  0.75000000  0.04007000  1.0
  Ni  Ni4  1  0.75000000  0.25000000  0.12022000  1.0
  Ni  Ni5  1  0.25000000  0.75000000  0.12022000  1.0
  Ni  Ni6  1  0.75000000  0.75000000  0.12022000  1.0
  Ni  Ni7  1  0.25000000  0.25000000  0.12022000  1.0
  Ni  Ni8  1  0.75000000  0.00000000  0.04007000  1.0
  Ni  Ni9  1  0.00000000  0.50000000  0.12022000  1.0
  Ni  Ni10  1  0.25000000  0.00000000  0.04007000  1.0
  Ni  Ni11  1  0.50000000  0.50000000  0.12022000  1.0
  Ni  Ni12  1  0.49995000  0.78083000  0.88154000  1.0
  Ni  Ni13  1  0.00012000  0.20787000  0.87571000  1.0
  Ni  Ni14  1  0.49995000  0.21917000  0.88154000  1.0
  Ni  Ni15  1  0.00012000  0.79213000  0.87571000  1.0
  Ni  Ni16  1  0.25229000  0.26546000  0.95791000  1.0
  Ni  Ni17  1  0.74765000  0.73432000  0.95790000  1.0
  Ni  Ni18  1  0.25229000  0.73454000  0.95791000  1.0
  Ni  Ni19  1  0.74765000  0.26568000  0.95790000  1.0
  Ni  Ni20  1  0.25013000  0.00000000  0.88383000  1.0
  Ni  Ni21  1  0.49990000  0.50000000  0.95814000  1.0
  Ni  Ni22  1  0.74992000  0.00000000  0.88381000  1.0
  Ni  Ni23  1  0.00004000  0.50000000  0.95626000  1.0
  Sn  Sn24  1  0.00000000  0.00000000  0.12022000  1.0
  Sn  Sn25  1  0.25000000  0.50000000  0.04007000  1.0
  Sn  Sn26  1  0.75000000  0.50000000  0.04007000  1.0
  Sn  Sn27  1  0.50000000  0.00000000  0.12022000  1.0
  Sn  Sn28  1  0.50000000  0.00000000  0.96328000  1.0
  Sn  Sn29  1  0.72849000  0.50000000  0.86821000  1.0
  Sn  Sn30  1  0.27151000  0.50000000  0.86826000  1.0
  Sn  Sn31  1  0.99995000  0.00000000  0.96196000  1.0
  C  C32  1  0.99997000  0.50000000  0.88636000  1.0
