# generated using pymatgen
data_Ni24Sn8C
_symmetry_space_group_name_H-M   Pm
_cell_length_a   8.44136000
_cell_length_b   5.96895000
_cell_length_c   26.33100000
_cell_angle_alpha   90.00000000
_cell_angle_beta   90.00000000
_cell_angle_gamma   90.00000000
_symmetry_Int_Tables_number   6
_chemical_formula_structural   Ni24Sn8C
_chemical_formula_sum   'Ni24 Sn8 C1'
_cell_volume   1326.71523453
_cell_formula_units_Z   1
loop_
 _symmetry_equiv_pos_site_id
 _symmetry_equiv_pos_as_xyz
  1  'x, y, z'
  2  'x, -y, z'
loop_
 _atom_site_type_symbol
 _atom_site_label
 _atom_site_symmetry_multiplicity
 _atom_site_fract_x
 _atom_site_fract_y
 _atom_site_fract_z
 _atom_site_occupancy
  Ni  Ni0  2  0.00000000  0.25000000  0.95993000  1.0
  Ni  Ni1  2  0.00012000  0.20787000  0.12429000  1.0
  Ni  Ni2  2  0.25000000  0.25000000  0.87978000  1.0
  Ni  Ni3  2  0.25229000  0.26546000  0.04209000  1.0
  Ni  Ni4  2  0.49995000  0.21917000  0.11846000  1.0
  Ni  Ni5  2  0.50000000  0.25000000  0.95993000  1.0
  Ni  Ni6  2  0.74765000  0.26568000  0.04210000  1.0
  Ni  Ni7  2  0.75000000  0.25000000  0.87978000  1.0
  Ni  Ni8  1  0.00000000  0.50000000  0.87978000  1.0
  Ni  Ni9  1  0.00004000  0.50000000  0.04374000  1.0
  Ni  Ni10  1  0.25000000  0.00000000  0.95993000  1.0
  Ni  Ni11  1  0.25013000  0.00000000  0.11617000  1.0
  Ni  Ni12  1  0.49990000  0.50000000  0.04186000  1.0
  Ni  Ni13  1  0.50000000  0.50000000  0.87978000  1.0
  Ni  Ni14  1  0.74992000  0.00000000  0.11619000  1.0
  Ni  Ni15  1  0.75000000  0.00000000  0.95993000  1.0
  Sn  Sn16  1  0.00000000  0.00000000  0.87978000  1.0
  Sn  Sn17  1  0.25000000  0.50000000  0.95993000  1.0
  Sn  Sn18  1  0.27151000  0.50000000  0.13174000  1.0
  Sn  Sn19  1  0.50000000  0.00000000  0.03672000  1.0
  Sn  Sn20  1  0.50000000  0.00000000  0.87978000  1.0
  Sn  Sn21  1  0.72849000  0.50000000  0.13179000  1.0
  Sn  Sn22  1  0.75000000  0.50000000  0.95993000  1.0
  Sn  Sn23  1  0.99995000  0.00000000  0.03804000  1.0
  C  C24  1  0.99997000  0.50000000  0.11364000  1.0
