# generated using pymatgen
data_Al8V8Co16CO
_symmetry_space_group_name_H-M   Pm
_cell_length_a   5.76795000
_cell_length_b   8.15711000
_cell_length_c   26.11780000
_cell_angle_alpha   90.00000000
_cell_angle_beta   90.00000000
_cell_angle_gamma   90.00000000
_symmetry_Int_Tables_number   6
_chemical_formula_structural   Al8V8Co16CO
_chemical_formula_sum   'Al8 V8 Co16 C1 O1'
_cell_volume   1228.83733499
_cell_formula_units_Z   1
loop_
 _symmetry_equiv_pos_site_id
 _symmetry_equiv_pos_as_xyz
  1  'x, y, z'
  2  'x, -y, z'
loop_
 _atom_site_type_symbol
 _atom_site_label
 _atom_site_symmetry_multiplicity
 _atom_site_fract_x
 _atom_site_fract_y
 _atom_site_fract_z
 _atom_site_occupancy
  Al  Al0  2  0.50000000  0.25000000  0.96096000  1.0
  Al  Al1  2  0.50166000  0.25100000  0.11827000  1.0
  Al  Al2  1  0.00000000  0.00000000  0.88288000  1.0
  Al  Al3  1  0.00000000  0.50000000  0.88288000  1.0
  Al  Al4  1  0.99912000  0.00000000  0.03952000  1.0
  Al  Al5  1  0.99991000  0.50000000  0.03992000  1.0
  V  V6  2  0.00000000  0.25000000  0.96096000  1.0
  V  V7  2  0.99588000  0.25199000  0.11714000  1.0
  V  V8  1  0.49955000  0.50000000  0.04091000  1.0
  V  V9  1  0.50000000  0.00000000  0.88288000  1.0
  V  V10  1  0.50000000  0.50000000  0.88288000  1.0
  V  V11  1  0.50211000  0.00000000  0.04013000  1.0
  Co  Co12  2  0.24870000  0.24861000  0.03926000  1.0
  Co  Co13  2  0.25000000  0.25000000  0.88288000  1.0
  Co  Co14  2  0.75000000  0.25000000  0.88288000  1.0
  Co  Co15  2  0.75188000  0.25002000  0.03928000  1.0
  Co  Co16  1  0.24878000  0.50000000  0.11474000  1.0
  Co  Co17  1  0.25000000  0.00000000  0.96096000  1.0
  Co  Co18  1  0.25000000  0.50000000  0.96096000  1.0
  Co  Co19  1  0.25064000  0.00000000  0.12152000  1.0
  Co  Co20  1  0.75000000  0.00000000  0.96096000  1.0
  Co  Co21  1  0.75000000  0.50000000  0.96096000  1.0
  Co  Co22  1  0.75363000  0.00000000  0.11422000  1.0
  Co  Co23  1  0.75372000  0.50000000  0.11489000  1.0
  C  C24  1  0.24524000  0.00000000  0.18717000  1.0
  O  O25  1  0.25132000  0.00000000  0.23227000  1.0
