# generated using pymatgen
data_Li8Mg8Ga8Pt8CO
_symmetry_space_group_name_H-M   Pm
_cell_length_a   6.26200000
_cell_length_b   8.85580000
_cell_length_c   26.64190000
_cell_angle_alpha   90.00000000
_cell_angle_beta   90.00000000
_cell_angle_gamma   90.00000000
_symmetry_Int_Tables_number   6
_chemical_formula_structural   Li8Mg8Ga8Pt8CO
_chemical_formula_sum   'Li8 Mg8 Ga8 Pt8 C1 O1'
_cell_volume   1477.42708668
_cell_formula_units_Z   1
loop_
 _symmetry_equiv_pos_site_id
 _symmetry_equiv_pos_as_xyz
  1  'x, y, z'
  2  'x, -y, z'
loop_
 _atom_site_type_symbol
 _atom_site_label
 _atom_site_symmetry_multiplicity
 _atom_site_fract_x
 _atom_site_fract_y
 _atom_site_fract_z
 _atom_site_occupancy
  Li  Li0  2  0.75000000  0.25000000  0.87535000  1.0
  Li  Li1  2  0.75494000  0.25247000  0.04095000  1.0
  Li  Li2  1  0.25000000  0.00000000  0.95845000  1.0
  Li  Li3  1  0.25000000  0.50000000  0.95845000  1.0
  Li  Li4  1  0.26804000  0.00000000  0.13134000  1.0
  Li  Li5  1  0.29248000  0.50000000  0.13812000  1.0
  Mg  Mg6  2  0.00000000  0.25000000  0.95845000  1.0
  Mg  Mg7  2  0.99364000  0.25831000  0.12826000  1.0
  Mg  Mg8  1  0.48626000  0.50000000  0.03954000  1.0
  Mg  Mg9  1  0.50000000  0.00000000  0.87535000  1.0
  Mg  Mg10  1  0.50000000  0.50000000  0.87535000  1.0
  Mg  Mg11  1  0.50589000  0.00000000  0.04404000  1.0
  Ga  Ga12  2  0.50000000  0.25000000  0.95845000  1.0
  Ga  Ga13  2  0.51221000  0.25359000  0.12380000  1.0
  Ga  Ga14  1  0.00000000  0.00000000  0.87535000  1.0
  Ga  Ga15  1  0.00000000  0.50000000  0.87535000  1.0
  Ga  Ga16  1  0.00649000  0.50000000  0.04324000  1.0
  Ga  Ga17  1  0.99781000  0.00000000  0.04506000  1.0
  Pt  Pt18  2  0.24571000  0.24551000  0.04163000  1.0
  Pt  Pt19  2  0.25000000  0.25000000  0.87535000  1.0
  Pt  Pt20  1  0.73716000  0.50000000  0.11672000  1.0
  Pt  Pt21  1  0.75000000  0.00000000  0.95845000  1.0
  Pt  Pt22  1  0.75000000  0.50000000  0.95845000  1.0
  Pt  Pt23  1  0.76002000  0.00000000  0.13013000  1.0
  C  C24  1  0.76783000  0.00000000  0.20235000  1.0
  O  O25  1  0.75872000  0.00000000  0.24581000  1.0
