# generated using pymatgen
data_In16Rh16C
_symmetry_space_group_name_H-M   Pmm2
_cell_length_a   6.51708000
_cell_length_b   9.21654000
_cell_length_c   26.91240000
_cell_angle_alpha   90.00000000
_cell_angle_beta   90.00000000
_cell_angle_gamma   90.00000000
_symmetry_Int_Tables_number   25
_chemical_formula_structural   In16Rh16C
_chemical_formula_sum   'In16 Rh16 C1'
_cell_volume   1616.49138185
_cell_formula_units_Z   1
loop_
 _symmetry_equiv_pos_site_id
 _symmetry_equiv_pos_as_xyz
  1  'x, y, z'
  2  '-x, -y, z'
  3  '-x, y, z'
  4  'x, -y, z'
loop_
 _atom_site_type_symbol
 _atom_site_label
 _atom_site_symmetry_multiplicity
 _atom_site_fract_x
 _atom_site_fract_y
 _atom_site_fract_z
 _atom_site_occupancy
  In  In0  4  0.24590000  0.25085000  0.04348000  1.0
  In  In1  4  0.25000000  0.25000000  0.87158000  1.0
  In  In2  2  0.23873000  0.50000000  0.13637000  1.0
  In  In3  2  0.25000000  0.00000000  0.95719000  1.0
  In  In4  2  0.25000000  0.50000000  0.95719000  1.0
  In  In5  2  0.29549000  0.00000000  0.12985000  1.0
  Rh  Rh6  2  0.00000000  0.21326000  0.13009000  1.0
  Rh  Rh7  2  0.00000000  0.25000000  0.95719000  1.0
  Rh  Rh8  2  0.50000000  0.25000000  0.95719000  1.0
  Rh  Rh9  2  0.50000000  0.26553000  0.12278000  1.0
  Rh  Rh10  1  0.00000000  0.00000000  0.04063000  1.0
  Rh  Rh11  1  0.00000000  0.00000000  0.87158000  1.0
  Rh  Rh12  1  0.00000000  0.50000000  0.04348000  1.0
  Rh  Rh13  1  0.00000000  0.50000000  0.87158000  1.0
  Rh  Rh14  1  0.50000000  0.00000000  0.03880000  1.0
  Rh  Rh15  1  0.50000000  0.00000000  0.87158000  1.0
  Rh  Rh16  1  0.50000000  0.50000000  0.04154000  1.0
  Rh  Rh17  1  0.50000000  0.50000000  0.87158000  1.0
  C  C18  1  0.00000000  0.00000000  0.16161000  1.0
