# generated using pymatgen
data_Al8Ni8CO
_symmetry_space_group_name_H-M   'P 1'
_cell_length_a   5.79956000
_cell_length_b   5.79956000
_cell_length_c   24.34970000
_cell_angle_alpha   90.00000000
_cell_angle_beta   90.00000000
_cell_angle_gamma   90.00000000
_symmetry_Int_Tables_number   1
_chemical_formula_structural   Al8Ni8CO
_chemical_formula_sum   'Al8 Ni8 C1 O1'
_cell_volume   818.99963185
_cell_formula_units_Z   1
loop_
 _symmetry_equiv_pos_site_id
 _symmetry_equiv_pos_as_xyz
  1  'x, y, z'
loop_
 _atom_site_type_symbol
 _atom_site_label
 _atom_site_symmetry_multiplicity
 _atom_site_fract_x
 _atom_site_fract_y
 _atom_site_fract_z
 _atom_site_occupancy
  Al  Al0  1  0.75000000  0.75000000  0.92170000  1.0
  Al  Al1  1  0.75000000  0.75000000  0.04079000  1.0
  Al  Al2  1  0.75000000  0.25000000  0.92170000  1.0
  Al  Al3  1  0.75000000  0.25000000  0.04079000  1.0
  Al  Al4  1  0.25000000  0.75000000  0.92170000  1.0
  Al  Al5  1  0.25000000  0.75000000  0.04079000  1.0
  Al  Al6  1  0.25000000  0.25000000  0.92170000  1.0
  Al  Al7  1  0.25000000  0.25000000  0.04079000  1.0
  Ni  Ni8  1  0.00000000  0.00000000  0.98125000  1.0
  Ni  Ni9  1  0.00000000  0.00000000  0.10034000  1.0
  Ni  Ni10  1  0.00000000  0.50000000  0.98125000  1.0
  Ni  Ni11  1  0.00000000  0.50000000  0.10034000  1.0
  Ni  Ni12  1  0.50000000  0.00000000  0.98125000  1.0
  Ni  Ni13  1  0.50000000  0.00000000  0.10034000  1.0
  Ni  Ni14  1  0.50000000  0.50000000  0.98125000  1.0
  Ni  Ni15  1  0.50000000  0.50000000  0.10034000  1.0
  C  C16  1  0.00000000  0.00000000  0.17837000  1.0
  O  O17  1  0.00000000  0.00000000  0.22560000  1.0
