# generated using pymatgen
data_Li4In4Ga4Pd4CO
_symmetry_space_group_name_H-M   P1
_cell_length_a   6.46680000
_cell_length_b   6.46680000
_cell_length_c   24.85010000
_cell_angle_alpha   90.00000000
_cell_angle_beta   90.00000000
_cell_angle_gamma   90.00000000
_symmetry_Int_Tables_number   1
_chemical_formula_structural   Li4In4Ga4Pd4CO
_chemical_formula_sum   'Li4 In4 Ga4 Pd4 C1 O1'
_cell_volume   1039.21881261
_cell_formula_units_Z   1
loop_
 _symmetry_equiv_pos_site_id
 _symmetry_equiv_pos_as_xyz
  1  'x, y, z'
loop_
 _atom_site_type_symbol
 _atom_site_label
 _atom_site_symmetry_multiplicity
 _atom_site_fract_x
 _atom_site_fract_y
 _atom_site_fract_z
 _atom_site_occupancy
  Li  Li0  1  0.25000000  0.25000000  0.90241000  1.0
  Li  Li1  1  0.25071000  0.74929000  0.03513000  1.0
  Li  Li2  1  0.74921000  0.25080000  0.03513000  1.0
  Li  Li3  1  0.75000000  0.75000000  0.90241000  1.0
  In  In4  1  0.00000000  0.00000000  0.96747000  1.0
  In  In5  1  0.49996000  0.00006000  0.11031000  1.0
  In  In6  1  0.50000000  0.50000000  0.96747000  1.0
  In  In7  1  0.99994000  0.50009000  0.11032000  1.0
  Ga  Ga8  1  0.00000000  0.50000000  0.96747000  1.0
  Ga  Ga9  1  0.49998000  0.50005000  0.10065000  1.0
  Ga  Ga10  1  0.50000000  0.00000000  0.96747000  1.0
  Ga  Ga11  1  0.99973000  0.00023000  0.09349000  1.0
  Pd  Pd12  1  0.24808000  0.24809000  0.03367000  1.0
  Pd  Pd13  1  0.25000000  0.75000000  0.90241000  1.0
  Pd  Pd14  1  0.75000000  0.25000000  0.90241000  1.0
  Pd  Pd15  1  0.75197000  0.75190000  0.03367000  1.0
  C  C16  1  0.00067000  0.99894000  0.18009000  1.0
  O  O17  1  0.99992000  0.00018000  0.22633000  1.0
