# generated using pymatgen
data_Sc8In8Cu16C
_symmetry_space_group_name_H-M   Pmm2
_cell_length_a   6.46446000
_cell_length_b   9.14213000
_cell_length_c   26.85660000
_cell_angle_alpha   90.00000000
_cell_angle_beta   90.00000000
_cell_angle_gamma   90.00000000
_symmetry_Int_Tables_number   25
_chemical_formula_structural   Sc8In8Cu16C
_chemical_formula_sum   'Sc8 In8 Cu16 C1'
_cell_volume   1587.19642280
_cell_formula_units_Z   1
loop_
 _symmetry_equiv_pos_site_id
 _symmetry_equiv_pos_as_xyz
  1  'x, y, z'
  2  '-x, -y, z'
  3  '-x, y, z'
  4  'x, -y, z'
loop_
 _atom_site_type_symbol
 _atom_site_label
 _atom_site_symmetry_multiplicity
 _atom_site_fract_x
 _atom_site_fract_y
 _atom_site_fract_z
 _atom_site_occupancy
  Sc  Sc0  2  0.50000000  0.23352000  0.12930000  1.0
  Sc  Sc1  2  0.50000000  0.25000000  0.95745000  1.0
  Sc  Sc2  1  0.00000000  0.00000000  0.04417000  1.0
  Sc  Sc3  1  0.00000000  0.00000000  0.87235000  1.0
  Sc  Sc4  1  0.00000000  0.50000000  0.04354000  1.0
  Sc  Sc5  1  0.00000000  0.50000000  0.87235000  1.0
  In  In6  2  0.00000000  0.25000000  0.95745000  1.0
  In  In7  2  0.00000000  0.26322000  0.12858000  1.0
  In  In8  1  0.50000000  0.00000000  0.04380000  1.0
  In  In9  1  0.50000000  0.00000000  0.87235000  1.0
  In  In10  1  0.50000000  0.50000000  0.03977000  1.0
  In  In11  1  0.50000000  0.50000000  0.87235000  1.0
  Cu  Cu12  4  0.25000000  0.25000000  0.87235000  1.0
  Cu  Cu13  4  0.25245000  0.25249000  0.04251000  1.0
  Cu  Cu14  2  0.19865000  0.00000000  0.13552000  1.0
  Cu  Cu15  2  0.25000000  0.00000000  0.95745000  1.0
  Cu  Cu16  2  0.25000000  0.50000000  0.95745000  1.0
  Cu  Cu17  2  0.27519000  0.50000000  0.12562000  1.0
  C  C18  1  0.50000000  0.00000000  0.14030000  1.0
