# generated using pymatgen
data_V4Pt12C
_symmetry_space_group_name_H-M   Pmm2
_cell_length_a   5.57094000
_cell_length_b   7.87849000
_cell_length_c   24.17820000
_cell_angle_alpha   90.00000000
_cell_angle_beta   90.00000000
_cell_angle_gamma   90.00000000
_symmetry_Int_Tables_number   25
_chemical_formula_structural   V4Pt12C
_chemical_formula_sum   'V4 Pt12 C1'
_cell_volume   1061.19558598
_cell_formula_units_Z   1
loop_
 _symmetry_equiv_pos_site_id
 _symmetry_equiv_pos_as_xyz
  1  'x, y, z'
  2  '-x, -y, z'
  3  '-x, y, z'
  4  'x, -y, z'
loop_
 _atom_site_type_symbol
 _atom_site_label
 _atom_site_symmetry_multiplicity
 _atom_site_fract_x
 _atom_site_fract_y
 _atom_site_fract_z
 _atom_site_occupancy
  V  V0  1  0.00000000  0.00000000  0.08640000  1.0
  V  V1  1  0.00000000  0.50000000  0.08640000  1.0
  V  V2  1  0.50000000  0.00000000  0.97125000  1.0
  V  V3  1  0.50000000  0.50000000  0.95727000  1.0
  Pt  Pt4  4  0.25000000  0.25000000  0.02880000  1.0
  Pt  Pt5  4  0.26122000  0.23003000  0.91280000  1.0
  Pt  Pt6  1  0.00000000  0.00000000  0.97836000  1.0
  Pt  Pt7  1  0.00000000  0.50000000  0.96518000  1.0
  Pt  Pt8  1  0.50000000  0.00000000  0.08640000  1.0
  Pt  Pt9  1  0.50000000  0.50000000  0.08640000  1.0
  C  C10  1  0.50000000  0.00000000  0.89467000  1.0
