# generated using pymatgen
data_Li4Zn4Ge4Pd4CO
_symmetry_space_group_name_H-M   'P 1'
_cell_length_a   6.18512000
_cell_length_b   6.18512000
_cell_length_c   24.63880000
_cell_angle_alpha   90.00000000
_cell_angle_beta   90.00000000
_cell_angle_gamma   90.00000000
_symmetry_Int_Tables_number   1
_chemical_formula_structural   Li4Zn4Ge4Pd4CO
_chemical_formula_sum   'Li4 Zn4 Ge4 Pd4 C1 O1'
_cell_volume   942.57477312
_cell_formula_units_Z   1
loop_
 _symmetry_equiv_pos_site_id
 _symmetry_equiv_pos_as_xyz
  1  'x, y, z'
loop_
 _atom_site_type_symbol
 _atom_site_label
 _atom_site_symmetry_multiplicity
 _atom_site_fract_x
 _atom_site_fract_y
 _atom_site_fract_z
 _atom_site_occupancy
  Li  Li0  1  0.23968000  0.23968000  0.03373000  1
  Li  Li1  1  0.75001000  0.24999000  0.90586000  1
  Li  Li2  1  0.24999000  0.75001000  0.90586000  1
  Li  Li3  1  0.76032000  0.76032000  0.03373000  1
  Zn  Zn4  1  1.00000000  0.50000000  0.09544000  1
  Zn  Zn5  1  0.50000000  0.50000000  0.96862000  1
  Zn  Zn6  1  1.00000000  0.00000000  0.96862000  1
  Zn  Zn7  1  0.50000000  1.00000000  0.09544000  1
  Ge  Ge8  1  0.50000000  0.50000000  0.09269000  1
  Ge  Ge9  1  1.00000000  0.50000000  0.96862000  1
  Ge  Ge10  1  0.50000000  1.00000000  0.96862000  1
  Ge  Ge11  1  1.00000000  0.00000000  0.10756000  1
  Pd  Pd12  1  0.24340000  0.75660000  0.03457000  1
  Pd  Pd13  1  0.75000000  0.75000000  0.90586000  1
  Pd  Pd14  1  0.25000000  0.25000000  0.90586000  1
  Pd  Pd15  1  0.75660000  0.24340000  0.03457000  1
  C  C16  1  0.50000000  0.50000000  0.17329000  1
  O  O17  1  0.50000000  0.50000000  0.22018000  1
