# generated using pymatgen
data_Ga8Fe8Co16C
_symmetry_space_group_name_H-M   Pmm2
_cell_length_a   5.74310000
_cell_length_b   8.12197000
_cell_length_c   26.09150000
_cell_angle_alpha   90.00000000
_cell_angle_beta   90.00000000
_cell_angle_gamma   90.00000000
_symmetry_Int_Tables_number   25
_chemical_formula_structural   Ga8Fe8Co16C
_chemical_formula_sum   'Ga8 Fe8 Co16 C1'
_cell_volume   1217.04547724
_cell_formula_units_Z   1
loop_
 _symmetry_equiv_pos_site_id
 _symmetry_equiv_pos_as_xyz
  1  'x, y, z'
  2  '-x, -y, z'
  3  '-x, y, z'
  4  'x, -y, z'
loop_
 _atom_site_type_symbol
 _atom_site_label
 _atom_site_symmetry_multiplicity
 _atom_site_fract_x
 _atom_site_fract_y
 _atom_site_fract_z
 _atom_site_occupancy
  Ga  Ga0  2  0.50000000  0.25000000  0.96109000  1.0
  Ga  Ga1  2  0.50000000  0.25375000  0.12478000  1.0
  Ga  Ga2  1  0.00000000  0.00000000  0.03656000  1.0
  Ga  Ga3  1  0.00000000  0.00000000  0.88327000  1.0
  Ga  Ga4  1  0.00000000  0.50000000  0.03836000  1.0
  Ga  Ga5  1  0.00000000  0.50000000  0.88327000  1.0
  Fe  Fe6  2  0.00000000  0.25000000  0.96109000  1.0
  Fe  Fe7  2  0.00000000  0.25935000  0.11525000  1.0
  Fe  Fe8  1  0.50000000  0.00000000  0.03907000  1.0
  Fe  Fe9  1  0.50000000  0.00000000  0.88327000  1.0
  Fe  Fe10  1  0.50000000  0.50000000  0.03819000  1.0
  Fe  Fe11  1  0.50000000  0.50000000  0.88327000  1.0
  Co  Co12  4  0.25000000  0.25000000  0.88327000  1.0
  Co  Co13  4  0.25297000  0.24839000  0.04064000  1.0
  Co  Co14  2  0.22921000  0.00000000  0.11672000  1.0
  Co  Co15  2  0.25000000  0.00000000  0.96109000  1.0
  Co  Co16  2  0.25000000  0.50000000  0.96109000  1.0
  Co  Co17  2  0.25878000  0.50000000  0.11391000  1.0
  C  C18  1  0.50000000  0.00000000  0.14788000  1.0
