data_image0
_chemical_formula_structural       Ti16Au16C
_chemical_formula_sum              "Ti16 Au16 C1"
_cell_length_a       6.57738
_cell_length_b       9.30182
_cell_length_c       26.9764
_cell_angle_alpha    90
_cell_angle_beta     90
_cell_angle_gamma    90

_space_group_name_H-M_alt    "P 1"
_space_group_IT_number       1

loop_
  _space_group_symop_operation_xyz
  'x, y, z'

loop_
  _atom_site_type_symbol
  _atom_site_label
  _atom_site_symmetry_multiplicity
  _atom_site_fract_x
  _atom_site_fract_y
  _atom_site_fract_z
  _atom_site_occupancy
  Ti  Ti1       1.0  0.25000  0.25000  0.87069  1.0000
  Ti  Ti2       1.0  0.25000  0.00000  0.95690  1.0000
  Ti  Ti3       1.0  0.24005  0.25111  0.04731  1.0000
  Ti  Ti4       1.0  0.22217  0.50001  0.12115  1.0000
  Ti  Ti5       1.0  0.25000  0.75000  0.87069  1.0000
  Ti  Ti6       1.0  0.25000  0.50000  0.95690  1.0000
  Ti  Ti7       1.0  0.24007  0.74886  0.04731  1.0000
  Ti  Ti8       1.0  0.24740  0.00002  0.12825  1.0000
  Ti  Ti9       1.0  0.75000  0.25000  0.87069  1.0000
  Ti  Ti10      1.0  0.75000  0.00000  0.95690  1.0000
  Ti  Ti11      1.0  0.75994  0.25112  0.04731  1.0000
  Ti  Ti12      1.0  0.77783  0.50001  0.12115  1.0000
  Ti  Ti13      1.0  0.75000  0.75000  0.87069  1.0000
  Ti  Ti14      1.0  0.75000  0.50000  0.95690  1.0000
  Ti  Ti15      1.0  0.75993  0.74885  0.04731  1.0000
  Ti  Ti16      1.0  0.75260  0.00002  0.12825  1.0000
  Au  Au1       1.0  0.00000  0.00000  0.87069  1.0000
  Au  Au2       1.0  0.00000  0.25000  0.95690  1.0000
  Au  Au3       1.0  0.99997  0.99995  0.04008  1.0000
  Au  Au4       1.0  0.99997  0.25502  0.13870  1.0000
  Au  Au5       1.0  0.00000  0.50000  0.87069  1.0000
  Au  Au6       1.0  0.00000  0.75000  0.95690  1.0000
  Au  Au7       1.0  0.99999  0.50002  0.03387  1.0000
  Au  Au8       1.0  0.99996  0.74501  0.13870  1.0000
  Au  Au9       1.0  0.50000  0.00000  0.87069  1.0000
  Au  Au10      1.0  0.50000  0.25000  0.95690  1.0000
  Au  Au11      1.0  0.50002  0.99996  0.03802  1.0000
  Au  Au12      1.0  0.50003  0.25059  0.12659  1.0000
  Au  Au13      1.0  0.50000  0.50000  0.87069  1.0000
  Au  Au14      1.0  0.50000  0.75000  0.95690  1.0000
  Au  Au15      1.0  0.50001  0.50001  0.04109  1.0000
  Au  Au16      1.0  0.50003  0.74942  0.12658  1.0000
  C   C1        1.0  1.00000  0.99995  0.16408  1.0000
