# generated using pymatgen
data_Li8Ga16Pt8CO
_symmetry_space_group_name_H-M   'P 1'
_cell_length_a   6.22326000
_cell_length_b   8.80102000
_cell_length_c   26.60080000
_cell_angle_alpha   90.00000000
_cell_angle_beta   90.00000000
_cell_angle_gamma   90.00000000
_symmetry_Int_Tables_number   1
_chemical_formula_structural   Li8Ga16Pt8CO
_chemical_formula_sum   'Li8 Ga16 Pt8 C1 O1'
_cell_volume   1456.95336712
_cell_formula_units_Z   1
loop_
 _symmetry_equiv_pos_site_id
 _symmetry_equiv_pos_as_xyz
  1  'x, y, z'
loop_
 _atom_site_type_symbol
 _atom_site_label
 _atom_site_symmetry_multiplicity
 _atom_site_fract_x
 _atom_site_fract_y
 _atom_site_fract_z
 _atom_site_occupancy
  Li  Li0  1  0.00000000  0.75000000  0.87593000  1.0
  Li  Li1  1  0.50000000  0.00000000  0.95864000  1.0
  Li  Li2  1  0.50000000  0.50000000  0.95864000  1.0
  Li  Li3  1  0.00000000  0.25000000  0.87593000  1.0
  Li  Li4  1  0.00000000  0.24886000  0.04427000  1.0
  Li  Li5  1  0.50000000  0.50000000  0.15263000  1.0
  Li  Li6  1  0.50000000  0.00000000  0.15914000  1.0
  Li  Li7  1  0.00000000  0.75114000  0.04427000  1.0
  Ga  Ga8  1  0.25000000  0.75000000  0.95864000  1.0
  Ga  Ga9  1  0.75000000  0.25000000  0.95864000  1.0
  Ga  Ga10  1  0.75000000  0.75000000  0.95864000  1.0
  Ga  Ga11  1  0.25000000  0.25000000  0.95864000  1.0
  Ga  Ga12  1  0.75000000  0.50000000  0.87593000  1.0
  Ga  Ga13  1  0.25000000  0.00000000  0.87593000  1.0
  Ga  Ga14  1  0.25000000  0.50000000  0.87593000  1.0
  Ga  Ga15  1  0.75000000  0.00000000  0.87593000  1.0
  Ga  Ga16  1  0.24385000  0.24977000  0.13398000  1.0
  Ga  Ga17  1  0.75615000  0.75023000  0.13398000  1.0
  Ga  Ga18  1  0.75615000  0.24977000  0.13398000  1.0
  Ga  Ga19  1  0.24385000  0.75023000  0.13398000  1.0
  Ga  Ga20  1  0.73151000  0.00000000  0.04763000  1.0
  Ga  Ga21  1  0.26575000  0.50000000  0.04705000  1.0
  Ga  Ga22  1  0.26849000  0.00000000  0.04763000  1.0
  Ga  Ga23  1  0.73425000  0.50000000  0.04705000  1.0
  Pt  Pt24  1  0.00000000  0.50000000  0.95864000  1.0
  Pt  Pt25  1  0.50000000  0.75000000  0.87593000  1.0
  Pt  Pt26  1  0.00000000  0.00000000  0.95864000  1.0
  Pt  Pt27  1  0.50000000  0.25000000  0.87593000  1.0
  Pt  Pt28  1  0.00000000  0.00000000  0.11985000  1.0
  Pt  Pt29  1  0.50000000  0.25065000  0.03729000  1.0
  Pt  Pt30  1  0.00000000  0.50000000  0.11966000  1.0
  Pt  Pt31  1  0.50000000  0.74935000  0.03729000  1.0
  C  C32  1  0.50000000  0.00000000  0.23863000  1.0
  O  O33  1  0.50000000  0.00000000  0.28139000  1.0
