# generated using pymatgen
data_LiScGePd
_symmetry_space_group_name_H-M   Cmm2
_cell_length_a   8.92367344
_cell_length_b   8.92367344
_cell_length_c   24.73250000
_cell_angle_alpha   90.00000000
_cell_angle_beta   90.00000000
_cell_angle_gamma   90.00000000
_symmetry_Int_Tables_number   35
_chemical_formula_structural   LiScGePd
_chemical_formula_sum   'Li8 Sc8 Ge8 Pd8'
_cell_volume   1969.49714402
_cell_formula_units_Z   8
loop_
 _symmetry_equiv_pos_site_id
 _symmetry_equiv_pos_as_xyz
  1  'x, y, z'
  2  '-x, -y, z'
  3  '-x, y, z'
  4  'x, -y, z'
  5  'x+1/2, y+1/2, z'
  6  '-x+1/2, -y+1/2, z'
  7  '-x+1/2, y+1/2, z'
  8  'x+1/2, -y+1/2, z'
loop_
 _atom_site_type_symbol
 _atom_site_label
 _atom_site_symmetry_multiplicity
 _atom_site_fract_x
 _atom_site_fract_y
 _atom_site_fract_z
 _atom_site_occupancy
  Li  Li0  4  0.00000000  0.24924500  0.11642000  1.0
  Li  Li1  4  0.25000000  0.00000000  0.96811000  1.0
  Sc  Sc2  4  0.25000000  0.25000000  0.90433000  1.0
  Sc  Sc3  2  0.00000000  0.00000000  0.03218000  1.0
  Sc  Sc4  2  0.00000000  0.50000000  0.03225000  1.0
  Ge  Ge5  4  0.25000000  0.25000000  0.03714000  1.0
  Ge  Ge6  2  0.00000000  0.00000000  0.90433000  1.0
  Ge  Ge7  2  0.00000000  0.50000000  0.90433000  1.0
  Pd  Pd8  4  0.00000000  0.25000000  0.96811000  1.0
  Pd  Pd9  4  0.24980000  0.00000000  0.09064000  1.0
