# generated using pymatgen
data_Li8Y8Ag8Sn8CO
_symmetry_space_group_name_H-M   'P 1'
_cell_length_a   10.05810000
_cell_length_b   7.11214000
_cell_length_c   27.54360000
_cell_angle_alpha   90.00000000
_cell_angle_beta   90.00000000
_cell_angle_gamma   90.00000000
_symmetry_Int_Tables_number   1
_chemical_formula_structural   Li8Y8Ag8Sn8CO
_chemical_formula_sum   'Li8 Y8 Ag8 Sn8 C1 O1'
_cell_volume   1970.32083091
_cell_formula_units_Z   1
loop_
 _symmetry_equiv_pos_site_id
 _symmetry_equiv_pos_as_xyz
  1  'x, y, z'
loop_
 _atom_site_type_symbol
 _atom_site_label
 _atom_site_symmetry_multiplicity
 _atom_site_fract_x
 _atom_site_fract_y
 _atom_site_fract_z
 _atom_site_occupancy
  Li  Li0  1  0.00000000  0.25000000  0.04565000  1.0
  Li  Li1  1  0.50000000  0.25000000  0.04565000  1.0
  Li  Li2  1  0.25000000  0.75000000  0.13694000  1.0
  Li  Li3  1  0.75000000  0.75000000  0.13694000  1.0
  Li  Li4  1  0.50000000  0.24161000  0.86638000  1.0
  Li  Li5  1  0.00000000  0.24668000  0.86590000  1.0
  Li  Li6  1  0.75230000  0.75487000  0.95434000  1.0
  Li  Li7  1  0.24770000  0.75487000  0.95434000  1.0
  Y  Y8  1  0.00000000  0.75000000  0.04565000  1.0
  Y  Y9  1  0.50000000  0.75000000  0.04565000  1.0
  Y  Y10  1  0.25000000  0.25000000  0.13694000  1.0
  Y  Y11  1  0.75000000  0.25000000  0.13694000  1.0
  Y  Y12  1  0.50000000  0.76751000  0.85659000  1.0
  Y  Y13  1  0.00000000  0.76978000  0.86470000  1.0
  Y  Y14  1  0.74363000  0.24796000  0.95286000  1.0
  Y  Y15  1  0.25637000  0.24796000  0.95286000  1.0
  Ag  Ag16  1  0.00000000  0.00000000  0.13694000  1.0
  Ag  Ag17  1  0.50000000  0.00000000  0.13694000  1.0
  Ag  Ag18  1  0.75000000  0.50000000  0.04565000  1.0
  Ag  Ag19  1  0.25000000  0.50000000  0.04565000  1.0
  Ag  Ag20  1  0.50000000  0.97960000  0.95111000  1.0
  Ag  Ag21  1  0.00000000  0.01439000  0.95721000  1.0
  Ag  Ag22  1  0.25057000  0.50739000  0.86788000  1.0
  Ag  Ag23  1  0.74943000  0.50739000  0.86788000  1.0
  Sn  Sn24  1  0.25000000  0.00000000  0.04565000  1.0
  Sn  Sn25  1  0.75000000  0.00000000  0.04565000  1.0
  Sn  Sn26  1  0.50000000  0.50000000  0.13694000  1.0
  Sn  Sn27  1  0.00000000  0.50000000  0.13694000  1.0
  Sn  Sn28  1  0.75037000  0.02124000  0.85470000  1.0
  Sn  Sn29  1  0.24963000  0.02124000  0.85470000  1.0
  Sn  Sn30  1  0.00000000  0.49457000  0.95263000  1.0
  Sn  Sn31  1  0.50000000  0.51869000  0.94896000  1.0
  C  C32  1  0.00000000  0.75511000  0.77544000  1.0
  O  O33  1  0.00000000  0.75259000  0.73374000  1.0
