# generated using pymatgen
data_Li16Ga8Pd8CO
_symmetry_space_group_name_H-M   'P 1'
_cell_length_a   6.14873000
_cell_length_b   8.69561000
_cell_length_c   26.52170000
_cell_angle_alpha   90.00000000
_cell_angle_beta   90.00000000
_cell_angle_gamma   90.00000000
_symmetry_Int_Tables_number   1
_chemical_formula_structural   Li16Ga8Pd8CO
_chemical_formula_sum   'Li16 Ga8 Pd8 C1 O1'
_cell_volume   1418.03462199
_cell_formula_units_Z   1
loop_
 _symmetry_equiv_pos_site_id
 _symmetry_equiv_pos_as_xyz
  1  'x, y, z'
loop_
 _atom_site_type_symbol
 _atom_site_label
 _atom_site_symmetry_multiplicity
 _atom_site_fract_x
 _atom_site_fract_y
 _atom_site_fract_z
 _atom_site_occupancy
  Li  Li0  1  0.00000000  0.75000000  0.95902000  1.0
  Li  Li1  1  0.50000000  0.00000000  0.87705000  1.0
  Li  Li2  1  0.00000000  0.25000000  0.95902000  1.0
  Li  Li3  1  0.50000000  0.50000000  0.87705000  1.0
  Li  Li4  1  0.25000000  0.25000000  0.87705000  1.0
  Li  Li5  1  0.25000000  0.75000000  0.87705000  1.0
  Li  Li6  1  0.75000000  0.50000000  0.95902000  1.0
  Li  Li7  1  0.75000000  0.00000000  0.95902000  1.0
  Li  Li8  1  0.00838000  0.25081000  0.12271000  1.0
  Li  Li9  1  0.51280000  0.50001000  0.03789000  1.0
  Li  Li10  1  0.00832000  0.74917000  0.12272000  1.0
  Li  Li11  1  0.51060000  0.00000000  0.04079000  1.0
  Li  Li12  1  0.24597000  0.75356000  0.03822000  1.0
  Li  Li13  1  0.24600000  0.24643000  0.03822000  1.0
  Li  Li14  1  0.73148000  0.99998000  0.13021000  1.0
  Li  Li15  1  0.73216000  0.49998000  0.12660000  1.0
  Ga  Ga16  1  0.25000000  0.00000000  0.95902000  1.0
  Ga  Ga17  1  0.25000000  0.50000000  0.95902000  1.0
  Ga  Ga18  1  0.75000000  0.75000000  0.87705000  1.0
  Ga  Ga19  1  0.75000000  0.25000000  0.87705000  1.0
  Ga  Ga20  1  0.26566000  0.49992000  0.11855000  1.0
  Ga  Ga21  1  0.26864000  0.00000000  0.12123000  1.0
  Ga  Ga22  1  0.75706000  0.24981000  0.03923000  1.0
  Ga  Ga23  1  0.75702000  0.75020000  0.03924000  1.0
  Pd  Pd24  1  0.00000000  0.00000000  0.87705000  1.0
  Pd  Pd25  1  0.50000000  0.25000000  0.95902000  1.0
  Pd  Pd26  1  0.50000000  0.75000000  0.95902000  1.0
  Pd  Pd27  1  0.00000000  0.50000000  0.87705000  1.0
  Pd  Pd28  1  0.00206000  0.50004000  0.04161000  1.0
  Pd  Pd29  1  0.49317000  0.74779000  0.11399000  1.0
  Pd  Pd30  1  0.49310000  0.25225000  0.11398000  1.0
  Pd  Pd31  1  0.99544000  0.99996000  0.04500000  1.0
  C  C32  1  0.17459000  0.99996000  0.19422000  1.0
  O  O33  1  0.15122000  0.99992000  0.23774000  1.0
