# generated using pymatgen
data_Li4Al4Ga4Pd4CO
_symmetry_space_group_name_H-M   Cm
_cell_length_a   8.69058276
_cell_length_b   8.69058276
_cell_length_c   24.60890000
_cell_angle_alpha   90.00000000
_cell_angle_beta   90.00000000
_cell_angle_gamma   90.00000000
_symmetry_Int_Tables_number   8
_chemical_formula_structural   Li4Al4Ga4Pd4CO
_chemical_formula_sum   'Li8 Al8 Ga8 Pd8 C2 O2'
_cell_volume   1858.61740842
_cell_formula_units_Z   2
loop_
 _symmetry_equiv_pos_site_id
 _symmetry_equiv_pos_as_xyz
  1  'x, y, z'
  2  'x, -y, z'
  3  'x+1/2, y+1/2, z'
  4  'x+1/2, -y+1/2, z'
loop_
 _atom_site_type_symbol
 _atom_site_label
 _atom_site_symmetry_multiplicity
 _atom_site_fract_x
 _atom_site_fract_y
 _atom_site_fract_z
 _atom_site_occupancy
  Li  Li0  4  0.49999000  0.24999000  0.96879000  1.0
  Li  Li1  2  0.24883000  0.00000000  0.11337000  1.0
  Li  Li2  2  0.25107000  0.50000000  0.10988000  1.0
  Al  Al3  4  0.25003500  0.24855500  0.03505000  1.0
  Al  Al4  2  0.49999000  0.00000000  0.90636000  1.0
  Al  Al5  2  0.49999000  0.50000000  0.90636000  1.0
  Ga  Ga6  4  0.24999000  0.25001000  0.90636000  1.0
  Ga  Ga7  2  0.00159500  0.00000000  0.03510000  1.0
  Ga  Ga8  2  0.49854000  0.00000000  0.03526000  1.0
  Pd  Pd9  4  0.00004000  0.24992000  0.08770000  1.0
  Pd  Pd10  2  0.24999000  0.00000000  0.96879000  1.0
  Pd  Pd11  2  0.24999000  0.50000000  0.96879000  1.0
  C  C12  2  0.24858000  0.00000000  0.19936000  1.0
  O  O13  2  0.24861500  0.00000000  0.24567000  1.0
