# generated using pymatgen
data_Sc8Al8Pd16C
_symmetry_space_group_name_H-M   'P 1'
_cell_length_a   6.41477000
_cell_length_b   9.07185000
_cell_length_c   26.80390000
_cell_angle_alpha   90.00000000
_cell_angle_beta   90.00000000
_cell_angle_gamma   90.00000000
_symmetry_Int_Tables_number   1
_chemical_formula_structural   Sc8Al8Pd16C
_chemical_formula_sum   'Sc8 Al8 Pd16 C1'
_cell_volume   1559.82163276
_cell_formula_units_Z   1
loop_
 _symmetry_equiv_pos_site_id
 _symmetry_equiv_pos_as_xyz
  1  'x, y, z'
loop_
 _atom_site_type_symbol
 _atom_site_label
 _atom_site_symmetry_multiplicity
 _atom_site_fract_x
 _atom_site_fract_y
 _atom_site_fract_z
 _atom_site_occupancy
  Sc  Sc0  1  0.00000000  0.00000000  0.87308000  1.0
  Sc  Sc1  1  0.50000000  0.25000000  0.95769000  1.0
  Sc  Sc2  1  0.50000000  0.75000000  0.95769000  1.0
  Sc  Sc3  1  0.00000000  0.50000000  0.87308000  1.0
  Sc  Sc4  1  0.00000000  0.50000000  0.04218000  1.0
  Sc  Sc5  1  0.50000000  0.73553000  0.12947000  1.0
  Sc  Sc6  1  0.50000000  0.26447000  0.12947000  1.0
  Sc  Sc7  1  0.00000000  0.00000000  0.04353000  1.0
  Al  Al8  1  0.00000000  0.75000000  0.95769000  1.0
  Al  Al9  1  0.50000000  0.00000000  0.87308000  1.0
  Al  Al10  1  0.00000000  0.25000000  0.95769000  1.0
  Al  Al11  1  0.50000000  0.50000000  0.87308000  1.0
  Al  Al12  1  0.00000000  0.23325000  0.12579000  1.0
  Al  Al13  1  0.50000000  0.50000000  0.04605000  1.0
  Al  Al14  1  0.00000000  0.76675000  0.12579000  1.0
  Al  Al15  1  0.50000000  0.00000000  0.03991000  1.0
  Pd  Pd16  1  0.25000000  0.00000000  0.95769000  1.0
  Pd  Pd17  1  0.75000000  0.50000000  0.95769000  1.0
  Pd  Pd18  1  0.75000000  0.00000000  0.95769000  1.0
  Pd  Pd19  1  0.25000000  0.50000000  0.95769000  1.0
  Pd  Pd20  1  0.75000000  0.75000000  0.87308000  1.0
  Pd  Pd21  1  0.25000000  0.25000000  0.87308000  1.0
  Pd  Pd22  1  0.25000000  0.75000000  0.87308000  1.0
  Pd  Pd23  1  0.75000000  0.25000000  0.87308000  1.0
  Pd  Pd24  1  0.22276000  0.50000000  0.12567000  1.0
  Pd  Pd25  1  0.70381000  0.00000000  0.12302000  1.0
  Pd  Pd26  1  0.77724000  0.50000000  0.12567000  1.0
  Pd  Pd27  1  0.29619000  0.00000000  0.12302000  1.0
  Pd  Pd28  1  0.74596000  0.25294000  0.04291000  1.0
  Pd  Pd29  1  0.25404000  0.74706000  0.04291000  1.0
  Pd  Pd30  1  0.25404000  0.25294000  0.04291000  1.0
  Pd  Pd31  1  0.74596000  0.74706000  0.04291000  1.0
  C  C32  1  0.00000000  0.00000000  0.13809000  1.0
