# generated using pymatgen
data_Li8Ga8Ni8Pd8CO
_symmetry_space_group_name_H-M   'P 1'
_cell_length_a   8.38940000
_cell_length_b   5.93220000
_cell_length_c   26.29200000
_cell_angle_alpha   90.00000000
_cell_angle_beta   90.00000000
_cell_angle_gamma   90.00000000
_symmetry_Int_Tables_number   1
_chemical_formula_structural   Li8Ga8Ni8Pd8CO
_chemical_formula_sum   'Li8 Ga8 Ni8 Pd8 C1 O1'
_cell_volume   1308.48970449
_cell_formula_units_Z   1
loop_
 _symmetry_equiv_pos_site_id
 _symmetry_equiv_pos_as_xyz
  1  'x, y, z'
loop_
 _atom_site_type_symbol
 _atom_site_label
 _atom_site_symmetry_multiplicity
 _atom_site_fract_x
 _atom_site_fract_y
 _atom_site_fract_z
 _atom_site_occupancy
  Li  Li0  1  0.24998000  0.00000000  0.03989000  1.0
  Li  Li1  1  0.75002000  0.00000000  0.03989000  1.0
  Li  Li2  1  0.50000000  0.50000000  0.11966000  1.0
  Li  Li3  1  0.00000000  0.50000000  0.11966000  1.0
  Li  Li4  1  0.74847000  0.01368000  0.86419000  1.0
  Li  Li5  1  0.25153000  0.01368000  0.86419000  1.0
  Li  Li6  1  0.00000000  0.50276000  0.96165000  1.0
  Li  Li7  1  0.50000000  0.50536000  0.96300000  1.0
  Ga  Ga8  1  0.00000000  0.00000000  0.11966000  1.0
  Ga  Ga9  1  0.50000000  0.00000000  0.11966000  1.0
  Ga  Ga10  1  0.74998000  0.50000000  0.03989000  1.0
  Ga  Ga11  1  0.25002000  0.50000000  0.03989000  1.0
  Ga  Ga12  1  0.50000000  0.00333000  0.96098000  1.0
  Ga  Ga13  1  0.00000000  0.00076000  0.96110000  1.0
  Ga  Ga14  1  0.25316000  0.50132000  0.87952000  1.0
  Ga  Ga15  1  0.74684000  0.50132000  0.87952000  1.0
  Ni  Ni16  1  0.00000000  0.25000000  0.03989000  1.0
  Ni  Ni17  1  0.50000000  0.25000000  0.03989000  1.0
  Ni  Ni18  1  0.24998000  0.75000000  0.11966000  1.0
  Ni  Ni19  1  0.75002000  0.75000000  0.11966000  1.0
  Ni  Ni20  1  0.50000000  0.27346000  0.88816000  1.0
  Ni  Ni21  1  0.00000000  0.26032000  0.88076000  1.0
  Ni  Ni22  1  0.75001000  0.75862000  0.95933000  1.0
  Ni  Ni23  1  0.24999000  0.75862000  0.95933000  1.0
  Pd  Pd24  1  0.00000000  0.75000000  0.03989000  1.0
  Pd  Pd25  1  0.50000000  0.75000000  0.03989000  1.0
  Pd  Pd26  1  0.24998000  0.25000000  0.11966000  1.0
  Pd  Pd27  1  0.75002000  0.25000000  0.11966000  1.0
  Pd  Pd28  1  0.50000000  0.74934000  0.88421000  1.0
  Pd  Pd29  1  0.00000000  0.74343000  0.88454000  1.0
  Pd  Pd30  1  0.75247000  0.24807000  0.95900000  1.0
  Pd  Pd31  1  0.24753000  0.24807000  0.95900000  1.0
  C  C32  1  0.00000000  0.19647000  0.81553000  1.0
  O  O33  1  0.00000000  0.17751000  0.77144000  1.0
