# generated using pymatgen
data_Li8Ga8Ni8Pd8CO
_symmetry_space_group_name_H-M   Pm
_cell_length_a   5.93220000
_cell_length_b   8.38940000
_cell_length_c   26.29200000
_cell_angle_alpha   90.00000000
_cell_angle_beta   90.00000000
_cell_angle_gamma   90.00000000
_symmetry_Int_Tables_number   6
_chemical_formula_structural   Li8Ga8Ni8Pd8CO
_chemical_formula_sum   'Li8 Ga8 Ni8 Pd8 C1 O1'
_cell_volume   1308.48970449
_cell_formula_units_Z   1
loop_
 _symmetry_equiv_pos_site_id
 _symmetry_equiv_pos_as_xyz
  1  'x, y, z'
  2  'x, -y, z'
loop_
 _atom_site_type_symbol
 _atom_site_label
 _atom_site_symmetry_multiplicity
 _atom_site_fract_x
 _atom_site_fract_y
 _atom_site_fract_z
 _atom_site_occupancy
  Li  Li0  2  0.00000000  0.24998000  0.96011000  1.0
  Li  Li1  2  0.01368000  0.25153000  0.13581000  1.0
  Li  Li2  1  0.50000000  0.00000000  0.88034000  1.0
  Li  Li3  1  0.50000000  0.50000000  0.88034000  1.0
  Li  Li4  1  0.50276000  0.00000000  0.03835000  1.0
  Li  Li5  1  0.50536000  0.50000000  0.03700000  1.0
  Ga  Ga6  2  0.50000000  0.25002000  0.96011000  1.0
  Ga  Ga7  2  0.50132000  0.25316000  0.12048000  1.0
  Ga  Ga8  1  0.00000000  0.00000000  0.88034000  1.0
  Ga  Ga9  1  0.00000000  0.50000000  0.88034000  1.0
  Ga  Ga10  1  0.00076000  0.00000000  0.03890000  1.0
  Ga  Ga11  1  0.00333000  0.50000000  0.03902000  1.0
  Ni  Ni12  2  0.75000000  0.24998000  0.88034000  1.0
  Ni  Ni13  2  0.75862000  0.24999000  0.04067000  1.0
  Ni  Ni14  1  0.25000000  0.00000000  0.96011000  1.0
  Ni  Ni15  1  0.25000000  0.50000000  0.96011000  1.0
  Ni  Ni16  1  0.26032000  0.00000000  0.11924000  1.0
  Ni  Ni17  1  0.27346000  0.50000000  0.11184000  1.0
  Pd  Pd18  2  0.24807000  0.24753000  0.04100000  1.0
  Pd  Pd19  2  0.25000000  0.24998000  0.88034000  1.0
  Pd  Pd20  1  0.74343000  0.00000000  0.11546000  1.0
  Pd  Pd21  1  0.74934000  0.50000000  0.11579000  1.0
  Pd  Pd22  1  0.75000000  0.00000000  0.96011000  1.0
  Pd  Pd23  1  0.75000000  0.50000000  0.96011000  1.0
  C  C24  1  0.19647000  0.00000000  0.18447000  1.0
  O  O25  1  0.17751000  0.00000000  0.22856000  1.0
