# generated using pymatgen
data_Li4Al4Ag4Ge4CO
_symmetry_space_group_name_H-M   Pm
_cell_length_a   5.86609000
_cell_length_b   7.71364000
_cell_length_c   24.39060000
_cell_angle_alpha   90.00000000
_cell_angle_beta   90.00000000
_cell_angle_gamma   90.00000000
_symmetry_Int_Tables_number   6
_chemical_formula_structural   Li4Al4Ag4Ge4CO
_chemical_formula_sum   'Li4 Al4 Ag4 Ge4 C1 O1'
_cell_volume   1103.64797809
_cell_formula_units_Z   1
loop_
 _symmetry_equiv_pos_site_id
 _symmetry_equiv_pos_as_xyz
  1  'x, y, z'
  2  'x, -y, z'
loop_
 _atom_site_type_symbol
 _atom_site_label
 _atom_site_symmetry_multiplicity
 _atom_site_fract_x
 _atom_site_fract_y
 _atom_site_fract_z
 _atom_site_occupancy
  Li  Li0  2  0.29777000  0.25000000  0.09001000  1.0
  Li  Li1  2  0.76403000  0.26024000  0.96487000  1.0
  Al  Al2  2  0.26956000  0.25676000  0.96394000  1.0
  Al  Al3  2  0.79777000  0.25000000  0.09001000  1.0
  Ag  Ag4  1  0.00675000  0.00000000  0.91139000  1.0
  Ag  Ag5  1  0.53185000  0.00000000  0.03000000  1.0
  Ag  Ag6  1  0.53185000  0.50000000  0.03000000  1.0
  Ag  Ag7  1  0.99707000  0.50000000  0.90468000  1.0
  Ge  Ge8  1  0.03185000  0.00000000  0.03000000  1.0
  Ge  Ge9  1  0.03185000  0.50000000  0.03000000  1.0
  Ge  Ge10  1  0.48907000  0.50000000  0.90620000  1.0
  Ge  Ge11  1  0.52772000  0.00000000  0.90947000  1.0
  C  C12  1  0.50567000  0.00000000  0.82897000  1.0
  O  O13  1  0.48845000  0.00000000  0.78171000  1.0
