# generated using pymatgen
data_Mn2AlV
_symmetry_space_group_name_H-M   'P 1'
_cell_length_a   4.12198500
_cell_length_b   5.82937000
_cell_length_c   26.18300000
_cell_angle_alpha   90.00000000
_cell_angle_beta   90.00000000
_cell_angle_gamma   90.00000000
_symmetry_Int_Tables_number   1
_chemical_formula_structural   Mn2AlV
_chemical_formula_sum   'Mn8 Al4 V4'
_cell_volume   629.14019754
_cell_formula_units_Z   4
loop_
 _symmetry_equiv_pos_site_id
 _symmetry_equiv_pos_as_xyz
  1  'x, y, z'
loop_
 _atom_site_type_symbol
 _atom_site_label
 _atom_site_symmetry_multiplicity
 _atom_site_fract_x
 _atom_site_fract_y
 _atom_site_fract_z
 _atom_site_occupancy
  Mn  Mn0  1  0.00000000  0.75000000  0.03936000  1.0
  Mn  Mn1  1  0.00000000  0.25000000  0.03936000  1.0
  Mn  Mn2  1  0.50000000  0.25000000  0.11807000  1.0
  Mn  Mn3  1  0.50000000  0.75000000  0.11807000  1.0
  Mn  Mn4  1  0.00000000  0.75368000  0.88056000  1.0
  Mn  Mn5  1  0.00000000  0.24632000  0.88056000  1.0
  Mn  Mn6  1  0.50000000  0.25153000  0.95970000  1.0
  Mn  Mn7  1  0.50000000  0.74847000  0.95970000  1.0
  Al  Al8  1  0.00000000  0.00000000  0.11807000  1.0
  Al  Al9  1  0.50000000  0.50000000  0.03936000  1.0
  Al  Al10  1  0.00000000  0.00000000  0.96117000  1.0
  Al  Al11  1  0.50000000  0.50000000  0.87620000  1.0
  V  V12  1  0.50000000  0.00000000  0.03936000  1.0
  V  V13  1  0.00000000  0.50000000  0.11807000  1.0
  V  V14  1  0.50000000  0.00000000  0.88470500  1.0
  V  V15  1  0.00000000  0.50000000  0.95961500  1.0
