# generated using pymatgen
data_Mn2AlV
_symmetry_space_group_name_H-M   Pmm2
_cell_length_a   4.12198500
_cell_length_b   5.82937000
_cell_length_c   26.18300000
_cell_angle_alpha   90.00000000
_cell_angle_beta   90.00000000
_cell_angle_gamma   90.00000000
_symmetry_Int_Tables_number   25
_chemical_formula_structural   Mn2AlV
_chemical_formula_sum   'Mn8 Al4 V4'
_cell_volume   629.14019754
_cell_formula_units_Z   4
loop_
 _symmetry_equiv_pos_site_id
 _symmetry_equiv_pos_as_xyz
  1  'x, y, z'
  2  '-x, -y, z'
  3  '-x, y, z'
  4  'x, -y, z'
loop_
 _atom_site_type_symbol
 _atom_site_label
 _atom_site_symmetry_multiplicity
 _atom_site_fract_x
 _atom_site_fract_y
 _atom_site_fract_z
 _atom_site_occupancy
  Mn  Mn0  2  0.00000000  0.24632000  0.88056000  1.0
  Mn  Mn1  2  0.00000000  0.25000000  0.03936000  1.0
  Mn  Mn2  2  0.50000000  0.25000000  0.11807000  1.0
  Mn  Mn3  2  0.50000000  0.25153000  0.95970000  1.0
  Al  Al4  1  0.00000000  0.00000000  0.11807000  1.0
  Al  Al5  1  0.00000000  0.00000000  0.96117000  1.0
  Al  Al6  1  0.50000000  0.50000000  0.03936000  1.0
  Al  Al7  1  0.50000000  0.50000000  0.87620000  1.0
  V  V8  1  0.00000000  0.50000000  0.11807000  1.0
  V  V9  1  0.00000000  0.50000000  0.95961500  1.0
  V  V10  1  0.50000000  0.00000000  0.03936000  1.0
  V  V11  1  0.50000000  0.00000000  0.88470500  1.0
