data_image0
_chemical_formula_structural       Zr8In8Cu16CO
_chemical_formula_sum              "Zr8 In8 Cu16 C1 O1"
_cell_length_a       6.47982
_cell_length_b       9.16384
_cell_length_c       26.8729
_cell_angle_alpha    90
_cell_angle_beta     90
_cell_angle_gamma    90

_space_group_name_H-M_alt    "P 1"
_space_group_IT_number       1

loop_
  _space_group_symop_operation_xyz
  'x, y, z'

loop_
  _atom_site_type_symbol
  _atom_site_label
  _atom_site_symmetry_multiplicity
  _atom_site_fract_x
  _atom_site_fract_y
  _atom_site_fract_z
  _atom_site_occupancy
  Zr  Zr1       1.0  0.00000  0.00000  0.87212  1.0000
  Zr  Zr2       1.0  0.50000  0.25000  0.95737  1.0000
  Zr  Zr3       1.0  0.50000  0.75000  0.95737  1.0000
  Zr  Zr4       1.0  0.00000  0.50000  0.87212  1.0000
  Zr  Zr5       1.0  1.00000  0.50036  0.04503  1.0000
  Zr  Zr6       1.0  0.50000  0.75000  0.12373  1.0000
  Zr  Zr7       1.0  0.50000  0.25000  0.12429  1.0000
  Zr  Zr8       1.0  0.00000  0.99964  0.04503  1.0000
  In  In1       1.0  0.00000  0.75000  0.95737  1.0000
  In  In2       1.0  0.50000  0.00000  0.87212  1.0000
  In  In3       1.0  0.00000  0.25000  0.95737  1.0000
  In  In4       1.0  0.50000  0.50000  0.87212  1.0000
  In  In5       1.0  1.00000  0.25000  0.13521  1.0000
  In  In6       1.0  0.50000  0.49950  0.04136  1.0000
  In  In7       1.0  0.00000  0.75000  0.13550  1.0000
  In  In8       1.0  0.50000  0.00050  0.04136  1.0000
  Cu  Cu1       1.0  0.25000  0.00000  0.95737  1.0000
  Cu  Cu2       1.0  0.75000  0.50000  0.95737  1.0000
  Cu  Cu3       1.0  0.75000  0.00000  0.95737  1.0000
  Cu  Cu4       1.0  0.25000  0.50000  0.95737  1.0000
  Cu  Cu5       1.0  0.75000  0.75000  0.87212  1.0000
  Cu  Cu6       1.0  0.25000  0.25000  0.87212  1.0000
  Cu  Cu7       1.0  0.25000  0.75000  0.87212  1.0000
  Cu  Cu8       1.0  0.75000  0.25000  0.87212  1.0000
  Cu  Cu9       1.0  0.26330  0.50036  0.12986  1.0000
  Cu  Cu10      1.0  0.73670  0.99964  0.12986  1.0000
  Cu  Cu11      1.0  0.73670  0.50036  0.12986  1.0000
  Cu  Cu12      1.0  0.26330  0.99964  0.12986  1.0000
  Cu  Cu13      1.0  0.75993  0.25000  0.04208  1.0000
  Cu  Cu14      1.0  0.24448  0.75000  0.04318  1.0000
  Cu  Cu15      1.0  0.24007  0.25000  0.04208  1.0000
  Cu  Cu16      1.0  0.75552  0.75000  0.04318  1.0000
  C   C1        1.0  0.50000  0.25000  0.20817  1.0000
  O   O1        1.0  0.50000  0.25000  0.25107  1.0000
