# generated using pymatgen
data_Zr8In8Cu16CO
_symmetry_space_group_name_H-M   Pmm2
_cell_length_a   6.47982000
_cell_length_b   9.16384000
_cell_length_c   26.87290000
_cell_angle_alpha   90.00000000
_cell_angle_beta   90.00000000
_cell_angle_gamma   90.00000000
_symmetry_Int_Tables_number   25
_chemical_formula_structural   Zr8In8Cu16CO
_chemical_formula_sum   'Zr8 In8 Cu16 C1 O1'
_cell_volume   1595.71370785
_cell_formula_units_Z   1
loop_
 _symmetry_equiv_pos_site_id
 _symmetry_equiv_pos_as_xyz
  1  'x, y, z'
  2  '-x, -y, z'
  3  '-x, y, z'
  4  'x, -y, z'
loop_
 _atom_site_type_symbol
 _atom_site_label
 _atom_site_symmetry_multiplicity
 _atom_site_fract_x
 _atom_site_fract_y
 _atom_site_fract_z
 _atom_site_occupancy
  Zr  Zr0  2  0.00000000  0.25000000  0.87212000  1.0
  Zr  Zr1  2  0.00000000  0.25036000  0.04503000  1.0
  Zr  Zr2  1  0.50000000  0.00000000  0.12429000  1.0
  Zr  Zr3  1  0.50000000  0.00000000  0.95737000  1.0
  Zr  Zr4  1  0.50000000  0.50000000  0.12373000  1.0
  Zr  Zr5  1  0.50000000  0.50000000  0.95737000  1.0
  In  In6  2  0.50000000  0.24950000  0.04136000  1.0
  In  In7  2  0.50000000  0.25000000  0.87212000  1.0
  In  In8  1  0.00000000  0.00000000  0.13521000  1.0
  In  In9  1  0.00000000  0.00000000  0.95737000  1.0
  In  In10  1  0.00000000  0.50000000  0.13550000  1.0
  In  In11  1  0.00000000  0.50000000  0.95737000  1.0
  Cu  Cu12  4  0.25000000  0.25000000  0.95737000  1.0
  Cu  Cu13  4  0.26330000  0.25036000  0.12986000  1.0
  Cu  Cu14  2  0.24007000  0.00000000  0.04208000  1.0
  Cu  Cu15  2  0.24448000  0.50000000  0.04318000  1.0
  Cu  Cu16  2  0.25000000  0.00000000  0.87212000  1.0
  Cu  Cu17  2  0.25000000  0.50000000  0.87212000  1.0
  C  C18  1  0.50000000  0.00000000  0.20817000  1.0
  O  O19  1  0.50000000  0.00000000  0.25107000  1.0
