# generated using pymatgen
data_Y8Mg8In8Pd8C
_symmetry_space_group_name_H-M   'P 1'
_cell_length_a   9.89420000
_cell_length_b   6.99626000
_cell_length_c   27.42070000
_cell_angle_alpha   90.00000000
_cell_angle_beta   90.00000000
_cell_angle_gamma   90.00000000
_symmetry_Int_Tables_number   1
_chemical_formula_structural   Y8Mg8In8Pd8C
_chemical_formula_sum   'Y8 Mg8 In8 Pd8 C1'
_cell_volume   1898.12654555
_cell_formula_units_Z   1
loop_
 _symmetry_equiv_pos_site_id
 _symmetry_equiv_pos_as_xyz
  1  'x, y, z'
loop_
 _atom_site_type_symbol
 _atom_site_label
 _atom_site_symmetry_multiplicity
 _atom_site_fract_x
 _atom_site_fract_y
 _atom_site_fract_z
 _atom_site_occupancy
  Y  Y0  1  0.75000000  0.75000000  0.04510000  1.0
  Y  Y1  1  0.25000000  0.75000000  0.04510000  1.0
  Y  Y2  1  0.00000000  0.25000000  0.13531000  1.0
  Y  Y3  1  0.50000000  0.25000000  0.13531000  1.0
  Y  Y4  1  0.23389000  0.71939000  0.86228000  1.0
  Y  Y5  1  0.76611000  0.71939000  0.86228000  1.0
  Y  Y6  1  0.50000000  0.26013000  0.95085000  1.0
  Y  Y7  1  0.00000000  0.26302000  0.95115000  1.0
  Mg  Mg8  1  0.75000000  0.25000000  0.04510000  1.0
  Mg  Mg9  1  0.25000000  0.25000000  0.04510000  1.0
  Mg  Mg10  1  0.00000000  0.75000000  0.13531000  1.0
  Mg  Mg11  1  0.50000000  0.75000000  0.13531000  1.0
  Mg  Mg12  1  0.26202000  0.22363000  0.86229000  1.0
  Mg  Mg13  1  0.73798000  0.22363000  0.86229000  1.0
  Mg  Mg14  1  0.50000000  0.73610000  0.95071000  1.0
  Mg  Mg15  1  0.00000000  0.74322000  0.94985000  1.0
  In  In16  1  0.75000000  0.00000000  0.13531000  1.0
  In  In17  1  0.25000000  0.00000000  0.13531000  1.0
  In  In18  1  0.50000000  0.50000000  0.04510000  1.0
  In  In19  1  0.00000000  0.50000000  0.04510000  1.0
  In  In20  1  0.25233000  0.99252000  0.95243000  1.0
  In  In21  1  0.74767000  0.99252000  0.95243000  1.0
  In  In22  1  0.00000000  0.40290000  0.83591000  1.0
  In  In23  1  0.50000000  0.47413000  0.84133000  1.0
  Pd  Pd24  1  0.00000000  0.00000000  0.04510000  1.0
  Pd  Pd25  1  0.50000000  0.00000000  0.04510000  1.0
  Pd  Pd26  1  0.25000000  0.50000000  0.13531000  1.0
  Pd  Pd27  1  0.75000000  0.50000000  0.13531000  1.0
  Pd  Pd28  1  0.50000000  0.99544000  0.87479000  1.0
  Pd  Pd29  1  0.00000000  0.02169000  0.86779000  1.0
  Pd  Pd30  1  0.74493000  0.50321000  0.95859000  1.0
  Pd  Pd31  1  0.25507000  0.50321000  0.95859000  1.0
  C  C32  1  0.00000000  0.70674000  0.86447000  1.0
