# generated using pymatgen
data_Mn3Sb
_symmetry_space_group_name_H-M   Pmm2
_cell_length_a   3.82324500
_cell_length_b   5.40688000
_cell_length_c   24.05520000
_cell_angle_alpha   90.00000000
_cell_angle_beta   90.00000000
_cell_angle_gamma   90.00000000
_symmetry_Int_Tables_number   25
_chemical_formula_structural   Mn3Sb
_chemical_formula_sum   'Mn6 Sb2'
_cell_volume   497.26493106
_cell_formula_units_Z   2
loop_
 _symmetry_equiv_pos_site_id
 _symmetry_equiv_pos_as_xyz
  1  'x, y, z'
  2  '-x, -y, z'
  3  '-x, y, z'
  4  'x, -y, z'
loop_
 _atom_site_type_symbol
 _atom_site_label
 _atom_site_symmetry_multiplicity
 _atom_site_fract_x
 _atom_site_fract_y
 _atom_site_fract_z
 _atom_site_occupancy
  Mn  Mn0  2  0.50000000  0.25000000  0.08429000  1.0
  Mn  Mn1  2  0.50000000  0.25000000  0.97190000  1.0
  Mn  Mn2  1  0.00000000  0.00000000  0.02810000  1.0
  Mn  Mn3  1  0.00000000  0.50000000  0.91571000  1.0
  Sb  Sb4  1  0.00000000  0.00000000  0.91571000  1.0
  Sb  Sb5  1  0.00000000  0.50000000  0.02810000  1.0
