# generated using pymatgen
data_LiGePd2
_symmetry_space_group_name_H-M   Pmm2
_cell_length_a   4.34109500
_cell_length_b   6.13924000
_cell_length_c   26.51160000
_cell_angle_alpha   90.00000000
_cell_angle_beta   90.00000000
_cell_angle_gamma   90.00000000
_symmetry_Int_Tables_number   25
_chemical_formula_structural   LiGePd2
_chemical_formula_sum   'Li4 Ge4 Pd8'
_cell_volume   706.56128968
_cell_formula_units_Z   4
loop_
 _symmetry_equiv_pos_site_id
 _symmetry_equiv_pos_as_xyz
  1  'x, y, z'
  2  '-x, -y, z'
  3  '-x, y, z'
  4  'x, -y, z'
loop_
 _atom_site_type_symbol
 _atom_site_label
 _atom_site_symmetry_multiplicity
 _atom_site_fract_x
 _atom_site_fract_y
 _atom_site_fract_z
 _atom_site_occupancy
  Li  Li0  1  0.00000000  0.00000000  0.12281000  1.0
  Li  Li1  1  0.00000000  0.00000000  0.96174000  1.0
  Li  Li2  1  0.50000000  0.50000000  0.04094000  1.0
  Li  Li3  1  0.50000000  0.50000000  0.86814500  1.0
  Ge  Ge4  1  0.00000000  0.50000000  0.12281000  1.0
  Ge  Ge5  1  0.00000000  0.50000000  0.95801000  1.0
  Ge  Ge6  1  0.50000000  0.00000000  0.04094000  1.0
  Ge  Ge7  1  0.50000000  0.00000000  0.87572000  1.0
  Pd  Pd8  2  0.00000000  0.23311000  0.88346000  1.0
  Pd  Pd9  2  0.00000000  0.25000000  0.04094000  1.0
  Pd  Pd10  2  0.50000000  0.25000000  0.12281000  1.0
  Pd  Pd11  2  0.50000000  0.25009500  0.95923000  1.0
