# generated using pymatgen
data_Li8Ga8Cu8Pd8C
_symmetry_space_group_name_H-M   'P 1'
_cell_length_a   8.52116000
_cell_length_b   6.02537000
_cell_length_c   26.39090000
_cell_angle_alpha   90.00000000
_cell_angle_beta   90.00000000
_cell_angle_gamma   90.00000000
_symmetry_Int_Tables_number   1
_chemical_formula_structural   Li8Ga8Cu8Pd8C
_chemical_formula_sum   'Li8 Ga8 Cu8 Pd8 C1'
_cell_volume   1354.99172170
_cell_formula_units_Z   1
loop_
 _symmetry_equiv_pos_site_id
 _symmetry_equiv_pos_as_xyz
  1  'x, y, z'
loop_
 _atom_site_type_symbol
 _atom_site_label
 _atom_site_symmetry_multiplicity
 _atom_site_fract_x
 _atom_site_fract_y
 _atom_site_fract_z
 _atom_site_occupancy
  Li  Li0  1  0.00000000  0.25000000  0.04036000  1.0
  Li  Li1  1  0.50000000  0.25000000  0.04036000  1.0
  Li  Li2  1  0.25000000  0.75000000  0.12108000  1.0
  Li  Li3  1  0.75000000  0.75000000  0.12108000  1.0
  Li  Li4  1  0.50000000  0.27085000  0.86444000  1.0
  Li  Li5  1  0.00000000  0.23306000  0.83828000  1.0
  Li  Li6  1  0.75015000  0.75224000  0.96075000  1.0
  Li  Li7  1  0.24985000  0.75224000  0.96075000  1.0
  Ga  Ga8  1  0.00000000  0.75000000  0.04036000  1.0
  Ga  Ga9  1  0.50000000  0.75000000  0.04036000  1.0
  Ga  Ga10  1  0.25000000  0.25000000  0.12108000  1.0
  Ga  Ga11  1  0.75000000  0.25000000  0.12108000  1.0
  Ga  Ga12  1  0.50000000  0.74354000  0.87776000  1.0
  Ga  Ga13  1  0.00000000  0.83309000  0.86552000  1.0
  Ga  Ga14  1  0.75072000  0.25439000  0.96144000  1.0
  Ga  Ga15  1  0.24928000  0.25439000  0.96144000  1.0
  Cu  Cu16  1  0.00000000  0.00000000  0.12108000  1.0
  Cu  Cu17  1  0.50000000  1.00000000  0.12108000  1.0
  Cu  Cu18  1  0.75000000  0.50000000  0.04036000  1.0
  Cu  Cu19  1  0.25000000  0.50000000  0.04036000  1.0
  Cu  Cu20  1  0.50000000  0.00653000  0.95869000  1.0
  Cu  Cu21  1  0.00000000  0.00847000  0.95867000  1.0
  Cu  Cu22  1  0.23037000  0.50683000  0.88234000  1.0
  Cu  Cu23  1  0.76963000  0.50683000  0.88234000  1.0
  Pd  Pd24  1  0.25000000  0.00000000  0.04036000  1.0
  Pd  Pd25  1  0.75000000  0.00000000  0.04036000  1.0
  Pd  Pd26  1  0.50000000  0.50000000  0.12108000  1.0
  Pd  Pd27  1  0.00000000  0.50000000  0.12108000  1.0
  Pd  Pd28  1  0.73562000  0.00685000  0.88378000  1.0
  Pd  Pd29  1  0.26438000  0.00685000  0.88378000  1.0
  Pd  Pd30  1  0.00000000  0.50962000  0.95881000  1.0
  Pd  Pd31  1  0.50000000  0.49389000  0.95641000  1.0
  C  C32  1  0.00000000  0.51660000  0.87603000  1.0
