# generated using pymatgen
data_Li8Ga8Cu8Pd8C
_symmetry_space_group_name_H-M   Pm
_cell_length_a   6.02537000
_cell_length_b   8.52116000
_cell_length_c   26.39090000
_cell_angle_alpha   90.00000000
_cell_angle_beta   90.00000000
_cell_angle_gamma   90.00000000
_symmetry_Int_Tables_number   6
_chemical_formula_structural   Li8Ga8Cu8Pd8C
_chemical_formula_sum   'Li8 Ga8 Cu8 Pd8 C1'
_cell_volume   1354.99172170
_cell_formula_units_Z   1
loop_
 _symmetry_equiv_pos_site_id
 _symmetry_equiv_pos_as_xyz
  1  'x, y, z'
  2  'x, -y, z'
loop_
 _atom_site_type_symbol
 _atom_site_label
 _atom_site_symmetry_multiplicity
 _atom_site_fract_x
 _atom_site_fract_y
 _atom_site_fract_z
 _atom_site_occupancy
  Li  Li0  2  0.75000000  0.25000000  0.87892000  1.0
  Li  Li1  2  0.75224000  0.24985000  0.03925000  1.0
  Li  Li2  1  0.23306000  0.00000000  0.16172000  1.0
  Li  Li3  1  0.25000000  0.00000000  0.95964000  1.0
  Li  Li4  1  0.25000000  0.50000000  0.95964000  1.0
  Li  Li5  1  0.27085000  0.50000000  0.13556000  1.0
  Ga  Ga6  2  0.25000000  0.25000000  0.87892000  1.0
  Ga  Ga7  2  0.25439000  0.24928000  0.03856000  1.0
  Ga  Ga8  1  0.74354000  0.50000000  0.12224000  1.0
  Ga  Ga9  1  0.75000000  0.00000000  0.95964000  1.0
  Ga  Ga10  1  0.75000000  0.50000000  0.95964000  1.0
  Ga  Ga11  1  0.83309000  0.00000000  0.13448000  1.0
  Cu  Cu12  2  0.50000000  0.25000000  0.95964000  1.0
  Cu  Cu13  2  0.50683000  0.23037000  0.11766000  1.0
  Cu  Cu14  1  -0.00000000  0.50000000  0.87892000  1.0
  Cu  Cu15  1  0.00000000  0.00000000  0.87892000  1.0
  Cu  Cu16  1  0.00653000  0.50000000  0.04131000  1.0
  Cu  Cu17  1  0.00847000  0.00000000  0.04133000  1.0
  Pd  Pd18  2  0.00000000  0.25000000  0.95964000  1.0
  Pd  Pd19  2  0.00685000  0.26438000  0.11622000  1.0
  Pd  Pd20  1  0.49389000  0.50000000  0.04359000  1.0
  Pd  Pd21  1  0.50000000  0.00000000  0.87892000  1.0
  Pd  Pd22  1  0.50000000  0.50000000  0.87892000  1.0
  Pd  Pd23  1  0.50962000  0.00000000  0.04119000  1.0
  C  C24  1  0.51660000  0.00000000  0.12397000  1.0
