# generated using pymatgen
data_LiGeRh2
_symmetry_space_group_name_H-M   Pmm2
_cell_length_a   5.94410000
_cell_length_b   8.40623000
_cell_length_c   26.30470000
_cell_angle_alpha   90.00000000
_cell_angle_beta   90.00000000
_cell_angle_gamma   90.00000000
_symmetry_Int_Tables_number   25
_chemical_formula_structural   LiGeRh2
_chemical_formula_sum   'Li8 Ge8 Rh16'
_cell_volume   1314.37935396
_cell_formula_units_Z   8
loop_
 _symmetry_equiv_pos_site_id
 _symmetry_equiv_pos_as_xyz
  1  'x, y, z'
  2  '-x, -y, z'
  3  '-x, y, z'
  4  'x, -y, z'
loop_
 _atom_site_type_symbol
 _atom_site_label
 _atom_site_symmetry_multiplicity
 _atom_site_fract_x
 _atom_site_fract_y
 _atom_site_fract_z
 _atom_site_occupancy
  Li  Li0  2  0.50000000  0.24998000  0.13628000  1.0
  Li  Li1  2  0.50000000  0.25000000  0.96005000  1.0
  Li  Li2  1  0.00000000  0.00000000  0.03868000  1.0
  Li  Li3  1  0.00000000  0.00000000  0.88016000  1.0
  Li  Li4  1  0.00000000  0.50000000  0.03869000  1.0
  Li  Li5  1  0.00000000  0.50000000  0.88016000  1.0
  Ge  Ge6  2  0.00000000  0.25000000  0.96005000  1.0
  Ge  Ge7  2  0.00000000  0.25008000  0.11881000  1.0
  Ge  Ge8  1  0.50000000  0.00000000  0.03932000  1.0
  Ge  Ge9  1  0.50000000  0.00000000  0.88016000  1.0
  Ge  Ge10  1  0.50000000  0.50000000  0.03932000  1.0
  Ge  Ge11  1  0.50000000  0.50000000  0.88016000  1.0
  Rh  Rh12  4  0.25000000  0.25000000  0.88016000  1.0
  Rh  Rh13  4  0.25303000  0.24999000  0.03957000  1.0
  Rh  Rh14  2  0.24380000  0.00000000  0.11530000  1.0
  Rh  Rh15  2  0.24389000  0.50000000  0.11531000  1.0
  Rh  Rh16  2  0.25000000  0.00000000  0.96005000  1.0
  Rh  Rh17  2  0.25000000  0.50000000  0.96005000  1.0
