# generated using pymatgen
data_Mn8Ga8Co16CO
_symmetry_space_group_name_H-M   'P 1'
_cell_length_a   5.73361000
_cell_length_b   8.10855000
_cell_length_c   26.08140000
_cell_angle_alpha   90.00000000
_cell_angle_beta   90.00000000
_cell_angle_gamma   90.00000000
_symmetry_Int_Tables_number   1
_chemical_formula_structural   Mn8Ga8Co16CO
_chemical_formula_sum   'Mn8 Ga8 Co16 C1 O1'
_cell_volume   1212.55723634
_cell_formula_units_Z   1
loop_
 _symmetry_equiv_pos_site_id
 _symmetry_equiv_pos_as_xyz
  1  'x, y, z'
loop_
 _atom_site_type_symbol
 _atom_site_label
 _atom_site_symmetry_multiplicity
 _atom_site_fract_x
 _atom_site_fract_y
 _atom_site_fract_z
 _atom_site_occupancy
  Mn  Mn0  1  0.00000000  0.00000000  0.88341000  1.0
  Mn  Mn1  1  0.50000000  0.25000000  0.96114000  1.0
  Mn  Mn2  1  0.50000000  0.75000000  0.96114000  1.0
  Mn  Mn3  1  0.00000000  0.50000000  0.88341000  1.0
  Mn  Mn4  1  0.99999000  0.49995000  0.03924000  1.0
  Mn  Mn5  1  0.49998000  0.74985000  0.11791000  1.0
  Mn  Mn6  1  0.50000000  0.24998000  0.11781000  1.0
  Mn  Mn7  1  0.00000000  0.99995000  0.03925000  1.0
  Ga  Ga8  1  0.00000000  0.75000000  0.96114000  1.0
  Ga  Ga9  1  0.50000000  0.00000000  0.88341000  1.0
  Ga  Ga10  1  0.00000000  0.25000000  0.96114000  1.0
  Ga  Ga11  1  0.50000000  0.50000000  0.88341000  1.0
  Ga  Ga12  1  0.99997000  0.24987000  0.12156000  1.0
  Ga  Ga13  1  0.49999000  0.50001000  0.03926000  1.0
  Ga  Ga14  1  0.99999000  0.74996000  0.12139000  1.0
  Ga  Ga15  1  0.50000000  0.99990000  0.03923000  1.0
  Co  Co16  1  0.25000000  0.00000000  0.96114000  1.0
  Co  Co17  1  0.75000000  0.50000000  0.96114000  1.0
  Co  Co18  1  0.75000000  0.00000000  0.96114000  1.0
  Co  Co19  1  0.25000000  0.50000000  0.96114000  1.0
  Co  Co20  1  0.75000000  0.75000000  0.88341000  1.0
  Co  Co21  1  0.25000000  0.25000000  0.88341000  1.0
  Co  Co22  1  0.25000000  0.75000000  0.88341000  1.0
  Co  Co23  1  0.75000000  0.25000000  0.88341000  1.0
  Co  Co24  1  0.23890000  0.49978000  0.11566000  1.0
  Co  Co25  1  0.76101000  0.00005000  0.11565000  1.0
  Co  Co26  1  0.76109000  0.49979000  0.11567000  1.0
  Co  Co27  1  0.23897000  0.00006000  0.11564000  1.0
  Co  Co28  1  0.75197000  0.24995000  0.03968000  1.0
  Co  Co29  1  0.24839000  0.74994000  0.03970000  1.0
  Co  Co30  1  0.24801000  0.24995000  0.03968000  1.0
  Co  Co31  1  0.75159000  0.74995000  0.03970000  1.0
  C  C32  1  0.00011000  0.25261000  0.27205000  1.0
  O  O33  1  0.99997000  0.24970000  0.31556000  1.0
