# generated using pymatgen
data_Li8In8Cu8Ge8C
_symmetry_space_group_name_H-M   'P 1'
_cell_length_a   6.49386000
_cell_length_b   9.18370000
_cell_length_c   26.88780000
_cell_angle_alpha   90.00000000
_cell_angle_beta   90.00000000
_cell_angle_gamma   90.00000000
_symmetry_Int_Tables_number   1
_chemical_formula_structural   Li8In8Cu8Ge8C
_chemical_formula_sum   'Li8 In8 Cu8 Ge8 C1'
_cell_volume   1603.52553053
_cell_formula_units_Z   1
loop_
 _symmetry_equiv_pos_site_id
 _symmetry_equiv_pos_as_xyz
  1  'x, y, z'
loop_
 _atom_site_type_symbol
 _atom_site_label
 _atom_site_symmetry_multiplicity
 _atom_site_fract_x
 _atom_site_fract_y
 _atom_site_fract_z
 _atom_site_occupancy
  Li  Li0  1  0.00000000  0.25000000  0.95731000  1.0
  Li  Li1  1  0.00000000  0.75000000  0.95731000  1.0
  Li  Li2  1  0.50000000  0.50000000  0.87192000  1.0
  Li  Li3  1  0.50000000  0.00000000  0.87192000  1.0
  Li  Li4  1  0.78677000  0.77210000  0.18760000  1.0
  Li  Li5  1  0.78673000  0.22792000  0.18759000  1.0
  Li  Li6  1  0.41865000  0.99998000  0.05477000  1.0
  Li  Li7  1  0.43798000  0.49998000  0.05411000  1.0
  In  In8  1  0.25000000  0.00000000  0.95731000  1.0
  In  In9  1  0.25000000  0.50000000  0.95731000  1.0
  In  In10  1  0.75000000  0.25000000  0.87192000  1.0
  In  In11  1  0.75000000  0.75000000  0.87192000  1.0
  In  In12  1  0.11064000  0.50001000  0.13877000  1.0
  In  In13  1  0.16087000  0.00000000  0.14780000  1.0
  In  In14  1  0.72622000  0.75004000  0.04861000  1.0
  In  In15  1  0.72622000  0.24991000  0.04861000  1.0
  Cu  Cu16  1  0.00000000  0.00000000  0.87192000  1.0
  Cu  Cu17  1  0.00000000  0.50000000  0.87192000  1.0
  Cu  Cu18  1  0.50000000  0.75000000  0.95731000  1.0
  Cu  Cu19  1  0.50000000  0.25000000  0.95731000  1.0
  Cu  Cu20  1  0.98648000  0.49995000  0.03461000  1.0
  Cu  Cu21  1  0.98927000  0.99997000  0.03418000  1.0
  Cu  Cu22  1  0.43370000  0.26555000  0.12187000  1.0
  Cu  Cu23  1  0.43375000  0.73448000  0.12187000  1.0
  Ge  Ge24  1  0.75000000  0.00000000  0.95731000  1.0
  Ge  Ge25  1  0.75000000  0.50000000  0.95731000  1.0
  Ge  Ge26  1  0.25000000  0.25000000  0.87192000  1.0
  Ge  Ge27  1  0.25000000  0.75000000  0.87192000  1.0
  Ge  Ge28  1  0.58596000  0.50000000  0.15333000  1.0
  Ge  Ge29  1  0.65146000  0.99997000  0.13129000  1.0
  Ge  Ge30  1  0.17401000  0.75005000  0.05312000  1.0
  Ge  Ge31  1  0.17397000  0.24991000  0.05313000  1.0
  C  C32  1  0.85109000  0.99994000  0.18166000  1.0
