# generated using pymatgen
data_Hf8Al8Au16C
_symmetry_space_group_name_H-M   P2
_cell_length_a   6.63475000
_cell_length_b   27.03720000
_cell_length_c   9.38295000
_cell_angle_alpha   90.00000000
_cell_angle_beta   90.00000000
_cell_angle_gamma   90.00000000
_symmetry_Int_Tables_number   3
_chemical_formula_structural   Hf8Al8Au16C
_chemical_formula_sum   'Hf8 Al8 Au16 C1'
_cell_volume   1683.16107406
_cell_formula_units_Z   1
loop_
 _symmetry_equiv_pos_site_id
 _symmetry_equiv_pos_as_xyz
  1  'x, y, z'
  2  '-x, y, -z'
loop_
 _atom_site_type_symbol
 _atom_site_label
 _atom_site_symmetry_multiplicity
 _atom_site_fract_x
 _atom_site_fract_y
 _atom_site_fract_z
 _atom_site_occupancy
  Hf  Hf0  2  0.49996000  0.87659000  0.77026000  1.0
  Hf  Hf1  2  0.50000000  0.04338000  0.25000000  1.0
  Hf  Hf2  1  0.00000000  0.13014000  0.00000000  1.0
  Hf  Hf3  1  0.00000000  0.13014000  0.50000000  1.0
  Hf  Hf4  1  0.00000000  0.94795000  0.00000000  1.0
  Hf  Hf5  1  0.00000000  0.95425000  0.50000000  1.0
  Al  Al6  2  0.00000000  0.04338000  0.25000000  1.0
  Al  Al7  2  0.00002000  0.86899000  0.73659000  1.0
  Al  Al8  1  0.50000000  0.13014000  0.00000000  1.0
  Al  Al9  1  0.50000000  0.13014000  0.50000000  1.0
  Al  Al10  1  0.50000000  0.95477000  0.00000000  1.0
  Al  Al11  1  0.50000000  0.95786000  0.50000000  1.0
  Au  Au12  2  0.19528000  0.85163000  0.00007000  1.0
  Au  Au13  2  0.24461000  0.95885000  0.75290000  1.0
  Au  Au14  2  0.24464000  0.95885000  0.24711000  1.0
  Au  Au15  2  0.25000000  0.04338000  0.00000000  1.0
  Au  Au16  2  0.25000000  0.13014000  0.75000000  1.0
  Au  Au17  2  0.25000000  0.04338000  0.50000000  1.0
  Au  Au18  2  0.25000000  0.13014000  0.25000000  1.0
  Au  Au19  2  0.26303000  0.86899000  0.49999000  1.0
  C  C20  1  0.50000000  0.87779000  0.00000000  1.0
