# generated using pymatgen
data_Hf8In8Ni16C
_symmetry_space_group_name_H-M   'P 1'
_cell_length_a   6.31539000
_cell_length_b   8.93131000
_cell_length_c   26.69850000
_cell_angle_alpha   90.00000000
_cell_angle_beta   90.00000000
_cell_angle_gamma   90.00000000
_symmetry_Int_Tables_number   1
_chemical_formula_structural   Hf8In8Ni16C
_chemical_formula_sum   'Hf8 In8 Ni16 C1'
_cell_volume   1505.92103943
_cell_formula_units_Z   1
loop_
 _symmetry_equiv_pos_site_id
 _symmetry_equiv_pos_as_xyz
  1  'x, y, z'
loop_
 _atom_site_type_symbol
 _atom_site_label
 _atom_site_symmetry_multiplicity
 _atom_site_fract_x
 _atom_site_fract_y
 _atom_site_fract_z
 _atom_site_occupancy
  Hf  Hf0  1  0.00000000  0.00000000  0.87455000  1.0
  Hf  Hf1  1  0.50000000  0.25000000  0.95818000  1.0
  Hf  Hf2  1  0.50000000  0.75000000  0.95818000  1.0
  Hf  Hf3  1  0.00000000  0.50000000  0.87455000  1.0
  Hf  Hf4  1  0.99040000  0.50508000  0.04175000  1.0
  Hf  Hf5  1  0.50674000  0.74998000  0.12297000  1.0
  Hf  Hf6  1  0.56131000  0.24993000  0.12358000  1.0
  Hf  Hf7  1  0.99035000  0.99486000  0.04175000  1.0
  In  In8  1  0.00000000  0.75000000  0.95818000  1.0
  In  In9  1  0.50000000  0.00000000  0.87455000  1.0
  In  In10  1  0.00000000  0.25000000  0.95818000  1.0
  In  In11  1  0.50000000  0.50000000  0.87455000  1.0
  In  In12  1  0.95138000  0.25001000  0.17918000  1.0
  In  In13  1  0.49142000  0.49302000  0.04288000  1.0
  In  In14  1  0.02097000  0.74991000  0.13222000  1.0
  In  In15  1  0.49145000  0.00692000  0.04287000  1.0
  Ni  Ni16  1  0.25000000  0.00000000  0.95818000  1.0
  Ni  Ni17  1  0.75000000  0.50000000  0.95818000  1.0
  Ni  Ni18  1  0.75000000  0.00000000  0.95818000  1.0
  Ni  Ni19  1  0.25000000  0.50000000  0.95818000  1.0
  Ni  Ni20  1  0.75000000  0.75000000  0.87455000  1.0
  Ni  Ni21  1  0.25000000  0.25000000  0.87455000  1.0
  Ni  Ni22  1  0.25000000  0.75000000  0.87455000  1.0
  Ni  Ni23  1  0.75000000  0.25000000  0.87455000  1.0
  Ni  Ni24  1  0.20116000  0.46555000  0.12172000  1.0
  Ni  Ni25  1  0.76326000  0.98966000  0.12245000  1.0
  Ni  Ni26  1  0.76317000  0.51025000  0.12242000  1.0
  Ni  Ni27  1  0.20119000  0.03424000  0.12171000  1.0
  Ni  Ni28  1  0.75636000  0.24998000  0.03972000  1.0
  Ni  Ni29  1  0.26853000  0.74999000  0.04217000  1.0
  Ni  Ni30  1  0.20762000  0.24994000  0.05316000  1.0
  Ni  Ni31  1  0.73430000  0.74996000  0.04408000  1.0
  C  C32  1  0.23442000  0.24986000  0.12742000  1.0
