# generated using pymatgen
data_Li8Cu8Sb8Pd8CO
_symmetry_space_group_name_H-M   Pm
_cell_length_a   6.37250000
_cell_length_b   9.01208000
_cell_length_c   26.75910000
_cell_angle_alpha   90.00000000
_cell_angle_beta   90.00000000
_cell_angle_gamma   90.00000000
_symmetry_Int_Tables_number   6
_chemical_formula_structural   Li8Cu8Sb8Pd8CO
_chemical_formula_sum   'Li8 Cu8 Sb8 Pd8 C1 O1'
_cell_volume   1536.76119292
_cell_formula_units_Z   1
loop_
 _symmetry_equiv_pos_site_id
 _symmetry_equiv_pos_as_xyz
  1  'x, y, z'
  2  'x, -y, z'
loop_
 _atom_site_type_symbol
 _atom_site_label
 _atom_site_symmetry_multiplicity
 _atom_site_fract_x
 _atom_site_fract_y
 _atom_site_fract_z
 _atom_site_occupancy
  Li  Li0  2  0.25000000  0.25000000  0.95790000  1.0
  Li  Li1  2  0.26196000  0.26734000  0.13289000  1.0
  Li  Li2  1  0.75000000  0.00000000  0.87371000  1.0
  Li  Li3  1  0.75000000  0.50000000  0.87371000  1.0
  Li  Li4  1  0.75131000  0.50000000  0.03477000  1.0
  Li  Li5  1  0.77104000  0.00000000  0.04480000  1.0
  Cu  Cu6  2  0.00000000  0.25000000  0.87371000  1.0
  Cu  Cu7  2  0.99056000  0.25054000  0.05124000  1.0
  Cu  Cu8  1  0.50000000  0.00000000  0.95790000  1.0
  Cu  Cu9  1  0.50000000  0.50000000  0.95790000  1.0
  Cu  Cu10  1  0.51071000  0.00000000  0.11760000  1.0
  Cu  Cu11  1  0.54486000  0.50000000  0.11373000  1.0
  Sb  Sb12  2  0.75000000  0.25000000  0.95790000  1.0
  Sb  Sb13  2  0.75153000  0.24099000  0.13469000  1.0
  Sb  Sb14  1  0.24276000  0.00000000  0.04172000  1.0
  Sb  Sb15  1  0.25000000  0.00000000  0.87371000  1.0
  Sb  Sb16  1  0.25000000  0.50000000  0.87371000  1.0
  Sb  Sb17  1  0.25608000  0.50000000  0.04284000  1.0
  Pd  Pd18  2  0.50000000  0.25000000  0.87371000  1.0
  Pd  Pd19  2  0.51435000  0.24665000  0.04734000  1.0
  Pd  Pd20  1  -0.00000000  0.50000000  0.95790000  1.0
  Pd  Pd21  1  -0.00000000  0.00000000  0.95790000  1.0
  Pd  Pd22  1  0.07432000  0.00000000  0.13656000  1.0
  Pd  Pd23  1  0.96682000  0.50000000  0.11528000  1.0
  C  C24  1  0.12522000  0.00000000  0.20796000  1.0
  O  O25  1  0.14951000  0.00000000  0.25063000  1.0
