# generated using pymatgen
data_MnNi2Sb
_symmetry_space_group_name_H-M   'P 1'
_cell_length_a   4.31523000
_cell_length_b   6.10266000
_cell_length_c   26.47280000
_cell_angle_alpha   90.00000000
_cell_angle_beta   90.00000000
_cell_angle_gamma   90.00000000
_symmetry_Int_Tables_number   1
_chemical_formula_structural   MnNi2Sb
_chemical_formula_sum   'Mn4 Ni8 Sb4'
_cell_volume   697.14481489
_cell_formula_units_Z   4
loop_
 _symmetry_equiv_pos_site_id
 _symmetry_equiv_pos_as_xyz
  1  'x, y, z'
loop_
 _atom_site_type_symbol
 _atom_site_label
 _atom_site_symmetry_multiplicity
 _atom_site_fract_x
 _atom_site_fract_y
 _atom_site_fract_z
 _atom_site_occupancy
  Mn  Mn0  1  0.00000000  0.00000000  0.12225000  1.0
  Mn  Mn1  1  0.50000000  0.50000000  0.04075000  1.0
  Mn  Mn2  1  0.00000000  0.00000000  0.95988000  1.0
  Mn  Mn3  1  0.50000000  0.50000000  0.87576000  1.0
  Ni  Ni4  1  0.00000000  0.75000000  0.04075000  1.0
  Ni  Ni5  1  0.00000000  0.25000000  0.04075000  1.0
  Ni  Ni6  1  0.50000000  0.25000000  0.12225000  1.0
  Ni  Ni7  1  0.50000000  0.75000000  0.12225000  1.0
  Ni  Ni8  1  0.00000000  0.75234000  0.88444000  1.0
  Ni  Ni9  1  0.00000000  0.24766000  0.88444000  1.0
  Ni  Ni10  1  0.50000000  0.23700000  0.95620000  1.0
  Ni  Ni11  1  0.50000000  0.76300000  0.95620000  1.0
  Sb  Sb12  1  0.50000000  0.00000000  0.04075000  1.0
  Sb  Sb13  1  0.00000000  0.50000000  0.12225000  1.0
  Sb  Sb14  1  0.50000000  0.00000000  0.86819500  1.0
  Sb  Sb15  1  0.00000000  0.50000000  0.96037000  1.0
