# generated using pymatgen
data_Li8In8Pd8Ru8CO
_symmetry_space_group_name_H-M   P1
_cell_length_a   6.32045000
_cell_length_b   8.93846000
_cell_length_c   26.70380000
_cell_angle_alpha   90.00000000
_cell_angle_beta   90.00000000
_cell_angle_gamma   90.00000000
_symmetry_Int_Tables_number   1
_chemical_formula_structural   Li8In8Pd8Ru8CO
_chemical_formula_sum   'Li8 In8 Pd8 Ru8 C1 O1'
_cell_volume   1508.63357118
_cell_formula_units_Z   1
loop_
 _symmetry_equiv_pos_site_id
 _symmetry_equiv_pos_as_xyz
  1  'x, y, z'
loop_
 _atom_site_type_symbol
 _atom_site_label
 _atom_site_symmetry_multiplicity
 _atom_site_fract_x
 _atom_site_fract_y
 _atom_site_fract_z
 _atom_site_occupancy
  Li  Li0  1  0.00000000  0.25000000  0.95816000  1.0
  Li  Li1  1  0.00000000  0.75000000  0.95816000  1.0
  Li  Li2  1  0.49543000  0.49955000  0.04086000  1.0
  Li  Li3  1  0.49550000  0.00043000  0.04089000  1.0
  Li  Li4  1  0.50000000  0.00000000  0.87448000  1.0
  Li  Li5  1  0.50000000  0.50000000  0.87448000  1.0
  Li  Li6  1  0.98945000  0.25006000  0.13131000  1.0
  Li  Li7  1  0.99271000  0.74995000  0.13342000  1.0
  In  In8  1  0.00000000  0.00000000  0.87448000  1.0
  In  In9  1  0.00000000  0.50000000  0.87448000  1.0
  In  In10  1  0.48500000  0.75004000  0.13405000  1.0
  In  In11  1  0.48832000  0.24996000  0.12999000  1.0
  In  In12  1  0.50000000  0.25000000  0.95816000  1.0
  In  In13  1  0.50000000  0.75000000  0.95816000  1.0
  In  In14  1  0.99791000  0.99872000  0.04037000  1.0
  In  In15  1  0.99794000  0.50127000  0.04039000  1.0
  Pd  Pd16  1  0.24786000  0.24999000  0.04196000  1.0
  Ru  Ru17  1  0.25000000  0.00000000  0.95816000  1.0
  Pd  Pd18  1  0.25000000  0.25000000  0.87448000  1.0
  Ru  Ru19  1  0.25000000  0.50000000  0.95816000  1.0
  Pd  Pd20  1  0.25000000  0.75000000  0.87448000  1.0
  Ru  Ru21  1  0.25011000  0.99903000  0.12119000  1.0
  Ru  Ru22  1  0.25032000  0.50099000  0.12117000  1.0
  Pd  Pd23  1  0.25281000  0.75000000  0.04303000  1.0
  Pd  Pd24  1  0.73891000  0.50251000  0.12070000  1.0
  Pd  Pd25  1  0.73919000  0.99750000  0.12073000  1.0
  Ru  Ru26  1  0.74229000  0.74998000  0.04634000  1.0
  Ru  Ru27  1  0.74648000  0.25001000  0.04475000  1.0
  Pd  Pd28  1  0.75000000  0.00000000  0.95816000  1.0
  Ru  Ru29  1  0.75000000  0.25000000  0.87448000  1.0
  Pd  Pd30  1  0.75000000  0.50000000  0.95816000  1.0
  Ru  Ru31  1  0.75000000  0.75000000  0.87448000  1.0
  C  C32  1  0.00720000  0.24997000  0.20992000  1.0
  O  O33  1  0.02587000  0.24993000  0.25242000  1.0
