# generated using pymatgen
data_Li8Mg8Ga8Pt8C
_symmetry_space_group_name_H-M   Pm
_cell_length_a   6.26200000
_cell_length_b   8.85580000
_cell_length_c   26.64190000
_cell_angle_alpha   90.00000000
_cell_angle_beta   90.00000000
_cell_angle_gamma   90.00000000
_symmetry_Int_Tables_number   6
_chemical_formula_structural   Li8Mg8Ga8Pt8C
_chemical_formula_sum   'Li8 Mg8 Ga8 Pt8 C1'
_cell_volume   1477.42708668
_cell_formula_units_Z   1
loop_
 _symmetry_equiv_pos_site_id
 _symmetry_equiv_pos_as_xyz
  1  'x, y, z'
  2  'x, -y, z'
loop_
 _atom_site_type_symbol
 _atom_site_label
 _atom_site_symmetry_multiplicity
 _atom_site_fract_x
 _atom_site_fract_y
 _atom_site_fract_z
 _atom_site_occupancy
  Li  Li0  2  0.75000000  0.25000000  0.87535000  1.0
  Li  Li1  2  0.75044000  0.24874000  0.04482000  1.0
  Li  Li2  1  0.22000000  0.00000000  0.16686000  1.0
  Li  Li3  1  0.25000000  0.00000000  0.95845000  1.0
  Li  Li4  1  0.25000000  0.50000000  0.95845000  1.0
  Li  Li5  1  0.34432000  0.50000000  0.15811000  1.0
  Mg  Mg6  2  0.00000000  0.25000000  0.95845000  1.0
  Mg  Mg7  2  0.02113000  0.27118000  0.12743000  1.0
  Mg  Mg8  1  0.47976000  0.00000000  0.05002000  1.0
  Mg  Mg9  1  0.49018000  0.50000000  0.04353000  1.0
  Mg  Mg10  1  0.50000000  0.00000000  0.87535000  1.0
  Mg  Mg11  1  0.50000000  0.50000000  0.87535000  1.0
  Ga  Ga12  2  0.50000000  0.25000000  0.95845000  1.0
  Ga  Ga13  2  0.50427000  0.23496000  0.13650000  1.0
  Ga  Ga14  1  0.00000000  0.00000000  0.87535000  1.0
  Ga  Ga15  1  0.00000000  0.50000000  0.87535000  1.0
  Ga  Ga16  1  0.01963000  0.00000000  0.03796000  1.0
  Ga  Ga17  1  0.99991000  0.50000000  0.04405000  1.0
  Pt  Pt18  2  0.24664000  0.25549000  0.03720000  1.0
  Pt  Pt19  2  0.25000000  0.25000000  0.87535000  1.0
  Pt  Pt20  1  0.74185000  0.50000000  0.12073000  1.0
  Pt  Pt21  1  0.75000000  0.00000000  0.95845000  1.0
  Pt  Pt22  1  0.75000000  0.50000000  0.95845000  1.0
  Pt  Pt23  1  0.82997000  0.00000000  0.11944000  1.0
  C  C24  1  0.52239000  0.00000000  0.13737000  1.0
