data_image0
_chemical_formula_structural       Ti8Co16Ge8C
_chemical_formula_sum              "Ti8 Co16 Ge8 C1"
_cell_length_a       5.88044
_cell_length_b       8.3162
_cell_length_c       26.2371
_cell_angle_alpha    90
_cell_angle_beta     90
_cell_angle_gamma    90

_space_group_name_H-M_alt    "P 1"
_space_group_IT_number       1

loop_
  _space_group_symop_operation_xyz
  'x, y, z'

loop_
  _atom_site_type_symbol
  _atom_site_label
  _atom_site_symmetry_multiplicity
  _atom_site_fract_x
  _atom_site_fract_y
  _atom_site_fract_z
  _atom_site_occupancy
  Ti  Ti1       1.0  0.00000  0.00000  0.88114  1.0000
  Ti  Ti2       1.0  0.50000  0.25000  0.96038  1.0000
  Ti  Ti3       1.0  0.50000  0.75000  0.96038  1.0000
  Ti  Ti4       1.0  0.00000  0.50000  0.88114  1.0000
  Ti  Ti5       1.0  1.00000  0.50000  0.03807  1.0000
  Ti  Ti6       1.0  0.50001  0.74608  0.11959  1.0000
  Ti  Ti7       1.0  0.50001  0.25392  0.11959  1.0000
  Ti  Ti8       1.0  0.00000  1.00000  0.04231  1.0000
  Co  Co1       1.0  0.25000  0.00000  0.96038  1.0000
  Co  Co2       1.0  0.75000  0.50000  0.96038  1.0000
  Co  Co3       1.0  0.75000  0.00000  0.96038  1.0000
  Co  Co4       1.0  0.25000  0.50000  0.96038  1.0000
  Co  Co5       1.0  0.75000  0.75000  0.88114  1.0000
  Co  Co6       1.0  0.25000  0.25000  0.88114  1.0000
  Co  Co7       1.0  0.25000  0.75000  0.88114  1.0000
  Co  Co8       1.0  0.75000  0.25000  0.88114  1.0000
  Co  Co9       1.0  0.24349  0.50000  0.11249  1.0000
  Co  Co10      1.0  0.71726  1.00000  0.11576  1.0000
  Co  Co11      1.0  0.75653  0.50000  0.11249  1.0000
  Co  Co12      1.0  0.28273  0.00000  0.11576  1.0000
  Co  Co13      1.0  0.74818  0.24987  0.04015  1.0000
  Co  Co14      1.0  0.25183  0.75013  0.04015  1.0000
  Co  Co15      1.0  0.25183  0.24987  0.04015  1.0000
  Co  Co16      1.0  0.74818  0.75014  0.04015  1.0000
  Ge  Ge1       1.0  0.00000  0.75000  0.96038  1.0000
  Ge  Ge2       1.0  0.50000  0.00000  0.88114  1.0000
  Ge  Ge3       1.0  0.00000  0.25000  0.96038  1.0000
  Ge  Ge4       1.0  0.50000  0.50000  0.88114  1.0000
  Ge  Ge5       1.0  0.00001  0.26219  0.12056  1.0000
  Ge  Ge6       1.0  0.50000  0.50000  0.03910  1.0000
  Ge  Ge7       1.0  0.00001  0.73781  0.12056  1.0000
  Ge  Ge8       1.0  0.50000  0.00000  0.03709  1.0000
  C   C1        1.0  0.99999  0.00000  0.13546  1.0000
