# generated using pymatgen
data_Sc8Co16Sn8CO
_symmetry_space_group_name_H-M   'P 1'
_cell_length_a   8.80931000
_cell_length_b   6.22913000
_cell_length_c   26.60700000
_cell_angle_alpha   90.00000000
_cell_angle_beta   90.00000000
_cell_angle_gamma   90.00000000
_symmetry_Int_Tables_number   1
_chemical_formula_structural   Sc8Co16Sn8CO
_chemical_formula_sum   'Sc8 Co16 Sn8 C1 O1'
_cell_volume   1460.04148989
_cell_formula_units_Z   1
loop_
 _symmetry_equiv_pos_site_id
 _symmetry_equiv_pos_as_xyz
  1  'x, y, z'
loop_
 _atom_site_type_symbol
 _atom_site_label
 _atom_site_symmetry_multiplicity
 _atom_site_fract_x
 _atom_site_fract_y
 _atom_site_fract_z
 _atom_site_occupancy
  Sc  Sc0  1  0.00000000  0.00000000  0.12416000  1.0
  Sc  Sc1  1  0.25000000  0.50000000  0.04139000  1.0
  Sc  Sc2  1  0.75000000  0.50000000  0.04139000  1.0
  Sc  Sc3  1  0.50000000  0.00000000  0.12416000  1.0
  Sc  Sc4  1  0.50000000  0.00032000  0.95777000  1.0
  Sc  Sc5  1  0.74935000  0.49857000  0.87484000  1.0
  Sc  Sc6  1  0.25065000  0.49857000  0.87484000  1.0
  Sc  Sc7  1  0.00000000  0.99774000  0.95854000  1.0
  Co  Co8  1  0.00000000  0.25000000  0.04139000  1.0
  Co  Co9  1  0.50000000  0.75000000  0.04139000  1.0
  Co  Co10  1  0.00000000  0.75000000  0.04139000  1.0
  Co  Co11  1  0.50000000  0.25000000  0.04139000  1.0
  Co  Co12  1  0.75000000  0.75000000  0.12416000  1.0
  Co  Co13  1  0.25000000  0.25000000  0.12416000  1.0
  Co  Co14  1  0.75000000  0.25000000  0.12416000  1.0
  Co  Co15  1  0.25000000  0.75000000  0.12416000  1.0
  Co  Co16  1  0.50000000  0.24446000  0.87835000  1.0
  Co  Co17  1  0.00000000  0.75554000  0.87815000  1.0
  Co  Co18  1  0.50000000  0.75557000  0.87785000  1.0
  Co  Co19  1  0.00000000  0.24855000  0.87144000  1.0
  Co  Co20  1  0.24998000  0.74768000  0.95833000  1.0
  Co  Co21  1  0.75108000  0.25101000  0.95791000  1.0
  Co  Co22  1  0.24892000  0.25101000  0.95791000  1.0
  Co  Co23  1  0.75002000  0.74768000  0.95833000  1.0
  Sn  Sn24  1  0.75000000  0.00000000  0.04139000  1.0
  Sn  Sn25  1  0.00000000  0.50000000  0.12416000  1.0
  Sn  Sn26  1  0.25000000  0.00000000  0.04139000  1.0
  Sn  Sn27  1  0.50000000  0.50000000  0.12416000  1.0
  Sn  Sn28  1  0.25167000  0.99876000  0.87450000  1.0
  Sn  Sn29  1  0.50000000  0.49977000  0.95760000  1.0
  Sn  Sn30  1  0.74833000  0.99876000  0.87450000  1.0
  Sn  Sn31  1  0.00000000  0.49953000  0.95814000  1.0
  C  C32  1  0.00000000  0.25788000  0.80699000  1.0
  O  O33  1  0.00000000  0.24862000  0.76357000  1.0
