data_image0
_chemical_formula_structural       Li4In4Pd4Au4C
_chemical_formula_sum              "Li4 In4 Pd4 Au4 C1"
_cell_length_a       5.60636
_cell_length_b       8.89782
_cell_length_c       24.1854
_cell_angle_alpha    90
_cell_angle_beta     90
_cell_angle_gamma    90

_space_group_name_H-M_alt    "P 1"
_space_group_IT_number       1

loop_
  _space_group_symop_operation_xyz
  'x, y, z'

loop_
  _atom_site_type_symbol
  _atom_site_label
  _atom_site_symmetry_multiplicity
  _atom_site_fract_x
  _atom_site_fract_y
  _atom_site_fract_z
  _atom_site_occupancy
  Li  Li1       1.0  0.50000  0.00000  0.91347  1.0000
  Li  Li2       1.0  0.95209  0.00000  0.02884  1.0000
  Li  Li3       1.0  0.50000  0.50000  0.91347  1.0000
  Li  Li4       1.0  0.95209  0.50000  0.02884  1.0000
  In  In1       1.0  0.22604  0.25000  0.97116  1.0000
  In  In2       1.0  0.67813  0.25000  0.08653  1.0000
  In  In3       1.0  0.22604  0.75000  0.97116  1.0000
  In  In4       1.0  0.67813  0.75000  0.08653  1.0000
  Pd  Pd1       1.0  0.72604  0.25000  0.97116  1.0000
  Pd  Pd2       1.0  0.17813  0.25000  0.08653  1.0000
  Pd  Pd3       1.0  0.72604  0.75000  0.97116  1.0000
  Pd  Pd4       1.0  0.17813  0.75000  0.08653  1.0000
  Au  Au1       1.0  0.00000  0.00000  0.91347  1.0000
  Au  Au2       1.0  0.45209  0.00000  0.02884  1.0000
  Au  Au3       1.0  0.00000  0.50000  0.91347  1.0000
  Au  Au4       1.0  0.45209  0.50000  0.02884  1.0000
  C   C1        1.0  0.95209  0.00000  0.11961  1.0000
