# generated using pymatgen
data_Li4In4Pd4Au4C
_symmetry_space_group_name_H-M   Pm
_cell_length_a   5.60636000
_cell_length_b   8.89782000
_cell_length_c   24.18540000
_cell_angle_alpha   90.00000000
_cell_angle_beta   90.00000000
_cell_angle_gamma   90.00000000
_symmetry_Int_Tables_number   6
_chemical_formula_structural   Li4In4Pd4Au4C
_chemical_formula_sum   'Li4 In4 Pd4 Au4 C1'
_cell_volume   1206.47373569
_cell_formula_units_Z   1
loop_
 _symmetry_equiv_pos_site_id
 _symmetry_equiv_pos_as_xyz
  1  'x, y, z'
  2  'x, -y, z'
loop_
 _atom_site_type_symbol
 _atom_site_label
 _atom_site_symmetry_multiplicity
 _atom_site_fract_x
 _atom_site_fract_y
 _atom_site_fract_z
 _atom_site_occupancy
  Li  Li0  1  0.50000000  0.00000000  0.91347000  1.0
  Li  Li1  1  0.50000000  0.50000000  0.91347000  1.0
  Li  Li2  1  0.85329000  0.50000000  0.02156000  1.0
  Li  Li3  1  0.90285000  0.00000000  0.01767000  1.0
  In  In4  2  0.22604000  0.25000000  0.97116000  1.0
  In  In5  2  0.60988000  0.25937000  0.09363000  1.0
  Pd  Pd6  2  0.09134000  0.20917000  0.08220000  1.0
  Pd  Pd7  2  0.72604000  0.25000000  0.97116000  1.0
  Au  Au8  1  0.00000000  0.00000000  0.91347000  1.0
  Au  Au9  1  0.00000000  0.50000000  0.91347000  1.0
  Au  Au10  1  0.30705000  0.50000000  0.05729000  1.0
  Au  Au11  1  0.44783000  0.00000000  0.02956000  1.0
  C  C12  1  0.08968000  0.00000000  0.09965000  1.0
