# generated using pymatgen
data_Li4Y4Ga4Pd4CO
_symmetry_space_group_name_H-M   'P 1'
_cell_length_a   6.61884000
_cell_length_b   6.61884000
_cell_length_c   24.96410000
_cell_angle_alpha   90.00000000
_cell_angle_beta   90.00000000
_cell_angle_gamma   90.00000000
_symmetry_Int_Tables_number   1
_chemical_formula_structural   Li4Y4Ga4Pd4CO
_chemical_formula_sum   'Li4 Y4 Ga4 Pd4 C1 O1'
_cell_volume   1093.65332900
_cell_formula_units_Z   1
loop_
 _symmetry_equiv_pos_site_id
 _symmetry_equiv_pos_as_xyz
  1  'x, y, z'
loop_
 _atom_site_type_symbol
 _atom_site_label
 _atom_site_symmetry_multiplicity
 _atom_site_fract_x
 _atom_site_fract_y
 _atom_site_fract_z
 _atom_site_occupancy
  Li  Li0  1  0.25000000  0.75000000  0.96686000  1.0
  Li  Li1  1  0.25491000  0.24695000  0.12346000  1.0
  Li  Li2  1  0.74523000  0.75364000  0.12414000  1.0
  Li  Li3  1  0.75000000  0.25000000  0.96686000  1.0
  Y  Y4  1  1.00000000  0.50000000  0.90057000  1.0
  Y  Y5  1  0.00046000  0.00046000  0.03306000  1.0
  Y  Y6  1  0.49964000  0.49965000  0.03290000  1.0
  Y  Y7  1  0.50000000  0.00000000  0.90057000  1.0
  Ga  Ga8  1  0.00000000  0.00000000  0.90057000  1.0
  Ga  Ga9  1  0.99977000  0.50024000  0.03597000  1.0
  Ga  Ga10  1  0.50050000  0.99953000  0.03578000  1.0
  Ga  Ga11  1  0.50000000  0.50000000  0.90057000  1.0
  Pd  Pd12  1  0.75000000  0.75000000  0.96686000  1.0
  Pd  Pd13  1  0.74976000  0.24967000  0.09190000  1.0
  Pd  Pd14  1  0.25039000  0.75012000  0.09189000  1.0
  Pd  Pd15  1  0.25000000  0.25000000  0.96686000  1.0
  C  C16  1  0.74750000  0.75214000  0.20882000  1.0
  O  O17  1  0.75007000  0.74990000  0.25444000  1.0
