data_image0
_chemical_formula_structural       Li4Ca4Ge4Pd4C
_chemical_formula_sum              "Li4 Ca4 Ge4 Pd4 C1"
_cell_length_a       6.62107
_cell_length_b       6.62107
_cell_length_c       24.9658
_cell_angle_alpha    90
_cell_angle_beta     90
_cell_angle_gamma    90

_space_group_name_H-M_alt    "P 1"
_space_group_IT_number       1

loop_
  _space_group_symop_operation_xyz
  'x, y, z'

loop_
  _atom_site_type_symbol
  _atom_site_label
  _atom_site_symmetry_multiplicity
  _atom_site_fract_x
  _atom_site_fract_y
  _atom_site_fract_z
  _atom_site_occupancy
  Li  Li1       1.0  0.75000  0.25000  0.96685  1.0000
  Li  Li2       1.0  0.77883  0.77879  0.12720  1.0000
  Li  Li3       1.0  0.22106  0.22109  0.12719  1.0000
  Li  Li4       1.0  0.25000  0.75000  0.96685  1.0000
  Ca  Ca1       1.0  0.00000  0.00000  0.90055  1.0000
  Ca  Ca2       1.0  0.00000  0.50002  0.03755  1.0000
  Ca  Ca3       1.0  0.50002  1.00000  0.03755  1.0000
  Ca  Ca4       1.0  0.50000  0.50000  0.90055  1.0000
  Ge  Ge1       1.0  0.00000  0.50000  0.90055  1.0000
  Ge  Ge2       1.0  0.00000  0.00000  0.02302  1.0000
  Ge  Ge3       1.0  0.50000  0.49999  0.06415  1.0000
  Ge  Ge4       1.0  0.50000  0.00000  0.90055  1.0000
  Pd  Pd1       1.0  0.25000  0.25000  0.96685  1.0000
  Pd  Pd2       1.0  0.22749  0.77252  0.09778  1.0000
  Pd  Pd3       1.0  0.77254  0.22749  0.09778  1.0000
  Pd  Pd4       1.0  0.75000  0.75000  0.96685  1.0000
  C   C1        1.0  0.99988  0.99988  0.10126  1.0000
