# generated using pymatgen
data_Ti16Ag16C
_symmetry_space_group_name_H-M   'P 1'
_cell_length_a   8.03191000
_cell_length_b   8.69556000
_cell_length_c   26.02390000
_cell_angle_alpha   90.00000000
_cell_angle_beta   90.00000000
_cell_angle_gamma   90.00000000
_symmetry_Int_Tables_number   1
_chemical_formula_structural   Ti16Ag16C
_chemical_formula_sum   'Ti16 Ag16 C1'
_cell_volume   1817.56006104
_cell_formula_units_Z   1
loop_
 _symmetry_equiv_pos_site_id
 _symmetry_equiv_pos_as_xyz
  1  'x, y, z'
loop_
 _atom_site_type_symbol
 _atom_site_label
 _atom_site_symmetry_multiplicity
 _atom_site_fract_x
 _atom_site_fract_y
 _atom_site_fract_z
 _atom_site_occupancy
  Ti  Ti0  1  0.00000000  0.00000000  0.88426000  1.0
  Ti  Ti1  1  0.75000000  0.00000000  0.96142000  1.0
  Ti  Ti2  1  0.00000000  0.00000000  0.03858000  1.0
  Ti  Ti3  1  0.75000000  0.00000000  0.11574000  1.0
  Ti  Ti4  1  0.00000000  0.50000000  0.88426000  1.0
  Ti  Ti5  1  0.75000000  0.50000000  0.96142000  1.0
  Ti  Ti6  1  0.00000000  0.50000000  0.03858000  1.0
  Ti  Ti7  1  0.75000000  0.50000000  0.11574000  1.0
  Ti  Ti8  1  0.50000000  0.00000000  0.88426000  1.0
  Ti  Ti9  1  0.25000000  0.00000000  0.96142000  1.0
  Ti  Ti10  1  0.50000000  0.00000000  0.03858000  1.0
  Ti  Ti11  1  0.25000000  0.00000000  0.11574000  1.0
  Ti  Ti12  1  0.50000000  0.50000000  0.88426000  1.0
  Ti  Ti13  1  0.25000000  0.50000000  0.96142000  1.0
  Ti  Ti14  1  0.50000000  0.50000000  0.03858000  1.0
  Ti  Ti15  1  0.25000000  0.50000000  0.11574000  1.0
  Ag  Ag16  1  0.75000000  0.75000000  0.88426000  1.0
  Ag  Ag17  1  0.00000000  0.75000000  0.96142000  1.0
  Ag  Ag18  1  0.75000000  0.75000000  0.03858000  1.0
  Ag  Ag19  1  0.00000000  0.75000000  0.11574000  1.0
  Ag  Ag20  1  0.75000000  0.25000000  0.88426000  1.0
  Ag  Ag21  1  0.00000000  0.25000000  0.96142000  1.0
  Ag  Ag22  1  0.75000000  0.25000000  0.03858000  1.0
  Ag  Ag23  1  0.00000000  0.25000000  0.11574000  1.0
  Ag  Ag24  1  0.25000000  0.75000000  0.88426000  1.0
  Ag  Ag25  1  0.50000000  0.75000000  0.96142000  1.0
  Ag  Ag26  1  0.25000000  0.75000000  0.03858000  1.0
  Ag  Ag27  1  0.50000000  0.75000000  0.11574000  1.0
  Ag  Ag28  1  0.25000000  0.25000000  0.88426000  1.0
  Ag  Ag29  1  0.50000000  0.25000000  0.96142000  1.0
  Ag  Ag30  1  0.25000000  0.25000000  0.03858000  1.0
  Ag  Ag31  1  0.50000000  0.25000000  0.11574000  1.0
  C  C32  1  0.00000000  0.00000000  0.14648000  1.0
