# generated using pymatgen
data_Sc8Cu8Ge8Pd8C
_symmetry_space_group_name_H-M   'P 1'
_cell_length_a   6.33395000
_cell_length_b   8.95756000
_cell_length_c   26.71820000
_cell_angle_alpha   90.00000000
_cell_angle_beta   90.00000000
_cell_angle_gamma   90.00000000
_symmetry_Int_Tables_number   1
_chemical_formula_structural   Sc8Cu8Ge8Pd8C
_chemical_formula_sum   'Sc8 Cu8 Ge8 Pd8 C1'
_cell_volume   1515.90349084
_cell_formula_units_Z   1
loop_
 _symmetry_equiv_pos_site_id
 _symmetry_equiv_pos_as_xyz
  1  'x, y, z'
loop_
 _atom_site_type_symbol
 _atom_site_label
 _atom_site_symmetry_multiplicity
 _atom_site_fract_x
 _atom_site_fract_y
 _atom_site_fract_z
 _atom_site_occupancy
  Sc  Sc0  1  0.25000000  0.00000000  0.95809000  1.0
  Sc  Sc1  1  0.25000000  0.50000000  0.95809000  1.0
  Sc  Sc2  1  0.75000000  0.75000000  0.87428000  1.0
  Sc  Sc3  1  0.75000000  0.25000000  0.87428000  1.0
  Sc  Sc4  1  0.30468000  0.49998000  0.13226000  1.0
  Sc  Sc5  1  0.26060000  0.99997000  0.12058000  1.0
  Sc  Sc6  1  0.75466000  0.26173000  0.04349000  1.0
  Sc  Sc7  1  0.75466000  0.73829000  0.04350000  1.0
  Cu  Cu8  1  0.00000000  0.00000000  0.87428000  1.0
  Cu  Cu9  1  0.00000000  0.50000000  0.87428000  1.0
  Cu  Cu10  1  0.50000000  0.25000000  0.95809000  1.0
  Cu  Cu11  1  0.50000000  0.75000000  0.95809000  1.0
  Cu  Cu12  1  0.04271000  0.50000000  0.05185000  1.0
  Cu  Cu13  1  0.98205000  0.00001000  0.04081000  1.0
  Cu  Cu14  1  0.56914000  0.76831000  0.13916000  1.0
  Cu  Cu15  1  0.56915000  0.23159000  0.13915000  1.0
  Ge  Ge16  1  0.75000000  0.00000000  0.95809000  1.0
  Ge  Ge17  1  0.75000000  0.50000000  0.95809000  1.0
  Ge  Ge18  1  0.25000000  0.75000000  0.87428000  1.0
  Ge  Ge19  1  0.25000000  0.25000000  0.87428000  1.0
  Ge  Ge20  1  0.74361000  0.49998000  0.12607000  1.0
  Ge  Ge21  1  0.86879000  0.99999000  0.14911000  1.0
  Ge  Ge22  1  0.25234000  0.24283000  0.04174000  1.0
  Ge  Ge23  1  0.25232000  0.75717000  0.04174000  1.0
  Pd  Pd24  1  1.00000000  0.75000000  0.95809000  1.0
  Pd  Pd25  1  1.00000000  0.25000000  0.95809000  1.0
  Pd  Pd26  1  0.50000000  0.50000000  0.87428000  1.0
  Pd  Pd27  1  0.50000000  0.00000000  0.87428000  1.0
  Pd  Pd28  1  0.01644000  0.26729000  0.12372000  1.0
  Pd  Pd29  1  0.01644000  0.73267000  0.12373000  1.0
  Pd  Pd30  1  0.54212000  0.00001000  0.04411000  1.0
  Pd  Pd31  1  0.48889000  0.50001000  0.04015000  1.0
  C  C32  1  0.57856000  0.99993000  0.13532000  1.0
