# generated using pymatgen
data_Sc8Cu8Ge8Pd8C
_symmetry_space_group_name_H-M   P1
_cell_length_a   6.33395000
_cell_length_b   8.95756000
_cell_length_c   26.71820000
_cell_angle_alpha   90.00000000
_cell_angle_beta   90.00000000
_cell_angle_gamma   90.00000000
_symmetry_Int_Tables_number   1
_chemical_formula_structural   Sc8Cu8Ge8Pd8C
_chemical_formula_sum   'Sc8 Cu8 Ge8 Pd8 C1'
_cell_volume   1515.90349084
_cell_formula_units_Z   1
loop_
 _symmetry_equiv_pos_site_id
 _symmetry_equiv_pos_as_xyz
  1  'x, y, z'
loop_
 _atom_site_type_symbol
 _atom_site_label
 _atom_site_symmetry_multiplicity
 _atom_site_fract_x
 _atom_site_fract_y
 _atom_site_fract_z
 _atom_site_occupancy
  Sc  Sc0  1  0.24534000  0.26171000  0.04350000  1.0
  Sc  Sc1  1  0.24534000  0.73827000  0.04349000  1.0
  Sc  Sc2  1  0.25000000  0.25000000  0.87428000  1.0
  Sc  Sc3  1  0.25000000  0.75000000  0.87428000  1.0
  Sc  Sc4  1  0.69532000  0.50002000  0.13226000  1.0
  Sc  Sc5  1  0.73940000  0.00003000  0.12058000  1.0
  Sc  Sc6  1  0.75000000  0.00000000  0.95809000  1.0
  Sc  Sc7  1  0.75000000  0.50000000  0.95809000  1.0
  Cu  Cu8  1  0.00000000  0.00000000  0.87428000  1.0
  Cu  Cu9  1  0.00000000  0.50000000  0.87428000  1.0
  Cu  Cu10  1  0.01795000  0.99999000  0.04081000  1.0
  Cu  Cu11  1  0.43085000  0.76841000  0.13915000  1.0
  Cu  Cu12  1  0.43086000  0.23169000  0.13916000  1.0
  Cu  Cu13  1  0.50000000  0.25000000  0.95809000  1.0
  Cu  Cu14  1  0.50000000  0.75000000  0.95809000  1.0
  Cu  Cu15  1  0.95729000  0.50000000  0.05185000  1.0
  Ge  Ge16  1  0.13121000  0.00001000  0.14911000  1.0
  Ge  Ge17  1  0.25000000  0.00000000  0.95809000  1.0
  Ge  Ge18  1  0.25000000  0.50000000  0.95809000  1.0
  Ge  Ge19  1  0.25639000  0.50002000  0.12607000  1.0
  Ge  Ge20  1  0.74766000  0.75717000  0.04174000  1.0
  Ge  Ge21  1  0.74768000  0.24283000  0.04174000  1.0
  Ge  Ge22  1  0.75000000  0.25000000  0.87428000  1.0
  Ge  Ge23  1  0.75000000  0.75000000  0.87428000  1.0
  Pd  Pd24  1  0.00000000  0.25000000  0.95809000  1.0
  Pd  Pd25  1  0.00000000  0.75000000  0.95809000  1.0
  Pd  Pd26  1  0.45788000  0.99999000  0.04411000  1.0
  Pd  Pd27  1  0.50000000  0.00000000  0.87428000  1.0
  Pd  Pd28  1  0.50000000  0.50000000  0.87428000  1.0
  Pd  Pd29  1  0.51111000  0.49999000  0.04015000  1.0
  Pd  Pd30  1  0.98356000  0.26733000  0.12373000  1.0
  Pd  Pd31  1  0.98356000  0.73271000  0.12372000  1.0
  C  C32  1  0.42144000  0.00007000  0.13532000  1.0
