# generated using pymatgen
data_Sc8In8Pd16CO
_symmetry_space_group_name_H-M   Pmm2
_cell_length_a   6.63475000
_cell_length_b   9.38295000
_cell_length_c   27.03720000
_cell_angle_alpha   90.00000000
_cell_angle_beta   90.00000000
_cell_angle_gamma   90.00000000
_symmetry_Int_Tables_number   25
_chemical_formula_structural   Sc8In8Pd16CO
_chemical_formula_sum   'Sc8 In8 Pd16 C1 O1'
_cell_volume   1683.16107406
_cell_formula_units_Z   1
loop_
 _symmetry_equiv_pos_site_id
 _symmetry_equiv_pos_as_xyz
  1  'x, y, z'
  2  '-x, -y, z'
  3  '-x, y, z'
  4  'x, -y, z'
loop_
 _atom_site_type_symbol
 _atom_site_label
 _atom_site_symmetry_multiplicity
 _atom_site_fract_x
 _atom_site_fract_y
 _atom_site_fract_z
 _atom_site_occupancy
  Sc  Sc0  2  0.00000000  0.24986000  0.04464000  1.0
  Sc  Sc1  2  0.00000000  0.25000000  0.86986000  1.0
  Sc  Sc2  1  0.50000000  0.00000000  0.12620000  1.0
  Sc  Sc3  1  0.50000000  0.00000000  0.95662000  1.0
  Sc  Sc4  1  0.50000000  0.50000000  0.12591000  1.0
  Sc  Sc5  1  0.50000000  0.50000000  0.95662000  1.0
  In  In6  2  0.50000000  0.24980000  0.04331000  1.0
  In  In7  2  0.50000000  0.25000000  0.86986000  1.0
  In  In8  1  0.00000000  0.00000000  0.13587000  1.0
  In  In9  1  0.00000000  0.00000000  0.95662000  1.0
  In  In10  1  0.00000000  0.50000000  0.13606000  1.0
  In  In11  1  0.00000000  0.50000000  0.95662000  1.0
  Pd  Pd12  4  0.24191000  0.25141000  0.12550000  1.0
  Pd  Pd13  4  0.25000000  0.25000000  0.95662000  1.0
  Pd  Pd14  2  0.24623000  0.00000000  0.04325000  1.0
  Pd  Pd15  2  0.24718000  0.50000000  0.04396000  1.0
  Pd  Pd16  2  0.25000000  0.50000000  0.86986000  1.0
  Pd  Pd17  2  0.25000000  0.00000000  0.86986000  1.0
  C  C18  1  0.50000000  0.00000000  0.21274000  1.0
  O  O19  1  0.50000000  0.00000000  0.25509000  1.0
