# generated using pymatgen
data_LiAlInCu
_symmetry_space_group_name_H-M   'P 1'
_cell_length_a   4.50757238
_cell_length_b   4.50757238
_cell_length_c   24.78100000
_cell_angle_alpha   90.00000000
_cell_angle_beta   90.00000000
_cell_angle_gamma   90.00000000
_symmetry_Int_Tables_number   1
_chemical_formula_structural   LiAlInCu
_chemical_formula_sum   'Li2 Al2 In2 Cu2'
_cell_volume   503.50553238
_cell_formula_units_Z   2
loop_
 _symmetry_equiv_pos_site_id
 _symmetry_equiv_pos_as_xyz
  1  'x, y, z'
loop_
 _atom_site_type_symbol
 _atom_site_label
 _atom_site_symmetry_multiplicity
 _atom_site_fract_x
 _atom_site_fract_y
 _atom_site_fract_z
 _atom_site_occupancy
  Li  Li0  1  0.00000000  0.50000000  0.96784000  1.0
  Li  Li1  1  0.50000000  0.00000000  0.09647000  1.0
  Al  Al2  1  0.00000000  0.00000000  0.90353000  1.0
  Al  Al3  1  0.50000000  0.50000000  0.03216000  1.0
  In  In4  1  0.50000000  0.50000000  0.90353000  1.0
  In  In5  1  0.00000000  0.00000000  0.03216000  1.0
  Cu  Cu6  1  0.50000000  0.00000000  0.96784000  1.0
  Cu  Cu7  1  0.00000000  0.50000000  0.09647000  1.0
