# generated using pymatgen
data_Ta8Al8Ni16C
_symmetry_space_group_name_H-M   'P 1'
_cell_length_a   5.99379000
_cell_length_b   8.47650000
_cell_length_c   26.35740000
_cell_angle_alpha   90.00000000
_cell_angle_beta   90.00000000
_cell_angle_gamma   90.00000000
_symmetry_Int_Tables_number   1
_chemical_formula_structural   Ta8Al8Ni16C
_chemical_formula_sum   'Ta8 Al8 Ni16 C1'
_cell_volume   1339.12357771
_cell_formula_units_Z   1
loop_
 _symmetry_equiv_pos_site_id
 _symmetry_equiv_pos_as_xyz
  1  'x, y, z'
loop_
 _atom_site_type_symbol
 _atom_site_label
 _atom_site_symmetry_multiplicity
 _atom_site_fract_x
 _atom_site_fract_y
 _atom_site_fract_z
 _atom_site_occupancy
  Ta  Ta0  1  0.00000000  0.00000000  0.87940000  1.0
  Ta  Ta1  1  0.50000000  0.25000000  0.95980000  1.0
  Ta  Ta2  1  0.50000000  0.75000000  0.95980000  1.0
  Ta  Ta3  1  0.00000000  0.50000000  0.87940000  1.0
  Ta  Ta4  1  0.99850000  0.50687000  0.04371000  1.0
  Ta  Ta5  1  0.45549000  0.74998000  0.11951000  1.0
  Ta  Ta6  1  0.49825000  0.25000000  0.11414000  1.0
  Ta  Ta7  1  0.99846000  0.99318000  0.04372000  1.0
  Al  Al8  1  0.00000000  0.75000000  0.95980000  1.0
  Al  Al9  1  0.50000000  0.00000000  0.87940000  1.0
  Al  Al10  1  0.00000000  0.25000000  0.95980000  1.0
  Al  Al11  1  0.50000000  0.50000000  0.87940000  1.0
  Al  Al12  1  0.94584000  0.24999000  0.12602000  1.0
  Al  Al13  1  0.49188000  0.49642000  0.03958000  1.0
  Al  Al14  1  0.98415000  0.75001000  0.12344000  1.0
  Al  Al15  1  0.49192000  0.00356000  0.03958000  1.0
  Ni  Ni16  1  0.25000000  0.00000000  0.95980000  1.0
  Ni  Ni17  1  0.75000000  0.50000000  0.95980000  1.0
  Ni  Ni18  1  0.75000000  0.00000000  0.95980000  1.0
  Ni  Ni19  1  0.25000000  0.50000000  0.95980000  1.0
  Ni  Ni20  1  0.75000000  0.75000000  0.87940000  1.0
  Ni  Ni21  1  0.25000000  0.25000000  0.87940000  1.0
  Ni  Ni22  1  0.25000000  0.75000000  0.87940000  1.0
  Ni  Ni23  1  0.75000000  0.25000000  0.87940000  1.0
  Ni  Ni24  1  0.21716000  0.48802000  0.12839000  1.0
  Ni  Ni25  1  0.72274000  0.99034000  0.11617000  1.0
  Ni  Ni26  1  0.72286000  0.50961000  0.11614000  1.0
  Ni  Ni27  1  0.21721000  0.01199000  0.12841000  1.0
  Ni  Ni28  1  0.77665000  0.25007000  0.03511000  1.0
  Ni  Ni29  1  0.26212000  0.75000000  0.03650000  1.0
  Ni  Ni30  1  0.22967000  0.24998000  0.03728000  1.0
  Ni  Ni31  1  0.72451000  0.74996000  0.04554000  1.0
  C  C32  1  0.23339000  0.25004000  0.15671000  1.0
