# generated using pymatgen
data_Cu4Sn4Rh8CO
_symmetry_space_group_name_H-M   'P 1'
_cell_length_a   6.25984000
_cell_length_b   6.25984000
_cell_length_c   24.69490000
_cell_angle_alpha   90.00000000
_cell_angle_beta   90.00000000
_cell_angle_gamma   90.00000000
_symmetry_Int_Tables_number   1
_chemical_formula_structural   Cu4Sn4Rh8CO
_chemical_formula_sum   'Cu4 Sn4 Rh8 C1 O1'
_cell_volume   967.68439505
_cell_formula_units_Z   1
loop_
 _symmetry_equiv_pos_site_id
 _symmetry_equiv_pos_as_xyz
  1  'x, y, z'
loop_
 _atom_site_type_symbol
 _atom_site_label
 _atom_site_symmetry_multiplicity
 _atom_site_fract_x
 _atom_site_fract_y
 _atom_site_fract_z
 _atom_site_occupancy
  Cu  Cu0  1  0.75000000  0.25000000  0.90494000  1
  Cu  Cu1  1  0.25000000  0.75000000  0.90494000  1
  Cu  Cu2  1  0.75000000  0.75000000  0.03169000  1
  Cu  Cu3  1  0.25000000  0.25000000  0.03169000  1
  Sn  Sn4  1  0.75000000  0.25000000  0.03169000  1
  Sn  Sn5  1  0.75000000  0.75000000  0.90494000  1
  Sn  Sn6  1  0.25000000  0.25000000  0.90494000  1
  Sn  Sn7  1  0.25000000  0.75000000  0.03169000  1
  Rh  Rh8  1  0.50000000  0.50000000  0.96831000  1
  Rh  Rh9  1  0.00000000  0.00000000  0.09506000  1
  Rh  Rh10  1  0.50000000  0.00000000  0.96831000  1
  Rh  Rh11  1  0.00000000  0.50000000  0.09506000  1
  Rh  Rh12  1  0.00000000  0.00000000  0.96831000  1
  Rh  Rh13  1  0.50000000  0.50000000  0.09506000  1
  Rh  Rh14  1  0.00000000  0.50000000  0.96831000  1
  Rh  Rh15  1  0.50000000  0.00000000  0.09506000  1
  C  C16  1  0.50000000  0.50000000  0.17200000  1
  O  O17  1  0.50000000  0.50000000  0.21857000  1
