# generated using pymatgen
data_Mg4Ni12CO
_symmetry_space_group_name_H-M   'P 1'
_cell_length_a   5.20259000
_cell_length_b   7.35757000
_cell_length_c   23.90190000
_cell_angle_alpha   90.00000000
_cell_angle_beta   90.00000000
_cell_angle_gamma   90.00000000
_symmetry_Int_Tables_number   1
_chemical_formula_structural   Mg4Ni12CO
_chemical_formula_sum   'Mg4 Ni12 C1 O1'
_cell_volume   914.92696954
_cell_formula_units_Z   1
loop_
 _symmetry_equiv_pos_site_id
 _symmetry_equiv_pos_as_xyz
  1  'x, y, z'
loop_
 _atom_site_type_symbol
 _atom_site_label
 _atom_site_symmetry_multiplicity
 _atom_site_fract_x
 _atom_site_fract_y
 _atom_site_fract_z
 _atom_site_occupancy
  Mg  Mg0  1  0.00000000  0.00000000  0.08162000  1.0
  Mg  Mg1  1  0.50019000  0.00152000  0.96953000  1.0
  Mg  Mg2  1  0.00000000  0.50000000  0.08162000  1.0
  Mg  Mg3  1  0.50016000  0.49949000  0.97045000  1.0
  Ni  Ni4  1  0.50000000  1.00000000  0.08162000  1.0
  Ni  Ni5  1  0.25000000  0.75000000  0.02721000  1.0
  Ni  Ni6  1  0.75000000  0.75000000  0.02721000  1.0
  Ni  Ni7  1  0.99871000  0.99397000  0.96987000  1.0
  Ni  Ni8  1  0.72816000  0.74855000  0.91376000  1.0
  Ni  Ni9  1  0.21741000  0.74807000  0.92189000  1.0
  Ni  Ni10  1  0.50000000  0.50000000  0.08162000  1.0
  Ni  Ni11  1  0.25000000  0.25000000  0.02721000  1.0
  Ni  Ni12  1  0.75000000  0.25000000  0.02721000  1.0
  Ni  Ni13  1  0.99792000  0.50758000  0.97054000  1.0
  Ni  Ni14  1  0.78945000  0.25316000  0.92406000  1.0
  Ni  Ni15  1  0.25547000  0.25244000  0.92060000  1.0
  C  C16  1  0.50230000  0.74931000  0.85668000  1.0
  O  O17  1  0.42919000  0.74947000  0.81066000  1.0
