data_image0
_chemical_formula_structural       Mg8Ni16Sn8C
_chemical_formula_sum              "Mg8 Ni16 Sn8 C1"
_cell_length_a       6.22749
_cell_length_b       8.807
_cell_length_c       26.6053
_cell_angle_alpha    90
_cell_angle_beta     90
_cell_angle_gamma    90

_space_group_name_H-M_alt    "P 1"
_space_group_IT_number       1

loop_
  _space_group_symop_operation_xyz
  'x, y, z'

loop_
  _atom_site_type_symbol
  _atom_site_label
  _atom_site_symmetry_multiplicity
  _atom_site_fract_x
  _atom_site_fract_y
  _atom_site_fract_z
  _atom_site_occupancy
  Mg  Mg1       1.0  0.00000  0.00000  0.87587  1.0000
  Mg  Mg2       1.0  0.50000  0.25000  0.95862  1.0000
  Mg  Mg3       1.0  0.50000  0.75000  0.95862  1.0000
  Mg  Mg4       1.0  0.00000  0.50000  0.87587  1.0000
  Mg  Mg5       1.0  1.00000  0.49999  0.03844  1.0000
  Mg  Mg6       1.0  0.50000  0.74024  0.13172  1.0000
  Mg  Mg7       1.0  0.50000  0.25978  0.13172  1.0000
  Mg  Mg8       1.0  0.00001  0.99999  0.04429  1.0000
  Ni  Ni1       1.0  0.25000  0.00000  0.95862  1.0000
  Ni  Ni2       1.0  0.75000  0.50000  0.95862  1.0000
  Ni  Ni3       1.0  0.75000  0.00000  0.95862  1.0000
  Ni  Ni4       1.0  0.25000  0.50000  0.95862  1.0000
  Ni  Ni5       1.0  0.75000  0.75000  0.87587  1.0000
  Ni  Ni6       1.0  0.25000  0.25000  0.87587  1.0000
  Ni  Ni7       1.0  0.25000  0.75000  0.87587  1.0000
  Ni  Ni8       1.0  0.75000  0.25000  0.87587  1.0000
  Ni  Ni9       1.0  0.24455  0.50003  0.11693  1.0000
  Ni  Ni10      1.0  0.71524  0.99999  0.12223  1.0000
  Ni  Ni11      1.0  0.75545  0.50003  0.11693  1.0000
  Ni  Ni12      1.0  0.28477  0.00000  0.12223  1.0000
  Ni  Ni13      1.0  0.75128  0.25304  0.04344  1.0000
  Ni  Ni14      1.0  0.24872  0.74695  0.04344  1.0000
  Ni  Ni15      1.0  0.24874  0.25305  0.04344  1.0000
  Ni  Ni16      1.0  0.75130  0.74695  0.04344  1.0000
  Sn  Sn1       1.0  0.00000  0.75000  0.95862  1.0000
  Sn  Sn2       1.0  0.50000  0.00000  0.87587  1.0000
  Sn  Sn3       1.0  0.00000  0.25000  0.95862  1.0000
  Sn  Sn4       1.0  0.50000  0.50000  0.87587  1.0000
  Sn  Sn5       1.0  0.00000  0.26178  0.13099  1.0000
  Sn  Sn6       1.0  0.50000  0.50000  0.04017  1.0000
  Sn  Sn7       1.0  1.00000  0.73826  0.13099  1.0000
  Sn  Sn8       1.0  0.50000  0.99999  0.03937  1.0000
  C   C1        1.0  0.00000  0.00001  0.13461  1.0000
