# generated using pymatgen
data_Li8Mg8In8Sn8C
_symmetry_space_group_name_H-M   'P 1'
_cell_length_a   9.92662000
_cell_length_b   7.01918000
_cell_length_c   27.44500000
_cell_angle_alpha   90.00000000
_cell_angle_beta   90.00000000
_cell_angle_gamma   90.00000000
_symmetry_Int_Tables_number   1
_chemical_formula_structural   Li8Mg8In8Sn8C
_chemical_formula_sum   'Li8 Mg8 In8 Sn8 C1'
_cell_volume   1912.27792543
_cell_formula_units_Z   1
loop_
 _symmetry_equiv_pos_site_id
 _symmetry_equiv_pos_as_xyz
  1  'x, y, z'
loop_
 _atom_site_type_symbol
 _atom_site_label
 _atom_site_symmetry_multiplicity
 _atom_site_fract_x
 _atom_site_fract_y
 _atom_site_fract_z
 _atom_site_occupancy
  Li  Li0  1  0.00000000  0.75000000  0.04521000  1.0
  Li  Li1  1  0.50000000  0.75000000  0.04521000  1.0
  Li  Li2  1  0.25000000  0.25000000  0.13563000  1.0
  Li  Li3  1  0.75000000  0.25000000  0.13563000  1.0
  Li  Li4  1  0.50000000  0.76935000  0.86340000  1.0
  Li  Li5  1  0.00000000  0.71312000  0.85963000  1.0
  Li  Li6  1  0.75187000  0.25029000  0.95243000  1.0
  Li  Li7  1  0.24813000  0.25029000  0.95243000  1.0
  Mg  Mg8  1  0.00000000  0.25000000  0.04521000  1.0
  Mg  Mg9  1  0.50000000  0.25000000  0.04521000  1.0
  Mg  Mg10  1  0.25000000  0.75000000  0.13563000  1.0
  Mg  Mg11  1  0.75000000  0.75000000  0.13563000  1.0
  Mg  Mg12  1  0.50000000  0.22435000  0.85133000  1.0
  Mg  Mg13  1  0.00000000  0.30494000  0.85053000  1.0
  Mg  Mg14  1  0.74596000  0.74964000  0.95158000  1.0
  Mg  Mg15  1  0.25404000  0.74964000  0.95158000  1.0
  In  In16  1  0.00000000  0.00000000  0.13563000  1.0
  In  In17  1  0.50000000  0.00000000  0.13563000  1.0
  In  In18  1  0.75000000  0.50000000  0.04521000  1.0
  In  In19  1  0.25000000  0.50000000  0.04521000  1.0
  In  In20  1  0.50000000  0.01565000  0.95089000  1.0
  In  In21  1  0.00000000  0.00963000  0.94442000  1.0
  In  In22  1  0.26732000  0.50722000  0.85268000  1.0
  In  In23  1  0.73268000  0.50722000  0.85268000  1.0
  Sn  Sn24  1  0.25000000  0.00000000  0.04521000  1.0
  Sn  Sn25  1  0.75000000  0.00000000  0.04521000  1.0
  Sn  Sn26  1  0.50000000  0.50000000  0.13563000  1.0
  Sn  Sn27  1  0.00000000  0.50000000  0.13563000  1.0
  Sn  Sn28  1  0.77173000  0.97508000  0.85332000  1.0
  Sn  Sn29  1  0.22827000  0.97508000  0.85332000  1.0
  Sn  Sn30  1  0.00000000  0.49938000  0.95202000  1.0
  Sn  Sn31  1  0.50000000  0.48280000  0.94623000  1.0
  C  C32  1  0.00000000  0.00512000  0.85686000  1.0
