# generated using pymatgen
data_Li8Mg8In8Sn8C
_symmetry_space_group_name_H-M   Pm
_cell_length_a   7.01918000
_cell_length_b   9.92662000
_cell_length_c   27.44500000
_cell_angle_alpha   90.00000000
_cell_angle_beta   90.00000000
_cell_angle_gamma   90.00000000
_symmetry_Int_Tables_number   6
_chemical_formula_structural   Li8Mg8In8Sn8C
_chemical_formula_sum   'Li8 Mg8 In8 Sn8 C1'
_cell_volume   1912.27792543
_cell_formula_units_Z   1
loop_
 _symmetry_equiv_pos_site_id
 _symmetry_equiv_pos_as_xyz
  1  'x, y, z'
  2  'x, -y, z'
loop_
 _atom_site_type_symbol
 _atom_site_label
 _atom_site_symmetry_multiplicity
 _atom_site_fract_x
 _atom_site_fract_y
 _atom_site_fract_z
 _atom_site_occupancy
  Li  Li0  2  0.25000000  0.25000000  0.86437000  1.0
  Li  Li1  2  0.25029000  0.24813000  0.04757000  1.0
  Li  Li2  1  0.71312000  0.00000000  0.14037000  1.0
  Li  Li3  1  0.75000000  0.00000000  0.95479000  1.0
  Li  Li4  1  0.75000000  0.50000000  0.95479000  1.0
  Li  Li5  1  0.76935000  0.50000000  0.13660000  1.0
  Mg  Mg6  2  0.74964000  0.25404000  0.04842000  1.0
  Mg  Mg7  2  0.75000000  0.25000000  0.86437000  1.0
  Mg  Mg8  1  0.22435000  0.50000000  0.14867000  1.0
  Mg  Mg9  1  0.25000000  0.00000000  0.95479000  1.0
  Mg  Mg10  1  0.25000000  0.50000000  0.95479000  1.0
  Mg  Mg11  1  0.30494000  0.00000000  0.14947000  1.0
  In  In12  2  0.50000000  0.25000000  0.95479000  1.0
  In  In13  2  0.50722000  0.26732000  0.14732000  1.0
  In  In14  1  0.00000000  0.00000000  0.86437000  1.0
  In  In15  1  0.00000000  0.50000000  0.86437000  1.0
  In  In16  1  0.00963000  0.00000000  0.05558000  1.0
  In  In17  1  0.01565000  0.50000000  0.04911000  1.0
  Sn  Sn18  2  0.00000000  0.25000000  0.95479000  1.0
  Sn  Sn19  2  0.97508000  0.22827000  0.14668000  1.0
  Sn  Sn20  1  0.48280000  0.50000000  0.05377000  1.0
  Sn  Sn21  1  0.49938000  0.00000000  0.04798000  1.0
  Sn  Sn22  1  0.50000000  0.00000000  0.86437000  1.0
  Sn  Sn23  1  0.50000000  0.50000000  0.86437000  1.0
  C  C24  1  0.00512000  0.00000000  0.14314000  1.0
