data_image0
_chemical_formula_structural       Al4Fe4Co8CO
_chemical_formula_sum              "Al4 Fe4 Co8 C1 O1"
_cell_length_a       5.71826
_cell_length_b       5.71826
_cell_length_c       24.2887
_cell_angle_alpha    90
_cell_angle_beta     90
_cell_angle_gamma    90

_space_group_name_H-M_alt    "P 1"
_space_group_IT_number       1

loop_
  _space_group_symop_operation_xyz
  'x, y, z'

loop_
  _atom_site_type_symbol
  _atom_site_label
  _atom_site_symmetry_multiplicity
  _atom_site_fract_x
  _atom_site_fract_y
  _atom_site_fract_z
  _atom_site_occupancy
  Al  Al1       1.0  0.00001  1.00000  0.08876  1.0000
  Al  Al2       1.0  0.50000  0.49999  0.08876  1.0000
  Al  Al3       1.0  0.50000  0.00000  0.97057  1.0000
  Al  Al4       1.0  0.00000  0.50000  0.97057  1.0000
  Fe  Fe1       1.0  0.00000  0.00000  0.97057  1.0000
  Fe  Fe2       1.0  0.49998  0.00002  0.08355  1.0000
  Fe  Fe3       1.0  0.00001  0.49999  0.09360  1.0000
  Fe  Fe4       1.0  0.50000  0.50000  0.97057  1.0000
  Co  Co1       1.0  0.24955  0.25042  0.03216  1.0000
  Co  Co2       1.0  0.75000  0.75000  0.91171  1.0000
  Co  Co3       1.0  0.75045  0.25042  0.03216  1.0000
  Co  Co4       1.0  0.25000  0.75000  0.91171  1.0000
  Co  Co5       1.0  0.75045  0.74958  0.03216  1.0000
  Co  Co6       1.0  0.25000  0.25000  0.91171  1.0000
  Co  Co7       1.0  0.24955  0.74958  0.03216  1.0000
  Co  Co8       1.0  0.75000  0.25000  0.91171  1.0000
  C   C1        1.0  1.00000  0.50000  0.16817  1.0000
  O   O1        1.0  1.00000  0.49999  0.21614  1.0000
