# generated using pymatgen
data_Al4Fe4Co8CO
_symmetry_space_group_name_H-M   P4mm
_cell_length_a   5.71826000
_cell_length_b   5.71826000
_cell_length_c   24.28870000
_cell_angle_alpha   90.00000000
_cell_angle_beta   90.00000000
_cell_angle_gamma   90.00000000
_symmetry_Int_Tables_number   99
_chemical_formula_structural   Al4Fe4Co8CO
_chemical_formula_sum   'Al4 Fe4 Co8 C1 O1'
_cell_volume   794.20399447
_cell_formula_units_Z   1
loop_
 _symmetry_equiv_pos_site_id
 _symmetry_equiv_pos_as_xyz
  1  'x, y, z'
  2  '-y, x, z'
  3  '-x, -y, z'
  4  'y, -x, z'
  5  '-x, y, z'
  6  'y, x, z'
  7  'x, -y, z'
  8  '-y, -x, z'
loop_
 _atom_site_type_symbol
 _atom_site_label
 _atom_site_symmetry_multiplicity
 _atom_site_fract_x
 _atom_site_fract_y
 _atom_site_fract_z
 _atom_site_occupancy
  Al  Al0  2  0.00000000  0.50000000  0.08876000  1.0
  Al  Al1  1  0.00000000  0.00000000  0.97057000  1.0
  Al  Al2  1  0.50000000  0.50000000  0.97057000  1.0
  Fe  Fe3  2  0.00000000  0.50000000  0.97057000  1.0
  Fe  Fe4  1  0.00000000  0.00000000  0.09360000  1.0
  Fe  Fe5  1  0.50000000  0.50000000  0.08355000  1.0
  Co  Co6  4  0.24956500  0.24956500  0.03216000  1.0
  Co  Co7  4  0.25000000  0.25000000  0.91171000  1.0
  C  C8  1  0.00000000  0.00000000  0.16817000  1.0
  O  O9  1  0.00000000  0.00000000  0.21614000  1.0
