# generated using pymatgen
data_Li4Mg4Ge4Pd4CO
_symmetry_space_group_name_H-M   Cm
_cell_length_a   8.85075659
_cell_length_b   8.85075659
_cell_length_c   24.69380000
_cell_angle_alpha   90.00000000
_cell_angle_beta   90.00000000
_cell_angle_gamma   90.00000000
_symmetry_Int_Tables_number   8
_chemical_formula_structural   Li4Mg4Ge4Pd4CO
_chemical_formula_sum   'Li8 Mg8 Ge8 Pd8 C2 O2'
_cell_volume   1934.41085307
_cell_formula_units_Z   2
loop_
 _symmetry_equiv_pos_site_id
 _symmetry_equiv_pos_as_xyz
  1  'x, y, z'
  2  'x, -y, z'
  3  'x+1/2, y+1/2, z'
  4  'x+1/2, -y+1/2, z'
loop_
 _atom_site_type_symbol
 _atom_site_label
 _atom_site_symmetry_multiplicity
 _atom_site_fract_x
 _atom_site_fract_y
 _atom_site_fract_z
 _atom_site_occupancy
  Li  Li0  4  0.00110000  0.24903000  0.11401000  1.0
  Li  Li1  2  0.25000000  0.00000000  0.96832000  1.0
  Li  Li2  2  0.25000000  0.50000000  0.96832000  1.0
  Mg  Mg3  4  0.25000000  0.25000000  0.90496000  1.0
  Mg  Mg4  2  0.00624500  0.00000000  0.03249000  1.0
  Mg  Mg5  2  0.49354500  0.00000000  0.03289000  1.0
  Ge  Ge6  4  0.25015000  0.24248000  0.03772000  1.0
  Ge  Ge7  2  0.00000000  0.00000000  0.90496000  1.0
  Ge  Ge8  2  0.00000000  0.50000000  0.90496000  1.0
  Pd  Pd9  4  0.00000000  0.25000000  0.96832000  1.0
  Pd  Pd10  2  0.24924000  0.00000000  0.10177000  1.0
  Pd  Pd11  2  0.25013000  0.50000000  0.08631000  1.0
  C  C12  2  0.24806000  0.00000000  0.18081000  1.0
  O  O13  2  0.24843000  0.00000000  0.22775000  1.0
