# generated using pymatgen
data_Mn16Al8V8C
_symmetry_space_group_name_H-M   'P 1'
_cell_length_a   5.82937000
_cell_length_b   8.24397000
_cell_length_c   26.18300000
_cell_angle_alpha   90.00000000
_cell_angle_beta   90.00000000
_cell_angle_gamma   90.00000000
_symmetry_Int_Tables_number   1
_chemical_formula_structural   Mn16Al8V8C
_chemical_formula_sum   'Mn16 Al8 V8 C1'
_cell_volume   1258.28039508
_cell_formula_units_Z   1
loop_
 _symmetry_equiv_pos_site_id
 _symmetry_equiv_pos_as_xyz
  1  'x, y, z'
loop_
 _atom_site_type_symbol
 _atom_site_label
 _atom_site_symmetry_multiplicity
 _atom_site_fract_x
 _atom_site_fract_y
 _atom_site_fract_z
 _atom_site_occupancy
  Mn  Mn0  1  0.25000000  0.00000000  0.96064000  1.0
  Mn  Mn1  1  0.75000000  0.50000000  0.96064000  1.0
  Mn  Mn2  1  0.75000000  0.00000000  0.96064000  1.0
  Mn  Mn3  1  0.25000000  0.50000000  0.96064000  1.0
  Mn  Mn4  1  0.75000000  0.75000000  0.88193000  1.0
  Mn  Mn5  1  0.25000000  0.25000000  0.88193000  1.0
  Mn  Mn6  1  0.25000000  0.75000000  0.88193000  1.0
  Mn  Mn7  1  0.75000000  0.25000000  0.88193000  1.0
  Mn  Mn8  1  0.23576000  0.50000000  0.12185000  1.0
  Mn  Mn9  1  0.71249000  0.00000000  0.11612000  1.0
  Mn  Mn10  1  0.76424000  0.50000000  0.12185000  1.0
  Mn  Mn11  1  0.28751000  0.00000000  0.11612000  1.0
  Mn  Mn12  1  0.74633000  0.24952000  0.04140000  1.0
  Mn  Mn13  1  0.25367000  0.75048000  0.04140000  1.0
  Mn  Mn14  1  0.25367000  0.24952000  0.04140000  1.0
  Mn  Mn15  1  0.74633000  0.75048000  0.04140000  1.0
  Al  Al16  1  0.00000000  0.00000000  0.88193000  1.0
  Al  Al17  1  0.50000000  0.25000000  0.96064000  1.0
  Al  Al18  1  0.50000000  0.75000000  0.96064000  1.0
  Al  Al19  1  0.00000000  0.50000000  0.88193000  1.0
  Al  Al20  1  0.00000000  0.50000000  0.03982000  1.0
  Al  Al21  1  0.50000000  0.74142000  0.12579000  1.0
  Al  Al22  1  0.50000000  0.25858000  0.12579000  1.0
  Al  Al23  1  0.00000000  0.00000000  0.03990000  1.0
  V  V24  1  0.00000000  0.75000000  0.96064000  1.0
  V  V25  1  0.50000000  0.00000000  0.88193000  1.0
  V  V26  1  0.00000000  0.25000000  0.96064000  1.0
  V  V27  1  0.50000000  0.50000000  0.88193000  1.0
  V  V28  1  0.00000000  0.24424000  0.11600000  1.0
  V  V29  1  0.50000000  0.50000000  0.04107000  1.0
  V  V30  1  0.00000000  0.75576000  0.11600000  1.0
  V  V31  1  0.50000000  0.00000000  0.03660000  1.0
  C  C32  1  0.00000000  0.00000000  0.14212000  1.0
