# generated using pymatgen
data_Li32C
_symmetry_space_group_name_H-M   P4mm
_cell_length_a   8.54633000
_cell_length_b   8.54633000
_cell_length_c   26.40970000
_cell_angle_alpha   90.00000000
_cell_angle_beta   90.00000000
_cell_angle_gamma   90.00000000
_symmetry_Int_Tables_number   99
_chemical_formula_structural   Li32C
_chemical_formula_sum   'Li32 C1'
_cell_volume   1928.95805642
_cell_formula_units_Z   1
loop_
 _symmetry_equiv_pos_site_id
 _symmetry_equiv_pos_as_xyz
  1  'x, y, z'
  2  '-y, x, z'
  3  '-x, -y, z'
  4  'y, -x, z'
  5  '-x, y, z'
  6  'y, x, z'
  7  'x, -y, z'
  8  '-y, -x, z'
loop_
 _atom_site_type_symbol
 _atom_site_label
 _atom_site_symmetry_multiplicity
 _atom_site_fract_x
 _atom_site_fract_y
 _atom_site_fract_z
 _atom_site_occupancy
  Li  Li0  4  0.00000000  0.25000000  0.12135000  1.0
  Li  Li1  4  0.00000000  0.25000000  0.95955000  1.0
  Li  Li2  4  0.25000000  0.25000000  0.04045000  1.0
  Li  Li3  4  0.25000000  0.25000000  0.87865000  1.0
  Li  Li4  4  0.25000000  0.50000000  0.12135000  1.0
  Li  Li5  4  0.25000000  0.50000000  0.95955000  1.0
  Li  Li6  2  0.00000000  0.50000000  0.04045000  1.0
  Li  Li7  2  0.00000000  0.50000000  0.87865000  1.0
  Li  Li8  1  0.00000000  0.00000000  0.04045000  1.0
  Li  Li9  1  0.00000000  0.00000000  0.87865000  1.0
  Li  Li10  1  0.50000000  0.50000000  0.04045000  1.0
  Li  Li11  1  0.50000000  0.50000000  0.87865000  1.0
  C  C12  1  0.00000000  0.00000000  0.15164000  1.0
