# generated using pymatgen
data_Sc8Ga8Ni16CO
_symmetry_space_group_name_H-M   P1
_cell_length_a   6.08368000
_cell_length_b   8.60362000
_cell_length_c   26.45270000
_cell_angle_alpha   90.00000000
_cell_angle_beta   90.00000000
_cell_angle_gamma   90.00000000
_symmetry_Int_Tables_number   1
_chemical_formula_structural   Sc8Ga8Ni16CO
_chemical_formula_sum   'Sc8 Ga8 Ni16 C1 O1'
_cell_volume   1384.57851839
_cell_formula_units_Z   1
loop_
 _symmetry_equiv_pos_site_id
 _symmetry_equiv_pos_as_xyz
  1  'x, y, z'
loop_
 _atom_site_type_symbol
 _atom_site_label
 _atom_site_symmetry_multiplicity
 _atom_site_fract_x
 _atom_site_fract_y
 _atom_site_fract_z
 _atom_site_occupancy
  Sc  Sc0  1  0.00000000  0.00000000  0.87803000  1.0
  Sc  Sc1  1  0.00000000  0.50000000  0.87803000  1.0
  Sc  Sc2  1  0.00011000  0.50004000  0.03857000  1.0
  Sc  Sc3  1  0.00196000  0.99996000  0.03955000  1.0
  Sc  Sc4  1  0.50000000  0.25000000  0.95934000  1.0
  Sc  Sc5  1  0.50000000  0.75000000  0.95934000  1.0
  Sc  Sc6  1  0.50214000  0.25467000  0.12785000  1.0
  Sc  Sc7  1  0.50214000  0.74531000  0.12788000  1.0
  Ga  Ga8  1  0.00000000  0.25000000  0.95934000  1.0
  Ga  Ga9  1  0.00000000  0.75000000  0.95934000  1.0
  Ga  Ga10  1  0.49709000  0.99993000  0.04406000  1.0
  Ga  Ga11  1  0.49933000  0.50005000  0.04499000  1.0
  Ga  Ga12  1  0.50000000  0.00000000  0.87803000  1.0
  Ga  Ga13  1  0.50000000  0.50000000  0.87803000  1.0
  Ga  Ga14  1  0.99648000  0.24856000  0.12082000  1.0
  Ga  Ga15  1  0.99648000  0.75144000  0.12083000  1.0
  Ni  Ni16  1  0.21852000  0.49999000  0.11771000  1.0
  Ni  Ni17  1  0.23582000  0.99997000  0.12738000  1.0
  Ni  Ni18  1  0.25000000  0.00000000  0.95934000  1.0
  Ni  Ni19  1  0.25000000  0.25000000  0.87803000  1.0
  Ni  Ni20  1  0.25000000  0.50000000  0.95934000  1.0
  Ni  Ni21  1  0.25000000  0.75000000  0.87803000  1.0
  Ni  Ni22  1  0.26715000  0.24825000  0.04602000  1.0
  Ni  Ni23  1  0.26723000  0.75177000  0.04602000  1.0
  Ni  Ni24  1  0.73254000  0.75051000  0.04393000  1.0
  Ni  Ni25  1  0.73283000  0.24949000  0.04389000  1.0
  Ni  Ni26  1  0.75000000  0.00000000  0.95934000  1.0
  Ni  Ni27  1  0.75000000  0.25000000  0.87803000  1.0
  Ni  Ni28  1  0.75000000  0.50000000  0.95934000  1.0
  Ni  Ni29  1  0.75000000  0.75000000  0.87803000  1.0
  Ni  Ni30  1  0.77490000  0.99996000  0.11513000  1.0
  Ni  Ni31  1  0.78002000  0.50001000  0.11769000  1.0
  C  C32  1  0.32733000  0.00000000  0.19068000  1.0
  O  O33  1  0.35972000  0.00002000  0.23424000  1.0
