# generated using pymatgen
data_Li8Al8Fe8Pd8CO
_symmetry_space_group_name_H-M   P2
_cell_length_a   5.67696000
_cell_length_b   26.63180000
_cell_length_c   8.60712000
_cell_angle_alpha   90.00000000
_cell_angle_beta   90.00000000
_cell_angle_gamma   90.00000000
_symmetry_Int_Tables_number   3
_chemical_formula_structural   Li8Al8Fe8Pd8CO
_chemical_formula_sum   'Li8 Al8 Fe8 Pd8 C1 O1'
_cell_volume   1301.29036078
_cell_formula_units_Z   1
loop_
 _symmetry_equiv_pos_site_id
 _symmetry_equiv_pos_as_xyz
  1  'x, y, z'
  2  '-x, y, -z'
loop_
 _atom_site_type_symbol
 _atom_site_label
 _atom_site_symmetry_multiplicity
 _atom_site_fract_x
 _atom_site_fract_y
 _atom_site_fract_z
 _atom_site_occupancy
  Li  Li0  2  0.24823000  0.87160000  0.24946000  1.0
  Li  Li1  2  0.24823000  0.87161000  0.75054000  1.0
  Li  Li2  2  0.25000000  0.04150000  0.25000000  1.0
  Li  Li3  2  0.25000000  0.04150000  0.75000000  1.0
  Al  Al4  2  0.24469000  0.96113000  0.99996000  1.0
  Al  Al5  2  0.25000000  0.12451000  0.00000000  1.0
  Al  Al6  2  0.25000000  0.12451000  0.50000000  1.0
  Al  Al7  2  0.25107000  0.96247000  0.50004000  1.0
  Fe  Fe8  2  0.00000000  0.12451000  0.25000000  1.0
  Fe  Fe9  2  0.00014000  0.95811000  0.24871000  1.0
  Fe  Fe10  2  0.49986000  0.95691000  0.24890000  1.0
  Fe  Fe11  2  0.50000000  0.12451000  0.25000000  1.0
  Pd  Pd12  1  0.00000000  0.04150000  0.00000000  1.0
  Pd  Pd13  1  0.00000000  0.04150000  0.50000000  1.0
  Pd  Pd14  1  0.00000000  0.87640000  0.00000000  1.0
  Pd  Pd15  1  0.00000000  0.88526000  0.50000000  1.0
  Pd  Pd16  1  0.50000000  0.04150000  0.00000000  1.0
  Pd  Pd17  1  0.50000000  0.04150000  0.50000000  1.0
  Pd  Pd18  1  0.50000000  0.88447000  0.50000000  1.0
  Pd  Pd19  1  0.50000000  0.88479000  0.00000000  1.0
  C  C20  1  0.00000000  0.80382000  0.00000000  1.0
  O  O21  1  0.00000000  0.76032000  0.00000000  1.0
