# generated using pymatgen
data_Li8Mg8Sn8Pd8C
_symmetry_space_group_name_H-M   Pm
_cell_length_a   6.52546000
_cell_length_b   9.22840000
_cell_length_c   26.92130000
_cell_angle_alpha   90.00000000
_cell_angle_beta   90.00000000
_cell_angle_gamma   90.00000000
_symmetry_Int_Tables_number   6
_chemical_formula_structural   Li8Mg8Sn8Pd8C
_chemical_formula_sum   'Li8 Mg8 Sn8 Pd8 C1'
_cell_volume   1621.18870774
_cell_formula_units_Z   1
loop_
 _symmetry_equiv_pos_site_id
 _symmetry_equiv_pos_as_xyz
  1  'x, y, z'
  2  'x, -y, z'
loop_
 _atom_site_type_symbol
 _atom_site_label
 _atom_site_symmetry_multiplicity
 _atom_site_fract_x
 _atom_site_fract_y
 _atom_site_fract_z
 _atom_site_occupancy
  Li  Li0  2  0.00000000  0.25000000  0.87145000  1.0
  Li  Li1  2  0.98738000  0.25051000  0.04510000  1.0
  Li  Li2  1  0.49512000  0.50000000  0.14055000  1.0
  Li  Li3  1  0.50000000  0.00000000  0.95715000  1.0
  Li  Li4  1  0.50000000  0.50000000  0.95715000  1.0
  Li  Li5  1  0.52621000  0.00000000  0.16282000  1.0
  Mg  Mg6  2  0.24410000  0.23844000  0.13147000  1.0
  Mg  Mg7  2  0.25000000  0.25000000  0.95715000  1.0
  Mg  Mg8  1  0.73266000  0.00000000  0.04724000  1.0
  Mg  Mg9  1  0.74113000  0.50000000  0.04480000  1.0
  Mg  Mg10  1  0.75000000  0.00000000  0.87145000  1.0
  Mg  Mg11  1  0.75000000  0.50000000  0.87145000  1.0
  Sn  Sn12  2  0.73817000  0.25949000  0.13681000  1.0
  Sn  Sn13  2  0.75000000  0.25000000  0.95715000  1.0
  Sn  Sn14  1  0.25000000  0.00000000  0.87145000  1.0
  Sn  Sn15  1  0.25000000  0.50000000  0.87145000  1.0
  Sn  Sn16  1  0.25348000  0.50000000  0.04410000  1.0
  Sn  Sn17  1  0.26208000  0.00000000  0.04418000  1.0
  Pd  Pd18  2  0.50000000  0.25000000  0.87145000  1.0
  Pd  Pd19  2  0.50133000  0.25436000  0.04135000  1.0
  Pd  Pd20  1  -0.00000000  0.50000000  0.95715000  1.0
  Pd  Pd21  1  -0.00000000  0.00000000  0.95715000  1.0
  Pd  Pd22  1  0.93526000  0.00000000  0.13230000  1.0
  Pd  Pd23  1  0.99944000  0.50000000  0.12246000  1.0
  C  C24  1  0.24476000  0.00000000  0.12803000  1.0
