# generated using pymatgen
data_Li8Mn8Al8Pd8CO
_symmetry_space_group_name_H-M   'P 1'
_cell_length_a   8.62984000
_cell_length_b   6.10222000
_cell_length_c   26.47240000
_cell_angle_alpha   90.00000000
_cell_angle_beta   90.00000000
_cell_angle_gamma   90.00000000
_symmetry_Int_Tables_number   1
_chemical_formula_structural   Li8Mn8Al8Pd8CO
_chemical_formula_sum   'Li8 Mn8 Al8 Pd8 C1 O1'
_cell_volume   1394.06788086
_cell_formula_units_Z   1
loop_
 _symmetry_equiv_pos_site_id
 _symmetry_equiv_pos_as_xyz
  1  'x, y, z'
loop_
 _atom_site_type_symbol
 _atom_site_label
 _atom_site_symmetry_multiplicity
 _atom_site_fract_x
 _atom_site_fract_y
 _atom_site_fract_z
 _atom_site_occupancy
  Li  Li0  1  0.25000000  0.00000000  0.04075000  1.0
  Li  Li1  1  0.75000000  0.00000000  0.04075000  1.0
  Li  Li2  1  0.50000000  0.50000000  0.12225000  1.0
  Li  Li3  1  0.00000000  0.50000000  0.12225000  1.0
  Li  Li4  1  0.76215000  0.99449000  0.86008000  1.0
  Li  Li5  1  0.23785000  0.99449000  0.86008000  1.0
  Li  Li6  1  0.00000000  0.49628000  0.96376000  1.0
  Li  Li7  1  0.50000000  0.49870000  0.96350000  1.0
  Mn  Mn8  1  0.00000000  0.25000000  0.04075000  1.0
  Mn  Mn9  1  0.50000000  0.25000000  0.04075000  1.0
  Mn  Mn10  1  0.25000000  0.75000000  0.12225000  1.0
  Mn  Mn11  1  0.75000000  0.75000000  0.12225000  1.0
  Mn  Mn12  1  0.50000000  0.25842000  0.88121000  1.0
  Mn  Mn13  1  0.00000000  0.26183000  0.88331000  1.0
  Mn  Mn14  1  0.75097000  0.75554000  0.95625000  1.0
  Mn  Mn15  1  0.24903000  0.75554000  0.95625000  1.0
  Al  Al16  1  0.00000000  0.00000000  0.12225000  1.0
  Al  Al17  1  0.50000000  1.00000000  0.12225000  1.0
  Al  Al18  1  0.75000000  0.50000000  0.04075000  1.0
  Al  Al19  1  0.25000000  0.50000000  0.04075000  1.0
  Al  Al20  1  0.50000000  0.00090000  0.96057000  1.0
  Al  Al21  1  0.00000000  0.01032000  0.96013000  1.0
  Al  Al22  1  0.24296000  0.49407000  0.87554000  1.0
  Al  Al23  1  0.75704000  0.49407000  0.87554000  1.0
  Pd  Pd24  1  0.00000000  0.75000000  0.04075000  1.0
  Pd  Pd25  1  0.50000000  0.75000000  0.04075000  1.0
  Pd  Pd26  1  0.25000000  0.25000000  0.12225000  1.0
  Pd  Pd27  1  0.75000000  0.25000000  0.12225000  1.0
  Pd  Pd28  1  0.50000000  0.72720000  0.88532000  1.0
  Pd  Pd29  1  0.00000000  0.73674000  0.88751000  1.0
  Pd  Pd30  1  0.74891000  0.24797000  0.95901000  1.0
  Pd  Pd31  1  0.25109000  0.24797000  0.95901000  1.0
  C  C32  1  0.00000000  0.24519000  0.81516000  1.0
  O  O33  1  0.00000000  0.24025000  0.77072000  1.0
