# generated using pymatgen
data_Y16In16CO
_symmetry_space_group_name_H-M   'P 1'
_cell_length_a   7.55034000
_cell_length_b   10.67780000
_cell_length_c   28.00830000
_cell_angle_alpha   90.00000000
_cell_angle_beta   90.00000000
_cell_angle_gamma   90.00000000
_symmetry_Int_Tables_number   1
_chemical_formula_structural   Y16In16CO
_chemical_formula_sum   'Y16 In16 C1 O1'
_cell_volume   2258.05772713
_cell_formula_units_Z   1
loop_
 _symmetry_equiv_pos_site_id
 _symmetry_equiv_pos_as_xyz
  1  'x, y, z'
loop_
 _atom_site_type_symbol
 _atom_site_label
 _atom_site_symmetry_multiplicity
 _atom_site_fract_x
 _atom_site_fract_y
 _atom_site_fract_z
 _atom_site_occupancy
  Y  Y0  1  0.00000000  0.25000000  0.85704000  1.0
  Y  Y1  1  0.00000000  0.00000000  0.95235000  1.0
  Y  Y2  1  0.00000000  0.25074000  0.04733000  1.0
  Y  Y3  1  0.00000000  0.00000000  0.14263000  1.0
  Y  Y4  1  0.00000000  0.75000000  0.85704000  1.0
  Y  Y5  1  0.00000000  0.50000000  0.95235000  1.0
  Y  Y6  1  0.00000000  0.74926000  0.04733000  1.0
  Y  Y7  1  0.00000000  0.50000000  0.14536000  1.0
  Y  Y8  1  0.50000000  0.25000000  0.85704000  1.0
  Y  Y9  1  0.50000000  0.00000000  0.95235000  1.0
  Y  Y10  1  0.50000000  0.25009000  0.04785000  1.0
  Y  Y11  1  0.50000000  0.00000000  0.14506000  1.0
  Y  Y12  1  0.50000000  0.75000000  0.85704000  1.0
  Y  Y13  1  0.50000000  0.50000000  0.95235000  1.0
  Y  Y14  1  0.50000000  0.74991000  0.04785000  1.0
  Y  Y15  1  0.50000000  0.50000000  0.14377000  1.0
  In  In16  1  0.75000000  0.00000000  0.85704000  1.0
  In  In17  1  0.75000000  0.25000000  0.95235000  1.0
  In  In18  1  0.74906000  0.00000000  0.04869000  1.0
  In  In19  1  0.74966000  0.25093000  0.14792000  1.0
  In  In20  1  0.75000000  0.50000000  0.85704000  1.0
  In  In21  1  0.75000000  0.75000000  0.95235000  1.0
  In  In22  1  0.75065000  0.50000000  0.04966000  1.0
  In  In23  1  0.74966000  0.74907000  0.14792000  1.0
  In  In24  1  0.25000000  0.00000000  0.85704000  1.0
  In  In25  1  0.25000000  0.25000000  0.95235000  1.0
  In  In26  1  0.25094000  0.00000000  0.04869000  1.0
  In  In27  1  0.25034000  0.25093000  0.14792000  1.0
  In  In28  1  0.25000000  0.50000000  0.85704000  1.0
  In  In29  1  0.25000000  0.75000000  0.95235000  1.0
  In  In30  1  0.24935000  0.50000000  0.04966000  1.0
  In  In31  1  0.25034000  0.74907000  0.14792000  1.0
  C  C32  1  0.00000000  0.00000000  0.23023000  1.0
  O  O33  1  0.00000000  0.00000000  0.27132000  1.0
