# generated using pymatgen
data_Y16In16CO
_symmetry_space_group_name_H-M   Pmm2
_cell_length_a   7.55034000
_cell_length_b   10.67780000
_cell_length_c   28.00830000
_cell_angle_alpha   90.00000000
_cell_angle_beta   90.00000000
_cell_angle_gamma   90.00000000
_symmetry_Int_Tables_number   25
_chemical_formula_structural   Y16In16CO
_chemical_formula_sum   'Y16 In16 C1 O1'
_cell_volume   2258.05772713
_cell_formula_units_Z   1
loop_
 _symmetry_equiv_pos_site_id
 _symmetry_equiv_pos_as_xyz
  1  'x, y, z'
  2  '-x, -y, z'
  3  '-x, y, z'
  4  'x, -y, z'
loop_
 _atom_site_type_symbol
 _atom_site_label
 _atom_site_symmetry_multiplicity
 _atom_site_fract_x
 _atom_site_fract_y
 _atom_site_fract_z
 _atom_site_occupancy
  Y  Y0  2  0.00000000  0.25000000  0.85704000  1.0
  Y  Y1  2  0.00000000  0.25074000  0.04733000  1.0
  Y  Y2  2  0.50000000  0.25000000  0.85704000  1.0
  Y  Y3  2  0.50000000  0.25009000  0.04785000  1.0
  Y  Y4  1  0.00000000  0.00000000  0.14263000  1.0
  Y  Y5  1  0.00000000  0.00000000  0.95235000  1.0
  Y  Y6  1  0.00000000  0.50000000  0.14536000  1.0
  Y  Y7  1  0.00000000  0.50000000  0.95235000  1.0
  Y  Y8  1  0.50000000  0.00000000  0.14506000  1.0
  Y  Y9  1  0.50000000  0.00000000  0.95235000  1.0
  Y  Y10  1  0.50000000  0.50000000  0.14377000  1.0
  Y  Y11  1  0.50000000  0.50000000  0.95235000  1.0
  In  In12  4  0.25000000  0.25000000  0.95235000  1.0
  In  In13  4  0.25034000  0.25093000  0.14792000  1.0
  In  In14  2  0.24935000  0.50000000  0.04966000  1.0
  In  In15  2  0.25000000  0.00000000  0.85704000  1.0
  In  In16  2  0.25000000  0.50000000  0.85704000  1.0
  In  In17  2  0.25094000  0.00000000  0.04869000  1.0
  C  C18  1  0.00000000  0.00000000  0.23023000  1.0
  O  O19  1  0.00000000  0.00000000  0.27132000  1.0
