# generated using pymatgen
data_Li4Co4Ge4Pd4CO
_symmetry_space_group_name_H-M   'P 1'
_cell_length_a   5.88348000
_cell_length_b   5.88348000
_cell_length_c   24.41260000
_cell_angle_alpha   90.00000000
_cell_angle_beta   90.00000000
_cell_angle_gamma   90.00000000
_symmetry_Int_Tables_number   1
_chemical_formula_structural   Li4Co4Ge4Pd4CO
_chemical_formula_sum   'Li4 Co4 Ge4 Pd4 C1 O1'
_cell_volume   845.05037386
_cell_formula_units_Z   1
loop_
 _symmetry_equiv_pos_site_id
 _symmetry_equiv_pos_as_xyz
  1  'x, y, z'
loop_
 _atom_site_type_symbol
 _atom_site_label
 _atom_site_symmetry_multiplicity
 _atom_site_fract_x
 _atom_site_fract_y
 _atom_site_fract_z
 _atom_site_occupancy
  Li  Li0  1  0.75000000  0.25002000  0.03013000  1
  Li  Li1  1  0.74930000  0.74930000  0.89541000  1
  Li  Li2  1  0.25055500  0.25055500  0.89429000  1
  Li  Li3  1  0.25002000  0.75000000  0.03013000  1
  Co  Co4  1  1.00000000  0.50002000  0.09038000  1
  Co  Co5  1  0.99968000  0.99968000  0.96610000  1
  Co  Co6  1  0.50000000  0.50000000  0.96689000  1
  Co  Co7  1  0.50002000  1.00000000  0.09038000  1
  Ge  Ge8  1  0.25001000  0.25001000  0.03013000  1
  Ge  Ge9  1  0.24987000  0.75023000  0.91203000  1
  Ge  Ge10  1  0.75023000  0.24987000  0.91203000  1
  Ge  Ge11  1  0.75001000  0.75001000  0.03013000  1
  Pd  Pd12  1  0.00001000  0.00001000  0.09038000  1
  Pd  Pd13  1  0.00038000  0.49962000  0.96756000  1
  Pd  Pd14  1  0.49962000  0.00038000  0.96756000  1
  Pd  Pd15  1  0.50001000  0.50001000  0.09038000  1
  C  C16  1  0.24994000  0.24994000  0.80718000  1
  O  O17  1  0.25011500  0.25011500  0.76050000  1
