# generated using pymatgen
data_Li4Co4Ge4Pd4CO
_symmetry_space_group_name_H-M   Cm
_cell_length_a   8.32049721
_cell_length_b   8.32049721
_cell_length_c   24.41260000
_cell_angle_alpha   90.00000000
_cell_angle_beta   90.00000000
_cell_angle_gamma   90.00000000
_symmetry_Int_Tables_number   8
_chemical_formula_structural   Li4Co4Ge4Pd4CO
_chemical_formula_sum   'Li8 Co8 Ge8 Pd8 C2 O2'
_cell_volume   1690.10074772
_cell_formula_units_Z   2
loop_
 _symmetry_equiv_pos_site_id
 _symmetry_equiv_pos_as_xyz
  1  'x, y, z'
  2  'x, -y, z'
  3  'x+1/2, y+1/2, z'
  4  'x+1/2, -y+1/2, z'
loop_
 _atom_site_type_symbol
 _atom_site_label
 _atom_site_symmetry_multiplicity
 _atom_site_fract_x
 _atom_site_fract_y
 _atom_site_fract_z
 _atom_site_occupancy
  Li  Li0  4  0.00001000  0.25001000  0.96987000  1.0
  Li  Li1  2  0.24930000  0.50000000  0.10459000  1.0
  Li  Li2  2  0.25055500  0.00000000  0.10571000  1.0
  Co  Co3  4  0.25001000  0.25001000  0.90962000  1.0
  Co  Co4  2  0.00000000  0.50000000  0.03311000  1.0
  Co  Co5  2  0.49968000  0.50000000  0.03390000  1.0
  Ge  Ge6  4  0.00005000  0.24982000  0.08797000  1.0
  Ge  Ge7  2  0.25001000  0.00000000  0.96987000  1.0
  Ge  Ge8  2  0.25001000  0.50000000  0.96987000  1.0
  Pd  Pd9  4  0.25000000  0.24962000  0.03244000  1.0
  Pd  Pd10  2  0.00001000  0.00000000  0.90962000  1.0
  Pd  Pd11  2  0.00001000  0.50000000  0.90962000  1.0
  C  C12  2  0.24994000  0.00000000  0.19282000  1.0
  O  O13  2  0.25011500  0.00000000  0.23950000  1.0
