data_image0
_chemical_formula_structural       Ca16Pd16C
_chemical_formula_sum              "Ca16 Pd16 C1"
_cell_length_a       7.14855
_cell_length_b       10.1096
_cell_length_c       27.5822
_cell_angle_alpha    90
_cell_angle_beta     90
_cell_angle_gamma    90

_space_group_name_H-M_alt    "P 1"
_space_group_IT_number       1

loop_
  _space_group_symop_operation_xyz
  'x, y, z'

loop_
  _atom_site_type_symbol
  _atom_site_label
  _atom_site_symmetry_multiplicity
  _atom_site_fract_x
  _atom_site_fract_y
  _atom_site_fract_z
  _atom_site_occupancy
  Ca  Ca1       1.0  0.00000  0.00000  0.86255  1.0000
  Ca  Ca2       1.0  0.00000  0.25000  0.95418  1.0000
  Ca  Ca3       1.0  0.99924  0.49979  0.04473  1.0000
  Ca  Ca4       1.0  0.94755  0.24966  0.13877  1.0000
  Ca  Ca5       1.0  0.00000  0.50000  0.86255  1.0000
  Ca  Ca6       1.0  0.00000  0.75000  0.95418  1.0000
  Ca  Ca7       1.0  0.99923  0.00036  0.04488  1.0000
  Ca  Ca8       1.0  0.99929  0.75024  0.14126  1.0000
  Ca  Ca9       1.0  0.50000  0.00000  0.86255  1.0000
  Ca  Ca10      1.0  0.50000  0.25000  0.95418  1.0000
  Ca  Ca11      1.0  0.50066  0.50029  0.04474  1.0000
  Ca  Ca12      1.0  0.55253  0.24966  0.13873  1.0000
  Ca  Ca13      1.0  0.50000  0.50000  0.86255  1.0000
  Ca  Ca14      1.0  0.50000  0.75000  0.95418  1.0000
  Ca  Ca15      1.0  0.50069  0.00028  0.04490  1.0000
  Ca  Ca16      1.0  0.50067  0.75038  0.14152  1.0000
  Pd  Pd1       1.0  0.25000  0.25000  0.86255  1.0000
  Pd  Pd2       1.0  0.25000  0.00000  0.95418  1.0000
  Pd  Pd3       1.0  0.25012  0.25005  0.05080  1.0000
  Pd  Pd4       1.0  0.25011  0.44919  0.13052  1.0000
  Pd  Pd5       1.0  0.25000  0.75000  0.86255  1.0000
  Pd  Pd6       1.0  0.25000  0.50000  0.95418  1.0000
  Pd  Pd7       1.0  0.25001  0.74996  0.05332  1.0000
  Pd  Pd8       1.0  0.25009  0.05227  0.13077  1.0000
  Pd  Pd9       1.0  0.75000  0.25000  0.86255  1.0000
  Pd  Pd10      1.0  0.75000  0.00000  0.95418  1.0000
  Pd  Pd11      1.0  0.74998  0.24999  0.04104  1.0000
  Pd  Pd12      1.0  0.74993  0.51999  0.13009  1.0000
  Pd  Pd13      1.0  0.75000  0.75000  0.86255  1.0000
  Pd  Pd14      1.0  0.75000  0.50000  0.95418  1.0000
  Pd  Pd15      1.0  0.75003  0.75010  0.05230  1.0000
  Pd  Pd16      1.0  0.74999  0.97977  0.13026  1.0000
  C   C1        1.0  0.25004  0.25143  0.15434  1.0000
