# generated using pymatgen
data_Li8In8Ag16C
_symmetry_space_group_name_H-M   'P 1'
_cell_length_a   6.74000000
_cell_length_b   9.53179000
_cell_length_c   27.14880000
_cell_angle_alpha   90.00000000
_cell_angle_beta   90.00000000
_cell_angle_gamma   90.00000000
_symmetry_Int_Tables_number   1
_chemical_formula_structural   Li8In8Ag16C
_chemical_formula_sum   'Li8 In8 Ag16 C1'
_cell_volume   1744.15469077
_cell_formula_units_Z   1
loop_
 _symmetry_equiv_pos_site_id
 _symmetry_equiv_pos_as_xyz
  1  'x, y, z'
loop_
 _atom_site_type_symbol
 _atom_site_label
 _atom_site_symmetry_multiplicity
 _atom_site_fract_x
 _atom_site_fract_y
 _atom_site_fract_z
 _atom_site_occupancy
  Li  Li0  1  0.00000000  0.00000000  0.86834000  1.0
  Li  Li1  1  0.50000000  0.25000000  0.95611000  1.0
  Li  Li2  1  0.50000000  0.75000000  0.95611000  1.0
  Li  Li3  1  0.00000000  0.50000000  0.86834000  1.0
  Li  Li4  1  0.00000000  0.50000000  0.03706000  1.0
  Li  Li5  1  0.50000000  0.73362000  0.13046000  1.0
  Li  Li6  1  0.50000000  0.26638000  0.13046000  1.0
  Li  Li7  1  0.00000000  0.00000000  0.04676000  1.0
  In  In8  1  0.00000000  0.75000000  0.95611000  1.0
  In  In9  1  0.50000000  0.00000000  0.86834000  1.0
  In  In10  1  0.00000000  0.25000000  0.95611000  1.0
  In  In11  1  0.50000000  0.50000000  0.86834000  1.0
  In  In12  1  0.00000000  0.23784000  0.15050000  1.0
  In  In13  1  0.50000000  0.50000000  0.04473000  1.0
  In  In14  1  0.00000000  0.76216000  0.15050000  1.0
  In  In15  1  0.50000000  0.00000000  0.03672000  1.0
  Ag  Ag16  1  0.25000000  0.00000000  0.95611000  1.0
  Ag  Ag17  1  0.75000000  0.50000000  0.95611000  1.0
  Ag  Ag18  1  0.75000000  0.00000000  0.95611000  1.0
  Ag  Ag19  1  0.25000000  0.50000000  0.95611000  1.0
  Ag  Ag20  1  0.75000000  0.75000000  0.86834000  1.0
  Ag  Ag21  1  0.25000000  0.25000000  0.86834000  1.0
  Ag  Ag22  1  0.25000000  0.75000000  0.86834000  1.0
  Ag  Ag23  1  0.75000000  0.25000000  0.86834000  1.0
  Ag  Ag24  1  0.22380000  0.50000000  0.12707000  1.0
  Ag  Ag25  1  0.70804000  0.00000000  0.12377000  1.0
  Ag  Ag26  1  0.77620000  0.50000000  0.12707000  1.0
  Ag  Ag27  1  0.29196000  0.00000000  0.12377000  1.0
  Ag  Ag28  1  0.76414000  0.25343000  0.04809000  1.0
  Ag  Ag29  1  0.23586000  0.74657000  0.04809000  1.0
  Ag  Ag30  1  0.23586000  0.25343000  0.04809000  1.0
  Ag  Ag31  1  0.76414000  0.74657000  0.04809000  1.0
  C  C32  1  0.00000000  0.00000000  0.15467000  1.0
