# generated using pymatgen
data_Li8In8Ag16C
_symmetry_space_group_name_H-M   Pmm2
_cell_length_a   6.74000000
_cell_length_b   9.53179000
_cell_length_c   27.14880000
_cell_angle_alpha   90.00000000
_cell_angle_beta   90.00000000
_cell_angle_gamma   90.00000000
_symmetry_Int_Tables_number   25
_chemical_formula_structural   Li8In8Ag16C
_chemical_formula_sum   'Li8 In8 Ag16 C1'
_cell_volume   1744.15469077
_cell_formula_units_Z   1
loop_
 _symmetry_equiv_pos_site_id
 _symmetry_equiv_pos_as_xyz
  1  'x, y, z'
  2  '-x, -y, z'
  3  '-x, y, z'
  4  'x, -y, z'
loop_
 _atom_site_type_symbol
 _atom_site_label
 _atom_site_symmetry_multiplicity
 _atom_site_fract_x
 _atom_site_fract_y
 _atom_site_fract_z
 _atom_site_occupancy
  Li  Li0  2  0.50000000  0.25000000  0.95611000  1.0
  Li  Li1  2  0.50000000  0.26638000  0.13046000  1.0
  Li  Li2  1  0.00000000  0.00000000  0.04676000  1.0
  Li  Li3  1  0.00000000  0.00000000  0.86834000  1.0
  Li  Li4  1  0.00000000  0.50000000  0.03706000  1.0
  Li  Li5  1  0.00000000  0.50000000  0.86834000  1.0
  In  In6  2  0.00000000  0.23784000  0.15050000  1.0
  In  In7  2  0.00000000  0.25000000  0.95611000  1.0
  In  In8  1  0.50000000  0.00000000  0.03672000  1.0
  In  In9  1  0.50000000  0.00000000  0.86834000  1.0
  In  In10  1  0.50000000  0.50000000  0.04473000  1.0
  In  In11  1  0.50000000  0.50000000  0.86834000  1.0
  Ag  Ag12  4  0.23586000  0.25343000  0.04809000  1.0
  Ag  Ag13  4  0.25000000  0.25000000  0.86834000  1.0
  Ag  Ag14  2  0.22380000  0.50000000  0.12707000  1.0
  Ag  Ag15  2  0.25000000  0.00000000  0.95611000  1.0
  Ag  Ag16  2  0.25000000  0.50000000  0.95611000  1.0
  Ag  Ag17  2  0.29196000  0.00000000  0.12377000  1.0
  C  C18  1  0.00000000  0.00000000  0.15467000  1.0
