# generated using pymatgen
data_Li8Mg8Ag8Pd8CO
_symmetry_space_group_name_H-M   'P 1'
_cell_length_a   9.02734000
_cell_length_b   6.38329000
_cell_length_c   26.77050000
_cell_angle_alpha   90.00000000
_cell_angle_beta   90.00000000
_cell_angle_gamma   90.00000000
_symmetry_Int_Tables_number   1
_chemical_formula_structural   Li8Mg8Ag8Pd8CO
_chemical_formula_sum   'Li8 Mg8 Ag8 Pd8 C1 O1'
_cell_volume   1542.62674937
_cell_formula_units_Z   1
loop_
 _symmetry_equiv_pos_site_id
 _symmetry_equiv_pos_as_xyz
  1  'x, y, z'
loop_
 _atom_site_type_symbol
 _atom_site_label
 _atom_site_symmetry_multiplicity
 _atom_site_fract_x
 _atom_site_fract_y
 _atom_site_fract_z
 _atom_site_occupancy
  Li  Li0  1  0.74999000  0.75000000  0.04215000  1.0
  Li  Li1  1  0.25001000  0.75000000  0.04215000  1.0
  Li  Li2  1  0.00000000  0.25000000  0.12645000  1.0
  Li  Li3  1  0.50000000  0.25000000  0.12645000  1.0
  Li  Li4  1  0.24924000  0.76183000  0.86600000  1.0
  Li  Li5  1  0.75076000  0.76183000  0.86600000  1.0
  Li  Li6  1  0.50000000  0.25417000  0.95607000  1.0
  Li  Li7  1  0.00000000  0.24927000  0.95838000  1.0
  Mg  Mg8  1  0.74999000  0.25000000  0.04215000  1.0
  Mg  Mg9  1  0.25001000  0.25000000  0.04215000  1.0
  Mg  Mg10  1  0.00000000  0.75000000  0.12645000  1.0
  Mg  Mg11  1  0.50000000  0.75000000  0.12645000  1.0
  Mg  Mg12  1  0.25806000  0.24712000  0.86862000  1.0
  Mg  Mg13  1  0.74194000  0.24712000  0.86862000  1.0
  Mg  Mg14  1  0.50000000  0.75249000  0.95825000  1.0
  Mg  Mg15  1  0.00000000  0.75381000  0.95789000  1.0
  Ag  Ag16  1  0.74999000  0.00000000  0.12645000  1.0
  Ag  Ag17  1  0.25001000  0.00000000  0.12645000  1.0
  Ag  Ag18  1  0.50000000  0.50000000  0.04215000  1.0
  Ag  Ag19  1  0.00000000  0.50000000  0.04215000  1.0
  Ag  Ag20  1  0.24751000  0.00326000  0.95525000  1.0
  Ag  Ag21  1  0.75249000  0.00326000  0.95525000  1.0
  Ag  Ag22  1  0.00000000  0.49409000  0.87583000  1.0
  Ag  Ag23  1  0.50000000  0.51721000  0.87165000  1.0
  Pd  Pd24  1  0.00000000  0.00000000  0.04215000  1.0
  Pd  Pd25  1  0.50000000  0.00000000  0.04215000  1.0
  Pd  Pd26  1  0.24999000  0.50000000  0.12645000  1.0
  Pd  Pd27  1  0.75001000  0.50000000  0.12645000  1.0
  Pd  Pd28  1  0.50000000  0.99918000  0.87773000  1.0
  Pd  Pd29  1  0.00000000  0.00738000  0.87032000  1.0
  Pd  Pd30  1  0.75067000  0.50178000  0.95444000  1.0
  Pd  Pd31  1  0.24933000  0.50178000  0.95444000  1.0
  C  C32  1  0.00000000  0.96554000  0.79817000  1.0
  O  O33  1  0.00000000  0.95178000  0.75509000  1.0
