# generated using pymatgen
data_HfRh3
_symmetry_space_group_name_H-M   Pmm2
_cell_length_a   3.94856500
_cell_length_b   5.58411000
_cell_length_c   24.18810000
_cell_angle_alpha   90.00000000
_cell_angle_beta   90.00000000
_cell_angle_gamma   90.00000000
_symmetry_Int_Tables_number   25
_chemical_formula_structural   HfRh3
_chemical_formula_sum   'Hf2 Rh6'
_cell_volume   533.32876978
_cell_formula_units_Z   2
loop_
 _symmetry_equiv_pos_site_id
 _symmetry_equiv_pos_as_xyz
  1  'x, y, z'
  2  '-x, -y, z'
  3  '-x, y, z'
  4  'x, -y, z'
loop_
 _atom_site_type_symbol
 _atom_site_label
 _atom_site_symmetry_multiplicity
 _atom_site_fract_x
 _atom_site_fract_y
 _atom_site_fract_z
 _atom_site_occupancy
  Hf  Hf0  1  0.00000000  0.00000000  0.91343000  1.0
  Hf  Hf1  1  0.00000000  0.50000000  0.02816500  1.0
  Rh  Rh2  2  0.50000000  0.25000000  0.97114000  1.0
  Rh  Rh3  2  0.50000000  0.25379500  0.08179000  1.0
  Rh  Rh4  1  0.00000000  0.00000000  0.02506000  1.0
  Rh  Rh5  1  0.00000000  0.50000000  0.91343000  1.0
