# generated using pymatgen
data_Li8In8Pd8Pt8CO
_symmetry_space_group_name_H-M   Pm
_cell_length_a   6.39502000
_cell_length_b   9.04392000
_cell_length_c   26.78290000
_cell_angle_alpha   90.00000000
_cell_angle_beta   90.00000000
_cell_angle_gamma   90.00000000
_symmetry_Int_Tables_number   6
_chemical_formula_structural   Li8In8Pd8Pt8CO
_chemical_formula_sum   'Li8 In8 Pd8 Pt8 C1 O1'
_cell_volume   1549.01712422
_cell_formula_units_Z   1
loop_
 _symmetry_equiv_pos_site_id
 _symmetry_equiv_pos_as_xyz
  1  'x, y, z'
  2  'x, -y, z'
loop_
 _atom_site_type_symbol
 _atom_site_label
 _atom_site_symmetry_multiplicity
 _atom_site_fract_x
 _atom_site_fract_y
 _atom_site_fract_z
 _atom_site_occupancy
  Li  Li0  2  0.49877000  0.25027000  0.04085000  1.0
  Li  Li1  2  0.50000000  0.25000000  0.87337000  1.0
  Li  Li2  1  -0.00000000  0.50000000  0.95779000  1.0
  Li  Li3  1  -0.00000000  0.00000000  0.95779000  1.0
  Li  Li4  1  0.00244000  0.50000000  0.13133000  1.0
  Li  Li5  1  0.00297000  0.00000000  0.13149000  1.0
  In  In6  2  0.00000000  0.25000000  0.87337000  1.0
  In  In7  2  0.99809000  0.25009000  0.04112000  1.0
  In  In8  1  0.49602000  0.50000000  0.13580000  1.0
  In  In9  1  0.49621000  0.00000000  0.13538000  1.0
  In  In10  1  0.50000000  0.00000000  0.95779000  1.0
  In  In11  1  0.50000000  0.50000000  0.95779000  1.0
  Pd  Pd12  2  0.73630000  0.25000000  0.12134000  1.0
  Pd  Pd13  2  0.75000000  0.25000000  0.95779000  1.0
  Pd  Pd14  1  0.25000000  0.00000000  0.87337000  1.0
  Pd  Pd15  1  0.25000000  0.50000000  0.87337000  1.0
  Pd  Pd16  1  0.25259000  0.50000000  0.04351000  1.0
  Pd  Pd17  1  0.25265000  0.00000000  0.04334000  1.0
  Pt  Pt18  2  0.25000000  0.25000000  0.95779000  1.0
  Pt  Pt19  2  0.26256000  0.24996000  0.12034000  1.0
  Pt  Pt20  1  0.74408000  0.50000000  0.04486000  1.0
  Pt  Pt21  1  0.74425000  0.00000000  0.04462000  1.0
  Pt  Pt22  1  0.75000000  0.00000000  0.87337000  1.0
  Pt  Pt23  1  0.75000000  0.50000000  0.87337000  1.0
  C  C24  1  0.52614000  0.00000000  0.27890000  1.0
  O  O25  1  0.47936000  0.00000000  0.31978000  1.0
