# generated using pymatgen
data_Li8Mg8Ga8Pt8CO
_symmetry_space_group_name_H-M   'P 1'
_cell_length_a   8.85580000
_cell_length_b   6.26200000
_cell_length_c   26.64190000
_cell_angle_alpha   90.00000000
_cell_angle_beta   90.00000000
_cell_angle_gamma   90.00000000
_symmetry_Int_Tables_number   1
_chemical_formula_structural   Li8Mg8Ga8Pt8CO
_chemical_formula_sum   'Li8 Mg8 Ga8 Pt8 C1 O1'
_cell_volume   1477.42708668
_cell_formula_units_Z   1
loop_
 _symmetry_equiv_pos_site_id
 _symmetry_equiv_pos_as_xyz
  1  'x, y, z'
loop_
 _atom_site_type_symbol
 _atom_site_label
 _atom_site_symmetry_multiplicity
 _atom_site_fract_x
 _atom_site_fract_y
 _atom_site_fract_z
 _atom_site_occupancy
  Li  Li0  1  0.50000000  0.25000000  0.04155000  1.0
  Li  Li1  1  0.00000000  0.25000000  0.04155000  1.0
  Li  Li2  1  0.75001000  0.75000000  0.12465000  1.0
  Li  Li3  1  0.24999000  0.75000000  0.12465000  1.0
  Li  Li4  1  0.00000000  0.27497000  0.86804000  1.0
  Li  Li5  1  0.50000000  0.27488000  0.87004000  1.0
  Li  Li6  1  0.24992000  0.75321000  0.95846000  1.0
  Li  Li7  1  0.75008000  0.75321000  0.95846000  1.0
  Mg  Mg8  1  0.75001000  0.00000000  0.04155000  1.0
  Mg  Mg9  1  0.24999000  0.00000000  0.04155000  1.0
  Mg  Mg10  1  0.00000000  0.50000000  0.12465000  1.0
  Mg  Mg11  1  0.50000000  0.50000000  0.12465000  1.0
  Mg  Mg12  1  0.25091000  0.98197000  0.86901000  1.0
  Mg  Mg13  1  0.74909000  0.98197000  0.86901000  1.0
  Mg  Mg14  1  0.50000000  0.48856000  0.96132000  1.0
  Mg  Mg15  1  0.00000000  0.49056000  0.96018000  1.0
  Ga  Ga16  1  0.50000000  0.00000000  0.12465000  1.0
  Ga  Ga17  1  0.00000000  0.00000000  0.12465000  1.0
  Ga  Ga18  1  0.25001000  0.50000000  0.04155000  1.0
  Ga  Ga19  1  0.74999000  0.50000000  0.04155000  1.0
  Ga  Ga20  1  0.00000000  0.00247000  0.95643000  1.0
  Ga  Ga21  1  0.50000000  0.00179000  0.95717000  1.0
  Ga  Ga22  1  0.75143000  0.51774000  0.87301000  1.0
  Ga  Ga23  1  0.24857000  0.51774000  0.87301000  1.0
  Pt  Pt24  1  0.50000000  0.75000000  0.04155000  1.0
  Pt  Pt25  1  0.00000000  0.75000000  0.04155000  1.0
  Pt  Pt26  1  0.75001000  0.25000000  0.12465000  1.0
  Pt  Pt27  1  0.24999000  0.25000000  0.12465000  1.0
  Pt  Pt28  1  0.00000000  0.73775000  0.88129000  1.0
  Pt  Pt29  1  0.50000000  0.73238000  0.88323000  1.0
  Pt  Pt30  1  0.25041000  0.24129000  0.95476000  1.0
  Pt  Pt31  1  0.74959000  0.24129000  0.95476000  1.0
  C  C32  1  0.50000000  0.22918000  0.79382000  1.0
  O  O33  1  0.50000000  0.22280000  0.75082000  1.0
