# generated using pymatgen
data_V8Fe16Si8CO
_symmetry_space_group_name_H-M   'P 1'
_cell_length_a   5.64262000
_cell_length_b   7.97986000
_cell_length_c   25.98490000
_cell_angle_alpha   90.00000000
_cell_angle_beta   90.00000000
_cell_angle_gamma   90.00000000
_symmetry_Int_Tables_number   1
_chemical_formula_structural   V8Fe16Si8CO
_chemical_formula_sum   'V8 Fe16 Si8 C1 O1'
_cell_volume   1170.03034597
_cell_formula_units_Z   1
loop_
 _symmetry_equiv_pos_site_id
 _symmetry_equiv_pos_as_xyz
  1  'x, y, z'
loop_
 _atom_site_type_symbol
 _atom_site_label
 _atom_site_symmetry_multiplicity
 _atom_site_fract_x
 _atom_site_fract_y
 _atom_site_fract_z
 _atom_site_occupancy
  V  V0  1  0.00000000  0.75000000  0.88484000  1.0
  V  V1  1  0.50000000  0.00000000  0.96161000  1.0
  V  V2  1  0.50000000  0.50000000  0.96161000  1.0
  V  V3  1  0.00000000  0.25000000  0.88484000  1.0
  V  V4  1  0.00000000  0.24860000  0.04044000  1.0
  V  V5  1  0.50000000  0.50000000  0.11501000  1.0
  V  V6  1  0.50000000  0.00000000  0.11496000  1.0
  V  V7  1  0.00000000  0.75140000  0.04044000  1.0
  Fe  Fe8  1  0.25000000  0.75000000  0.96161000  1.0
  Fe  Fe9  1  0.75000000  0.25000000  0.96161000  1.0
  Fe  Fe10  1  0.75000000  0.75000000  0.96161000  1.0
  Fe  Fe11  1  0.25000000  0.25000000  0.96161000  1.0
  Fe  Fe12  1  0.75000000  0.50000000  0.88484000  1.0
  Fe  Fe13  1  0.25000000  0.00000000  0.88484000  1.0
  Fe  Fe14  1  0.25000000  0.50000000  0.88484000  1.0
  Fe  Fe15  1  0.75000000  0.00000000  0.88484000  1.0
  Fe  Fe16  1  0.24157000  0.24870000  0.11008000  1.0
  Fe  Fe17  1  0.75843000  0.75130000  0.11008000  1.0
  Fe  Fe18  1  0.75843000  0.24870000  0.11008000  1.0
  Fe  Fe19  1  0.24157000  0.75130000  0.11008000  1.0
  Fe  Fe20  1  0.74789000  0.00000000  0.03776000  1.0
  Fe  Fe21  1  0.25311000  0.50000000  0.03772000  1.0
  Fe  Fe22  1  0.25211000  0.00000000  0.03776000  1.0
  Fe  Fe23  1  0.74689000  0.50000000  0.03772000  1.0
  Si  Si24  1  0.00000000  0.50000000  0.96161000  1.0
  Si  Si25  1  0.50000000  0.75000000  0.88484000  1.0
  Si  Si26  1  0.00000000  0.00000000  0.96161000  1.0
  Si  Si27  1  0.50000000  0.25000000  0.88484000  1.0
  Si  Si28  1  0.00000000  0.00000000  0.12667000  1.0
  Si  Si29  1  0.50000000  0.24971000  0.03887000  1.0
  Si  Si30  1  0.00000000  0.50000000  0.11801000  1.0
  Si  Si31  1  0.50000000  0.75029000  0.03887000  1.0
  C  C32  1  0.00000000  0.00000000  0.20021000  1.0
  O  O33  1  0.00000000  0.00000000  0.24465000  1.0
