# generated using pymatgen
data_LiYSnPb
_symmetry_space_group_name_H-M   'P 1'
_cell_length_a   4.68414000
_cell_length_b   4.82231000
_cell_length_c   26.65380000
_cell_angle_alpha   90.00000000
_cell_angle_beta   90.00000000
_cell_angle_gamma   90.00000000
_symmetry_Int_Tables_number   1
_chemical_formula_structural   LiYSnPb
_chemical_formula_sum   'Li2 Y2 Sn2 Pb2'
_cell_volume   602.06603393
_cell_formula_units_Z   2
loop_
 _symmetry_equiv_pos_site_id
 _symmetry_equiv_pos_as_xyz
  1  'x, y, z'
loop_
 _atom_site_type_symbol
 _atom_site_label
 _atom_site_symmetry_multiplicity
 _atom_site_fract_x
 _atom_site_fract_y
 _atom_site_fract_z
 _atom_site_occupancy
  Li  Li0  1  0.00000000  0.00000000  0.87518000  1.0
  Li  Li1  1  0.00000000  0.00000000  0.04888000  1.0
  Y  Y2  1  0.50000000  0.50000000  0.87518000  1.0
  Y  Y3  1  0.50000000  0.50000000  0.03899000  1.0
  Sn  Sn4  1  0.00000000  0.50000000  0.95839000  1.0
  Sn  Sn5  1  0.00000000  0.50000000  0.11930000  1.0
  Pb  Pb6  1  0.50000000  0.00000000  0.95839000  1.0
  Pb  Pb7  1  0.50000000  0.00000000  0.14217500  1.0
