# generated using pymatgen
data_Al8Au8C
_symmetry_space_group_name_H-M   'P 1'
_cell_length_a   6.49845000
_cell_length_b   6.49845000
_cell_length_c   24.87380000
_cell_angle_alpha   90.00000000
_cell_angle_beta   90.00000000
_cell_angle_gamma   90.00000000
_symmetry_Int_Tables_number   1
_chemical_formula_structural   Al8Au8C
_chemical_formula_sum   'Al8 Au8 C1'
_cell_volume   1050.41690269
_cell_formula_units_Z   1
loop_
 _symmetry_equiv_pos_site_id
 _symmetry_equiv_pos_as_xyz
  1  'x, y, z'
loop_
 _atom_site_type_symbol
 _atom_site_label
 _atom_site_symmetry_multiplicity
 _atom_site_fract_x
 _atom_site_fract_y
 _atom_site_fract_z
 _atom_site_occupancy
  Al  Al0  1  0.25000000  0.25000000  0.94256000  1.0
  Al  Al1  1  0.25000000  0.25000000  0.07318000  1.0
  Al  Al2  1  0.25000000  0.75000000  0.94256000  1.0
  Al  Al3  1  0.25000000  0.75000000  0.07318000  1.0
  Al  Al4  1  0.75000000  0.25000000  0.94256000  1.0
  Al  Al5  1  0.75000000  0.25000000  0.07318000  1.0
  Al  Al6  1  0.75000000  0.75000000  0.94256000  1.0
  Al  Al7  1  0.75000000  0.75000000  0.07318000  1.0
  Au  Au8  1  0.00000000  0.00000000  0.87724000  1.0
  Au  Au9  1  0.00000000  0.00000000  0.00787000  1.0
  Au  Au10  1  0.00000000  0.50000000  0.87724000  1.0
  Au  Au11  1  0.00000000  0.50000000  0.00787000  1.0
  Au  Au12  1  0.50000000  0.00000000  0.87724000  1.0
  Au  Au13  1  0.50000000  0.00000000  0.00787000  1.0
  Au  Au14  1  0.50000000  0.50000000  0.87724000  1.0
  Au  Au15  1  0.50000000  0.50000000  0.00787000  1.0
  C  C16  1  0.00000000  0.00000000  0.10535000  1.0
