# generated using pymatgen
data_Ta8Al8Ni16C
_symmetry_space_group_name_H-M   Pmm2
_cell_length_a   5.99379000
_cell_length_b   8.47650000
_cell_length_c   26.35740000
_cell_angle_alpha   90.00000000
_cell_angle_beta   90.00000000
_cell_angle_gamma   90.00000000
_symmetry_Int_Tables_number   25
_chemical_formula_structural   Ta8Al8Ni16C
_chemical_formula_sum   'Ta8 Al8 Ni16 C1'
_cell_volume   1339.12357771
_cell_formula_units_Z   1
loop_
 _symmetry_equiv_pos_site_id
 _symmetry_equiv_pos_as_xyz
  1  'x, y, z'
  2  '-x, -y, z'
  3  '-x, y, z'
  4  'x, -y, z'
loop_
 _atom_site_type_symbol
 _atom_site_label
 _atom_site_symmetry_multiplicity
 _atom_site_fract_x
 _atom_site_fract_y
 _atom_site_fract_z
 _atom_site_occupancy
  Ta  Ta0  2  0.50000000  0.23899000  0.12348000  1.0
  Ta  Ta1  2  0.50000000  0.25000000  0.95980000  1.0
  Ta  Ta2  1  0.00000000  0.00000000  0.03857000  1.0
  Ta  Ta3  1  0.00000000  0.00000000  0.87940000  1.0
  Ta  Ta4  1  0.00000000  0.50000000  0.04023000  1.0
  Ta  Ta5  1  0.00000000  0.50000000  0.87940000  1.0
  Al  Al6  2  0.00000000  0.25000000  0.95980000  1.0
  Al  Al7  2  0.00000000  0.25657000  0.11973000  1.0
  Al  Al8  1  0.50000000  0.00000000  0.04160000  1.0
  Al  Al9  1  0.50000000  0.00000000  0.87940000  1.0
  Al  Al10  1  0.50000000  0.50000000  0.04047000  1.0
  Al  Al11  1  0.50000000  0.50000000  0.87940000  1.0
  Ni  Ni12  4  0.25000000  0.25000000  0.87940000  1.0
  Ni  Ni13  4  0.26535000  0.25026000  0.04185000  1.0
  Ni  Ni14  2  0.20643000  0.00000000  0.11839000  1.0
  Ni  Ni15  2  0.25000000  0.00000000  0.95980000  1.0
  Ni  Ni16  2  0.25000000  0.50000000  0.95980000  1.0
  Ni  Ni17  2  0.25517000  0.50000000  0.11632000  1.0
  C  C18  1  0.50000000  0.00000000  0.14536000  1.0
