# generated using pymatgen
data_Li8In8Cu8Sn8CO
_symmetry_space_group_name_H-M   'P 1'
_cell_length_a   9.53092000
_cell_length_b   6.73938000
_cell_length_c   27.14820000
_cell_angle_alpha   90.00000000
_cell_angle_beta   90.00000000
_cell_angle_gamma   90.00000000
_symmetry_Int_Tables_number   1
_chemical_formula_structural   Li8In8Cu8Sn8CO
_chemical_formula_sum   'Li8 In8 Cu8 Sn8 C1 O1'
_cell_volume   1743.79652926
_cell_formula_units_Z   1
loop_
 _symmetry_equiv_pos_site_id
 _symmetry_equiv_pos_as_xyz
  1  'x, y, z'
loop_
 _atom_site_type_symbol
 _atom_site_label
 _atom_site_symmetry_multiplicity
 _atom_site_fract_x
 _atom_site_fract_y
 _atom_site_fract_z
 _atom_site_occupancy
  Li  Li0  1  0.25000000  0.00000000  0.04388000  1.0
  Li  Li1  1  0.75000000  0.00000000  0.04388000  1.0
  Li  Li2  1  0.50000000  0.50000000  0.13165000  1.0
  Li  Li3  1  0.00000000  0.50000000  0.13165000  1.0
  Li  Li4  1  0.74915000  0.99133000  0.85369000  1.0
  Li  Li5  1  0.25085000  0.99133000  0.85369000  1.0
  Li  Li6  1  0.00000000  0.48768000  0.95318000  1.0
  Li  Li7  1  0.50000000  0.48791000  0.95353000  1.0
  In  In8  1  0.00000000  0.25000000  0.04388000  1.0
  In  In9  1  0.50000000  0.25000000  0.04388000  1.0
  In  In10  1  0.25000000  0.75000000  0.13165000  1.0
  In  In11  1  0.75000000  0.75000000  0.13165000  1.0
  In  In12  1  0.50000000  0.27130000  0.85249000  1.0
  In  In13  1  0.00000000  0.27063000  0.85070000  1.0
  In  In14  1  0.74905000  0.75723000  0.95512000  1.0
  In  In15  1  0.25095000  0.75723000  0.95512000  1.0
  Cu  Cu16  1  0.00000000  0.00000000  0.13165000  1.0
  Cu  Cu17  1  0.50000000  0.00000000  0.13165000  1.0
  Cu  Cu18  1  0.75000000  0.50000000  0.04388000  1.0
  Cu  Cu19  1  0.25000000  0.50000000  0.04388000  1.0
  Cu  Cu20  1  0.50000000  0.00544000  0.95398000  1.0
  Cu  Cu21  1  0.00000000  0.00185000  0.95620000  1.0
  Cu  Cu22  1  0.24868000  0.51027000  0.87648000  1.0
  Cu  Cu23  1  0.75132000  0.51027000  0.87648000  1.0
  Sn  Sn24  1  0.00000000  0.75000000  0.04388000  1.0
  Sn  Sn25  1  0.50000000  0.75000000  0.04388000  1.0
  Sn  Sn26  1  0.25000000  0.25000000  0.13165000  1.0
  Sn  Sn27  1  0.75000000  0.25000000  0.13165000  1.0
  Sn  Sn28  1  0.50000000  0.74029000  0.86487000  1.0
  Sn  Sn29  1  0.00000000  0.74264000  0.86535000  1.0
  Sn  Sn30  1  0.75018000  0.23389000  0.95009000  1.0
  Sn  Sn31  1  0.24982000  0.23389000  0.95009000  1.0
  C  C32  1  0.00000000  0.65202000  0.72442000  1.0
  O  O33  1  0.00000000  0.79115000  0.70092000  1.0
