# generated using pymatgen
data_Li8Mg8Sb8Pd8C
_symmetry_space_group_name_H-M   Pm
_cell_length_a   6.57147000
_cell_length_b   9.29346000
_cell_length_c   26.97010000
_cell_angle_alpha   90.00000000
_cell_angle_beta   90.00000000
_cell_angle_gamma   90.00000000
_symmetry_Int_Tables_number   6
_chemical_formula_structural   Li8Mg8Sb8Pd8C
_chemical_formula_sum   'Li8 Mg8 Sb8 Pd8 C1'
_cell_volume   1647.10968319
_cell_formula_units_Z   1
loop_
 _symmetry_equiv_pos_site_id
 _symmetry_equiv_pos_as_xyz
  1  'x, y, z'
  2  'x, -y, z'
loop_
 _atom_site_type_symbol
 _atom_site_label
 _atom_site_symmetry_multiplicity
 _atom_site_fract_x
 _atom_site_fract_y
 _atom_site_fract_z
 _atom_site_occupancy
  Li  Li0  2  0.50000000  0.25000000  0.95693000  1.0
  Li  Li1  2  0.55772000  0.22407000  0.18350000  1.0
  Li  Li2  1  0.00000000  0.00000000  0.87078000  1.0
  Li  Li3  1  0.00000000  0.50000000  0.87078000  1.0
  Li  Li4  1  0.98364000  0.50000000  0.04783000  1.0
  Li  Li5  1  0.99460000  0.00000000  0.04444000  1.0
  Mg  Mg6  2  0.72622000  0.25232000  0.04736000  1.0
  Mg  Mg7  2  0.75000000  0.25000000  0.87078000  1.0
  Mg  Mg8  1  0.25000000  0.00000000  0.95693000  1.0
  Mg  Mg9  1  0.25000000  0.50000000  0.95693000  1.0
  Mg  Mg10  1  0.25732000  0.00000000  0.13404000  1.0
  Mg  Mg11  1  0.26166000  0.50000000  0.12754000  1.0
  Sb  Sb12  2  0.25000000  0.25000000  0.87078000  1.0
  Sb  Sb13  2  0.25337000  0.24975000  0.04521000  1.0
  Sb  Sb14  1  0.72594000  0.50000000  0.13566000  1.0
  Sb  Sb15  1  0.75000000  0.00000000  0.95693000  1.0
  Sb  Sb16  1  0.75000000  0.50000000  0.95693000  1.0
  Sb  Sb17  1  0.76816000  0.00000000  0.13049000  1.0
  Pd  Pd18  2  0.00000000  0.25000000  0.95693000  1.0
  Pd  Pd19  2  0.98841000  0.26200000  0.12155000  1.0
  Pd  Pd20  1  0.50000000  0.00000000  0.87078000  1.0
  Pd  Pd21  1  0.50000000  0.50000000  0.87078000  1.0
  Pd  Pd22  1  0.50116000  0.00000000  0.03928000  1.0
  Pd  Pd23  1  0.50223000  0.50000000  0.03811000  1.0
  C  C24  1  0.52096000  0.00000000  0.17958000  1.0
