# generated using pymatgen
data_Li8Y8Ge8Pb8CO
_symmetry_space_group_name_H-M   Pmm2
_cell_length_a   8.55406000
_cell_length_b   8.65500000
_cell_length_c   27.39600000
_cell_angle_alpha   90.00000000
_cell_angle_beta   90.00000000
_cell_angle_gamma   90.00000000
_symmetry_Int_Tables_number   25
_chemical_formula_structural   Li8Y8Ge8Pb8CO
_chemical_formula_sum   'Li8 Y8 Ge8 Pb8 C1 O1'
_cell_volume   2028.27352526
_cell_formula_units_Z   1
loop_
 _symmetry_equiv_pos_site_id
 _symmetry_equiv_pos_as_xyz
  1  'x, y, z'
  2  '-x, -y, z'
  3  '-x, y, z'
  4  'x, -y, z'
loop_
 _atom_site_type_symbol
 _atom_site_label
 _atom_site_symmetry_multiplicity
 _atom_site_fract_x
 _atom_site_fract_y
 _atom_site_fract_z
 _atom_site_occupancy
  Li  Li0  2  0.21331000  0.50000000  0.04492000  1.0
  Li  Li1  2  0.25000000  0.00000000  0.86502000  1.0
  Li  Li2  2  0.25000000  0.50000000  0.86502000  1.0
  Li  Li3  2  0.28895000  0.00000000  0.04453000  1.0
  Y  Y4  4  0.24659000  0.25069000  0.13667000  1.0
  Y  Y5  4  0.25000000  0.25000000  0.95501000  1.0
  Ge  Ge6  1  0.00000000  0.00000000  0.16842000  1.0
  Ge  Ge7  1  0.00000000  0.00000000  0.95501000  1.0
  Ge  Ge8  1  0.00000000  0.50000000  0.12355000  1.0
  Ge  Ge9  1  0.00000000  0.50000000  0.95501000  1.0
  Ge  Ge10  1  0.50000000  0.00000000  0.12474000  1.0
  Ge  Ge11  1  0.50000000  0.00000000  0.95501000  1.0
  Ge  Ge12  1  0.50000000  0.50000000  0.14334000  1.0
  Ge  Ge13  1  0.50000000  0.50000000  0.95501000  1.0
  Pb  Pb14  2  0.00000000  0.21348000  0.04813000  1.0
  Pb  Pb15  2  0.00000000  0.25000000  0.86502000  1.0
  Pb  Pb16  2  0.50000000  0.25000000  0.86502000  1.0
  Pb  Pb17  2  0.50000000  0.28076000  0.04839000  1.0
  C  C18  1  0.00000000  0.00000000  0.23895000  1.0
  O  O19  1  0.00000000  0.00000000  0.28152000  1.0
