# generated using pymatgen
data_Li4In4Ge4Pd4C
_symmetry_space_group_name_H-M   'P 1'
_cell_length_a   6.51863000
_cell_length_b   6.51863000
_cell_length_c   24.88900000
_cell_angle_alpha   90.00000000
_cell_angle_beta   90.00000000
_cell_angle_gamma   90.00000000
_symmetry_Int_Tables_number   1
_chemical_formula_structural   Li4In4Ge4Pd4C
_chemical_formula_sum   'Li4 In4 Ge4 Pd4 C1'
_cell_volume   1057.59675531
_cell_formula_units_Z   1
loop_
 _symmetry_equiv_pos_site_id
 _symmetry_equiv_pos_as_xyz
  1  'x, y, z'
loop_
 _atom_site_type_symbol
 _atom_site_label
 _atom_site_symmetry_multiplicity
 _atom_site_fract_x
 _atom_site_fract_y
 _atom_site_fract_z
 _atom_site_occupancy
  Li  Li0  1  0.75000000  0.25000000  0.96726000  1
  Li  Li1  1  0.27007000  0.27007000  0.11271000  1
  Li  Li2  1  0.72993000  0.72993000  0.11271000  1
  Li  Li3  1  0.25000000  0.75000000  0.96726000  1
  In  In4  1  0.50000000  0.50000000  0.90178000  1
  In  In5  1  0.00000000  0.50000000  0.03130000  1
  In  In6  1  0.50000000  0.00000000  0.03130000  1
  In  In7  1  0.00000000  0.00000000  0.90178000  1
  Ge  Ge8  1  0.00000000  0.50000000  0.90178000  1
  Ge  Ge9  1  0.50000000  0.50000000  0.02495000  1
  Ge  Ge10  1  0.00000000  0.00000000  0.04868000  1
  Ge  Ge11  1  0.50000000  0.00000000  0.90178000  1
  Pd  Pd12  1  0.75000000  0.75000000  0.96726000  1
  Pd  Pd13  1  0.26513500  0.73486500  0.08961000  1
  Pd  Pd14  1  0.73486500  0.26513500  0.08961000  1
  Pd  Pd15  1  0.25000000  0.25000000  0.96726000  1
  C  C16  1  0.50000000  0.50000000  0.10288000  1
