data_image0
_chemical_formula_structural       Y16Zn16CO
_chemical_formula_sum              "Y16 Zn16 C1 O1"
_cell_length_a       7.16718
_cell_length_b       10.1359
_cell_length_c       27.6019
_cell_angle_alpha    90
_cell_angle_beta     90
_cell_angle_gamma    90

_space_group_name_H-M_alt    "P 1"
_space_group_IT_number       1

loop_
  _space_group_symop_operation_xyz
  'x, y, z'

loop_
  _atom_site_type_symbol
  _atom_site_label
  _atom_site_symmetry_multiplicity
  _atom_site_fract_x
  _atom_site_fract_y
  _atom_site_fract_z
  _atom_site_occupancy
  Y   Y1        1.0  0.00000  0.00000  0.86229  1.0000
  Y   Y2        1.0  0.00000  0.25000  0.95410  1.0000
  Y   Y3        1.0  0.00070  0.00001  0.04393  1.0000
  Y   Y4        1.0  0.99951  0.25039  0.13589  1.0000
  Y   Y5        1.0  0.00000  0.50000  0.86229  1.0000
  Y   Y6        1.0  0.00000  0.75000  0.95410  1.0000
  Y   Y7        1.0  0.99958  0.50000  0.04344  1.0000
  Y   Y8        1.0  0.99948  0.74959  0.13588  1.0000
  Y   Y9        1.0  0.50000  0.00000  0.86229  1.0000
  Y   Y10       1.0  0.50000  0.25000  0.95410  1.0000
  Y   Y11       1.0  0.49930  0.00000  0.04393  1.0000
  Y   Y12       1.0  0.50050  0.25039  0.13589  1.0000
  Y   Y13       1.0  0.50000  0.50000  0.86229  1.0000
  Y   Y14       1.0  0.50000  0.75000  0.95410  1.0000
  Y   Y15       1.0  0.50042  0.50000  0.04344  1.0000
  Y   Y16       1.0  0.50052  0.74960  0.13588  1.0000
  Zn  Zn1       1.0  0.25000  0.25000  0.86229  1.0000
  Zn  Zn2       1.0  0.25000  0.00000  0.95410  1.0000
  Zn  Zn3       1.0  0.25001  0.25565  0.04402  1.0000
  Zn  Zn4       1.0  0.25000  0.49990  0.13456  1.0000
  Zn  Zn5       1.0  0.25000  0.75000  0.86229  1.0000
  Zn  Zn6       1.0  0.25000  0.50000  0.95410  1.0000
  Zn  Zn7       1.0  0.25000  0.74434  0.04401  1.0000
  Zn  Zn8       1.0  0.25000  0.00005  0.13216  1.0000
  Zn  Zn9       1.0  0.75000  0.25000  0.86229  1.0000
  Zn  Zn10      1.0  0.75000  0.00000  0.95410  1.0000
  Zn  Zn11      1.0  0.75000  0.24879  0.04550  1.0000
  Zn  Zn12      1.0  0.75000  0.49993  0.13312  1.0000
  Zn  Zn13      1.0  0.75000  0.75000  0.86229  1.0000
  Zn  Zn14      1.0  0.75000  0.50000  0.95410  1.0000
  Zn  Zn15      1.0  0.75000  0.75121  0.04548  1.0000
  Zn  Zn16      1.0  0.75000  0.00008  0.13456  1.0000
  C   C1        1.0  0.25000  0.00000  0.20373  1.0000
  O   O1        1.0  0.25000  0.00000  0.24613  1.0000
