# generated using pymatgen
data_Y16Zn16CO
_symmetry_space_group_name_H-M   'P 1'
_cell_length_a   10.13590000
_cell_length_b   7.16718000
_cell_length_c   27.60190000
_cell_angle_alpha   90.00000000
_cell_angle_beta   90.00000000
_cell_angle_gamma   90.00000000
_symmetry_Int_Tables_number   1
_chemical_formula_structural   Y16Zn16CO
_chemical_formula_sum   'Y16 Zn16 C1 O1'
_cell_volume   2005.16265249
_cell_formula_units_Z   1
loop_
 _symmetry_equiv_pos_site_id
 _symmetry_equiv_pos_as_xyz
  1  'x, y, z'
loop_
 _atom_site_type_symbol
 _atom_site_label
 _atom_site_symmetry_multiplicity
 _atom_site_fract_x
 _atom_site_fract_y
 _atom_site_fract_z
 _atom_site_occupancy
  Y  Y0  1  0.00000000  0.75000000  0.13771000  1.0
  Y  Y1  1  0.25000000  0.75000000  0.04590000  1.0
  Y  Y2  1  0.00001000  0.74930000  0.95607000  1.0
  Y  Y3  1  0.25039000  0.75049000  0.86411000  1.0
  Y  Y4  1  0.50000000  0.75000000  0.13771000  1.0
  Y  Y5  1  0.75000000  0.75000000  0.04590000  1.0
  Y  Y6  1  0.50000000  0.75042000  0.95656000  1.0
  Y  Y7  1  0.74959000  0.75052000  0.86412000  1.0
  Y  Y8  1  0.00000000  0.25000000  0.13771000  1.0
  Y  Y9  1  0.25000000  0.25000000  0.04590000  1.0
  Y  Y10  1  0.00001000  0.25070000  0.95607000  1.0
  Y  Y11  1  0.25039000  0.24951000  0.86411000  1.0
  Y  Y12  1  0.50000000  0.25000000  0.13771000  1.0
  Y  Y13  1  0.75000000  0.25000000  0.04590000  1.0
  Y  Y14  1  0.50000000  0.24958000  0.95656000  1.0
  Y  Y15  1  0.74959000  0.24948000  0.86412000  1.0
  Zn  Zn16  1  0.25000000  0.50000000  0.13771000  1.0
  Zn  Zn17  1  0.00000000  0.50000000  0.04590000  1.0
  Zn  Zn18  1  0.25565000  0.50000000  0.95598000  1.0
  Zn  Zn19  1  0.49990000  0.50000000  0.86544000  1.0
  Zn  Zn20  1  0.75000000  0.50000000  0.13771000  1.0
  Zn  Zn21  1  0.50000000  0.50000000  0.04590000  1.0
  Zn  Zn22  1  0.74434000  0.50000000  0.95599000  1.0
  Zn  Zn23  1  0.00005000  0.50000000  0.86784000  1.0
  Zn  Zn24  1  0.25000000  0.00000000  0.13771000  1.0
  Zn  Zn25  1  0.00000000  0.00000000  0.04590000  1.0
  Zn  Zn26  1  0.24879000  0.00000000  0.95450000  1.0
  Zn  Zn27  1  0.49993000  0.00000000  0.86688000  1.0
  Zn  Zn28  1  0.75000000  0.00000000  0.13771000  1.0
  Zn  Zn29  1  0.50000000  0.00000000  0.04590000  1.0
  Zn  Zn30  1  0.75121000  0.00000000  0.95452000  1.0
  Zn  Zn31  1  0.00008000  0.00000000  0.86544000  1.0
  C  C32  1  0.00000000  0.50000000  0.79627000  1.0
  O  O33  1  0.00000000  0.50000000  0.75387000  1.0
