# generated using pymatgen
data_Li4Y4In4Sn4CO
_symmetry_space_group_name_H-M   Pm
_cell_length_a   6.33264000
_cell_length_b   9.36656000
_cell_length_c   24.74860000
_cell_angle_alpha   90.00000000
_cell_angle_beta   90.00000000
_cell_angle_gamma   90.00000000
_symmetry_Int_Tables_number   6
_chemical_formula_structural   Li4Y4In4Sn4CO
_chemical_formula_sum   'Li4 Y4 In4 Sn4 C1 O1'
_cell_volume   1467.96450876
_cell_formula_units_Z   1
loop_
 _symmetry_equiv_pos_site_id
 _symmetry_equiv_pos_as_xyz
  1  'x, y, z'
  2  'x, -y, z'
loop_
 _atom_site_type_symbol
 _atom_site_label
 _atom_site_symmetry_multiplicity
 _atom_site_fract_x
 _atom_site_fract_y
 _atom_site_fract_z
 _atom_site_occupancy
  Li  Li0  2  0.50000000  0.24999000  0.90406000  1.0
  Li  Li1  2  0.92264000  0.24830000  0.02900000  1.0
  Y  Y2  1  0.24516000  0.00000000  0.96802000  1.0
  Y  Y3  1  0.24516000  0.50000000  0.96802000  1.0
  Y  Y4  1  0.65998000  0.00000000  0.10292000  1.0
  Y  Y5  1  0.66058000  0.50000000  0.09707000  1.0
  In  In6  2  0.00000000  0.24999000  0.90406000  1.0
  In  In7  2  0.40093000  0.25028000  0.04775000  1.0
  Sn  Sn8  1  0.16011000  0.00000000  0.10138000  1.0
  Sn  Sn9  1  0.17554000  0.50000000  0.10629000  1.0
  Sn  Sn10  1  0.74516000  0.00000000  0.96802000  1.0
  Sn  Sn11  1  0.74516000  0.50000000  0.96802000  1.0
  C  C12  1  0.47024000  0.00000000  0.18922000  1.0
  O  O13  1  0.39499000  0.00000000  0.23190000  1.0
