data_image0
_chemical_formula_structural       MnPdMnPdMnPdMnPdMnPdMnPdMnPdMnPdCO
_chemical_formula_sum              "Mn8 Pd8 C1 O1"
_cell_length_a       6.32195
_cell_length_b       6.32195
_cell_length_c       24.7415
_cell_angle_alpha    90
_cell_angle_beta     90
_cell_angle_gamma    90

_space_group_name_H-M_alt    "P 1"
_space_group_IT_number       1

loop_
  _space_group_symop_operation_xyz
  'x, y, z'

loop_
  _atom_site_type_symbol
  _atom_site_label
  _atom_site_symmetry_multiplicity
  _atom_site_fract_x
  _atom_site_fract_y
  _atom_site_fract_z
  _atom_site_occupancy
  Mn  Mn1       1.0  0.00000  0.00000  0.89399  1.0000
  Pd  Pd1       1.0  0.25000  0.25000  0.95787  1.0000
  Mn  Mn2       1.0  0.00000  0.00000  0.02175  1.0000
  Pd  Pd2       1.0  0.25000  0.25000  0.08563  1.0000
  Mn  Mn3       1.0  0.00000  0.50000  0.89399  1.0000
  Pd  Pd3       1.0  0.25000  0.75000  0.95787  1.0000
  Mn  Mn4       1.0  0.00000  0.50000  0.02175  1.0000
  Pd  Pd4       1.0  0.25000  0.75000  0.08563  1.0000
  Mn  Mn5       1.0  0.50000  0.00000  0.89399  1.0000
  Pd  Pd5       1.0  0.75000  0.25000  0.95787  1.0000
  Mn  Mn6       1.0  0.50000  0.00000  0.02175  1.0000
  Pd  Pd6       1.0  0.75000  0.25000  0.08563  1.0000
  Mn  Mn7       1.0  0.50000  0.50000  0.89399  1.0000
  Pd  Pd7       1.0  0.75000  0.75000  0.95787  1.0000
  Mn  Mn8       1.0  0.50000  0.50000  0.02175  1.0000
  Pd  Pd8       1.0  0.75000  0.75000  0.08563  1.0000
  C   C1        1.0  0.25000  0.25000  0.16242  1.0000
  O   O1        1.0  0.25000  0.25000  0.20890  1.0000
