# generated using pymatgen
data_Y4Sc4Ga4Pd4C
_symmetry_space_group_name_H-M   'P 1'
_cell_length_a   9.85606000
_cell_length_b   5.91305000
_cell_length_c   24.24990000
_cell_angle_alpha   90.00000000
_cell_angle_beta   90.00000000
_cell_angle_gamma   90.00000000
_symmetry_Int_Tables_number   1
_chemical_formula_structural   Y4Sc4Ga4Pd4C
_chemical_formula_sum   'Y4 Sc4 Ga4 Pd4 C1'
_cell_volume   1413.26902995
_cell_formula_units_Z   1
loop_
 _symmetry_equiv_pos_site_id
 _symmetry_equiv_pos_as_xyz
  1  'x, y, z'
loop_
 _atom_site_type_symbol
 _atom_site_label
 _atom_site_symmetry_multiplicity
 _atom_site_fract_x
 _atom_site_fract_y
 _atom_site_fract_z
 _atom_site_occupancy
  Y  Y0  1  0.25000000  0.17857000  0.02921000  1.0
  Y  Y1  1  0.22683000  0.51776000  0.90544000  1.0
  Y  Y2  1  0.75000000  0.17857000  0.02921000  1.0
  Y  Y3  1  0.77317000  0.51776000  0.90544000  1.0
  Sc  Sc4  1  0.00000000  0.50000000  0.08763000  1.0
  Sc  Sc5  1  0.00000000  0.84388000  0.96676000  1.0
  Sc  Sc6  1  0.50000000  0.50000000  0.08763000  1.0
  Sc  Sc7  1  0.50000000  0.79916000  0.97508000  1.0
  Ga  Ga8  1  0.00000000  0.00000000  0.08763000  1.0
  Ga  Ga9  1  0.00000000  0.35679000  0.97543000  1.0
  Ga  Ga10  1  0.50000000  0.00000000  0.08763000  1.0
  Ga  Ga11  1  0.50000000  0.30680000  0.95682000  1.0
  Pd  Pd12  1  0.25000000  0.67857000  0.02921000  1.0
  Pd  Pd13  1  0.28520000  0.00953000  0.92582000  1.0
  Pd  Pd14  1  0.75000000  0.67857000  0.02921000  1.0
  Pd  Pd15  1  0.71480000  0.00953000  0.92582000  1.0
  C  C16  1  0.00000000  0.58031000  0.90863000  1.0
