data_image0
_chemical_formula_structural       YScGaPdYScGaPdYScGaPdYScGaPdC
_chemical_formula_sum              "Y4 Sc4 Ga4 Pd4 C1"
_cell_length_a       5.91305
_cell_length_b       9.85606
_cell_length_c       24.2499
_cell_angle_alpha    90
_cell_angle_beta     90
_cell_angle_gamma    90

_space_group_name_H-M_alt    "P 1"
_space_group_IT_number       1

loop_
  _space_group_symop_operation_xyz
  'x, y, z'

loop_
  _atom_site_type_symbol
  _atom_site_label
  _atom_site_symmetry_multiplicity
  _atom_site_fract_x
  _atom_site_fract_y
  _atom_site_fract_z
  _atom_site_occupancy
  Y   Y1        1.0  0.17857  0.25000  0.97079  1.0000
  Sc  Sc1       1.0  0.50000  0.00000  0.91237  1.0000
  Ga  Ga1       1.0  0.00000  0.00000  0.91237  1.0000
  Pd  Pd1       1.0  0.67857  0.25000  0.97079  1.0000
  Y   Y2        1.0  0.53570  0.25000  0.08763  1.0000
  Sc  Sc2       1.0  0.85713  0.00000  0.02921  1.0000
  Ga  Ga2       1.0  0.35713  0.00000  0.02921  1.0000
  Pd  Pd2       1.0  0.03570  0.25000  0.08763  1.0000
  Y   Y3        1.0  0.17857  0.75000  0.97079  1.0000
  Sc  Sc3       1.0  0.50000  0.50000  0.91237  1.0000
  Ga  Ga3       1.0  0.00000  0.50000  0.91237  1.0000
  Pd  Pd3       1.0  0.67857  0.75000  0.97079  1.0000
  Y   Y4        1.0  0.53570  0.75000  0.08763  1.0000
  Sc  Sc4       1.0  0.85713  0.50000  0.02921  1.0000
  Ga  Ga4       1.0  0.35713  0.50000  0.02921  1.0000
  Pd  Pd4       1.0  0.03570  0.75000  0.08763  1.0000
  C   C1        1.0  0.85713  0.00000  0.12062  1.0000
