# generated using pymatgen
data_Y4Sc4Ga4Pd4C
_symmetry_space_group_name_H-M   Pm
_cell_length_a   5.91305000
_cell_length_b   9.85606000
_cell_length_c   24.24990000
_cell_angle_alpha   90.00000000
_cell_angle_beta   90.00000000
_cell_angle_gamma   90.00000000
_symmetry_Int_Tables_number   6
_chemical_formula_structural   Y4Sc4Ga4Pd4C
_chemical_formula_sum   'Y4 Sc4 Ga4 Pd4 C1'
_cell_volume   1413.26902995
_cell_formula_units_Z   1
loop_
 _symmetry_equiv_pos_site_id
 _symmetry_equiv_pos_as_xyz
  1  'x, y, z'
  2  'x, -y, z'
loop_
 _atom_site_type_symbol
 _atom_site_label
 _atom_site_symmetry_multiplicity
 _atom_site_fract_x
 _atom_site_fract_y
 _atom_site_fract_z
 _atom_site_occupancy
  Y  Y0  2  0.17857000  0.25000000  0.97079000  1.0
  Y  Y1  2  0.51776000  0.22683000  0.09456000  1.0
  Sc  Sc2  1  0.50000000  0.00000000  0.91237000  1.0
  Sc  Sc3  1  0.50000000  0.50000000  0.91237000  1.0
  Sc  Sc4  1  0.79916000  0.50000000  0.02492000  1.0
  Sc  Sc5  1  0.84388000  0.00000000  0.03324000  1.0
  Ga  Ga6  1  0.00000000  0.00000000  0.91237000  1.0
  Ga  Ga7  1  0.00000000  0.50000000  0.91237000  1.0
  Ga  Ga8  1  0.30680000  0.50000000  0.04318000  1.0
  Ga  Ga9  1  0.35679000  0.00000000  0.02457000  1.0
  Pd  Pd10  2  0.00953000  0.28520000  0.07418000  1.0
  Pd  Pd11  2  0.67857000  0.25000000  0.97079000  1.0
  C  C12  1  0.58031000  0.00000000  0.09137000  1.0
