# generated using pymatgen
data_Li4Ge4Pd4Pt4CO
_symmetry_space_group_name_H-M   'P 1'
_cell_length_a   6.12898000
_cell_length_b   6.12898000
_cell_length_c   24.59670000
_cell_angle_alpha   90.00000000
_cell_angle_beta   90.00000000
_cell_angle_gamma   90.00000000
_symmetry_Int_Tables_number   1
_chemical_formula_structural   Li4Ge4Pd4Pt4CO
_chemical_formula_sum   'Li4 Ge4 Pd4 Pt4 C1 O1'
_cell_volume   923.96017517
_cell_formula_units_Z   1
loop_
 _symmetry_equiv_pos_site_id
 _symmetry_equiv_pos_as_xyz
  1  'x, y, z'
loop_
 _atom_site_type_symbol
 _atom_site_label
 _atom_site_symmetry_multiplicity
 _atom_site_fract_x
 _atom_site_fract_y
 _atom_site_fract_z
 _atom_site_occupancy
  Li  Li0  1  0.00000000  0.50000000  0.09344000  1
  Li  Li1  1  0.00290000  0.00290000  0.96671000  1
  Li  Li2  1  0.49778000  0.49778000  0.96636000  1
  Li  Li3  1  0.50000000  0.00000000  0.09344000  1
  Ge  Ge4  1  0.00000000  0.00000000  0.09344000  1
  Ge  Ge5  1  0.00372000  0.49643000  0.96550000  1
  Ge  Ge6  1  0.49643000  0.00372000  0.96550000  1
  Ge  Ge7  1  0.50000000  0.50000000  0.09344000  1
  Pd  Pd8  1  0.75000000  0.75000000  0.03115000  1
  Pd  Pd9  1  0.74997000  0.24998000  0.90692000  1
  Pd  Pd10  1  0.24998000  0.74997000  0.90692000  1
  Pd  Pd11  1  0.25000000  0.25000000  0.03115000  1
  Pt  Pt12  1  0.25000000  0.75000000  0.03115000  1
  Pt  Pt13  1  0.24985500  0.24985500  0.90952000  1
  Pt  Pt14  1  0.75009000  0.75009000  0.90714000  1
  Pt  Pt15  1  0.75000000  0.25000000  0.03115000  1
  C  C16  1  0.75030000  0.75030000  0.82990000  1
  O  O17  1  0.75000000  0.75000000  0.78309000  1
