# generated using pymatgen
data_Li4Ge4Pd4Pt4CO
_symmetry_space_group_name_H-M   Cm
_cell_length_a   8.66768664
_cell_length_b   8.66768664
_cell_length_c   24.59670000
_cell_angle_alpha   90.00000000
_cell_angle_beta   90.00000000
_cell_angle_gamma   90.00000000
_symmetry_Int_Tables_number   8
_chemical_formula_structural   Li4Ge4Pd4Pt4CO
_chemical_formula_sum   'Li8 Ge8 Pd8 Pt8 C2 O2'
_cell_volume   1847.92035034
_cell_formula_units_Z   2
loop_
 _symmetry_equiv_pos_site_id
 _symmetry_equiv_pos_as_xyz
  1  'x, y, z'
  2  'x, -y, z'
  3  'x+1/2, y+1/2, z'
  4  'x+1/2, -y+1/2, z'
loop_
 _atom_site_type_symbol
 _atom_site_label
 _atom_site_symmetry_multiplicity
 _atom_site_fract_x
 _atom_site_fract_y
 _atom_site_fract_z
 _atom_site_occupancy
  Li  Li0  4  0.25000000  0.25000000  0.90656000  1.0
  Li  Li1  2  0.00290000  0.00000000  0.03329000  1.0
  Li  Li2  2  0.49778000  0.00000000  0.03364000  1.0
  Ge  Ge3  4  0.25007500  0.24635500  0.03450000  1.0
  Ge  Ge4  2  0.00000000  0.00000000  0.90656000  1.0
  Ge  Ge5  2  0.00000000  0.50000000  0.90656000  1.0
  Pd  Pd6  4  0.49997500  0.24999500  0.09308000  1.0
  Pd  Pd7  2  0.25000000  0.00000000  0.96885000  1.0
  Pd  Pd8  2  0.25000000  0.50000000  0.96885000  1.0
  Pt  Pt9  4  0.00000000  0.25000000  0.96885000  1.0
  Pt  Pt10  2  0.24985500  0.00000000  0.09048000  1.0
  Pt  Pt11  2  0.25009000  0.50000000  0.09286000  1.0
  C  C12  2  0.25030000  0.50000000  0.17010000  1.0
  O  O13  2  0.25000000  0.50000000  0.21691000  1.0
