# generated using pymatgen
data_Y4Ga4Sn4Pd4CO
_symmetry_space_group_name_H-M   'P 1'
_cell_length_a   6.14219000
_cell_length_b   8.88338000
_cell_length_c   24.60430000
_cell_angle_alpha   90.00000000
_cell_angle_beta   90.00000000
_cell_angle_gamma   90.00000000
_symmetry_Int_Tables_number   1
_chemical_formula_structural   Y4Ga4Sn4Pd4CO
_chemical_formula_sum   'Y4 Ga4 Sn4 Pd4 C1 O1'
_cell_volume   1342.49445459
_cell_formula_units_Z   1
loop_
 _symmetry_equiv_pos_site_id
 _symmetry_equiv_pos_as_xyz
  1  'x, y, z'
loop_
 _atom_site_type_symbol
 _atom_site_label
 _atom_site_symmetry_multiplicity
 _atom_site_fract_x
 _atom_site_fract_y
 _atom_site_fract_z
 _atom_site_occupancy
  Y  Y0  1  0.73854000  0.74974000  0.02735000  1.0
  Y  Y1  1  0.27413000  0.75000000  0.90643000  1.0
  Y  Y2  1  0.73852000  0.25022000  0.02736000  1.0
  Y  Y3  1  0.27413000  0.25000000  0.90643000  1.0
  Ga  Ga4  1  0.99721000  0.00002000  0.08605000  1.0
  Ga  Ga5  1  0.51609000  0.00000000  0.96881000  1.0
  Ga  Ga6  1  0.99336000  0.49996000  0.08697000  1.0
  Ga  Ga7  1  0.51609000  0.50000000  0.96881000  1.0
  Sn  Sn8  1  0.44628000  0.00001000  0.08678000  1.0
  Sn  Sn9  1  0.01609000  0.00000000  0.96881000  1.0
  Sn  Sn10  1  0.44196000  0.50001000  0.08728000  1.0
  Sn  Sn11  1  0.01609000  0.50000000  0.96881000  1.0
  Pd  Pd12  1  0.23316000  0.75035000  0.03359000  1.0
  Pd  Pd13  1  0.77413000  0.75000000  0.90643000  1.0
  Pd  Pd14  1  0.23313000  0.24965000  0.03360000  1.0
  Pd  Pd15  1  0.77413000  0.25000000  0.90643000  1.0
  C  C16  1  0.07437000  0.00016000  0.22551000  1.0
  O  O17  1  0.93513000  0.99998000  0.25588000  1.0
