# generated using pymatgen
data_Y4Ga4Sn4Pd4CO
_symmetry_space_group_name_H-M   P1
_cell_length_a   6.14219000
_cell_length_b   8.88338000
_cell_length_c   24.60430000
_cell_angle_alpha   90.00000000
_cell_angle_beta   90.00000000
_cell_angle_gamma   90.00000000
_symmetry_Int_Tables_number   1
_chemical_formula_structural   Y4Ga4Sn4Pd4CO
_chemical_formula_sum   'Y4 Ga4 Sn4 Pd4 C1 O1'
_cell_volume   1342.49445459
_cell_formula_units_Z   1
loop_
 _symmetry_equiv_pos_site_id
 _symmetry_equiv_pos_as_xyz
  1  'x, y, z'
loop_
 _atom_site_type_symbol
 _atom_site_label
 _atom_site_symmetry_multiplicity
 _atom_site_fract_x
 _atom_site_fract_y
 _atom_site_fract_z
 _atom_site_occupancy
  Y  Y0  1  0.26146000  0.25026000  0.02735000  1.0
  Y  Y1  1  0.26148000  0.74978000  0.02736000  1.0
  Y  Y2  1  0.72587000  0.25000000  0.90643000  1.0
  Y  Y3  1  0.72587000  0.75000000  0.90643000  1.0
  Ga  Ga4  1  0.00279000  0.99998000  0.08605000  1.0
  Ga  Ga5  1  0.00664000  0.50004000  0.08697000  1.0
  Ga  Ga6  1  0.48391000  0.00000000  0.96881000  1.0
  Ga  Ga7  1  0.48391000  0.50000000  0.96881000  1.0
  Sn  Sn8  1  0.55372000  0.99999000  0.08678000  1.0
  Sn  Sn9  1  0.55804000  0.49999000  0.08728000  1.0
  Sn  Sn10  1  0.98391000  0.00000000  0.96881000  1.0
  Sn  Sn11  1  0.98391000  0.50000000  0.96881000  1.0
  Pd  Pd12  1  0.22587000  0.25000000  0.90643000  1.0
  Pd  Pd13  1  0.22587000  0.75000000  0.90643000  1.0
  Pd  Pd14  1  0.76684000  0.24965000  0.03359000  1.0
  Pd  Pd15  1  0.76687000  0.75035000  0.03360000  1.0
  C  C16  1  0.92563000  0.99984000  0.22551000  1.0
  O  O17  1  0.06487000  0.00002000  0.25588000  1.0
