data_image0
_chemical_formula_structural       Ga4Fe12Ga4Fe12CO
_chemical_formula_sum              "Ga8 Fe24 C1 O1"
_cell_length_a       5.81108
_cell_length_b       8.21811
_cell_length_c       26.1636
_cell_angle_alpha    90
_cell_angle_beta     90
_cell_angle_gamma    90

_space_group_name_H-M_alt    "P 1"
_space_group_IT_number       1

loop_
  _space_group_symop_operation_xyz
  'x, y, z'

loop_
  _atom_site_type_symbol
  _atom_site_label
  _atom_site_symmetry_multiplicity
  _atom_site_fract_x
  _atom_site_fract_y
  _atom_site_fract_z
  _atom_site_occupancy
  Ga  Ga1       1.0  0.00000  0.00000  0.88221  1.0000
  Ga  Ga2       1.0  0.50000  0.25000  0.96074  1.0000
  Ga  Ga3       1.0  0.50000  0.75000  0.96074  1.0000
  Ga  Ga4       1.0  0.00000  0.50000  0.88221  1.0000
  Fe  Fe1       1.0  0.25000  0.00000  0.96074  1.0000
  Fe  Fe2       1.0  0.75000  0.50000  0.96074  1.0000
  Fe  Fe3       1.0  0.75000  0.00000  0.96074  1.0000
  Fe  Fe4       1.0  0.25000  0.50000  0.96074  1.0000
  Fe  Fe5       1.0  0.75000  0.75000  0.88221  1.0000
  Fe  Fe6       1.0  0.25000  0.25000  0.88221  1.0000
  Fe  Fe7       1.0  0.25000  0.75000  0.88221  1.0000
  Fe  Fe8       1.0  0.75000  0.25000  0.88221  1.0000
  Fe  Fe9       1.0  0.00000  0.75000  0.96074  1.0000
  Fe  Fe10      1.0  0.50000  0.00000  0.88221  1.0000
  Fe  Fe11      1.0  0.00000  0.25000  0.96074  1.0000
  Fe  Fe12      1.0  0.50000  0.50000  0.88221  1.0000
  Ga  Ga5       1.0  0.00000  0.50000  0.03926  1.0000
  Ga  Ga6       1.0  0.50000  0.75000  0.11779  1.0000
  Ga  Ga7       1.0  0.50000  0.25000  0.11779  1.0000
  Ga  Ga8       1.0  0.00000  1.00000  0.03926  1.0000
  Fe  Fe13      1.0  0.25000  0.50000  0.11779  1.0000
  Fe  Fe14      1.0  0.75000  1.00000  0.11779  1.0000
  Fe  Fe15      1.0  0.75000  0.50000  0.11779  1.0000
  Fe  Fe16      1.0  0.25000  1.00000  0.11779  1.0000
  Fe  Fe17      1.0  0.75000  0.25000  0.03926  1.0000
  Fe  Fe18      1.0  0.25000  0.75000  0.03926  1.0000
  Fe  Fe19      1.0  0.25000  0.25000  0.03926  1.0000
  Fe  Fe20      1.0  0.75000  0.75000  0.03926  1.0000
  Fe  Fe21      1.0  0.00000  0.25000  0.11779  1.0000
  Fe  Fe22      1.0  0.50000  0.50000  0.03926  1.0000
  Fe  Fe23      1.0  0.00000  0.75000  0.11779  1.0000
  Fe  Fe24      1.0  0.50000  0.00000  0.03926  1.0000
  C   C1        1.0  0.00000  0.25000  0.19041  1.0000
  O   O1        1.0  0.00000  0.25000  0.23436  1.0000
