# generated using pymatgen
data_Li8Ni16Ge8C
_symmetry_space_group_name_H-M   Pmm2
_cell_length_a   5.73354000
_cell_length_b   8.10846000
_cell_length_c   26.08130000
_cell_angle_alpha   90.00000000
_cell_angle_beta   90.00000000
_cell_angle_gamma   90.00000000
_symmetry_Int_Tables_number   25
_chemical_formula_structural   Li8Ni16Ge8C
_chemical_formula_sum   'Li8 Ni16 Ge8 C1'
_cell_volume   1212.52432507
_cell_formula_units_Z   1
loop_
 _symmetry_equiv_pos_site_id
 _symmetry_equiv_pos_as_xyz
  1  'x, y, z'
  2  '-x, -y, z'
  3  '-x, y, z'
  4  'x, -y, z'
loop_
 _atom_site_type_symbol
 _atom_site_label
 _atom_site_symmetry_multiplicity
 _atom_site_fract_x
 _atom_site_fract_y
 _atom_site_fract_z
 _atom_site_occupancy
  Li  Li0  2  0.50000000  0.25000000  0.96114000  1.0
  Li  Li1  2  0.50000000  0.25908000  0.13631000  1.0
  Li  Li2  1  0.00000000  0.00000000  0.03558000  1.0
  Li  Li3  1  0.00000000  0.00000000  0.88342000  1.0
  Li  Li4  1  0.00000000  0.50000000  0.03362000  1.0
  Li  Li5  1  0.00000000  0.50000000  0.88342000  1.0
  Ni  Ni6  4  0.25000000  0.25000000  0.88342000  1.0
  Ni  Ni7  4  0.25192000  0.24748000  0.04030000  1.0
  Ni  Ni8  2  0.20974000  0.00000000  0.11600000  1.0
  Ni  Ni9  2  0.23005000  0.50000000  0.10822000  1.0
  Ni  Ni10  2  0.25000000  0.00000000  0.96114000  1.0
  Ni  Ni11  2  0.25000000  0.50000000  0.96114000  1.0
  Ge  Ge12  2  0.00000000  0.25000000  0.96114000  1.0
  Ge  Ge13  2  0.00000000  0.25746000  0.11811000  1.0
  Ge  Ge14  1  0.50000000  0.00000000  0.03928000  1.0
  Ge  Ge15  1  0.50000000  0.00000000  0.88342000  1.0
  Ge  Ge16  1  0.50000000  0.50000000  0.03865000  1.0
  Ge  Ge17  1  0.50000000  0.50000000  0.88342000  1.0
  C  C18  1  0.50000000  0.00000000  0.13251000  1.0
