# generated using pymatgen
data_Li8Mg8Ge8Au8C
_symmetry_space_group_name_H-M   Pm
_cell_length_a   6.50951000
_cell_length_b   9.20584000
_cell_length_c   26.90440000
_cell_angle_alpha   90.00000000
_cell_angle_beta   90.00000000
_cell_angle_gamma   90.00000000
_symmetry_Int_Tables_number   6
_chemical_formula_structural   Li8Mg8Ge8Au8C
_chemical_formula_sum   'Li8 Mg8 Ge8 Au8 C1'
_cell_volume   1612.25982502
_cell_formula_units_Z   1
loop_
 _symmetry_equiv_pos_site_id
 _symmetry_equiv_pos_as_xyz
  1  'x, y, z'
  2  'x, -y, z'
loop_
 _atom_site_type_symbol
 _atom_site_label
 _atom_site_symmetry_multiplicity
 _atom_site_fract_x
 _atom_site_fract_y
 _atom_site_fract_z
 _atom_site_occupancy
  Li  Li0  2  0.74967000  0.28257000  0.13143000  1.0
  Li  Li1  2  0.75000000  0.25000000  0.95723000  1.0
  Li  Li2  1  0.23389000  0.50000000  0.03819000  1.0
  Li  Li3  1  0.25000000  0.00000000  0.87169000  1.0
  Li  Li4  1  0.25000000  0.50000000  0.87169000  1.0
  Li  Li5  1  0.25500000  0.00000000  0.04982000  1.0
  Mg  Mg6  2  0.24669000  0.23770000  0.13777000  1.0
  Mg  Mg7  2  0.25000000  0.25000000  0.95723000  1.0
  Mg  Mg8  1  0.74236000  0.00000000  0.03995000  1.0
  Mg  Mg9  1  0.75000000  0.00000000  0.87169000  1.0
  Mg  Mg10  1  0.75000000  0.50000000  0.87169000  1.0
  Mg  Mg11  1  0.75944000  0.50000000  0.04492000  1.0
  Ge  Ge12  2  0.49722000  0.25819000  0.04877000  1.0
  Ge  Ge13  2  0.50000000  0.25000000  0.87169000  1.0
  Ge  Ge14  1  -0.00000000  0.00000000  0.95723000  1.0
  Ge  Ge15  1  0.00000000  0.50000000  0.95723000  1.0
  Ge  Ge16  1  0.02752000  0.50000000  0.13445000  1.0
  Ge  Ge17  1  0.95486000  0.00000000  0.13262000  1.0
  Au  Au18  2  0.00000000  0.25000000  0.87169000  1.0
  Au  Au19  2  0.00075000  0.24601000  0.04638000  1.0
  Au  Au20  1  0.45098000  0.50000000  0.12007000  1.0
  Au  Au21  1  0.50000000  0.00000000  0.95723000  1.0
  Au  Au22  1  0.50000000  0.50000000  0.95723000  1.0
  Au  Au23  1  0.54796000  0.00000000  0.13308000  1.0
  C  C24  1  0.23061000  0.00000000  0.15506000  1.0
