data_image0
_chemical_formula_structural       Y4In4Sn4Pd4C
_chemical_formula_sum              "Y4 In4 Sn4 Pd4 C1"
_cell_length_a       8.73372
_cell_length_b       6.44465
_cell_length_c       24.8332
_cell_angle_alpha    90
_cell_angle_beta     90
_cell_angle_gamma    90

_space_group_name_H-M_alt    "P 1"
_space_group_IT_number       1

loop_
  _space_group_symop_operation_xyz
  'x, y, z'

loop_
  _atom_site_type_symbol
  _atom_site_label
  _atom_site_symmetry_multiplicity
  _atom_site_fract_x
  _atom_site_fract_y
  _atom_site_fract_z
  _atom_site_occupancy
  Y   Y1        1.0  0.04040  0.49258  0.09704  1.0000
  Y   Y2        1.0  0.00000  0.99451  0.96756  1.0000
  Y   Y3        1.0  0.45960  0.49259  0.09704  1.0000
  Y   Y4        1.0  0.50000  0.99451  0.96756  1.0000
  In  In1       1.0  0.06196  0.99832  0.11883  1.0000
  In  In2       1.0  0.00000  0.49451  0.96756  1.0000
  In  In3       1.0  0.43803  0.99833  0.11883  1.0000
  In  In4       1.0  0.50000  0.49451  0.96756  1.0000
  Sn  Sn1       1.0  0.25000  0.76391  0.02551  1.0000
  Sn  Sn2       1.0  0.25000  0.24176  0.90269  1.0000
  Sn  Sn3       1.0  0.75000  0.78417  0.05529  1.0000
  Sn  Sn4       1.0  0.75000  0.24176  0.90269  1.0000
  Pd  Pd1       1.0  0.25000  0.21761  0.02963  1.0000
  Pd  Pd2       1.0  0.25000  0.74176  0.90269  1.0000
  Pd  Pd3       1.0  0.75000  0.24159  0.02259  1.0000
  Pd  Pd4       1.0  0.75000  0.74176  0.90269  1.0000
  C   C1        1.0  0.25000  0.69730  0.11781  1.0000
