# generated using pymatgen
data_Y4Sc4In4Pd4C
_symmetry_space_group_name_H-M   'P 1'
_cell_length_a   10.11530000
_cell_length_b   6.06590000
_cell_length_c   24.38870000
_cell_angle_alpha   90.00000000
_cell_angle_beta   90.00000000
_cell_angle_gamma   90.00000000
_symmetry_Int_Tables_number   1
_chemical_formula_structural   Y4Sc4In4Pd4C
_chemical_formula_sum   'Y4 Sc4 In4 Pd4 C1'
_cell_volume   1496.45156789
_cell_formula_units_Z   1
loop_
 _symmetry_equiv_pos_site_id
 _symmetry_equiv_pos_as_xyz
  1  'x, y, z'
loop_
 _atom_site_type_symbol
 _atom_site_label
 _atom_site_symmetry_multiplicity
 _atom_site_fract_x
 _atom_site_fract_y
 _atom_site_fract_z
 _atom_site_occupancy
  Y  Y0  1  0.25000000  0.18414000  0.02999000  1.0
  Y  Y1  1  0.22658000  0.54326000  0.90627000  1.0
  Y  Y2  1  0.75000000  0.18414000  0.02999000  1.0
  Y  Y3  1  0.77342000  0.54326000  0.90627000  1.0
  Sc  Sc4  1  0.00000000  0.50000000  0.08997000  1.0
  Sc  Sc5  1  0.00000000  0.76659000  0.97652000  1.0
  Sc  Sc6  1  0.50000000  0.50000000  0.08997000  1.0
  Sc  Sc7  1  0.50000000  0.79485000  0.97397000  1.0
  In  In8  1  0.00000000  0.00000000  0.08997000  1.0
  In  In9  1  0.00000000  0.21916000  0.94035000  1.0
  In  In10  1  0.50000000  1.00000000  0.08997000  1.0
  In  In11  1  0.50000000  0.29319000  0.94383000  1.0
  Pd  Pd12  1  0.25000000  0.68414000  0.02999000  1.0
  Pd  Pd13  1  0.26666000  0.02444000  0.92821000  1.0
  Pd  Pd14  1  0.75000000  0.68414000  0.02999000  1.0
  Pd  Pd15  1  0.73334000  0.02444000  0.92821000  1.0
  C  C16  1  0.00000000  0.56592000  0.90706000  1.0
