# generated using pymatgen
data_Li4Al4Ge4Pd4CO
_symmetry_space_group_name_H-M   Pm
_cell_length_a   5.69495000
_cell_length_b   7.42946000
_cell_length_c   24.27100000
_cell_angle_alpha   90.00000000
_cell_angle_beta   90.00000000
_cell_angle_gamma   90.00000000
_symmetry_Int_Tables_number   6
_chemical_formula_structural   Li4Al4Ge4Pd4CO
_chemical_formula_sum   'Li4 Al4 Ge4 Pd4 C1 O1'
_cell_volume   1026.91579672
_cell_formula_units_Z   1
loop_
 _symmetry_equiv_pos_site_id
 _symmetry_equiv_pos_as_xyz
  1  'x, y, z'
  2  'x, -y, z'
loop_
 _atom_site_type_symbol
 _atom_site_label
 _atom_site_symmetry_multiplicity
 _atom_site_fract_x
 _atom_site_fract_y
 _atom_site_fract_z
 _atom_site_occupancy
  Li  Li0  2  0.00499000  0.24748000  0.96781000  1.0
  Li  Li1  2  0.50000000  0.25000000  0.08799000  1.0
  Al  Al2  2  0.00000000  0.25000000  0.08799000  1.0
  Al  Al3  2  0.51242000  0.24771000  0.96727000  1.0
  Ge  Ge4  1  0.25264000  0.00000000  0.02933000  1.0
  Ge  Ge5  1  0.25264000  0.50000000  0.02933000  1.0
  Ge  Ge6  1  0.75360000  0.50000000  0.91606000  1.0
  Ge  Ge7  1  0.75673000  0.00000000  0.91104000  1.0
  Pd  Pd8  1  0.26651000  0.50000000  0.91421000  1.0
  Pd  Pd9  1  0.27252000  0.00000000  0.91934000  1.0
  Pd  Pd10  1  0.75264000  0.00000000  0.02933000  1.0
  Pd  Pd11  1  0.75264000  0.50000000  0.02933000  1.0
  C  C12  1  0.24800000  0.50000000  0.83122000  1.0
  O  O13  1  0.26232000  0.50000000  0.78411000  1.0
