# generated using pymatgen
data_Li8Mg8Ga8Pt8C
_symmetry_space_group_name_H-M   'P 1'
_cell_length_a   8.85580000
_cell_length_b   6.26200000
_cell_length_c   26.64190000
_cell_angle_alpha   90.00000000
_cell_angle_beta   90.00000000
_cell_angle_gamma   90.00000000
_symmetry_Int_Tables_number   1
_chemical_formula_structural   Li8Mg8Ga8Pt8C
_chemical_formula_sum   'Li8 Mg8 Ga8 Pt8 C1'
_cell_volume   1477.42708668
_cell_formula_units_Z   1
loop_
 _symmetry_equiv_pos_site_id
 _symmetry_equiv_pos_as_xyz
  1  'x, y, z'
loop_
 _atom_site_type_symbol
 _atom_site_label
 _atom_site_symmetry_multiplicity
 _atom_site_fract_x
 _atom_site_fract_y
 _atom_site_fract_z
 _atom_site_occupancy
  Li  Li0  1  0.75000000  0.25000000  0.04155000  1.0
  Li  Li1  1  0.25000000  0.25000000  0.04155000  1.0
  Li  Li2  1  0.00000000  0.75000000  0.12465000  1.0
  Li  Li3  1  0.50000000  0.75000000  0.12465000  1.0
  Li  Li4  1  0.23224000  0.28760000  0.85704000  1.0
  Li  Li5  1  0.76776000  0.28760000  0.85704000  1.0
  Li  Li6  1  0.50000000  0.75337000  0.95709000  1.0
  Li  Li7  1  0.00000000  0.76924000  0.95823000  1.0
  Mg  Mg8  1  0.00000000  0.00000000  0.04155000  1.0
  Mg  Mg9  1  0.50000000  0.00000000  0.04155000  1.0
  Mg  Mg10  1  0.25000000  0.50000000  0.12465000  1.0
  Mg  Mg11  1  0.75000000  0.50000000  0.12465000  1.0
  Mg  Mg12  1  0.50000000  0.00729000  0.87014000  1.0
  Mg  Mg13  1  0.00000000  0.95450000  0.85959000  1.0
  Mg  Mg14  1  0.75244000  0.49033000  0.95927000  1.0
  Mg  Mg15  1  0.24756000  0.49033000  0.95927000  1.0
  Ga  Ga16  1  0.75000000  0.00000000  0.12465000  1.0
  Ga  Ga17  1  0.25000000  0.00000000  0.12465000  1.0
  Ga  Ga18  1  0.50000000  0.50000000  0.04155000  1.0
  Ga  Ga19  1  0.00000000  0.50000000  0.04155000  1.0
  Ga  Ga20  1  0.24993000  0.00860000  0.95705000  1.0
  Ga  Ga21  1  0.75007000  0.00860000  0.95705000  1.0
  Ga  Ga22  1  0.00000000  0.54698000  0.87640000  1.0
  Ga  Ga23  1  0.50000000  0.51148000  0.87084000  1.0
  Pt  Pt24  1  0.75000000  0.75000000  0.04155000  1.0
  Pt  Pt25  1  0.25000000  0.75000000  0.04155000  1.0
  Pt  Pt26  1  0.00000000  0.25000000  0.12465000  1.0
  Pt  Pt27  1  0.50000000  0.25000000  0.12465000  1.0
  Pt  Pt28  1  0.26327000  0.74650000  0.88302000  1.0
  Pt  Pt29  1  0.73673000  0.74650000  0.88302000  1.0
  Pt  Pt30  1  0.50000000  0.24975000  0.95819000  1.0
  Pt  Pt31  1  0.00000000  0.24238000  0.95752000  1.0
  C  C32  1  0.00000000  0.27136000  0.85221000  1.0
