# generated using pymatgen
data_AlNi
_symmetry_space_group_name_H-M   Pmm2
_cell_length_a   2.89978000
_cell_length_b   4.10091000
_cell_length_c   26.15140000
_cell_angle_alpha   90.00000000
_cell_angle_beta   90.00000000
_cell_angle_gamma   90.00000000
_symmetry_Int_Tables_number   25
_chemical_formula_structural   AlNi
_chemical_formula_sum   'Al4 Ni4'
_cell_volume   310.98556575
_cell_formula_units_Z   4
loop_
 _symmetry_equiv_pos_site_id
 _symmetry_equiv_pos_as_xyz
  1  'x, y, z'
  2  '-x, -y, z'
  3  '-x, y, z'
  4  'x, -y, z'
loop_
 _atom_site_type_symbol
 _atom_site_label
 _atom_site_symmetry_multiplicity
 _atom_site_fract_x
 _atom_site_fract_y
 _atom_site_fract_z
 _atom_site_occupancy
  Al  Al0  1  0.50000000  0.00000000  0.12042000  1.0
  Al  Al1  1  0.50000000  0.00000000  0.96080000  1.0
  Al  Al2  1  0.50000000  0.50000000  0.03948000  1.0
  Al  Al3  1  0.50000000  0.50000000  0.88239000  1.0
  Ni  Ni4  1  0.00000000  0.00000000  0.03793250  1.0
  Ni  Ni5  1  0.00000000  0.00000000  0.88239000  1.0
  Ni  Ni6  1  0.00000000  0.50000000  0.11417000  1.0
  Ni  Ni7  1  0.00000000  0.50000000  0.96080000  1.0
