# generated using pymatgen
data_Li8Y8Ag8Sn8C
_symmetry_space_group_name_H-M   P1
_cell_length_a   7.11214000
_cell_length_b   10.05810000
_cell_length_c   27.54360000
_cell_angle_alpha   90.00000000
_cell_angle_beta   90.00000000
_cell_angle_gamma   90.00000000
_symmetry_Int_Tables_number   1
_chemical_formula_structural   Li8Y8Ag8Sn8C
_chemical_formula_sum   'Li8 Y8 Ag8 Sn8 C1'
_cell_volume   1970.32083091
_cell_formula_units_Z   1
loop_
 _symmetry_equiv_pos_site_id
 _symmetry_equiv_pos_as_xyz
  1  'x, y, z'
loop_
 _atom_site_type_symbol
 _atom_site_label
 _atom_site_symmetry_multiplicity
 _atom_site_fract_x
 _atom_site_fract_y
 _atom_site_fract_z
 _atom_site_occupancy
  Li  Li0  1  0.24087000  0.51371000  0.13123000  1.0
  Li  Li1  1  0.24112000  0.98557000  0.13138000  1.0
  Li  Li2  1  0.25000000  0.00000000  0.95435000  1.0
  Li  Li3  1  0.25000000  0.50000000  0.95435000  1.0
  Li  Li4  1  0.75000000  0.25000000  0.86306000  1.0
  Li  Li5  1  0.75000000  0.75000000  0.86306000  1.0
  Li  Li6  1  0.75472000  0.25018000  0.04942000  1.0
  Li  Li7  1  0.75906000  0.75022000  0.04197000  1.0
  Y  Y8  1  0.24754000  0.75005000  0.04625000  1.0
  Y  Y9  1  0.25000000  0.25000000  0.86306000  1.0
  Y  Y10  1  0.25000000  0.75000000  0.86306000  1.0
  Y  Y11  1  0.25443000  0.24992000  0.04347000  1.0
  Y  Y12  1  0.75000000  0.00000000  0.95435000  1.0
  Y  Y13  1  0.75000000  0.50000000  0.95435000  1.0
  Y  Y14  1  0.76153000  0.02657000  0.14772000  1.0
  Y  Y15  1  0.76176000  0.47368000  0.14762000  1.0
  Ag  Ag16  1  0.00000000  0.00000000  0.86306000  1.0
  Ag  Ag17  1  0.00000000  0.50000000  0.86306000  1.0
  Ag  Ag18  1  0.47088000  0.25016000  0.13536000  1.0
  Ag  Ag19  1  0.50000000  0.25000000  0.95435000  1.0
  Ag  Ag20  1  0.50000000  0.75000000  0.95435000  1.0
  Ag  Ag21  1  0.54803000  0.75016000  0.12582000  1.0
  Ag  Ag22  1  0.98074000  0.00069000  0.05114000  1.0
  Ag  Ag23  1  0.98094000  0.49929000  0.05103000  1.0
  Sn  Sn24  1  0.00000000  0.25000000  0.95435000  1.0
  Sn  Sn25  1  0.00000000  0.75000000  0.95435000  1.0
  Sn  Sn26  1  0.05554000  0.24982000  0.14009000  1.0
  Sn  Sn27  1  0.50000000  0.00000000  0.86306000  1.0
  Sn  Sn28  1  0.50000000  0.50000000  0.86306000  1.0
  Sn  Sn29  1  0.51418000  0.50313000  0.05228000  1.0
  Sn  Sn30  1  0.51437000  0.99700000  0.05230000  1.0
  Sn  Sn31  1  0.98985000  0.75007000  0.13931000  1.0
  C  C32  1  0.76847000  0.25021000  0.16772000  1.0
