# generated using pymatgen
data_Sc8Al8Ga8Pd8C
_symmetry_space_group_name_H-M   Pm
_cell_length_a   6.45143000
_cell_length_b   9.12370000
_cell_length_c   26.84280000
_cell_angle_alpha   90.00000000
_cell_angle_beta   90.00000000
_cell_angle_gamma   90.00000000
_symmetry_Int_Tables_number   6
_chemical_formula_structural   Sc8Al8Ga8Pd8C
_chemical_formula_sum   'Sc8 Al8 Ga8 Pd8 C1'
_cell_volume   1579.99168571
_cell_formula_units_Z   1
loop_
 _symmetry_equiv_pos_site_id
 _symmetry_equiv_pos_as_xyz
  1  'x, y, z'
  2  'x, -y, z'
loop_
 _atom_site_type_symbol
 _atom_site_label
 _atom_site_symmetry_multiplicity
 _atom_site_fract_x
 _atom_site_fract_y
 _atom_site_fract_z
 _atom_site_occupancy
  Sc  Sc0  2  0.50000000  0.25000000  0.87254000  1.0
  Sc  Sc1  2  0.50231000  0.24393000  0.04373000  1.0
  Sc  Sc2  1  0.00000000  0.00000000  0.95751000  1.0
  Sc  Sc3  1  0.00000000  0.50000000  0.95751000  1.0
  Sc  Sc4  1  0.95094000  0.00000000  0.13439000  1.0
  Sc  Sc5  1  0.98068000  0.50000000  0.12896000  1.0
  Al  Al6  2  0.00000000  0.25000000  0.87254000  1.0
  Al  Al7  2  0.98100000  0.25787000  0.04552000  1.0
  Al  Al8  1  0.48700000  0.50000000  0.12543000  1.0
  Al  Al9  1  0.50000000  0.00000000  0.95751000  1.0
  Al  Al10  1  0.50000000  0.50000000  0.95751000  1.0
  Al  Al11  1  0.54771000  0.00000000  0.12768000  1.0
  Ga  Ga12  2  0.71282000  0.26122000  0.14826000  1.0
  Ga  Ga13  2  0.75000000  0.25000000  0.95751000  1.0
  Ga  Ga14  1  0.21069000  0.00000000  0.04562000  1.0
  Ga  Ga15  1  0.24951000  0.50000000  0.04243000  1.0
  Ga  Ga16  1  0.25000000  0.00000000  0.87254000  1.0
  Ga  Ga17  1  0.25000000  0.50000000  0.87254000  1.0
  Pd  Pd18  2  0.24444000  0.25752000  0.12109000  1.0
  Pd  Pd19  2  0.25000000  0.25000000  0.95751000  1.0
  Pd  Pd20  1  0.73919000  0.50000000  0.04179000  1.0
  Pd  Pd21  1  0.75000000  0.00000000  0.87254000  1.0
  Pd  Pd22  1  0.75000000  0.50000000  0.87254000  1.0
  Pd  Pd23  1  0.76599000  0.00000000  0.04034000  1.0
  C  C24  1  0.25961000  0.00000000  0.12195000  1.0
