data_image0
_chemical_formula_structural       Li8Cu16Ge8CO
_chemical_formula_sum              "Li8 Cu16 Ge8 C1 O1"
_cell_length_a       5.9441
_cell_length_b       8.40623
_cell_length_c       26.3047
_cell_angle_alpha    90
_cell_angle_beta     90
_cell_angle_gamma    90

_space_group_name_H-M_alt    "P 1"
_space_group_IT_number       1

loop_
  _space_group_symop_operation_xyz
  'x, y, z'

loop_
  _atom_site_type_symbol
  _atom_site_label
  _atom_site_symmetry_multiplicity
  _atom_site_fract_x
  _atom_site_fract_y
  _atom_site_fract_z
  _atom_site_occupancy
  Li  Li1       1.0  0.00000  0.00000  0.88016  1.0000
  Li  Li2       1.0  0.50000  0.25000  0.96005  1.0000
  Li  Li3       1.0  0.50000  0.75000  0.96005  1.0000
  Li  Li4       1.0  0.00000  0.50000  0.88016  1.0000
  Li  Li5       1.0  0.00125  0.50000  0.03469  1.0000
  Li  Li6       1.0  0.50622  0.74819  0.13167  1.0000
  Li  Li7       1.0  0.50620  0.25182  0.13168  1.0000
  Li  Li8       1.0  0.01313  0.00001  0.03605  1.0000
  Cu  Cu1       1.0  0.25000  0.00000  0.96005  1.0000
  Cu  Cu2       1.0  0.75000  0.50000  0.96005  1.0000
  Cu  Cu3       1.0  0.75000  0.00000  0.96005  1.0000
  Cu  Cu4       1.0  0.25000  0.50000  0.96005  1.0000
  Cu  Cu5       1.0  0.75000  0.75000  0.88016  1.0000
  Cu  Cu6       1.0  0.25000  0.25000  0.88016  1.0000
  Cu  Cu7       1.0  0.25000  0.75000  0.88016  1.0000
  Cu  Cu8       1.0  0.75000  0.25000  0.88016  1.0000
  Cu  Cu9       1.0  0.22357  0.50000  0.11314  1.0000
  Cu  Cu10      1.0  0.78730  0.00000  0.11097  1.0000
  Cu  Cu11      1.0  0.76994  0.50000  0.11247  1.0000
  Cu  Cu12      1.0  0.23547  0.00000  0.12210  1.0000
  Cu  Cu13      1.0  0.74990  0.24758  0.04437  1.0000
  Cu  Cu14      1.0  0.25090  0.75168  0.04790  1.0000
  Cu  Cu15      1.0  0.25090  0.24833  0.04790  1.0000
  Cu  Cu16      1.0  0.74990  0.75243  0.04437  1.0000
  Ge  Ge1       1.0  0.00000  0.75000  0.96005  1.0000
  Ge  Ge2       1.0  0.50000  0.00000  0.88016  1.0000
  Ge  Ge3       1.0  0.00000  0.25000  0.96005  1.0000
  Ge  Ge4       1.0  0.50000  0.50000  0.88016  1.0000
  Ge  Ge5       1.0  0.99142  0.25381  0.12535  1.0000
  Ge  Ge6       1.0  0.49781  0.50000  0.04063  1.0000
  Ge  Ge7       1.0  0.99135  0.74618  0.12535  1.0000
  Ge  Ge8       1.0  0.49629  0.00000  0.04128  1.0000
  C   C1        1.0  0.34369  0.99999  0.18876  1.0000
  O   O1        1.0  0.37267  0.99997  0.23221  1.0000
