# generated using pymatgen
data_Li8Cu16Ge8CO
_symmetry_space_group_name_H-M   'P 1'
_cell_length_a   8.40623000
_cell_length_b   5.94410000
_cell_length_c   26.30470000
_cell_angle_alpha   90.00000000
_cell_angle_beta   90.00000000
_cell_angle_gamma   90.00000000
_symmetry_Int_Tables_number   1
_chemical_formula_structural   Li8Cu16Ge8CO
_chemical_formula_sum   'Li8 Cu16 Ge8 C1 O1'
_cell_volume   1314.37935396
_cell_formula_units_Z   1
loop_
 _symmetry_equiv_pos_site_id
 _symmetry_equiv_pos_as_xyz
  1  'x, y, z'
loop_
 _atom_site_type_symbol
 _atom_site_label
 _atom_site_symmetry_multiplicity
 _atom_site_fract_x
 _atom_site_fract_y
 _atom_site_fract_z
 _atom_site_occupancy
  Li  Li0  1  0.50000000  0.00000000  0.11984000  1.0
  Li  Li1  1  0.75001000  0.50000000  0.03995000  1.0
  Li  Li2  1  0.24999000  0.50000000  0.03995000  1.0
  Li  Li3  1  0.00000000  1.00000000  0.11984000  1.0
  Li  Li4  1  0.00000000  0.00125000  0.96531000  1.0
  Li  Li5  1  0.24820000  0.50622000  0.86833000  1.0
  Li  Li6  1  0.75180000  0.50622000  0.86833000  1.0
  Li  Li7  1  0.50000000  0.01313000  0.96395000  1.0
  Cu  Cu8  1  0.50000000  0.25000000  0.03995000  1.0
  Cu  Cu9  1  0.00000000  0.75000000  0.03995000  1.0
  Cu  Cu10  1  0.50000000  0.75000000  0.03995000  1.0
  Cu  Cu11  1  0.00000000  0.25000000  0.03995000  1.0
  Cu  Cu12  1  0.25001000  0.75000000  0.11984000  1.0
  Cu  Cu13  1  0.75001000  0.25000000  0.11984000  1.0
  Cu  Cu14  1  0.24999000  0.25000000  0.11984000  1.0
  Cu  Cu15  1  0.74999000  0.75000000  0.11984000  1.0
  Cu  Cu16  1  0.00000000  0.22357000  0.88686000  1.0
  Cu  Cu17  1  0.50000000  0.78730000  0.88903000  1.0
  Cu  Cu18  1  0.00000000  0.76994000  0.88753000  1.0
  Cu  Cu19  1  0.50000000  0.23547000  0.87790000  1.0
  Cu  Cu20  1  0.74759000  0.74990000  0.95563000  1.0
  Cu  Cu21  1  0.25169000  0.25090000  0.95210000  1.0
  Cu  Cu22  1  0.74831000  0.25090000  0.95210000  1.0
  Cu  Cu23  1  0.25241000  0.74990000  0.95563000  1.0
  Ge  Ge24  1  0.25001000  1.00000000  0.03995000  1.0
  Ge  Ge25  1  0.50000000  0.50000000  0.11984000  1.0
  Ge  Ge26  1  0.74999000  1.00000000  0.03995000  1.0
  Ge  Ge27  1  0.00000000  0.50000000  0.11984000  1.0
  Ge  Ge28  1  0.75382000  0.99142000  0.87465000  1.0
  Ge  Ge29  1  0.00000000  0.49781000  0.95937000  1.0
  Ge  Ge30  1  0.24618000  0.99142000  0.87465000  1.0
  Ge  Ge31  1  0.50000000  0.49629000  0.95872000  1.0
  C  C32  1  0.50000000  0.34369000  0.81124000  1.0
  O  O33  1  0.50000000  0.37267000  0.76779000  1.0
