data_image0
_chemical_formula_structural       Y8In8Cu8Pd8C
_chemical_formula_sum              "Y8 In8 Cu8 Pd8 C1"
_cell_length_a       6.76944
_cell_length_b       9.57344
_cell_length_c       27.1801
_cell_angle_alpha    90
_cell_angle_beta     90
_cell_angle_gamma    90

_space_group_name_H-M_alt    "P 1"
_space_group_IT_number       1

loop_
  _space_group_symop_operation_xyz
  'x, y, z'

loop_
  _atom_site_type_symbol
  _atom_site_label
  _atom_site_symmetry_multiplicity
  _atom_site_fract_x
  _atom_site_fract_y
  _atom_site_fract_z
  _atom_site_occupancy
  Y   Y1        1.0  0.75000  0.00000  0.95597  1.0000
  Y   Y2        1.0  0.75000  0.50000  0.95597  1.0000
  Y   Y3        1.0  0.25000  0.25000  0.86792  1.0000
  Y   Y4        1.0  0.25000  0.75000  0.86792  1.0000
  Y   Y5        1.0  0.70518  0.50000  0.13740  1.0000
  Y   Y6        1.0  0.71438  0.00000  0.13137  1.0000
  Y   Y7        1.0  0.25551  0.73857  0.04902  1.0000
  Y   Y8        1.0  0.25552  0.26143  0.04902  1.0000
  In  In1       1.0  0.25000  0.00000  0.95597  1.0000
  In  In2       1.0  0.25000  0.50000  0.95597  1.0000
  In  In3       1.0  0.75000  0.25000  0.86792  1.0000
  In  In4       1.0  0.75000  0.75000  0.86792  1.0000
  In  In5       1.0  0.24058  0.50000  0.14210  1.0000
  In  In6       1.0  0.17042  0.00000  0.12674  1.0000
  In  In7       1.0  0.75051  0.75480  0.04454  1.0000
  In  In8       1.0  0.75052  0.24520  0.04454  1.0000
  Cu  Cu1       1.0  0.00000  0.00000  0.86792  1.0000
  Cu  Cu2       1.0  0.00000  0.50000  0.86792  1.0000
  Cu  Cu3       1.0  0.50000  0.75000  0.95597  1.0000
  Cu  Cu4       1.0  0.50000  0.25000  0.95597  1.0000
  Cu  Cu5       1.0  0.96722  0.50000  0.05382  1.0000
  Cu  Cu6       1.0  0.00525  0.00000  0.03880  1.0000
  Cu  Cu7       1.0  0.39078  0.20842  0.16338  1.0000
  Cu  Cu8       1.0  0.39078  0.79158  0.16338  1.0000
  Pd  Pd1       1.0  0.00000  0.25000  0.95597  1.0000
  Pd  Pd2       1.0  0.00000  0.75000  0.95597  1.0000
  Pd  Pd3       1.0  0.50000  0.50000  0.86792  1.0000
  Pd  Pd4       1.0  0.50000  0.00000  0.86792  1.0000
  Pd  Pd5       1.0  0.98724  0.73330  0.12988  1.0000
  Pd  Pd6       1.0  0.98724  0.26671  0.12988  1.0000
  Pd  Pd7       1.0  0.49140  0.00000  0.04048  1.0000
  Pd  Pd8       1.0  0.51914  0.50000  0.04495  1.0000
  C   C1        1.0  0.42827  0.00000  0.17387  1.0000
