# generated using pymatgen
data_Y8In8Cu8Pd8C
_symmetry_space_group_name_H-M   'P 1'
_cell_length_a   9.57344000
_cell_length_b   6.76944000
_cell_length_c   27.18010000
_cell_angle_alpha   90.00000000
_cell_angle_beta   90.00000000
_cell_angle_gamma   90.00000000
_symmetry_Int_Tables_number   1
_chemical_formula_structural   Y8In8Cu8Pd8C
_chemical_formula_sum   'Y8 In8 Cu8 Pd8 C1'
_cell_volume   1761.45605685
_cell_formula_units_Z   1
loop_
 _symmetry_equiv_pos_site_id
 _symmetry_equiv_pos_as_xyz
  1  'x, y, z'
loop_
 _atom_site_type_symbol
 _atom_site_label
 _atom_site_symmetry_multiplicity
 _atom_site_fract_x
 _atom_site_fract_y
 _atom_site_fract_z
 _atom_site_occupancy
  Y  Y0  1  0.00000000  0.75000000  0.04403000  1.0
  Y  Y1  1  0.50000000  0.75000000  0.04403000  1.0
  Y  Y2  1  0.25000000  0.25000000  0.13208000  1.0
  Y  Y3  1  0.75000000  0.25000000  0.13208000  1.0
  Y  Y4  1  0.50000000  0.70456000  0.86280000  1.0
  Y  Y5  1  0.00000000  0.71326000  0.86866000  1.0
  Y  Y6  1  0.73863000  0.25552000  0.95102000  1.0
  Y  Y7  1  0.26137000  0.25552000  0.95102000  1.0
  In  In8  1  0.00000000  0.25000000  0.04403000  1.0
  In  In9  1  0.50000000  0.25000000  0.04403000  1.0
  In  In10  1  0.25000000  0.75000000  0.13208000  1.0
  In  In11  1  0.75000000  0.75000000  0.13208000  1.0
  In  In12  1  0.50000000  0.24090000  0.85835000  1.0
  In  In13  1  0.00000000  0.16965000  0.87323000  1.0
  In  In14  1  0.75505000  0.75015000  0.95549000  1.0
  In  In15  1  0.24495000  0.75015000  0.95549000  1.0
  Cu  Cu16  1  0.00000000  0.00000000  0.13208000  1.0
  Cu  Cu17  1  0.50000000  1.00000000  0.13208000  1.0
  Cu  Cu18  1  0.75000000  0.50000000  0.04403000  1.0
  Cu  Cu19  1  0.25000000  0.50000000  0.04403000  1.0
  Cu  Cu20  1  0.50000000  0.96690000  0.94581000  1.0
  Cu  Cu21  1  0.00000000  0.00584000  0.96123000  1.0
  Cu  Cu22  1  0.20837000  0.39026000  0.83672000  1.0
  Cu  Cu23  1  0.79163000  0.39026000  0.83672000  1.0
  Pd  Pd24  1  0.25000000  0.00000000  0.04403000  1.0
  Pd  Pd25  1  0.75000000  0.00000000  0.04403000  1.0
  Pd  Pd26  1  0.50000000  0.50000000  0.13208000  1.0
  Pd  Pd27  1  0.00000000  0.50000000  0.13208000  1.0
  Pd  Pd28  1  0.73332000  0.98714000  0.87011000  1.0
  Pd  Pd29  1  0.26668000  0.98714000  0.87011000  1.0
  Pd  Pd30  1  0.00000000  0.49153000  0.95952000  1.0
  Pd  Pd31  1  0.50000000  0.51911000  0.95518000  1.0
  C  C32  1  0.00000000  0.42743000  0.82600000  1.0
