# generated using pymatgen
data_Li4Ga8Ru4C
_symmetry_space_group_name_H-M   Cm
_cell_length_a   8.61704365
_cell_length_b   8.61704365
_cell_length_c   24.56990000
_cell_angle_alpha   90.00000000
_cell_angle_beta   90.00000000
_cell_angle_gamma   90.00000000
_symmetry_Int_Tables_number   8
_chemical_formula_structural   Li4Ga8Ru4C
_chemical_formula_sum   'Li8 Ga16 Ru8 C2'
_cell_volume   1824.39962734
_cell_formula_units_Z   2
loop_
 _symmetry_equiv_pos_site_id
 _symmetry_equiv_pos_as_xyz
  1  'x, y, z'
  2  'x, -y, z'
  3  'x+1/2, y+1/2, z'
  4  'x+1/2, -y+1/2, z'
loop_
 _atom_site_type_symbol
 _atom_site_label
 _atom_site_symmetry_multiplicity
 _atom_site_fract_x
 _atom_site_fract_y
 _atom_site_fract_z
 _atom_site_occupancy
  Li  Li0  4  0.25000500  0.25000500  0.96900000  1.0
  Li  Li1  2  0.00746500  0.50000000  0.11505000  1.0
  Li  Li2  2  0.49103000  0.50000000  0.11423000  1.0
  Ga  Ga3  4  0.00000500  0.25000500  0.90700000  1.0
  Ga  Ga4  4  0.49976000  0.24951000  0.03861000  1.0
  Ga  Ga5  2  0.24912000  0.50000000  0.04000000  1.0
  Ga  Ga6  2  0.25000500  0.50000000  0.90700000  1.0
  Ga  Ga7  2  0.25000500  0.00000000  0.90700000  1.0
  Ga  Ga8  2  0.25032000  0.00000000  0.02462000  1.0
  Ru  Ru9  4  0.24956000  0.21088000  0.09542000  1.0
  Ru  Ru10  2  0.00000500  0.50000000  0.96900000  1.0
  Ru  Ru11  2  0.00000500  0.00000000  0.96900000  1.0
  C  C12  2  0.24916000  0.00000000  0.11420000  1.0
