# generated using pymatgen
data_Mg4Sc4In4Pd4C
_symmetry_space_group_name_H-M   Cm
_cell_length_a   9.57114283
_cell_length_b   9.57114283
_cell_length_c   25.07590000
_cell_angle_alpha   90.00000000
_cell_angle_beta   90.00000000
_cell_angle_gamma   90.00000000
_symmetry_Int_Tables_number   8
_chemical_formula_structural   Mg4Sc4In4Pd4C
_chemical_formula_sum   'Mg8 Sc8 In8 Pd8 C2'
_cell_volume   2297.12233185
_cell_formula_units_Z   2
loop_
 _symmetry_equiv_pos_site_id
 _symmetry_equiv_pos_as_xyz
  1  'x, y, z'
  2  'x, -y, z'
  3  'x+1/2, y+1/2, z'
  4  'x+1/2, -y+1/2, z'
loop_
 _atom_site_type_symbol
 _atom_site_label
 _atom_site_symmetry_multiplicity
 _atom_site_fract_x
 _atom_site_fract_y
 _atom_site_fract_z
 _atom_site_occupancy
  Mg  Mg0  4  0.00000000  0.25000000  0.89879000  1.0
  Mg  Mg1  2  0.24897000  0.50000000  0.04462000  1.0
  Mg  Mg2  2  0.25121000  0.00000000  0.02806000  1.0
  Sc  Sc3  4  0.49991500  0.25051500  0.03952000  1.0
  Sc  Sc4  2  0.25000000  0.00000000  0.89879000  1.0
  Sc  Sc5  2  0.25000000  0.50000000  0.89879000  1.0
  In  In6  4  0.25000000  0.25000000  0.96626000  1.0
  In  In7  2  0.00780500  0.00000000  0.12114000  1.0
  In  In8  2  0.49404000  0.00000000  0.12109000  1.0
  Pd  Pd9  4  0.24944000  0.21079000  0.09659000  1.0
  Pd  Pd10  2  0.00000000  0.00000000  0.96626000  1.0
  Pd  Pd11  2  0.00000000  0.50000000  0.96626000  1.0
  C  C12  2  0.25147000  0.00000000  0.12259000  1.0
