# generated using pymatgen
data_Ti8Al8Cu16C
_symmetry_space_group_name_H-M   Pm
_cell_length_a   6.05884000
_cell_length_b   8.56849000
_cell_length_c   26.42640000
_cell_angle_alpha   90.00000000
_cell_angle_beta   90.00000000
_cell_angle_gamma   90.00000000
_symmetry_Int_Tables_number   6
_chemical_formula_structural   Ti8Al8Cu16C
_chemical_formula_sum   'Ti8 Al8 Cu16 C1'
_cell_volume   1371.92946162
_cell_formula_units_Z   1
loop_
 _symmetry_equiv_pos_site_id
 _symmetry_equiv_pos_as_xyz
  1  'x, y, z'
  2  'x, -y, z'
loop_
 _atom_site_type_symbol
 _atom_site_label
 _atom_site_symmetry_multiplicity
 _atom_site_fract_x
 _atom_site_fract_y
 _atom_site_fract_z
 _atom_site_occupancy
  Ti  Ti0  2  0.00000000  0.25000000  0.87841000  1.0
  Ti  Ti1  2  0.00244000  0.25641000  0.04244000  1.0
  Ti  Ti2  1  0.47084000  0.50000000  0.11901000  1.0
  Ti  Ti3  1  0.50000000  0.00000000  0.95947000  1.0
  Ti  Ti4  1  0.50000000  0.50000000  0.95947000  1.0
  Ti  Ti5  1  0.51865000  0.00000000  0.11491000  1.0
  Al  Al6  2  0.49798000  0.24861000  0.04051000  1.0
  Al  Al7  2  0.50000000  0.25000000  0.87841000  1.0
  Al  Al8  1  -0.00000000  0.00000000  0.95947000  1.0
  Al  Al9  1  0.00000000  0.50000000  0.95947000  1.0
  Al  Al10  1  0.01112000  0.50000000  0.12295000  1.0
  Al  Al11  1  0.93460000  0.00000000  0.13370000  1.0
  Cu  Cu12  2  0.23865000  0.23487000  0.12991000  1.0
  Cu  Cu13  2  0.25000000  0.25000000  0.95947000  1.0
  Cu  Cu14  2  0.73986000  0.26220000  0.12129000  1.0
  Cu  Cu15  2  0.75000000  0.25000000  0.95947000  1.0
  Cu  Cu16  1  0.23382000  0.00000000  0.04105000  1.0
  Cu  Cu17  1  0.25000000  0.00000000  0.87841000  1.0
  Cu  Cu18  1  0.25000000  0.50000000  0.87841000  1.0
  Cu  Cu19  1  0.25361000  0.50000000  0.03710000  1.0
  Cu  Cu20  1  0.74264000  0.50000000  0.04176000  1.0
  Cu  Cu21  1  0.75000000  0.00000000  0.87841000  1.0
  Cu  Cu22  1  0.75000000  0.50000000  0.87841000  1.0
  Cu  Cu23  1  0.77117000  0.00000000  0.03641000  1.0
  C  C24  1  0.24018000  0.00000000  0.14771000  1.0
