# generated using pymatgen
data_TiBe
_symmetry_space_group_name_H-M   'P 1'
_cell_length_a   2.93924500
_cell_length_b   4.15672500
_cell_length_c   26.23510000
_cell_angle_alpha   90.00000000
_cell_angle_beta   90.00000000
_cell_angle_gamma   90.00000000
_symmetry_Int_Tables_number   1
_chemical_formula_structural   TiBe
_chemical_formula_sum   'Ti4 Be4'
_cell_volume   320.53082805
_cell_formula_units_Z   4
loop_
 _symmetry_equiv_pos_site_id
 _symmetry_equiv_pos_as_xyz
  1  'x, y, z'
loop_
 _atom_site_type_symbol
 _atom_site_label
 _atom_site_symmetry_multiplicity
 _atom_site_fract_x
 _atom_site_fract_y
 _atom_site_fract_z
 _atom_site_occupancy
  Ti  Ti0  1  0.50000000  0.50000000  0.88117000  1.0
  Ti  Ti1  1  0.50000000  0.00000000  0.96039000  1.0
  Ti  Ti2  1  0.50000000  0.50000000  0.03776000  1.0
  Ti  Ti3  1  0.50000000  0.00000000  0.12261000  1.0
  Be  Be4  1  0.00000000  0.00000000  0.88117000  1.0
  Be  Be5  1  0.00000000  0.50000000  0.96039000  1.0
  Be  Be6  1  0.00000000  0.00000000  0.04336000  1.0
  Be  Be7  1  0.00000000  0.50000000  0.11344000  1.0
