# generated using pymatgen
data_Li8In4Ir4C
_symmetry_space_group_name_H-M   Cmm2
_cell_length_a   8.73904786
_cell_length_b   8.73904786
_cell_length_c   24.63460000
_cell_angle_alpha   90.00000000
_cell_angle_beta   90.00000000
_cell_angle_gamma   90.00000000
_symmetry_Int_Tables_number   35
_chemical_formula_structural   Li8In4Ir4C
_chemical_formula_sum   'Li16 In8 Ir8 C2'
_cell_volume   1881.36798784
_cell_formula_units_Z   2
loop_
 _symmetry_equiv_pos_site_id
 _symmetry_equiv_pos_as_xyz
  1  'x, y, z'
  2  '-x, -y, z'
  3  '-x, y, z'
  4  'x, -y, z'
  5  'x+1/2, y+1/2, z'
  6  '-x+1/2, -y+1/2, z'
  7  '-x+1/2, y+1/2, z'
  8  'x+1/2, -y+1/2, z'
loop_
 _atom_site_type_symbol
 _atom_site_label
 _atom_site_symmetry_multiplicity
 _atom_site_fract_x
 _atom_site_fract_y
 _atom_site_fract_z
 _atom_site_occupancy
  Li  Li0  4  0.25000000  0.25000000  0.03136000  1.0
  Li  Li1  4  0.25000000  0.25000000  0.90593000  1.0
  Li  Li2  2  0.00000000  0.00000000  0.03136000  1.0
  Li  Li3  2  0.00000000  0.00000000  0.90593000  1.0
  Li  Li4  2  0.00000000  0.50000000  0.03136000  1.0
  Li  Li5  2  0.00000000  0.50000000  0.90593000  1.0
  In  In6  4  0.00000000  0.25000000  0.09407000  1.0
  In  In7  4  0.25000000  0.50000000  0.96864000  1.0
  Ir  Ir8  4  0.00000000  0.25000000  0.96864000  1.0
  Ir  Ir9  4  0.25000000  0.50000000  0.09407000  1.0
  C  C10  2  0.00000000  0.50000000  0.12654000  1.0
