# generated using pymatgen
data_Ti16Fe16C
_symmetry_space_group_name_H-M   Pmm2
_cell_length_a   5.92728000
_cell_length_b   8.38244000
_cell_length_c   26.28680000
_cell_angle_alpha   90.00000000
_cell_angle_beta   90.00000000
_cell_angle_gamma   90.00000000
_symmetry_Int_Tables_number   25
_chemical_formula_structural   Ti16Fe16C
_chemical_formula_sum   'Ti16 Fe16 C1'
_cell_volume   1306.06147082
_cell_formula_units_Z   1
loop_
 _symmetry_equiv_pos_site_id
 _symmetry_equiv_pos_as_xyz
  1  'x, y, z'
  2  '-x, -y, z'
  3  '-x, y, z'
  4  'x, -y, z'
loop_
 _atom_site_type_symbol
 _atom_site_label
 _atom_site_symmetry_multiplicity
 _atom_site_fract_x
 _atom_site_fract_y
 _atom_site_fract_z
 _atom_site_occupancy
  Ti  Ti0  4  0.25000000  0.25000000  0.88042000  1.0
  Ti  Ti1  4  0.25020000  0.25193000  0.04104000  1.0
  Ti  Ti2  2  0.25000000  0.00000000  0.96014000  1.0
  Ti  Ti3  2  0.25000000  0.50000000  0.96014000  1.0
  Ti  Ti4  2  0.25009000  0.50000000  0.12359000  1.0
  Ti  Ti5  2  0.27683000  0.00000000  0.11954000  1.0
  Fe  Fe6  2  0.00000000  0.23229000  0.12547000  1.0
  Fe  Fe7  2  0.00000000  0.25000000  0.96014000  1.0
  Fe  Fe8  2  0.50000000  0.25000000  0.96014000  1.0
  Fe  Fe9  2  0.50000000  0.26309000  0.11432000  1.0
  Fe  Fe10  1  0.00000000  0.00000000  0.03907000  1.0
  Fe  Fe11  1  0.00000000  0.00000000  0.88042000  1.0
  Fe  Fe12  1  0.00000000  0.50000000  0.04379000  1.0
  Fe  Fe13  1  0.00000000  0.50000000  0.88042000  1.0
  Fe  Fe14  1  0.50000000  0.00000000  0.03691000  1.0
  Fe  Fe15  1  0.50000000  0.00000000  0.88042000  1.0
  Fe  Fe16  1  0.50000000  0.50000000  0.03992000  1.0
  Fe  Fe17  1  0.50000000  0.50000000  0.88042000  1.0
  C  C18  1  0.00000000  0.00000000  0.15842000  1.0
