# generated using pymatgen
data_LiYSnGe
_symmetry_space_group_name_H-M   Pm
_cell_length_a   6.05842000
_cell_length_b   4.71694000
_cell_length_c   24.54360000
_cell_angle_alpha   90.00000000
_cell_angle_beta   90.00000000
_cell_angle_gamma   90.00000000
_symmetry_Int_Tables_number   6
_chemical_formula_structural   LiYSnGe
_chemical_formula_sum   'Li2 Y2 Sn2 Ge2'
_cell_volume   701.38745513
_cell_formula_units_Z   2
loop_
 _symmetry_equiv_pos_site_id
 _symmetry_equiv_pos_as_xyz
  1  'x, y, z'
  2  'x, -y, z'
loop_
 _atom_site_type_symbol
 _atom_site_label
 _atom_site_symmetry_multiplicity
 _atom_site_fract_x
 _atom_site_fract_y
 _atom_site_fract_z
 _atom_site_occupancy
  Li  Li0  1  0.24764000  0.50000000  0.03085000  1.0
  Li  Li1  1  0.72623000  0.50000000  0.90356000  1.0
  Y  Y2  1  0.50000000  0.00000000  0.09256000  1.0
  Y  Y3  1  0.99366500  0.00000000  0.97079000  1.0
  Sn  Sn4  1  0.25977500  0.50000000  0.90919000  1.0
  Sn  Sn5  1  0.74764000  0.50000000  0.03085000  1.0
  Ge  Ge6  1  0.00000000  0.00000000  0.09256000  1.0
  Ge  Ge7  1  0.49465000  0.00000000  0.95623500  1.0
