# generated using pymatgen
data_Li4Zn4Ge4Pd4C
_symmetry_space_group_name_H-M   Cm
_cell_length_a   8.74708059
_cell_length_b   8.74708059
_cell_length_c   24.63880000
_cell_angle_alpha   90.00000000
_cell_angle_beta   90.00000000
_cell_angle_gamma   90.00000000
_symmetry_Int_Tables_number   8
_chemical_formula_structural   Li4Zn4Ge4Pd4C
_chemical_formula_sum   'Li8 Zn8 Ge8 Pd8 C2'
_cell_volume   1885.14954624
_cell_formula_units_Z   2
loop_
 _symmetry_equiv_pos_site_id
 _symmetry_equiv_pos_as_xyz
  1  'x, y, z'
  2  'x, -y, z'
  3  'x+1/2, y+1/2, z'
  4  'x+1/2, -y+1/2, z'
loop_
 _atom_site_type_symbol
 _atom_site_label
 _atom_site_symmetry_multiplicity
 _atom_site_fract_x
 _atom_site_fract_y
 _atom_site_fract_z
 _atom_site_occupancy
  Li  Li0  4  0.00000000  0.25000000  0.90586000  1.0
  Li  Li1  2  0.25011000  0.00000000  0.04190000  1.0
  Li  Li2  2  0.25055000  0.50000000  0.02622000  1.0
  Zn  Zn3  4  0.24981000  0.26486000  0.09661000  1.0
  Zn  Zn4  2  0.00000000  0.00000000  0.96862000  1.0
  Zn  Zn5  2  0.00000000  0.50000000  0.96862000  1.0
  Ge  Ge6  4  0.25000000  0.25000000  0.96862000  1.0
  Ge  Ge7  2  0.02701000  0.50000000  0.10121000  1.0
  Ge  Ge8  2  0.47453000  0.50000000  0.10086000  1.0
  Pd  Pd9  4  0.49984500  0.24978500  0.03290000  1.0
  Pd  Pd10  2  0.25000000  0.00000000  0.90586000  1.0
  Pd  Pd11  2  0.25000000  0.50000000  0.90586000  1.0
  C  C12  2  0.25124000  0.50000000  0.11604000  1.0
