# generated using pymatgen
data_Li8Mg8Sb8Pd8CO
_symmetry_space_group_name_H-M   'P 1'
_cell_length_a   9.29346000
_cell_length_b   6.57147000
_cell_length_c   26.97010000
_cell_angle_alpha   90.00000000
_cell_angle_beta   90.00000000
_cell_angle_gamma   90.00000000
_symmetry_Int_Tables_number   1
_chemical_formula_structural   Li8Mg8Sb8Pd8CO
_chemical_formula_sum   'Li8 Mg8 Sb8 Pd8 C1 O1'
_cell_volume   1647.10968319
_cell_formula_units_Z   1
loop_
 _symmetry_equiv_pos_site_id
 _symmetry_equiv_pos_as_xyz
  1  'x, y, z'
loop_
 _atom_site_type_symbol
 _atom_site_label
 _atom_site_symmetry_multiplicity
 _atom_site_fract_x
 _atom_site_fract_y
 _atom_site_fract_z
 _atom_site_occupancy
  Li  Li0  1  0.75001000  0.00000000  0.12922000  1.0
  Li  Li1  1  0.24999000  0.00000000  0.12922000  1.0
  Li  Li2  1  0.50000000  0.50000000  0.04307000  1.0
  Li  Li3  1  0.00000000  0.50000000  0.04307000  1.0
  Li  Li4  1  0.25764000  0.99039000  0.95526000  1.0
  Li  Li5  1  0.74236000  0.99039000  0.95526000  1.0
  Li  Li6  1  0.00000000  0.50959000  0.84500000  1.0
  Li  Li7  1  0.50000000  0.61610000  0.82526000  1.0
  Mg  Mg8  1  0.75001000  0.25000000  0.04307000  1.0
  Mg  Mg9  1  0.24999000  0.25000000  0.04307000  1.0
  Mg  Mg10  1  0.00000000  0.75000000  0.12922000  1.0
  Mg  Mg11  1  0.50000000  0.75000000  0.12922000  1.0
  Mg  Mg12  1  0.27257000  0.26795000  0.87178000  1.0
  Mg  Mg13  1  0.72743000  0.26795000  0.87178000  1.0
  Mg  Mg14  1  0.50000000  0.71710000  0.94931000  1.0
  Mg  Mg15  1  0.00000000  0.74413000  0.94848000  1.0
  Sb  Sb16  1  0.75001000  0.75000000  0.04307000  1.0
  Sb  Sb17  1  0.24999000  0.75000000  0.04307000  1.0
  Sb  Sb18  1  0.00000000  0.25000000  0.12922000  1.0
  Sb  Sb19  1  0.50000000  0.25000000  0.12922000  1.0
  Sb  Sb20  1  0.24640000  0.74024000  0.86760000  1.0
  Sb  Sb21  1  0.75360000  0.74024000  0.86760000  1.0
  Sb  Sb22  1  0.50000000  0.24896000  0.95696000  1.0
  Sb  Sb23  1  0.00000000  0.23958000  0.95237000  1.0
  Pd  Pd24  1  0.00000000  0.00000000  0.04307000  1.0
  Pd  Pd25  1  0.50000000  0.00000000  0.04307000  1.0
  Pd  Pd26  1  0.25001000  0.50000000  0.12922000  1.0
  Pd  Pd27  1  0.74999000  0.50000000  0.12922000  1.0
  Pd  Pd28  1  0.50000000  0.98831000  0.87654000  1.0
  Pd  Pd29  1  0.00000000  0.06952000  0.85876000  1.0
  Pd  Pd30  1  0.75415000  0.50316000  0.96113000  1.0
  Pd  Pd31  1  0.24585000  0.50316000  0.96113000  1.0
  C  C32  1  0.00000000  0.08026000  0.78713000  1.0
  O  O33  1  0.00000000  0.07094000  0.74433000  1.0
