# generated using pymatgen
data_Li8Mg8Sb8Pd8CO
_symmetry_space_group_name_H-M   Pm
_cell_length_a   6.57147000
_cell_length_b   9.29346000
_cell_length_c   26.97010000
_cell_angle_alpha   90.00000000
_cell_angle_beta   90.00000000
_cell_angle_gamma   90.00000000
_symmetry_Int_Tables_number   6
_chemical_formula_structural   Li8Mg8Sb8Pd8CO
_chemical_formula_sum   'Li8 Mg8 Sb8 Pd8 C1 O1'
_cell_volume   1647.10968319
_cell_formula_units_Z   1
loop_
 _symmetry_equiv_pos_site_id
 _symmetry_equiv_pos_as_xyz
  1  'x, y, z'
  2  'x, -y, z'
loop_
 _atom_site_type_symbol
 _atom_site_label
 _atom_site_symmetry_multiplicity
 _atom_site_fract_x
 _atom_site_fract_y
 _atom_site_fract_z
 _atom_site_occupancy
  Li  Li0  2  0.00000000  0.24999000  0.87078000  1.0
  Li  Li1  2  0.99039000  0.25764000  0.04474000  1.0
  Li  Li2  1  0.50000000  0.00000000  0.95693000  1.0
  Li  Li3  1  0.50000000  0.50000000  0.95693000  1.0
  Li  Li4  1  0.50959000  0.00000000  0.15500000  1.0
  Li  Li5  1  0.61610000  0.50000000  0.17474000  1.0
  Mg  Mg6  2  0.25000000  0.24999000  0.95693000  1.0
  Mg  Mg7  2  0.26795000  0.27257000  0.12822000  1.0
  Mg  Mg8  1  0.71710000  0.50000000  0.05069000  1.0
  Mg  Mg9  1  0.74413000  0.00000000  0.05152000  1.0
  Mg  Mg10  1  0.75000000  0.00000000  0.87078000  1.0
  Mg  Mg11  1  0.75000000  0.50000000  0.87078000  1.0
  Sb  Sb12  2  0.74024000  0.24640000  0.13240000  1.0
  Sb  Sb13  2  0.75000000  0.24999000  0.95693000  1.0
  Sb  Sb14  1  0.23958000  0.00000000  0.04763000  1.0
  Sb  Sb15  1  0.24896000  0.50000000  0.04304000  1.0
  Sb  Sb16  1  0.25000000  0.00000000  0.87078000  1.0
  Sb  Sb17  1  0.25000000  0.50000000  0.87078000  1.0
  Pd  Pd18  2  0.50000000  0.25001000  0.87078000  1.0
  Pd  Pd19  2  0.50316000  0.24585000  0.03887000  1.0
  Pd  Pd20  1  0.00000000  0.00000000  0.95693000  1.0
  Pd  Pd21  1  0.00000000  0.50000000  0.95693000  1.0
  Pd  Pd22  1  0.06952000  0.00000000  0.14124000  1.0
  Pd  Pd23  1  0.98831000  0.50000000  0.12346000  1.0
  C  C24  1  0.08026000  0.00000000  0.21287000  1.0
  O  O25  1  0.07094000  0.00000000  0.25567000  1.0
