data_image0
_chemical_formula_structural       Li16Pb16C
_chemical_formula_sum              "Li16 Pb16 C1"
_cell_length_a       7.21597
_cell_length_b       10.2049
_cell_length_c       27.6537
_cell_angle_alpha    90
_cell_angle_beta     90
_cell_angle_gamma    90

_space_group_name_H-M_alt    "P 1"
_space_group_IT_number       1

loop_
  _space_group_symop_operation_xyz
  'x, y, z'

loop_
  _atom_site_type_symbol
  _atom_site_label
  _atom_site_symmetry_multiplicity
  _atom_site_fract_x
  _atom_site_fract_y
  _atom_site_fract_z
  _atom_site_occupancy
  Li  Li1       1.0  0.00000  0.00000  0.86162  1.0000
  Li  Li2       1.0  0.00000  0.25000  0.95387  1.0000
  Li  Li3       1.0  0.01144  0.99556  0.04699  1.0000
  Li  Li4       1.0  0.96571  0.25090  0.14192  1.0000
  Li  Li5       1.0  0.00000  0.50000  0.86162  1.0000
  Li  Li6       1.0  0.00000  0.75000  0.95387  1.0000
  Li  Li7       1.0  0.01018  0.50429  0.04663  1.0000
  Li  Li8       1.0  0.00605  0.75042  0.13352  1.0000
  Li  Li9       1.0  0.50000  0.00000  0.86162  1.0000
  Li  Li10      1.0  0.50000  0.25000  0.95387  1.0000
  Li  Li11      1.0  0.48856  0.99556  0.04699  1.0000
  Li  Li12      1.0  0.53428  0.25091  0.14192  1.0000
  Li  Li13      1.0  0.50000  0.50000  0.86162  1.0000
  Li  Li14      1.0  0.50000  0.75000  0.95387  1.0000
  Li  Li15      1.0  0.48982  0.50429  0.04663  1.0000
  Li  Li16      1.0  0.49395  0.75041  0.13352  1.0000
  Pb  Pb1       1.0  0.25000  0.25000  0.86162  1.0000
  Pb  Pb2       1.0  0.25000  0.00000  0.95387  1.0000
  Pb  Pb3       1.0  0.25000  0.25012  0.05532  1.0000
  Pb  Pb4       1.0  0.25000  0.47415  0.15509  1.0000
  Pb  Pb5       1.0  0.25000  0.75000  0.86162  1.0000
  Pb  Pb6       1.0  0.25000  0.50000  0.95387  1.0000
  Pb  Pb7       1.0  0.25000  0.74967  0.04589  1.0000
  Pb  Pb8       1.0  0.25000  0.02789  0.15499  1.0000
  Pb  Pb9       1.0  0.75000  0.25000  0.86162  1.0000
  Pb  Pb10      1.0  0.75000  0.00000  0.95387  1.0000
  Pb  Pb11      1.0  0.75000  0.24982  0.04992  1.0000
  Pb  Pb12      1.0  0.75000  0.50935  0.13386  1.0000
  Pb  Pb13      1.0  0.75000  0.75000  0.86162  1.0000
  Pb  Pb14      1.0  0.75000  0.50000  0.95387  1.0000
  Pb  Pb15      1.0  0.75000  0.75006  0.04854  1.0000
  Pb  Pb16      1.0  0.75000  0.99104  0.13399  1.0000
  C   C1        1.0  0.25000  0.25112  0.14323  1.0000
