# generated using pymatgen
data_Li16Pb16C
_symmetry_space_group_name_H-M   Pm
_cell_length_a   10.20490000
_cell_length_b   7.21597000
_cell_length_c   27.65370000
_cell_angle_alpha   90.00000000
_cell_angle_beta   90.00000000
_cell_angle_gamma   90.00000000
_symmetry_Int_Tables_number   6
_chemical_formula_structural   Li16Pb16C
_chemical_formula_sum   'Li16 Pb16 C1'
_cell_volume   2036.37013633
_cell_formula_units_Z   1
loop_
 _symmetry_equiv_pos_site_id
 _symmetry_equiv_pos_as_xyz
  1  'x, y, z'
  2  'x, -y, z'
loop_
 _atom_site_type_symbol
 _atom_site_label
 _atom_site_symmetry_multiplicity
 _atom_site_fract_x
 _atom_site_fract_y
 _atom_site_fract_z
 _atom_site_occupancy
  Li  Li0  2  0.00000000  0.25000000  0.86162000  1.0
  Li  Li1  2  0.25000000  0.25000000  0.95387000  1.0
  Li  Li2  2  0.25090000  0.21571000  0.14192000  1.0
  Li  Li3  2  0.50000000  0.25000000  0.86162000  1.0
  Li  Li4  2  0.50429000  0.26018000  0.04663000  1.0
  Li  Li5  2  0.75000000  0.25000000  0.95387000  1.0
  Li  Li6  2  0.75042000  0.25605000  0.13352000  1.0
  Li  Li7  2  0.99556000  0.26144000  0.04699000  1.0
  Pb  Pb8  1  0.00000000  0.00000000  0.95387000  1.0
  Pb  Pb9  1  0.00000000  0.50000000  0.95387000  1.0
  Pb  Pb10  1  0.02789000  0.50000000  0.15499000  1.0
  Pb  Pb11  1  0.24982000  0.00000000  0.04992000  1.0
  Pb  Pb12  1  0.25000000  0.00000000  0.86162000  1.0
  Pb  Pb13  1  0.25000000  0.50000000  0.86162000  1.0
  Pb  Pb14  1  0.25012000  0.50000000  0.05532000  1.0
  Pb  Pb15  1  0.47415000  0.50000000  0.15509000  1.0
  Pb  Pb16  1  0.50000000  0.00000000  0.95387000  1.0
  Pb  Pb17  1  0.50000000  0.50000000  0.95387000  1.0
  Pb  Pb18  1  0.50935000  0.00000000  0.13386000  1.0
  Pb  Pb19  1  0.74967000  0.50000000  0.04589000  1.0
  Pb  Pb20  1  0.75000000  0.00000000  0.86162000  1.0
  Pb  Pb21  1  0.75000000  0.50000000  0.86162000  1.0
  Pb  Pb22  1  0.75006000  0.00000000  0.04854000  1.0
  Pb  Pb23  1  0.99104000  0.00000000  0.13399000  1.0
  C  C24  1  0.25112000  0.50000000  0.14323000  1.0
