# generated using pymatgen
data_TiRu
_symmetry_space_group_name_H-M   Pmm2
_cell_length_a   3.09135500
_cell_length_b   4.37184000
_cell_length_c   26.55780000
_cell_angle_alpha   90.00000000
_cell_angle_beta   90.00000000
_cell_angle_gamma   90.00000000
_symmetry_Int_Tables_number   25
_chemical_formula_structural   TiRu
_chemical_formula_sum   'Ti4 Ru4'
_cell_volume   358.92626201
_cell_formula_units_Z   4
loop_
 _symmetry_equiv_pos_site_id
 _symmetry_equiv_pos_as_xyz
  1  'x, y, z'
  2  '-x, -y, z'
  3  '-x, y, z'
  4  'x, -y, z'
loop_
 _atom_site_type_symbol
 _atom_site_label
 _atom_site_symmetry_multiplicity
 _atom_site_fract_x
 _atom_site_fract_y
 _atom_site_fract_z
 _atom_site_occupancy
  Ti  Ti0  1  0.00000000  0.00000000  0.04297000  1.0
  Ti  Ti1  1  0.00000000  0.00000000  0.87654000  1.0
  Ti  Ti2  1  0.00000000  0.50000000  0.12439000  1.0
  Ti  Ti3  1  0.00000000  0.50000000  0.95885000  1.0
  Ru  Ru4  1  0.50000000  0.00000000  0.11889000  1.0
  Ru  Ru5  1  0.50000000  0.00000000  0.95885000  1.0
  Ru  Ru6  1  0.50000000  0.50000000  0.04113000  1.0
  Ru  Ru7  1  0.50000000  0.50000000  0.87654000  1.0
