# generated using pymatgen
data_Ti16Rh16C
_symmetry_space_group_name_H-M   'P 1'
_cell_length_a   6.24301000
_cell_length_b   8.82895000
_cell_length_c   26.62170000
_cell_angle_alpha   90.00000000
_cell_angle_beta   90.00000000
_cell_angle_gamma   90.00000000
_symmetry_Int_Tables_number   1
_chemical_formula_structural   Ti16Rh16C
_chemical_formula_sum   'Ti16 Rh16 C1'
_cell_volume   1467.36742265
_cell_formula_units_Z   1
loop_
 _symmetry_equiv_pos_site_id
 _symmetry_equiv_pos_as_xyz
  1  'x, y, z'
loop_
 _atom_site_type_symbol
 _atom_site_label
 _atom_site_symmetry_multiplicity
 _atom_site_fract_x
 _atom_site_fract_y
 _atom_site_fract_z
 _atom_site_occupancy
  Ti  Ti0  1  0.25000000  0.25000000  0.87563000  1.0
  Ti  Ti1  1  0.25000000  0.00000000  0.95854000  1.0
  Ti  Ti2  1  0.24865000  0.24912000  0.04324000  1.0
  Ti  Ti3  1  0.26962000  0.00000000  0.12879000  1.0
  Ti  Ti4  1  0.25000000  0.75000000  0.87563000  1.0
  Ti  Ti5  1  0.25000000  0.50000000  0.95854000  1.0
  Ti  Ti6  1  0.24865000  0.75088000  0.04324000  1.0
  Ti  Ti7  1  0.24907000  0.50000000  0.12815000  1.0
  Ti  Ti8  1  0.75000000  0.25000000  0.87563000  1.0
  Ti  Ti9  1  0.75000000  0.00000000  0.95854000  1.0
  Ti  Ti10  1  0.75135000  0.24912000  0.04324000  1.0
  Ti  Ti11  1  0.73038000  0.00000000  0.12879000  1.0
  Ti  Ti12  1  0.75000000  0.75000000  0.87563000  1.0
  Ti  Ti13  1  0.75000000  0.50000000  0.95854000  1.0
  Ti  Ti14  1  0.75135000  0.75088000  0.04324000  1.0
  Ti  Ti15  1  0.75093000  0.50000000  0.12815000  1.0
  Rh  Rh16  1  0.00000000  0.00000000  0.87563000  1.0
  Rh  Rh17  1  0.00000000  0.25000000  0.95854000  1.0
  Rh  Rh18  1  0.00000000  0.00000000  0.03865000  1.0
  Rh  Rh19  1  0.00000000  0.25534000  0.11996000  1.0
  Rh  Rh20  1  0.00000000  0.50000000  0.87563000  1.0
  Rh  Rh21  1  0.00000000  0.75000000  0.95854000  1.0
  Rh  Rh22  1  0.00000000  0.50000000  0.04651000  1.0
  Rh  Rh23  1  0.00000000  0.74466000  0.11996000  1.0
  Rh  Rh24  1  0.50000000  0.00000000  0.87563000  1.0
  Rh  Rh25  1  0.50000000  0.25000000  0.95854000  1.0
  Rh  Rh26  1  0.50000000  0.00000000  0.03785000  1.0
  Rh  Rh27  1  0.50000000  0.25848000  0.11732000  1.0
  Rh  Rh28  1  0.50000000  0.50000000  0.87563000  1.0
  Rh  Rh29  1  0.50000000  0.75000000  0.95854000  1.0
  Rh  Rh30  1  0.50000000  0.50000000  0.04025000  1.0
  Rh  Rh31  1  0.50000000  0.74152000  0.11732000  1.0
  C  C32  1  0.00000000  0.00000000  0.16180000  1.0
