# generated using pymatgen
data_Ti16Rh16C
_symmetry_space_group_name_H-M   Pmm2
_cell_length_a   6.24301000
_cell_length_b   8.82895000
_cell_length_c   26.62170000
_cell_angle_alpha   90.00000000
_cell_angle_beta   90.00000000
_cell_angle_gamma   90.00000000
_symmetry_Int_Tables_number   25
_chemical_formula_structural   Ti16Rh16C
_chemical_formula_sum   'Ti16 Rh16 C1'
_cell_volume   1467.36742265
_cell_formula_units_Z   1
loop_
 _symmetry_equiv_pos_site_id
 _symmetry_equiv_pos_as_xyz
  1  'x, y, z'
  2  '-x, -y, z'
  3  '-x, y, z'
  4  'x, -y, z'
loop_
 _atom_site_type_symbol
 _atom_site_label
 _atom_site_symmetry_multiplicity
 _atom_site_fract_x
 _atom_site_fract_y
 _atom_site_fract_z
 _atom_site_occupancy
  Ti  Ti0  4  0.24865000  0.24912000  0.04324000  1.0
  Ti  Ti1  4  0.25000000  0.25000000  0.87563000  1.0
  Ti  Ti2  2  0.24907000  0.50000000  0.12815000  1.0
  Ti  Ti3  2  0.25000000  0.00000000  0.95854000  1.0
  Ti  Ti4  2  0.25000000  0.50000000  0.95854000  1.0
  Ti  Ti5  2  0.26962000  0.00000000  0.12879000  1.0
  Rh  Rh6  2  0.00000000  0.25000000  0.95854000  1.0
  Rh  Rh7  2  0.00000000  0.25534000  0.11996000  1.0
  Rh  Rh8  2  0.50000000  0.25000000  0.95854000  1.0
  Rh  Rh9  2  0.50000000  0.25848000  0.11732000  1.0
  Rh  Rh10  1  0.00000000  0.00000000  0.03865000  1.0
  Rh  Rh11  1  0.00000000  0.00000000  0.87563000  1.0
  Rh  Rh12  1  0.00000000  0.50000000  0.04651000  1.0
  Rh  Rh13  1  0.00000000  0.50000000  0.87563000  1.0
  Rh  Rh14  1  0.50000000  0.00000000  0.03785000  1.0
  Rh  Rh15  1  0.50000000  0.00000000  0.87563000  1.0
  Rh  Rh16  1  0.50000000  0.50000000  0.04025000  1.0
  Rh  Rh17  1  0.50000000  0.50000000  0.87563000  1.0
  C  C18  1  0.00000000  0.00000000  0.16180000  1.0
