# generated using pymatgen
data_Li16Sb8Pt8C
_symmetry_space_group_name_H-M   'P 1'
_cell_length_a   9.05843000
_cell_length_b   6.40528000
_cell_length_c   26.79380000
_cell_angle_alpha   90.00000000
_cell_angle_beta   90.00000000
_cell_angle_gamma   90.00000000
_symmetry_Int_Tables_number   1
_chemical_formula_structural   Li16Sb8Pt8C
_chemical_formula_sum   'Li16 Sb8 Pt8 C1'
_cell_volume   1554.62398264
_cell_formula_units_Z   1
loop_
 _symmetry_equiv_pos_site_id
 _symmetry_equiv_pos_as_xyz
  1  'x, y, z'
loop_
 _atom_site_type_symbol
 _atom_site_label
 _atom_site_symmetry_multiplicity
 _atom_site_fract_x
 _atom_site_fract_y
 _atom_site_fract_z
 _atom_site_occupancy
  Li  Li0  1  0.50000000  0.00000000  0.04226000  1.0
  Li  Li1  1  0.75000000  0.50000000  0.12678000  1.0
  Li  Li2  1  0.00000000  0.00000000  0.04226000  1.0
  Li  Li3  1  0.25000000  0.50000000  0.12678000  1.0
  Li  Li4  1  0.00000000  0.25000000  0.12678000  1.0
  Li  Li5  1  0.50000000  0.25000000  0.12678000  1.0
  Li  Li6  1  0.25000000  0.75000000  0.04226000  1.0
  Li  Li7  1  0.75000000  0.75000000  0.04226000  1.0
  Li  Li8  1  0.00000000  0.98384000  0.88166000  1.0
  Li  Li9  1  0.26197000  0.50974000  0.95981000  1.0
  Li  Li10  1  0.50000000  0.04379000  0.87368000  1.0
  Li  Li11  1  0.73803000  0.50974000  0.95981000  1.0
  Li  Li12  1  0.50000000  0.24572000  0.96041000  1.0
  Li  Li13  1  0.00000000  0.30846000  0.94776000  1.0
  Li  Li14  1  0.72213000  0.74147000  0.87350000  1.0
  Li  Li15  1  0.27787000  0.74147000  0.87350000  1.0
  Sb  Sb16  1  0.75000000  0.00000000  0.12678000  1.0
  Sb  Sb17  1  0.00000000  0.50000000  0.04226000  1.0
  Sb  Sb18  1  0.50000000  0.50000000  0.04226000  1.0
  Sb  Sb19  1  0.25000000  0.00000000  0.12678000  1.0
  Sb  Sb20  1  0.24383000  0.00585000  0.95691000  1.0
  Sb  Sb21  1  0.50000000  0.46289000  0.86925000  1.0
  Sb  Sb22  1  0.00000000  0.59870000  0.85124000  1.0
  Sb  Sb23  1  0.75617000  0.00585000  0.95691000  1.0
  Pt  Pt24  1  0.75000000  0.25000000  0.04226000  1.0
  Pt  Pt25  1  0.25000000  0.25000000  0.04226000  1.0
  Pt  Pt26  1  0.50000000  0.75000000  0.12678000  1.0
  Pt  Pt27  1  0.00000000  0.75000000  0.12678000  1.0
  Pt  Pt28  1  0.21974000  0.27460000  0.87940000  1.0
  Pt  Pt29  1  0.78026000  0.27460000  0.87940000  1.0
  Pt  Pt30  1  0.00000000  0.74220000  0.96014000  1.0
  Pt  Pt31  1  0.50000000  0.77124000  0.94894000  1.0
  C  C32  1  0.00000000  0.27414000  0.86266000  1.0
