# generated using pymatgen
data_Be8Pd8CO
_symmetry_space_group_name_H-M   'P 1'
_cell_length_a   5.70199000
_cell_length_b   5.70199000
_cell_length_c   24.27650000
_cell_angle_alpha   90.00000000
_cell_angle_beta   90.00000000
_cell_angle_gamma   90.00000000
_symmetry_Int_Tables_number   1
_chemical_formula_structural   Be8Pd8CO
_chemical_formula_sum   'Be8 Pd8 C1 O1'
_cell_volume   789.29431782
_cell_formula_units_Z   1
loop_
 _symmetry_equiv_pos_site_id
 _symmetry_equiv_pos_as_xyz
  1  'x, y, z'
loop_
 _atom_site_type_symbol
 _atom_site_label
 _atom_site_symmetry_multiplicity
 _atom_site_fract_x
 _atom_site_fract_y
 _atom_site_fract_z
 _atom_site_occupancy
  Be  Be0  1  0.75000000  0.75000000  0.88715000  1.0
  Be  Be1  1  0.75000000  0.75000000  0.00458000  1.0
  Be  Be2  1  0.75000000  0.25000000  0.88715000  1.0
  Be  Be3  1  0.75000000  0.25000000  0.00458000  1.0
  Be  Be4  1  0.25000000  0.75000000  0.88715000  1.0
  Be  Be5  1  0.25000000  0.75000000  0.00458000  1.0
  Be  Be6  1  0.25000000  0.25000000  0.88715000  1.0
  Be  Be7  1  0.25000000  0.25000000  0.00458000  1.0
  Pd  Pd8  1  0.00000000  0.00000000  0.94587000  1.0
  Pd  Pd9  1  0.00000000  0.00000000  0.06330000  1.0
  Pd  Pd10  1  0.00000000  0.50000000  0.94587000  1.0
  Pd  Pd11  1  0.00000000  0.50000000  0.06330000  1.0
  Pd  Pd12  1  0.50000000  0.00000000  0.94587000  1.0
  Pd  Pd13  1  0.50000000  0.00000000  0.06330000  1.0
  Pd  Pd14  1  0.50000000  0.50000000  0.94587000  1.0
  Pd  Pd15  1  0.50000000  0.50000000  0.06330000  1.0
  C  C16  1  0.00000000  0.00000000  0.14157000  1.0
  O  O17  1  0.00000000  0.00000000  0.18894000  1.0
