data_image0
_chemical_formula_structural       Li8Y8In8Pt8CO
_chemical_formula_sum              "Li8 Y8 In8 Pt8 C1 O1"
_cell_length_a       6.80323
_cell_length_b       9.62122
_cell_length_c       27.2159
_cell_angle_alpha    90
_cell_angle_beta     90
_cell_angle_gamma    90

_space_group_name_H-M_alt    "P 1"
_space_group_IT_number       1

loop_
  _space_group_symop_operation_xyz
  'x, y, z'

loop_
  _atom_site_type_symbol
  _atom_site_label
  _atom_site_symmetry_multiplicity
  _atom_site_fract_x
  _atom_site_fract_y
  _atom_site_fract_z
  _atom_site_occupancy
  Li  Li1       1.0  0.75000  0.00000  0.95581  1.0000
  Li  Li2       1.0  0.75000  0.50000  0.95581  1.0000
  Li  Li3       1.0  0.25000  0.25000  0.86743  1.0000
  Li  Li4       1.0  0.25000  0.75000  0.86743  1.0000
  Li  Li5       1.0  0.54884  0.49912  0.18622  1.0000
  Li  Li6       1.0  0.54888  0.00086  0.18622  1.0000
  Li  Li7       1.0  0.24187  0.75001  0.04728  1.0000
  Li  Li8       1.0  0.24092  0.25000  0.04721  1.0000
  Y   Y1        1.0  0.00000  0.25000  0.95581  1.0000
  Y   Y2        1.0  0.00000  0.75000  0.95581  1.0000
  Y   Y3        1.0  0.50000  0.50000  0.86743  1.0000
  Y   Y4        1.0  0.50000  0.00000  0.86743  1.0000
  Y   Y5        1.0  0.95302  0.75002  0.13106  1.0000
  Y   Y6        1.0  0.95352  0.25002  0.13277  1.0000
  Y   Y7        1.0  0.51051  0.99975  0.05125  1.0000
  Y   Y8        1.0  0.51050  0.50027  0.05126  1.0000
  In  In1       1.0  0.00000  0.00000  0.86743  1.0000
  In  In2       1.0  0.00000  0.50000  0.86743  1.0000
  In  In3       1.0  0.50000  0.75000  0.95581  1.0000
  In  In4       1.0  0.50000  0.25000  0.95581  1.0000
  In  In5       1.0  0.99414  0.49872  0.04230  1.0000
  In  In6       1.0  0.99414  0.00129  0.04230  1.0000
  In  In7       1.0  0.46437  0.25000  0.13721  1.0000
  In  In8       1.0  0.46056  0.75002  0.13887  1.0000
  Pt  Pt1       1.0  0.25000  0.00000  0.95581  1.0000
  Pt  Pt2       1.0  0.25000  0.50000  0.95581  1.0000
  Pt  Pt3       1.0  0.75000  0.25000  0.86743  1.0000
  Pt  Pt4       1.0  0.75000  0.75000  0.86743  1.0000
  Pt  Pt5       1.0  0.22756  0.50153  0.12515  1.0000
  Pt  Pt6       1.0  0.22757  0.99851  0.12515  1.0000
  Pt  Pt7       1.0  0.74827  0.75001  0.04136  1.0000
  Pt  Pt8       1.0  0.74221  0.25001  0.04029  1.0000
  C   C1        1.0  0.91747  0.25000  0.22393  1.0000
  O   O1        1.0  0.91393  0.25000  0.26642  1.0000
