# generated using pymatgen
data_Li8Y8In8Pt8CO
_symmetry_space_group_name_H-M   'P 1'
_cell_length_a   9.62122000
_cell_length_b   6.80323000
_cell_length_c   27.21590000
_cell_angle_alpha   90.00000000
_cell_angle_beta   90.00000000
_cell_angle_gamma   90.00000000
_symmetry_Int_Tables_number   1
_chemical_formula_structural   Li8Y8In8Pt8CO
_chemical_formula_sum   'Li8 Y8 In8 Pt8 C1 O1'
_cell_volume   1781.42687353
_cell_formula_units_Z   1
loop_
 _symmetry_equiv_pos_site_id
 _symmetry_equiv_pos_as_xyz
  1  'x, y, z'
loop_
 _atom_site_type_symbol
 _atom_site_label
 _atom_site_symmetry_multiplicity
 _atom_site_fract_x
 _atom_site_fract_y
 _atom_site_fract_z
 _atom_site_occupancy
  Li  Li0  1  0.75000000  0.75000000  0.04419000  1.0
  Li  Li1  1  0.25000000  0.75000000  0.04419000  1.0
  Li  Li2  1  0.00000000  0.25000000  0.13257000  1.0
  Li  Li3  1  0.50000000  0.25000000  0.13257000  1.0
  Li  Li4  1  0.24909000  0.54887000  0.81370000  1.0
  Li  Li5  1  0.75091000  0.54887000  0.81370000  1.0
  Li  Li6  1  0.50000000  0.24146000  0.95271000  1.0
  Li  Li7  1  0.00000000  0.24071000  0.95281000  1.0
  Y  Y8  1  0.00000000  0.00000000  0.04419000  1.0
  Y  Y9  1  0.50000000  1.00000000  0.04419000  1.0
  Y  Y10  1  0.25000000  0.50000000  0.13257000  1.0
  Y  Y11  1  0.75000000  0.50000000  0.13257000  1.0
  Y  Y12  1  0.50000000  0.95346000  0.86893000  1.0
  Y  Y13  1  0.00000000  0.95398000  0.86708000  1.0
  Y  Y14  1  0.74979000  0.51070000  0.94880000  1.0
  Y  Y15  1  0.25021000  0.51070000  0.94880000  1.0
  In  In16  1  0.75000000  0.00000000  0.13257000  1.0
  In  In17  1  0.25000000  0.00000000  0.13257000  1.0
  In  In18  1  0.50000000  0.50000000  0.04419000  1.0
  In  In19  1  0.00000000  0.50000000  0.04419000  1.0
  In  In20  1  0.24898000  0.99431000  0.95785000  1.0
  In  In21  1  0.75102000  0.99431000  0.95785000  1.0
  In  In22  1  0.00000000  0.46428000  0.86272000  1.0
  In  In23  1  0.50000000  0.46085000  0.86119000  1.0
  Pt  Pt24  1  0.75000000  0.25000000  0.04419000  1.0
  Pt  Pt25  1  0.25000000  0.25000000  0.04419000  1.0
  Pt  Pt26  1  0.00000000  0.75000000  0.13257000  1.0
  Pt  Pt27  1  0.50000000  0.75000000  0.13257000  1.0
  Pt  Pt28  1  0.25153000  0.22758000  0.87482000  1.0
  Pt  Pt29  1  0.74847000  0.22758000  0.87482000  1.0
  Pt  Pt30  1  0.50000000  0.74774000  0.95876000  1.0
  Pt  Pt31  1  0.00000000  0.74290000  0.95974000  1.0
  C  C32  1  0.00000000  0.91743000  0.77609000  1.0
  O  O33  1  0.00000000  0.91296000  0.73359000  1.0
