# generated using pymatgen
data_Li8Y8In8Pt8CO
_symmetry_space_group_name_H-M   Pm
_cell_length_a   6.80323000
_cell_length_b   9.62122000
_cell_length_c   27.21590000
_cell_angle_alpha   90.00000000
_cell_angle_beta   90.00000000
_cell_angle_gamma   90.00000000
_symmetry_Int_Tables_number   6
_chemical_formula_structural   Li8Y8In8Pt8CO
_chemical_formula_sum   'Li8 Y8 In8 Pt8 C1 O1'
_cell_volume   1781.42687353
_cell_formula_units_Z   1
loop_
 _symmetry_equiv_pos_site_id
 _symmetry_equiv_pos_as_xyz
  1  'x, y, z'
  2  'x, -y, z'
loop_
 _atom_site_type_symbol
 _atom_site_label
 _atom_site_symmetry_multiplicity
 _atom_site_fract_x
 _atom_site_fract_y
 _atom_site_fract_z
 _atom_site_occupancy
  Li  Li0  2  0.54887000  0.24909000  0.18630000  1.0
  Li  Li1  2  0.75000000  0.25000000  0.95581000  1.0
  Li  Li2  1  0.24071000  0.00000000  0.04719000  1.0
  Li  Li3  1  0.24146000  0.50000000  0.04729000  1.0
  Li  Li4  1  0.25000000  0.00000000  0.86743000  1.0
  Li  Li5  1  0.25000000  0.50000000  0.86743000  1.0
  Y  Y6  2  0.50000000  0.25000000  0.86743000  1.0
  Y  Y7  2  0.51070000  0.25021000  0.05120000  1.0
  Y  Y8  1  -0.00000000  0.50000000  0.95581000  1.0
  Y  Y9  1  0.00000000  0.00000000  0.95581000  1.0
  Y  Y10  1  0.95346000  0.50000000  0.13107000  1.0
  Y  Y11  1  0.95398000  0.00000000  0.13292000  1.0
  In  In12  2  0.00000000  0.25000000  0.86743000  1.0
  In  In13  2  0.99431000  0.24898000  0.04215000  1.0
  In  In14  1  0.46085000  0.50000000  0.13881000  1.0
  In  In15  1  0.46428000  0.00000000  0.13728000  1.0
  In  In16  1  0.50000000  0.00000000  0.95581000  1.0
  In  In17  1  0.50000000  0.50000000  0.95581000  1.0
  Pt  Pt18  2  0.22758000  0.25153000  0.12518000  1.0
  Pt  Pt19  2  0.25000000  0.25000000  0.95581000  1.0
  Pt  Pt20  1  0.74290000  0.00000000  0.04026000  1.0
  Pt  Pt21  1  0.74774000  0.50000000  0.04124000  1.0
  Pt  Pt22  1  0.75000000  0.00000000  0.86743000  1.0
  Pt  Pt23  1  0.75000000  0.50000000  0.86743000  1.0
  C  C24  1  0.91743000  0.00000000  0.22391000  1.0
  O  O25  1  0.91296000  0.00000000  0.26641000  1.0
