# generated using pymatgen
data_Zn2AgAu
_symmetry_space_group_name_H-M   Pmm2
_cell_length_a   4.49016500
_cell_length_b   6.35005000
_cell_length_c   26.73520000
_cell_angle_alpha   90.00000000
_cell_angle_beta   90.00000000
_cell_angle_gamma   90.00000000
_symmetry_Int_Tables_number   25
_chemical_formula_structural   Zn2AgAu
_chemical_formula_sum   'Zn8 Ag4 Au4'
_cell_volume   762.29466888
_cell_formula_units_Z   4
loop_
 _symmetry_equiv_pos_site_id
 _symmetry_equiv_pos_as_xyz
  1  'x, y, z'
  2  '-x, -y, z'
  3  '-x, y, z'
  4  'x, -y, z'
loop_
 _atom_site_type_symbol
 _atom_site_label
 _atom_site_symmetry_multiplicity
 _atom_site_fract_x
 _atom_site_fract_y
 _atom_site_fract_z
 _atom_site_occupancy
  Zn  Zn0  2  0.00000000  0.24204000  0.86380000  1.0
  Zn  Zn1  2  0.00000000  0.25000000  0.04199000  1.0
  Zn  Zn2  2  0.50000000  0.25000000  0.12596000  1.0
  Zn  Zn3  2  0.50000000  0.25918000  0.95278000  1.0
  Ag  Ag4  1  0.00000000  0.00000000  0.12596000  1.0
  Ag  Ag5  1  0.00000000  0.00000000  0.95713000  1.0
  Ag  Ag6  1  0.50000000  0.50000000  0.04199000  1.0
  Ag  Ag7  1  0.50000000  0.50000000  0.86109000  1.0
  Au  Au8  1  0.00000000  0.50000000  0.12596000  1.0
  Au  Au9  1  0.00000000  0.50000000  0.95687000  1.0
  Au  Au10  1  0.50000000  0.00000000  0.04199000  1.0
  Au  Au11  1  0.50000000  0.00000000  0.87063000  1.0
