# generated using pymatgen
data_Li2InIr
_symmetry_space_group_name_H-M   P4mm
_cell_length_a   4.36952393
_cell_length_b   4.36952393
_cell_length_c   24.63460000
_cell_angle_alpha   90.00000000
_cell_angle_beta   90.00000000
_cell_angle_gamma   90.00000000
_symmetry_Int_Tables_number   99
_chemical_formula_structural   Li2InIr
_chemical_formula_sum   'Li4 In2 Ir2'
_cell_volume   470.34199696
_cell_formula_units_Z   2
loop_
 _symmetry_equiv_pos_site_id
 _symmetry_equiv_pos_as_xyz
  1  'x, y, z'
  2  '-y, x, z'
  3  '-x, -y, z'
  4  'y, -x, z'
  5  '-x, y, z'
  6  'y, x, z'
  7  'x, -y, z'
  8  '-y, -x, z'
loop_
 _atom_site_type_symbol
 _atom_site_label
 _atom_site_symmetry_multiplicity
 _atom_site_fract_x
 _atom_site_fract_y
 _atom_site_fract_z
 _atom_site_occupancy
  Li  Li0  2  0.00000000  0.50000000  0.03136000  1.0
  Li  Li1  2  0.00000000  0.50000000  0.90593000  1.0
  In  In2  1  0.00000000  0.00000000  0.09407000  1.0
  In  In3  1  0.50000000  0.50000000  0.96864000  1.0
  Ir  Ir4  1  0.00000000  0.00000000  0.96864000  1.0
  Ir  Ir5  1  0.50000000  0.50000000  0.09407000  1.0
