# generated using pymatgen
data_Y8In8Ag8Pd8CO
_symmetry_space_group_name_H-M   P1
_cell_length_a   6.92663000
_cell_length_b   9.79574000
_cell_length_c   27.34680000
_cell_angle_alpha   90.00000000
_cell_angle_beta   90.00000000
_cell_angle_gamma   90.00000000
_symmetry_Int_Tables_number   1
_chemical_formula_structural   Y8In8Ag8Pd8CO
_chemical_formula_sum   'Y8 In8 Ag8 Pd8 C1 O1'
_cell_volume   1855.52048562
_cell_formula_units_Z   1
loop_
 _symmetry_equiv_pos_site_id
 _symmetry_equiv_pos_as_xyz
  1  'x, y, z'
loop_
 _atom_site_type_symbol
 _atom_site_label
 _atom_site_symmetry_multiplicity
 _atom_site_fract_x
 _atom_site_fract_y
 _atom_site_fract_z
 _atom_site_occupancy
  Y  Y0  1  0.25000000  0.25000000  0.86567000  1.0
  Y  Y1  1  0.25000000  0.75000000  0.86567000  1.0
  Y  Y2  1  0.25964000  0.75001000  0.05345000  1.0
  Y  Y3  1  0.26910000  0.25001000  0.05697000  1.0
  Y  Y4  1  0.68707000  0.49867000  0.12897000  1.0
  Y  Y5  1  0.68710000  0.00132000  0.12897000  1.0
  Y  Y6  1  0.75000000  0.00000000  0.95522000  1.0
  Y  Y7  1  0.75000000  0.50000000  0.95522000  1.0
  In  In8  1  0.19031000  0.00110000  0.14294000  1.0
  In  In9  1  0.19033000  0.49889000  0.14295000  1.0
  In  In10  1  0.25000000  0.00000000  0.95522000  1.0
  In  In11  1  0.25000000  0.50000000  0.95522000  1.0
  In  In12  1  0.74814000  0.75001000  0.04290000  1.0
  In  In13  1  0.74902000  0.25001000  0.04309000  1.0
  In  In14  1  0.75000000  0.25000000  0.86567000  1.0
  In  In15  1  0.75000000  0.75000000  0.86567000  1.0
  Ag  Ag16  1  0.00000000  0.00000000  0.86567000  1.0
  Ag  Ag17  1  0.00000000  0.50000000  0.86567000  1.0
  Ag  Ag18  1  0.00146000  0.49824000  0.04684000  1.0
  Ag  Ag19  1  0.00147000  0.00178000  0.04683000  1.0
  Ag  Ag20  1  0.39914000  0.24998000  0.16580000  1.0
  Ag  Ag21  1  0.41003000  0.75000000  0.15971000  1.0
  Ag  Ag22  1  0.50000000  0.25000000  0.95522000  1.0
  Ag  Ag23  1  0.50000000  0.75000000  0.95522000  1.0
  Pd  Pd24  1  0.00000000  0.25000000  0.95522000  1.0
  Pd  Pd25  1  0.00000000  0.75000000  0.95522000  1.0
  Pd  Pd26  1  0.49126000  0.50192000  0.03995000  1.0
  Pd  Pd27  1  0.49126000  0.99810000  0.03995000  1.0
  Pd  Pd28  1  0.50000000  0.00000000  0.86567000  1.0
  Pd  Pd29  1  0.50000000  0.50000000  0.86567000  1.0
  Pd  Pd30  1  0.96355000  0.25000000  0.12853000  1.0
  Pd  Pd31  1  0.96492000  0.74999000  0.12823000  1.0
  C  C32  1  0.49768000  0.24978000  0.24353000  1.0
  O  O33  1  0.58348000  0.24990000  0.27944000  1.0
