# generated using pymatgen
data_Li8Y8Sn8Pb8C
_symmetry_space_group_name_H-M   Pmm2
_cell_length_a   8.87168000
_cell_length_b   9.36828000
_cell_length_c   27.23350000
_cell_angle_alpha   90.00000000
_cell_angle_beta   90.00000000
_cell_angle_gamma   90.00000000
_symmetry_Int_Tables_number   25
_chemical_formula_structural   Li8Y8Sn8Pb8C
_chemical_formula_sum   'Li8 Y8 Sn8 Pb8 C1'
_cell_volume   2263.44106365
_cell_formula_units_Z   1
loop_
 _symmetry_equiv_pos_site_id
 _symmetry_equiv_pos_as_xyz
  1  'x, y, z'
  2  '-x, -y, z'
  3  '-x, y, z'
  4  'x, -y, z'
loop_
 _atom_site_type_symbol
 _atom_site_label
 _atom_site_symmetry_multiplicity
 _atom_site_fract_x
 _atom_site_fract_y
 _atom_site_fract_z
 _atom_site_occupancy
  Li  Li0  1  0.00000000  0.00000000  0.05091000  1.0
  Li  Li1  1  0.00000000  0.00000000  0.86720000  1.0
  Li  Li2  1  0.00000000  0.50000000  0.04537000  1.0
  Li  Li3  1  0.00000000  0.50000000  0.86720000  1.0
  Li  Li4  1  0.50000000  0.00000000  0.04256000  1.0
  Li  Li5  1  0.50000000  0.00000000  0.86720000  1.0
  Li  Li6  1  0.50000000  0.50000000  0.04484000  1.0
  Li  Li7  1  0.50000000  0.50000000  0.86720000  1.0
  Y  Y8  2  0.00000000  0.24885000  0.13244000  1.0
  Y  Y9  2  0.00000000  0.25000000  0.95573000  1.0
  Y  Y10  2  0.50000000  0.25000000  0.95573000  1.0
  Y  Y11  2  0.50000000  0.25216000  0.13045000  1.0
  Sn  Sn12  2  0.25000000  0.00000000  0.95573000  1.0
  Sn  Sn13  2  0.25000000  0.50000000  0.95573000  1.0
  Sn  Sn14  2  0.25286000  0.00000000  0.14478000  1.0
  Sn  Sn15  2  0.25366000  0.50000000  0.13242000  1.0
  Pb  Pb16  4  0.25000000  0.25000000  0.86720000  1.0
  Pb  Pb17  4  0.25142000  0.25225000  0.04572000  1.0
  C  C18  1  0.00000000  0.00000000  0.13072000  1.0
