# generated using pymatgen
data_LiMgInAg
_symmetry_space_group_name_H-M   'P 1'
_cell_length_a   6.69019000
_cell_length_b   6.69019000
_cell_length_c   25.01760000
_cell_angle_alpha   90.00000000
_cell_angle_beta   90.00000000
_cell_angle_gamma   90.00000000
_symmetry_Int_Tables_number   1
_chemical_formula_structural   LiMgInAg
_chemical_formula_sum   'Li4 Mg4 In4 Ag4'
_cell_volume   1119.75380801
_cell_formula_units_Z   4
loop_
 _symmetry_equiv_pos_site_id
 _symmetry_equiv_pos_as_xyz
  1  'x, y, z'
loop_
 _atom_site_type_symbol
 _atom_site_label
 _atom_site_symmetry_multiplicity
 _atom_site_fract_x
 _atom_site_fract_y
 _atom_site_fract_z
 _atom_site_occupancy
  Li  Li0  1  0.99999000  0.49998000  0.88406000  1
  Li  Li1  1  0.00000000  0.00000000  0.03343000  1
  Li  Li2  1  0.50000000  0.50000000  0.03343000  1
  Li  Li3  1  0.49998000  0.99999000  0.88406000  1
  Mg  Mg4  1  0.74869000  0.74869000  0.96122000  1
  Mg  Mg5  1  0.75000000  0.25000000  0.10028000  1
  Mg  Mg6  1  0.25000000  0.75000000  0.10028000  1
  Mg  Mg7  1  0.25152500  0.25152500  0.96126000  1
  In  In8  1  0.25045000  0.74958000  0.96089000  1
  In  In9  1  0.25000000  0.25000000  0.10028000  1
  In  In10  1  0.75000000  0.75000000  0.10028000  1
  In  In11  1  0.74958000  0.25045000  0.96089000  1
  Ag  Ag12  1  0.00003000  0.00003000  0.89762000  1
  Ag  Ag13  1  0.00000000  0.50000000  0.03343000  1
  Ag  Ag14  1  0.50000000  1.00000000  0.03343000  1
  Ag  Ag15  1  0.50002000  0.50002000  0.89685000  1
