# generated using pymatgen
data_Zr8Ni16Sn8C
_symmetry_space_group_name_H-M   'P 1'
_cell_length_a   6.34847000
_cell_length_b   8.97809000
_cell_length_c   26.73360000
_cell_angle_alpha   90.00000000
_cell_angle_beta   90.00000000
_cell_angle_gamma   90.00000000
_symmetry_Int_Tables_number   1
_chemical_formula_structural   Zr8Ni16Sn8C
_chemical_formula_sum   'Zr8 Ni16 Sn8 C1'
_cell_volume   1523.73860883
_cell_formula_units_Z   1
loop_
 _symmetry_equiv_pos_site_id
 _symmetry_equiv_pos_as_xyz
  1  'x, y, z'
loop_
 _atom_site_type_symbol
 _atom_site_label
 _atom_site_symmetry_multiplicity
 _atom_site_fract_x
 _atom_site_fract_y
 _atom_site_fract_z
 _atom_site_occupancy
  Zr  Zr0  1  0.00000000  0.00000000  0.87406000  1.0
  Zr  Zr1  1  0.50000000  0.24999000  0.95802000  1.0
  Zr  Zr2  1  0.50000000  0.75001000  0.95802000  1.0
  Zr  Zr3  1  0.00000000  0.50000000  0.87406000  1.0
  Zr  Zr4  1  0.00000000  0.50000000  0.04113000  1.0
  Zr  Zr5  1  0.50000000  0.75814000  0.12858000  1.0
  Zr  Zr6  1  0.50000000  0.24186000  0.12858000  1.0
  Zr  Zr7  1  0.00000000  0.00000000  0.04187000  1.0
  Ni  Ni8  1  0.24999000  0.00000000  0.95802000  1.0
  Ni  Ni9  1  0.74999000  0.50000000  0.95802000  1.0
  Ni  Ni10  1  0.75001000  0.00000000  0.95802000  1.0
  Ni  Ni11  1  0.25001000  0.50000000  0.95802000  1.0
  Ni  Ni12  1  0.74999000  0.74999000  0.87406000  1.0
  Ni  Ni13  1  0.25001000  0.25001000  0.87406000  1.0
  Ni  Ni14  1  0.25001000  0.74999000  0.87406000  1.0
  Ni  Ni15  1  0.74999000  0.25001000  0.87406000  1.0
  Ni  Ni16  1  0.24845000  0.50000000  0.12023000  1.0
  Ni  Ni17  1  0.78979000  0.00000000  0.12626000  1.0
  Ni  Ni18  1  0.75155000  0.50000000  0.12023000  1.0
  Ni  Ni19  1  0.21021000  0.00000000  0.12626000  1.0
  Ni  Ni20  1  0.73897000  0.25054000  0.04408000  1.0
  Ni  Ni21  1  0.26103000  0.74946000  0.04408000  1.0
  Ni  Ni22  1  0.26103000  0.25054000  0.04408000  1.0
  Ni  Ni23  1  0.73897000  0.74946000  0.04408000  1.0
  Sn  Sn24  1  0.00000000  0.74999000  0.95802000  1.0
  Sn  Sn25  1  0.50000000  0.00000000  0.87406000  1.0
  Sn  Sn26  1  0.00000000  0.25001000  0.95802000  1.0
  Sn  Sn27  1  0.50000000  0.50000000  0.87406000  1.0
  Sn  Sn28  1  0.00000000  0.25546000  0.12982000  1.0
  Sn  Sn29  1  0.50000000  0.50000000  0.04136000  1.0
  Sn  Sn30  1  0.00000000  0.74454000  0.12982000  1.0
  Sn  Sn31  1  0.50000000  0.00000000  0.04224000  1.0
  C  C32  1  0.50000000  0.00000000  0.14394000  1.0
