# generated using pymatgen
data_Li8Al8Ag8Pd8CO
_symmetry_space_group_name_H-M   'P 1'
_cell_length_a   8.79558000
_cell_length_b   6.21941000
_cell_length_c   26.59670000
_cell_angle_alpha   90.00000000
_cell_angle_beta   90.00000000
_cell_angle_gamma   90.00000000
_symmetry_Int_Tables_number   1
_chemical_formula_structural   Li8Al8Ag8Pd8CO
_chemical_formula_sum   'Li8 Al8 Ag8 Pd8 C1 O1'
_cell_volume   1454.92774338
_cell_formula_units_Z   1
loop_
 _symmetry_equiv_pos_site_id
 _symmetry_equiv_pos_as_xyz
  1  'x, y, z'
loop_
 _atom_site_type_symbol
 _atom_site_label
 _atom_site_symmetry_multiplicity
 _atom_site_fract_x
 _atom_site_fract_y
 _atom_site_fract_z
 _atom_site_occupancy
  Li  Li0  1  0.75000000  0.25000000  0.04134000  1.0
  Li  Li1  1  0.25000000  0.25000000  0.04134000  1.0
  Li  Li2  1  0.00000000  0.75000000  0.12401000  1.0
  Li  Li3  1  0.50000000  0.75000000  0.12401000  1.0
  Li  Li4  1  0.25136000  0.23610000  0.86782000  1.0
  Li  Li5  1  0.74864000  0.23610000  0.86782000  1.0
  Li  Li6  1  0.50000000  0.74539000  0.96087000  1.0
  Li  Li7  1  0.00000000  0.75212000  0.95957000  1.0
  Al  Al8  1  0.75000000  0.75000000  0.04134000  1.0
  Al  Al9  1  0.25000000  0.75000000  0.04134000  1.0
  Al  Al10  1  0.00000000  0.25000000  0.12401000  1.0
  Al  Al11  1  0.50000000  0.25000000  0.12401000  1.0
  Al  Al12  1  0.25439000  0.75037000  0.87959000  1.0
  Al  Al13  1  0.74561000  0.75037000  0.87959000  1.0
  Al  Al14  1  0.50000000  0.24898000  0.95764000  1.0
  Al  Al15  1  0.00000000  0.24758000  0.95821000  1.0
  Ag  Ag16  1  0.75000000  0.00000000  0.12401000  1.0
  Ag  Ag17  1  0.25000000  0.00000000  0.12401000  1.0
  Ag  Ag18  1  0.50000000  0.50000000  0.04134000  1.0
  Ag  Ag19  1  0.00000000  0.50000000  0.04134000  1.0
  Ag  Ag20  1  0.24659000  0.00339000  0.95905000  1.0
  Ag  Ag21  1  0.75341000  0.00339000  0.95905000  1.0
  Ag  Ag22  1  0.00000000  0.50838000  0.87776000  1.0
  Ag  Ag23  1  0.50000000  0.50007000  0.87519000  1.0
  Pd  Pd24  1  0.00000000  0.00000000  0.04134000  1.0
  Pd  Pd25  1  0.50000000  1.00000000  0.04134000  1.0
  Pd  Pd26  1  0.25000000  0.50000000  0.12401000  1.0
  Pd  Pd27  1  0.75000000  0.50000000  0.12401000  1.0
  Pd  Pd28  1  0.50000000  0.98035000  0.88296000  1.0
  Pd  Pd29  1  0.00000000  0.98784000  0.87448000  1.0
  Pd  Pd30  1  0.75069000  0.49412000  0.95933000  1.0
  Pd  Pd31  1  0.24931000  0.49412000  0.95933000  1.0
  C  C32  1  0.00000000  0.04869000  0.80199000  1.0
  O  O33  1  0.00000000  0.05721000  0.75863000  1.0
