data_image0
_chemical_formula_structural       Zn16Ag16C
_chemical_formula_sum              "Zn16 Ag16 C1"
_cell_length_a       6.41951
_cell_length_b       9.07856
_cell_length_c       26.8089
_cell_angle_alpha    90
_cell_angle_beta     90
_cell_angle_gamma    90

_space_group_name_H-M_alt    "P 1"
_space_group_IT_number       1

loop_
  _space_group_symop_operation_xyz
  'x, y, z'

loop_
  _atom_site_type_symbol
  _atom_site_label
  _atom_site_symmetry_multiplicity
  _atom_site_fract_x
  _atom_site_fract_y
  _atom_site_fract_z
  _atom_site_occupancy
  Zn  Zn1       1.0  0.25000  0.25000  0.87301  1.0000
  Zn  Zn2       1.0  0.25000  0.00000  0.95767  1.0000
  Zn  Zn3       1.0  0.25000  0.25000  0.04233  1.0000
  Zn  Zn4       1.0  0.25000  0.00000  0.12699  1.0000
  Zn  Zn5       1.0  0.25000  0.75000  0.87301  1.0000
  Zn  Zn6       1.0  0.25000  0.50000  0.95767  1.0000
  Zn  Zn7       1.0  0.25000  0.75000  0.04233  1.0000
  Zn  Zn8       1.0  0.25000  0.50000  0.12699  1.0000
  Zn  Zn9       1.0  0.75000  0.25000  0.87301  1.0000
  Zn  Zn10      1.0  0.75000  0.00000  0.95767  1.0000
  Zn  Zn11      1.0  0.75000  0.25000  0.04233  1.0000
  Zn  Zn12      1.0  0.75000  0.00000  0.12699  1.0000
  Zn  Zn13      1.0  0.75000  0.75000  0.87301  1.0000
  Zn  Zn14      1.0  0.75000  0.50000  0.95767  1.0000
  Zn  Zn15      1.0  0.75000  0.75000  0.04233  1.0000
  Zn  Zn16      1.0  0.75000  0.50000  0.12699  1.0000
  Ag  Ag1       1.0  0.00000  0.00000  0.87301  1.0000
  Ag  Ag2       1.0  0.00000  0.25000  0.95767  1.0000
  Ag  Ag3       1.0  0.00000  0.00000  0.04233  1.0000
  Ag  Ag4       1.0  0.00000  0.25000  0.12699  1.0000
  Ag  Ag5       1.0  0.00000  0.50000  0.87301  1.0000
  Ag  Ag6       1.0  0.00000  0.75000  0.95767  1.0000
  Ag  Ag7       1.0  0.00000  0.50000  0.04233  1.0000
  Ag  Ag8       1.0  0.00000  0.75000  0.12699  1.0000
  Ag  Ag9       1.0  0.50000  0.00000  0.87301  1.0000
  Ag  Ag10      1.0  0.50000  0.25000  0.95767  1.0000
  Ag  Ag11      1.0  0.50000  0.00000  0.04233  1.0000
  Ag  Ag12      1.0  0.50000  0.25000  0.12699  1.0000
  Ag  Ag13      1.0  0.50000  0.50000  0.87301  1.0000
  Ag  Ag14      1.0  0.50000  0.75000  0.95767  1.0000
  Ag  Ag15      1.0  0.50000  0.50000  0.04233  1.0000
  Ag  Ag16      1.0  0.50000  0.75000  0.12699  1.0000
  C   C1        1.0  0.00000  0.00000  0.15683  1.0000
