# generated using pymatgen
data_Zn16Ag16C
_symmetry_space_group_name_H-M   'P 1'
_cell_length_a   6.41951000
_cell_length_b   9.07856000
_cell_length_c   26.80890000
_cell_angle_alpha   90.00000000
_cell_angle_beta   90.00000000
_cell_angle_gamma   90.00000000
_symmetry_Int_Tables_number   1
_chemical_formula_structural   Zn16Ag16C
_chemical_formula_sum   'Zn16 Ag16 C1'
_cell_volume   1562.42019088
_cell_formula_units_Z   1
loop_
 _symmetry_equiv_pos_site_id
 _symmetry_equiv_pos_as_xyz
  1  'x, y, z'
loop_
 _atom_site_type_symbol
 _atom_site_label
 _atom_site_symmetry_multiplicity
 _atom_site_fract_x
 _atom_site_fract_y
 _atom_site_fract_z
 _atom_site_occupancy
  Zn  Zn0  1  0.25000000  0.25000000  0.87301000  1.0
  Zn  Zn1  1  0.25000000  0.00000000  0.95767000  1.0
  Zn  Zn2  1  0.24856000  0.24938000  0.04354000  1.0
  Zn  Zn3  1  0.30259000  0.00000000  0.14396000  1.0
  Zn  Zn4  1  0.25000000  0.75000000  0.87301000  1.0
  Zn  Zn5  1  0.25000000  0.50000000  0.95767000  1.0
  Zn  Zn6  1  0.24856000  0.75062000  0.04354000  1.0
  Zn  Zn7  1  0.22564000  0.50000000  0.13438000  1.0
  Zn  Zn8  1  0.75000000  0.25000000  0.87301000  1.0
  Zn  Zn9  1  0.75000000  0.00000000  0.95767000  1.0
  Zn  Zn10  1  0.75144000  0.24938000  0.04354000  1.0
  Zn  Zn11  1  0.69741000  0.00000000  0.14396000  1.0
  Zn  Zn12  1  0.75000000  0.75000000  0.87301000  1.0
  Zn  Zn13  1  0.75000000  0.50000000  0.95767000  1.0
  Zn  Zn14  1  0.75144000  0.75062000  0.04354000  1.0
  Zn  Zn15  1  0.77436000  0.50000000  0.13438000  1.0
  Ag  Ag16  1  0.00000000  0.00000000  0.87301000  1.0
  Ag  Ag17  1  0.00000000  0.25000000  0.95767000  1.0
  Ag  Ag18  1  0.00000000  0.00000000  0.04744000  1.0
  Ag  Ag19  1  0.00000000  0.24834000  0.13076000  1.0
  Ag  Ag20  1  0.00000000  0.50000000  0.87301000  1.0
  Ag  Ag21  1  0.00000000  0.75000000  0.95767000  1.0
  Ag  Ag22  1  0.00000000  0.50000000  0.04131000  1.0
  Ag  Ag23  1  0.00000000  0.75166000  0.13076000  1.0
  Ag  Ag24  1  0.50000000  0.00000000  0.87301000  1.0
  Ag  Ag25  1  0.50000000  0.25000000  0.95767000  1.0
  Ag  Ag26  1  0.50000000  0.00000000  0.04415000  1.0
  Ag  Ag27  1  0.50000000  0.26909000  0.12828000  1.0
  Ag  Ag28  1  0.50000000  0.50000000  0.87301000  1.0
  Ag  Ag29  1  0.50000000  0.75000000  0.95767000  1.0
  Ag  Ag30  1  0.50000000  0.50000000  0.04402000  1.0
  Ag  Ag31  1  0.50000000  0.73091000  0.12828000  1.0
  C  C32  1  0.00000000  0.00000000  0.13755000  1.0
