# generated using pymatgen
data_Zn16Ag16C
_symmetry_space_group_name_H-M   Pmm2
_cell_length_a   6.41951000
_cell_length_b   9.07856000
_cell_length_c   26.80890000
_cell_angle_alpha   90.00000000
_cell_angle_beta   90.00000000
_cell_angle_gamma   90.00000000
_symmetry_Int_Tables_number   25
_chemical_formula_structural   Zn16Ag16C
_chemical_formula_sum   'Zn16 Ag16 C1'
_cell_volume   1562.42019088
_cell_formula_units_Z   1
loop_
 _symmetry_equiv_pos_site_id
 _symmetry_equiv_pos_as_xyz
  1  'x, y, z'
  2  '-x, -y, z'
  3  '-x, y, z'
  4  'x, -y, z'
loop_
 _atom_site_type_symbol
 _atom_site_label
 _atom_site_symmetry_multiplicity
 _atom_site_fract_x
 _atom_site_fract_y
 _atom_site_fract_z
 _atom_site_occupancy
  Zn  Zn0  4  0.24856000  0.24938000  0.04354000  1.0
  Zn  Zn1  4  0.25000000  0.25000000  0.87301000  1.0
  Zn  Zn2  2  0.22564000  0.50000000  0.13438000  1.0
  Zn  Zn3  2  0.25000000  0.00000000  0.95767000  1.0
  Zn  Zn4  2  0.25000000  0.50000000  0.95767000  1.0
  Zn  Zn5  2  0.30259000  0.00000000  0.14396000  1.0
  Ag  Ag6  2  0.00000000  0.24834000  0.13076000  1.0
  Ag  Ag7  2  0.00000000  0.25000000  0.95767000  1.0
  Ag  Ag8  2  0.50000000  0.25000000  0.95767000  1.0
  Ag  Ag9  2  0.50000000  0.26909000  0.12828000  1.0
  Ag  Ag10  1  0.00000000  0.00000000  0.04744000  1.0
  Ag  Ag11  1  0.00000000  0.00000000  0.87301000  1.0
  Ag  Ag12  1  0.00000000  0.50000000  0.04131000  1.0
  Ag  Ag13  1  0.00000000  0.50000000  0.87301000  1.0
  Ag  Ag14  1  0.50000000  0.00000000  0.04415000  1.0
  Ag  Ag15  1  0.50000000  0.00000000  0.87301000  1.0
  Ag  Ag16  1  0.50000000  0.50000000  0.04402000  1.0
  Ag  Ag17  1  0.50000000  0.50000000  0.87301000  1.0
  C  C18  1  0.00000000  0.00000000  0.13755000  1.0
