# generated using pymatgen
data_Ca3In
_symmetry_space_group_name_H-M   'P 1'
_cell_length_a   8.11767000
_cell_length_b   8.11767000
_cell_length_c   26.08830000
_cell_angle_alpha   90.00000000
_cell_angle_beta   90.00000000
_cell_angle_gamma   90.00000000
_symmetry_Int_Tables_number   1
_chemical_formula_structural   Ca3In
_chemical_formula_sum   'Ca12 In4'
_cell_volume   1719.12938875
_cell_formula_units_Z   4
loop_
 _symmetry_equiv_pos_site_id
 _symmetry_equiv_pos_as_xyz
  1  'x, y, z'
loop_
 _atom_site_type_symbol
 _atom_site_label
 _atom_site_symmetry_multiplicity
 _atom_site_fract_x
 _atom_site_fract_y
 _atom_site_fract_z
 _atom_site_occupancy
  Ca  Ca0  1  0.25004000  0.25003000  0.04198000  1.0
  Ca  Ca1  1  0.75000000  0.75000000  0.88331000  1.0
  Ca  Ca2  1  0.75004000  0.24991000  0.04198000  1.0
  Ca  Ca3  1  0.25000000  0.75000000  0.88331000  1.0
  Ca  Ca4  1  0.75001000  0.75002000  0.04199000  1.0
  Ca  Ca5  1  0.25000000  0.25000000  0.88331000  1.0
  Ca  Ca6  1  0.25005000  0.75004000  0.04195000  1.0
  Ca  Ca7  1  0.75000000  0.25000000  0.88331000  1.0
  Ca  Ca8  1  0.00000000  0.00000000  0.96110000  1.0
  Ca  Ca9  1  0.49999000  0.99991000  0.13295000  1.0
  Ca  Ca10  1  0.00004000  0.49996000  0.13308000  1.0
  Ca  Ca11  1  0.50000000  0.50000000  0.96110000  1.0
  In  In12  1  0.99995000  0.00005000  0.10271000  1.0
  In  In13  1  0.49999000  0.49996000  0.10275000  1.0
  In  In14  1  0.50000000  0.00000000  0.96110000  1.0
  In  In15  1  0.00000000  0.50000000  0.96110000  1.0
