# generated using pymatgen
data_Li8Y8Ge8Pb8CO
_symmetry_space_group_name_H-M   P1
_cell_length_a   8.65500000
_cell_length_b   9.86128000
_cell_length_c   26.41550000
_cell_angle_alpha   90.00000000
_cell_angle_beta   90.00000000
_cell_angle_gamma   90.00000000
_symmetry_Int_Tables_number   1
_chemical_formula_structural   Li8Y8Ge8Pb8CO
_chemical_formula_sum   'Li8 Y8 Ge8 Pb8 C1 O1'
_cell_volume   2254.54650513
_cell_formula_units_Z   1
loop_
 _symmetry_equiv_pos_site_id
 _symmetry_equiv_pos_as_xyz
  1  'x, y, z'
loop_
 _atom_site_type_symbol
 _atom_site_label
 _atom_site_symmetry_multiplicity
 _atom_site_fract_x
 _atom_site_fract_y
 _atom_site_fract_z
 _atom_site_occupancy
  Li  Li0  1  0.00000000  0.24928000  0.05827000  1.0
  Li  Li1  1  0.00000000  0.25000000  0.95952000  1.0
  Li  Li2  1  0.00000000  0.75000000  0.95952000  1.0
  Li  Li3  1  0.50000000  0.25000000  0.95952000  1.0
  Li  Li4  1  0.50000000  0.25494000  0.11729000  1.0
  Li  Li5  1  0.50000000  0.75000000  0.95952000  1.0
  Li  Li6  1  0.50001000  0.78899000  0.12475000  1.0
  Li  Li7  1  0.99996000  0.75091000  0.11692000  1.0
  Y  Y8  1  0.19848000  0.07405000  0.12534000  1.0
  Y  Y9  1  0.20015000  0.43690000  0.12052000  1.0
  Y  Y10  1  0.25000000  0.00000000  0.95952000  1.0
  Y  Y11  1  0.25000000  0.50000000  0.95952000  1.0
  Y  Y12  1  0.75000000  0.00000000  0.95952000  1.0
  Y  Y13  1  0.75000000  0.50000000  0.95952000  1.0
  Y  Y14  1  0.79982000  0.43695000  0.12051000  1.0
  Y  Y15  1  0.80156000  0.07409000  0.12535000  1.0
  Ge  Ge16  1  0.00000000  0.00000000  0.87856000  1.0
  Ge  Ge17  1  0.00000000  0.50000000  0.87856000  1.0
  Ge  Ge18  1  0.00000000  0.52487000  0.03794000  1.0
  Ge  Ge19  1  0.50000000  0.00000000  0.87856000  1.0
  Ge  Ge20  1  0.50000000  0.50000000  0.87856000  1.0
  Ge  Ge21  1  0.50001000  0.00328000  0.04861000  1.0
  Ge  Ge22  1  0.50002000  0.49506000  0.04911000  1.0
  Ge  Ge23  1  0.99999000  0.97480000  0.04036000  1.0
  Pb  Pb24  1  0.25000000  0.25000000  0.87856000  1.0
  Pb  Pb25  1  0.25000000  0.75000000  0.87856000  1.0
  Pb  Pb26  1  0.26050000  0.75122000  0.04911000  1.0
  Pb  Pb27  1  0.29252000  0.24908000  0.03153000  1.0
  Pb  Pb28  1  0.70745000  0.24905000  0.03153000  1.0
  Pb  Pb29  1  0.73945000  0.75119000  0.04910000  1.0
  Pb  Pb30  1  0.75000000  0.25000000  0.87856000  1.0
  Pb  Pb31  1  0.75000000  0.75000000  0.87856000  1.0
  C  C32  1  0.00007000  0.26231000  0.13882000  1.0
  O  O33  1  0.00002000  0.13959000  0.17099000  1.0
