# generated using pymatgen
data_LiYInSn
_symmetry_space_group_name_H-M   'P 1'
_cell_length_a   6.33264000
_cell_length_b   4.68328000
_cell_length_c   24.74860000
_cell_angle_alpha   90.00000000
_cell_angle_beta   90.00000000
_cell_angle_gamma   90.00000000
_symmetry_Int_Tables_number   1
_chemical_formula_structural   LiYInSn
_chemical_formula_sum   'Li2 Y2 In2 Sn2'
_cell_volume   733.98225438
_cell_formula_units_Z   2
loop_
 _symmetry_equiv_pos_site_id
 _symmetry_equiv_pos_as_xyz
  1  'x, y, z'
loop_
 _atom_site_type_symbol
 _atom_site_label
 _atom_site_symmetry_multiplicity
 _atom_site_fract_x
 _atom_site_fract_y
 _atom_site_fract_z
 _atom_site_occupancy
  Li  Li0  1  0.50000000  0.00000000  0.90406000  1.0
  Li  Li1  1  0.04142500  0.00000000  0.02989500  1.0
  Y  Y2  1  0.75484000  0.50000000  0.96802000  1.0
  Y  Y3  1  0.29789500  0.50000000  0.09658000  1.0
  In  In4  1  0.00000000  0.00000000  0.90406000  1.0
  In  In5  1  0.56377500  0.00000000  0.04291500  1.0
  Sn  Sn6  1  0.25484000  0.50000000  0.96802000  1.0
  Sn  Sn7  1  0.79273000  0.50000000  0.10194000  1.0
