data_image0
_chemical_formula_structural       Zr16Ru16CO
_chemical_formula_sum              "Zr16 Ru16 C1 O1"
_cell_length_a       6.54723
_cell_length_b       9.25918
_cell_length_c       26.9444
_cell_angle_alpha    90
_cell_angle_beta     90
_cell_angle_gamma    90

_space_group_name_H-M_alt    "P 1"
_space_group_IT_number       1

loop_
  _space_group_symop_operation_xyz
  'x, y, z'

loop_
  _atom_site_type_symbol
  _atom_site_label
  _atom_site_symmetry_multiplicity
  _atom_site_fract_x
  _atom_site_fract_y
  _atom_site_fract_z
  _atom_site_occupancy
  Zr  Zr1       1.0  0.25000  0.25000  0.87113  1.0000
  Zr  Zr2       1.0  0.25000  0.50000  0.95704  1.0000
  Zr  Zr3       1.0  0.25000  0.25000  0.04296  1.0000
  Zr  Zr4       1.0  0.25000  0.50000  0.12887  1.0000
  Zr  Zr5       1.0  0.25000  0.75000  0.87113  1.0000
  Zr  Zr6       1.0  0.25000  0.00000  0.95704  1.0000
  Zr  Zr7       1.0  0.25000  0.75000  0.04296  1.0000
  Zr  Zr8       1.0  0.25000  0.00000  0.12887  1.0000
  Zr  Zr9       1.0  0.75000  0.25000  0.87113  1.0000
  Zr  Zr10      1.0  0.75000  0.50000  0.95704  1.0000
  Zr  Zr11      1.0  0.75000  0.25000  0.04296  1.0000
  Zr  Zr12      1.0  0.75000  0.50000  0.12887  1.0000
  Zr  Zr13      1.0  0.75000  0.75000  0.87113  1.0000
  Zr  Zr14      1.0  0.75000  0.00000  0.95704  1.0000
  Zr  Zr15      1.0  0.75000  0.75000  0.04296  1.0000
  Zr  Zr16      1.0  0.75000  0.00000  0.12887  1.0000
  Ru  Ru1       1.0  0.00000  0.00000  0.87113  1.0000
  Ru  Ru2       1.0  0.00000  0.25000  0.95704  1.0000
  Ru  Ru3       1.0  0.00000  0.00000  0.04296  1.0000
  Ru  Ru4       1.0  0.00000  0.25000  0.12887  1.0000
  Ru  Ru5       1.0  0.00000  0.50000  0.87113  1.0000
  Ru  Ru6       1.0  0.00000  0.75000  0.95704  1.0000
  Ru  Ru7       1.0  0.00000  0.50000  0.04296  1.0000
  Ru  Ru8       1.0  0.00000  0.75000  0.12887  1.0000
  Ru  Ru9       1.0  0.50000  0.00000  0.87113  1.0000
  Ru  Ru10      1.0  0.50000  0.25000  0.95704  1.0000
  Ru  Ru11      1.0  0.50000  0.00000  0.04296  1.0000
  Ru  Ru12      1.0  0.50000  0.25000  0.12887  1.0000
  Ru  Ru13      1.0  0.50000  0.50000  0.87113  1.0000
  Ru  Ru14      1.0  0.50000  0.75000  0.95704  1.0000
  Ru  Ru15      1.0  0.50000  0.50000  0.04296  1.0000
  Ru  Ru16      1.0  0.50000  0.75000  0.12887  1.0000
  C   C1        1.0  0.25000  0.00000  0.19938  1.0000
  O   O1        1.0  0.25000  0.00000  0.24206  1.0000
