# generated using pymatgen
data_Zr16Ru16CO
_symmetry_space_group_name_H-M   Pmm2
_cell_length_a   6.54723000
_cell_length_b   9.25918000
_cell_length_c   26.94440000
_cell_angle_alpha   90.00000000
_cell_angle_beta   90.00000000
_cell_angle_gamma   90.00000000
_symmetry_Int_Tables_number   25
_chemical_formula_structural   Zr16Ru16CO
_chemical_formula_sum   'Zr16 Ru16 C1 O1'
_cell_volume   1633.42290678
_cell_formula_units_Z   1
loop_
 _symmetry_equiv_pos_site_id
 _symmetry_equiv_pos_as_xyz
  1  'x, y, z'
  2  '-x, -y, z'
  3  '-x, y, z'
  4  'x, -y, z'
loop_
 _atom_site_type_symbol
 _atom_site_label
 _atom_site_symmetry_multiplicity
 _atom_site_fract_x
 _atom_site_fract_y
 _atom_site_fract_z
 _atom_site_occupancy
  Zr  Zr0  2  0.00000000  0.24952000  0.04471000  1.0
  Zr  Zr1  2  0.00000000  0.25000000  0.87113000  1.0
  Zr  Zr2  2  0.50000000  0.24993000  0.04461000  1.0
  Zr  Zr3  2  0.50000000  0.25000000  0.87113000  1.0
  Zr  Zr4  1  0.00000000  0.00000000  0.13219000  1.0
  Zr  Zr5  1  0.00000000  0.00000000  0.95704000  1.0
  Zr  Zr6  1  0.00000000  0.50000000  0.13081000  1.0
  Zr  Zr7  1  0.00000000  0.50000000  0.95704000  1.0
  Zr  Zr8  1  0.50000000  0.00000000  0.13116000  1.0
  Zr  Zr9  1  0.50000000  0.00000000  0.95704000  1.0
  Zr  Zr10  1  0.50000000  0.50000000  0.13102000  1.0
  Zr  Zr11  1  0.50000000  0.50000000  0.95704000  1.0
  Ru  Ru12  4  0.25000000  0.25000000  0.95704000  1.0
  Ru  Ru13  4  0.25066000  0.25254000  0.12326000  1.0
  Ru  Ru14  2  0.24989000  0.50000000  0.04371000  1.0
  Ru  Ru15  2  0.25000000  0.00000000  0.87113000  1.0
  Ru  Ru16  2  0.25000000  0.50000000  0.87113000  1.0
  Ru  Ru17  2  0.25249000  0.00000000  0.04305000  1.0
  C  C18  1  0.00000000  0.00000000  0.21807000  1.0
  O  O19  1  0.00000000  0.00000000  0.26079000  1.0
