# generated using pymatgen
data_Nb8Ga8Ni16CO
_symmetry_space_group_name_H-M   Pm
_cell_length_a   8.48992000
_cell_length_b   6.00328000
_cell_length_c   26.36740000
_cell_angle_alpha   90.00000000
_cell_angle_beta   90.00000000
_cell_angle_gamma   90.00000000
_symmetry_Int_Tables_number   6
_chemical_formula_structural   Nb8Ga8Ni16CO
_chemical_formula_sum   'Nb8 Ga8 Ni16 C1 O1'
_cell_volume   1343.87695099
_cell_formula_units_Z   1
loop_
 _symmetry_equiv_pos_site_id
 _symmetry_equiv_pos_as_xyz
  1  'x, y, z'
  2  'x, -y, z'
loop_
 _atom_site_type_symbol
 _atom_site_label
 _atom_site_symmetry_multiplicity
 _atom_site_fract_x
 _atom_site_fract_y
 _atom_site_fract_z
 _atom_site_occupancy
  Nb  Nb0  1  0.00000000  0.00000000  0.87926000  1.0
  Nb  Nb1  1  0.25000000  0.50000000  0.95975000  1.0
  Nb  Nb2  1  0.25003000  0.50000000  0.11814000  1.0
  Nb  Nb3  1  0.50000000  0.00000000  0.87926000  1.0
  Nb  Nb4  1  0.50414000  0.00000000  0.04078000  1.0
  Nb  Nb5  1  0.74995000  0.50000000  0.12360000  1.0
  Nb  Nb6  1  0.75000000  0.50000000  0.95975000  1.0
  Nb  Nb7  1  0.99586000  0.00000000  0.04080000  1.0
  Ga  Ga8  1  0.00000000  0.50000000  0.87926000  1.0
  Ga  Ga9  1  0.00282000  0.50000000  0.03813000  1.0
  Ga  Ga10  1  0.25000000  0.00000000  0.95975000  1.0
  Ga  Ga11  1  0.25001000  0.00000000  0.12319000  1.0
  Ga  Ga12  1  0.49717000  0.50000000  0.03815000  1.0
  Ga  Ga13  1  0.50000000  0.50000000  0.87926000  1.0
  Ga  Ga14  1  0.75000000  0.00000000  0.95975000  1.0
  Ga  Ga15  1  0.75006000  0.00000000  0.12276000  1.0
  Ni  Ni16  2  0.00000000  0.25000000  0.95975000  1.0
  Ni  Ni17  2  0.24999000  0.24231000  0.04197000  1.0
  Ni  Ni18  2  0.25000000  0.25000000  0.87926000  1.0
  Ni  Ni19  2  0.50000000  0.25000000  0.95975000  1.0
  Ni  Ni20  2  0.50218000  0.26088000  0.11526000  1.0
  Ni  Ni21  2  0.75000000  0.25000000  0.87926000  1.0
  Ni  Ni22  2  0.75000000  0.26605000  0.04357000  1.0
  Ni  Ni23  2  0.99785000  0.26119000  0.11527000  1.0
  C  C24  1  0.24997000  0.00000000  0.20186000  1.0
  O  O25  1  0.24997000  0.00000000  0.24550000  1.0
