# generated using pymatgen
data_Li4Al4Cu4Ge4C
_symmetry_space_group_name_H-M   Pm
_cell_length_a   5.44580000
_cell_length_b   7.77412000
_cell_length_c   24.08340000
_cell_angle_alpha   90.00000000
_cell_angle_beta   90.00000000
_cell_angle_gamma   90.00000000
_symmetry_Int_Tables_number   6
_chemical_formula_structural   Li4Al4Cu4Ge4C
_chemical_formula_sum   'Li4 Al4 Cu4 Ge4 C1'
_cell_volume   1019.60211235
_cell_formula_units_Z   1
loop_
 _symmetry_equiv_pos_site_id
 _symmetry_equiv_pos_as_xyz
  1  'x, y, z'
  2  'x, -y, z'
loop_
 _atom_site_type_symbol
 _atom_site_label
 _atom_site_symmetry_multiplicity
 _atom_site_fract_x
 _atom_site_fract_y
 _atom_site_fract_z
 _atom_site_occupancy
  Li  Li0  2  0.23510000  0.19613000  0.10457000  1.0
  Li  Li1  2  0.74450000  0.25000000  0.97174000  1.0
  Al  Al2  1  0.00000000  0.00000000  0.91522000  1.0
  Al  Al3  1  0.00000000  0.50000000  0.91522000  1.0
  Al  Al4  1  0.48170000  0.00000000  0.02221000  1.0
  Al  Al5  1  0.50379000  0.50000000  0.03970000  1.0
  Cu  Cu6  1  0.00647000  0.50000000  0.02616000  1.0
  Cu  Cu7  1  0.50000000  0.00000000  0.91522000  1.0
  Cu  Cu8  1  0.50000000  0.50000000  0.91522000  1.0
  Cu  Cu9  1  0.97645000  0.00000000  0.02594000  1.0
  Ge  Ge10  2  0.24450000  0.25000000  0.97174000  1.0
  Ge  Ge11  2  0.74510000  0.19144000  0.09865000  1.0
  C  C12  1  0.49278000  0.00000000  0.10575000  1.0
