# generated using pymatgen
data_Li16Sb8Au8CO
_symmetry_space_group_name_H-M   P1
_cell_length_a   6.66546000
_cell_length_b   9.42638000
_cell_length_c   27.06980000
_cell_angle_alpha   90.00000000
_cell_angle_beta   90.00000000
_cell_angle_gamma   90.00000000
_symmetry_Int_Tables_number   1
_chemical_formula_structural   Li16Sb8Au8CO
_chemical_formula_sum   'Li16 Sb8 Au8 C1 O1'
_cell_volume   1700.82690343
_cell_formula_units_Z   1
loop_
 _symmetry_equiv_pos_site_id
 _symmetry_equiv_pos_as_xyz
  1  'x, y, z'
loop_
 _atom_site_type_symbol
 _atom_site_label
 _atom_site_symmetry_multiplicity
 _atom_site_fract_x
 _atom_site_fract_y
 _atom_site_fract_z
 _atom_site_occupancy
  Li  Li0  1  0.00000000  0.25000000  0.95647000  1.0
  Li  Li1  1  0.00000000  0.75000000  0.95647000  1.0
  Li  Li2  1  0.02998000  0.25000000  0.12547000  1.0
  Li  Li3  1  0.03916000  0.75000000  0.12558000  1.0
  Li  Li4  1  0.25000000  0.25000000  0.86942000  1.0
  Li  Li5  1  0.25000000  0.75000000  0.86942000  1.0
  Li  Li6  1  0.25198000  0.25001000  0.04441000  1.0
  Li  Li7  1  0.28737000  0.75001000  0.04748000  1.0
  Li  Li8  1  0.50000000  0.00000000  0.86942000  1.0
  Li  Li9  1  0.50000000  0.50000000  0.86942000  1.0
  Li  Li10  1  0.51183000  0.48989000  0.03700000  1.0
  Li  Li11  1  0.51186000  0.01019000  0.03703000  1.0
  Li  Li12  1  0.70312000  0.50738000  0.12782000  1.0
  Li  Li13  1  0.70316000  0.99261000  0.12783000  1.0
  Li  Li14  1  0.75000000  0.00000000  0.95647000  1.0
  Li  Li15  1  0.75000000  0.50000000  0.95647000  1.0
  Sb  Sb16  1  -0.00000000  0.50000000  0.86942000  1.0
  Sb  Sb17  1  0.00000000  0.00000000  0.86942000  1.0
  Sb  Sb18  1  0.47300000  0.74999000  0.14877000  1.0
  Sb  Sb19  1  0.49556000  0.25000000  0.13529000  1.0
  Sb  Sb20  1  0.50000000  0.25000000  0.95647000  1.0
  Sb  Sb21  1  0.50000000  0.75000000  0.95647000  1.0
  Sb  Sb22  1  0.98322000  0.99070000  0.04532000  1.0
  Sb  Sb23  1  0.98323000  0.50932000  0.04531000  1.0
  Au  Au24  1  0.25000000  0.00000000  0.95647000  1.0
  Au  Au25  1  0.25000000  0.50000000  0.95647000  1.0
  Au  Au26  1  0.28009000  0.99867000  0.11718000  1.0
  Au  Au27  1  0.28010000  0.50132000  0.11717000  1.0
  Au  Au28  1  0.71378000  0.75000000  0.05966000  1.0
  Au  Au29  1  0.75000000  0.25000000  0.86942000  1.0
  Au  Au30  1  0.75000000  0.75000000  0.86942000  1.0
  Au  Au31  1  0.75601000  0.25002000  0.04743000  1.0
  C  C32  1  0.35590000  0.25000000  0.27435000  1.0
  O  O33  1  0.51618000  0.25000000  0.28860000  1.0
