# generated using pymatgen
data_Zr8Al8Cu16CO
_symmetry_space_group_name_H-M   'P 1'
_cell_length_a   6.27295000
_cell_length_b   8.87129000
_cell_length_c   26.65350000
_cell_angle_alpha   90.00000000
_cell_angle_beta   90.00000000
_cell_angle_gamma   90.00000000
_symmetry_Int_Tables_number   1
_chemical_formula_structural   Zr8Al8Cu16CO
_chemical_formula_sum   'Zr8 Al8 Cu16 C1 O1'
_cell_volume   1483.24484889
_cell_formula_units_Z   1
loop_
 _symmetry_equiv_pos_site_id
 _symmetry_equiv_pos_as_xyz
  1  'x, y, z'
loop_
 _atom_site_type_symbol
 _atom_site_label
 _atom_site_symmetry_multiplicity
 _atom_site_fract_x
 _atom_site_fract_y
 _atom_site_fract_z
 _atom_site_occupancy
  Zr  Zr0  1  0.00000000  0.75000000  0.87519000  1.0
  Zr  Zr1  1  0.50000000  0.00000000  0.95840000  1.0
  Zr  Zr2  1  0.50000000  0.50000000  0.95840000  1.0
  Zr  Zr3  1  0.00000000  0.25000000  0.87519000  1.0
  Zr  Zr4  1  0.00000000  0.25033000  0.04199000  1.0
  Zr  Zr5  1  0.50000000  0.50000000  0.12487000  1.0
  Zr  Zr6  1  0.50000000  0.00000000  0.12461000  1.0
  Zr  Zr7  1  0.00000000  0.74967000  0.04199000  1.0
  Al  Al8  1  0.00000000  0.50000000  0.95840000  1.0
  Al  Al9  1  0.50000000  0.75000000  0.87519000  1.0
  Al  Al10  1  0.00000000  0.00000000  0.95840000  1.0
  Al  Al11  1  0.50000000  0.25000000  0.87519000  1.0
  Al  Al12  1  0.00000000  0.00000000  0.12127000  1.0
  Al  Al13  1  0.50000000  0.25132000  0.04196000  1.0
  Al  Al14  1  0.00000000  0.50000000  0.12453000  1.0
  Al  Al15  1  0.50000000  0.74868000  0.04196000  1.0
  Cu  Cu16  1  0.25000000  0.75000000  0.95840000  1.0
  Cu  Cu17  1  0.75000000  0.25000000  0.95840000  1.0
  Cu  Cu18  1  0.75000000  0.75000000  0.95840000  1.0
  Cu  Cu19  1  0.25000000  0.25000000  0.95840000  1.0
  Cu  Cu20  1  0.75000000  0.50000000  0.87519000  1.0
  Cu  Cu21  1  0.25000000  0.00000000  0.87519000  1.0
  Cu  Cu22  1  0.25000000  0.50000000  0.87519000  1.0
  Cu  Cu23  1  0.75000000  0.00000000  0.87519000  1.0
  Cu  Cu24  1  0.25230000  0.25252000  0.12410000  1.0
  Cu  Cu25  1  0.74770000  0.74748000  0.12410000  1.0
  Cu  Cu26  1  0.74770000  0.25252000  0.12410000  1.0
  Cu  Cu27  1  0.25230000  0.74748000  0.12410000  1.0
  Cu  Cu28  1  0.74338000  0.00000000  0.04213000  1.0
  Cu  Cu29  1  0.25357000  0.50000000  0.04208000  1.0
  Cu  Cu30  1  0.25662000  0.00000000  0.04213000  1.0
  Cu  Cu31  1  0.74643000  0.50000000  0.04208000  1.0
  C  C32  1  0.00000000  0.00000000  0.19502000  1.0
  O  O33  1  0.00000000  0.00000000  0.23848000  1.0
