# generated using pymatgen
data_Zr8Al8Cu16CO
_symmetry_space_group_name_H-M   Pmm2
_cell_length_a   6.27295000
_cell_length_b   8.87129000
_cell_length_c   26.65350000
_cell_angle_alpha   90.00000000
_cell_angle_beta   90.00000000
_cell_angle_gamma   90.00000000
_symmetry_Int_Tables_number   25
_chemical_formula_structural   Zr8Al8Cu16CO
_chemical_formula_sum   'Zr8 Al8 Cu16 C1 O1'
_cell_volume   1483.24484889
_cell_formula_units_Z   1
loop_
 _symmetry_equiv_pos_site_id
 _symmetry_equiv_pos_as_xyz
  1  'x, y, z'
  2  '-x, -y, z'
  3  '-x, y, z'
  4  'x, -y, z'
loop_
 _atom_site_type_symbol
 _atom_site_label
 _atom_site_symmetry_multiplicity
 _atom_site_fract_x
 _atom_site_fract_y
 _atom_site_fract_z
 _atom_site_occupancy
  Zr  Zr0  2  0.00000000  0.25000000  0.87519000  1.0
  Zr  Zr1  2  0.00000000  0.25033000  0.04199000  1.0
  Zr  Zr2  1  0.50000000  0.00000000  0.12461000  1.0
  Zr  Zr3  1  0.50000000  0.00000000  0.95840000  1.0
  Zr  Zr4  1  0.50000000  0.50000000  0.12487000  1.0
  Zr  Zr5  1  0.50000000  0.50000000  0.95840000  1.0
  Al  Al6  2  0.50000000  0.25000000  0.87519000  1.0
  Al  Al7  2  0.50000000  0.25132000  0.04196000  1.0
  Al  Al8  1  0.00000000  0.00000000  0.12127000  1.0
  Al  Al9  1  0.00000000  0.00000000  0.95840000  1.0
  Al  Al10  1  0.00000000  0.50000000  0.12453000  1.0
  Al  Al11  1  0.00000000  0.50000000  0.95840000  1.0
  Cu  Cu12  4  0.25000000  0.25000000  0.95840000  1.0
  Cu  Cu13  4  0.25230000  0.25252000  0.12410000  1.0
  Cu  Cu14  2  0.25000000  0.00000000  0.87519000  1.0
  Cu  Cu15  2  0.25000000  0.50000000  0.87519000  1.0
  Cu  Cu16  2  0.25357000  0.50000000  0.04208000  1.0
  Cu  Cu17  2  0.25662000  0.00000000  0.04213000  1.0
  C  C18  1  0.00000000  0.00000000  0.19502000  1.0
  O  O19  1  0.00000000  0.00000000  0.23848000  1.0
