# generated using pymatgen
data_Li8Y8In8Au8CO
_symmetry_space_group_name_H-M   'P 1'
_cell_length_a   6.89380000
_cell_length_b   9.74930000
_cell_length_c   27.31200000
_cell_angle_alpha   90.00000000
_cell_angle_beta   90.00000000
_cell_angle_gamma   90.00000000
_symmetry_Int_Tables_number   1
_chemical_formula_structural   Li8Y8In8Au8CO
_chemical_formula_sum   'Li8 Y8 In8 Au8 C1 O1'
_cell_volume   1835.63199117
_cell_formula_units_Z   1
loop_
 _symmetry_equiv_pos_site_id
 _symmetry_equiv_pos_as_xyz
  1  'x, y, z'
loop_
 _atom_site_type_symbol
 _atom_site_label
 _atom_site_symmetry_multiplicity
 _atom_site_fract_x
 _atom_site_fract_y
 _atom_site_fract_z
 _atom_site_occupancy
  Li  Li0  1  0.00000000  0.25000000  0.95538000  1.0
  Li  Li1  1  0.00000000  0.75000000  0.95538000  1.0
  Li  Li2  1  0.50000000  0.50000000  0.86614000  1.0
  Li  Li3  1  0.50000000  0.00000000  0.86614000  1.0
  Li  Li4  1  0.18716000  0.74926000  0.18307000  1.0
  Li  Li5  1  0.18723000  0.25066000  0.18306000  1.0
  Li  Li6  1  0.51043000  0.00000000  0.04943000  1.0
  Li  Li7  1  0.51000000  0.49985000  0.04929000  1.0
  Y  Y8  1  0.75000000  0.00000000  0.95538000  1.0
  Y  Y9  1  0.75000000  0.50000000  0.95538000  1.0
  Y  Y10  1  0.25000000  0.25000000  0.86614000  1.0
  Y  Y11  1  0.25000000  0.75000000  0.86614000  1.0
  Y  Y12  1  0.79155000  0.49979000  0.13548000  1.0
  Y  Y13  1  0.79035000  0.99995000  0.13549000  1.0
  Y  Y14  1  0.24579000  0.75020000  0.05025000  1.0
  Y  Y15  1  0.24553000  0.24967000  0.05023000  1.0
  In  In16  1  0.25000000  0.00000000  0.95538000  1.0
  In  In17  1  0.25000000  0.50000000  0.95538000  1.0
  In  In18  1  0.75000000  0.25000000  0.86614000  1.0
  In  In19  1  0.75000000  0.75000000  0.86614000  1.0
  In  In20  1  0.26961000  0.49991000  0.13766000  1.0
  In  In21  1  0.26745000  0.99998000  0.13706000  1.0
  In  In22  1  0.75767000  0.74980000  0.04363000  1.0
  In  In23  1  0.75756000  0.25012000  0.04360000  1.0
  Au  Au24  1  0.00000000  0.00000000  0.86614000  1.0
  Au  Au25  1  0.00000000  0.50000000  0.86614000  1.0
  Au  Au26  1  0.50000000  0.75000000  0.95538000  1.0
  Au  Au27  1  0.50000000  0.25000000  0.95538000  1.0
  Au  Au28  1  0.00350000  0.49999000  0.04316000  1.0
  Au  Au29  1  0.00240000  0.99981000  0.04301000  1.0
  Au  Au30  1  0.53131000  0.25027000  0.13110000  1.0
  Au  Au31  1  0.53166000  0.74950000  0.13121000  1.0
  C  C32  1  0.38867000  0.00329000  0.28361000  1.0
  O  O33  1  0.23904000  0.99938000  0.30118000  1.0
