data_image0
_chemical_formula_structural       Li8Sn4Au4CO
_chemical_formula_sum              "Li8 Sn4 Au4 C1 O1"
_cell_length_a       6.60404
_cell_length_b       6.60404
_cell_length_c       24.953
_cell_angle_alpha    90
_cell_angle_beta     90
_cell_angle_gamma    90

_space_group_name_H-M_alt    "P 1"
_space_group_IT_number       1

loop_
  _space_group_symop_operation_xyz
  'x, y, z'

loop_
  _atom_site_type_symbol
  _atom_site_label
  _atom_site_symmetry_multiplicity
  _atom_site_fract_x
  _atom_site_fract_y
  _atom_site_fract_z
  _atom_site_occupancy
  Li  Li1       1.0  0.00000  0.00000  0.96692  1.0000
  Li  Li2       1.0  0.50000  1.00000  0.10191  1.0000
  Li  Li3       1.0  1.00000  0.50000  0.10191  1.0000
  Li  Li4       1.0  0.50000  0.50000  0.96692  1.0000
  Li  Li5       1.0  0.25000  0.25000  0.90075  1.0000
  Li  Li6       1.0  0.27769  0.72231  0.03849  1.0000
  Li  Li7       1.0  0.75000  0.75000  0.90075  1.0000
  Li  Li8       1.0  0.72232  0.27768  0.03849  1.0000
  Sn  Sn1       1.0  0.00000  1.00000  0.08967  1.0000
  Sn  Sn2       1.0  0.49999  0.49999  0.11804  1.0000
  Sn  Sn3       1.0  0.50000  0.00000  0.96692  1.0000
  Sn  Sn4       1.0  0.00000  0.50000  0.96692  1.0000
  Au  Au1       1.0  0.28026  0.28028  0.03747  1.0000
  Au  Au2       1.0  0.25000  0.75000  0.90075  1.0000
  Au  Au3       1.0  0.71973  0.71971  0.03747  1.0000
  Au  Au4       1.0  0.75000  0.25000  0.90075  1.0000
  C   C1        1.0  0.00003  0.00006  0.18038  1.0000
  O   O1        1.0  0.99999  0.99999  0.22661  1.0000
