# generated using pymatgen
data_Li8Sn4Au4CO
_symmetry_space_group_name_H-M   'P 1'
_cell_length_a   6.60404000
_cell_length_b   6.60404000
_cell_length_c   24.95300000
_cell_angle_alpha   90.00000000
_cell_angle_beta   90.00000000
_cell_angle_gamma   90.00000000
_symmetry_Int_Tables_number   1
_chemical_formula_structural   Li8Sn4Au4CO
_chemical_formula_sum   'Li8 Sn4 Au4 C1 O1'
_cell_volume   1088.28378086
_cell_formula_units_Z   1
loop_
 _symmetry_equiv_pos_site_id
 _symmetry_equiv_pos_as_xyz
  1  'x, y, z'
loop_
 _atom_site_type_symbol
 _atom_site_label
 _atom_site_symmetry_multiplicity
 _atom_site_fract_x
 _atom_site_fract_y
 _atom_site_fract_z
 _atom_site_occupancy
  Li  Li0  1  0.00001500  0.99998500  0.03308000  1
  Li  Li1  1  1.00000000  0.49997000  0.89809000  1
  Li  Li2  1  0.50003000  1.00000000  0.89809000  1
  Li  Li3  1  0.50001500  0.49998500  0.03308000  1
  Li  Li4  1  0.25001500  0.74998500  0.09925000  1
  Li  Li5  1  0.72231000  0.72228000  0.96151000  1
  Li  Li6  1  0.75001500  0.24998500  0.09925000  1
  Li  Li7  1  0.27772000  0.27769000  0.96151000  1
  Sn  Sn8  1  0.00001500  0.99998500  0.91033000  1
  Sn  Sn9  1  0.50000500  0.49999500  0.88196000  1
  Sn  Sn10  1  1.00000000  0.49997000  0.03308000  1
  Sn  Sn11  1  0.50003000  1.00000000  0.03308000  1
  Au  Au12  1  0.28028500  0.71971500  0.96253000  1
  Au  Au13  1  0.75000000  0.74997000  0.09925000  1
  Au  Au14  1  0.71973500  0.28026500  0.96253000  1
  Au  Au15  1  0.25003000  0.25000000  0.09925000  1
  C  C16  1  0.00006000  0.99994000  0.81962000  1
  O  O17  1  0.00000500  0.99999500  0.77339000  1
