# generated using pymatgen
data_Li8Y8Cu8Ge8C
_symmetry_space_group_name_H-M   'P 1'
_cell_length_a   9.41914000
_cell_length_b   6.66034000
_cell_length_c   27.06440000
_cell_angle_alpha   90.00000000
_cell_angle_beta   90.00000000
_cell_angle_gamma   90.00000000
_symmetry_Int_Tables_number   1
_chemical_formula_structural   Li8Y8Cu8Ge8C
_chemical_formula_sum   'Li8 Y8 Cu8 Ge8 C1'
_cell_volume   1697.87633557
_cell_formula_units_Z   1
loop_
 _symmetry_equiv_pos_site_id
 _symmetry_equiv_pos_as_xyz
  1  'x, y, z'
loop_
 _atom_site_type_symbol
 _atom_site_label
 _atom_site_symmetry_multiplicity
 _atom_site_fract_x
 _atom_site_fract_y
 _atom_site_fract_z
 _atom_site_occupancy
  Li  Li0  1  0.75000000  0.75000000  0.04350000  1.0
  Li  Li1  1  0.25000000  0.75000000  0.04350000  1.0
  Li  Li2  1  0.00000000  0.25000000  0.13051000  1.0
  Li  Li3  1  0.50000000  0.25000000  0.13051000  1.0
  Li  Li4  1  0.25191000  0.74810000  0.87263000  1.0
  Li  Li5  1  0.74809000  0.74810000  0.87263000  1.0
  Li  Li6  1  0.50000000  0.24102000  0.95311000  1.0
  Li  Li7  1  0.00000000  0.24293000  0.95556000  1.0
  Y  Y8  1  0.75000000  0.25000000  0.04350000  1.0
  Y  Y9  1  0.25000000  0.25000000  0.04350000  1.0
  Y  Y10  1  0.00000000  0.75000000  0.13051000  1.0
  Y  Y11  1  0.50000000  0.75000000  0.13051000  1.0
  Y  Y12  1  0.24629000  0.23637000  0.85312000  1.0
  Y  Y13  1  0.75371000  0.23637000  0.85312000  1.0
  Y  Y14  1  0.50000000  0.74785000  0.95761000  1.0
  Y  Y15  1  0.00000000  0.74489000  0.95860000  1.0
  Cu  Cu16  1  0.75000000  0.00000000  0.13051000  1.0
  Cu  Cu17  1  0.25000000  0.00000000  0.13051000  1.0
  Cu  Cu18  1  0.50000000  0.50000000  0.04350000  1.0
  Cu  Cu19  1  0.00000000  0.50000000  0.04350000  1.0
  Cu  Cu20  1  0.24706000  0.03533000  0.94578000  1.0
  Cu  Cu21  1  0.75294000  0.03533000  0.94578000  1.0
  Cu  Cu22  1  0.00000000  0.48080000  0.87757000  1.0
  Cu  Cu23  1  0.50000000  0.50300000  0.87621000  1.0
  Ge  Ge24  1  0.00000000  0.00000000  0.04350000  1.0
  Ge  Ge25  1  0.50000000  0.00000000  0.04350000  1.0
  Ge  Ge26  1  0.25000000  0.50000000  0.13051000  1.0
  Ge  Ge27  1  0.75000000  0.50000000  0.13051000  1.0
  Ge  Ge28  1  0.50000000  0.97113000  0.86419000  1.0
  Ge  Ge29  1  0.00000000  0.97387000  0.87167000  1.0
  Ge  Ge30  1  0.74811000  0.47327000  0.94520000  1.0
  Ge  Ge31  1  0.25189000  0.47327000  0.94520000  1.0
  C  C32  1  0.00000000  0.22771000  0.83681000  1.0
