# generated using pymatgen
data_Li8Y8Cu8Ge8C
_symmetry_space_group_name_H-M   Pm
_cell_length_a   6.66034000
_cell_length_b   9.41914000
_cell_length_c   27.06440000
_cell_angle_alpha   90.00000000
_cell_angle_beta   90.00000000
_cell_angle_gamma   90.00000000
_symmetry_Int_Tables_number   6
_chemical_formula_structural   Li8Y8Cu8Ge8C
_chemical_formula_sum   'Li8 Y8 Cu8 Ge8 C1'
_cell_volume   1697.87633557
_cell_formula_units_Z   1
loop_
 _symmetry_equiv_pos_site_id
 _symmetry_equiv_pos_as_xyz
  1  'x, y, z'
  2  'x, -y, z'
loop_
 _atom_site_type_symbol
 _atom_site_label
 _atom_site_symmetry_multiplicity
 _atom_site_fract_x
 _atom_site_fract_y
 _atom_site_fract_z
 _atom_site_occupancy
  Li  Li0  2  0.74810000  0.25191000  0.12737000  1.0
  Li  Li1  2  0.75000000  0.25000000  0.95650000  1.0
  Li  Li2  1  0.24102000  0.50000000  0.04689000  1.0
  Li  Li3  1  0.24293000  0.00000000  0.04444000  1.0
  Li  Li4  1  0.25000000  0.00000000  0.86949000  1.0
  Li  Li5  1  0.25000000  0.50000000  0.86949000  1.0
  Y  Y6  2  0.23637000  0.24629000  0.14688000  1.0
  Y  Y7  2  0.25000000  0.25000000  0.95650000  1.0
  Y  Y8  1  0.74489000  0.00000000  0.04140000  1.0
  Y  Y9  1  0.74785000  0.50000000  0.04239000  1.0
  Y  Y10  1  0.75000000  0.00000000  0.86949000  1.0
  Y  Y11  1  0.75000000  0.50000000  0.86949000  1.0
  Cu  Cu12  2  0.00000000  0.25000000  0.86949000  1.0
  Cu  Cu13  2  0.03533000  0.24706000  0.05422000  1.0
  Cu  Cu14  1  0.48080000  0.00000000  0.12243000  1.0
  Cu  Cu15  1  0.50000000  0.00000000  0.95650000  1.0
  Cu  Cu16  1  0.50000000  0.50000000  0.95650000  1.0
  Cu  Cu17  1  0.50300000  0.50000000  0.12379000  1.0
  Ge  Ge18  2  0.47327000  0.25189000  0.05480000  1.0
  Ge  Ge19  2  0.50000000  0.25000000  0.86949000  1.0
  Ge  Ge20  1  0.00000000  0.00000000  0.95650000  1.0
  Ge  Ge21  1  0.00000000  0.50000000  0.95650000  1.0
  Ge  Ge22  1  0.97113000  0.50000000  0.13581000  1.0
  Ge  Ge23  1  0.97387000  0.00000000  0.12833000  1.0
  C  C24  1  0.22771000  0.00000000  0.16319000  1.0
