# generated using pymatgen
data_Li2SnAu
_symmetry_space_group_name_H-M   Cm
_cell_length_a   9.33952293
_cell_length_b   9.33952293
_cell_length_c   24.95300000
_cell_angle_alpha   90.00000000
_cell_angle_beta   90.00000000
_cell_angle_gamma   90.00000000
_symmetry_Int_Tables_number   8
_chemical_formula_structural   Li2SnAu
_chemical_formula_sum   'Li16 Sn8 Au8'
_cell_volume   2176.56756171
_cell_formula_units_Z   8
loop_
 _symmetry_equiv_pos_site_id
 _symmetry_equiv_pos_as_xyz
  1  'x, y, z'
  2  'x, -y, z'
  3  'x+1/2, y+1/2, z'
  4  'x+1/2, -y+1/2, z'
loop_
 _atom_site_type_symbol
 _atom_site_label
 _atom_site_symmetry_multiplicity
 _atom_site_fract_x
 _atom_site_fract_y
 _atom_site_fract_z
 _atom_site_occupancy
  Li  Li0  4  0.00001500  0.25004500  0.03621000  1.0
  Li  Li1  4  0.24997000  0.24999000  0.10116000  1.0
  Li  Li2  2  0.00000000  0.00000000  0.96692000  1.0
  Li  Li3  2  0.00000000  0.50000000  0.96692000  1.0
  Li  Li4  2  0.25000000  0.00000000  0.90075000  1.0
  Li  Li5  2  0.25000000  0.50000000  0.90075000  1.0
  Sn  Sn6  4  0.25000000  0.25000000  0.96692000  1.0
  Sn  Sn7  2  0.00001000  0.50000000  0.10421000  1.0
  Sn  Sn8  2  0.00002000  0.00000000  0.10418000  1.0
  Au  Au9  4  0.00000000  0.25000000  0.90075000  1.0
  Au  Au10  2  0.24999000  0.00000000  0.03459000  1.0
  Au  Au11  2  0.25042500  0.50000000  0.03455000  1.0
