# generated using pymatgen
data_Li8Co16Ge8CO
_symmetry_space_group_name_H-M   'P 1'
_cell_length_a   5.64259000
_cell_length_b   7.97982000
_cell_length_c   25.98490000
_cell_angle_alpha   90.00000000
_cell_angle_beta   90.00000000
_cell_angle_gamma   90.00000000
_symmetry_Int_Tables_number   1
_chemical_formula_structural   Li8Co16Ge8CO
_chemical_formula_sum   'Li8 Co16 Ge8 C1 O1'
_cell_volume   1170.01826041
_cell_formula_units_Z   1
loop_
 _symmetry_equiv_pos_site_id
 _symmetry_equiv_pos_as_xyz
  1  'x, y, z'
loop_
 _atom_site_type_symbol
 _atom_site_label
 _atom_site_symmetry_multiplicity
 _atom_site_fract_x
 _atom_site_fract_y
 _atom_site_fract_z
 _atom_site_occupancy
  Li  Li0  1  0.00000000  0.00000000  0.88484000  1.0
  Li  Li1  1  0.50000000  0.25000000  0.96161000  1.0
  Li  Li2  1  0.50000000  0.75000000  0.96161000  1.0
  Li  Li3  1  0.00000000  0.50000000  0.88484000  1.0
  Li  Li4  1  0.99775000  0.49982000  0.03107000  1.0
  Li  Li5  1  0.50342000  0.72682000  0.14082000  1.0
  Li  Li6  1  0.50344000  0.27315000  0.14076000  1.0
  Li  Li7  1  0.00439000  0.00014000  0.03854000  1.0
  Co  Co8  1  0.25000000  0.00000000  0.96161000  1.0
  Co  Co9  1  0.75000000  0.50000000  0.96161000  1.0
  Co  Co10  1  0.75000000  0.00000000  0.96161000  1.0
  Co  Co11  1  0.25000000  0.50000000  0.96161000  1.0
  Co  Co12  1  0.75000000  0.75000000  0.88484000  1.0
  Co  Co13  1  0.25000000  0.25000000  0.88484000  1.0
  Co  Co14  1  0.25000000  0.75000000  0.88484000  1.0
  Co  Co15  1  0.75000000  0.25000000  0.88484000  1.0
  Co  Co16  1  0.21347000  0.49996000  0.10652000  1.0
  Co  Co17  1  0.74063000  0.00004000  0.11265000  1.0
  Co  Co18  1  0.79959000  0.50002000  0.10707000  1.0
  Co  Co19  1  0.27128000  0.00003000  0.11671000  1.0
  Co  Co20  1  0.74686000  0.25055000  0.04111000  1.0
  Co  Co21  1  0.25272000  0.74850000  0.04030000  1.0
  Co  Co22  1  0.25259000  0.25149000  0.04031000  1.0
  Co  Co23  1  0.74681000  0.74944000  0.04111000  1.0
  Ge  Ge24  1  0.00000000  0.75000000  0.96161000  1.0
  Ge  Ge25  1  0.50000000  0.00000000  0.88484000  1.0
  Ge  Ge26  1  0.00000000  0.25000000  0.96161000  1.0
  Ge  Ge27  1  0.50000000  0.50000000  0.88484000  1.0
  Ge  Ge28  1  0.00435000  0.23318000  0.11699000  1.0
  Ge  Ge29  1  0.50235000  0.50011000  0.03740000  1.0
  Ge  Ge30  1  0.00434000  0.76683000  0.11695000  1.0
  Ge  Ge31  1  0.49588000  0.99990000  0.03631000  1.0
  C  C32  1  0.43985000  0.00003000  0.17367000  1.0
  O  O33  1  0.51886000  0.00002000  0.21635000  1.0
