# generated using pymatgen
data_LiMgSbPd
_symmetry_space_group_name_H-M   Pmm2
_cell_length_a   4.64673100
_cell_length_b   4.64673100
_cell_length_c   24.92860000
_cell_angle_alpha   90.00000000
_cell_angle_beta   90.00000000
_cell_angle_gamma   90.00000000
_symmetry_Int_Tables_number   25
_chemical_formula_structural   LiMgSbPd
_chemical_formula_sum   'Li2 Mg2 Sb2 Pd2'
_cell_volume   538.26104793
_cell_formula_units_Z   2
loop_
 _symmetry_equiv_pos_site_id
 _symmetry_equiv_pos_as_xyz
  1  'x, y, z'
  2  '-x, -y, z'
  3  '-x, y, z'
  4  'x, -y, z'
loop_
 _atom_site_type_symbol
 _atom_site_label
 _atom_site_symmetry_multiplicity
 _atom_site_fract_x
 _atom_site_fract_y
 _atom_site_fract_z
 _atom_site_occupancy
  Li  Li0  1  0.00000000  0.00000000  0.09885000  1.0
  Li  Li1  1  0.50000000  0.50000000  0.96493000  1.0
  Mg  Mg2  1  0.00000000  0.50000000  0.90117000  1.0
  Mg  Mg3  1  0.50000000  0.00000000  0.03295000  1.0
  Sb  Sb4  1  0.00000000  0.50000000  0.03295000  1.0
  Sb  Sb5  1  0.50000000  0.00000000  0.89655000  1.0
  Pd  Pd6  1  0.00000000  0.00000000  0.96530500  1.0
  Pd  Pd7  1  0.50000000  0.50000000  0.09885000  1.0
