# generated using pymatgen
data_Sc8Al8Ni16C
_symmetry_space_group_name_H-M   'P 1'
_cell_length_a   8.60362000
_cell_length_b   6.08368000
_cell_length_c   26.45270000
_cell_angle_alpha   90.00000000
_cell_angle_beta   90.00000000
_cell_angle_gamma   90.00000000
_symmetry_Int_Tables_number   1
_chemical_formula_structural   Sc8Al8Ni16C
_chemical_formula_sum   'Sc8 Al8 Ni16 C1'
_cell_volume   1384.57851839
_cell_formula_units_Z   1
loop_
 _symmetry_equiv_pos_site_id
 _symmetry_equiv_pos_as_xyz
  1  'x, y, z'
loop_
 _atom_site_type_symbol
 _atom_site_label
 _atom_site_symmetry_multiplicity
 _atom_site_fract_x
 _atom_site_fract_y
 _atom_site_fract_z
 _atom_site_occupancy
  Sc  Sc0  1  0.74999000  0.00000000  0.12197000  1.0
  Sc  Sc1  1  0.00000000  0.50000000  0.04066000  1.0
  Sc  Sc2  1  0.50000000  0.50000000  0.04066000  1.0
  Sc  Sc3  1  0.25001000  0.00000000  0.12197000  1.0
  Sc  Sc4  1  0.24872000  0.00280000  0.96114000  1.0
  Sc  Sc5  1  0.50000000  0.50017000  0.87236000  1.0
  Sc  Sc6  1  0.00000000  0.56322000  0.84181000  1.0
  Sc  Sc7  1  0.75128000  0.00280000  0.96114000  1.0
  Al  Al8  1  0.50000000  1.00000000  0.04066000  1.0
  Al  Al9  1  0.74999000  0.50000000  0.12197000  1.0
  Al  Al10  1  0.00000000  1.00000000  0.04066000  1.0
  Al  Al11  1  0.25001000  0.50000000  0.12197000  1.0
  Al  Al12  1  0.00000000  0.96135000  0.88290000  1.0
  Al  Al13  1  0.25246000  0.50453000  0.95666000  1.0
  Al  Al14  1  0.50000000  0.00534000  0.88082000  1.0
  Al  Al15  1  0.74754000  0.50453000  0.95666000  1.0
  Ni  Ni16  1  0.74999000  0.25000000  0.04066000  1.0
  Ni  Ni17  1  0.24999000  0.75000000  0.04066000  1.0
  Ni  Ni18  1  0.75001000  0.75000000  0.04066000  1.0
  Ni  Ni19  1  0.25001000  0.25000000  0.04066000  1.0
  Ni  Ni20  1  0.50000000  0.75000000  0.12197000  1.0
  Ni  Ni21  1  0.00000000  0.25000000  0.12197000  1.0
  Ni  Ni22  1  0.50000000  0.25000000  0.12197000  1.0
  Ni  Ni23  1  0.00000000  0.75000000  0.12197000  1.0
  Ni  Ni24  1  0.23020000  0.24048000  0.88219000  1.0
  Ni  Ni25  1  0.74786000  0.76463000  0.88305000  1.0
  Ni  Ni26  1  0.25214000  0.76463000  0.88305000  1.0
  Ni  Ni27  1  0.76980000  0.24048000  0.88219000  1.0
  Ni  Ni28  1  0.00000000  0.72992000  0.95713000  1.0
  Ni  Ni29  1  0.50000000  0.26642000  0.95597000  1.0
  Ni  Ni30  1  0.00000000  0.27563000  0.95254000  1.0
  Ni  Ni31  1  0.50000000  0.74470000  0.95727000  1.0
  C  C32  1  0.00000000  0.27525000  0.87821000  1.0
