# generated using pymatgen
data_Sc8Al8Ni16C
_symmetry_space_group_name_H-M   Pm
_cell_length_a   6.08368000
_cell_length_b   8.60362000
_cell_length_c   26.45270000
_cell_angle_alpha   90.00000000
_cell_angle_beta   90.00000000
_cell_angle_gamma   90.00000000
_symmetry_Int_Tables_number   6
_chemical_formula_structural   Sc8Al8Ni16C
_chemical_formula_sum   'Sc8 Al8 Ni16 C1'
_cell_volume   1384.57851839
_cell_formula_units_Z   1
loop_
 _symmetry_equiv_pos_site_id
 _symmetry_equiv_pos_as_xyz
  1  'x, y, z'
  2  'x, -y, z'
loop_
 _atom_site_type_symbol
 _atom_site_label
 _atom_site_symmetry_multiplicity
 _atom_site_fract_x
 _atom_site_fract_y
 _atom_site_fract_z
 _atom_site_occupancy
  Sc  Sc0  2  0.00000000  0.25001000  0.87803000  1.0
  Sc  Sc1  2  0.00280000  0.24872000  0.03886000  1.0
  Sc  Sc2  1  0.50000000  0.00000000  0.95934000  1.0
  Sc  Sc3  1  0.50000000  0.50000000  0.95934000  1.0
  Sc  Sc4  1  0.50017000  0.50000000  0.12764000  1.0
  Sc  Sc5  1  0.56322000  0.00000000  0.15819000  1.0
  Al  Al6  2  0.50000000  0.25001000  0.87803000  1.0
  Al  Al7  2  0.50453000  0.25246000  0.04334000  1.0
  Al  Al8  1  -0.00000000  0.50000000  0.95934000  1.0
  Al  Al9  1  -0.00000000  0.00000000  0.95934000  1.0
  Al  Al10  1  0.00534000  0.50000000  0.11918000  1.0
  Al  Al11  1  0.96135000  0.00000000  0.11710000  1.0
  Ni  Ni12  2  0.24048000  0.23020000  0.11781000  1.0
  Ni  Ni13  2  0.25000000  0.25001000  0.95934000  1.0
  Ni  Ni14  2  0.75000000  0.24999000  0.95934000  1.0
  Ni  Ni15  2  0.76463000  0.25214000  0.11695000  1.0
  Ni  Ni16  1  0.25000000  0.00000000  0.87803000  1.0
  Ni  Ni17  1  0.25000000  0.50000000  0.87803000  1.0
  Ni  Ni18  1  0.26642000  0.50000000  0.04403000  1.0
  Ni  Ni19  1  0.27563000  0.00000000  0.04746000  1.0
  Ni  Ni20  1  0.72992000  0.00000000  0.04287000  1.0
  Ni  Ni21  1  0.74470000  0.50000000  0.04273000  1.0
  Ni  Ni22  1  0.75000000  0.00000000  0.87803000  1.0
  Ni  Ni23  1  0.75000000  0.50000000  0.87803000  1.0
  C  C24  1  0.27525000  0.00000000  0.12179000  1.0
