data_image0
_chemical_formula_structural       Li8Hf8Ge8Pd8C
_chemical_formula_sum              "Li8 Hf8 Ge8 Pd8 C1"
_cell_length_a       6.42607
_cell_length_b       9.08784
_cell_length_c       26.8159
_cell_angle_alpha    90
_cell_angle_beta     90
_cell_angle_gamma    90

_space_group_name_H-M_alt    "P 1"
_space_group_IT_number       1

loop_
  _space_group_symop_operation_xyz
  'x, y, z'

loop_
  _atom_site_type_symbol
  _atom_site_label
  _atom_site_symmetry_multiplicity
  _atom_site_fract_x
  _atom_site_fract_y
  _atom_site_fract_z
  _atom_site_occupancy
  Li  Li1       1.0  0.25000  0.00000  0.95764  1.0000
  Li  Li2       1.0  0.25000  0.50000  0.95764  1.0000
  Li  Li3       1.0  0.75000  0.25000  0.87291  1.0000
  Li  Li4       1.0  0.75000  0.75000  0.87291  1.0000
  Li  Li5       1.0  0.22691  0.49999  0.14210  1.0000
  Li  Li6       1.0  0.21658  0.00002  0.17210  1.0000
  Li  Li7       1.0  0.73914  0.75817  0.04205  1.0000
  Li  Li8       1.0  0.73912  0.24183  0.04205  1.0000
  Hf  Hf1       1.0  0.75000  0.00000  0.95764  1.0000
  Hf  Hf2       1.0  0.75000  0.50000  0.95764  1.0000
  Hf  Hf3       1.0  0.25000  0.25000  0.87291  1.0000
  Hf  Hf4       1.0  0.25000  0.75000  0.87291  1.0000
  Hf  Hf5       1.0  0.69688  0.50001  0.12645  1.0000
  Hf  Hf6       1.0  0.81525  0.99999  0.12194  1.0000
  Hf  Hf7       1.0  0.24325  0.73844  0.04580  1.0000
  Hf  Hf8       1.0  0.24325  0.26158  0.04581  1.0000
  Ge  Ge1       1.0  0.00000  0.00000  0.87291  1.0000
  Ge  Ge2       1.0  0.00000  0.50000  0.87291  1.0000
  Ge  Ge3       1.0  0.50000  0.75000  0.95764  1.0000
  Ge  Ge4       1.0  0.50000  0.25000  0.95764  1.0000
  Ge  Ge5       1.0  0.96818  0.50000  0.05064  1.0000
  Ge  Ge6       1.0  0.02538  0.00001  0.03572  1.0000
  Ge  Ge7       1.0  0.48179  0.22437  0.13532  1.0000
  Ge  Ge8       1.0  0.48175  0.77563  0.13533  1.0000
  Pd  Pd1       1.0  0.00000  0.25000  0.95764  1.0000
  Pd  Pd2       1.0  0.00000  0.75000  0.95764  1.0000
  Pd  Pd3       1.0  0.50000  0.50000  0.87291  1.0000
  Pd  Pd4       1.0  0.50000  0.00000  0.87291  1.0000
  Pd  Pd5       1.0  0.97386  0.72895  0.12549  1.0000
  Pd  Pd6       1.0  0.97380  0.27104  0.12549  1.0000
  Pd  Pd7       1.0  0.46059  0.00001  0.05571  1.0000
  Pd  Pd8       1.0  0.50242  0.50001  0.03940  1.0000
  C   C1        1.0  0.50298  0.99999  0.14039  1.0000
