# generated using pymatgen
data_Li8Hf8Ge8Pd8C
_symmetry_space_group_name_H-M   Pm
_cell_length_a   6.42607000
_cell_length_b   9.08784000
_cell_length_c   26.81590000
_cell_angle_alpha   90.00000000
_cell_angle_beta   90.00000000
_cell_angle_gamma   90.00000000
_symmetry_Int_Tables_number   6
_chemical_formula_structural   Li8Hf8Ge8Pd8C
_chemical_formula_sum   'Li8 Hf8 Ge8 Pd8 C1'
_cell_volume   1566.02431813
_cell_formula_units_Z   1
loop_
 _symmetry_equiv_pos_site_id
 _symmetry_equiv_pos_as_xyz
  1  'x, y, z'
  2  'x, -y, z'
loop_
 _atom_site_type_symbol
 _atom_site_label
 _atom_site_symmetry_multiplicity
 _atom_site_fract_x
 _atom_site_fract_y
 _atom_site_fract_z
 _atom_site_occupancy
  Li  Li0  2  0.73914000  0.25818000  0.04205000  1.0
  Li  Li1  2  0.75000000  0.24999000  0.87291000  1.0
  Li  Li2  1  0.21658000  0.50000000  0.17210000  1.0
  Li  Li3  1  0.22691000  0.00000000  0.14210000  1.0
  Li  Li4  1  0.25000000  0.00000000  0.95764000  1.0
  Li  Li5  1  0.25000000  0.50000000  0.95764000  1.0
  Hf  Hf6  2  0.24325000  0.23845000  0.04580000  1.0
  Hf  Hf7  2  0.25000000  0.24999000  0.87291000  1.0
  Hf  Hf8  1  0.69688000  0.00000000  0.12645000  1.0
  Hf  Hf9  1  0.75000000  0.00000000  0.95764000  1.0
  Hf  Hf10  1  0.75000000  0.50000000  0.95764000  1.0
  Hf  Hf11  1  0.81525000  0.50000000  0.12194000  1.0
  Ge  Ge12  2  0.48179000  0.27562000  0.13532000  1.0
  Ge  Ge13  2  0.50000000  0.25001000  0.95764000  1.0
  Ge  Ge14  1  0.00000000  0.00000000  0.87291000  1.0
  Ge  Ge15  1  0.00000000  0.50000000  0.87291000  1.0
  Ge  Ge16  1  0.02538000  0.50000000  0.03572000  1.0
  Ge  Ge17  1  0.96818000  0.00000000  0.05064000  1.0
  Pd  Pd18  2  0.00000000  0.24999000  0.95764000  1.0
  Pd  Pd19  2  0.97386000  0.22896000  0.12549000  1.0
  Pd  Pd20  1  0.46059000  0.50000000  0.05571000  1.0
  Pd  Pd21  1  0.50000000  0.00000000  0.87291000  1.0
  Pd  Pd22  1  0.50000000  0.50000000  0.87291000  1.0
  Pd  Pd23  1  0.50242000  0.00000000  0.03940000  1.0
  C  C24  1  0.50298000  0.50000000  0.14039000  1.0
