data_image0
_chemical_formula_structural       Sc8Mn8In8Pd8C
_chemical_formula_sum              "Sc8 Mn8 In8 Pd8 C1"
_cell_length_a       6.62299
_cell_length_b       9.36632
_cell_length_c       27.0247
_cell_angle_alpha    90
_cell_angle_beta     90
_cell_angle_gamma    90

_space_group_name_H-M_alt    "P 1"
_space_group_IT_number       1

loop_
  _space_group_symop_operation_xyz
  'x, y, z'

loop_
  _atom_site_type_symbol
  _atom_site_label
  _atom_site_symmetry_multiplicity
  _atom_site_fract_x
  _atom_site_fract_y
  _atom_site_fract_z
  _atom_site_occupancy
  Sc  Sc1       1.0  0.00000  0.25000  0.95668  1.0000
  Sc  Sc2       1.0  0.00000  0.75000  0.95668  1.0000
  Sc  Sc3       1.0  0.50000  0.50000  0.87003  1.0000
  Sc  Sc4       1.0  0.50000  0.00000  0.87003  1.0000
  Sc  Sc5       1.0  0.00022  0.77262  0.13418  1.0000
  Sc  Sc6       1.0  0.00022  0.22738  0.13418  1.0000
  Sc  Sc7       1.0  0.50870  0.00000  0.04297  1.0000
  Sc  Sc8       1.0  0.50425  0.50000  0.04409  1.0000
  Mn  Mn1       1.0  0.75000  0.00000  0.95668  1.0000
  Mn  Mn2       1.0  0.75000  0.50000  0.95668  1.0000
  Mn  Mn3       1.0  0.25000  0.25000  0.87003  1.0000
  Mn  Mn4       1.0  0.25000  0.75000  0.87003  1.0000
  Mn  Mn5       1.0  0.75773  0.50000  0.13476  1.0000
  Mn  Mn6       1.0  0.69279  0.00000  0.13709  1.0000
  Mn  Mn7       1.0  0.24880  0.74767  0.04786  1.0000
  Mn  Mn8       1.0  0.24880  0.25233  0.04786  1.0000
  In  In1       1.0  0.00000  0.00000  0.87003  1.0000
  In  In2       1.0  0.00000  0.50000  0.87003  1.0000
  In  In3       1.0  0.50000  0.75000  0.95668  1.0000
  In  In4       1.0  0.50000  0.25000  0.95668  1.0000
  In  In5       1.0  0.99116  0.50000  0.04229  1.0000
  In  In6       1.0  0.99585  0.00000  0.04447  1.0000
  In  In7       1.0  0.50104  0.26120  0.13567  1.0000
  In  In8       1.0  0.50104  0.73881  0.13567  1.0000
  Pd  Pd1       1.0  0.25000  0.00000  0.95668  1.0000
  Pd  Pd2       1.0  0.25000  0.50000  0.95668  1.0000
  Pd  Pd3       1.0  0.75000  0.25000  0.87003  1.0000
  Pd  Pd4       1.0  0.75000  0.75000  0.87003  1.0000
  Pd  Pd5       1.0  0.24175  0.50000  0.12192  1.0000
  Pd  Pd6       1.0  0.28308  0.00000  0.12421  1.0000
  Pd  Pd7       1.0  0.75282  0.75047  0.04306  1.0000
  Pd  Pd8       1.0  0.75282  0.24953  0.04306  1.0000
  C   C1        1.0  0.96796  0.00000  0.14879  1.0000
