# generated using pymatgen
data_Sc8Mn8In8Pd8C
_symmetry_space_group_name_H-M   'P 1'
_cell_length_a   9.36632000
_cell_length_b   6.62299000
_cell_length_c   27.02470000
_cell_angle_alpha   90.00000000
_cell_angle_beta   90.00000000
_cell_angle_gamma   90.00000000
_symmetry_Int_Tables_number   1
_chemical_formula_structural   Sc8Mn8In8Pd8C
_chemical_formula_sum   'Sc8 Mn8 In8 Pd8 C1'
_cell_volume   1676.42439599
_cell_formula_units_Z   1
loop_
 _symmetry_equiv_pos_site_id
 _symmetry_equiv_pos_as_xyz
  1  'x, y, z'
loop_
 _atom_site_type_symbol
 _atom_site_label
 _atom_site_symmetry_multiplicity
 _atom_site_fract_x
 _atom_site_fract_y
 _atom_site_fract_z
 _atom_site_occupancy
  Sc  Sc0  1  0.25000000  0.00000000  0.04332000  1.0
  Sc  Sc1  1  0.75000000  0.00000000  0.04332000  1.0
  Sc  Sc2  1  0.50000000  0.50000000  0.12997000  1.0
  Sc  Sc3  1  0.00000000  0.50000000  0.12997000  1.0
  Sc  Sc4  1  0.77262000  0.00022000  0.86582000  1.0
  Sc  Sc5  1  0.22738000  0.00022000  0.86582000  1.0
  Sc  Sc6  1  0.00000000  0.50870000  0.95703000  1.0
  Sc  Sc7  1  0.50000000  0.50425000  0.95591000  1.0
  Mn  Mn8  1  0.00000000  0.75000000  0.04332000  1.0
  Mn  Mn9  1  0.50000000  0.75000000  0.04332000  1.0
  Mn  Mn10  1  0.25000000  0.25000000  0.12997000  1.0
  Mn  Mn11  1  0.75000000  0.25000000  0.12997000  1.0
  Mn  Mn12  1  0.50000000  0.75773000  0.86524000  1.0
  Mn  Mn13  1  0.00000000  0.69279000  0.86291000  1.0
  Mn  Mn14  1  0.74767000  0.24880000  0.95214000  1.0
  Mn  Mn15  1  0.25233000  0.24880000  0.95214000  1.0
  In  In16  1  0.00000000  0.00000000  0.12997000  1.0
  In  In17  1  0.50000000  0.00000000  0.12997000  1.0
  In  In18  1  0.75000000  0.50000000  0.04332000  1.0
  In  In19  1  0.25000000  0.50000000  0.04332000  1.0
  In  In20  1  0.50000000  0.99116000  0.95771000  1.0
  In  In21  1  0.00000000  0.99585000  0.95553000  1.0
  In  In22  1  0.26120000  0.50104000  0.86433000  1.0
  In  In23  1  0.73880000  0.50104000  0.86433000  1.0
  Pd  Pd24  1  0.00000000  0.25000000  0.04332000  1.0
  Pd  Pd25  1  0.50000000  0.25000000  0.04332000  1.0
  Pd  Pd26  1  0.25000000  0.75000000  0.12997000  1.0
  Pd  Pd27  1  0.75000000  0.75000000  0.12997000  1.0
  Pd  Pd28  1  0.50000000  0.24175000  0.87808000  1.0
  Pd  Pd29  1  0.00000000  0.28308000  0.87579000  1.0
  Pd  Pd30  1  0.75047000  0.75282000  0.95694000  1.0
  Pd  Pd31  1  0.24953000  0.75282000  0.95694000  1.0
  C  C32  1  0.00000000  0.96796000  0.85121000  1.0
