# generated using pymatgen
data_CaNi
_symmetry_space_group_name_H-M   'P 1'
_cell_length_a   6.93038000
_cell_length_b   6.93038000
_cell_length_c   25.19780000
_cell_angle_alpha   90.00000000
_cell_angle_beta   90.00000000
_cell_angle_gamma   90.00000000
_symmetry_Int_Tables_number   1
_chemical_formula_structural   CaNi
_chemical_formula_sum   'Ca8 Ni8'
_cell_volume   1210.25454063
_cell_formula_units_Z   8
loop_
 _symmetry_equiv_pos_site_id
 _symmetry_equiv_pos_as_xyz
  1  'x, y, z'
loop_
 _atom_site_type_symbol
 _atom_site_label
 _atom_site_symmetry_multiplicity
 _atom_site_fract_x
 _atom_site_fract_y
 _atom_site_fract_z
 _atom_site_occupancy
  Ca  Ca0  1  0.00000000  0.00000000  0.89038000  1.0
  Ca  Ca1  1  0.00023000  0.99979000  0.02473000  1.0
  Ca  Ca2  1  0.00000000  0.50000000  0.89038000  1.0
  Ca  Ca3  1  0.99974000  0.50020000  0.02426000  1.0
  Ca  Ca4  1  0.50000000  0.00000000  0.89038000  1.0
  Ca  Ca5  1  0.49942000  0.99991000  0.02619000  1.0
  Ca  Ca6  1  0.50000000  0.50000000  0.89038000  1.0
  Ca  Ca7  1  0.49989000  0.49986000  0.02576000  1.0
  Ni  Ni8  1  0.25000000  0.25000000  0.95914000  1.0
  Ni  Ni9  1  0.24552000  0.25199000  0.07731000  1.0
  Ni  Ni10  1  0.25000000  0.75000000  0.95914000  1.0
  Ni  Ni11  1  0.24592000  0.74770000  0.07752000  1.0
  Ni  Ni12  1  0.75000000  0.25000000  0.95914000  1.0
  Ni  Ni13  1  0.75414000  0.25059000  0.07704000  1.0
  Ni  Ni14  1  0.75000000  0.75000000  0.95914000  1.0
  Ni  Ni15  1  0.75368000  0.74931000  0.07738000  1.0
