data_image0
_chemical_formula_structural       Zr12Al4CO
_chemical_formula_sum              "Zr12 Al4 C1 O1"
_cell_length_a       8.7654
_cell_length_b       6.19807
_cell_length_c       24.6486
_cell_angle_alpha    90
_cell_angle_beta     90
_cell_angle_gamma    90

_space_group_name_H-M_alt    "P 1"
_space_group_IT_number       1

loop_
  _space_group_symop_operation_xyz
  'x, y, z'

loop_
  _atom_site_type_symbol
  _atom_site_label
  _atom_site_symmetry_multiplicity
  _atom_site_fract_x
  _atom_site_fract_y
  _atom_site_fract_z
  _atom_site_occupancy
  Zr  Zr1       1.0  0.00000  0.50000  0.90570  1.0000
  Zr  Zr2       1.0  0.25000  0.75000  0.96857  1.0000
  Zr  Zr3       1.0  0.25000  0.25000  0.96857  1.0000
  Zr  Zr4       1.0  0.99826  0.01960  0.02535  1.0000
  Zr  Zr5       1.0  0.25001  0.29418  0.08889  1.0000
  Zr  Zr6       1.0  0.25001  0.80435  0.09567  1.0000
  Zr  Zr7       1.0  0.50000  0.50000  0.90570  1.0000
  Zr  Zr8       1.0  0.75000  0.75000  0.96857  1.0000
  Zr  Zr9       1.0  0.75000  0.25000  0.96857  1.0000
  Zr  Zr10      1.0  0.50166  0.01972  0.02532  1.0000
  Zr  Zr11      1.0  0.74998  0.28254  0.09158  1.0000
  Zr  Zr12      1.0  0.75001  0.76106  0.09150  1.0000
  Al  Al1       1.0  0.00000  0.00000  0.90570  1.0000
  Al  Al2       1.0  0.98968  0.51336  0.02859  1.0000
  Al  Al3       1.0  0.50000  0.00000  0.90570  1.0000
  Al  Al4       1.0  0.51040  0.51327  0.02860  1.0000
  C   C1        1.0  0.24991  0.08109  0.15490  1.0000
  O   O1        1.0  0.25000  0.94667  0.19160  1.0000
