# generated using pymatgen
data_Zr12Al4CO
_symmetry_space_group_name_H-M   'P 1'
_cell_length_a   6.19807000
_cell_length_b   8.76540000
_cell_length_c   24.64860000
_cell_angle_alpha   90.00000000
_cell_angle_beta   90.00000000
_cell_angle_gamma   90.00000000
_symmetry_Int_Tables_number   1
_chemical_formula_structural   Zr12Al4CO
_chemical_formula_sum   'Zr12 Al4 C1 O1'
_cell_volume   1339.12301249
_cell_formula_units_Z   1
loop_
 _symmetry_equiv_pos_site_id
 _symmetry_equiv_pos_as_xyz
  1  'x, y, z'
loop_
 _atom_site_type_symbol
 _atom_site_label
 _atom_site_symmetry_multiplicity
 _atom_site_fract_x
 _atom_site_fract_y
 _atom_site_fract_z
 _atom_site_occupancy
  Zr  Zr0  1  0.50000000  0.00000000  0.09430000  1.0
  Zr  Zr1  1  0.25000000  0.75000000  0.03143000  1.0
  Zr  Zr2  1  0.75000000  0.75000000  0.03143000  1.0
  Zr  Zr3  1  0.98040000  0.00174000  0.97465000  1.0
  Zr  Zr4  1  0.70582000  0.74999000  0.91111000  1.0
  Zr  Zr5  1  0.19565000  0.74999000  0.90433000  1.0
  Zr  Zr6  1  0.50000000  0.50000000  0.09430000  1.0
  Zr  Zr7  1  0.25000000  0.25000000  0.03143000  1.0
  Zr  Zr8  1  0.75000000  0.25000000  0.03143000  1.0
  Zr  Zr9  1  0.98028000  0.49834000  0.97468000  1.0
  Zr  Zr10  1  0.71746000  0.25002000  0.90842000  1.0
  Zr  Zr11  1  0.23894000  0.24999000  0.90850000  1.0
  Al  Al12  1  0.00000000  0.00000000  0.09430000  1.0
  Al  Al13  1  0.48664000  0.01032000  0.97141000  1.0
  Al  Al14  1  0.00000000  0.50000000  0.09430000  1.0
  Al  Al15  1  0.48673000  0.48960000  0.97140000  1.0
  C  C16  1  0.91891000  0.75009000  0.84510000  1.0
  O  O17  1  0.05333000  0.75000000  0.80840000  1.0
