# generated using pymatgen
data_Na8Li16Sb8CO
_symmetry_space_group_name_H-M   'P 1'
_cell_length_a   6.84524000
_cell_length_b   9.68063000
_cell_length_c   27.26050000
_cell_angle_alpha   90.00000000
_cell_angle_beta   90.00000000
_cell_angle_gamma   90.00000000
_symmetry_Int_Tables_number   1
_chemical_formula_structural   Na8Li16Sb8CO
_chemical_formula_sum   'Na8 Li16 Sb8 C1 O1'
_cell_volume   1806.45071833
_cell_formula_units_Z   1
loop_
 _symmetry_equiv_pos_site_id
 _symmetry_equiv_pos_as_xyz
  1  'x, y, z'
loop_
 _atom_site_type_symbol
 _atom_site_label
 _atom_site_symmetry_multiplicity
 _atom_site_fract_x
 _atom_site_fract_y
 _atom_site_fract_z
 _atom_site_occupancy
  Na  Na0  1  0.50000000  0.75002000  0.86683000  1.0
  Na  Na1  1  0.00000000  0.00000000  0.95561000  1.0
  Na  Na2  1  0.00000000  0.50000000  0.95561000  1.0
  Na  Na3  1  0.50000000  0.24998000  0.86683000  1.0
  Na  Na4  1  0.50000000  0.25039000  0.03990000  1.0
  Na  Na5  1  0.00000000  0.50000000  0.14485000  1.0
  Na  Na6  1  0.00000000  0.00000000  0.14244000  1.0
  Na  Na7  1  0.50000000  0.74961000  0.03990000  1.0
  Li  Li8  1  0.75001000  0.75002000  0.95561000  1.0
  Li  Li9  1  0.24999000  0.24998000  0.95561000  1.0
  Li  Li10  1  0.24999000  0.75002000  0.95561000  1.0
  Li  Li11  1  0.75001000  0.24998000  0.95561000  1.0
  Li  Li12  1  0.25001000  0.50000000  0.86683000  1.0
  Li  Li13  1  0.75001000  0.00000000  0.86683000  1.0
  Li  Li14  1  0.74999000  0.50000000  0.86683000  1.0
  Li  Li15  1  0.24999000  0.00000000  0.86683000  1.0
  Li  Li16  1  0.70339000  0.24965000  0.13010000  1.0
  Li  Li17  1  0.29661000  0.75035000  0.13010000  1.0
  Li  Li18  1  0.29661000  0.24965000  0.13010000  1.0
  Li  Li19  1  0.70339000  0.75035000  0.13010000  1.0
  Li  Li20  1  0.24245000  0.00000000  0.04799000  1.0
  Li  Li21  1  0.75811000  0.50000000  0.04925000  1.0
  Li  Li22  1  0.75755000  0.00000000  0.04799000  1.0
  Li  Li23  1  0.24189000  0.50000000  0.04925000  1.0
  Sb  Sb24  1  0.50000000  0.50000000  0.95561000  1.0
  Sb  Sb25  1  0.00000000  0.75002000  0.86683000  1.0
  Sb  Sb26  1  0.50000000  0.00000000  0.95561000  1.0
  Sb  Sb27  1  0.00000000  0.24998000  0.86683000  1.0
  Sb  Sb28  1  0.50000000  0.00000000  0.13220000  1.0
  Sb  Sb29  1  0.00000000  0.25034000  0.05057000  1.0
  Sb  Sb30  1  0.50000000  0.50000000  0.13341000  1.0
  Sb  Sb31  1  0.00000000  0.74966000  0.05057000  1.0
  C  C32  1  0.00000000  0.00000000  0.23987000  1.0
  O  O33  1  0.00000000  0.00000000  0.28153000  1.0
