# generated using pymatgen
data_Na8Li16Sb8CO
_symmetry_space_group_name_H-M   Pmm2
_cell_length_a   6.84524000
_cell_length_b   9.68063000
_cell_length_c   27.26050000
_cell_angle_alpha   90.00000000
_cell_angle_beta   90.00000000
_cell_angle_gamma   90.00000000
_symmetry_Int_Tables_number   25
_chemical_formula_structural   Na8Li16Sb8CO
_chemical_formula_sum   'Na8 Li16 Sb8 C1 O1'
_cell_volume   1806.45071833
_cell_formula_units_Z   1
loop_
 _symmetry_equiv_pos_site_id
 _symmetry_equiv_pos_as_xyz
  1  'x, y, z'
  2  '-x, -y, z'
  3  '-x, y, z'
  4  'x, -y, z'
loop_
 _atom_site_type_symbol
 _atom_site_label
 _atom_site_symmetry_multiplicity
 _atom_site_fract_x
 _atom_site_fract_y
 _atom_site_fract_z
 _atom_site_occupancy
  Na  Na0  2  0.50000000  0.24998000  0.86683000  1.0
  Na  Na1  2  0.50000000  0.25039000  0.03990000  1.0
  Na  Na2  1  0.00000000  0.00000000  0.14244000  1.0
  Na  Na3  1  0.00000000  0.00000000  0.95561000  1.0
  Na  Na4  1  0.00000000  0.50000000  0.14485000  1.0
  Na  Na5  1  0.00000000  0.50000000  0.95561000  1.0
  Li  Li6  4  0.24999000  0.24998000  0.95561000  1.0
  Li  Li7  4  0.29661000  0.24965000  0.13010000  1.0
  Li  Li8  2  0.24189000  0.50000000  0.04925000  1.0
  Li  Li9  2  0.24245000  0.00000000  0.04799000  1.0
  Li  Li10  2  0.24999000  0.00000000  0.86683000  1.0
  Li  Li11  2  0.25001000  0.50000000  0.86683000  1.0
  Sb  Sb12  2  0.00000000  0.24998000  0.86683000  1.0
  Sb  Sb13  2  0.00000000  0.25034000  0.05057000  1.0
  Sb  Sb14  1  0.50000000  0.00000000  0.13220000  1.0
  Sb  Sb15  1  0.50000000  0.00000000  0.95561000  1.0
  Sb  Sb16  1  0.50000000  0.50000000  0.13341000  1.0
  Sb  Sb17  1  0.50000000  0.50000000  0.95561000  1.0
  C  C18  1  0.00000000  0.00000000  0.23987000  1.0
  O  O19  1  0.00000000  0.00000000  0.28153000  1.0
