data_image0
_chemical_formula_structural       Al4Fe8Mo4Al4Fe8Mo4C
_chemical_formula_sum              "Al8 Fe16 Mo8 C1"
_cell_length_a       5.85421
_cell_length_b       8.2791
_cell_length_c       26.2093
_cell_angle_alpha    90
_cell_angle_beta     90
_cell_angle_gamma    90

_space_group_name_H-M_alt    "P 1"
_space_group_IT_number       1

loop_
  _space_group_symop_operation_xyz
  'x, y, z'

loop_
  _atom_site_type_symbol
  _atom_site_label
  _atom_site_symmetry_multiplicity
  _atom_site_fract_x
  _atom_site_fract_y
  _atom_site_fract_z
  _atom_site_occupancy
  Al  Al1       1.0  0.00000  0.00000  0.88154  1.0000
  Al  Al2       1.0  0.50000  0.25000  0.96051  1.0000
  Al  Al3       1.0  0.50000  0.75000  0.96051  1.0000
  Al  Al4       1.0  0.00000  0.50000  0.88154  1.0000
  Fe  Fe1       1.0  0.25000  0.00000  0.96051  1.0000
  Fe  Fe2       1.0  0.75000  0.50000  0.96051  1.0000
  Fe  Fe3       1.0  0.75000  0.00000  0.96051  1.0000
  Fe  Fe4       1.0  0.25000  0.50000  0.96051  1.0000
  Fe  Fe5       1.0  0.75000  0.75000  0.88154  1.0000
  Fe  Fe6       1.0  0.25000  0.25000  0.88154  1.0000
  Fe  Fe7       1.0  0.25000  0.75000  0.88154  1.0000
  Fe  Fe8       1.0  0.75000  0.25000  0.88154  1.0000
  Mo  Mo1       1.0  0.00000  0.75000  0.96051  1.0000
  Mo  Mo2       1.0  0.50000  0.00000  0.88154  1.0000
  Mo  Mo3       1.0  0.00000  0.25000  0.96051  1.0000
  Mo  Mo4       1.0  0.50000  0.50000  0.88154  1.0000
  Al  Al5       1.0  0.00000  0.50000  0.03949  1.0000
  Al  Al6       1.0  0.50000  0.75000  0.11846  1.0000
  Al  Al7       1.0  0.50000  0.25000  0.11846  1.0000
  Al  Al8       1.0  0.00000  0.00000  0.03949  1.0000
  Fe  Fe9       1.0  0.25000  0.50000  0.11846  1.0000
  Fe  Fe10      1.0  0.75000  0.00000  0.11846  1.0000
  Fe  Fe11      1.0  0.75000  0.50000  0.11846  1.0000
  Fe  Fe12      1.0  0.25000  0.00000  0.11846  1.0000
  Fe  Fe13      1.0  0.75000  0.25000  0.03949  1.0000
  Fe  Fe14      1.0  0.25000  0.75000  0.03949  1.0000
  Fe  Fe15      1.0  0.25000  0.25000  0.03949  1.0000
  Fe  Fe16      1.0  0.75000  0.75000  0.03949  1.0000
  Mo  Mo5       1.0  0.00000  0.25000  0.11846  1.0000
  Mo  Mo6       1.0  0.50000  0.50000  0.03949  1.0000
  Mo  Mo7       1.0  0.00000  0.75000  0.11846  1.0000
  Mo  Mo8       1.0  0.50000  0.00000  0.03949  1.0000
  C   C1        1.0  0.50000  0.00000  0.14898  1.0000
