# generated using pymatgen
data_Y4Sc4Ga4Pd4CO
_symmetry_space_group_name_H-M   P1
_cell_length_a   5.91305000
_cell_length_b   9.85606000
_cell_length_c   24.24990000
_cell_angle_alpha   90.00000000
_cell_angle_beta   90.00000000
_cell_angle_gamma   90.00000000
_symmetry_Int_Tables_number   1
_chemical_formula_structural   Y4Sc4Ga4Pd4CO
_chemical_formula_sum   'Y4 Sc4 Ga4 Pd4 C1 O1'
_cell_volume   1413.26902995
_cell_formula_units_Z   1
loop_
 _symmetry_equiv_pos_site_id
 _symmetry_equiv_pos_as_xyz
  1  'x, y, z'
loop_
 _atom_site_type_symbol
 _atom_site_label
 _atom_site_symmetry_multiplicity
 _atom_site_fract_x
 _atom_site_fract_y
 _atom_site_fract_z
 _atom_site_occupancy
  Y  Y0  1  0.17857000  0.25000000  0.97079000  1.0
  Y  Y1  1  0.17857000  0.75000000  0.97079000  1.0
  Y  Y2  1  0.50462000  0.75000000  0.08823000  1.0
  Y  Y3  1  0.50781000  0.25001000  0.08945000  1.0
  Sc  Sc4  1  0.50000000  0.00000000  0.91237000  1.0
  Sc  Sc5  1  0.50000000  0.50000000  0.91237000  1.0
  Sc  Sc6  1  0.79823000  0.99910000  0.02348000  1.0
  Sc  Sc7  1  0.79830000  0.50091000  0.02348000  1.0
  Ga  Ga8  1  0.00000000  0.00000000  0.91237000  1.0
  Ga  Ga9  1  0.00000000  0.50000000  0.91237000  1.0
  Ga  Ga10  1  0.28458000  0.00188000  0.04534000  1.0
  Ga  Ga11  1  0.28468000  0.49813000  0.04532000  1.0
  Pd  Pd12  1  0.67857000  0.25000000  0.97079000  1.0
  Pd  Pd13  1  0.67857000  0.75000000  0.97079000  1.0
  Pd  Pd14  1  0.99119000  0.75005000  0.07135000  1.0
  Pd  Pd15  1  0.99192000  0.24998000  0.07774000  1.0
  C  C16  1  0.97242000  0.24999000  0.15892000  1.0
  O  O17  1  0.04080000  0.25000000  0.20417000  1.0
