# generated using pymatgen
data_Li16Ga8Au8CO
_symmetry_space_group_name_H-M   P1
_cell_length_a   6.29417000
_cell_length_b   8.90130000
_cell_length_c   26.67600000
_cell_angle_alpha   90.00000000
_cell_angle_beta   90.00000000
_cell_angle_gamma   90.00000000
_symmetry_Int_Tables_number   1
_chemical_formula_structural   Li16Ga8Au8CO
_chemical_formula_sum   'Li16 Ga8 Au8 C1 O1'
_cell_volume   1494.55745665
_cell_formula_units_Z   1
loop_
 _symmetry_equiv_pos_site_id
 _symmetry_equiv_pos_as_xyz
  1  'x, y, z'
loop_
 _atom_site_type_symbol
 _atom_site_label
 _atom_site_symmetry_multiplicity
 _atom_site_fract_x
 _atom_site_fract_y
 _atom_site_fract_z
 _atom_site_occupancy
  Li  Li0  1  -0.00000000  0.75000000  0.95829000  1.0
  Li  Li1  1  -0.00000000  0.25000000  0.95829000  1.0
  Li  Li2  1  0.01712000  0.74999000  0.12509000  1.0
  Li  Li3  1  0.02740000  0.25001000  0.13122000  1.0
  Li  Li4  1  0.23376000  0.25000000  0.04012000  1.0
  Li  Li5  1  0.25000000  0.25000000  0.87487000  1.0
  Li  Li6  1  0.25000000  0.75000000  0.87487000  1.0
  Li  Li7  1  0.26567000  0.74999000  0.04216000  1.0
  Li  Li8  1  0.50000000  0.00000000  0.87487000  1.0
  Li  Li9  1  0.50000000  0.50000000  0.87487000  1.0
  Li  Li10  1  0.51288000  0.00959000  0.03616000  1.0
  Li  Li11  1  0.51288000  0.49039000  0.03616000  1.0
  Li  Li12  1  0.73205000  0.99461000  0.12155000  1.0
  Li  Li13  1  0.73209000  0.50534000  0.12153000  1.0
  Li  Li14  1  0.75000000  0.00000000  0.95829000  1.0
  Li  Li15  1  0.75000000  0.50000000  0.95829000  1.0
  Ga  Ga16  1  -0.00000000  0.50000000  0.87487000  1.0
  Ga  Ga17  1  0.00000000  0.00000000  0.87487000  1.0
  Ga  Ga18  1  0.47906000  0.24996000  0.12098000  1.0
  Ga  Ga19  1  0.48558000  0.74994000  0.13752000  1.0
  Ga  Ga20  1  0.50000000  0.25000000  0.95829000  1.0
  Ga  Ga21  1  0.50000000  0.75000000  0.95829000  1.0
  Ga  Ga22  1  0.99239000  0.99111000  0.03951000  1.0
  Ga  Ga23  1  0.99242000  0.50888000  0.03950000  1.0
  Au  Au24  1  0.25000000  0.00000000  0.95829000  1.0
  Au  Au25  1  0.25000000  0.50000000  0.95829000  1.0
  Au  Au26  1  0.26797000  0.50704000  0.11490000  1.0
  Au  Au27  1  0.26802000  0.99293000  0.11492000  1.0
  Au  Au28  1  0.72957000  0.74999000  0.04532000  1.0
  Au  Au29  1  0.75000000  0.25000000  0.87487000  1.0
  Au  Au30  1  0.75000000  0.75000000  0.87487000  1.0
  Au  Au31  1  0.76894000  0.25000000  0.04610000  1.0
  C  C32  1  0.61186000  0.25012000  0.18968000  1.0
  O  O33  1  0.65626000  0.25017000  0.23221000  1.0
