# generated using pymatgen
data_Li16Cu8Sn8C
_symmetry_space_group_name_H-M   Pm
_cell_length_a   6.34973000
_cell_length_b   8.97987000
_cell_length_c   26.73490000
_cell_angle_alpha   90.00000000
_cell_angle_beta   90.00000000
_cell_angle_gamma   90.00000000
_symmetry_Int_Tables_number   6
_chemical_formula_structural   Li16Cu8Sn8C
_chemical_formula_sum   'Li16 Cu8 Sn8 C1'
_cell_volume   1524.41731254
_cell_formula_units_Z   1
loop_
 _symmetry_equiv_pos_site_id
 _symmetry_equiv_pos_as_xyz
  1  'x, y, z'
  2  'x, -y, z'
loop_
 _atom_site_type_symbol
 _atom_site_label
 _atom_site_symmetry_multiplicity
 _atom_site_fract_x
 _atom_site_fract_y
 _atom_site_fract_z
 _atom_site_occupancy
  Li  Li0  2  0.00000000  0.25000000  0.95801000  1.0
  Li  Li1  2  0.73832000  0.24241000  0.04227000  1.0
  Li  Li2  2  0.75000000  0.25000000  0.87404000  1.0
  Li  Li3  2  0.97817000  0.25911000  0.12231000  1.0
  Li  Li4  1  0.18797000  0.00000000  0.15166000  1.0
  Li  Li5  1  0.25000000  0.00000000  0.95801000  1.0
  Li  Li6  1  0.25000000  0.50000000  0.95801000  1.0
  Li  Li7  1  0.26532000  0.50000000  0.13276000  1.0
  Li  Li8  1  0.47459000  0.00000000  0.05094000  1.0
  Li  Li9  1  0.49633000  0.50000000  0.03597000  1.0
  Li  Li10  1  0.50000000  0.00000000  0.87404000  1.0
  Li  Li11  1  0.50000000  0.50000000  0.87404000  1.0
  Cu  Cu12  2  0.25000000  0.25000000  0.87404000  1.0
  Cu  Cu13  2  0.25199000  0.25485000  0.04142000  1.0
  Cu  Cu14  1  0.72065000  0.50000000  0.11926000  1.0
  Cu  Cu15  1  0.75000000  0.00000000  0.95801000  1.0
  Cu  Cu16  1  0.75000000  0.50000000  0.95801000  1.0
  Cu  Cu17  1  0.77563000  0.00000000  0.11883000  1.0
  Sn  Sn18  2  0.48078000  0.23881000  0.13292000  1.0
  Sn  Sn19  2  0.50000000  0.25000000  0.95801000  1.0
  Sn  Sn20  1  0.00000000  0.00000000  0.87404000  1.0
  Sn  Sn21  1  0.00000000  0.50000000  0.87404000  1.0
  Sn  Sn22  1  0.02010000  0.00000000  0.04326000  1.0
  Sn  Sn23  1  0.99793000  0.50000000  0.04496000  1.0
  C  C24  1  0.50834000  0.00000000  0.14829000  1.0
