# generated using pymatgen
data_K24Pd8CO
_symmetry_space_group_name_H-M   'P 1'
_cell_length_a   11.07580000
_cell_length_b   11.07580000
_cell_length_c   28.30690000
_cell_angle_alpha   90.00000000
_cell_angle_beta   90.00000000
_cell_angle_gamma   90.00000000
_symmetry_Int_Tables_number   1
_chemical_formula_structural   K24Pd8CO
_chemical_formula_sum   'K24 Pd8 C1 O1'
_cell_volume   3472.50212770
_cell_formula_units_Z   1
loop_
 _symmetry_equiv_pos_site_id
 _symmetry_equiv_pos_as_xyz
  1  'x, y, z'
loop_
 _atom_site_type_symbol
 _atom_site_label
 _atom_site_symmetry_multiplicity
 _atom_site_fract_x
 _atom_site_fract_y
 _atom_site_fract_z
 _atom_site_occupancy
  K  K0  1  0.24999000  0.00000000  0.04891000  1.0
  K  K1  1  0.00000000  0.25000000  0.04891000  1.0
  K  K2  1  0.24999000  0.25000000  0.14673000  1.0
  K  K3  1  0.23842000  0.00743000  0.84200000  1.0
  K  K4  1  0.00000000  0.25062000  0.90198000  1.0
  K  K5  1  0.33556000  0.24903000  0.93246000  1.0
  K  K6  1  0.75001000  0.00000000  0.04891000  1.0
  K  K7  1  0.50000000  0.25000000  0.04891000  1.0
  K  K8  1  0.75001000  0.25000000  0.14673000  1.0
  K  K9  1  0.76158000  0.00743000  0.84200000  1.0
  K  K10  1  0.50000000  0.25018000  0.78140000  1.0
  K  K11  1  0.66444000  0.24903000  0.93246000  1.0
  K  K12  1  0.24999000  0.50000000  0.04891000  1.0
  K  K13  1  0.00000000  0.75000000  0.04891000  1.0
  K  K14  1  0.24999000  0.75000000  0.14673000  1.0
  K  K15  1  0.24016000  0.49355000  0.84279000  1.0
  K  K16  1  0.00000000  0.74992000  0.84874000  1.0
  K  K17  1  0.25526000  0.75109000  0.94513000  1.0
  K  K18  1  0.75001000  0.50000000  0.04891000  1.0
  K  K19  1  0.50000000  0.75000000  0.04891000  1.0
  K  K20  1  0.75001000  0.75000000  0.14673000  1.0
  K  K21  1  0.75984000  0.49355000  0.84279000  1.0
  K  K22  1  0.50000000  0.75050000  0.84653000  1.0
  K  K23  1  0.74474000  0.75109000  0.94513000  1.0
  Pd  Pd24  1  0.00000000  0.00000000  0.14673000  1.0
  Pd  Pd25  1  0.00000000  0.96709000  0.93730000  1.0
  Pd  Pd26  1  0.50000000  0.00000000  0.14673000  1.0
  Pd  Pd27  1  0.50000000  0.98192000  0.93007000  1.0
  Pd  Pd28  1  0.00000000  0.50000000  0.14673000  1.0
  Pd  Pd29  1  0.00000000  0.53408000  0.93760000  1.0
  Pd  Pd30  1  0.50000000  0.50000000  0.14673000  1.0
  Pd  Pd31  1  0.50000000  0.51780000  0.92999000  1.0
  C  C32  1  0.00000000  0.24367000  0.79537000  1.0
  O  O33  1  0.00000000  0.24649000  0.75461000  1.0
