# generated using pymatgen
data_K24Pd8CO
_symmetry_space_group_name_H-M   Pm
_cell_length_a   11.07580000
_cell_length_b   11.07580000
_cell_length_c   28.30690000
_cell_angle_alpha   90.00000000
_cell_angle_beta   90.00000000
_cell_angle_gamma   90.00000000
_symmetry_Int_Tables_number   6
_chemical_formula_structural   K24Pd8CO
_chemical_formula_sum   'K24 Pd8 C1 O1'
_cell_volume   3472.50212770
_cell_formula_units_Z   1
loop_
 _symmetry_equiv_pos_site_id
 _symmetry_equiv_pos_as_xyz
  1  'x, y, z'
  2  'x, -y, z'
loop_
 _atom_site_type_symbol
 _atom_site_label
 _atom_site_symmetry_multiplicity
 _atom_site_fract_x
 _atom_site_fract_y
 _atom_site_fract_z
 _atom_site_occupancy
  K  K0  2  0.00000000  0.24999000  0.95109000  1.0
  K  K1  2  0.00743000  0.23842000  0.15800000  1.0
  K  K2  2  0.24903000  0.33556000  0.06754000  1.0
  K  K3  2  0.25000000  0.24999000  0.85327000  1.0
  K  K4  2  0.49355000  0.24016000  0.15721000  1.0
  K  K5  2  0.50000000  0.24999000  0.95109000  1.0
  K  K6  2  0.75000000  0.24999000  0.85327000  1.0
  K  K7  2  0.75109000  0.25526000  0.05487000  1.0
  K  K8  1  0.25000000  0.00000000  0.95109000  1.0
  K  K9  1  0.25000000  0.50000000  0.95109000  1.0
  K  K10  1  0.25018000  0.50000000  0.21860000  1.0
  K  K11  1  0.25062000  0.00000000  0.09802000  1.0
  K  K12  1  0.74992000  0.00000000  0.15126000  1.0
  K  K13  1  0.75000000  0.00000000  0.95109000  1.0
  K  K14  1  0.75000000  0.50000000  0.95109000  1.0
  K  K15  1  0.75050000  0.50000000  0.15347000  1.0
  Pd  Pd16  1  0.00000000  0.00000000  0.85327000  1.0
  Pd  Pd17  1  0.00000000  0.50000000  0.85327000  1.0
  Pd  Pd18  1  0.50000000  0.00000000  0.85327000  1.0
  Pd  Pd19  1  0.50000000  0.50000000  0.85327000  1.0
  Pd  Pd20  1  0.51780000  0.50000000  0.07001000  1.0
  Pd  Pd21  1  0.53408000  0.00000000  0.06240000  1.0
  Pd  Pd22  1  0.96709000  0.00000000  0.06270000  1.0
  Pd  Pd23  1  0.98192000  0.50000000  0.06993000  1.0
  C  C24  1  0.24367000  0.00000000  0.20463000  1.0
  O  O25  1  0.24649000  0.00000000  0.24539000  1.0
