# generated using pymatgen
data_Li16In8Au8C
_symmetry_space_group_name_H-M   'P 1'
_cell_length_a   9.34782000
_cell_length_b   6.60991000
_cell_length_c   27.01090000
_cell_angle_alpha   90.00000000
_cell_angle_beta   90.00000000
_cell_angle_gamma   90.00000000
_symmetry_Int_Tables_number   1
_chemical_formula_structural   Li16In8Au8C
_chemical_formula_sum   'Li16 In8 Au8 C1'
_cell_volume   1668.95621211
_cell_formula_units_Z   1
loop_
 _symmetry_equiv_pos_site_id
 _symmetry_equiv_pos_as_xyz
  1  'x, y, z'
loop_
 _atom_site_type_symbol
 _atom_site_label
 _atom_site_symmetry_multiplicity
 _atom_site_fract_x
 _atom_site_fract_y
 _atom_site_fract_z
 _atom_site_occupancy
  Li  Li0  1  0.75000000  1.00000000  0.04326000  1.0
  Li  Li1  1  0.00000000  0.50000000  0.12978000  1.0
  Li  Li2  1  0.25000000  1.00000000  0.04326000  1.0
  Li  Li3  1  0.50000000  0.50000000  0.12978000  1.0
  Li  Li4  1  0.25000000  0.25000000  0.12978000  1.0
  Li  Li5  1  0.75000000  0.25000000  0.12978000  1.0
  Li  Li6  1  0.50000000  0.75000000  0.04326000  1.0
  Li  Li7  1  0.00000000  0.75000000  0.04326000  1.0
  Li  Li8  1  0.26666000  0.02905000  0.87216000  1.0
  Li  Li9  1  0.50000000  0.49739000  0.96424000  1.0
  Li  Li10  1  0.73334000  0.02905000  0.87216000  1.0
  Li  Li11  1  0.00000000  0.53569000  0.94843000  1.0
  Li  Li12  1  0.75956000  0.27509000  0.95274000  1.0
  Li  Li13  1  0.24044000  0.27509000  0.95274000  1.0
  Li  Li14  1  0.00000000  0.82138000  0.86026000  1.0
  Li  Li15  1  0.50000000  0.71680000  0.87756000  1.0
  In  In16  1  0.00000000  0.00000000  0.12978000  1.0
  In  In17  1  0.25000000  0.50000000  0.04326000  1.0
  In  In18  1  0.75000000  0.50000000  0.04326000  1.0
  In  In19  1  0.50000000  1.00000000  0.12978000  1.0
  In  In20  1  0.50000000  0.01634000  0.95606000  1.0
  In  In21  1  0.76114000  0.53496000  0.85430000  1.0
  In  In22  1  0.23886000  0.53496000  0.85430000  1.0
  In  In23  1  0.00000000  0.97475000  0.96131000  1.0
  Au  Au24  1  0.00000000  0.25000000  0.04326000  1.0
  Au  Au25  1  0.50000000  0.25000000  0.04326000  1.0
  Au  Au26  1  0.75000000  0.75000000  0.12978000  1.0
  Au  Au27  1  0.25000000  0.75000000  0.12978000  1.0
  Au  Au28  1  0.50000000  0.29763000  0.87710000  1.0
  Au  Au29  1  0.00000000  0.21844000  0.88135000  1.0
  Au  Au30  1  0.26409000  0.74607000  0.95502000  1.0
  Au  Au31  1  0.73591000  0.74607000  0.95502000  1.0
  C  C32  1  0.00000000  0.51750000  0.85895000  1.0
