# generated using pymatgen
data_Ta4Co12C
_symmetry_space_group_name_H-M   'P 1'
_cell_length_a   5.16538000
_cell_length_b   7.30495000
_cell_length_c   23.87400000
_cell_angle_alpha   90.00000000
_cell_angle_beta   90.00000000
_cell_angle_gamma   90.00000000
_symmetry_Int_Tables_number   1
_chemical_formula_structural   Ta4Co12C
_chemical_formula_sum   'Ta4 Co12 C1'
_cell_volume   900.83388497
_cell_formula_units_Z   1
loop_
 _symmetry_equiv_pos_site_id
 _symmetry_equiv_pos_as_xyz
  1  'x, y, z'
loop_
 _atom_site_type_symbol
 _atom_site_label
 _atom_site_symmetry_multiplicity
 _atom_site_fract_x
 _atom_site_fract_y
 _atom_site_fract_z
 _atom_site_occupancy
  Ta  Ta0  1  0.00000000  0.00000000  0.08113000  1.0
  Ta  Ta1  1  0.50000000  0.00000000  0.97296000  1.0
  Ta  Ta2  1  0.00000000  0.50000000  0.08113000  1.0
  Ta  Ta3  1  0.50000000  0.50000000  0.97296000  1.0
  Co  Co4  1  0.50000000  0.00000000  0.08113000  1.0
  Co  Co5  1  0.75000000  0.25000000  0.02704000  1.0
  Co  Co6  1  0.25000000  0.25000000  0.02704000  1.0
  Co  Co7  1  0.00000000  0.00000000  0.97296000  1.0
  Co  Co8  1  0.25000000  0.25000000  0.91887000  1.0
  Co  Co9  1  0.75000000  0.25000000  0.91887000  1.0
  Co  Co10  1  0.50000000  0.50000000  0.08113000  1.0
  Co  Co11  1  0.75000000  0.75000000  0.02704000  1.0
  Co  Co12  1  0.25000000  0.75000000  0.02704000  1.0
  Co  Co13  1  0.00000000  0.50000000  0.97296000  1.0
  Co  Co14  1  0.25000000  0.75000000  0.91887000  1.0
  Co  Co15  1  0.75000000  0.75000000  0.91887000  1.0
  C  C16  1  0.50000000  0.00000000  0.88536000  1.0
