# generated using pymatgen
data_Li4Sc4In4Ga4C
_symmetry_space_group_name_H-M   'P 1'
_cell_length_a   8.23116000
_cell_length_b   6.09788000
_cell_length_c   24.56590000
_cell_angle_alpha   90.00000000
_cell_angle_beta   90.00000000
_cell_angle_gamma   90.00000000
_symmetry_Int_Tables_number   1
_chemical_formula_structural   Li4Sc4In4Ga4C
_chemical_formula_sum   'Li4 Sc4 In4 Ga4 C1'
_cell_volume   1233.02702960
_cell_formula_units_Z   1
loop_
 _symmetry_equiv_pos_site_id
 _symmetry_equiv_pos_as_xyz
  1  'x, y, z'
loop_
 _atom_site_type_symbol
 _atom_site_label
 _atom_site_symmetry_multiplicity
 _atom_site_fract_x
 _atom_site_fract_y
 _atom_site_fract_z
 _atom_site_occupancy
  Li  Li0  1  0.71618000  0.37491000  0.10945000  1.0
  Li  Li1  1  0.75001000  0.02863000  0.96902000  1.0
  Li  Li2  1  0.28382000  0.37491000  0.10945000  1.0
  Li  Li3  1  0.24999000  0.02863000  0.96902000  1.0
  Sc  Sc4  1  0.50000000  0.73109000  0.03450000  1.0
  Sc  Sc5  1  0.50000000  0.29294000  0.90707000  1.0
  Sc  Sc6  1  0.00000000  0.72030000  0.04557000  1.0
  Sc  Sc7  1  0.00000000  0.29294000  0.90707000  1.0
  In  In8  1  0.50000000  0.23991000  0.02682000  1.0
  In  In9  1  0.50000000  0.79294000  0.90707000  1.0
  In  In10  1  0.00000000  0.21607000  0.04286000  1.0
  In  In11  1  0.00000000  0.79294000  0.90707000  1.0
  Ga  Ga12  1  0.73479000  0.89878000  0.10641000  1.0
  Ga  Ga13  1  0.75001000  0.52863000  0.96902000  1.0
  Ga  Ga14  1  0.26521000  0.89878000  0.10641000  1.0
  Ga  Ga15  1  0.24999000  0.52863000  0.96902000  1.0
  C  C16  1  0.50000000  0.99429000  0.09796000  1.0
