# generated using pymatgen
data_Sc8Al8Cu8Pd8C
_symmetry_space_group_name_H-M   Pm
_cell_length_a   6.32596000
_cell_length_b   8.94626000
_cell_length_c   26.70970000
_cell_angle_alpha   90.00000000
_cell_angle_beta   90.00000000
_cell_angle_gamma   90.00000000
_symmetry_Int_Tables_number   6
_chemical_formula_structural   Sc8Al8Cu8Pd8C
_chemical_formula_sum   'Sc8 Al8 Cu8 Pd8 C1'
_cell_volume   1511.60029241
_cell_formula_units_Z   1
loop_
 _symmetry_equiv_pos_site_id
 _symmetry_equiv_pos_as_xyz
  1  'x, y, z'
  2  'x, -y, z'
loop_
 _atom_site_type_symbol
 _atom_site_label
 _atom_site_symmetry_multiplicity
 _atom_site_fract_x
 _atom_site_fract_y
 _atom_site_fract_z
 _atom_site_occupancy
  Sc  Sc0  2  0.50000000  0.25000000  0.87440000  1.0
  Sc  Sc1  2  0.50086000  0.25130000  0.04085000  1.0
  Sc  Sc2  1  -0.00000000  0.50000000  0.95813000  1.0
  Sc  Sc3  1  -0.00000000  0.00000000  0.95813000  1.0
  Sc  Sc4  1  0.03216000  0.00000000  0.13924000  1.0
  Sc  Sc5  1  0.97311000  0.50000000  0.12987000  1.0
  Al  Al6  2  0.00000000  0.25000000  0.87440000  1.0
  Al  Al7  2  0.99918000  0.24974000  0.04484000  1.0
  Al  Al8  1  0.45197000  0.00000000  0.11789000  1.0
  Al  Al9  1  0.50000000  0.00000000  0.95813000  1.0
  Al  Al10  1  0.50000000  0.50000000  0.95813000  1.0
  Al  Al11  1  0.50069000  0.50000000  0.12277000  1.0
  Cu  Cu12  2  0.71302000  0.22804000  0.13148000  1.0
  Cu  Cu13  2  0.75000000  0.25000000  0.95813000  1.0
  Cu  Cu14  1  0.22612000  0.00000000  0.04229000  1.0
  Cu  Cu15  1  0.23361000  0.50000000  0.04498000  1.0
  Cu  Cu16  1  0.25000000  0.00000000  0.87440000  1.0
  Cu  Cu17  1  0.25000000  0.50000000  0.87440000  1.0
  Pd  Pd18  2  0.25000000  0.25000000  0.95813000  1.0
  Pd  Pd19  2  0.25536000  0.26235000  0.12157000  1.0
  Pd  Pd20  1  0.75000000  0.00000000  0.87440000  1.0
  Pd  Pd21  1  0.75000000  0.50000000  0.87440000  1.0
  Pd  Pd22  1  0.76462000  0.50000000  0.04075000  1.0
  Pd  Pd23  1  0.76680000  0.00000000  0.04723000  1.0
  C  C24  1  0.71729000  0.00000000  0.14917000  1.0
