# generated using pymatgen
data_Y16Mg16CO
_symmetry_space_group_name_H-M   Pmm2
_cell_length_a   7.58049000
_cell_length_b   10.72040000
_cell_length_c   28.04030000
_cell_angle_alpha   90.00000000
_cell_angle_beta   90.00000000
_cell_angle_gamma   90.00000000
_symmetry_Int_Tables_number   25
_chemical_formula_structural   Y16Mg16CO
_chemical_formula_sum   'Y16 Mg16 C1 O1'
_cell_volume   2278.71979505
_cell_formula_units_Z   1
loop_
 _symmetry_equiv_pos_site_id
 _symmetry_equiv_pos_as_xyz
  1  'x, y, z'
  2  '-x, -y, z'
  3  '-x, y, z'
  4  'x, -y, z'
loop_
 _atom_site_type_symbol
 _atom_site_label
 _atom_site_symmetry_multiplicity
 _atom_site_fract_x
 _atom_site_fract_y
 _atom_site_fract_z
 _atom_site_occupancy
  Y  Y0  4  0.25000000  0.25000000  0.95221000  1.0
  Y  Y1  4  0.25255000  0.24926000  0.13973000  1.0
  Y  Y2  2  0.24793000  0.50000000  0.04853000  1.0
  Y  Y3  2  0.25000000  0.00000000  0.85663000  1.0
  Y  Y4  2  0.25000000  0.50000000  0.85663000  1.0
  Y  Y5  2  0.25540000  0.00000000  0.04647000  1.0
  Mg  Mg6  2  0.00000000  0.24872000  0.04639000  1.0
  Mg  Mg7  2  0.00000000  0.25000000  0.85663000  1.0
  Mg  Mg8  2  0.50000000  0.25000000  0.85663000  1.0
  Mg  Mg9  2  0.50000000  0.25106000  0.04599000  1.0
  Mg  Mg10  1  0.00000000  0.00000000  0.13799000  1.0
  Mg  Mg11  1  0.00000000  0.00000000  0.95221000  1.0
  Mg  Mg12  1  0.00000000  0.50000000  0.14585000  1.0
  Mg  Mg13  1  0.00000000  0.50000000  0.95221000  1.0
  Mg  Mg14  1  0.50000000  0.00000000  0.14300000  1.0
  Mg  Mg15  1  0.50000000  0.00000000  0.95221000  1.0
  Mg  Mg16  1  0.50000000  0.50000000  0.14500000  1.0
  Mg  Mg17  1  0.50000000  0.50000000  0.95221000  1.0
  C  C18  1  0.00000000  0.00000000  0.21551000  1.0
  O  O19  1  0.00000000  0.00000000  0.25692000  1.0
