# generated using pymatgen
data_Li4In4Pd4Ru4CO
_symmetry_space_group_name_H-M   Cm
_cell_length_a   8.93846611
_cell_length_b   8.93846611
_cell_length_c   24.74030000
_cell_angle_alpha   90.00000000
_cell_angle_beta   90.00000000
_cell_angle_gamma   90.00000000
_symmetry_Int_Tables_number   8
_chemical_formula_structural   Li4In4Pd4Ru4CO
_chemical_formula_sum   'Li8 In8 Pd8 Ru8 C2 O2'
_cell_volume   1976.65537311
_cell_formula_units_Z   2
loop_
 _symmetry_equiv_pos_site_id
 _symmetry_equiv_pos_as_xyz
  1  'x, y, z'
  2  '-x+1/2, -y, z'
  3  '-x+1/2, y, z'
  4  'x, -y, z'
  5  'x+1/2, y+1/2, z'
  6  '-x, -y+1/2, z'
  7  '-x, y+1/2, z'
  8  'x+1/2, -y+1/2, z'
loop_
 _atom_site_type_symbol
 _atom_site_label
 _atom_site_symmetry_multiplicity
 _atom_site_fract_x
 _atom_site_fract_y
 _atom_site_fract_z
 _atom_site_occupancy
  Li  Li0  4  0.00172000  0.50000000  0.03372000  1.0
  Li  Li1  4  0.24999500  0.25000500  0.90420000  1.0
  In  In2  4  0.24999500  0.24937500  0.03210000  1.0
  In  In3  4  0.49999500  0.00000000  0.90420000  1.0
  Ru  Ru4  4  0.00001000  0.25003000  0.09428000  1.0
  Pd  Pd5  4  0.49999500  0.24999500  0.96807000  1.0
  Ru  Ru6  2  0.24999500  0.00000000  0.96807000  1.0
  Ru  Ru7  2  0.24999500  0.50000000  0.96807000  1.0
  Pd  Pd8  2  0.25000000  0.50000000  0.09297000  1.0
  Pd  Pd9  2  0.25000500  0.00000000  0.09593000  1.0
  C  C10  2  0.25000000  0.00000000  0.17395000  1.0
  O  O11  2  0.25000000  0.00000000  0.22043000  1.0
