# generated using pymatgen
data_Li8Ag16Sn8CO
_symmetry_space_group_name_H-M   Pm
_cell_length_a   6.77071000
_cell_length_b   9.57522000
_cell_length_c   27.18140000
_cell_angle_alpha   90.00000000
_cell_angle_beta   90.00000000
_cell_angle_gamma   90.00000000
_symmetry_Int_Tables_number   6
_chemical_formula_structural   Li8Ag16Sn8CO
_chemical_formula_sum   'Li8 Ag16 Sn8 C1 O1'
_cell_volume   1762.19837103
_cell_formula_units_Z   1
loop_
 _symmetry_equiv_pos_site_id
 _symmetry_equiv_pos_as_xyz
  1  'x, y, z'
  2  'x, -y, z'
loop_
 _atom_site_type_symbol
 _atom_site_label
 _atom_site_symmetry_multiplicity
 _atom_site_fract_x
 _atom_site_fract_y
 _atom_site_fract_z
 _atom_site_occupancy
  Li  Li0  2  0.50000000  0.25000000  0.95597000  1.0
  Li  Li1  2  0.50130000  0.24939000  0.12820000  1.0
  Li  Li2  1  0.00000000  0.00000000  0.86790000  1.0
  Li  Li3  1  0.00000000  0.50000000  0.86790000  1.0
  Li  Li4  1  0.00657000  0.00000000  0.04061000  1.0
  Li  Li5  1  0.99853000  0.50000000  0.04308000  1.0
  Ag  Ag6  2  0.22868000  0.24963000  0.05007000  1.0
  Ag  Ag7  2  0.25000000  0.25000000  0.86790000  1.0
  Ag  Ag8  2  0.75000000  0.25000000  0.86790000  1.0
  Ag  Ag9  2  0.76750000  0.24914000  0.04785000  1.0
  Ag  Ag10  1  0.22878000  0.00000000  0.12962000  1.0
  Ag  Ag11  1  0.25000000  0.00000000  0.95597000  1.0
  Ag  Ag12  1  0.25000000  0.50000000  0.95597000  1.0
  Ag  Ag13  1  0.25033000  0.50000000  0.12805000  1.0
  Ag  Ag14  1  0.74185000  0.50000000  0.12797000  1.0
  Ag  Ag15  1  0.75000000  0.00000000  0.95597000  1.0
  Ag  Ag16  1  0.75000000  0.50000000  0.95597000  1.0
  Ag  Ag17  1  0.78027000  0.00000000  0.12396000  1.0
  Sn  Sn18  2  0.00000000  0.25000000  0.95597000  1.0
  Sn  Sn19  2  0.99187000  0.25873000  0.14268000  1.0
  Sn  Sn20  1  0.49625000  0.00000000  0.04517000  1.0
  Sn  Sn21  1  0.49845000  0.50000000  0.04225000  1.0
  Sn  Sn22  1  0.50000000  0.00000000  0.86790000  1.0
  Sn  Sn23  1  0.50000000  0.50000000  0.86790000  1.0
  C  C24  1  0.30469000  0.00000000  0.21922000  1.0
  O  O25  1  0.23392000  0.00000000  0.25733000  1.0
