data_image0
_chemical_formula_structural       Mn8Al4V4CO
_chemical_formula_sum              "Mn8 Al4 V4 C1 O1"
_cell_length_a       5.82937
_cell_length_b       5.82937
_cell_length_c       24.372
_cell_angle_alpha    90
_cell_angle_beta     90
_cell_angle_gamma    90

_space_group_name_H-M_alt    "P 1"
_space_group_IT_number       1

loop_
  _space_group_symop_operation_xyz
  'x, y, z'

loop_
  _atom_site_type_symbol
  _atom_site_label
  _atom_site_symmetry_multiplicity
  _atom_site_fract_x
  _atom_site_fract_y
  _atom_site_fract_z
  _atom_site_occupancy
  Mn  Mn1       1.0  0.24969  0.24970  0.03274  1.0000
  Mn  Mn2       1.0  0.75000  0.75000  0.91031  1.0000
  Mn  Mn3       1.0  0.75031  0.24971  0.03275  1.0000
  Mn  Mn4       1.0  0.25000  0.75000  0.91031  1.0000
  Mn  Mn5       1.0  0.75031  0.75029  0.03274  1.0000
  Mn  Mn6       1.0  0.25000  0.25000  0.91031  1.0000
  Mn  Mn7       1.0  0.24969  0.75029  0.03274  1.0000
  Mn  Mn8       1.0  0.75000  0.25000  0.91031  1.0000
  Al  Al1       1.0  0.00000  1.00000  0.08738  1.0000
  Al  Al2       1.0  0.50000  0.50000  0.08965  1.0000
  Al  Al3       1.0  0.50000  0.00000  0.97010  1.0000
  Al  Al4       1.0  0.00000  0.50000  0.97010  1.0000
  V   V1        1.0  0.00000  0.00000  0.97010  1.0000
  V   V2        1.0  0.50000  0.00000  0.08326  1.0000
  V   V3        1.0  0.99999  0.50001  0.08325  1.0000
  V   V4        1.0  0.50000  0.50000  0.97010  1.0000
  C   C1        1.0  0.00000  1.00000  0.16894  1.0000
  O   O1        1.0  0.00000  0.00000  0.21672  1.0000
