# generated using pymatgen
data_Mn8Al4V4CO
_symmetry_space_group_name_H-M   P4mm
_cell_length_a   5.82937000
_cell_length_b   5.82937000
_cell_length_c   24.37200000
_cell_angle_alpha   90.00000000
_cell_angle_beta   90.00000000
_cell_angle_gamma   90.00000000
_symmetry_Int_Tables_number   99
_chemical_formula_structural   Mn8Al4V4CO
_chemical_formula_sum   'Mn8 Al4 V4 C1 O1'
_cell_volume   828.19844864
_cell_formula_units_Z   1
loop_
 _symmetry_equiv_pos_site_id
 _symmetry_equiv_pos_as_xyz
  1  'x, y, z'
  2  '-y, x, z'
  3  '-x, -y, z'
  4  'y, -x, z'
  5  '-x, y, z'
  6  'y, x, z'
  7  'x, -y, z'
  8  '-y, -x, z'
loop_
 _atom_site_type_symbol
 _atom_site_label
 _atom_site_symmetry_multiplicity
 _atom_site_fract_x
 _atom_site_fract_y
 _atom_site_fract_z
 _atom_site_occupancy
  Mn  Mn0  4  0.24969500  0.24969500  0.03274000  1.0
  Mn  Mn1  4  0.25000000  0.25000000  0.91031000  1.0
  Al  Al2  2  0.00000000  0.50000000  0.97010000  1.0
  Al  Al3  1  0.00000000  0.00000000  0.08738000  1.0
  Al  Al4  1  0.50000000  0.50000000  0.08965000  1.0
  V  V5  2  0.00000000  0.50000000  0.08326000  1.0
  V  V6  1  0.00000000  0.00000000  0.97010000  1.0
  V  V7  1  0.50000000  0.50000000  0.97010000  1.0
  C  C8  1  0.00000000  0.00000000  0.16894000  1.0
  O  O9  1  0.00000000  0.00000000  0.21672000  1.0
