# generated using pymatgen
data_Hf8Co16Sn8C
_symmetry_space_group_name_H-M   Pmm2
_cell_length_a   6.26570000
_cell_length_b   8.86104000
_cell_length_c   26.64580000
_cell_angle_alpha   90.00000000
_cell_angle_beta   90.00000000
_cell_angle_gamma   90.00000000
_symmetry_Int_Tables_number   25
_chemical_formula_structural   Hf8Co16Sn8C
_chemical_formula_sum   'Hf8 Co16 Sn8 C1'
_cell_volume   1479.39129184
_cell_formula_units_Z   1
loop_
 _symmetry_equiv_pos_site_id
 _symmetry_equiv_pos_as_xyz
  1  'x, y, z'
  2  '-x, -y, z'
  3  '-x, y, z'
  4  'x, -y, z'
loop_
 _atom_site_type_symbol
 _atom_site_label
 _atom_site_symmetry_multiplicity
 _atom_site_fract_x
 _atom_site_fract_y
 _atom_site_fract_z
 _atom_site_occupancy
  Hf  Hf0  2  0.50000000  0.25000000  0.95843000  1.0
  Hf  Hf1  2  0.50000000  0.25292000  0.12373000  1.0
  Hf  Hf2  1  0.00000000  0.00000000  0.04438000  1.0
  Hf  Hf3  1  0.00000000  0.00000000  0.87529000  1.0
  Hf  Hf4  1  0.00000000  0.50000000  0.04190000  1.0
  Hf  Hf5  1  0.00000000  0.50000000  0.87529000  1.0
  Co  Co6  4  0.24900000  0.24979000  0.04361000  1.0
  Co  Co7  4  0.25000000  0.25000000  0.87529000  1.0
  Co  Co8  2  0.25000000  0.00000000  0.95843000  1.0
  Co  Co9  2  0.25000000  0.50000000  0.95843000  1.0
  Co  Co10  2  0.25508000  0.50000000  0.11858000  1.0
  Co  Co11  2  0.27593000  0.00000000  0.12180000  1.0
  Sn  Sn12  2  0.00000000  0.25000000  0.95843000  1.0
  Sn  Sn13  2  0.00000000  0.26744000  0.13562000  1.0
  Sn  Sn14  1  0.50000000  0.00000000  0.03952000  1.0
  Sn  Sn15  1  0.50000000  0.00000000  0.87529000  1.0
  Sn  Sn16  1  0.50000000  0.50000000  0.03984000  1.0
  Sn  Sn17  1  0.50000000  0.50000000  0.87529000  1.0
  C  C18  1  0.00000000  0.00000000  0.13355000  1.0
