# generated using pymatgen
data_Li8Y8Ge8Pb8CO
_symmetry_space_group_name_H-M   Pmm2
_cell_length_a   8.55406000
_cell_length_b   9.86128000
_cell_length_c   26.49120000
_cell_angle_alpha   90.00000000
_cell_angle_beta   90.00000000
_cell_angle_gamma   90.00000000
_symmetry_Int_Tables_number   25
_chemical_formula_structural   Li8Y8Ge8Pb8CO
_chemical_formula_sum   'Li8 Y8 Ge8 Pb8 C1 O1'
_cell_volume   2234.63817608
_cell_formula_units_Z   1
loop_
 _symmetry_equiv_pos_site_id
 _symmetry_equiv_pos_as_xyz
  1  'x, y, z'
  2  '-x, -y, z'
  3  '-x, y, z'
  4  'x, -y, z'
loop_
 _atom_site_type_symbol
 _atom_site_label
 _atom_site_symmetry_multiplicity
 _atom_site_fract_x
 _atom_site_fract_y
 _atom_site_fract_z
 _atom_site_occupancy
  Li  Li0  2  0.00000000  0.25000000  0.12252000  1.0
  Li  Li1  2  0.00000000  0.25058000  0.95801000  1.0
  Li  Li2  2  0.50000000  0.25000000  0.12252000  1.0
  Li  Li3  2  0.50000000  0.25198000  0.95838000  1.0
  Y  Y4  1  0.00000000  0.00000000  0.04084000  1.0
  Y  Y5  1  0.00000000  0.00000000  0.88004000  1.0
  Y  Y6  1  0.00000000  0.50000000  0.04084000  1.0
  Y  Y7  1  0.00000000  0.50000000  0.87951000  1.0
  Y  Y8  1  0.50000000  0.00000000  0.04084000  1.0
  Y  Y9  1  0.50000000  0.00000000  0.88052000  1.0
  Y  Y10  1  0.50000000  0.50000000  0.04084000  1.0
  Y  Y11  1  0.50000000  0.50000000  0.87935000  1.0
  Ge  Ge12  2  0.24971000  0.50000000  0.95630000  1.0
  Ge  Ge13  2  0.25000000  0.00000000  0.12252000  1.0
  Ge  Ge14  2  0.25000000  0.50000000  0.12252000  1.0
  Ge  Ge15  2  0.25070000  0.00000000  0.95675000  1.0
  Pb  Pb16  4  0.25000000  0.25000000  0.04084000  1.0
  Pb  Pb17  4  0.25051000  0.25138000  0.86968000  1.0
  C  C18  1  0.00000000  0.00000000  0.78663000  1.0
  O  O19  1  0.00000000  0.00000000  0.74321000  1.0
