# generated using pymatgen
data_Li8Y8In8Pt8C
_symmetry_space_group_name_H-M   Pm
_cell_length_a   6.80323000
_cell_length_b   9.62122000
_cell_length_c   27.21590000
_cell_angle_alpha   90.00000000
_cell_angle_beta   90.00000000
_cell_angle_gamma   90.00000000
_symmetry_Int_Tables_number   6
_chemical_formula_structural   Li8Y8In8Pt8C
_chemical_formula_sum   'Li8 Y8 In8 Pt8 C1'
_cell_volume   1781.42687353
_cell_formula_units_Z   1
loop_
 _symmetry_equiv_pos_site_id
 _symmetry_equiv_pos_as_xyz
  1  'x, y, z'
  2  'x, -y, z'
loop_
 _atom_site_type_symbol
 _atom_site_label
 _atom_site_symmetry_multiplicity
 _atom_site_fract_x
 _atom_site_fract_y
 _atom_site_fract_z
 _atom_site_occupancy
  Li  Li0  2  0.59740000  0.20924000  0.19169000  1.0
  Li  Li1  2  0.75000000  0.25000000  0.95581000  1.0
  Li  Li2  1  0.22722000  0.00000000  0.04718000  1.0
  Li  Li3  1  0.25000000  0.00000000  0.86743000  1.0
  Li  Li4  1  0.25000000  0.50000000  0.86743000  1.0
  Li  Li5  1  0.25149000  0.50000000  0.04786000  1.0
  Y  Y6  2  0.50000000  0.25000000  0.86743000  1.0
  Y  Y7  2  0.51163000  0.24886000  0.04941000  1.0
  Y  Y8  1  -0.00000000  0.50000000  0.95581000  1.0
  Y  Y9  1  0.00000000  0.00000000  0.95581000  1.0
  Y  Y10  1  0.94977000  0.00000000  0.13564000  1.0
  Y  Y11  1  0.95896000  0.50000000  0.13083000  1.0
  In  In12  2  0.00000000  0.25000000  0.86743000  1.0
  In  In13  2  0.99387000  0.25128000  0.04350000  1.0
  In  In14  1  0.43658000  0.00000000  0.13506000  1.0
  In  In15  1  0.48167000  0.50000000  0.14371000  1.0
  In  In16  1  0.50000000  0.00000000  0.95581000  1.0
  In  In17  1  0.50000000  0.50000000  0.95581000  1.0
  Pt  Pt18  2  0.23802000  0.26558000  0.12518000  1.0
  Pt  Pt19  2  0.25000000  0.25000000  0.95581000  1.0
  Pt  Pt20  1  0.74713000  0.50000000  0.04137000  1.0
  Pt  Pt21  1  0.75000000  0.00000000  0.86743000  1.0
  Pt  Pt22  1  0.75000000  0.50000000  0.86743000  1.0
  Pt  Pt23  1  0.75728000  0.00000000  0.03836000  1.0
  C  C24  1  0.68479000  0.00000000  0.18291000  1.0
