# generated using pymatgen
data_Ga16Ir16CO
_symmetry_space_group_name_H-M   Pmm2
_cell_length_a   6.13393000
_cell_length_b   8.67469000
_cell_length_c   26.50600000
_cell_angle_alpha   90.00000000
_cell_angle_beta   90.00000000
_cell_angle_gamma   90.00000000
_symmetry_Int_Tables_number   25
_chemical_formula_structural   Ga16Ir16CO
_chemical_formula_sum   'Ga16 Ir16 C1 O1'
_cell_volume   1410.38270229
_cell_formula_units_Z   1
loop_
 _symmetry_equiv_pos_site_id
 _symmetry_equiv_pos_as_xyz
  1  'x, y, z'
  2  '-x, -y, z'
  3  '-x, y, z'
  4  'x, -y, z'
loop_
 _atom_site_type_symbol
 _atom_site_label
 _atom_site_symmetry_multiplicity
 _atom_site_fract_x
 _atom_site_fract_y
 _atom_site_fract_z
 _atom_site_occupancy
  Ga  Ga0  2  0.00000000  0.24966000  0.04153000  1.0
  Ga  Ga1  2  0.00000000  0.25001000  0.87727000  1.0
  Ga  Ga2  2  0.50000000  0.25001000  0.87727000  1.0
  Ga  Ga3  2  0.50000000  0.25031000  0.04152000  1.0
  Ga  Ga4  1  0.00000000  0.00000000  0.13158000  1.0
  Ga  Ga5  1  0.00000000  0.00000000  0.95909000  1.0
  Ga  Ga6  1  0.00000000  0.50000000  0.13188000  1.0
  Ga  Ga7  1  0.00000000  0.50000000  0.95909000  1.0
  Ga  Ga8  1  0.50000000  0.00000000  0.13231000  1.0
  Ga  Ga9  1  0.50000000  0.00000000  0.95909000  1.0
  Ga  Ga10  1  0.50000000  0.50000000  0.13152000  1.0
  Ga  Ga11  1  0.50000000  0.50000000  0.95909000  1.0
  Ir  Ir12  4  0.24996000  0.24999000  0.95909000  1.0
  Ir  Ir13  4  0.25009000  0.24976000  0.11801000  1.0
  Ir  Ir14  2  0.24970000  0.50000000  0.03758000  1.0
  Ir  Ir15  2  0.24996000  0.00000000  0.87727000  1.0
  Ir  Ir16  2  0.24996000  0.50000000  0.87727000  1.0
  Ir  Ir17  2  0.25027000  0.00000000  0.03751000  1.0
  C  C18  1  0.00000000  0.00000000  0.26885000  1.0
  O  O19  1  0.00000000  0.00000000  0.31166000  1.0
