# generated using pymatgen
data_Sc8In8Ag16C
_symmetry_space_group_name_H-M   'P 1'
_cell_length_a   6.85473000
_cell_length_b   9.69405000
_cell_length_c   27.27050000
_cell_angle_alpha   90.00000000
_cell_angle_beta   90.00000000
_cell_angle_gamma   90.00000000
_symmetry_Int_Tables_number   1
_chemical_formula_structural   Sc8In8Ag16C
_chemical_formula_sum   'Sc8 In8 Ag16 C1'
_cell_volume   1812.12732542
_cell_formula_units_Z   1
loop_
 _symmetry_equiv_pos_site_id
 _symmetry_equiv_pos_as_xyz
  1  'x, y, z'
loop_
 _atom_site_type_symbol
 _atom_site_label
 _atom_site_symmetry_multiplicity
 _atom_site_fract_x
 _atom_site_fract_y
 _atom_site_fract_z
 _atom_site_occupancy
  Sc  Sc0  1  0.00000000  0.00000000  0.86670000  1.0
  Sc  Sc1  1  0.50000000  0.25000000  0.95557000  1.0
  Sc  Sc2  1  0.50000000  0.75000000  0.95557000  1.0
  Sc  Sc3  1  0.00000000  0.50000000  0.86670000  1.0
  Sc  Sc4  1  0.00000000  0.50000000  0.04930000  1.0
  Sc  Sc5  1  0.50000000  0.78216000  0.12911000  1.0
  Sc  Sc6  1  0.50000000  0.21784000  0.12911000  1.0
  Sc  Sc7  1  0.00000000  0.00000000  0.05196000  1.0
  In  In8  1  0.00000000  0.75000000  0.95557000  1.0
  In  In9  1  0.50000000  0.00000000  0.86670000  1.0
  In  In10  1  0.00000000  0.25000000  0.95557000  1.0
  In  In11  1  0.50000000  0.50000000  0.86670000  1.0
  In  In12  1  0.00000000  0.26567000  0.13502000  1.0
  In  In13  1  0.50000000  0.50000000  0.04211000  1.0
  In  In14  1  0.00000000  0.73433000  0.13502000  1.0
  In  In15  1  0.50000000  0.00000000  0.04343000  1.0
  Ag  Ag16  1  0.25000000  0.00000000  0.95557000  1.0
  Ag  Ag17  1  0.75000000  0.50000000  0.95557000  1.0
  Ag  Ag18  1  0.75000000  0.00000000  0.95557000  1.0
  Ag  Ag19  1  0.25000000  0.50000000  0.95557000  1.0
  Ag  Ag20  1  0.75000000  0.75000000  0.86670000  1.0
  Ag  Ag21  1  0.25000000  0.25000000  0.86670000  1.0
  Ag  Ag22  1  0.25000000  0.75000000  0.86670000  1.0
  Ag  Ag23  1  0.75000000  0.25000000  0.86670000  1.0
  Ag  Ag24  1  0.27879000  0.50000000  0.13593000  1.0
  Ag  Ag25  1  0.80482000  0.00000000  0.15425000  1.0
  Ag  Ag26  1  0.72121000  0.50000000  0.13593000  1.0
  Ag  Ag27  1  0.19518000  0.00000000  0.15425000  1.0
  Ag  Ag28  1  0.75406000  0.25196000  0.04314000  1.0
  Ag  Ag29  1  0.24594000  0.74804000  0.04314000  1.0
  Ag  Ag30  1  0.24594000  0.25196000  0.04314000  1.0
  Ag  Ag31  1  0.75406000  0.74804000  0.04314000  1.0
  C  C32  1  0.50000000  0.00000000  0.13090000  1.0
