# generated using pymatgen
data_Li8Ge8Pd8Pb8CO
_symmetry_space_group_name_H-M   'P 1'
_cell_length_a   9.54516000
_cell_length_b   6.74945000
_cell_length_c   27.15890000
_cell_angle_alpha   90.00000000
_cell_angle_beta   90.00000000
_cell_angle_gamma   90.00000000
_symmetry_Int_Tables_number   1
_chemical_formula_structural   Li8Ge8Pd8Pb8CO
_chemical_formula_sum   'Li8 Ge8 Pd8 Pb8 C1 O1'
_cell_volume   1749.70073016
_cell_formula_units_Z   1
loop_
 _symmetry_equiv_pos_site_id
 _symmetry_equiv_pos_as_xyz
  1  'x, y, z'
loop_
 _atom_site_type_symbol
 _atom_site_label
 _atom_site_symmetry_multiplicity
 _atom_site_fract_x
 _atom_site_fract_y
 _atom_site_fract_z
 _atom_site_occupancy
  Li  Li0  1  0.75000000  0.25000000  0.04393000  1.0
  Li  Li1  1  0.25000000  0.25000000  0.04393000  1.0
  Li  Li2  1  0.00000000  0.75000000  0.13180000  1.0
  Li  Li3  1  0.50000000  0.75000000  0.13180000  1.0
  Li  Li4  1  0.26024000  0.38568000  0.85116000  1.0
  Li  Li5  1  0.73976000  0.38568000  0.85116000  1.0
  Li  Li6  1  0.50000000  0.86118000  0.94150000  1.0
  Li  Li7  1  0.00000000  0.82265000  0.94129000  1.0
  Ge  Ge8  1  0.75000000  0.00000000  0.13180000  1.0
  Ge  Ge9  1  0.25000000  0.00000000  0.13180000  1.0
  Ge  Ge10  1  0.50000000  0.50000000  0.04393000  1.0
  Ge  Ge11  1  0.00000000  0.50000000  0.04393000  1.0
  Ge  Ge12  1  0.25270000  0.08929000  0.93204000  1.0
  Ge  Ge13  1  0.74730000  0.08929000  0.93204000  1.0
  Ge  Ge14  1  0.00000000  0.62601000  0.84809000  1.0
  Ge  Ge15  1  0.50000000  0.59869000  0.86285000  1.0
  Pd  Pd16  1  0.75000000  0.75000000  0.04393000  1.0
  Pd  Pd17  1  0.25000000  0.75000000  0.04393000  1.0
  Pd  Pd18  1  0.00000000  0.25000000  0.13180000  1.0
  Pd  Pd19  1  0.50000000  0.25000000  0.13180000  1.0
  Pd  Pd20  1  0.24567000  0.79173000  0.87160000  1.0
  Pd  Pd21  1  0.75433000  0.79173000  0.87160000  1.0
  Pd  Pd22  1  0.50000000  0.28873000  0.92193000  1.0
  Pd  Pd23  1  0.00000000  0.24283000  0.95818000  1.0
  Pb  Pb24  1  0.00000000  1.00000000  0.04393000  1.0
  Pb  Pb25  1  0.50000000  1.00000000  0.04393000  1.0
  Pb  Pb26  1  0.25000000  0.50000000  0.13180000  1.0
  Pb  Pb27  1  0.75000000  0.50000000  0.13180000  1.0
  Pb  Pb28  1  0.50000000  0.02535000  0.83582000  1.0
  Pb  Pb29  1  0.00000000  0.10143000  0.85172000  1.0
  Pb  Pb30  1  0.74310000  0.53124000  0.95573000  1.0
  Pb  Pb31  1  0.25690000  0.53124000  0.95573000  1.0
  C  C32  1  0.00000000  0.72328000  0.77922000  1.0
  O  O33  1  0.00000000  0.74882000  0.73689000  1.0
