# generated using pymatgen
data_Li8Sc8Ge8Pd8CO
_symmetry_space_group_name_H-M   P1
_cell_length_a   6.30999000
_cell_length_b   8.92368000
_cell_length_c   26.69280000
_cell_angle_alpha   90.00000000
_cell_angle_beta   90.00000000
_cell_angle_gamma   90.00000000
_symmetry_Int_Tables_number   1
_chemical_formula_structural   Li8Sc8Ge8Pd8CO
_chemical_formula_sum   'Li8 Sc8 Ge8 Pd8 C1 O1'
_cell_volume   1503.02703275
_cell_formula_units_Z   1
loop_
 _symmetry_equiv_pos_site_id
 _symmetry_equiv_pos_as_xyz
  1  'x, y, z'
loop_
 _atom_site_type_symbol
 _atom_site_label
 _atom_site_symmetry_multiplicity
 _atom_site_fract_x
 _atom_site_fract_y
 _atom_site_fract_z
 _atom_site_occupancy
  Li  Li0  1  0.24361000  0.74957000  0.04445000  1.0
  Li  Li1  1  0.24372000  0.25054000  0.04444000  1.0
  Li  Li2  1  0.25000000  0.25000000  0.87463000  1.0
  Li  Li3  1  0.25000000  0.75000000  0.87463000  1.0
  Li  Li4  1  0.57954000  0.49998000  0.17452000  1.0
  Li  Li5  1  0.59203000  0.99999000  0.17261000  1.0
  Li  Li6  1  0.75000000  0.00000000  0.95821000  1.0
  Li  Li7  1  0.75000000  0.50000000  0.95821000  1.0
  Sc  Sc8  1  0.00000000  0.25000000  0.95821000  1.0
  Sc  Sc9  1  0.00000000  0.75000000  0.95821000  1.0
  Sc  Sc10  1  0.50000000  0.00000000  0.87463000  1.0
  Sc  Sc11  1  0.50000000  0.50000000  0.87463000  1.0
  Sc  Sc12  1  0.50308000  0.00002000  0.04836000  1.0
  Sc  Sc13  1  0.50860000  0.50010000  0.04663000  1.0
  Sc  Sc14  1  0.95707000  0.74335000  0.12467000  1.0
  Sc  Sc15  1  0.95708000  0.25668000  0.12466000  1.0
  Ge  Ge16  1  0.00000000  0.00000000  0.87463000  1.0
  Ge  Ge17  1  0.00000000  0.50000000  0.87463000  1.0
  Ge  Ge18  1  0.49473000  0.25130000  0.12518000  1.0
  Ge  Ge19  1  0.49474000  0.74869000  0.12517000  1.0
  Ge  Ge20  1  0.50000000  0.25000000  0.95821000  1.0
  Ge  Ge21  1  0.50000000  0.75000000  0.95821000  1.0
  Ge  Ge22  1  0.98905000  0.50002000  0.04139000  1.0
  Ge  Ge23  1  0.99975000  0.00011000  0.04218000  1.0
  Pd  Pd24  1  0.21134000  0.99999000  0.13028000  1.0
  Pd  Pd25  1  0.22553000  0.49996000  0.12062000  1.0
  Pd  Pd26  1  0.25000000  0.00000000  0.95821000  1.0
  Pd  Pd27  1  0.25000000  0.50000000  0.95821000  1.0
  Pd  Pd28  1  0.74960000  0.24847000  0.03937000  1.0
  Pd  Pd29  1  0.74976000  0.75167000  0.03936000  1.0
  Pd  Pd30  1  0.75000000  0.25000000  0.87463000  1.0
  Pd  Pd31  1  0.75000000  0.75000000  0.87463000  1.0
  C  C32  1  0.09507000  0.99997000  0.19740000  1.0
  O  O33  1  0.05036000  0.00002000  0.23998000  1.0
