# generated using pymatgen
data_Ca8Pb8CO
_symmetry_space_group_name_H-M   'P 1'
_cell_length_a   7.36738000
_cell_length_b   7.36738000
_cell_length_c   26.89040000
_cell_angle_alpha   90.00000000
_cell_angle_beta   90.00000000
_cell_angle_gamma   90.00000000
_symmetry_Int_Tables_number   1
_chemical_formula_structural   Ca8Pb8CO
_chemical_formula_sum   'Ca8 Pb8 C1 O1'
_cell_volume   1459.56487737
_cell_formula_units_Z   1
loop_
 _symmetry_equiv_pos_site_id
 _symmetry_equiv_pos_as_xyz
  1  'x, y, z'
loop_
 _atom_site_type_symbol
 _atom_site_label
 _atom_site_symmetry_multiplicity
 _atom_site_fract_x
 _atom_site_fract_y
 _atom_site_fract_z
 _atom_site_occupancy
  Ca  Ca0  1  0.00000000  0.00000000  0.84302000  1.0
  Ca  Ca1  1  0.99604000  0.99800000  0.01210000  1.0
  Ca  Ca2  1  0.00000000  0.50000000  0.84302000  1.0
  Ca  Ca3  1  0.99640000  0.50417000  0.01726000  1.0
  Ca  Ca4  1  0.50000000  0.00000000  0.84302000  1.0
  Ca  Ca5  1  0.50224000  0.99690000  0.00478000  1.0
  Ca  Ca6  1  0.50000000  0.50000000  0.84302000  1.0
  Ca  Ca7  1  0.50367000  0.50464000  0.01051000  1.0
  Pb  Pb8  1  0.25000000  0.25000000  0.92843000  1.0
  Pb  Pb9  1  0.26588000  0.23959000  0.08535000  1.0
  Pb  Pb10  1  0.25000000  0.75000000  0.92843000  1.0
  Pb  Pb11  1  0.28438000  0.77555000  0.10585000  1.0
  Pb  Pb12  1  0.75000000  0.25000000  0.92843000  1.0
  Pb  Pb13  1  0.71393000  0.21889000  0.10562000  1.0
  Pb  Pb14  1  0.75000000  0.75000000  0.92843000  1.0
  Pb  Pb15  1  0.72835000  0.76997000  0.09711000  1.0
  C  C16  1  0.22345000  0.25428000  0.22246000  1.0
  O  O17  1  0.26606000  0.23969000  0.26285000  1.0
