data_image0
_chemical_formula_structural       Li4Ge4Pd4Pb4CO
_chemical_formula_sum              "Li4 Ge4 Pd4 Pb4 C1 O1"
_cell_length_a       6.74945
_cell_length_b       6.74945
_cell_length_c       25.0621
_cell_angle_alpha    90
_cell_angle_beta     90
_cell_angle_gamma    90

_space_group_name_H-M_alt    "P 1"
_space_group_IT_number       1

loop_
  _space_group_symop_operation_xyz
  'x, y, z'

loop_
  _atom_site_type_symbol
  _atom_site_label
  _atom_site_symmetry_multiplicity
  _atom_site_fract_x
  _atom_site_fract_y
  _atom_site_fract_z
  _atom_site_occupancy
  Li  Li1       1.0  0.25000  0.25000  0.96634  1.0000
  Li  Li2       1.0  0.24726  0.74618  0.09605  1.0000
  Li  Li3       1.0  0.74617  0.24724  0.09605  1.0000
  Li  Li4       1.0  0.75000  0.75000  0.96634  1.0000
  Ge  Ge1       1.0  0.00000  0.00000  0.89901  1.0000
  Ge  Ge2       1.0  0.99715  0.50099  0.02916  1.0000
  Ge  Ge3       1.0  0.50100  0.99716  0.02916  1.0000
  Ge  Ge4       1.0  0.50000  0.50000  0.89901  1.0000
  Pd  Pd1       1.0  0.75000  0.25000  0.96634  1.0000
  Pd  Pd2       1.0  0.75019  0.75022  0.07596  1.0000
  Pd  Pd3       1.0  0.25132  0.25130  0.09573  1.0000
  Pd  Pd4       1.0  0.25000  0.75000  0.96634  1.0000
  Pb  Pb1       1.0  0.00000  0.50000  0.89901  1.0000
  Pb  Pb2       1.0  0.01046  0.01047  0.02841  1.0000
  Pb  Pb3       1.0  0.49059  0.49062  0.02795  1.0000
  Pb  Pb4       1.0  0.50000  0.00000  0.89901  1.0000
  C   C1        1.0  0.25180  0.25179  0.17270  1.0000
  O   O1        1.0  0.25172  0.25172  0.21887  1.0000
