# generated using pymatgen
data_Li4Ge4Pd4Pb4CO
_symmetry_space_group_name_H-M   'P 1'
_cell_length_a   6.74945000
_cell_length_b   6.74945000
_cell_length_c   25.06210000
_cell_angle_alpha   90.00000000
_cell_angle_beta   90.00000000
_cell_angle_gamma   90.00000000
_symmetry_Int_Tables_number   1
_chemical_formula_structural   Li4Ge4Pd4Pb4CO
_chemical_formula_sum   'Li4 Ge4 Pd4 Pb4 C1 O1'
_cell_volume   1141.70585274
_cell_formula_units_Z   1
loop_
 _symmetry_equiv_pos_site_id
 _symmetry_equiv_pos_as_xyz
  1  'x, y, z'
loop_
 _atom_site_type_symbol
 _atom_site_label
 _atom_site_symmetry_multiplicity
 _atom_site_fract_x
 _atom_site_fract_y
 _atom_site_fract_z
 _atom_site_occupancy
  Li  Li0  1  0.24999500  0.75000500  0.03366000  1
  Li  Li1  1  0.74618000  0.75275000  0.90395000  1
  Li  Li2  1  0.24725000  0.25382000  0.90395000  1
  Li  Li3  1  0.74999500  0.25000500  0.03366000  1
  Ge  Ge4  1  0.99999500  0.00000500  0.10099000  1
  Ge  Ge5  1  0.50099000  0.00286000  0.97084000  1
  Ge  Ge6  1  0.99714000  0.49901000  0.97084000  1
  Ge  Ge7  1  0.49999500  0.50000500  0.10099000  1
  Pd  Pd8  1  0.25000000  0.25001000  0.03366000  1
  Pd  Pd9  1  0.75020000  0.24980000  0.92404000  1
  Pd  Pd10  1  0.25130500  0.74869500  0.90427000  1
  Pd  Pd11  1  0.74999000  0.75000000  0.03366000  1
  Pb  Pb12  1  0.50000000  0.00001000  0.10099000  1
  Pb  Pb13  1  0.01046000  0.98954000  0.97159000  1
  Pb  Pb14  1  0.49060000  0.50940000  0.97205000  1
  Pb  Pb15  1  0.99999000  0.50000000  0.10099000  1
  C  C16  1  0.25179000  0.74821000  0.82730000  1
  O  O17  1  0.25171500  0.74828500  0.78113000  1
