# generated using pymatgen
data_Li4Ge4Pd4Pb4CO
_symmetry_space_group_name_H-M   Cm
_cell_length_a   9.54516373
_cell_length_b   9.54516373
_cell_length_c   25.06210000
_cell_angle_alpha   90.00000000
_cell_angle_beta   90.00000000
_cell_angle_gamma   90.00000000
_symmetry_Int_Tables_number   8
_chemical_formula_structural   Li4Ge4Pd4Pb4CO
_chemical_formula_sum   'Li8 Ge8 Pd8 Pb8 C2 O2'
_cell_volume   2283.41170548
_cell_formula_units_Z   2
loop_
 _symmetry_equiv_pos_site_id
 _symmetry_equiv_pos_as_xyz
  1  'x, y, z'
  2  'x, -y, z'
  3  'x+1/2, y+1/2, z'
  4  'x+1/2, -y+1/2, z'
loop_
 _atom_site_type_symbol
 _atom_site_label
 _atom_site_symmetry_multiplicity
 _atom_site_fract_x
 _atom_site_fract_y
 _atom_site_fract_z
 _atom_site_occupancy
  Li  Li0  4  0.49671500  0.24946500  0.09605000  1.0
  Li  Li1  2  0.24999500  0.00000000  0.96634000  1.0
  Li  Li2  2  0.24999500  0.50000000  0.96634000  1.0
  Ge  Ge3  4  0.24906500  0.25192500  0.02916000  1.0
  Ge  Ge4  2  0.49999500  0.50000000  0.89901000  1.0
  Ge  Ge5  2  0.49999500  0.00000000  0.89901000  1.0
  Pd  Pd6  4  0.49999500  0.24999500  0.96634000  1.0
  Pd  Pd7  2  0.25020000  0.50000000  0.07596000  1.0
  Pd  Pd8  2  0.25130500  0.00000000  0.09573000  1.0
  Pb  Pb9  4  0.24999500  0.25000500  0.89901000  1.0
  Pb  Pb10  2  0.01046000  0.00000000  0.02841000  1.0
  Pb  Pb11  2  0.49060000  0.00000000  0.02795000  1.0
  C  C12  2  0.25179000  0.00000000  0.17270000  1.0
  O  O13  2  0.25171500  0.00000000  0.21887000  1.0
