# generated using pymatgen
data_Nb12Si4CO
_symmetry_space_group_name_H-M   'P 1'
_cell_length_a   5.75970000
_cell_length_b   8.14544000
_cell_length_c   24.31980000
_cell_angle_alpha   90.00000000
_cell_angle_beta   90.00000000
_cell_angle_gamma   90.00000000
_symmetry_Int_Tables_number   1
_chemical_formula_structural   Nb12Si4CO
_chemical_formula_sum   'Nb12 Si4 C1 O1'
_cell_volume   1140.97048842
_cell_formula_units_Z   1
loop_
 _symmetry_equiv_pos_site_id
 _symmetry_equiv_pos_as_xyz
  1  'x, y, z'
loop_
 _atom_site_type_symbol
 _atom_site_label
 _atom_site_symmetry_multiplicity
 _atom_site_fract_x
 _atom_site_fract_y
 _atom_site_fract_z
 _atom_site_occupancy
  Nb  Nb0  1  0.50000000  0.00000000  0.91588000  1.0
  Nb  Nb1  1  0.75029000  0.25048000  0.96817000  1.0
  Nb  Nb2  1  0.24971000  0.25048000  0.96817000  1.0
  Nb  Nb3  1  0.00000000  0.00000000  0.02960000  1.0
  Nb  Nb4  1  0.25000000  0.25000000  0.08881000  1.0
  Nb  Nb5  1  0.75000000  0.25000000  0.08881000  1.0
  Nb  Nb6  1  0.50000000  0.50000000  0.91865000  1.0
  Nb  Nb7  1  0.75029000  0.74952000  0.96817000  1.0
  Nb  Nb8  1  0.24971000  0.74952000  0.96817000  1.0
  Nb  Nb9  1  0.00000000  0.50000000  0.02960000  1.0
  Nb  Nb10  1  0.25000000  0.75000000  0.08881000  1.0
  Nb  Nb11  1  0.75000000  0.75000000  0.08881000  1.0
  Si  Si12  1  0.00000000  0.00000000  0.91844000  1.0
  Si  Si13  1  0.50000000  0.00000000  0.02960000  1.0
  Si  Si14  1  0.00000000  0.50000000  0.91836000  1.0
  Si  Si15  1  0.50000000  0.50000000  0.02960000  1.0
  C  C16  1  0.50000000  0.00000000  0.82606000  1.0
  O  O17  1  0.50000000  0.00000000  0.77877000  1.0
