# generated using pymatgen
data_Ga8Fe16Ni8CO
_symmetry_space_group_name_H-M   'P 1'
_cell_length_a   8.22225000
_cell_length_b   5.81401000
_cell_length_c   26.16670000
_cell_angle_alpha   90.00000000
_cell_angle_beta   90.00000000
_cell_angle_gamma   90.00000000
_symmetry_Int_Tables_number   1
_chemical_formula_structural   Ga8Fe16Ni8CO
_chemical_formula_sum   'Ga8 Fe16 Ni8 C1 O1'
_cell_volume   1250.87930421
_cell_formula_units_Z   1
loop_
 _symmetry_equiv_pos_site_id
 _symmetry_equiv_pos_as_xyz
  1  'x, y, z'
loop_
 _atom_site_type_symbol
 _atom_site_label
 _atom_site_symmetry_multiplicity
 _atom_site_fract_x
 _atom_site_fract_y
 _atom_site_fract_z
 _atom_site_occupancy
  Ga  Ga0  1  0.00000000  0.00000000  0.11783000  1.0
  Ga  Ga1  1  0.25000000  0.50000000  0.03928000  1.0
  Ga  Ga2  1  0.75000000  0.50000000  0.03928000  1.0
  Ga  Ga3  1  0.50000000  0.00000000  0.11783000  1.0
  Ga  Ga4  1  0.52035000  0.00000000  0.96101000  1.0
  Ga  Ga5  1  0.74994000  0.50000000  0.85677000  1.0
  Ga  Ga6  1  0.24996000  0.50000000  0.87356000  1.0
  Ga  Ga7  1  0.97981000  0.00000000  0.96099000  1.0
  Fe  Fe8  1  0.00000000  0.74999000  0.03928000  1.0
  Fe  Fe9  1  0.50000000  0.24999000  0.03928000  1.0
  Fe  Fe10  1  0.00000000  0.25001000  0.03928000  1.0
  Fe  Fe11  1  0.50000000  0.75001000  0.03928000  1.0
  Fe  Fe12  1  0.75000000  0.24999000  0.11783000  1.0
  Fe  Fe13  1  0.25000000  0.74999000  0.11783000  1.0
  Fe  Fe14  1  0.75000000  0.75001000  0.11783000  1.0
  Fe  Fe15  1  0.25000000  0.25001000  0.11783000  1.0
  Fe  Fe16  1  0.50801000  0.72229000  0.88636000  1.0
  Fe  Fe17  1  0.99191000  0.27775000  0.88634000  1.0
  Fe  Fe18  1  0.50801000  0.27771000  0.88636000  1.0
  Fe  Fe19  1  0.99191000  0.72225000  0.88634000  1.0
  Fe  Fe20  1  0.25011000  0.21796000  0.95636000  1.0
  Fe  Fe21  1  0.75006000  0.70660000  0.95333000  1.0
  Fe  Fe22  1  0.25011000  0.78204000  0.95636000  1.0
  Fe  Fe23  1  0.75006000  0.29340000  0.95333000  1.0
  Ni  Ni24  1  0.75000000  0.00000000  0.03928000  1.0
  Ni  Ni25  1  0.00000000  0.50000000  0.11783000  1.0
  Ni  Ni26  1  0.25000000  0.00000000  0.03928000  1.0
  Ni  Ni27  1  0.50000000  0.50000000  0.11783000  1.0
  Ni  Ni28  1  0.24990000  0.00000000  0.87309000  1.0
  Ni  Ni29  1  0.46969000  0.50000000  0.96693000  1.0
  Ni  Ni30  1  0.74996000  0.00000000  0.88724000  1.0
  Ni  Ni31  1  0.03049000  0.50000000  0.96690000  1.0
  C  C32  1  0.24988000  0.00000000  0.80536000  1.0
  O  O33  1  0.24996000  0.00000000  0.76120000  1.0
