# generated using pymatgen
data_Nb16Ru16C
_symmetry_space_group_name_H-M   'P 1'
_cell_length_a   6.35921000
_cell_length_b   8.99329000
_cell_length_c   26.74500000
_cell_angle_alpha   90.00000000
_cell_angle_beta   90.00000000
_cell_angle_gamma   90.00000000
_symmetry_Int_Tables_number   1
_chemical_formula_structural   Nb16Ru16C
_chemical_formula_sum   'Nb16 Ru16 C1'
_cell_volume   1529.55242590
_cell_formula_units_Z   1
loop_
 _symmetry_equiv_pos_site_id
 _symmetry_equiv_pos_as_xyz
  1  'x, y, z'
loop_
 _atom_site_type_symbol
 _atom_site_label
 _atom_site_symmetry_multiplicity
 _atom_site_fract_x
 _atom_site_fract_y
 _atom_site_fract_z
 _atom_site_occupancy
  Nb  Nb0  1  0.75000000  0.75001000  0.87390000  1.0
  Nb  Nb1  1  0.75000000  0.00000000  0.95797000  1.0
  Nb  Nb2  1  0.74917000  0.75096000  0.04463000  1.0
  Nb  Nb3  1  0.74775000  0.00000000  0.13153000  1.0
  Nb  Nb4  1  0.75000000  0.24999000  0.87390000  1.0
  Nb  Nb5  1  0.75000000  0.50000000  0.95797000  1.0
  Nb  Nb6  1  0.74917000  0.24904000  0.04463000  1.0
  Nb  Nb7  1  0.74940000  0.50000000  0.13107000  1.0
  Nb  Nb8  1  0.25000000  0.75001000  0.87390000  1.0
  Nb  Nb9  1  0.25000000  0.00000000  0.95797000  1.0
  Nb  Nb10  1  0.25083000  0.75096000  0.04463000  1.0
  Nb  Nb11  1  0.25225000  0.00000000  0.13153000  1.0
  Nb  Nb12  1  0.25000000  0.24999000  0.87390000  1.0
  Nb  Nb13  1  0.25000000  0.50000000  0.95797000  1.0
  Nb  Nb14  1  0.25083000  0.24904000  0.04463000  1.0
  Nb  Nb15  1  0.25060000  0.50000000  0.13107000  1.0
  Ru  Ru16  1  0.00000000  0.00000000  0.87390000  1.0
  Ru  Ru17  1  0.00000000  0.75001000  0.95797000  1.0
  Ru  Ru18  1  0.00000000  0.00000000  0.04339000  1.0
  Ru  Ru19  1  0.00000000  0.72903000  0.12171000  1.0
  Ru  Ru20  1  0.00000000  0.50000000  0.87390000  1.0
  Ru  Ru21  1  0.00000000  0.24999000  0.95797000  1.0
  Ru  Ru22  1  0.00000000  0.50000000  0.04574000  1.0
  Ru  Ru23  1  0.00000000  0.27097000  0.12171000  1.0
  Ru  Ru24  1  0.50000000  0.00000000  0.87390000  1.0
  Ru  Ru25  1  0.50000000  0.75001000  0.95797000  1.0
  Ru  Ru26  1  0.50000000  0.00000000  0.03876000  1.0
  Ru  Ru27  1  0.50000000  0.75056000  0.11974000  1.0
  Ru  Ru28  1  0.50000000  0.50000000  0.87390000  1.0
  Ru  Ru29  1  0.50000000  0.24999000  0.95797000  1.0
  Ru  Ru30  1  0.50000000  0.50000000  0.04439000  1.0
  Ru  Ru31  1  0.50000000  0.24944000  0.11974000  1.0
  C  C32  1  0.00000000  0.00000000  0.17390000  1.0
