# generated using pymatgen
data_Pb16CO
_symmetry_space_group_name_H-M   'P 1'
_cell_length_a   8.09136000
_cell_length_b   8.09136000
_cell_length_c   26.06850000
_cell_angle_alpha   90.00000000
_cell_angle_beta   90.00000000
_cell_angle_gamma   90.00000000
_symmetry_Int_Tables_number   1
_chemical_formula_structural   Pb16CO
_chemical_formula_sum   'Pb16 C1 O1'
_cell_volume   1706.70747520
_cell_formula_units_Z   1
loop_
 _symmetry_equiv_pos_site_id
 _symmetry_equiv_pos_as_xyz
  1  'x, y, z'
loop_
 _atom_site_type_symbol
 _atom_site_label
 _atom_site_symmetry_multiplicity
 _atom_site_fract_x
 _atom_site_fract_y
 _atom_site_fract_z
 _atom_site_occupancy
  Pb  Pb0  1  0.00000000  0.49999000  0.11640000  1
  Pb  Pb1  1  0.24999500  0.24999500  0.03880000  1
  Pb  Pb2  1  0.97506000  0.52496000  0.94839000  1
  Pb  Pb3  1  0.25000500  0.25000500  0.89948000  1
  Pb  Pb4  1  0.99999500  0.99999500  0.11640000  1
  Pb  Pb5  1  0.25000000  0.74999000  0.03880000  1
  Pb  Pb6  1  0.97506500  0.97506500  0.94840000  1
  Pb  Pb7  1  0.24999000  0.75000000  0.87746000  1
  Pb  Pb8  1  0.49999500  0.49999500  0.11640000  1
  Pb  Pb9  1  0.74999000  0.25000000  0.03880000  1
  Pb  Pb10  1  0.52494000  0.52494000  0.94841000  1
  Pb  Pb11  1  0.75000000  0.24999000  0.87746000  1
  Pb  Pb12  1  0.49999000  1.00000000  0.11640000  1
  Pb  Pb13  1  0.74999500  0.74999500  0.03880000  1
  Pb  Pb14  1  0.52496000  0.97506000  0.94839000  1
  Pb  Pb15  1  0.75000000  0.75000000  0.86123000  1
  C  C16  1  0.24988000  0.24988000  0.74261000  1
  O  O17  1  0.25001000  0.25001000  0.69911000  1
