# generated using pymatgen
data_Pb16CO
_symmetry_space_group_name_H-M   Cm
_cell_length_a   11.44291105
_cell_length_b   11.44291105
_cell_length_c   26.06850000
_cell_angle_alpha   90.00000000
_cell_angle_beta   90.00000000
_cell_angle_gamma   90.00000000
_symmetry_Int_Tables_number   8
_chemical_formula_structural   Pb16CO
_chemical_formula_sum   'Pb32 C2 O2'
_cell_volume   3413.41495039
_cell_formula_units_Z   2
loop_
 _symmetry_equiv_pos_site_id
 _symmetry_equiv_pos_as_xyz
  1  'x, y, z'
  2  'x, -y, z'
  3  'x+1/2, y+1/2, z'
  4  'x+1/2, -y+1/2, z'
loop_
 _atom_site_type_symbol
 _atom_site_label
 _atom_site_symmetry_multiplicity
 _atom_site_fract_x
 _atom_site_fract_y
 _atom_site_fract_z
 _atom_site_occupancy
  Pb  Pb0  4  0.24999500  0.24999500  0.88360000  1.0
  Pb  Pb1  4  0.25001000  0.27495000  0.05161000  1.0
  Pb  Pb2  4  0.49999500  0.24999500  0.96120000  1.0
  Pb  Pb3  4  0.49999500  0.25000500  0.12254000  1.0
  Pb  Pb4  2  0.02494000  0.50000000  0.05159000  1.0
  Pb  Pb5  2  0.24999500  0.50000000  0.96120000  1.0
  Pb  Pb6  2  0.24999500  0.00000000  0.96120000  1.0
  Pb  Pb7  2  0.25000000  0.50000000  0.13877000  1.0
  Pb  Pb8  2  0.25000500  0.00000000  0.10052000  1.0
  Pb  Pb9  2  0.47506500  0.50000000  0.05160000  1.0
  Pb  Pb10  2  0.49999500  0.00000000  0.88360000  1.0
  Pb  Pb11  2  0.49999500  0.50000000  0.88360000  1.0
  C  C12  2  0.24988000  0.00000000  0.25739000  1.0
  O  O13  2  0.25001000  0.00000000  0.30089000  1.0
