# generated using pymatgen
data_Li8Mg4Pb4CO
_symmetry_space_group_name_H-M   'P 1'
_cell_length_a   6.88544000
_cell_length_b   6.88544000
_cell_length_c   25.16410000
_cell_angle_alpha   90.00000000
_cell_angle_beta   90.00000000
_cell_angle_gamma   90.00000000
_symmetry_Int_Tables_number   1
_chemical_formula_structural   Li8Mg4Pb4CO
_chemical_formula_sum   'Li8 Mg4 Pb4 C1 O1'
_cell_volume   1193.01196334
_cell_formula_units_Z   1
loop_
 _symmetry_equiv_pos_site_id
 _symmetry_equiv_pos_as_xyz
  1  'x, y, z'
loop_
 _atom_site_type_symbol
 _atom_site_label
 _atom_site_symmetry_multiplicity
 _atom_site_fract_x
 _atom_site_fract_y
 _atom_site_fract_z
 _atom_site_occupancy
  Li  Li0  1  0.25274000  0.25283000  0.03376000  1.0
  Li  Li1  1  0.75000000  0.75000000  0.89739000  1.0
  Li  Li2  1  0.74719000  0.25290000  0.03378000  1.0
  Li  Li3  1  0.25000000  0.75000000  0.89739000  1.0
  Li  Li4  1  0.74720000  0.74709000  0.03378000  1.0
  Li  Li5  1  0.25000000  0.25000000  0.89739000  1.0
  Li  Li6  1  0.25274000  0.74715000  0.03376000  1.0
  Li  Li7  1  0.75000000  0.25000000  0.89739000  1.0
  Mg  Mg8  1  0.99980000  0.00002000  0.10230000  1.0
  Mg  Mg9  1  0.50008000  0.49996000  0.10789000  1.0
  Mg  Mg10  1  0.50000000  0.00000000  0.96580000  1.0
  Mg  Mg11  1  0.00000000  0.50000000  0.96580000  1.0
  Pb  Pb12  1  0.00000000  0.00000000  0.96580000  1.0
  Pb  Pb13  1  0.50039000  0.00000000  0.10463000  1.0
  Pb  Pb14  1  0.00083000  0.50007000  0.10501000  1.0
  Pb  Pb15  1  0.50000000  0.50000000  0.96580000  1.0
  C  C16  1  0.99990000  0.99998000  0.19210000  1.0
  O  O17  1  0.99974000  0.99993000  0.23744000  1.0
