# generated using pymatgen
data_ZnNi2Ge
_symmetry_space_group_name_H-M   'P 1'
_cell_length_a   4.17035316
_cell_length_b   4.17035316
_cell_length_c   24.42330000
_cell_angle_alpha   90.00000000
_cell_angle_beta   90.00000000
_cell_angle_gamma   90.00000000
_symmetry_Int_Tables_number   1
_chemical_formula_structural   ZnNi2Ge
_chemical_formula_sum   'Zn2 Ni4 Ge2'
_cell_volume   424.76625987
_cell_formula_units_Z   2
loop_
 _symmetry_equiv_pos_site_id
 _symmetry_equiv_pos_as_xyz
  1  'x, y, z'
loop_
 _atom_site_type_symbol
 _atom_site_label
 _atom_site_symmetry_multiplicity
 _atom_site_fract_x
 _atom_site_fract_y
 _atom_site_fract_z
 _atom_site_occupancy
  Zn  Zn0  1  0.00000000  0.00000000  0.90944000  1.0
  Zn  Zn1  1  0.50000000  0.50000000  0.03019000  1.0
  Ni  Ni2  1  0.50000000  0.00000000  0.96981000  1.0
  Ni  Ni3  1  0.50000000  0.00000000  0.09056000  1.0
  Ni  Ni4  1  0.00000000  0.50000000  0.96981000  1.0
  Ni  Ni5  1  0.00000000  0.50000000  0.09056000  1.0
  Ge  Ge6  1  0.00000000  0.00000000  0.03019000  1.0
  Ge  Ge7  1  0.50000000  0.50000000  0.90944000  1.0
