# generated using pymatgen
data_ScGaGePd
_symmetry_space_group_name_H-M   Pmm2
_cell_length_a   3.91859000
_cell_length_b   4.04333000
_cell_length_c   26.43810000
_cell_angle_alpha   90.00000000
_cell_angle_beta   90.00000000
_cell_angle_gamma   90.00000000
_symmetry_Int_Tables_number   25
_chemical_formula_structural   ScGaGePd
_chemical_formula_sum   'Sc2 Ga2 Ge2 Pd2'
_cell_volume   418.88928833
_cell_formula_units_Z   2
loop_
 _symmetry_equiv_pos_site_id
 _symmetry_equiv_pos_as_xyz
  1  'x, y, z'
  2  '-x, -y, z'
  3  '-x, y, z'
  4  'x, -y, z'
loop_
 _atom_site_type_symbol
 _atom_site_label
 _atom_site_symmetry_multiplicity
 _atom_site_fract_x
 _atom_site_fract_y
 _atom_site_fract_z
 _atom_site_occupancy
  Sc  Sc0  1  0.00000000  0.50000000  0.12500000  1.0
  Sc  Sc1  1  0.00000000  0.50000000  0.95941000  1.0
  Ga  Ga2  1  0.00000000  0.00000000  0.04279500  1.0
  Ga  Ga3  1  0.00000000  0.00000000  0.87824000  1.0
  Ge  Ge4  1  0.50000000  0.00000000  0.12111000  1.0
  Ge  Ge5  1  0.50000000  0.00000000  0.95941000  1.0
  Pd  Pd6  1  0.50000000  0.50000000  0.04563000  1.0
  Pd  Pd7  1  0.50000000  0.50000000  0.87824000  1.0
