# generated using pymatgen
data_Y8In8Sn8Pd8C
_symmetry_space_group_name_H-M   Pmm2
_cell_length_a   8.73372000
_cell_length_b   9.06394000
_cell_length_c   26.87300000
_cell_angle_alpha   90.00000000
_cell_angle_beta   90.00000000
_cell_angle_gamma   90.00000000
_symmetry_Int_Tables_number   25
_chemical_formula_structural   Y8In8Sn8Pd8C
_chemical_formula_sum   'Y8 In8 Sn8 Pd8 C1'
_cell_volume   2127.31811645
_cell_formula_units_Z   1
loop_
 _symmetry_equiv_pos_site_id
 _symmetry_equiv_pos_as_xyz
  1  'x, y, z'
  2  '-x, -y, z'
  3  '-x, y, z'
  4  'x, -y, z'
loop_
 _atom_site_type_symbol
 _atom_site_label
 _atom_site_symmetry_multiplicity
 _atom_site_fract_x
 _atom_site_fract_y
 _atom_site_fract_z
 _atom_site_occupancy
  Y  Y0  2  0.00000000  0.25000000  0.95737000  1.0
  Y  Y1  2  0.00000000  0.25366000  0.13066000  1.0
  Y  Y2  2  0.50000000  0.25000000  0.95737000  1.0
  Y  Y3  2  0.50000000  0.25254000  0.12831000  1.0
  In  In4  1  0.00000000  0.00000000  0.04604000  1.0
  In  In5  1  0.00000000  0.00000000  0.87212000  1.0
  In  In6  1  0.00000000  0.50000000  0.04450000  1.0
  In  In7  1  0.00000000  0.50000000  0.87212000  1.0
  In  In8  1  0.50000000  0.00000000  0.04521000  1.0
  In  In9  1  0.50000000  0.00000000  0.87212000  1.0
  In  In10  1  0.50000000  0.50000000  0.04349000  1.0
  In  In11  1  0.50000000  0.50000000  0.87212000  1.0
  Sn  Sn12  2  0.25000000  0.00000000  0.95737000  1.0
  Sn  Sn13  2  0.25000000  0.50000000  0.95737000  1.0
  Sn  Sn14  2  0.25386000  0.50000000  0.12700000  1.0
  Sn  Sn15  2  0.25750000  0.00000000  0.13952000  1.0
  Pd  Pd16  4  0.24776000  0.25053000  0.04790000  1.0
  Pd  Pd17  4  0.25000000  0.25000000  0.87212000  1.0
  C  C18  1  0.00000000  0.00000000  0.13942000  1.0
