# generated using pymatgen
data_Li4Al4Ag4Sn4CO
_symmetry_space_group_name_H-M   Pm
_cell_length_a   5.91351000
_cell_length_b   8.66686000
_cell_length_c   24.43010000
_cell_angle_alpha   90.00000000
_cell_angle_beta   90.00000000
_cell_angle_gamma   90.00000000
_symmetry_Int_Tables_number   6
_chemical_formula_structural   Li4Al4Ag4Sn4CO
_chemical_formula_sum   'Li4 Al4 Ag4 Sn4 C1 O1'
_cell_volume   1252.08081605
_cell_formula_units_Z   1
loop_
 _symmetry_equiv_pos_site_id
 _symmetry_equiv_pos_as_xyz
  1  'x, y, z'
  2  'x, -y, z'
loop_
 _atom_site_type_symbol
 _atom_site_label
 _atom_site_symmetry_multiplicity
 _atom_site_fract_x
 _atom_site_fract_y
 _atom_site_fract_z
 _atom_site_occupancy
  Li  Li0  1  0.52019000  0.00000000  0.08930000  1.0
  Li  Li1  1  0.52521000  0.50000000  0.08521000  1.0
  Li  Li2  1  0.97614000  0.00000000  0.96978000  1.0
  Li  Li3  1  0.97614000  0.50000000  0.96978000  1.0
  Al  Al4  2  0.26205000  0.24818000  0.02981000  1.0
  Al  Al5  2  0.71421000  0.25000000  0.90933000  1.0
  Ag  Ag6  1  0.05415000  0.00000000  0.07554000  1.0
  Ag  Ag7  1  0.05951000  0.50000000  0.07398000  1.0
  Ag  Ag8  1  0.47614000  0.00000000  0.96978000  1.0
  Ag  Ag9  1  0.47614000  0.50000000  0.96978000  1.0
  Sn  Sn10  2  0.21421000  0.25000000  0.90933000  1.0
  Sn  Sn11  2  0.75037000  0.24873000  0.03327000  1.0
  C  C12  1  0.49467000  0.00000000  0.17440000  1.0
  O  O13  1  0.47814000  0.00000000  0.22095000  1.0
