# generated using pymatgen
data_Ni3Sb
_symmetry_space_group_name_H-M   Pmmn
_cell_length_a   4.21525500
_cell_length_b   5.96127000
_cell_length_c   26.32290000
_cell_angle_alpha   90.00000000
_cell_angle_beta   90.00000000
_cell_angle_gamma   90.00000000
_symmetry_Int_Tables_number   59
_chemical_formula_structural   Ni3Sb
_chemical_formula_sum   'Ni12 Sb4'
_cell_volume   661.44902193
_cell_formula_units_Z   4
loop_
 _symmetry_equiv_pos_site_id
 _symmetry_equiv_pos_as_xyz
  1  'x, y, z'
  2  '-x, -y, z'
  3  'x+1/2, -y+1/2, -z'
  4  '-x+1/2, y+1/2, -z'
  5  '-x+1/2, -y+1/2, -z'
  6  'x+1/2, y+1/2, -z'
  7  '-x, y, z'
  8  'x, -y, z'
loop_
 _atom_site_type_symbol
 _atom_site_label
 _atom_site_symmetry_multiplicity
 _atom_site_fract_x
 _atom_site_fract_y
 _atom_site_fract_z
 _atom_site_occupancy
  Ni  Ni0  4  0.00000000  0.25000000  0.04003000  1.0
  Ni  Ni1  4  0.00000000  0.25000000  0.87990000  1.0
  Ni  Ni2  2  0.00000000  0.50000000  0.12010000  1.0
  Ni  Ni3  2  0.00000000  0.50000000  0.95997000  1.0
  Sb  Sb4  2  0.00000000  0.00000000  0.12010000  1.0
  Sb  Sb5  2  0.00000000  0.00000000  0.95997000  1.0
