data_image0
_chemical_formula_structural       Li4In4Cu4Au4CO
_chemical_formula_sum              "Li4 In4 Cu4 Au4 C1 O1"
_cell_length_a       6.41124
_cell_length_b       6.41124
_cell_length_c       24.8084
_cell_angle_alpha    90
_cell_angle_beta     90
_cell_angle_gamma    90

_space_group_name_H-M_alt    "P 1"
_space_group_IT_number       1

loop_
  _space_group_symop_operation_xyz
  'x, y, z'

loop_
  _atom_site_type_symbol
  _atom_site_label
  _atom_site_symmetry_multiplicity
  _atom_site_fract_x
  _atom_site_fract_y
  _atom_site_fract_z
  _atom_site_occupancy
  Li  Li1       1.0  0.73387  0.23401  0.03639  1.0000
  Li  Li2       1.0  0.75000  0.75000  0.90309  1.0000
  Li  Li3       1.0  0.25000  0.25000  0.90309  1.0000
  Li  Li4       1.0  0.26559  0.76583  0.03652  1.0000
  In  In1       1.0  0.99998  0.49899  0.09973  1.0000
  In  In2       1.0  0.00000  0.00000  0.96770  1.0000
  In  In3       1.0  0.50000  0.50000  0.96770  1.0000
  In  In4       1.0  0.50005  0.00014  0.12017  1.0000
  Cu  Cu1       1.0  0.25818  0.24181  0.03390  1.0000
  Cu  Cu2       1.0  0.25000  0.75000  0.90309  1.0000
  Cu  Cu3       1.0  0.75000  0.25000  0.90309  1.0000
  Cu  Cu4       1.0  0.74217  0.75790  0.03393  1.0000
  Au  Au1       1.0  0.99977  0.00034  0.09325  1.0000
  Au  Au2       1.0  0.00000  0.50000  0.96770  1.0000
  Au  Au3       1.0  0.50000  0.00000  0.96770  1.0000
  Au  Au4       1.0  0.50005  0.49992  0.09323  1.0000
  C   C1        1.0  0.00060  0.49959  0.23400  1.0000
  O   O1        1.0  0.99990  0.50019  0.27975  1.0000
