# generated using pymatgen
data_Li4In4Cu4Au4CO
_symmetry_space_group_name_H-M   'P 1'
_cell_length_a   6.41124000
_cell_length_b   6.41124000
_cell_length_c   24.80840000
_cell_angle_alpha   90.00000000
_cell_angle_beta   90.00000000
_cell_angle_gamma   90.00000000
_symmetry_Int_Tables_number   1
_chemical_formula_structural   Li4In4Cu4Au4CO
_chemical_formula_sum   'Li4 In4 Cu4 Au4 C1 O1'
_cell_volume   1019.72443236
_cell_formula_units_Z   1
loop_
 _symmetry_equiv_pos_site_id
 _symmetry_equiv_pos_as_xyz
  1  'x, y, z'
loop_
 _atom_site_type_symbol
 _atom_site_label
 _atom_site_symmetry_multiplicity
 _atom_site_fract_x
 _atom_site_fract_y
 _atom_site_fract_z
 _atom_site_occupancy
  Li  Li0  1  0.26613000  0.76599000  0.03639000  1.0
  Li  Li1  1  0.25000000  0.25000000  0.90309000  1.0
  Li  Li2  1  0.75000000  0.75000000  0.90309000  1.0
  Li  Li3  1  0.73441000  0.23417000  0.03652000  1.0
  In  In4  1  0.00002000  0.50101000  0.09973000  1.0
  In  In5  1  0.00000000  0.00000000  0.96770000  1.0
  In  In6  1  0.50000000  0.50000000  0.96770000  1.0
  In  In7  1  0.49995000  0.99986000  0.12017000  1.0
  Cu  Cu8  1  0.74182000  0.75819000  0.03390000  1.0
  Cu  Cu9  1  0.75000000  0.25000000  0.90309000  1.0
  Cu  Cu10  1  0.25000000  0.75000000  0.90309000  1.0
  Cu  Cu11  1  0.25783000  0.24210000  0.03393000  1.0
  Au  Au12  1  0.00023000  0.99966000  0.09325000  1.0
  Au  Au13  1  0.00000000  0.50000000  0.96770000  1.0
  Au  Au14  1  0.50000000  0.00000000  0.96770000  1.0
  Au  Au15  1  0.49995000  0.50008000  0.09323000  1.0
  C  C16  1  0.99940000  0.50041000  0.23400000  1.0
  O  O17  1  0.00010000  0.49981000  0.27975000  1.0
