# generated using pymatgen
data_Li4Y4In4Sn4C
_symmetry_space_group_name_H-M   'P 1'
_cell_length_a   9.04200000
_cell_length_b   6.44949000
_cell_length_c   24.82990000
_cell_angle_alpha   90.00000000
_cell_angle_beta   90.00000000
_cell_angle_gamma   90.00000000
_symmetry_Int_Tables_number   1
_chemical_formula_structural   Li4Y4In4Sn4C
_chemical_formula_sum   'Li4 Y4 In4 Sn4 C1'
_cell_volume   1447.98761381
_cell_formula_units_Z   1
loop_
 _symmetry_equiv_pos_site_id
 _symmetry_equiv_pos_as_xyz
  1  'x, y, z'
loop_
 _atom_site_type_symbol
 _atom_site_label
 _atom_site_symmetry_multiplicity
 _atom_site_fract_x
 _atom_site_fract_y
 _atom_site_fract_z
 _atom_site_occupancy
  Li  Li0  1  0.00000000  0.25490000  0.97319000  1.0
  Li  Li1  1  0.00000000  0.70907000  0.09726000  1.0
  Li  Li2  1  0.50000000  0.25450000  0.96631000  1.0
  Li  Li3  1  0.50000000  0.70907000  0.09726000  1.0
  Y  Y4  1  0.79938000  0.52176000  0.89783000  1.0
  Y  Y5  1  0.75000000  0.97271000  0.03242000  1.0
  Y  Y6  1  0.20062000  0.52176000  0.89783000  1.0
  Y  Y7  1  0.25000000  0.97271000  0.03242000  1.0
  In  In8  1  0.82391000  0.02417000  0.87866000  1.0
  In  In9  1  0.75000000  0.47271000  0.03242000  1.0
  In  In10  1  0.17609000  0.02417000  0.87866000  1.0
  In  In11  1  0.25000000  0.47271000  0.03242000  1.0
  Sn  Sn12  1  0.00000000  0.77081000  0.97278000  1.0
  Sn  Sn13  1  0.00000000  0.20907000  0.09726000  1.0
  Sn  Sn14  1  0.50000000  0.74319000  0.96057000  1.0
  Sn  Sn15  1  0.50000000  0.20907000  0.09726000  1.0
  C  C16  1  0.00000000  0.31303000  0.88811000  1.0
