data_image0
_chemical_formula_structural       Mg16Au16C
_chemical_formula_sum              "Mg16 Au16 C1"
_cell_length_a       6.67495
_cell_length_b       9.4398
_cell_length_c       27.0799
_cell_angle_alpha    90
_cell_angle_beta     90
_cell_angle_gamma    90

_space_group_name_H-M_alt    "P 1"
_space_group_IT_number       1

loop_
  _space_group_symop_operation_xyz
  'x, y, z'

loop_
  _atom_site_type_symbol
  _atom_site_label
  _atom_site_symmetry_multiplicity
  _atom_site_fract_x
  _atom_site_fract_y
  _atom_site_fract_z
  _atom_site_occupancy
  Mg  Mg1       1.0  0.25000  0.25000  0.86928  1.0000
  Mg  Mg2       1.0  0.25000  0.50000  0.95643  1.0000
  Mg  Mg3       1.0  0.25081  0.25000  0.04841  1.0000
  Mg  Mg4       1.0  0.25100  0.01074  0.13159  1.0000
  Mg  Mg5       1.0  0.25000  0.75000  0.86928  1.0000
  Mg  Mg6       1.0  0.25000  0.00000  0.95643  1.0000
  Mg  Mg7       1.0  0.25047  0.75000  0.04249  1.0000
  Mg  Mg8       1.0  0.25100  0.48926  0.13159  1.0000
  Mg  Mg9       1.0  0.75000  0.25000  0.86928  1.0000
  Mg  Mg10      1.0  0.75000  0.50000  0.95643  1.0000
  Mg  Mg11      1.0  0.74964  0.25000  0.04453  1.0000
  Mg  Mg12      1.0  0.74970  0.98745  0.13081  1.0000
  Mg  Mg13      1.0  0.75000  0.75000  0.86928  1.0000
  Mg  Mg14      1.0  0.75000  0.00000  0.95643  1.0000
  Mg  Mg15      1.0  0.74948  0.75000  0.04430  1.0000
  Mg  Mg16      1.0  0.74970  0.51255  0.13081  1.0000
  Au  Au1       1.0  0.00000  0.00000  0.86928  1.0000
  Au  Au2       1.0  0.00000  0.25000  0.95643  1.0000
  Au  Au3       1.0  0.99973  0.99741  0.04135  1.0000
  Au  Au4       1.0  0.94929  0.25000  0.13801  1.0000
  Au  Au5       1.0  0.00000  0.50000  0.86928  1.0000
  Au  Au6       1.0  0.00000  0.75000  0.95643  1.0000
  Au  Au7       1.0  0.99973  0.50259  0.04135  1.0000
  Au  Au8       1.0  0.01657  0.75000  0.12864  1.0000
  Au  Au9       1.0  0.50000  0.00000  0.86928  1.0000
  Au  Au10      1.0  0.50000  0.25000  0.95643  1.0000
  Au  Au11      1.0  0.50044  0.99742  0.04126  1.0000
  Au  Au12      1.0  0.55266  0.25000  0.13822  1.0000
  Au  Au13      1.0  0.50000  0.50000  0.86928  1.0000
  Au  Au14      1.0  0.50000  0.75000  0.95643  1.0000
  Au  Au15      1.0  0.50044  0.50258  0.04126  1.0000
  Au  Au16      1.0  0.48346  0.75000  0.12886  1.0000
  C   C1        1.0  0.25110  0.25000  0.13536  1.0000
