# generated using pymatgen
data_Mg16Au16C
_symmetry_space_group_name_H-M   'P 1'
_cell_length_a   9.43980000
_cell_length_b   6.67495000
_cell_length_c   27.07990000
_cell_angle_alpha   90.00000000
_cell_angle_beta   90.00000000
_cell_angle_gamma   90.00000000
_symmetry_Int_Tables_number   1
_chemical_formula_structural   Mg16Au16C
_chemical_formula_sum   'Mg16 Au16 C1'
_cell_volume   1706.30972569
_cell_formula_units_Z   1
loop_
 _symmetry_equiv_pos_site_id
 _symmetry_equiv_pos_as_xyz
  1  'x, y, z'
loop_
 _atom_site_type_symbol
 _atom_site_label
 _atom_site_symmetry_multiplicity
 _atom_site_fract_x
 _atom_site_fract_y
 _atom_site_fract_z
 _atom_site_occupancy
  Mg  Mg0  1  0.00000000  0.25000000  0.13072000  1.0
  Mg  Mg1  1  0.25000000  0.25000000  0.04357000  1.0
  Mg  Mg2  1  0.00000000  0.25081000  0.95159000  1.0
  Mg  Mg3  1  0.76074000  0.25100000  0.86841000  1.0
  Mg  Mg4  1  0.50000000  0.25000000  0.13072000  1.0
  Mg  Mg5  1  0.75000000  0.25000000  0.04357000  1.0
  Mg  Mg6  1  0.50000000  0.25047000  0.95751000  1.0
  Mg  Mg7  1  0.23926000  0.25100000  0.86841000  1.0
  Mg  Mg8  1  0.00000000  0.75000000  0.13072000  1.0
  Mg  Mg9  1  0.25000000  0.75000000  0.04357000  1.0
  Mg  Mg10  1  0.00000000  0.74964000  0.95547000  1.0
  Mg  Mg11  1  0.73745000  0.74970000  0.86919000  1.0
  Mg  Mg12  1  0.50000000  0.75000000  0.13072000  1.0
  Mg  Mg13  1  0.75000000  0.75000000  0.04357000  1.0
  Mg  Mg14  1  0.50000000  0.74948000  0.95570000  1.0
  Mg  Mg15  1  0.26255000  0.74970000  0.86919000  1.0
  Au  Au16  1  0.75000000  0.00000000  0.13072000  1.0
  Au  Au17  1  0.00000000  0.00000000  0.04357000  1.0
  Au  Au18  1  0.74741000  0.99973000  0.95865000  1.0
  Au  Au19  1  0.00000000  0.94929000  0.86199000  1.0
  Au  Au20  1  0.25000000  0.00000000  0.13072000  1.0
  Au  Au21  1  0.50000000  0.00000000  0.04357000  1.0
  Au  Au22  1  0.25259000  0.99973000  0.95865000  1.0
  Au  Au23  1  0.50000000  0.01657000  0.87136000  1.0
  Au  Au24  1  0.75000000  0.50000000  0.13072000  1.0
  Au  Au25  1  0.00000000  0.50000000  0.04357000  1.0
  Au  Au26  1  0.74742000  0.50044000  0.95874000  1.0
  Au  Au27  1  0.00000000  0.55266000  0.86178000  1.0
  Au  Au28  1  0.25000000  0.50000000  0.13072000  1.0
  Au  Au29  1  0.50000000  0.50000000  0.04357000  1.0
  Au  Au30  1  0.25258000  0.50044000  0.95874000  1.0
  Au  Au31  1  0.50000000  0.48346000  0.87114000  1.0
  C  C32  1  0.00000000  0.25110000  0.86464000  1.0
