# generated using pymatgen
data_Mg16Au16C
_symmetry_space_group_name_H-M   Pm
_cell_length_a   6.67495000
_cell_length_b   9.43980000
_cell_length_c   27.07990000
_cell_angle_alpha   90.00000000
_cell_angle_beta   90.00000000
_cell_angle_gamma   90.00000000
_symmetry_Int_Tables_number   6
_chemical_formula_structural   Mg16Au16C
_chemical_formula_sum   'Mg16 Au16 C1'
_cell_volume   1706.30972569
_cell_formula_units_Z   1
loop_
 _symmetry_equiv_pos_site_id
 _symmetry_equiv_pos_as_xyz
  1  'x, y, z'
  2  'x, -y, z'
loop_
 _atom_site_type_symbol
 _atom_site_label
 _atom_site_symmetry_multiplicity
 _atom_site_fract_x
 _atom_site_fract_y
 _atom_site_fract_z
 _atom_site_occupancy
  Mg  Mg0  2  0.25000000  0.25000000  0.95643000  1.0
  Mg  Mg1  2  0.25100000  0.23926000  0.13159000  1.0
  Mg  Mg2  2  0.74970000  0.26255000  0.13081000  1.0
  Mg  Mg3  2  0.75000000  0.25000000  0.95643000  1.0
  Mg  Mg4  1  0.25000000  0.00000000  0.86928000  1.0
  Mg  Mg5  1  0.25000000  0.50000000  0.86928000  1.0
  Mg  Mg6  1  0.25047000  0.50000000  0.04249000  1.0
  Mg  Mg7  1  0.25081000  0.00000000  0.04841000  1.0
  Mg  Mg8  1  0.74948000  0.50000000  0.04430000  1.0
  Mg  Mg9  1  0.74964000  0.00000000  0.04453000  1.0
  Mg  Mg10  1  0.75000000  0.00000000  0.86928000  1.0
  Mg  Mg11  1  0.75000000  0.50000000  0.86928000  1.0
  Au  Au12  2  0.00000000  0.25000000  0.86928000  1.0
  Au  Au13  2  0.50000000  0.25000000  0.86928000  1.0
  Au  Au14  2  0.50044000  0.25258000  0.04126000  1.0
  Au  Au15  2  0.99973000  0.25259000  0.04135000  1.0
  Au  Au16  1  0.00000000  0.00000000  0.95643000  1.0
  Au  Au17  1  0.00000000  0.50000000  0.95643000  1.0
  Au  Au18  1  0.01657000  0.50000000  0.12864000  1.0
  Au  Au19  1  0.48346000  0.50000000  0.12886000  1.0
  Au  Au20  1  0.50000000  0.00000000  0.95643000  1.0
  Au  Au21  1  0.50000000  0.50000000  0.95643000  1.0
  Au  Au22  1  0.55266000  0.00000000  0.13822000  1.0
  Au  Au23  1  0.94929000  0.00000000  0.13801000  1.0
  C  C24  1  0.25110000  0.00000000  0.13536000  1.0
