# generated using pymatgen
data_Li4Y4Ge4Pb4CO
_symmetry_space_group_name_H-M   'P 1'
_cell_length_a   6.08443000
_cell_length_b   9.86128000
_cell_length_c   24.56300000
_cell_angle_alpha   90.00000000
_cell_angle_beta   90.00000000
_cell_angle_gamma   90.00000000
_symmetry_Int_Tables_number   1
_chemical_formula_structural   Li4Y4Ge4Pb4CO
_chemical_formula_sum   'Li4 Y4 Ge4 Pb4 C1 O1'
_cell_volume   1473.78657970
_cell_formula_units_Z   1
loop_
 _symmetry_equiv_pos_site_id
 _symmetry_equiv_pos_as_xyz
  1  'x, y, z'
loop_
 _atom_site_type_symbol
 _atom_site_label
 _atom_site_symmetry_multiplicity
 _atom_site_fract_x
 _atom_site_fract_y
 _atom_site_fract_z
 _atom_site_occupancy
  Li  Li0  1  0.29065000  0.24609000  0.02632000  1.0
  Li  Li1  1  0.74120000  0.25000000  0.90712000  1.0
  Li  Li2  1  0.29037000  0.75398000  0.02635000  1.0
  Li  Li3  1  0.74120000  0.75000000  0.90712000  1.0
  Y  Y4  1  0.53055000  0.00008000  0.09429000  1.0
  Y  Y5  1  0.99413000  0.00000000  0.96904000  1.0
  Y  Y6  1  0.50702000  0.49998000  0.09114000  1.0
  Y  Y7  1  0.99413000  0.50000000  0.96904000  1.0
  Ge  Ge8  1  0.03019000  0.00023000  0.09474000  1.0
  Ge  Ge9  1  0.49413000  0.00000000  0.96904000  1.0
  Ge  Ge10  1  0.00955000  0.50014000  0.09650000  1.0
  Ge  Ge11  1  0.49413000  0.50000000  0.96904000  1.0
  Pb  Pb12  1  0.79615000  0.25352000  0.04525000  1.0
  Pb  Pb13  1  0.24120000  0.25000000  0.90712000  1.0
  Pb  Pb14  1  0.79585000  0.74657000  0.04524000  1.0
  Pb  Pb15  1  0.24120000  0.75000000  0.90712000  1.0
  C  C16  1  0.70308000  0.99958000  0.18485000  1.0
  O  O17  1  0.78033000  0.99946000  0.22767000  1.0
