# generated using pymatgen
data_Li8Hf8Sn8Pd8C
_symmetry_space_group_name_H-M   'P 1'
_cell_length_a   9.44254000
_cell_length_b   6.67688000
_cell_length_c   27.08190000
_cell_angle_alpha   90.00000000
_cell_angle_beta   90.00000000
_cell_angle_gamma   90.00000000
_symmetry_Int_Tables_number   1
_chemical_formula_structural   Li8Hf8Sn8Pd8C
_chemical_formula_sum   'Li8 Hf8 Sn8 Pd8 C1'
_cell_volume   1707.42460009
_cell_formula_units_Z   1
loop_
 _symmetry_equiv_pos_site_id
 _symmetry_equiv_pos_as_xyz
  1  'x, y, z'
loop_
 _atom_site_type_symbol
 _atom_site_label
 _atom_site_symmetry_multiplicity
 _atom_site_fract_x
 _atom_site_fract_y
 _atom_site_fract_z
 _atom_site_occupancy
  Li  Li0  1  0.75001000  0.00000000  0.04358000  1.0
  Li  Li1  1  0.24999000  0.00000000  0.04358000  1.0
  Li  Li2  1  0.00000000  0.50000000  0.13075000  1.0
  Li  Li3  1  0.50000000  0.50000000  0.13075000  1.0
  Li  Li4  1  0.22669000  0.91910000  0.85728000  1.0
  Li  Li5  1  0.77331000  0.91910000  0.85728000  1.0
  Li  Li6  1  0.50000000  0.50903000  0.96509000  1.0
  Li  Li7  1  0.00000000  0.46903000  0.95911000  1.0
  Hf  Hf8  1  0.50000000  0.00000000  0.13075000  1.0
  Hf  Hf9  1  0.00000000  0.00000000  0.13075000  1.0
  Hf  Hf10  1  0.25001000  0.50000000  0.04358000  1.0
  Hf  Hf11  1  0.74999000  0.50000000  0.04358000  1.0
  Hf  Hf12  1  0.00000000  0.00807000  0.94590000  1.0
  Hf  Hf13  1  0.50000000  0.07608000  0.93610000  1.0
  Hf  Hf14  1  0.72001000  0.39754000  0.88349000  1.0
  Hf  Hf15  1  0.27999000  0.39754000  0.88349000  1.0
  Sn  Sn16  1  0.50000000  0.25000000  0.04358000  1.0
  Sn  Sn17  1  0.00000000  0.25000000  0.04358000  1.0
  Sn  Sn18  1  0.75001000  0.75000000  0.13075000  1.0
  Sn  Sn19  1  0.24999000  0.75000000  0.13075000  1.0
  Sn  Sn20  1  0.00000000  0.24983000  0.85362000  1.0
  Sn  Sn21  1  0.50000000  0.10437000  0.82470000  1.0
  Sn  Sn22  1  0.25470000  0.75752000  0.95291000  1.0
  Sn  Sn23  1  0.74530000  0.75752000  0.95291000  1.0
  Pd  Pd24  1  0.50000000  0.75000000  0.04358000  1.0
  Pd  Pd25  1  0.00000000  0.75000000  0.04358000  1.0
  Pd  Pd26  1  0.75001000  0.25000000  0.13075000  1.0
  Pd  Pd27  1  0.24999000  0.25000000  0.13075000  1.0
  Pd  Pd28  1  0.00000000  0.67549000  0.88448000  1.0
  Pd  Pd29  1  0.50000000  0.70976000  0.88611000  1.0
  Pd  Pd30  1  0.23882000  0.21928000  0.96894000  1.0
  Pd  Pd31  1  0.76118000  0.21928000  0.96894000  1.0
  C  C32  1  0.50000000  0.35187000  0.89128000  1.0
