# generated using pymatgen
data_Li8Hf8Sn8Pd8C
_symmetry_space_group_name_H-M   Pm
_cell_length_a   6.67688000
_cell_length_b   9.44254000
_cell_length_c   27.08190000
_cell_angle_alpha   90.00000000
_cell_angle_beta   90.00000000
_cell_angle_gamma   90.00000000
_symmetry_Int_Tables_number   6
_chemical_formula_structural   Li8Hf8Sn8Pd8C
_chemical_formula_sum   'Li8 Hf8 Sn8 Pd8 C1'
_cell_volume   1707.42460009
_cell_formula_units_Z   1
loop_
 _symmetry_equiv_pos_site_id
 _symmetry_equiv_pos_as_xyz
  1  'x, y, z'
  2  'x, -y, z'
loop_
 _atom_site_type_symbol
 _atom_site_label
 _atom_site_symmetry_multiplicity
 _atom_site_fract_x
 _atom_site_fract_y
 _atom_site_fract_z
 _atom_site_occupancy
  Li  Li0  2  0.00000000  0.24999000  0.95642000  1.0
  Li  Li1  2  0.91910000  0.22669000  0.14272000  1.0
  Li  Li2  1  0.46903000  0.00000000  0.04089000  1.0
  Li  Li3  1  0.50000000  0.00000000  0.86925000  1.0
  Li  Li4  1  0.50000000  0.50000000  0.86925000  1.0
  Li  Li5  1  0.50903000  0.50000000  0.03491000  1.0
  Hf  Hf6  2  0.39754000  0.27999000  0.11651000  1.0
  Hf  Hf7  2  0.50000000  0.25001000  0.95642000  1.0
  Hf  Hf8  1  0.00000000  0.00000000  0.86925000  1.0
  Hf  Hf9  1  0.00000000  0.50000000  0.86925000  1.0
  Hf  Hf10  1  0.00807000  0.00000000  0.05410000  1.0
  Hf  Hf11  1  0.07608000  0.50000000  0.06390000  1.0
  Sn  Sn12  2  0.75000000  0.24999000  0.86925000  1.0
  Sn  Sn13  2  0.75752000  0.25470000  0.04709000  1.0
  Sn  Sn14  1  0.10437000  0.50000000  0.17530000  1.0
  Sn  Sn15  1  0.24983000  0.00000000  0.14638000  1.0
  Sn  Sn16  1  0.25000000  0.00000000  0.95642000  1.0
  Sn  Sn17  1  0.25000000  0.50000000  0.95642000  1.0
  Pd  Pd18  2  0.21928000  0.23882000  0.03106000  1.0
  Pd  Pd19  2  0.25000000  0.24999000  0.86925000  1.0
  Pd  Pd20  1  0.67549000  0.00000000  0.11552000  1.0
  Pd  Pd21  1  0.70976000  0.50000000  0.11389000  1.0
  Pd  Pd22  1  0.75000000  0.00000000  0.95642000  1.0
  Pd  Pd23  1  0.75000000  0.50000000  0.95642000  1.0
  C  C24  1  0.35187000  0.50000000  0.10872000  1.0
