# generated using pymatgen
data_Al16Ni16C
_symmetry_space_group_name_H-M   'P 1'
_cell_length_a   5.79956000
_cell_length_b   8.20182000
_cell_length_c   26.15140000
_cell_angle_alpha   90.00000000
_cell_angle_beta   90.00000000
_cell_angle_gamma   90.00000000
_symmetry_Int_Tables_number   1
_chemical_formula_structural   Al16Ni16C
_chemical_formula_sum   'Al16 Ni16 C1'
_cell_volume   1243.94226299
_cell_formula_units_Z   1
loop_
 _symmetry_equiv_pos_site_id
 _symmetry_equiv_pos_as_xyz
  1  'x, y, z'
loop_
 _atom_site_type_symbol
 _atom_site_label
 _atom_site_symmetry_multiplicity
 _atom_site_fract_x
 _atom_site_fract_y
 _atom_site_fract_z
 _atom_site_occupancy
  Al  Al0  1  0.25000000  0.25000000  0.88239000  1.0
  Al  Al1  1  0.25000000  0.00000000  0.96080000  1.0
  Al  Al2  1  0.24653000  0.25078000  0.03943000  1.0
  Al  Al3  1  0.29169000  0.00000000  0.11938000  1.0
  Al  Al4  1  0.25000000  0.75000000  0.88239000  1.0
  Al  Al5  1  0.25000000  0.50000000  0.96080000  1.0
  Al  Al6  1  0.24653000  0.74922000  0.03943000  1.0
  Al  Al7  1  0.24105000  0.50000000  0.12053000  1.0
  Al  Al8  1  0.75000000  0.25000000  0.88239000  1.0
  Al  Al9  1  0.75000000  0.00000000  0.96080000  1.0
  Al  Al10  1  0.75347000  0.25078000  0.03943000  1.0
  Al  Al11  1  0.70831000  0.00000000  0.11938000  1.0
  Al  Al12  1  0.75000000  0.75000000  0.88239000  1.0
  Al  Al13  1  0.75000000  0.50000000  0.96080000  1.0
  Al  Al14  1  0.75347000  0.74922000  0.03943000  1.0
  Al  Al15  1  0.75895000  0.50000000  0.12053000  1.0
  Ni  Ni16  1  0.00000000  0.00000000  0.88239000  1.0
  Ni  Ni17  1  0.00000000  0.25000000  0.96080000  1.0
  Ni  Ni18  1  0.00000000  0.00000000  0.04012000  1.0
  Ni  Ni19  1  0.00000000  0.23051000  0.11825000  1.0
  Ni  Ni20  1  0.00000000  0.50000000  0.88239000  1.0
  Ni  Ni21  1  0.00000000  0.75000000  0.96080000  1.0
  Ni  Ni22  1  0.00000000  0.50000000  0.03949000  1.0
  Ni  Ni23  1  0.00000000  0.76949000  0.11825000  1.0
  Ni  Ni24  1  0.50000000  0.00000000  0.88239000  1.0
  Ni  Ni25  1  0.50000000  0.25000000  0.96080000  1.0
  Ni  Ni26  1  0.50000000  0.00000000  0.03644000  1.0
  Ni  Ni27  1  0.50000000  0.26160000  0.11231000  1.0
  Ni  Ni28  1  0.50000000  0.50000000  0.88239000  1.0
  Ni  Ni29  1  0.50000000  0.75000000  0.96080000  1.0
  Ni  Ni30  1  0.50000000  0.50000000  0.03879000  1.0
  Ni  Ni31  1  0.50000000  0.73840000  0.11231000  1.0
  C  C32  1  0.00000000  0.00000000  0.14818000  1.0
