# generated using pymatgen
data_Li8Zn4Ge4CO
_symmetry_space_group_name_H-M   'P 1'
_cell_length_a   6.18893000
_cell_length_b   6.18893000
_cell_length_c   24.64170000
_cell_angle_alpha   90.00000000
_cell_angle_beta   90.00000000
_cell_angle_gamma   90.00000000
_symmetry_Int_Tables_number   1
_chemical_formula_structural   Li8Zn4Ge4CO
_chemical_formula_sum   'Li8 Zn4 Ge4 C1 O1'
_cell_volume   943.84745084
_cell_formula_units_Z   1
loop_
 _symmetry_equiv_pos_site_id
 _symmetry_equiv_pos_as_xyz
  1  'x, y, z'
loop_
 _atom_site_type_symbol
 _atom_site_label
 _atom_site_symmetry_multiplicity
 _atom_site_fract_x
 _atom_site_fract_y
 _atom_site_fract_z
 _atom_site_occupancy
  Li  Li0  1  0.00000000  0.00000000  0.88557000  1.0
  Li  Li1  1  0.50000000  0.50000000  0.88666000  1.0
  Li  Li2  1  0.50000000  0.00000000  0.03139000  1.0
  Li  Li3  1  0.00000000  0.50000000  0.03139000  1.0
  Li  Li4  1  0.25000000  0.25000000  0.09418000  1.0
  Li  Li5  1  0.26178000  0.76429000  0.96333000  1.0
  Li  Li6  1  0.75000000  0.75000000  0.09418000  1.0
  Li  Li7  1  0.73822000  0.23571000  0.96333000  1.0
  Zn  Zn8  1  0.27551000  0.22405000  0.96158000  1.0
  Zn  Zn9  1  0.25000000  0.75000000  0.09418000  1.0
  Zn  Zn10  1  0.72449000  0.77595000  0.96158000  1.0
  Zn  Zn11  1  0.75000000  0.25000000  0.09418000  1.0
  Ge  Ge12  1  0.00000000  0.00000000  0.03139000  1.0
  Ge  Ge13  1  0.50000000  0.00000000  0.89573000  1.0
  Ge  Ge14  1  0.00000000  0.50000000  0.91336000  1.0
  Ge  Ge15  1  0.50000000  0.50000000  0.03139000  1.0
  C  C16  1  0.00000000  0.50000000  0.83735000  1.0
  O  O17  1  0.00000000  0.50000000  0.78968000  1.0
