# generated using pymatgen
data_Li4Sc4Ge4Pd4CO
_symmetry_space_group_name_H-M   'P 1'
_cell_length_a   6.30999000
_cell_length_b   6.30999000
_cell_length_c   24.73250000
_cell_angle_alpha   90.00000000
_cell_angle_beta   90.00000000
_cell_angle_gamma   90.00000000
_symmetry_Int_Tables_number   1
_chemical_formula_structural   Li4Sc4Ge4Pd4CO
_chemical_formula_sum   'Li4 Sc4 Ge4 Pd4 C1 O1'
_cell_volume   984.74857201
_cell_formula_units_Z   1
loop_
 _symmetry_equiv_pos_site_id
 _symmetry_equiv_pos_as_xyz
  1  'x, y, z'
loop_
 _atom_site_type_symbol
 _atom_site_label
 _atom_site_symmetry_multiplicity
 _atom_site_fract_x
 _atom_site_fract_y
 _atom_site_fract_z
 _atom_site_occupancy
  Li  Li0  1  0.75091000  0.25077000  0.96463000  1.0
  Li  Li1  1  0.74999000  0.75000000  0.09567000  1.0
  Li  Li2  1  0.25001000  0.25000000  0.09567000  1.0
  Li  Li3  1  0.24909000  0.74923000  0.96463000  1.0
  Sc  Sc4  1  0.00000000  0.50000000  0.89521000  1.0
  Sc  Sc5  1  0.00000000  0.00000000  0.03189000  1.0
  Sc  Sc6  1  0.50000000  0.50000000  0.03189000  1.0
  Sc  Sc7  1  0.50000000  0.00000000  0.89681000  1.0
  Ge  Ge8  1  0.00000000  0.00000000  0.90158000  1.0
  Ge  Ge9  1  0.00000000  0.50000000  0.03189000  1.0
  Ge  Ge10  1  0.50000000  0.00000000  0.03189000  1.0
  Ge  Ge11  1  0.50000000  0.50000000  0.90164000  1.0
  Pd  Pd12  1  0.25205000  0.24795000  0.96700000  1.0
  Pd  Pd13  1  0.24999000  0.75000000  0.09567000  1.0
  Pd  Pd14  1  0.75001000  0.25000000  0.09567000  1.0
  Pd  Pd15  1  0.74795000  0.75205000  0.96700000  1.0
  C  C16  1  0.00000000  0.50000000  0.80088000  1.0
  O  O17  1  0.00000000  0.50000000  0.75453000  1.0
