# generated using pymatgen
data_Li16Cu8Sn8CO
_symmetry_space_group_name_H-M   'P 1'
_cell_length_a   6.34973000
_cell_length_b   8.97987000
_cell_length_c   26.73490000
_cell_angle_alpha   90.00000000
_cell_angle_beta   90.00000000
_cell_angle_gamma   90.00000000
_symmetry_Int_Tables_number   1
_chemical_formula_structural   Li16Cu8Sn8CO
_chemical_formula_sum   'Li16 Cu8 Sn8 C1 O1'
_cell_volume   1524.41731254
_cell_formula_units_Z   1
loop_
 _symmetry_equiv_pos_site_id
 _symmetry_equiv_pos_as_xyz
  1  'x, y, z'
loop_
 _atom_site_type_symbol
 _atom_site_label
 _atom_site_symmetry_multiplicity
 _atom_site_fract_x
 _atom_site_fract_y
 _atom_site_fract_z
 _atom_site_occupancy
  Li  Li0  1  0.00000000  0.75000000  0.95801000  1.0
  Li  Li1  1  0.50000000  0.00000000  0.87404000  1.0
  Li  Li2  1  0.00000000  0.25000000  0.95801000  1.0
  Li  Li3  1  0.50000000  0.50000000  0.87404000  1.0
  Li  Li4  1  0.25000000  0.00000000  0.95801000  1.0
  Li  Li5  1  0.25000000  0.50000000  0.95801000  1.0
  Li  Li6  1  0.75000000  0.75000000  0.87404000  1.0
  Li  Li7  1  0.75000000  0.25000000  0.87404000  1.0
  Li  Li8  1  0.98703000  0.24948000  0.12477000  1.0
  Li  Li9  1  0.48922000  0.50000000  0.03966000  1.0
  Li  Li10  1  0.98703000  0.75051000  0.12477000  1.0
  Li  Li11  1  0.48736000  0.00000000  0.03898000  1.0
  Li  Li12  1  0.27214000  0.49999000  0.13665000  1.0
  Li  Li13  1  0.26379000  0.00001000  0.13591000  1.0
  Li  Li14  1  0.74798000  0.25022000  0.04215000  1.0
  Li  Li15  1  0.74798000  0.74977000  0.04216000  1.0
  Cu  Cu16  1  0.25000000  0.25000000  0.87404000  1.0
  Cu  Cu17  1  0.25000000  0.75000000  0.87404000  1.0
  Cu  Cu18  1  0.75000000  0.50000000  0.95801000  1.0
  Cu  Cu19  1  0.75000000  0.00000000  0.95801000  1.0
  Cu  Cu20  1  0.25827000  0.75054000  0.04391000  1.0
  Cu  Cu21  1  0.25825000  0.24947000  0.04391000  1.0
  Cu  Cu22  1  0.71584000  0.00005000  0.11488000  1.0
  Cu  Cu23  1  0.72236000  0.49995000  0.11643000  1.0
  Sn  Sn24  1  0.00000000  0.00000000  0.87404000  1.0
  Sn  Sn25  1  0.50000000  0.25000000  0.95801000  1.0
  Sn  Sn26  1  0.50000000  0.75000000  0.95801000  1.0
  Sn  Sn27  1  0.00000000  0.50000000  0.87404000  1.0
  Sn  Sn28  1  0.01258000  0.49999000  0.04625000  1.0
  Sn  Sn29  1  0.50882000  0.75007000  0.12981000  1.0
  Sn  Sn30  1  0.50856000  0.24991000  0.12979000  1.0
  Sn  Sn31  1  0.00916000  0.00002000  0.04484000  1.0
  C  C32  1  0.16381000  0.99999000  0.20972000  1.0
  O  O33  1  0.13281000  0.99996000  0.25172000  1.0
