# generated using pymatgen
data_Li8Al8Cu8Ag8C
_symmetry_space_group_name_H-M   Pm
_cell_length_a   6.15237000
_cell_length_b   8.70076000
_cell_length_c   26.52560000
_cell_angle_alpha   90.00000000
_cell_angle_beta   90.00000000
_cell_angle_gamma   90.00000000
_symmetry_Int_Tables_number   6
_chemical_formula_structural   Li8Al8Cu8Ag8C
_chemical_formula_sum   'Li8 Al8 Cu8 Ag8 C1'
_cell_volume   1419.92318778
_cell_formula_units_Z   1
loop_
 _symmetry_equiv_pos_site_id
 _symmetry_equiv_pos_as_xyz
  1  'x, y, z'
  2  'x, -y, z'
loop_
 _atom_site_type_symbol
 _atom_site_label
 _atom_site_symmetry_multiplicity
 _atom_site_fract_x
 _atom_site_fract_y
 _atom_site_fract_z
 _atom_site_occupancy
  Li  Li0  2  0.75000000  0.25000000  0.95900000  1.0
  Li  Li1  2  0.76339000  0.23944000  0.12984000  1.0
  Li  Li2  1  0.25000000  0.00000000  0.87699000  1.0
  Li  Li3  1  0.25000000  0.50000000  0.87699000  1.0
  Li  Li4  1  0.25452000  0.50000000  0.03946000  1.0
  Li  Li5  1  0.25465000  0.00000000  0.04542000  1.0
  Al  Al6  2  0.24854000  0.25902000  0.12627000  1.0
  Al  Al7  2  0.25000000  0.25000000  0.95900000  1.0
  Al  Al8  1  0.74258000  0.00000000  0.03820000  1.0
  Al  Al9  1  0.74723000  0.50000000  0.04348000  1.0
  Al  Al10  1  0.75000000  0.00000000  0.87699000  1.0
  Al  Al11  1  0.75000000  0.50000000  0.87699000  1.0
  Cu  Cu12  2  0.49468000  0.25771000  0.04095000  1.0
  Cu  Cu13  2  0.50000000  0.25000000  0.87699000  1.0
  Cu  Cu14  1  -0.00000000  0.50000000  0.95900000  1.0
  Cu  Cu15  1  -0.00000000  0.00000000  0.95900000  1.0
  Cu  Cu16  1  0.01572000  0.50000000  0.11792000  1.0
  Cu  Cu17  1  0.05851000  0.00000000  0.13771000  1.0
  Ag  Ag18  2  0.00000000  0.25000000  0.87699000  1.0
  Ag  Ag19  2  0.00385000  0.25345000  0.04172000  1.0
  Ag  Ag20  1  0.46812000  0.00000000  0.14183000  1.0
  Ag  Ag21  1  0.50000000  0.00000000  0.95900000  1.0
  Ag  Ag22  1  0.50000000  0.50000000  0.95900000  1.0
  Ag  Ag23  1  0.50375000  0.50000000  0.12571000  1.0
  C  C24  1  0.78562000  0.00000000  0.11006000  1.0
