# generated using pymatgen
data_Li8In8Ag8Pd8CO
_symmetry_space_group_name_H-M   'P 1'
_cell_length_a   9.22594000
_cell_length_b   6.52372000
_cell_length_c   26.91950000
_cell_angle_alpha   90.00000000
_cell_angle_beta   90.00000000
_cell_angle_gamma   90.00000000
_symmetry_Int_Tables_number   1
_chemical_formula_structural   Li8In8Ag8Pd8CO
_chemical_formula_sum   'Li8 In8 Ag8 Pd8 C1 O1'
_cell_volume   1620.21604135
_cell_formula_units_Z   1
loop_
 _symmetry_equiv_pos_site_id
 _symmetry_equiv_pos_as_xyz
  1  'x, y, z'
loop_
 _atom_site_type_symbol
 _atom_site_label
 _atom_site_symmetry_multiplicity
 _atom_site_fract_x
 _atom_site_fract_y
 _atom_site_fract_z
 _atom_site_occupancy
  Li  Li0  1  0.00000000  0.25000000  0.04284000  1.0
  Li  Li1  1  0.50000000  0.25000000  0.04284000  1.0
  Li  Li2  1  0.25000000  0.75000000  0.12852000  1.0
  Li  Li3  1  0.75000000  0.75000000  0.12852000  1.0
  Li  Li4  1  0.50000000  0.24337000  0.87039000  1.0
  Li  Li5  1  0.00000000  0.24367000  0.87027000  1.0
  Li  Li6  1  0.75066000  0.74965000  0.95862000  1.0
  Li  Li7  1  0.24934000  0.74965000  0.95862000  1.0
  In  In8  1  0.00000000  0.75000000  0.04284000  1.0
  In  In9  1  0.50000000  0.75000000  0.04284000  1.0
  In  In10  1  0.25000000  0.25000000  0.12852000  1.0
  In  In11  1  0.75000000  0.25000000  0.12852000  1.0
  In  In12  1  0.50000000  0.77001000  0.85623000  1.0
  In  In13  1  0.00000000  0.76186000  0.86132000  1.0
  In  In14  1  0.74804000  0.25421000  0.95688000  1.0
  In  In15  1  0.25196000  0.25421000  0.95688000  1.0
  Ag  Ag16  1  0.00000000  0.00000000  0.12852000  1.0
  Ag  Ag17  1  0.50000000  0.00000000  0.12852000  1.0
  Ag  Ag18  1  0.75000000  0.50000000  0.04284000  1.0
  Ag  Ag19  1  0.25000000  0.50000000  0.04284000  1.0
  Ag  Ag20  1  0.50000000  0.98884000  0.95430000  1.0
  Ag  Ag21  1  0.00000000  0.99568000  0.95558000  1.0
  Ag  Ag22  1  0.25327000  0.51543000  0.87283000  1.0
  Ag  Ag23  1  0.74673000  0.51543000  0.87283000  1.0
  Pd  Pd24  1  0.25000000  1.00000000  0.04284000  1.0
  Pd  Pd25  1  0.75000000  1.00000000  0.04284000  1.0
  Pd  Pd26  1  0.50000000  0.50000000  0.12852000  1.0
  Pd  Pd27  1  0.00000000  0.50000000  0.12852000  1.0
  Pd  Pd28  1  0.75016000  0.98476000  0.87877000  1.0
  Pd  Pd29  1  0.24984000  0.98476000  0.87877000  1.0
  Pd  Pd30  1  0.00000000  0.50525000  0.95459000  1.0
  Pd  Pd31  1  0.50000000  0.51185000  0.95348000  1.0
  C  C32  1  0.00000000  0.67568000  0.72643000  1.0
  O  O33  1  0.00000000  0.79372000  0.69542000  1.0
