# generated using pymatgen
data_Li8In8Ag8Pd8CO
_symmetry_space_group_name_H-M   Pm
_cell_length_a   6.52372000
_cell_length_b   9.22594000
_cell_length_c   26.91950000
_cell_angle_alpha   90.00000000
_cell_angle_beta   90.00000000
_cell_angle_gamma   90.00000000
_symmetry_Int_Tables_number   6
_chemical_formula_structural   Li8In8Ag8Pd8CO
_chemical_formula_sum   'Li8 In8 Ag8 Pd8 C1 O1'
_cell_volume   1620.21604135
_cell_formula_units_Z   1
loop_
 _symmetry_equiv_pos_site_id
 _symmetry_equiv_pos_as_xyz
  1  'x, y, z'
  2  'x, -y, z'
loop_
 _atom_site_type_symbol
 _atom_site_label
 _atom_site_symmetry_multiplicity
 _atom_site_fract_x
 _atom_site_fract_y
 _atom_site_fract_z
 _atom_site_occupancy
  Li  Li0  2  0.74965000  0.24934000  0.04138000  1.0
  Li  Li1  2  0.75000000  0.25000000  0.87148000  1.0
  Li  Li2  1  0.24337000  0.50000000  0.12961000  1.0
  Li  Li3  1  0.24367000  0.00000000  0.12973000  1.0
  Li  Li4  1  0.25000000  0.00000000  0.95716000  1.0
  Li  Li5  1  0.25000000  0.50000000  0.95716000  1.0
  In  In6  2  0.25000000  0.25000000  0.87148000  1.0
  In  In7  2  0.25421000  0.25196000  0.04312000  1.0
  In  In8  1  0.75000000  0.00000000  0.95716000  1.0
  In  In9  1  0.75000000  0.50000000  0.95716000  1.0
  In  In10  1  0.76186000  0.00000000  0.13868000  1.0
  In  In11  1  0.77001000  0.50000000  0.14377000  1.0
  Ag  Ag12  2  0.50000000  0.25000000  0.95716000  1.0
  Ag  Ag13  2  0.51543000  0.25327000  0.12717000  1.0
  Ag  Ag14  1  0.00000000  0.00000000  0.87148000  1.0
  Ag  Ag15  1  0.00000000  0.50000000  0.87148000  1.0
  Ag  Ag16  1  0.98884000  0.50000000  0.04570000  1.0
  Ag  Ag17  1  0.99568000  0.00000000  0.04442000  1.0
  Pd  Pd18  2  -0.00000000  0.25000000  0.95716000  1.0
  Pd  Pd19  2  0.98476000  0.24984000  0.12123000  1.0
  Pd  Pd20  1  0.50000000  0.00000000  0.87148000  1.0
  Pd  Pd21  1  0.50000000  0.50000000  0.87148000  1.0
  Pd  Pd22  1  0.50525000  0.00000000  0.04541000  1.0
  Pd  Pd23  1  0.51185000  0.50000000  0.04652000  1.0
  C  C24  1  0.67568000  0.00000000  0.27357000  1.0
  O  O25  1  0.79372000  0.00000000  0.30458000  1.0
