# generated using pymatgen
data_Li4Mg4In4Pt4CO
_symmetry_space_group_name_H-M   'P 1'
_cell_length_a   6.50521000
_cell_length_b   6.50521000
_cell_length_c   24.87890000
_cell_angle_alpha   90.00000000
_cell_angle_beta   90.00000000
_cell_angle_gamma   90.00000000
_symmetry_Int_Tables_number   1
_chemical_formula_structural   Li4Mg4In4Pt4CO
_chemical_formula_sum   'Li4 Mg4 In4 Pt4 C1 O1'
_cell_volume   1052.81924821
_cell_formula_units_Z   1
loop_
 _symmetry_equiv_pos_site_id
 _symmetry_equiv_pos_as_xyz
  1  'x, y, z'
loop_
 _atom_site_type_symbol
 _atom_site_label
 _atom_site_symmetry_multiplicity
 _atom_site_fract_x
 _atom_site_fract_y
 _atom_site_fract_z
 _atom_site_occupancy
  Li  Li0  1  0.23866000  0.76134000  0.03494000  1
  Li  Li1  1  0.75002000  0.75002000  0.90195000  1
  Li  Li2  1  0.24998000  0.24998000  0.90195000  1
  Li  Li3  1  0.76134000  0.23866000  0.03494000  1
  Mg  Mg4  1  1.00000000  0.50000000  0.09831000  1
  Mg  Mg5  1  0.50000000  0.50000000  0.96732000  1
  Mg  Mg6  1  1.00000000  0.00000000  0.96732000  1
  Mg  Mg7  1  0.50000000  0.00000000  0.09831000  1
  In  In8  1  0.50000000  0.50000000  0.09659000  1
  In  In9  1  1.00000000  0.50000000  0.96732000  1
  In  In10  1  0.50000000  0.00000000  0.96732000  1
  In  In11  1  1.00000000  0.00000000  0.10931000  1
  Pt  Pt12  1  0.24404000  0.24404000  0.03415000  1
  Pt  Pt13  1  0.75001000  0.24999000  0.90195000  1
  Pt  Pt14  1  0.24999000  0.75001000  0.90195000  1
  Pt  Pt15  1  0.75596000  0.75596000  0.03415000  1
  C  C16  1  0.50000000  0.50000000  0.19574000  1
  O  O17  1  0.50000000  0.50000000  0.24184000  1
