# generated using pymatgen
data_Li8Hf8In8Pd8CO
_symmetry_space_group_name_H-M   'P 1'
_cell_length_a   9.21246000
_cell_length_b   6.51419000
_cell_length_c   26.90930000
_cell_angle_alpha   90.00000000
_cell_angle_beta   90.00000000
_cell_angle_gamma   90.00000000
_symmetry_Int_Tables_number   1
_chemical_formula_structural   Li8Hf8In8Pd8CO
_chemical_formula_sum   'Li8 Hf8 In8 Pd8 C1 O1'
_cell_volume   1614.87323727
_cell_formula_units_Z   1
loop_
 _symmetry_equiv_pos_site_id
 _symmetry_equiv_pos_as_xyz
  1  'x, y, z'
loop_
 _atom_site_type_symbol
 _atom_site_label
 _atom_site_symmetry_multiplicity
 _atom_site_fract_x
 _atom_site_fract_y
 _atom_site_fract_z
 _atom_site_occupancy
  Li  Li0  1  0.75000000  0.75000000  0.04279000  1.0
  Li  Li1  1  0.25000000  0.75000000  0.04279000  1.0
  Li  Li2  1  0.00000000  0.25000000  0.12838000  1.0
  Li  Li3  1  0.50000000  0.25000000  0.12838000  1.0
  Li  Li4  1  0.24006000  0.83109000  0.81774000  1.0
  Li  Li5  1  0.75994000  0.83109000  0.81774000  1.0
  Li  Li6  1  0.50000000  0.25051000  0.95449000  1.0
  Li  Li7  1  0.00000000  0.27126000  0.95622000  1.0
  Hf  Hf8  1  0.75000000  0.00000000  0.12838000  1.0
  Hf  Hf9  1  0.25000000  0.00000000  0.12838000  1.0
  Hf  Hf10  1  0.50000000  0.50000000  0.04279000  1.0
  Hf  Hf11  1  0.00000000  0.50000000  0.04279000  1.0
  Hf  Hf12  1  0.24925000  0.99915000  0.95032000  1.0
  Hf  Hf13  1  0.75075000  0.99915000  0.95032000  1.0
  Hf  Hf14  1  0.00000000  0.54033000  0.87189000  1.0
  Hf  Hf15  1  0.50000000  0.53642000  0.87549000  1.0
  In  In16  1  0.00000000  1.00000000  0.04279000  1.0
  In  In17  1  0.50000000  1.00000000  0.04279000  1.0
  In  In18  1  0.25000000  0.50000000  0.12838000  1.0
  In  In19  1  0.75000000  0.50000000  0.12838000  1.0
  In  In20  1  0.50000000  0.01136000  0.86359000  1.0
  In  In21  1  0.00000000  0.03463000  0.87028000  1.0
  In  In22  1  0.74805000  0.51280000  0.95804000  1.0
  In  In23  1  0.25195000  0.51280000  0.95804000  1.0
  Pd  Pd24  1  0.75000000  0.25000000  0.04279000  1.0
  Pd  Pd25  1  0.25000000  0.25000000  0.04279000  1.0
  Pd  Pd26  1  0.00000000  0.75000000  0.12838000  1.0
  Pd  Pd27  1  0.50000000  0.75000000  0.12838000  1.0
  Pd  Pd28  1  0.25397000  0.28227000  0.87390000  1.0
  Pd  Pd29  1  0.74603000  0.28227000  0.87390000  1.0
  Pd  Pd30  1  0.50000000  0.76173000  0.95811000  1.0
  Pd  Pd31  1  0.00000000  0.75673000  0.95945000  1.0
  C  C32  1  0.00000000  0.70581000  0.80307000  1.0
  O  O33  1  0.00000000  0.77161000  0.76094000  1.0
