# generated using pymatgen
data_Li16Ag8Sb8CO
_symmetry_space_group_name_H-M   'P 1'
_cell_length_a   9.47494000
_cell_length_b   6.69979000
_cell_length_c   27.10620000
_cell_angle_alpha   90.00000000
_cell_angle_beta   90.00000000
_cell_angle_gamma   90.00000000
_symmetry_Int_Tables_number   1
_chemical_formula_structural   Li16Ag8Sb8CO
_chemical_formula_sum   'Li16 Ag8 Sb8 C1 O1'
_cell_volume   1720.70451059
_cell_formula_units_Z   1
loop_
 _symmetry_equiv_pos_site_id
 _symmetry_equiv_pos_as_xyz
  1  'x, y, z'
loop_
 _atom_site_type_symbol
 _atom_site_label
 _atom_site_symmetry_multiplicity
 _atom_site_fract_x
 _atom_site_fract_y
 _atom_site_fract_z
 _atom_site_occupancy
  Li  Li0  1  0.50000000  1.00000000  0.04369000  1.0
  Li  Li1  1  0.75000000  0.50000000  0.13108000  1.0
  Li  Li2  1  0.00000000  1.00000000  0.04369000  1.0
  Li  Li3  1  0.25000000  0.50000000  0.13108000  1.0
  Li  Li4  1  0.75000000  0.25000000  0.04369000  1.0
  Li  Li5  1  0.25000000  0.25000000  0.04369000  1.0
  Li  Li6  1  0.50000000  0.75000000  0.13108000  1.0
  Li  Li7  1  0.00000000  0.75000000  0.13108000  1.0
  Li  Li8  1  0.00000000  0.98068000  0.87483000  1.0
  Li  Li9  1  0.24133000  0.48774000  0.96124000  1.0
  Li  Li10  1  0.50000000  0.96914000  0.87479000  1.0
  Li  Li11  1  0.75867000  0.48774000  0.96124000  1.0
  Li  Li12  1  0.25309000  0.28712000  0.86956000  1.0
  Li  Li13  1  0.74691000  0.28712000  0.86956000  1.0
  Li  Li14  1  0.00000000  0.74615000  0.95555000  1.0
  Li  Li15  1  0.50000000  0.72589000  0.95425000  1.0
  Ag  Ag16  1  0.00000000  0.25000000  0.13108000  1.0
  Ag  Ag17  1  0.50000000  0.25000000  0.13108000  1.0
  Ag  Ag18  1  0.25000000  0.75000000  0.04369000  1.0
  Ag  Ag19  1  0.75000000  0.75000000  0.04369000  1.0
  Ag  Ag20  1  0.50000000  0.27698000  0.94967000  1.0
  Ag  Ag21  1  0.00000000  0.24847000  0.95568000  1.0
  Ag  Ag22  1  0.74977000  0.71622000  0.87870000  1.0
  Ag  Ag23  1  0.25023000  0.71622000  0.87870000  1.0
  Sb  Sb24  1  0.75000000  0.00000000  0.13108000  1.0
  Sb  Sb25  1  0.00000000  0.50000000  0.04369000  1.0
  Sb  Sb26  1  0.50000000  0.50000000  0.04369000  1.0
  Sb  Sb27  1  0.25000000  0.00000000  0.13108000  1.0
  Sb  Sb28  1  0.25484000  0.00812000  0.95341000  1.0
  Sb  Sb29  1  0.50000000  0.50461000  0.85785000  1.0
  Sb  Sb30  1  0.00000000  0.49315000  0.86635000  1.0
  Sb  Sb31  1  0.74516000  0.00812000  0.95341000  1.0
  C  C32  1  0.00000000  0.62449000  0.72728000  1.0
  O  O33  1  0.00000000  0.47049000  0.70974000  1.0
