# generated using pymatgen
data_Li16Ag8Sb8CO
_symmetry_space_group_name_H-M   Pm
_cell_length_a   6.69979000
_cell_length_b   9.47494000
_cell_length_c   27.10620000
_cell_angle_alpha   90.00000000
_cell_angle_beta   90.00000000
_cell_angle_gamma   90.00000000
_symmetry_Int_Tables_number   6
_chemical_formula_structural   Li16Ag8Sb8CO
_chemical_formula_sum   'Li16 Ag8 Sb8 C1 O1'
_cell_volume   1720.70451059
_cell_formula_units_Z   1
loop_
 _symmetry_equiv_pos_site_id
 _symmetry_equiv_pos_as_xyz
  1  'x, y, z'
  2  'x, -y, z'
loop_
 _atom_site_type_symbol
 _atom_site_label
 _atom_site_symmetry_multiplicity
 _atom_site_fract_x
 _atom_site_fract_y
 _atom_site_fract_z
 _atom_site_occupancy
  Li  Li0  2  0.25000000  0.25000000  0.95631000  1.0
  Li  Li1  2  0.28712000  0.25309000  0.13044000  1.0
  Li  Li2  2  0.48774000  0.24133000  0.03876000  1.0
  Li  Li3  2  0.50000000  0.25000000  0.86892000  1.0
  Li  Li4  1  -0.00000000  0.50000000  0.95631000  1.0
  Li  Li5  1  -0.00000000  0.00000000  0.95631000  1.0
  Li  Li6  1  0.72589000  0.50000000  0.04575000  1.0
  Li  Li7  1  0.74615000  0.00000000  0.04445000  1.0
  Li  Li8  1  0.75000000  0.00000000  0.86892000  1.0
  Li  Li9  1  0.75000000  0.50000000  0.86892000  1.0
  Li  Li10  1  0.96914000  0.50000000  0.12521000  1.0
  Li  Li11  1  0.98068000  0.00000000  0.12517000  1.0
  Ag  Ag12  2  0.71622000  0.25023000  0.12130000  1.0
  Ag  Ag13  2  0.75000000  0.25000000  0.95631000  1.0
  Ag  Ag14  1  0.24847000  0.00000000  0.04432000  1.0
  Ag  Ag15  1  0.25000000  0.00000000  0.86892000  1.0
  Ag  Ag16  1  0.25000000  0.50000000  0.86892000  1.0
  Ag  Ag17  1  0.27698000  0.50000000  0.05033000  1.0
  Sb  Sb18  2  0.00000000  0.25000000  0.86892000  1.0
  Sb  Sb19  2  0.00812000  0.25484000  0.04659000  1.0
  Sb  Sb20  1  0.49315000  0.00000000  0.13365000  1.0
  Sb  Sb21  1  0.50000000  0.00000000  0.95631000  1.0
  Sb  Sb22  1  0.50000000  0.50000000  0.95631000  1.0
  Sb  Sb23  1  0.50461000  0.50000000  0.14215000  1.0
  C  C24  1  0.62449000  0.00000000  0.27272000  1.0
  O  O25  1  0.47049000  0.00000000  0.29026000  1.0
