# generated using pymatgen
data_Ga8Fe16Ni8C
_symmetry_space_group_name_H-M   Pm
_cell_length_a   5.81401000
_cell_length_b   8.22225000
_cell_length_c   26.16670000
_cell_angle_alpha   90.00000000
_cell_angle_beta   90.00000000
_cell_angle_gamma   90.00000000
_symmetry_Int_Tables_number   6
_chemical_formula_structural   Ga8Fe16Ni8C
_chemical_formula_sum   'Ga8 Fe16 Ni8 C1'
_cell_volume   1250.87930421
_cell_formula_units_Z   1
loop_
 _symmetry_equiv_pos_site_id
 _symmetry_equiv_pos_as_xyz
  1  'x, y, z'
  2  'x, -y, z'
loop_
 _atom_site_type_symbol
 _atom_site_label
 _atom_site_symmetry_multiplicity
 _atom_site_fract_x
 _atom_site_fract_y
 _atom_site_fract_z
 _atom_site_occupancy
  Ga  Ga0  2  0.00000000  0.25001000  0.88217000  1.0
  Ga  Ga1  2  0.00442000  0.25873000  0.04030000  1.0
  Ga  Ga2  1  0.45918000  0.50000000  0.13715000  1.0
  Ga  Ga3  1  0.50000000  0.00000000  0.96072000  1.0
  Ga  Ga4  1  0.50000000  0.50000000  0.96072000  1.0
  Ga  Ga5  1  0.58000000  0.00000000  0.15238000  1.0
  Fe  Fe6  2  0.25000000  0.25001000  0.96072000  1.0
  Fe  Fe7  2  0.28364000  0.22823000  0.11705000  1.0
  Fe  Fe8  2  0.72605000  0.27190000  0.11524000  1.0
  Fe  Fe9  2  0.75000000  0.24999000  0.96072000  1.0
  Fe  Fe10  1  0.25000000  0.00000000  0.88217000  1.0
  Fe  Fe11  1  0.25000000  0.50000000  0.88217000  1.0
  Fe  Fe12  1  0.25160000  0.00000000  0.04941000  1.0
  Fe  Fe13  1  0.28474000  0.50000000  0.04266000  1.0
  Fe  Fe14  1  0.71724000  0.50000000  0.04790000  1.0
  Fe  Fe15  1  0.74590000  0.00000000  0.04131000  1.0
  Fe  Fe16  1  0.75000000  0.00000000  0.88217000  1.0
  Fe  Fe17  1  0.75000000  0.50000000  0.88217000  1.0
  Ni  Ni18  2  0.50000000  0.25001000  0.88217000  1.0
  Ni  Ni19  2  0.50142000  0.23552000  0.03248000  1.0
  Ni  Ni20  1  0.00000000  0.00000000  0.96072000  1.0
  Ni  Ni21  1  0.00000000  0.50000000  0.96072000  1.0
  Ni  Ni22  1  0.03097000  0.50000000  0.11248000  1.0
  Ni  Ni23  1  0.94788000  0.00000000  0.11894000  1.0
  C  C24  1  0.25779000  0.00000000  0.12760000  1.0
