# generated using pymatgen
data_Li16Pb8Au8C
_symmetry_space_group_name_H-M   'P 1'
_cell_length_a   9.64550000
_cell_length_b   6.82040000
_cell_length_c   27.23410000
_cell_angle_alpha   90.00000000
_cell_angle_beta   90.00000000
_cell_angle_gamma   90.00000000
_symmetry_Int_Tables_number   1
_chemical_formula_structural   Li16Pb8Au8C
_chemical_formula_sum   'Li16 Pb8 Au8 C1'
_cell_volume   1791.62708338
_cell_formula_units_Z   1
loop_
 _symmetry_equiv_pos_site_id
 _symmetry_equiv_pos_as_xyz
  1  'x, y, z'
loop_
 _atom_site_type_symbol
 _atom_site_label
 _atom_site_symmetry_multiplicity
 _atom_site_fract_x
 _atom_site_fract_y
 _atom_site_fract_z
 _atom_site_occupancy
  Li  Li0  1  0.50000000  1.00000000  0.04427000  1.0
  Li  Li1  1  0.75000000  0.50000000  0.13281000  1.0
  Li  Li2  1  0.00000000  0.00000000  0.04427000  1.0
  Li  Li3  1  0.25000000  0.50000000  0.13281000  1.0
  Li  Li4  1  0.75000000  0.25000000  0.04427000  1.0
  Li  Li5  1  0.25000000  0.25000000  0.04427000  1.0
  Li  Li6  1  0.50000000  0.75000000  0.13281000  1.0
  Li  Li7  1  0.00000000  0.75000000  0.13281000  1.0
  Li  Li8  1  0.00000000  0.01251000  0.87196000  1.0
  Li  Li9  1  0.25059000  0.50247000  0.96307000  1.0
  Li  Li10  1  0.50000000  0.97669000  0.87204000  1.0
  Li  Li11  1  0.74941000  0.50247000  0.96307000  1.0
  Li  Li12  1  0.27264000  0.30165000  0.87766000  1.0
  Li  Li13  1  0.72736000  0.30165000  0.87766000  1.0
  Li  Li14  1  0.00000000  0.71735000  0.94358000  1.0
  Li  Li15  1  0.50000000  0.70698000  0.94808000  1.0
  Pb  Pb16  1  0.75000000  0.00000000  0.13281000  1.0
  Pb  Pb17  1  0.00000000  0.50000000  0.04427000  1.0
  Pb  Pb18  1  0.50000000  0.50000000  0.04427000  1.0
  Pb  Pb19  1  0.25000000  0.00000000  0.13281000  1.0
  Pb  Pb20  1  0.25303000  0.00335000  0.95539000  1.0
  Pb  Pb21  1  0.50000000  0.54093000  0.84590000  1.0
  Pb  Pb22  1  0.00000000  0.41685000  0.83506000  1.0
  Pb  Pb23  1  0.74697000  0.00335000  0.95539000  1.0
  Au  Au24  1  0.00000000  0.25000000  0.13281000  1.0
  Au  Au25  1  0.50000000  0.25000000  0.13281000  1.0
  Au  Au26  1  0.25000000  0.75000000  0.04427000  1.0
  Au  Au27  1  0.75000000  0.75000000  0.04427000  1.0
  Au  Au28  1  0.50000000  0.28129000  0.94155000  1.0
  Au  Au29  1  0.00000000  0.26684000  0.95147000  1.0
  Au  Au30  1  0.77262000  0.70773000  0.87660000  1.0
  Au  Au31  1  0.22738000  0.70773000  0.87660000  1.0
  C  C32  1  0.00000000  0.71951000  0.86426000  1.0
