# generated using pymatgen
data_Li16Pb8Au8C
_symmetry_space_group_name_H-M   Pm
_cell_length_a   6.82040000
_cell_length_b   9.64550000
_cell_length_c   27.23410000
_cell_angle_alpha   90.00000000
_cell_angle_beta   90.00000000
_cell_angle_gamma   90.00000000
_symmetry_Int_Tables_number   6
_chemical_formula_structural   Li16Pb8Au8C
_chemical_formula_sum   'Li16 Pb8 Au8 C1'
_cell_volume   1791.62708338
_cell_formula_units_Z   1
loop_
 _symmetry_equiv_pos_site_id
 _symmetry_equiv_pos_as_xyz
  1  'x, y, z'
  2  'x, -y, z'
loop_
 _atom_site_type_symbol
 _atom_site_label
 _atom_site_symmetry_multiplicity
 _atom_site_fract_x
 _atom_site_fract_y
 _atom_site_fract_z
 _atom_site_occupancy
  Li  Li0  2  0.25000000  0.25000000  0.95573000  1.0
  Li  Li1  2  0.30165000  0.27264000  0.12234000  1.0
  Li  Li2  2  0.50000000  0.25000000  0.86719000  1.0
  Li  Li3  2  0.50247000  0.25059000  0.03693000  1.0
  Li  Li4  1  -0.00000000  0.50000000  0.95573000  1.0
  Li  Li5  1  0.00000000  0.00000000  0.95573000  1.0
  Li  Li6  1  0.01251000  0.00000000  0.12804000  1.0
  Li  Li7  1  0.70698000  0.50000000  0.05192000  1.0
  Li  Li8  1  0.71735000  0.00000000  0.05642000  1.0
  Li  Li9  1  0.75000000  0.00000000  0.86719000  1.0
  Li  Li10  1  0.75000000  0.50000000  0.86719000  1.0
  Li  Li11  1  0.97669000  0.50000000  0.12796000  1.0
  Pb  Pb12  2  0.00000000  0.25000000  0.86719000  1.0
  Pb  Pb13  2  0.00335000  0.25303000  0.04461000  1.0
  Pb  Pb14  1  0.41685000  0.00000000  0.16494000  1.0
  Pb  Pb15  1  0.50000000  0.00000000  0.95573000  1.0
  Pb  Pb16  1  0.50000000  0.50000000  0.95573000  1.0
  Pb  Pb17  1  0.54093000  0.50000000  0.15410000  1.0
  Au  Au18  2  0.70773000  0.22738000  0.12340000  1.0
  Au  Au19  2  0.75000000  0.25000000  0.95573000  1.0
  Au  Au20  1  0.25000000  0.00000000  0.86719000  1.0
  Au  Au21  1  0.25000000  0.50000000  0.86719000  1.0
  Au  Au22  1  0.26684000  0.00000000  0.04853000  1.0
  Au  Au23  1  0.28129000  0.50000000  0.05845000  1.0
  C  C24  1  0.71951000  0.00000000  0.13574000  1.0
