# generated using pymatgen
data_Sc8Ni16Sn8CO
_symmetry_space_group_name_H-M   'P 1'
_cell_length_a   8.93131000
_cell_length_b   6.31539000
_cell_length_c   26.69850000
_cell_angle_alpha   90.00000000
_cell_angle_beta   90.00000000
_cell_angle_gamma   90.00000000
_symmetry_Int_Tables_number   1
_chemical_formula_structural   Sc8Ni16Sn8CO
_chemical_formula_sum   'Sc8 Ni16 Sn8 C1 O1'
_cell_volume   1505.92103943
_cell_formula_units_Z   1
loop_
 _symmetry_equiv_pos_site_id
 _symmetry_equiv_pos_as_xyz
  1  'x, y, z'
loop_
 _atom_site_type_symbol
 _atom_site_label
 _atom_site_symmetry_multiplicity
 _atom_site_fract_x
 _atom_site_fract_y
 _atom_site_fract_z
 _atom_site_occupancy
  Sc  Sc0  1  0.00000000  0.00000000  0.12545000  1.0
  Sc  Sc1  1  0.24999000  0.50000000  0.04182000  1.0
  Sc  Sc2  1  0.75001000  0.50000000  0.04182000  1.0
  Sc  Sc3  1  0.50000000  1.00000000  0.12545000  1.0
  Sc  Sc4  1  0.50000000  0.99842000  0.95929000  1.0
  Sc  Sc5  1  0.74712000  0.50123000  0.87259000  1.0
  Sc  Sc6  1  0.25288000  0.50123000  0.87259000  1.0
  Sc  Sc7  1  0.00000000  0.00190000  0.95836000  1.0
  Ni  Ni8  1  0.00000000  0.25000000  0.04182000  1.0
  Ni  Ni9  1  0.50000000  0.75000000  0.04182000  1.0
  Ni  Ni10  1  0.00000000  0.75000000  0.04182000  1.0
  Ni  Ni11  1  0.50000000  0.25000000  0.04182000  1.0
  Ni  Ni12  1  0.74999000  0.75000000  0.12545000  1.0
  Ni  Ni13  1  0.24999000  0.25000000  0.12545000  1.0
  Ni  Ni14  1  0.75001000  0.25000000  0.12545000  1.0
  Ni  Ni15  1  0.25001000  0.75000000  0.12545000  1.0
  Ni  Ni16  1  0.50000000  0.23589000  0.88081000  1.0
  Ni  Ni17  1  0.00000000  0.76600000  0.88294000  1.0
  Ni  Ni18  1  0.50000000  0.75978000  0.88017000  1.0
  Ni  Ni19  1  0.00000000  0.25064000  0.86925000  1.0
  Ni  Ni20  1  0.24903000  0.74116000  0.95534000  1.0
  Ni  Ni21  1  0.74982000  0.25692000  0.95380000  1.0
  Ni  Ni22  1  0.25018000  0.25692000  0.95380000  1.0
  Ni  Ni23  1  0.75097000  0.74116000  0.95534000  1.0
  Sn  Sn24  1  0.74999000  1.00000000  0.04182000  1.0
  Sn  Sn25  1  0.00000000  0.50000000  0.12545000  1.0
  Sn  Sn26  1  0.25001000  1.00000000  0.04182000  1.0
  Sn  Sn27  1  0.50000000  0.50000000  0.12545000  1.0
  Sn  Sn28  1  0.25108000  0.99624000  0.87145000  1.0
  Sn  Sn29  1  0.50000000  0.49949000  0.95840000  1.0
  Sn  Sn30  1  0.74892000  0.99624000  0.87145000  1.0
  Sn  Sn31  1  0.00000000  0.49472000  0.95776000  1.0
  C  C32  1  0.00000000  0.35024000  0.80788000  1.0
  O  O33  1  0.00000000  0.39831000  0.76574000  1.0
