# generated using pymatgen
data_Sc8Ni16Sn8CO
_symmetry_space_group_name_H-M   Pm
_cell_length_a   6.31539000
_cell_length_b   8.93131000
_cell_length_c   26.69850000
_cell_angle_alpha   90.00000000
_cell_angle_beta   90.00000000
_cell_angle_gamma   90.00000000
_symmetry_Int_Tables_number   6
_chemical_formula_structural   Sc8Ni16Sn8CO
_chemical_formula_sum   'Sc8 Ni16 Sn8 C1 O1'
_cell_volume   1505.92103943
_cell_formula_units_Z   1
loop_
 _symmetry_equiv_pos_site_id
 _symmetry_equiv_pos_as_xyz
  1  'x, y, z'
  2  'x, -y, z'
loop_
 _atom_site_type_symbol
 _atom_site_label
 _atom_site_symmetry_multiplicity
 _atom_site_fract_x
 _atom_site_fract_y
 _atom_site_fract_z
 _atom_site_occupancy
  Sc  Sc0  2  0.50000000  0.24999000  0.95818000  1.0
  Sc  Sc1  2  0.50123000  0.25288000  0.12741000  1.0
  Sc  Sc2  1  -0.00000000  0.50000000  0.87455000  1.0
  Sc  Sc3  1  0.00000000  0.00000000  0.87455000  1.0
  Sc  Sc4  1  0.00190000  0.00000000  0.04164000  1.0
  Sc  Sc5  1  0.99842000  0.50000000  0.04071000  1.0
  Ni  Ni6  2  0.25000000  0.24999000  0.87455000  1.0
  Ni  Ni7  2  0.25692000  0.25018000  0.04620000  1.0
  Ni  Ni8  2  0.74116000  0.24903000  0.04466000  1.0
  Ni  Ni9  2  0.75000000  0.25001000  0.87455000  1.0
  Ni  Ni10  1  0.23589000  0.50000000  0.11919000  1.0
  Ni  Ni11  1  0.25000000  0.00000000  0.95818000  1.0
  Ni  Ni12  1  0.25000000  0.50000000  0.95818000  1.0
  Ni  Ni13  1  0.25064000  0.00000000  0.13075000  1.0
  Ni  Ni14  1  0.75000000  0.00000000  0.95818000  1.0
  Ni  Ni15  1  0.75000000  0.50000000  0.95818000  1.0
  Ni  Ni16  1  0.75978000  0.50000000  0.11983000  1.0
  Ni  Ni17  1  0.76600000  0.00000000  0.11706000  1.0
  Sn  Sn18  2  -0.00000000  0.25001000  0.95818000  1.0
  Sn  Sn19  2  0.99624000  0.25108000  0.12855000  1.0
  Sn  Sn20  1  0.49472000  0.00000000  0.04224000  1.0
  Sn  Sn21  1  0.49949000  0.50000000  0.04160000  1.0
  Sn  Sn22  1  0.50000000  0.00000000  0.87455000  1.0
  Sn  Sn23  1  0.50000000  0.50000000  0.87455000  1.0
  C  C24  1  0.35024000  0.00000000  0.19212000  1.0
  O  O25  1  0.39831000  0.00000000  0.23426000  1.0
