# generated using pymatgen
data_Li4V4Ge4Pd4C
_symmetry_space_group_name_H-M   'P 1'
_cell_length_a   9.40562000
_cell_length_b   5.17268000
_cell_length_c   23.56350000
_cell_angle_alpha   90.00000000
_cell_angle_beta   90.00000000
_cell_angle_gamma   90.00000000
_symmetry_Int_Tables_number   1
_chemical_formula_structural   Li4V4Ge4Pd4C
_chemical_formula_sum   'Li4 V4 Ge4 Pd4 C1'
_cell_volume   1146.41758651
_cell_formula_units_Z   1
loop_
 _symmetry_equiv_pos_site_id
 _symmetry_equiv_pos_as_xyz
  1  'x, y, z'
loop_
 _atom_site_type_symbol
 _atom_site_label
 _atom_site_symmetry_multiplicity
 _atom_site_fract_x
 _atom_site_fract_y
 _atom_site_fract_z
 _atom_site_occupancy
  Li  Li0  1  0.25000000  0.15116000  0.02520000  1.0
  Li  Li1  1  0.22656000  0.46206000  0.91058000  1.0
  Li  Li2  1  0.75000000  0.15116000  0.02520000  1.0
  Li  Li3  1  0.77344000  0.46206000  0.91058000  1.0
  V  V4  1  0.00000000  0.50000000  0.07561000  1.0
  V  V5  1  0.00000000  0.69738000  0.97480000  1.0
  V  V6  1  0.50000000  0.50000000  0.07561000  1.0
  V  V7  1  0.50000000  0.67874000  0.99010000  1.0
  Ge  Ge8  1  0.00000000  0.00000000  0.07561000  1.0
  Ge  Ge9  1  0.00000000  0.17741000  0.95987000  1.0
  Ge  Ge10  1  0.50000000  0.00000000  0.07561000  1.0
  Ge  Ge11  1  0.50000000  0.18737000  0.96857000  1.0
  Pd  Pd12  1  0.25000000  0.65116000  0.02520000  1.0
  Pd  Pd13  1  0.27024000  0.95943000  0.93066000  1.0
  Pd  Pd14  1  0.75000000  0.65116000  0.02520000  1.0
  Pd  Pd15  1  0.72976000  0.95943000  0.93066000  1.0
  C  C16  1  0.00000000  0.48832000  0.91422000  1.0
