# generated using pymatgen
data_Li4V4Ge4Pd4C
_symmetry_space_group_name_H-M   Pm
_cell_length_a   5.17268000
_cell_length_b   9.40562000
_cell_length_c   23.56350000
_cell_angle_alpha   90.00000000
_cell_angle_beta   90.00000000
_cell_angle_gamma   90.00000000
_symmetry_Int_Tables_number   6
_chemical_formula_structural   Li4V4Ge4Pd4C
_chemical_formula_sum   'Li4 V4 Ge4 Pd4 C1'
_cell_volume   1146.41758651
_cell_formula_units_Z   1
loop_
 _symmetry_equiv_pos_site_id
 _symmetry_equiv_pos_as_xyz
  1  'x, y, z'
  2  'x, -y, z'
loop_
 _atom_site_type_symbol
 _atom_site_label
 _atom_site_symmetry_multiplicity
 _atom_site_fract_x
 _atom_site_fract_y
 _atom_site_fract_z
 _atom_site_occupancy
  Li  Li0  2  0.15116000  0.25000000  0.97480000  1.0
  Li  Li1  2  0.46206000  0.22656000  0.08942000  1.0
  V  V2  1  0.50000000  0.00000000  0.92439000  1.0
  V  V3  1  0.50000000  0.50000000  0.92439000  1.0
  V  V4  1  0.67874000  0.50000000  0.00990000  1.0
  V  V5  1  0.69738000  0.00000000  0.02520000  1.0
  Ge  Ge6  1  0.00000000  0.00000000  0.92439000  1.0
  Ge  Ge7  1  0.00000000  0.50000000  0.92439000  1.0
  Ge  Ge8  1  0.17741000  0.00000000  0.04013000  1.0
  Ge  Ge9  1  0.18737000  0.50000000  0.03143000  1.0
  Pd  Pd10  2  0.65116000  0.25000000  0.97480000  1.0
  Pd  Pd11  2  0.95943000  0.27024000  0.06934000  1.0
  C  C12  1  0.48832000  0.00000000  0.08578000  1.0
