# generated using pymatgen
data_Hf8In8Ni16CO
_symmetry_space_group_name_H-M   'P 1'
_cell_length_a   6.30953000
_cell_length_b   8.92302000
_cell_length_c   26.69230000
_cell_angle_alpha   90.00000000
_cell_angle_beta   90.00000000
_cell_angle_gamma   90.00000000
_symmetry_Int_Tables_number   1
_chemical_formula_structural   Hf8In8Ni16CO
_chemical_formula_sum   'Hf8 In8 Ni16 C1 O1'
_cell_volume   1502.77815508
_cell_formula_units_Z   1
loop_
 _symmetry_equiv_pos_site_id
 _symmetry_equiv_pos_as_xyz
  1  'x, y, z'
loop_
 _atom_site_type_symbol
 _atom_site_label
 _atom_site_symmetry_multiplicity
 _atom_site_fract_x
 _atom_site_fract_y
 _atom_site_fract_z
 _atom_site_occupancy
  Hf  Hf0  1  0.00000000  0.75001000  0.87464000  1.0
  Hf  Hf1  1  0.50000000  0.00000000  0.95821000  1.0
  Hf  Hf2  1  0.50000000  0.50000000  0.95821000  1.0
  Hf  Hf3  1  0.00000000  0.24999000  0.87464000  1.0
  Hf  Hf4  1  0.00000000  0.24983000  0.04363000  1.0
  Hf  Hf5  1  0.50000000  0.50000000  0.12344000  1.0
  Hf  Hf6  1  0.50000000  0.00000000  0.12336000  1.0
  Hf  Hf7  1  0.00000000  0.75017000  0.04363000  1.0
  In  In8  1  0.00000000  0.50000000  0.95821000  1.0
  In  In9  1  0.50000000  0.75001000  0.87464000  1.0
  In  In10  1  0.00000000  0.00000000  0.95821000  1.0
  In  In11  1  0.50000000  0.24999000  0.87464000  1.0
  In  In12  1  0.00000000  0.00000000  0.13325000  1.0
  In  In13  1  0.50000000  0.25103000  0.03994000  1.0
  In  In14  1  0.00000000  0.50000000  0.13416000  1.0
  In  In15  1  0.50000000  0.74897000  0.03994000  1.0
  Ni  Ni16  1  0.24996000  0.75001000  0.95821000  1.0
  Ni  Ni17  1  0.75004000  0.24999000  0.95821000  1.0
  Ni  Ni18  1  0.75004000  0.75001000  0.95821000  1.0
  Ni  Ni19  1  0.24996000  0.24999000  0.95821000  1.0
  Ni  Ni20  1  0.74996000  0.50000000  0.87464000  1.0
  Ni  Ni21  1  0.24996000  0.00000000  0.87464000  1.0
  Ni  Ni22  1  0.25004000  0.50000000  0.87464000  1.0
  Ni  Ni23  1  0.75004000  0.00000000  0.87464000  1.0
  Ni  Ni24  1  0.25464000  0.25012000  0.12075000  1.0
  Ni  Ni25  1  0.74536000  0.74988000  0.12075000  1.0
  Ni  Ni26  1  0.74536000  0.25012000  0.12075000  1.0
  Ni  Ni27  1  0.25464000  0.74988000  0.12075000  1.0
  Ni  Ni28  1  0.74680000  0.00000000  0.04423000  1.0
  Ni  Ni29  1  0.24902000  0.50000000  0.04478000  1.0
  Ni  Ni30  1  0.25320000  0.00000000  0.04423000  1.0
  Ni  Ni31  1  0.75098000  0.50000000  0.04478000  1.0
  C  C32  1  0.00000000  0.00000000  0.28350000  1.0
  O  O33  1  0.00000000  0.00000000  0.32603000  1.0
