# generated using pymatgen
data_Li8In8Ir8Pd8CO
_symmetry_space_group_name_H-M   'P 1'
_cell_length_a   8.95988000
_cell_length_b   6.33559000
_cell_length_c   26.71990000
_cell_angle_alpha   90.00000000
_cell_angle_beta   90.00000000
_cell_angle_gamma   90.00000000
_symmetry_Int_Tables_number   1
_chemical_formula_structural   Li8In8Ir8Pd8CO
_chemical_formula_sum   'Li8 In8 Ir8 Pd8 C1 O1'
_cell_volume   1516.78521356
_cell_formula_units_Z   1
loop_
 _symmetry_equiv_pos_site_id
 _symmetry_equiv_pos_as_xyz
  1  'x, y, z'
loop_
 _atom_site_type_symbol
 _atom_site_label
 _atom_site_symmetry_multiplicity
 _atom_site_fract_x
 _atom_site_fract_y
 _atom_site_fract_z
 _atom_site_occupancy
  Li  Li0  1  0.00000000  0.00000000  0.04192000  1.0
  Li  Li1  1  0.50000000  0.00000000  0.04192000  1.0
  Li  Li2  1  0.24998000  0.50000000  0.12575000  1.0
  Li  Li3  1  0.75002000  0.50000000  0.12575000  1.0
  Li  Li4  1  0.50000000  0.00480000  0.86795000  1.0
  Li  Li5  1  0.00000000  0.00185000  0.86857000  1.0
  Li  Li6  1  0.74969000  0.49733000  0.95899000  1.0
  Li  Li7  1  0.25031000  0.49733000  0.95899000  1.0
  In  In8  1  0.74998000  0.00000000  0.12575000  1.0
  In  In9  1  0.25002000  0.00000000  0.12575000  1.0
  In  In10  1  0.50000000  0.50000000  0.04192000  1.0
  In  In11  1  0.00000000  0.50000000  0.04192000  1.0
  In  In12  1  0.25010000  0.99698000  0.95979000  1.0
  In  In13  1  0.74990000  0.99698000  0.95979000  1.0
  In  In14  1  0.00000000  0.49115000  0.86694000  1.0
  In  In15  1  0.50000000  0.49175000  0.86676000  1.0
  Ir  Ir16  1  0.74998000  0.25000000  0.04192000  1.0
  Ir  Ir17  1  0.25002000  0.25000000  0.04192000  1.0
  Ir  Ir18  1  0.00000000  0.75000000  0.12575000  1.0
  Ir  Ir19  1  0.50000000  0.75000000  0.12575000  1.0
  Ir  Ir20  1  0.24993000  0.25777000  0.88074000  1.0
  Ir  Ir21  1  0.75007000  0.25777000  0.88074000  1.0
  Ir  Ir22  1  0.50000000  0.74538000  0.95492000  1.0
  Ir  Ir23  1  0.00000000  0.74460000  0.95496000  1.0
  Pd  Pd24  1  0.74998000  0.75000000  0.04192000  1.0
  Pd  Pd25  1  0.25002000  0.75000000  0.04192000  1.0
  Pd  Pd26  1  0.00000000  0.25000000  0.12575000  1.0
  Pd  Pd27  1  0.50000000  0.25000000  0.12575000  1.0
  Pd  Pd28  1  0.25052000  0.74165000  0.87912000  1.0
  Pd  Pd29  1  0.74948000  0.74165000  0.87912000  1.0
  Pd  Pd30  1  0.50000000  0.25088000  0.95696000  1.0
  Pd  Pd31  1  0.00000000  0.25086000  0.95712000  1.0
  C  C32  1  0.00000000  0.58568000  0.72957000  1.0
  O  O33  1  0.00000000  0.45768000  0.69982000  1.0
