# generated using pymatgen
data_Ag24Pt8CO
_symmetry_space_group_name_H-M   'P 1'
_cell_length_a   8.32195000
_cell_length_b   8.32195000
_cell_length_c   26.24150000
_cell_angle_alpha   90.00000000
_cell_angle_beta   90.00000000
_cell_angle_gamma   90.00000000
_symmetry_Int_Tables_number   1
_chemical_formula_structural   Ag24Pt8CO
_chemical_formula_sum   'Ag24 Pt8 C1 O1'
_cell_volume   1817.35119358
_cell_formula_units_Z   1
loop_
 _symmetry_equiv_pos_site_id
 _symmetry_equiv_pos_as_xyz
  1  'x, y, z'
loop_
 _atom_site_type_symbol
 _atom_site_label
 _atom_site_symmetry_multiplicity
 _atom_site_fract_x
 _atom_site_fract_y
 _atom_site_fract_z
 _atom_site_occupancy
  Ag  Ag0  1  0.00000000  0.25000000  0.03964000  1.0
  Ag  Ag1  1  0.25000000  0.00000000  0.03964000  1.0
  Ag  Ag2  1  0.25000000  0.25000000  0.11892000  1.0
  Ag  Ag3  1  0.00000000  0.25000000  0.88108000  1.0
  Ag  Ag4  1  0.25000000  0.00000000  0.88108000  1.0
  Ag  Ag5  1  0.25000000  0.25000000  0.96036000  1.0
  Ag  Ag6  1  0.00000000  0.75000000  0.03964000  1.0
  Ag  Ag7  1  0.25000000  0.50000000  0.03964000  1.0
  Ag  Ag8  1  0.25000000  0.75000000  0.11892000  1.0
  Ag  Ag9  1  0.00000000  0.75000000  0.88108000  1.0
  Ag  Ag10  1  0.25000000  0.50000000  0.88108000  1.0
  Ag  Ag11  1  0.25000000  0.75000000  0.96036000  1.0
  Ag  Ag12  1  0.50000000  0.25000000  0.03964000  1.0
  Ag  Ag13  1  0.75000000  0.00000000  0.03964000  1.0
  Ag  Ag14  1  0.75000000  0.25000000  0.11892000  1.0
  Ag  Ag15  1  0.50000000  0.25000000  0.88108000  1.0
  Ag  Ag16  1  0.75000000  0.00000000  0.88108000  1.0
  Ag  Ag17  1  0.75000000  0.25000000  0.96036000  1.0
  Ag  Ag18  1  0.50000000  0.75000000  0.03964000  1.0
  Ag  Ag19  1  0.75000000  0.50000000  0.03964000  1.0
  Ag  Ag20  1  0.75000000  0.75000000  0.11892000  1.0
  Ag  Ag21  1  0.50000000  0.75000000  0.88108000  1.0
  Ag  Ag22  1  0.75000000  0.50000000  0.88108000  1.0
  Ag  Ag23  1  0.75000000  0.75000000  0.96036000  1.0
  Pt  Pt24  1  0.00000000  0.00000000  0.11892000  1.0
  Pt  Pt25  1  0.00000000  0.00000000  0.96036000  1.0
  Pt  Pt26  1  0.00000000  0.50000000  0.11892000  1.0
  Pt  Pt27  1  0.00000000  0.50000000  0.96036000  1.0
  Pt  Pt28  1  0.50000000  0.00000000  0.11892000  1.0
  Pt  Pt29  1  0.50000000  0.00000000  0.96036000  1.0
  Pt  Pt30  1  0.50000000  0.50000000  0.11892000  1.0
  Pt  Pt31  1  0.50000000  0.50000000  0.96036000  1.0
  C  C32  1  0.00000000  0.00000000  0.19133000  1.0
  O  O33  1  0.00000000  0.00000000  0.23515000  1.0
