# generated using pymatgen
data_V3Au
_symmetry_space_group_name_H-M   Pmm2
_cell_length_a   3.89046500
_cell_length_b   5.50195000
_cell_length_c   24.12650000
_cell_angle_alpha   90.00000000
_cell_angle_beta   90.00000000
_cell_angle_gamma   90.00000000
_symmetry_Int_Tables_number   25
_chemical_formula_structural   V3Au
_chemical_formula_sum   'V6 Au2'
_cell_volume   516.43120447
_cell_formula_units_Z   2
loop_
 _symmetry_equiv_pos_site_id
 _symmetry_equiv_pos_as_xyz
  1  'x, y, z'
  2  '-x, -y, z'
  3  '-x, y, z'
  4  'x, -y, z'
loop_
 _atom_site_type_symbol
 _atom_site_label
 _atom_site_symmetry_multiplicity
 _atom_site_fract_x
 _atom_site_fract_y
 _atom_site_fract_z
 _atom_site_occupancy
  V  V0  2  0.50000000  0.24999000  0.91448000  1.0
  V  V1  2  0.50000000  0.25178000  0.02613500  1.0
  V  V2  1  0.00000000  0.00000000  0.07556000  1.0
  V  V3  1  0.00000000  0.50000000  0.97149000  1.0
  Au  Au4  1  0.00000000  0.00000000  0.97149000  1.0
  Au  Au5  1  0.00000000  0.50000000  0.08724000  1.0
