# generated using pymatgen
data_Mn8Co16Sb8CO
_symmetry_space_group_name_H-M   'P 1'
_cell_length_a   8.54165000
_cell_length_b   6.03986000
_cell_length_c   26.40620000
_cell_angle_alpha   90.00000000
_cell_angle_beta   90.00000000
_cell_angle_gamma   90.00000000
_symmetry_Int_Tables_number   1
_chemical_formula_structural   Mn8Co16Sb8CO
_chemical_formula_sum   'Mn8 Co16 Sb8 C1 O1'
_cell_volume   1362.30563276
_cell_formula_units_Z   1
loop_
 _symmetry_equiv_pos_site_id
 _symmetry_equiv_pos_as_xyz
  1  'x, y, z'
loop_
 _atom_site_type_symbol
 _atom_site_label
 _atom_site_symmetry_multiplicity
 _atom_site_fract_x
 _atom_site_fract_y
 _atom_site_fract_z
 _atom_site_occupancy
  Mn  Mn0  1  0.50000000  0.00000000  0.12130000  1.0
  Mn  Mn1  1  0.75001000  0.50000000  0.04043000  1.0
  Mn  Mn2  1  0.24999000  0.50000000  0.04043000  1.0
  Mn  Mn3  1  0.00000000  1.00000000  0.12130000  1.0
  Mn  Mn4  1  0.00000000  0.00097000  0.96104000  1.0
  Mn  Mn5  1  0.23784000  0.50313000  0.87826000  1.0
  Mn  Mn6  1  0.76216000  0.50313000  0.87826000  1.0
  Mn  Mn7  1  0.50000000  0.99993000  0.95839000  1.0
  Co  Co8  1  0.50000000  0.25000000  0.04043000  1.0
  Co  Co9  1  0.00000000  0.75000000  0.04043000  1.0
  Co  Co10  1  0.50000000  0.75000000  0.04043000  1.0
  Co  Co11  1  0.00000000  0.25000000  0.04043000  1.0
  Co  Co12  1  0.25001000  0.75000000  0.12130000  1.0
  Co  Co13  1  0.75001000  0.25000000  0.12130000  1.0
  Co  Co14  1  0.24999000  0.25000000  0.12130000  1.0
  Co  Co15  1  0.74999000  0.75000000  0.12130000  1.0
  Co  Co16  1  0.00000000  0.23767000  0.88539000  1.0
  Co  Co17  1  0.50000000  0.74493000  0.88139000  1.0
  Co  Co18  1  0.00000000  0.76685000  0.88476000  1.0
  Co  Co19  1  0.50000000  0.27272000  0.88025000  1.0
  Co  Co20  1  0.74914000  0.75498000  0.95874000  1.0
  Co  Co21  1  0.25226000  0.24650000  0.95869000  1.0
  Co  Co22  1  0.74774000  0.24650000  0.95869000  1.0
  Co  Co23  1  0.25086000  0.75498000  0.95874000  1.0
  Sb  Sb24  1  0.25001000  1.00000000  0.04043000  1.0
  Sb  Sb25  1  0.50000000  0.50000000  0.12130000  1.0
  Sb  Sb26  1  0.74999000  1.00000000  0.04043000  1.0
  Sb  Sb27  1  0.00000000  0.50000000  0.12130000  1.0
  Sb  Sb28  1  0.74744000  0.00457000  0.87213000  1.0
  Sb  Sb29  1  0.00000000  0.50088000  0.95973000  1.0
  Sb  Sb30  1  0.25256000  0.00457000  0.87213000  1.0
  Sb  Sb31  1  0.50000000  0.50210000  0.96146000  1.0
  C  C32  1  0.50000000  0.45216000  0.82680000  1.0
  O  O33  1  0.50000000  0.52524000  0.78519000  1.0
