# generated using pymatgen
data_Mn8Co16Sb8CO
_symmetry_space_group_name_H-M   Pm
_cell_length_a   6.03986000
_cell_length_b   8.54165000
_cell_length_c   26.40620000
_cell_angle_alpha   90.00000000
_cell_angle_beta   90.00000000
_cell_angle_gamma   90.00000000
_symmetry_Int_Tables_number   6
_chemical_formula_structural   Mn8Co16Sb8CO
_chemical_formula_sum   'Mn8 Co16 Sb8 C1 O1'
_cell_volume   1362.30563276
_cell_formula_units_Z   1
loop_
 _symmetry_equiv_pos_site_id
 _symmetry_equiv_pos_as_xyz
  1  'x, y, z'
  2  'x, -y, z'
loop_
 _atom_site_type_symbol
 _atom_site_label
 _atom_site_symmetry_multiplicity
 _atom_site_fract_x
 _atom_site_fract_y
 _atom_site_fract_z
 _atom_site_occupancy
  Mn  Mn0  2  0.50000000  0.24999000  0.95957000  1.0
  Mn  Mn1  2  0.50313000  0.23784000  0.12174000  1.0
  Mn  Mn2  1  -0.00000000  0.00000000  0.87870000  1.0
  Mn  Mn3  1  0.00000000  0.50000000  0.87870000  1.0
  Mn  Mn4  1  0.00097000  0.00000000  0.03896000  1.0
  Mn  Mn5  1  0.99993000  0.50000000  0.04161000  1.0
  Co  Co6  2  0.24650000  0.25226000  0.04131000  1.0
  Co  Co7  2  0.25000000  0.24999000  0.87870000  1.0
  Co  Co8  2  0.75000000  0.25001000  0.87870000  1.0
  Co  Co9  2  0.75498000  0.25086000  0.04126000  1.0
  Co  Co10  1  0.23767000  0.00000000  0.11461000  1.0
  Co  Co11  1  0.25000000  0.00000000  0.95957000  1.0
  Co  Co12  1  0.25000000  0.50000000  0.95957000  1.0
  Co  Co13  1  0.27272000  0.50000000  0.11975000  1.0
  Co  Co14  1  0.74493000  0.50000000  0.11861000  1.0
  Co  Co15  1  0.75000000  0.00000000  0.95957000  1.0
  Co  Co16  1  0.75000000  0.50000000  0.95957000  1.0
  Co  Co17  1  0.76685000  0.00000000  0.11524000  1.0
  Sb  Sb18  2  -0.00000000  0.25001000  0.95957000  1.0
  Sb  Sb19  2  0.00457000  0.25256000  0.12787000  1.0
  Sb  Sb20  1  0.50000000  0.00000000  0.87870000  1.0
  Sb  Sb21  1  0.50000000  0.50000000  0.87870000  1.0
  Sb  Sb22  1  0.50088000  0.00000000  0.04027000  1.0
  Sb  Sb23  1  0.50210000  0.50000000  0.03854000  1.0
  C  C24  1  0.45216000  0.50000000  0.17320000  1.0
  O  O25  1  0.52524000  0.50000000  0.21481000  1.0
