# generated using pymatgen
data_Li8Mg16Ga8CO
_symmetry_space_group_name_H-M   P1
_cell_length_a   6.69031000
_cell_length_b   9.46152000
_cell_length_c   27.09610000
_cell_angle_alpha   90.00000000
_cell_angle_beta   90.00000000
_cell_angle_gamma   90.00000000
_symmetry_Int_Tables_number   1
_chemical_formula_structural   Li8Mg16Ga8CO
_chemical_formula_sum   'Li8 Mg16 Ga8 C1 O1'
_cell_volume   1715.19672875
_cell_formula_units_Z   1
loop_
 _symmetry_equiv_pos_site_id
 _symmetry_equiv_pos_as_xyz
  1  'x, y, z'
loop_
 _atom_site_type_symbol
 _atom_site_label
 _atom_site_symmetry_multiplicity
 _atom_site_fract_x
 _atom_site_fract_y
 _atom_site_fract_z
 _atom_site_occupancy
  Li  Li0  1  0.00000000  0.00000000  0.86906000  1.0
  Li  Li1  1  0.00000000  0.50000000  0.86906000  1.0
  Li  Li2  1  0.49870000  0.75024000  0.14509000  1.0
  Li  Li3  1  0.50000000  0.25000000  0.95635000  1.0
  Li  Li4  1  0.50000000  0.75000000  0.95635000  1.0
  Li  Li5  1  0.50074000  0.24988000  0.14418000  1.0
  Li  Li6  1  0.99935000  0.49938000  0.04697000  1.0
  Li  Li7  1  0.99974000  0.99864000  0.04695000  1.0
  Mg  Mg8  1  0.23982000  0.00104000  0.13801000  1.0
  Mg  Mg9  1  0.24005000  0.49809000  0.13785000  1.0
  Mg  Mg10  1  0.25000000  0.00000000  0.95635000  1.0
  Mg  Mg11  1  0.25000000  0.25000000  0.86906000  1.0
  Mg  Mg12  1  0.25000000  0.50000000  0.95635000  1.0
  Mg  Mg13  1  0.25000000  0.75000000  0.86906000  1.0
  Mg  Mg14  1  0.25074000  0.74931000  0.04740000  1.0
  Mg  Mg15  1  0.25168000  0.24929000  0.04741000  1.0
  Mg  Mg16  1  0.74810000  0.24909000  0.04718000  1.0
  Mg  Mg17  1  0.74918000  0.74910000  0.04762000  1.0
  Mg  Mg18  1  0.75000000  0.00000000  0.95635000  1.0
  Mg  Mg19  1  0.75000000  0.25000000  0.86906000  1.0
  Mg  Mg20  1  0.75000000  0.50000000  0.95635000  1.0
  Mg  Mg21  1  0.75000000  0.75000000  0.86906000  1.0
  Mg  Mg22  1  0.75906000  0.49959000  0.13793000  1.0
  Mg  Mg23  1  0.75951000  0.99992000  0.13805000  1.0
  Ga  Ga24  1  0.00000000  0.25000000  0.95635000  1.0
  Ga  Ga25  1  0.00000000  0.75000000  0.95635000  1.0
  Ga  Ga26  1  0.00060000  0.75016000  0.13444000  1.0
  Ga  Ga27  1  0.49968000  0.99911000  0.04702000  1.0
  Ga  Ga28  1  0.50000000  0.00000000  0.86906000  1.0
  Ga  Ga29  1  0.50000000  0.50000000  0.86906000  1.0
  Ga  Ga30  1  0.50019000  0.49966000  0.04707000  1.0
  Ga  Ga31  1  0.99854000  0.25029000  0.13403000  1.0
  C  C32  1  0.08891000  0.27602000  0.28857000  1.0
  O  O33  1  0.94000000  0.24122000  0.30465000  1.0
