# generated using pymatgen
data_K8Na16Sb8CO
_symmetry_space_group_name_H-M   Pm
_cell_length_a   11.09050000
_cell_length_b   7.84214000
_cell_length_c   28.31780000
_cell_angle_alpha   90.00000000
_cell_angle_beta   90.00000000
_cell_angle_gamma   90.00000000
_symmetry_Int_Tables_number   6
_chemical_formula_structural   K8Na16Sb8CO
_chemical_formula_sum   'K8 Na16 Sb8 C1 O1'
_cell_volume   2462.89120278
_cell_formula_units_Z   1
loop_
 _symmetry_equiv_pos_site_id
 _symmetry_equiv_pos_as_xyz
  1  'x, y, z'
  2  'x, -y, z'
loop_
 _atom_site_type_symbol
 _atom_site_label
 _atom_site_symmetry_multiplicity
 _atom_site_fract_x
 _atom_site_fract_y
 _atom_site_fract_z
 _atom_site_occupancy
  K  K0  1  0.00000000  0.00000000  0.85313000  1.0
  K  K1  1  0.25000000  0.50000000  0.95104000  1.0
  K  K2  1  0.25281000  0.50000000  0.15906000  1.0
  K  K3  1  0.50000000  0.00000000  0.85313000  1.0
  K  K4  1  0.50486000  0.00000000  0.04624000  1.0
  K  K5  1  0.75000000  0.50000000  0.95104000  1.0
  K  K6  1  0.75344000  0.50000000  0.16309000  1.0
  K  K7  1  0.99827000  0.00000000  0.04667000  1.0
  Na  Na8  2  0.00000000  0.25000000  0.95104000  1.0
  Na  Na9  2  0.00349000  0.20598000  0.15038000  1.0
  Na  Na10  2  0.25000000  0.25000000  0.85313000  1.0
  Na  Na11  2  0.25132000  0.25926000  0.05437000  1.0
  Na  Na12  2  0.50000000  0.25000000  0.95104000  1.0
  Na  Na13  2  0.50115000  0.20579000  0.14967000  1.0
  Na  Na14  2  0.75000000  0.25000000  0.85313000  1.0
  Na  Na15  2  0.75185000  0.26497000  0.05606000  1.0
  Sb  Sb16  1  0.00000000  0.50000000  0.85313000  1.0
  Sb  Sb17  1  0.00204000  0.50000000  0.05781000  1.0
  Sb  Sb18  1  0.25000000  0.00000000  0.95104000  1.0
  Sb  Sb19  1  0.25293000  0.00000000  0.14272000  1.0
  Sb  Sb20  1  0.50000000  0.50000000  0.85313000  1.0
  Sb  Sb21  1  0.50096000  0.50000000  0.05755000  1.0
  Sb  Sb22  1  0.75000000  0.00000000  0.95104000  1.0
  Sb  Sb23  1  0.75207000  0.00000000  0.14295000  1.0
  C  C24  1  0.18270000  0.00000000  0.29043000  1.0
  O  O25  1  0.27606000  0.00000000  0.30707000  1.0
