# generated using pymatgen
data_Ti4Co12C
_symmetry_space_group_name_H-M   'P 1'
_cell_length_a   7.25233000
_cell_length_b   5.12817000
_cell_length_c   23.84610000
_cell_angle_alpha   90.00000000
_cell_angle_beta   90.00000000
_cell_angle_gamma   90.00000000
_symmetry_Int_Tables_number   1
_chemical_formula_structural   Ti4Co12C
_chemical_formula_sum   'Ti4 Co12 C1'
_cell_volume   886.86462449
_cell_formula_units_Z   1
loop_
 _symmetry_equiv_pos_site_id
 _symmetry_equiv_pos_as_xyz
  1  'x, y, z'
loop_
 _atom_site_type_symbol
 _atom_site_label
 _atom_site_symmetry_multiplicity
 _atom_site_fract_x
 _atom_site_fract_y
 _atom_site_fract_z
 _atom_site_occupancy
  Ti  Ti0  1  0.76033000  0.00465000  0.07246000  1.0
  Ti  Ti1  1  0.75000000  0.50000000  0.97312000  1.0
  Ti  Ti2  1  0.23967000  0.00465000  0.07246000  1.0
  Ti  Ti3  1  0.25000000  0.50000000  0.97312000  1.0
  Co  Co4  1  0.75160000  0.50382000  0.07596000  1.0
  Co  Co5  1  0.50000000  0.24730000  0.02600000  1.0
  Co  Co6  1  0.50000000  0.76094000  0.02619000  1.0
  Co  Co7  1  0.75000000  0.00000000  0.97312000  1.0
  Co  Co8  1  0.50000000  0.75000000  0.91936000  1.0
  Co  Co9  1  0.50000000  0.25000000  0.91936000  1.0
  Co  Co10  1  0.24840000  0.50382000  0.07596000  1.0
  Co  Co11  1  0.00000000  0.25394000  0.02653000  1.0
  Co  Co12  1  0.00000000  0.75257000  0.02677000  1.0
  Co  Co13  1  0.25000000  0.00000000  0.97312000  1.0
  Co  Co14  1  0.00000000  0.75000000  0.91936000  1.0
  Co  Co15  1  0.00000000  0.25000000  0.91936000  1.0
  C  C16  1  0.50000000  0.50410000  0.08387000  1.0
