# generated using pymatgen
data_Hf8Al8Ni16C
_symmetry_space_group_name_H-M   'P 1'
_cell_length_a   6.09317000
_cell_length_b   8.61704000
_cell_length_c   26.46280000
_cell_angle_alpha   90.00000000
_cell_angle_beta   90.00000000
_cell_angle_gamma   90.00000000
_symmetry_Int_Tables_number   1
_chemical_formula_structural   Hf8Al8Ni16C
_chemical_formula_sum   'Hf8 Al8 Ni16 C1'
_cell_volume   1389.43168551
_cell_formula_units_Z   1
loop_
 _symmetry_equiv_pos_site_id
 _symmetry_equiv_pos_as_xyz
  1  'x, y, z'
loop_
 _atom_site_type_symbol
 _atom_site_label
 _atom_site_symmetry_multiplicity
 _atom_site_fract_x
 _atom_site_fract_y
 _atom_site_fract_z
 _atom_site_occupancy
  Hf  Hf0  1  0.00000000  0.00000000  0.87789000  1.0
  Hf  Hf1  1  0.50000000  0.25000000  0.95930000  1.0
  Hf  Hf2  1  0.50000000  0.75000000  0.95930000  1.0
  Hf  Hf3  1  0.00000000  0.50000000  0.87789000  1.0
  Hf  Hf4  1  0.00000000  0.50000000  0.03984000  1.0
  Hf  Hf5  1  0.50000000  0.73894000  0.12475000  1.0
  Hf  Hf6  1  0.50000000  0.26106000  0.12475000  1.0
  Hf  Hf7  1  0.00000000  0.00000000  0.04160000  1.0
  Al  Al8  1  0.00000000  0.75000000  0.95930000  1.0
  Al  Al9  1  0.50000000  0.00000000  0.87789000  1.0
  Al  Al10  1  0.00000000  0.25000000  0.95930000  1.0
  Al  Al11  1  0.50000000  0.50000000  0.87789000  1.0
  Al  Al12  1  0.00000000  0.24467000  0.12186000  1.0
  Al  Al13  1  0.50000000  0.50000000  0.04191000  1.0
  Al  Al14  1  0.00000000  0.75533000  0.12186000  1.0
  Al  Al15  1  0.50000000  0.00000000  0.04061000  1.0
  Ni  Ni16  1  0.25000000  0.00000000  0.95930000  1.0
  Ni  Ni17  1  0.75000000  0.50000000  0.95930000  1.0
  Ni  Ni18  1  0.75000000  0.00000000  0.95930000  1.0
  Ni  Ni19  1  0.25000000  0.50000000  0.95930000  1.0
  Ni  Ni20  1  0.75000000  0.75000000  0.87789000  1.0
  Ni  Ni21  1  0.25000000  0.25000000  0.87789000  1.0
  Ni  Ni22  1  0.25000000  0.75000000  0.87789000  1.0
  Ni  Ni23  1  0.75000000  0.25000000  0.87789000  1.0
  Ni  Ni24  1  0.22761000  0.50000000  0.11919000  1.0
  Ni  Ni25  1  0.70829000  0.00000000  0.12180000  1.0
  Ni  Ni26  1  0.77239000  0.50000000  0.11919000  1.0
  Ni  Ni27  1  0.29171000  0.00000000  0.12180000  1.0
  Ni  Ni28  1  0.73582000  0.25274000  0.04260000  1.0
  Ni  Ni29  1  0.26418000  0.74726000  0.04260000  1.0
  Ni  Ni30  1  0.26418000  0.25274000  0.04260000  1.0
  Ni  Ni31  1  0.73582000  0.74726000  0.04260000  1.0
  C  C32  1  0.00000000  0.00000000  0.13231000  1.0
