# generated using pymatgen
data_Y8Cu8Ge8Pd8C
_symmetry_space_group_name_H-M   'P 1'
_cell_length_a   9.30776000
_cell_length_b   6.58158000
_cell_length_c   26.98080000
_cell_angle_alpha   90.00000000
_cell_angle_beta   90.00000000
_cell_angle_gamma   90.00000000
_symmetry_Int_Tables_number   1
_chemical_formula_structural   Y8Cu8Ge8Pd8C
_chemical_formula_sum   'Y8 Cu8 Ge8 Pd8 C1'
_cell_volume   1652.83752311
_cell_formula_units_Z   1
loop_
 _symmetry_equiv_pos_site_id
 _symmetry_equiv_pos_as_xyz
  1  'x, y, z'
loop_
 _atom_site_type_symbol
 _atom_site_label
 _atom_site_symmetry_multiplicity
 _atom_site_fract_x
 _atom_site_fract_y
 _atom_site_fract_z
 _atom_site_occupancy
  Y  Y0  1  0.00000000  0.75000000  0.04312000  1.0
  Y  Y1  1  0.50000000  0.75000000  0.04312000  1.0
  Y  Y2  1  0.25000000  0.25000000  0.12937000  1.0
  Y  Y3  1  0.75000000  0.25000000  0.12937000  1.0
  Y  Y4  1  0.50000000  0.65201000  0.86026000  1.0
  Y  Y5  1  0.00000000  0.65373000  0.87374000  1.0
  Y  Y6  1  0.74149000  0.24189000  0.95194000  1.0
  Y  Y7  1  0.25851000  0.24189000  0.95194000  1.0
  Cu  Cu8  1  0.00000000  0.00000000  0.12937000  1.0
  Cu  Cu9  1  0.50000000  0.00000000  0.12937000  1.0
  Cu  Cu10  1  0.75000000  0.50000000  0.04312000  1.0
  Cu  Cu11  1  0.25000000  0.50000000  0.04312000  1.0
  Cu  Cu12  1  0.50000000  0.92859000  0.93914000  1.0
  Cu  Cu13  1  0.00000000  0.99558000  0.95230000  1.0
  Cu  Cu14  1  0.21975000  0.33606000  0.84383000  1.0
  Cu  Cu15  1  0.78025000  0.33606000  0.84383000  1.0
  Ge  Ge16  1  0.00000000  0.25000000  0.04312000  1.0
  Ge  Ge17  1  0.50000000  0.25000000  0.04312000  1.0
  Ge  Ge18  1  0.25000000  0.75000000  0.12937000  1.0
  Ge  Ge19  1  0.75000000  0.75000000  0.12937000  1.0
  Ge  Ge20  1  0.50000000  0.21098000  0.87156000  1.0
  Ge  Ge21  1  0.00000000  0.05583000  0.83660000  1.0
  Ge  Ge22  1  0.75352000  0.74451000  0.95877000  1.0
  Ge  Ge23  1  0.24648000  0.74451000  0.95877000  1.0
  Pd  Pd24  1  0.25000000  0.00000000  0.04312000  1.0
  Pd  Pd25  1  0.75000000  0.00000000  0.04312000  1.0
  Pd  Pd26  1  0.50000000  0.50000000  0.12937000  1.0
  Pd  Pd27  1  0.00000000  0.50000000  0.12937000  1.0
  Pd  Pd28  1  0.74368000  0.94244000  0.87402000  1.0
  Pd  Pd29  1  0.25632000  0.94244000  0.87402000  1.0
  Pd  Pd30  1  0.00000000  0.47752000  0.96673000  1.0
  Pd  Pd31  1  0.50000000  0.50757000  0.95757000  1.0
  C  C32  1  0.00000000  0.34154000  0.83793000  1.0
