# generated using pymatgen
data_Li4Y4In4Ge4CO
_symmetry_space_group_name_H-M   Pm
_cell_length_a   6.30439000
_cell_length_b   8.57642000
_cell_length_c   24.70800000
_cell_angle_alpha   90.00000000
_cell_angle_beta   90.00000000
_cell_angle_gamma   90.00000000
_symmetry_Int_Tables_number   6
_chemical_formula_structural   Li4Y4In4Ge4CO
_chemical_formula_sum   'Li4 Y4 In4 Ge4 C1 O1'
_cell_volume   1335.93923592
_cell_formula_units_Z   1
loop_
 _symmetry_equiv_pos_site_id
 _symmetry_equiv_pos_as_xyz
  1  'x, y, z'
  2  'x, -y, z'
loop_
 _atom_site_type_symbol
 _atom_site_label
 _atom_site_symmetry_multiplicity
 _atom_site_fract_x
 _atom_site_fract_y
 _atom_site_fract_z
 _atom_site_occupancy
  Li  Li0  1  0.15393000  0.50000000  0.08991000  1.0
  Li  Li1  1  0.15680000  0.00000000  0.09483000  1.0
  Li  Li2  1  0.72689000  0.00000000  0.96824000  1.0
  Li  Li3  1  0.72689000  0.50000000  0.96824000  1.0
  Y  Y4  1  0.22689000  0.00000000  0.96824000  1.0
  Y  Y5  1  0.22689000  0.50000000  0.96824000  1.0
  Y  Y6  1  0.64612000  0.50000000  0.09178000  1.0
  Y  Y7  1  0.64924000  0.00000000  0.09184000  1.0
  In  In8  2  0.50000000  0.25000000  0.90473000  1.0
  In  In9  2  0.92785000  0.24969000  0.02870000  1.0
  Ge  Ge10  2  0.00000000  0.25000000  0.90473000  1.0
  Ge  Ge11  2  0.40885000  0.25174000  0.04354000  1.0
  C  C12  1  0.68701000  0.00000000  0.19124000  1.0
  O  O13  1  0.69606000  0.00000000  0.23803000  1.0
