# generated using pymatgen
data_Li16Ag8Sb8C
_symmetry_space_group_name_H-M   Pm
_cell_length_a   6.69979000
_cell_length_b   9.47494000
_cell_length_c   27.10620000
_cell_angle_alpha   90.00000000
_cell_angle_beta   90.00000000
_cell_angle_gamma   90.00000000
_symmetry_Int_Tables_number   6
_chemical_formula_structural   Li16Ag8Sb8C
_chemical_formula_sum   'Li16 Ag8 Sb8 C1'
_cell_volume   1720.70451059
_cell_formula_units_Z   1
loop_
 _symmetry_equiv_pos_site_id
 _symmetry_equiv_pos_as_xyz
  1  'x, y, z'
  2  'x, -y, z'
loop_
 _atom_site_type_symbol
 _atom_site_label
 _atom_site_symmetry_multiplicity
 _atom_site_fract_x
 _atom_site_fract_y
 _atom_site_fract_z
 _atom_site_occupancy
  Li  Li0  2  0.25000000  0.25000000  0.95631000  1.0
  Li  Li1  2  0.26571000  0.21978000  0.13924000  1.0
  Li  Li2  2  0.48131000  0.25661000  0.04089000  1.0
  Li  Li3  2  0.50000000  0.25000000  0.86892000  1.0
  Li  Li4  1  -0.00000000  0.50000000  0.95631000  1.0
  Li  Li5  1  -0.00000000  0.00000000  0.95631000  1.0
  Li  Li6  1  0.01963000  0.50000000  0.12188000  1.0
  Li  Li7  1  0.73563000  0.50000000  0.04690000  1.0
  Li  Li8  1  0.75000000  0.00000000  0.86892000  1.0
  Li  Li9  1  0.75000000  0.50000000  0.86892000  1.0
  Li  Li10  1  0.75461000  0.00000000  0.04171000  1.0
  Li  Li11  1  0.96809000  0.00000000  0.13439000  1.0
  Ag  Ag12  2  0.71968000  0.27076000  0.12170000  1.0
  Ag  Ag13  2  0.75000000  0.25000000  0.95631000  1.0
  Ag  Ag14  1  0.25000000  0.00000000  0.86892000  1.0
  Ag  Ag15  1  0.25000000  0.50000000  0.86892000  1.0
  Ag  Ag16  1  0.25276000  0.50000000  0.03966000  1.0
  Ag  Ag17  1  0.26338000  0.00000000  0.05289000  1.0
  Sb  Sb18  2  0.00000000  0.25000000  0.86892000  1.0
  Sb  Sb19  2  0.00658000  0.25075000  0.04585000  1.0
  Sb  Sb20  1  0.46192000  0.50000000  0.13369000  1.0
  Sb  Sb21  1  0.50000000  0.00000000  0.95631000  1.0
  Sb  Sb22  1  0.50000000  0.50000000  0.95631000  1.0
  Sb  Sb23  1  0.56305000  0.00000000  0.14308000  1.0
  C  C24  1  0.25445000  0.00000000  0.14444000  1.0
