# generated using pymatgen
data_Li8Ag4Sb4C
_symmetry_space_group_name_H-M   P2
_cell_length_a   6.69979000
_cell_length_b   25.02480000
_cell_length_c   6.69979000
_cell_angle_alpha   90.00000000
_cell_angle_beta   90.00000000
_cell_angle_gamma   90.00000000
_symmetry_Int_Tables_number   3
_chemical_formula_structural   Li8Ag4Sb4C
_chemical_formula_sum   'Li8 Ag4 Sb4 C1'
_cell_volume   1123.29285332
_cell_formula_units_Z   1
loop_
 _symmetry_equiv_pos_site_id
 _symmetry_equiv_pos_as_xyz
  1  'x, y, z'
  2  '-x, y, -z'
loop_
 _atom_site_type_symbol
 _atom_site_label
 _atom_site_symmetry_multiplicity
 _atom_site_fract_x
 _atom_site_fract_y
 _atom_site_fract_z
 _atom_site_occupancy
  Li  Li0  2  0.25000000  0.96653000  0.25000000  1.0
  Li  Li1  2  0.27744000  0.12278000  0.77770000  1.0
  Li  Li2  1  0.00000000  0.02878000  0.00000000  1.0
  Li  Li3  1  0.00000000  0.89960000  0.50000000  1.0
  Li  Li4  1  0.50000000  0.02889000  0.50000000  1.0
  Li  Li5  1  0.50000000  0.89960000  0.00000000  1.0
  Ag  Ag6  2  0.25000000  0.96653000  0.75000000  1.0
  Ag  Ag7  2  0.26266000  0.10930000  0.23713000  1.0
  Sb  Sb8  1  0.00000000  0.05673000  0.50000000  1.0
  Sb  Sb9  1  0.00000000  0.89960000  0.00000000  1.0
  Sb  Sb10  1  0.50000000  0.02825000  0.00000000  1.0
  Sb  Sb11  1  0.50000000  0.89960000  0.50000000  1.0
  C  C12  1  0.50000000  0.11666000  0.00000000  1.0
