# generated using pymatgen
data_Li8Mg8Al8Pt8CO
_symmetry_space_group_name_H-M   'P 1'
_cell_length_a   8.83714000
_cell_length_b   6.24880000
_cell_length_c   26.62790000
_cell_angle_alpha   90.00000000
_cell_angle_beta   90.00000000
_cell_angle_gamma   90.00000000
_symmetry_Int_Tables_number   1
_chemical_formula_structural   Li8Mg8Al8Pt8CO
_chemical_formula_sum   'Li8 Mg8 Al8 Pt8 C1 O1'
_cell_volume   1470.43312391
_cell_formula_units_Z   1
loop_
 _symmetry_equiv_pos_site_id
 _symmetry_equiv_pos_as_xyz
  1  'x, y, z'
loop_
 _atom_site_type_symbol
 _atom_site_label
 _atom_site_symmetry_multiplicity
 _atom_site_fract_x
 _atom_site_fract_y
 _atom_site_fract_z
 _atom_site_occupancy
  Li  Li0  1  0.75001000  0.25000000  0.04148000  1.0
  Li  Li1  1  0.24999000  0.25000000  0.04148000  1.0
  Li  Li2  1  0.00000000  0.75000000  0.12445000  1.0
  Li  Li3  1  0.50000000  0.75000000  0.12445000  1.0
  Li  Li4  1  0.25094000  0.28898000  0.85979000  1.0
  Li  Li5  1  0.74906000  0.28898000  0.85979000  1.0
  Li  Li6  1  0.50000000  0.75933000  0.96107000  1.0
  Li  Li7  1  0.00000000  0.76034000  0.96111000  1.0
  Mg  Mg8  1  0.00000000  0.00000000  0.04148000  1.0
  Mg  Mg9  1  0.50000000  0.00000000  0.04148000  1.0
  Mg  Mg10  1  0.25001000  0.50000000  0.12445000  1.0
  Mg  Mg11  1  0.74999000  0.50000000  0.12445000  1.0
  Mg  Mg12  1  0.50000000  0.99785000  0.87191000  1.0
  Mg  Mg13  1  0.00000000  0.99471000  0.87239000  1.0
  Mg  Mg14  1  0.75047000  0.49385000  0.95938000  1.0
  Mg  Mg15  1  0.24953000  0.49385000  0.95938000  1.0
  Al  Al16  1  0.75001000  0.00000000  0.12445000  1.0
  Al  Al17  1  0.24999000  0.00000000  0.12445000  1.0
  Al  Al18  1  0.50000000  0.50000000  0.04148000  1.0
  Al  Al19  1  0.00000000  0.50000000  0.04148000  1.0
  Al  Al20  1  0.25062000  0.00929000  0.95571000  1.0
  Al  Al21  1  0.74938000  0.00929000  0.95571000  1.0
  Al  Al22  1  0.00000000  0.52552000  0.87986000  1.0
  Al  Al23  1  0.50000000  0.52799000  0.87896000  1.0
  Pt  Pt24  1  0.75001000  0.75000000  0.04148000  1.0
  Pt  Pt25  1  0.24999000  0.75000000  0.04148000  1.0
  Pt  Pt26  1  0.00000000  0.25000000  0.12445000  1.0
  Pt  Pt27  1  0.50000000  0.25000000  0.12445000  1.0
  Pt  Pt28  1  0.25180000  0.74605000  0.88246000  1.0
  Pt  Pt29  1  0.74820000  0.74605000  0.88246000  1.0
  Pt  Pt30  1  0.50000000  0.25130000  0.95922000  1.0
  Pt  Pt31  1  0.00000000  0.24925000  0.95768000  1.0
  C  C32  1  0.00000000  0.39054000  0.81222000  1.0
  O  O33  1  0.00000000  0.35828000  0.76866000  1.0
