# generated using pymatgen
data_FePd3
_symmetry_space_group_name_H-M   'P 1'
_cell_length_a   3.92801000
_cell_length_b   3.92801000
_cell_length_c   25.89200000
_cell_angle_alpha   90.00000000
_cell_angle_beta   90.00000000
_cell_angle_gamma   90.00000000
_symmetry_Int_Tables_number   1
_chemical_formula_structural   FePd3
_chemical_formula_sum   'Fe2 Pd6'
_cell_volume   399.49446621
_cell_formula_units_Z   2
loop_
 _symmetry_equiv_pos_site_id
 _symmetry_equiv_pos_as_xyz
  1  'x, y, z'
loop_
 _atom_site_type_symbol
 _atom_site_label
 _atom_site_symmetry_multiplicity
 _atom_site_fract_x
 _atom_site_fract_y
 _atom_site_fract_z
 _atom_site_occupancy
  Fe  Fe0  1  0.00000000  0.00000000  0.11378000  1.0
  Fe  Fe1  1  0.00000000  0.00000000  0.96207000  1.0
  Pd  Pd2  1  0.50000000  0.00000000  0.03793000  1.0
  Pd  Pd3  1  0.00000000  0.50000000  0.03793000  1.0
  Pd  Pd4  1  0.50000000  0.50000000  0.11378000  1.0
  Pd  Pd5  1  0.50000000  0.00000000  0.88622000  1.0
  Pd  Pd6  1  0.00000000  0.50000000  0.88622000  1.0
  Pd  Pd7  1  0.50000000  0.50000000  0.96207000  1.0
