data_image0
_chemical_formula_structural       Li8Ga4Ir4C
_chemical_formula_sum              "Li8 Ga4 Ir4 C1"
_cell_length_a       5.92875
_cell_length_b       5.92875
_cell_length_c       24.4466
_cell_angle_alpha    90
_cell_angle_beta     90
_cell_angle_gamma    90

_space_group_name_H-M_alt    "P 1"
_space_group_IT_number       1

loop_
  _space_group_symop_operation_xyz
  'x, y, z'

loop_
  _atom_site_type_symbol
  _atom_site_label
  _atom_site_symmetry_multiplicity
  _atom_site_fract_x
  _atom_site_fract_y
  _atom_site_fract_z
  _atom_site_occupancy
  Li  Li1       1.0  0.25000  0.25001  0.02816  1.0000
  Li  Li2       1.0  0.75000  0.75000  0.90906  1.0000
  Li  Li3       1.0  0.75000  0.24999  0.03512  1.0000
  Li  Li4       1.0  0.25000  0.75000  0.90906  1.0000
  Li  Li5       1.0  0.74999  0.75001  0.03222  1.0000
  Li  Li6       1.0  0.25000  0.25000  0.90906  1.0000
  Li  Li7       1.0  0.25001  0.75000  0.03515  1.0000
  Li  Li8       1.0  0.75000  0.25000  0.90906  1.0000
  Ga  Ga1       1.0  0.97743  0.97776  0.09995  1.0000
  Ga  Ga2       1.0  0.52261  0.52220  0.09995  1.0000
  Ga  Ga3       1.0  0.50000  0.00000  0.96969  1.0000
  Ga  Ga4       1.0  0.00000  0.50000  0.96969  1.0000
  Ir  Ir1       1.0  0.00000  0.00000  0.96969  1.0000
  Ir  Ir2       1.0  0.46924  0.03093  0.09856  1.0000
  Ir  Ir3       1.0  0.03072  0.46912  0.09855  1.0000
  Ir  Ir4       1.0  0.50000  0.50000  0.96969  1.0000
  C   C1        1.0  0.24998  0.25002  0.11518  1.0000
