# generated using pymatgen
data_Li8Ga4Ir4C
_symmetry_space_group_name_H-M   'P 1'
_cell_length_a   5.92875000
_cell_length_b   5.92875000
_cell_length_c   24.44660000
_cell_angle_alpha   90.00000000
_cell_angle_beta   90.00000000
_cell_angle_gamma   90.00000000
_symmetry_Int_Tables_number   1
_chemical_formula_structural   Li8Ga4Ir4C
_chemical_formula_sum   'Li8 Ga4 Ir4 C1'
_cell_volume   859.29986169
_cell_formula_units_Z   1
loop_
 _symmetry_equiv_pos_site_id
 _symmetry_equiv_pos_as_xyz
  1  'x, y, z'
loop_
 _atom_site_type_symbol
 _atom_site_label
 _atom_site_symmetry_multiplicity
 _atom_site_fract_x
 _atom_site_fract_y
 _atom_site_fract_z
 _atom_site_occupancy
  Li  Li0  1  0.00000000  0.00000000  0.97184000  1.0
  Li  Li1  1  0.50000000  0.50000000  0.09094000  1.0
  Li  Li2  1  0.50000000  0.00000000  0.96488000  1.0
  Li  Li3  1  0.00000000  0.50000000  0.09094000  1.0
  Li  Li4  1  0.50000000  0.50000000  0.96778000  1.0
  Li  Li5  1  0.00000000  0.00000000  0.09094000  1.0
  Li  Li6  1  0.00000000  0.50000000  0.96485000  1.0
  Li  Li7  1  0.50000000  0.00000000  0.09094000  1.0
  Ga  Ga8  1  0.72745000  0.72774000  0.90005000  1.0
  Ga  Ga9  1  0.27255000  0.27226000  0.90005000  1.0
  Ga  Ga10  1  0.25002000  0.74998000  0.03031000  1.0
  Ga  Ga11  1  0.74998000  0.25002000  0.03031000  1.0
  Ir  Ir12  1  0.75002000  0.74998000  0.03031000  1.0
  Ir  Ir13  1  0.21926000  0.78091000  0.90144000  1.0
  Ir  Ir14  1  0.78074000  0.21909000  0.90144000  1.0
  Ir  Ir15  1  0.24998000  0.25002000  0.03031000  1.0
  C  C16  1  0.00000000  0.00000000  0.88482000  1.0
