# generated using pymatgen
data_Li8Ga4Ir4C
_symmetry_space_group_name_H-M   P2
_cell_length_a   5.92875000
_cell_length_b   24.44660000
_cell_length_c   5.92875000
_cell_angle_alpha   90.00000000
_cell_angle_beta   90.00000000
_cell_angle_gamma   90.00000000
_symmetry_Int_Tables_number   3
_chemical_formula_structural   Li8Ga4Ir4C
_chemical_formula_sum   'Li8 Ga4 Ir4 C1'
_cell_volume   859.29986169
_cell_formula_units_Z   1
loop_
 _symmetry_equiv_pos_site_id
 _symmetry_equiv_pos_as_xyz
  1  'x, y, z'
  2  '-x, y, -z'
loop_
 _atom_site_type_symbol
 _atom_site_label
 _atom_site_symmetry_multiplicity
 _atom_site_fract_x
 _atom_site_fract_y
 _atom_site_fract_z
 _atom_site_occupancy
  Li  Li0  1  0.00000000  0.02816000  0.00000000  1.0
  Li  Li1  1  0.00000000  0.03512000  0.50000000  1.0
  Li  Li2  1  0.00000000  0.90906000  0.00000000  1.0
  Li  Li3  1  0.00000000  0.90906000  0.50000000  1.0
  Li  Li4  1  0.50000000  0.03222000  0.50000000  1.0
  Li  Li5  1  0.50000000  0.03515000  0.00000000  1.0
  Li  Li6  1  0.50000000  0.90906000  0.00000000  1.0
  Li  Li7  1  0.50000000  0.90906000  0.50000000  1.0
  Ga  Ga8  2  0.25002000  0.96969000  0.74998000  1.0
  Ga  Ga9  2  0.27226000  0.09995000  0.27255000  1.0
  Ir  Ir10  2  0.21909000  0.09856000  0.78074000  1.0
  Ir  Ir11  2  0.25002000  0.96969000  0.24998000  1.0
  C  C12  1  0.00000000  0.11518000  0.00000000  1.0
