# generated using pymatgen
data_Li4Al4In4Pd4CO
_symmetry_space_group_name_H-M   Cm
_cell_length_a   9.04374017
_cell_length_b   9.04374017
_cell_length_c   24.79620000
_cell_angle_alpha   90.00000000
_cell_angle_beta   90.00000000
_cell_angle_gamma   90.00000000
_symmetry_Int_Tables_number   8
_chemical_formula_structural   Li4Al4In4Pd4CO
_chemical_formula_sum   'Li8 Al8 In8 Pd8 C2 O2'
_cell_volume   2028.06225926
_cell_formula_units_Z   2
loop_
 _symmetry_equiv_pos_site_id
 _symmetry_equiv_pos_as_xyz
  1  'x, y, z'
  2  '-x+1/2, -y, z'
  3  '-x+1/2, y, z'
  4  'x, -y, z'
  5  'x+1/2, y+1/2, z'
  6  '-x, -y+1/2, z'
  7  '-x, y+1/2, z'
  8  'x+1/2, -y+1/2, z'
loop_
 _atom_site_type_symbol
 _atom_site_label
 _atom_site_symmetry_multiplicity
 _atom_site_fract_x
 _atom_site_fract_y
 _atom_site_fract_z
 _atom_site_occupancy
  Li  Li0  4  0.00002500  0.24997500  0.96776000  1.0
  Li  Li1  2  0.25002500  0.00000000  0.11188000  1.0
  Li  Li2  2  0.25002500  0.50000000  0.11155000  1.0
  Al  Al3  4  0.00002500  0.50000000  0.90329000  1.0
  Al  Al4  4  0.25003000  0.24974000  0.03733000  1.0
  In  In5  4  0.00081000  0.00000000  0.03471000  1.0
  In  In6  4  0.25002500  0.24997500  0.90329000  1.0
  Pd  Pd7  4  0.00003500  0.25002500  0.09039000  1.0
  Pd  Pd8  2  0.25002500  0.00000000  0.96776000  1.0
  Pd  Pd9  2  0.25002500  0.50000000  0.96776000  1.0
  C  C10  2  0.25007000  0.00000000  0.19638000  1.0
  O  O11  2  0.25006500  0.00000000  0.24235000  1.0
