# generated using pymatgen
data_Li4In4Ag8C
_symmetry_space_group_name_H-M   'P 1'
_cell_length_a   6.74000000
_cell_length_b   6.74000000
_cell_length_c   25.05500000
_cell_angle_alpha   90.00000000
_cell_angle_beta   90.00000000
_cell_angle_gamma   90.00000000
_symmetry_Int_Tables_number   1
_chemical_formula_structural   Li4In4Ag8C
_chemical_formula_sum   'Li4 In4 Ag8 C1'
_cell_volume   1138.18851800
_cell_formula_units_Z   1
loop_
 _symmetry_equiv_pos_site_id
 _symmetry_equiv_pos_as_xyz
  1  'x, y, z'
loop_
 _atom_site_type_symbol
 _atom_site_label
 _atom_site_symmetry_multiplicity
 _atom_site_fract_x
 _atom_site_fract_y
 _atom_site_fract_z
 _atom_site_occupancy
  Li  Li0  1  0.00000000  0.00000000  0.89912000  1.0
  Li  Li1  1  0.50000000  0.50000000  0.89912000  1.0
  Li  Li2  1  0.50000000  0.00000000  0.03363000  1.0
  Li  Li3  1  0.00000000  0.50000000  0.03363000  1.0
  In  In4  1  0.00000000  0.00000000  0.03363000  1.0
  In  In5  1  0.50000000  0.00000000  0.89912000  1.0
  In  In6  1  0.00000000  0.50000000  0.89912000  1.0
  In  In7  1  0.50000000  0.50000000  0.03363000  1.0
  Ag  Ag8  1  0.25000000  0.25000000  0.96637000  1.0
  Ag  Ag9  1  0.75000000  0.75000000  0.10088000  1.0
  Ag  Ag10  1  0.75000000  0.25000000  0.96637000  1.0
  Ag  Ag11  1  0.25000000  0.75000000  0.10088000  1.0
  Ag  Ag12  1  0.75000000  0.75000000  0.96637000  1.0
  Ag  Ag13  1  0.25000000  0.25000000  0.10088000  1.0
  Ag  Ag14  1  0.25000000  0.75000000  0.96637000  1.0
  Ag  Ag15  1  0.75000000  0.25000000  0.10088000  1.0
  C  C16  1  0.00000000  0.00000000  0.13281000  1.0
