# generated using pymatgen
data_Ta4Ga4Ni8CO
_symmetry_space_group_name_H-M   'P 1'
_cell_length_a   6.00328000
_cell_length_b   6.00328000
_cell_length_c   24.50250000
_cell_angle_alpha   90.00000000
_cell_angle_beta   90.00000000
_cell_angle_gamma   90.00000000
_symmetry_Int_Tables_number   1
_chemical_formula_structural   Ta4Ga4Ni8CO
_chemical_formula_sum   'Ta4 Ga4 Ni8 C1 O1'
_cell_volume   883.05468201
_cell_formula_units_Z   1
loop_
 _symmetry_equiv_pos_site_id
 _symmetry_equiv_pos_as_xyz
  1  'x, y, z'
loop_
 _atom_site_type_symbol
 _atom_site_label
 _atom_site_symmetry_multiplicity
 _atom_site_fract_x
 _atom_site_fract_y
 _atom_site_fract_z
 _atom_site_occupancy
  Ta  Ta0  1  0.99995000  0.99992000  0.08862000  1.0
  Ta  Ta1  1  0.50003000  0.50021000  0.08805000  1.0
  Ta  Ta2  1  0.50000000  0.00000000  0.96937000  1.0
  Ta  Ta3  1  0.00000000  0.50000000  0.96937000  1.0
  Ga  Ga4  1  0.00000000  0.00000000  0.96937000  1.0
  Ga  Ga5  1  0.50010000  0.00009000  0.09426000  1.0
  Ga  Ga6  1  0.99995000  0.50041000  0.09420000  1.0
  Ga  Ga7  1  0.50000000  0.50000000  0.96937000  1.0
  Ni  Ni8  1  0.24130000  0.25677000  0.03352000  1.0
  Ni  Ni9  1  0.75000000  0.75000000  0.90812000  1.0
  Ni  Ni10  1  0.75901000  0.25684000  0.03350000  1.0
  Ni  Ni11  1  0.25000000  0.75000000  0.90812000  1.0
  Ni  Ni12  1  0.75787000  0.74359000  0.03354000  1.0
  Ni  Ni13  1  0.25000000  0.25000000  0.90812000  1.0
  Ni  Ni14  1  0.24142000  0.74319000  0.03341000  1.0
  Ni  Ni15  1  0.75000000  0.25000000  0.90812000  1.0
  C  C16  1  0.00000000  0.49999000  0.17526000  1.0
  O  O17  1  0.99988000  0.50001000  0.22269000  1.0
