# generated using pymatgen
data_Y4In4Cu8C
_symmetry_space_group_name_H-M   'P 1'
_cell_length_a   6.69979000
_cell_length_b   6.69979000
_cell_length_c   25.02480000
_cell_angle_alpha   90.00000000
_cell_angle_beta   90.00000000
_cell_angle_gamma   90.00000000
_symmetry_Int_Tables_number   1
_chemical_formula_structural   Y4In4Cu8C
_chemical_formula_sum   'Y4 In4 Cu8 C1'
_cell_volume   1123.29285332
_cell_formula_units_Z   1
loop_
 _symmetry_equiv_pos_site_id
 _symmetry_equiv_pos_as_xyz
  1  'x, y, z'
loop_
 _atom_site_type_symbol
 _atom_site_label
 _atom_site_symmetry_multiplicity
 _atom_site_fract_x
 _atom_site_fract_y
 _atom_site_fract_z
 _atom_site_occupancy
  Y  Y0  1  0.75000000  0.25000000  0.10040000  1
  Y  Y1  1  0.25000000  0.75000000  0.10040000  1
  Y  Y2  1  0.75000000  0.75000000  0.96653000  1
  Y  Y3  1  0.25000000  0.25000000  0.96653000  1
  In  In4  1  0.75000000  0.25000000  0.96653000  1
  In  In5  1  0.75000000  0.75000000  0.10040000  1
  In  In6  1  0.25000000  0.25000000  0.10040000  1
  In  In7  1  0.25000000  0.75000000  0.96653000  1
  Cu  Cu8  1  0.50000000  0.50000000  0.03347000  1
  Cu  Cu9  1  0.00000000  0.00000000  0.89960000  1
  Cu  Cu10  1  0.50000000  0.00000000  0.03347000  1
  Cu  Cu11  1  0.00000000  0.50000000  0.89960000  1
  Cu  Cu12  1  0.00000000  0.00000000  0.03347000  1
  Cu  Cu13  1  0.50000000  0.50000000  0.89960000  1
  Cu  Cu14  1  0.00000000  0.50000000  0.03347000  1
  Cu  Cu15  1  0.50000000  0.00000000  0.89960000  1
  C  C16  1  0.50000000  0.50000000  0.13237000  1
