# generated using pymatgen
data_Li8Mg8Cu8Ge8C
_symmetry_space_group_name_H-M   'P 1'
_cell_length_a   8.73308000
_cell_length_b   6.17522000
_cell_length_c   26.54980000
_cell_angle_alpha   90.00000000
_cell_angle_beta   90.00000000
_cell_angle_gamma   90.00000000
_symmetry_Int_Tables_number   1
_chemical_formula_structural   Li8Mg8Cu8Ge8C
_chemical_formula_sum   'Li8 Mg8 Cu8 Ge8 C1'
_cell_volume   1431.79594113
_cell_formula_units_Z   1
loop_
 _symmetry_equiv_pos_site_id
 _symmetry_equiv_pos_as_xyz
  1  'x, y, z'
loop_
 _atom_site_type_symbol
 _atom_site_label
 _atom_site_symmetry_multiplicity
 _atom_site_fract_x
 _atom_site_fract_y
 _atom_site_fract_z
 _atom_site_occupancy
  Li  Li0  1  0.00000000  0.00000000  0.04112000  1.0
  Li  Li1  1  0.50000000  0.00000000  0.04112000  1.0
  Li  Li2  1  0.25000000  0.50000000  0.12335000  1.0
  Li  Li3  1  0.75000000  0.50000000  0.12335000  1.0
  Li  Li4  1  0.50000000  0.13531000  0.82336000  1.0
  Li  Li5  1  0.00000000  0.97677000  0.83010000  1.0
  Li  Li6  1  0.74959000  0.51218000  0.95411000  1.0
  Li  Li7  1  0.25041000  0.51218000  0.95411000  1.0
  Mg  Mg8  1  0.75000000  0.75000000  0.04112000  1.0
  Mg  Mg9  1  0.25000000  0.75000000  0.04112000  1.0
  Mg  Mg10  1  0.00000000  0.25000000  0.12335000  1.0
  Mg  Mg11  1  0.50000000  0.25000000  0.12335000  1.0
  Mg  Mg12  1  0.28458000  0.77405000  0.86720000  1.0
  Mg  Mg13  1  0.71542000  0.77405000  0.86720000  1.0
  Mg  Mg14  1  0.50000000  0.23098000  0.95469000  1.0
  Mg  Mg15  1  0.00000000  0.23518000  0.94985000  1.0
  Cu  Cu16  1  0.75000000  0.00000000  0.12335000  1.0
  Cu  Cu17  1  0.25000000  0.00000000  0.12335000  1.0
  Cu  Cu18  1  0.50000000  0.50000000  0.04112000  1.0
  Cu  Cu19  1  0.00000000  0.50000000  0.04112000  1.0
  Cu  Cu20  1  0.24991000  0.99568000  0.96059000  1.0
  Cu  Cu21  1  0.75009000  0.99568000  0.96059000  1.0
  Cu  Cu22  1  0.00000000  0.57748000  0.87811000  1.0
  Cu  Cu23  1  0.50000000  0.48582000  0.87678000  1.0
  Ge  Ge24  1  0.75000000  0.25000000  0.04112000  1.0
  Ge  Ge25  1  0.25000000  0.25000000  0.04112000  1.0
  Ge  Ge26  1  0.00000000  0.75000000  0.12335000  1.0
  Ge  Ge27  1  0.50000000  0.75000000  0.12335000  1.0
  Ge  Ge28  1  0.22831000  0.22572000  0.87128000  1.0
  Ge  Ge29  1  0.77169000  0.22572000  0.87128000  1.0
  Ge  Ge30  1  0.50000000  0.75821000  0.95444000  1.0
  Ge  Ge31  1  0.00000000  0.76892000  0.95755000  1.0
  C  C32  1  0.00000000  0.27682000  0.86127000  1.0
