# generated using pymatgen
data_Y8Cu8Ge8Pd8CO
_symmetry_space_group_name_H-M   'P 1'
_cell_length_a   9.30776000
_cell_length_b   6.58158000
_cell_length_c   26.98080000
_cell_angle_alpha   90.00000000
_cell_angle_beta   90.00000000
_cell_angle_gamma   90.00000000
_symmetry_Int_Tables_number   1
_chemical_formula_structural   Y8Cu8Ge8Pd8CO
_chemical_formula_sum   'Y8 Cu8 Ge8 Pd8 C1 O1'
_cell_volume   1652.83752311
_cell_formula_units_Z   1
loop_
 _symmetry_equiv_pos_site_id
 _symmetry_equiv_pos_as_xyz
  1  'x, y, z'
loop_
 _atom_site_type_symbol
 _atom_site_label
 _atom_site_symmetry_multiplicity
 _atom_site_fract_x
 _atom_site_fract_y
 _atom_site_fract_z
 _atom_site_occupancy
  Y  Y0  1  0.00000000  0.75000000  0.04312000  1.0
  Y  Y1  1  0.50000000  0.75000000  0.04312000  1.0
  Y  Y2  1  0.25000000  0.25000000  0.12937000  1.0
  Y  Y3  1  0.75000000  0.25000000  0.12937000  1.0
  Y  Y4  1  0.50000000  0.65381000  0.86029000  1.0
  Y  Y5  1  0.00000000  0.65196000  0.85928000  1.0
  Y  Y6  1  0.74929000  0.23353000  0.95359000  1.0
  Y  Y7  1  0.25071000  0.23353000  0.95359000  1.0
  Cu  Cu8  1  0.00000000  0.00000000  0.12937000  1.0
  Cu  Cu9  1  0.50000000  0.00000000  0.12937000  1.0
  Cu  Cu10  1  0.75000000  0.50000000  0.04312000  1.0
  Cu  Cu11  1  0.25000000  0.50000000  0.04312000  1.0
  Cu  Cu12  1  0.50000000  0.93133000  0.94089000  1.0
  Cu  Cu13  1  0.00000000  0.93057000  0.94130000  1.0
  Cu  Cu14  1  0.24969000  0.33572000  0.84761000  1.0
  Cu  Cu15  1  0.75031000  0.33572000  0.84761000  1.0
  Ge  Ge16  1  0.00000000  0.25000000  0.04312000  1.0
  Ge  Ge17  1  0.50000000  0.25000000  0.04312000  1.0
  Ge  Ge18  1  0.25000000  0.75000000  0.12937000  1.0
  Ge  Ge19  1  0.75000000  0.75000000  0.12937000  1.0
  Ge  Ge20  1  0.50000000  0.20150000  0.87311000  1.0
  Ge  Ge21  1  0.00000000  0.19921000  0.87472000  1.0
  Ge  Ge22  1  0.75002000  0.73281000  0.95929000  1.0
  Ge  Ge23  1  0.24998000  0.73281000  0.95929000  1.0
  Pd  Pd24  1  0.25000000  0.00000000  0.04312000  1.0
  Pd  Pd25  1  0.75000000  0.00000000  0.04312000  1.0
  Pd  Pd26  1  0.50000000  0.50000000  0.12937000  1.0
  Pd  Pd27  1  0.00000000  0.50000000  0.12937000  1.0
  Pd  Pd28  1  0.74811000  0.93357000  0.87482000  1.0
  Pd  Pd29  1  0.25189000  0.93357000  0.87482000  1.0
  Pd  Pd30  1  0.00000000  0.49303000  0.95807000  1.0
  Pd  Pd31  1  0.50000000  0.49669000  0.95711000  1.0
  C  C32  1  0.00000000  0.49377000  0.77590000  1.0
  O  O33  1  0.00000000  0.42443000  0.73672000  1.0
