# generated using pymatgen
data_Y8Cu8Ge8Pd8CO
_symmetry_space_group_name_H-M   Pm
_cell_length_a   6.58158000
_cell_length_b   9.30776000
_cell_length_c   26.98080000
_cell_angle_alpha   90.00000000
_cell_angle_beta   90.00000000
_cell_angle_gamma   90.00000000
_symmetry_Int_Tables_number   6
_chemical_formula_structural   Y8Cu8Ge8Pd8CO
_chemical_formula_sum   'Y8 Cu8 Ge8 Pd8 C1 O1'
_cell_volume   1652.83752311
_cell_formula_units_Z   1
loop_
 _symmetry_equiv_pos_site_id
 _symmetry_equiv_pos_as_xyz
  1  'x, y, z'
  2  'x, -y, z'
loop_
 _atom_site_type_symbol
 _atom_site_label
 _atom_site_symmetry_multiplicity
 _atom_site_fract_x
 _atom_site_fract_y
 _atom_site_fract_z
 _atom_site_occupancy
  Y  Y0  2  0.23353000  0.25071000  0.04641000  1.0
  Y  Y1  2  0.25000000  0.25000000  0.87063000  1.0
  Y  Y2  1  0.65196000  0.00000000  0.14072000  1.0
  Y  Y3  1  0.65381000  0.50000000  0.13971000  1.0
  Y  Y4  1  0.75000000  0.00000000  0.95688000  1.0
  Y  Y5  1  0.75000000  0.50000000  0.95688000  1.0
  Cu  Cu6  2  0.33572000  0.24969000  0.15239000  1.0
  Cu  Cu7  2  0.50000000  0.25000000  0.95688000  1.0
  Cu  Cu8  1  0.00000000  0.00000000  0.87063000  1.0
  Cu  Cu9  1  0.00000000  0.50000000  0.87063000  1.0
  Cu  Cu10  1  0.93057000  0.00000000  0.05870000  1.0
  Cu  Cu11  1  0.93133000  0.50000000  0.05911000  1.0
  Ge  Ge12  2  0.73281000  0.24998000  0.04071000  1.0
  Ge  Ge13  2  0.75000000  0.25000000  0.87063000  1.0
  Ge  Ge14  1  0.19921000  0.00000000  0.12528000  1.0
  Ge  Ge15  1  0.20150000  0.50000000  0.12689000  1.0
  Ge  Ge16  1  0.25000000  0.00000000  0.95688000  1.0
  Ge  Ge17  1  0.25000000  0.50000000  0.95688000  1.0
  Pd  Pd18  2  0.00000000  0.25000000  0.95688000  1.0
  Pd  Pd19  2  0.93357000  0.25189000  0.12518000  1.0
  Pd  Pd20  1  0.49303000  0.00000000  0.04193000  1.0
  Pd  Pd21  1  0.49669000  0.50000000  0.04289000  1.0
  Pd  Pd22  1  0.50000000  0.00000000  0.87063000  1.0
  Pd  Pd23  1  0.50000000  0.50000000  0.87063000  1.0
  C  C24  1  0.49377000  0.00000000  0.22410000  1.0
  O  O25  1  0.42443000  0.00000000  0.26328000  1.0
