# generated using pymatgen
data_Al8Pt8C
_symmetry_space_group_name_H-M   'P 1'
_cell_length_a   6.19423000
_cell_length_b   6.19423000
_cell_length_c   24.64570000
_cell_angle_alpha   90.00000000
_cell_angle_beta   90.00000000
_cell_angle_gamma   90.00000000
_symmetry_Int_Tables_number   1
_chemical_formula_structural   Al8Pt8C
_chemical_formula_sum   'Al8 Pt8 C1'
_cell_volume   945.61817798
_cell_formula_units_Z   1
loop_
 _symmetry_equiv_pos_site_id
 _symmetry_equiv_pos_as_xyz
  1  'x, y, z'
loop_
 _atom_site_type_symbol
 _atom_site_label
 _atom_site_symmetry_multiplicity
 _atom_site_fract_x
 _atom_site_fract_y
 _atom_site_fract_z
 _atom_site_occupancy
  Al  Al0  1  0.25000000  0.25000000  0.94480000  1.0
  Al  Al1  1  0.25000000  0.25000000  0.07047000  1.0
  Al  Al2  1  0.25000000  0.75000000  0.94480000  1.0
  Al  Al3  1  0.25000000  0.75000000  0.07047000  1.0
  Al  Al4  1  0.75000000  0.25000000  0.94480000  1.0
  Al  Al5  1  0.75000000  0.25000000  0.07047000  1.0
  Al  Al6  1  0.75000000  0.75000000  0.94480000  1.0
  Al  Al7  1  0.75000000  0.75000000  0.07047000  1.0
  Pt  Pt8  1  0.00000000  0.00000000  0.88197000  1.0
  Pt  Pt9  1  0.00000000  0.00000000  0.00763000  1.0
  Pt  Pt10  1  0.00000000  0.50000000  0.88197000  1.0
  Pt  Pt11  1  0.00000000  0.50000000  0.00763000  1.0
  Pt  Pt12  1  0.50000000  0.00000000  0.88197000  1.0
  Pt  Pt13  1  0.50000000  0.00000000  0.00763000  1.0
  Pt  Pt14  1  0.50000000  0.50000000  0.88197000  1.0
  Pt  Pt15  1  0.50000000  0.50000000  0.00763000  1.0
  C  C16  1  0.00000000  0.00000000  0.10293000  1.0
