# generated using pymatgen
data_Mn8Ni16Ge8CO
_symmetry_space_group_name_H-M   'P 1'
_cell_length_a   5.84248000
_cell_length_b   8.26252000
_cell_length_c   26.19690000
_cell_angle_alpha   90.00000000
_cell_angle_beta   90.00000000
_cell_angle_gamma   90.00000000
_symmetry_Int_Tables_number   1
_chemical_formula_structural   Mn8Ni16Ge8CO
_chemical_formula_sum   'Mn8 Ni16 Ge8 C1 O1'
_cell_volume   1264.61887748
_cell_formula_units_Z   1
loop_
 _symmetry_equiv_pos_site_id
 _symmetry_equiv_pos_as_xyz
  1  'x, y, z'
loop_
 _atom_site_type_symbol
 _atom_site_label
 _atom_site_symmetry_multiplicity
 _atom_site_fract_x
 _atom_site_fract_y
 _atom_site_fract_z
 _atom_site_occupancy
  Mn  Mn0  1  0.00000000  0.75001000  0.88172000  1.0
  Mn  Mn1  1  0.50000000  0.00000000  0.96057000  1.0
  Mn  Mn2  1  0.50000000  0.50000000  0.96057000  1.0
  Mn  Mn3  1  0.00000000  0.24999000  0.88172000  1.0
  Mn  Mn4  1  0.00000000  0.24986000  0.03755000  1.0
  Mn  Mn5  1  0.50000000  0.50000000  0.12457000  1.0
  Mn  Mn6  1  0.50000000  0.00000000  0.12471000  1.0
  Mn  Mn7  1  0.00000000  0.75014000  0.03755000  1.0
  Ni  Ni8  1  0.24998000  0.75001000  0.96057000  1.0
  Ni  Ni9  1  0.75002000  0.24999000  0.96057000  1.0
  Ni  Ni10  1  0.75002000  0.75001000  0.96057000  1.0
  Ni  Ni11  1  0.24998000  0.24999000  0.96057000  1.0
  Ni  Ni12  1  0.74998000  0.50000000  0.88172000  1.0
  Ni  Ni13  1  0.24998000  0.00000000  0.88172000  1.0
  Ni  Ni14  1  0.25002000  0.50000000  0.88172000  1.0
  Ni  Ni15  1  0.75002000  0.00000000  0.88172000  1.0
  Ni  Ni16  1  0.23593000  0.25018000  0.11420000  1.0
  Ni  Ni17  1  0.76407000  0.74982000  0.11420000  1.0
  Ni  Ni18  1  0.76407000  0.25018000  0.11420000  1.0
  Ni  Ni19  1  0.23593000  0.74982000  0.11420000  1.0
  Ni  Ni20  1  0.74505000  0.00000000  0.04055000  1.0
  Ni  Ni21  1  0.25408000  0.50000000  0.04070000  1.0
  Ni  Ni22  1  0.25495000  0.00000000  0.04055000  1.0
  Ni  Ni23  1  0.74592000  0.50000000  0.04070000  1.0
  Ge  Ge24  1  0.00000000  0.50000000  0.96057000  1.0
  Ge  Ge25  1  0.50000000  0.75001000  0.88172000  1.0
  Ge  Ge26  1  0.00000000  0.00000000  0.96057000  1.0
  Ge  Ge27  1  0.50000000  0.24999000  0.88172000  1.0
  Ge  Ge28  1  0.00000000  0.00000000  0.12044000  1.0
  Ge  Ge29  1  0.50000000  0.25035000  0.04079000  1.0
  Ge  Ge30  1  0.00000000  0.50000000  0.12130000  1.0
  Ge  Ge31  1  0.50000000  0.74965000  0.04079000  1.0
  C  C32  1  0.00000000  0.00000000  0.26922000  1.0
  O  O33  1  0.00000000  0.00000000  0.31254000  1.0
