# generated using pymatgen
data_Mn8Ni16Ge8CO
_symmetry_space_group_name_H-M   Pmm2
_cell_length_a   5.84248000
_cell_length_b   8.26252000
_cell_length_c   26.19690000
_cell_angle_alpha   90.00000000
_cell_angle_beta   90.00000000
_cell_angle_gamma   90.00000000
_symmetry_Int_Tables_number   25
_chemical_formula_structural   Mn8Ni16Ge8CO
_chemical_formula_sum   'Mn8 Ni16 Ge8 C1 O1'
_cell_volume   1264.61887748
_cell_formula_units_Z   1
loop_
 _symmetry_equiv_pos_site_id
 _symmetry_equiv_pos_as_xyz
  1  'x, y, z'
  2  '-x, -y, z'
  3  '-x, y, z'
  4  'x, -y, z'
loop_
 _atom_site_type_symbol
 _atom_site_label
 _atom_site_symmetry_multiplicity
 _atom_site_fract_x
 _atom_site_fract_y
 _atom_site_fract_z
 _atom_site_occupancy
  Mn  Mn0  2  0.00000000  0.24986000  0.03755000  1.0
  Mn  Mn1  2  0.00000000  0.24999000  0.88172000  1.0
  Mn  Mn2  1  0.50000000  0.00000000  0.12471000  1.0
  Mn  Mn3  1  0.50000000  0.00000000  0.96057000  1.0
  Mn  Mn4  1  0.50000000  0.50000000  0.12457000  1.0
  Mn  Mn5  1  0.50000000  0.50000000  0.96057000  1.0
  Ni  Ni6  4  0.23593000  0.25018000  0.11420000  1.0
  Ni  Ni7  4  0.24998000  0.24999000  0.96057000  1.0
  Ni  Ni8  2  0.24998000  0.00000000  0.88172000  1.0
  Ni  Ni9  2  0.25002000  0.50000000  0.88172000  1.0
  Ni  Ni10  2  0.25408000  0.50000000  0.04070000  1.0
  Ni  Ni11  2  0.25495000  0.00000000  0.04055000  1.0
  Ge  Ge12  2  0.50000000  0.24999000  0.88172000  1.0
  Ge  Ge13  2  0.50000000  0.25035000  0.04079000  1.0
  Ge  Ge14  1  0.00000000  0.00000000  0.12044000  1.0
  Ge  Ge15  1  0.00000000  0.00000000  0.96057000  1.0
  Ge  Ge16  1  0.00000000  0.50000000  0.12130000  1.0
  Ge  Ge17  1  0.00000000  0.50000000  0.96057000  1.0
  C  C18  1  0.00000000  0.00000000  0.26922000  1.0
  O  O19  1  0.00000000  0.00000000  0.31254000  1.0
