# generated using pymatgen
data_Li4Mg4Ag4Sn4CO
_symmetry_space_group_name_H-M   'P 1'
_cell_length_a   6.75899000
_cell_length_b   6.75899000
_cell_length_c   25.06920000
_cell_angle_alpha   90.00000000
_cell_angle_beta   90.00000000
_cell_angle_gamma   90.00000000
_symmetry_Int_Tables_number   1
_chemical_formula_structural   Li4Mg4Ag4Sn4CO
_chemical_formula_sum   'Li4 Mg4 Ag4 Sn4 C1 O1'
_cell_volume   1145.25997455
_cell_formula_units_Z   1
loop_
 _symmetry_equiv_pos_site_id
 _symmetry_equiv_pos_as_xyz
  1  'x, y, z'
loop_
 _atom_site_type_symbol
 _atom_site_label
 _atom_site_symmetry_multiplicity
 _atom_site_fract_x
 _atom_site_fract_y
 _atom_site_fract_z
 _atom_site_occupancy
  Li  Li0  1  0.25062000  0.25069000  0.96254000  1
  Li  Li1  1  0.74997500  0.25002500  0.10110000  1
  Li  Li2  1  0.24997500  0.75002500  0.10110000  1
  Li  Li3  1  0.74931000  0.74938000  0.96254000  1
  Mg  Mg4  1  0.24978000  0.75022000  0.96159000  1
  Mg  Mg5  1  0.75000000  0.75005000  0.10110000  1
  Mg  Mg6  1  0.24995000  0.25000000  0.10110000  1
  Mg  Mg7  1  0.75017500  0.24982500  0.96159000  1
  Ag  Ag8  1  0.99996000  0.00004000  0.89447000  1
  Ag  Ag9  1  0.50000000  0.00005000  0.03370000  1
  Ag  Ag10  1  0.99995000  0.50000000  0.03370000  1
  Ag  Ag11  1  0.49997500  0.50002500  0.89386000  1
  Sn  Sn12  1  0.50000000  0.00006000  0.88749000  1
  Sn  Sn13  1  0.99997500  0.00002500  0.03370000  1
  Sn  Sn14  1  0.49997500  0.50002500  0.03370000  1
  Sn  Sn15  1  0.99994000  0.50000000  0.88749000  1
  C  C16  1  0.00002000  0.99998000  0.80076000  1
  O  O17  1  0.99997500  0.00002500  0.75535000  1
