# generated using pymatgen
data_Li8Al8Ge8Pd8CO
_symmetry_space_group_name_H-M   Pmm2
_cell_length_a   7.42946000
_cell_length_b   8.01128000
_cell_length_c   26.07220000
_cell_angle_alpha   90.00000000
_cell_angle_beta   90.00000000
_cell_angle_gamma   90.00000000
_symmetry_Int_Tables_number   25
_chemical_formula_structural   Li8Al8Ge8Pd8CO
_chemical_formula_sum   'Li8 Al8 Ge8 Pd8 C1 O1'
_cell_volume   1551.80389880
_cell_formula_units_Z   1
loop_
 _symmetry_equiv_pos_site_id
 _symmetry_equiv_pos_as_xyz
  1  'x, y, z'
  2  '-x, -y, z'
  3  '-x, y, z'
  4  'x, -y, z'
loop_
 _atom_site_type_symbol
 _atom_site_label
 _atom_site_symmetry_multiplicity
 _atom_site_fract_x
 _atom_site_fract_y
 _atom_site_fract_z
 _atom_site_occupancy
  Li  Li0  2  0.25000000  0.00000000  0.03882000  1.0
  Li  Li1  2  0.25000000  0.00000000  0.88355000  1.0
  Li  Li2  2  0.25000000  0.50000000  0.03882000  1.0
  Li  Li3  2  0.25000000  0.50000000  0.88355000  1.0
  Al  Al4  4  0.25000000  0.25000000  0.11645000  1.0
  Al  Al5  4  0.25000000  0.25000000  0.96118000  1.0
  Ge  Ge6  2  0.00000000  0.25000000  0.03882000  1.0
  Ge  Ge7  2  0.00000000  0.25000000  0.88355000  1.0
  Ge  Ge8  2  0.50000000  0.25000000  0.03882000  1.0
  Ge  Ge9  2  0.50000000  0.25000000  0.88355000  1.0
  Pd  Pd10  1  0.00000000  0.00000000  0.11645000  1.0
  Pd  Pd11  1  0.00000000  0.00000000  0.96118000  1.0
  Pd  Pd12  1  0.00000000  0.50000000  0.11645000  1.0
  Pd  Pd13  1  0.00000000  0.50000000  0.96118000  1.0
  Pd  Pd14  1  0.50000000  0.00000000  0.11645000  1.0
  Pd  Pd15  1  0.50000000  0.00000000  0.96118000  1.0
  Pd  Pd16  1  0.50000000  0.50000000  0.11645000  1.0
  Pd  Pd17  1  0.50000000  0.50000000  0.96118000  1.0
  C  C18  1  0.00000000  0.00000000  0.18932000  1.0
  O  O19  1  0.00000000  0.00000000  0.23343000  1.0
