# generated using pymatgen
data_Ti8Al8Fe16CO
_symmetry_space_group_name_H-M   'P 1'
_cell_length_a   8.25739000
_cell_length_b   5.83886000
_cell_length_c   26.19300000
_cell_angle_alpha   90.00000000
_cell_angle_beta   90.00000000
_cell_angle_gamma   90.00000000
_symmetry_Int_Tables_number   1
_chemical_formula_structural   Ti8Al8Fe16CO
_chemical_formula_sum   'Ti8 Al8 Fe16 C1 O1'
_cell_volume   1262.86260119
_cell_formula_units_Z   1
loop_
 _symmetry_equiv_pos_site_id
 _symmetry_equiv_pos_as_xyz
  1  'x, y, z'
loop_
 _atom_site_type_symbol
 _atom_site_label
 _atom_site_symmetry_multiplicity
 _atom_site_fract_x
 _atom_site_fract_y
 _atom_site_fract_z
 _atom_site_occupancy
  Ti  Ti0  1  0.50000000  0.00000000  0.11822000  1.0
  Ti  Ti1  1  0.75001000  0.50000000  0.03941000  1.0
  Ti  Ti2  1  0.24999000  0.50000000  0.03941000  1.0
  Ti  Ti3  1  0.00000000  0.00000000  0.11822000  1.0
  Ti  Ti4  1  0.00000000  0.00132000  0.96245000  1.0
  Ti  Ti5  1  0.24504000  0.49669000  0.88120000  1.0
  Ti  Ti6  1  0.75496000  0.49669000  0.88120000  1.0
  Ti  Ti7  1  0.50000000  0.00052000  0.96126000  1.0
  Al  Al8  1  0.25001000  0.00000000  0.03941000  1.0
  Al  Al9  1  0.50000000  0.50000000  0.11822000  1.0
  Al  Al10  1  0.74999000  0.00000000  0.03941000  1.0
  Al  Al11  1  0.00000000  0.50000000  0.11822000  1.0
  Al  Al12  1  0.74092000  0.00512000  0.87879000  1.0
  Al  Al13  1  0.00000000  0.50082000  0.96077000  1.0
  Al  Al14  1  0.25908000  0.00512000  0.87879000  1.0
  Al  Al15  1  0.50000000  0.49793000  0.96151000  1.0
  Fe  Fe16  1  0.50000000  0.25000000  0.03941000  1.0
  Fe  Fe17  1  0.00000000  0.75000000  0.03941000  1.0
  Fe  Fe18  1  0.50000000  0.75000000  0.03941000  1.0
  Fe  Fe19  1  0.00000000  0.25000000  0.03941000  1.0
  Fe  Fe20  1  0.25001000  0.75000000  0.11822000  1.0
  Fe  Fe21  1  0.75001000  0.25000000  0.11822000  1.0
  Fe  Fe22  1  0.24999000  0.25000000  0.11822000  1.0
  Fe  Fe23  1  0.74999000  0.75000000  0.11822000  1.0
  Fe  Fe24  1  0.00000000  0.22998000  0.88376000  1.0
  Fe  Fe25  1  0.50000000  0.74569000  0.88238000  1.0
  Fe  Fe26  1  0.00000000  0.77625000  0.88300000  1.0
  Fe  Fe27  1  0.50000000  0.26422000  0.88035000  1.0
  Fe  Fe28  1  0.75038000  0.74732000  0.95850000  1.0
  Fe  Fe29  1  0.24955000  0.25324000  0.95893000  1.0
  Fe  Fe30  1  0.75045000  0.25324000  0.95893000  1.0
  Fe  Fe31  1  0.24962000  0.74732000  0.95850000  1.0
  C  C32  1  0.50000000  0.30907000  0.81371000  1.0
  O  O33  1  0.50000000  0.33018000  0.76921000  1.0
