# generated using pymatgen
data_Ti8Al8Fe16CO
_symmetry_space_group_name_H-M   Pm
_cell_length_a   5.83886000
_cell_length_b   8.25739000
_cell_length_c   26.19300000
_cell_angle_alpha   90.00000000
_cell_angle_beta   90.00000000
_cell_angle_gamma   90.00000000
_symmetry_Int_Tables_number   6
_chemical_formula_structural   Ti8Al8Fe16CO
_chemical_formula_sum   'Ti8 Al8 Fe16 C1 O1'
_cell_volume   1262.86260119
_cell_formula_units_Z   1
loop_
 _symmetry_equiv_pos_site_id
 _symmetry_equiv_pos_as_xyz
  1  'x, y, z'
  2  'x, -y, z'
loop_
 _atom_site_type_symbol
 _atom_site_label
 _atom_site_symmetry_multiplicity
 _atom_site_fract_x
 _atom_site_fract_y
 _atom_site_fract_z
 _atom_site_occupancy
  Ti  Ti0  2  0.49669000  0.24504000  0.11880000  1.0
  Ti  Ti1  2  0.50000000  0.24999000  0.96059000  1.0
  Ti  Ti2  1  0.00000000  0.50000000  0.88178000  1.0
  Ti  Ti3  1  0.00000000  0.00000000  0.88178000  1.0
  Ti  Ti4  1  0.00052000  0.50000000  0.03874000  1.0
  Ti  Ti5  1  0.00132000  0.00000000  0.03755000  1.0
  Al  Al6  2  0.00000000  0.25001000  0.96059000  1.0
  Al  Al7  2  0.00512000  0.25908000  0.12121000  1.0
  Al  Al8  1  0.49793000  0.50000000  0.03849000  1.0
  Al  Al9  1  0.50000000  0.00000000  0.88178000  1.0
  Al  Al10  1  0.50000000  0.50000000  0.88178000  1.0
  Al  Al11  1  0.50082000  0.00000000  0.03923000  1.0
  Fe  Fe12  2  0.25000000  0.24999000  0.88178000  1.0
  Fe  Fe13  2  0.25324000  0.24955000  0.04107000  1.0
  Fe  Fe14  2  0.74732000  0.24962000  0.04150000  1.0
  Fe  Fe15  2  0.75000000  0.25001000  0.88178000  1.0
  Fe  Fe16  1  0.22998000  0.00000000  0.11624000  1.0
  Fe  Fe17  1  0.25000000  0.00000000  0.96059000  1.0
  Fe  Fe18  1  0.25000000  0.50000000  0.96059000  1.0
  Fe  Fe19  1  0.26422000  0.50000000  0.11965000  1.0
  Fe  Fe20  1  0.74569000  0.50000000  0.11762000  1.0
  Fe  Fe21  1  0.75000000  0.00000000  0.96059000  1.0
  Fe  Fe22  1  0.75000000  0.50000000  0.96059000  1.0
  Fe  Fe23  1  0.77625000  0.00000000  0.11700000  1.0
  C  C24  1  0.30907000  0.50000000  0.18629000  1.0
  O  O25  1  0.33018000  0.50000000  0.23079000  1.0
