# generated using pymatgen
data_Nb8Ni16Sn8C
_symmetry_space_group_name_H-M   P1
_cell_length_a   6.23466000
_cell_length_b   8.81715000
_cell_length_c   26.61290000
_cell_angle_alpha   90.00000000
_cell_angle_beta   90.00000000
_cell_angle_gamma   90.00000000
_symmetry_Int_Tables_number   1
_chemical_formula_structural   Nb8Ni16Sn8C
_chemical_formula_sum   'Nb8 Ni16 Sn8 C1'
_cell_volume   1462.96254027
_cell_formula_units_Z   1
loop_
 _symmetry_equiv_pos_site_id
 _symmetry_equiv_pos_as_xyz
  1  'x, y, z'
loop_
 _atom_site_type_symbol
 _atom_site_label
 _atom_site_symmetry_multiplicity
 _atom_site_fract_x
 _atom_site_fract_y
 _atom_site_fract_z
 _atom_site_occupancy
  Nb  Nb0  1  -0.00000000  0.50000000  0.87576000  1.0
  Nb  Nb1  1  0.00000000  0.00000000  0.87576000  1.0
  Nb  Nb2  1  0.47977000  0.75002000  0.11678000  1.0
  Nb  Nb3  1  0.50000000  0.25000000  0.95859000  1.0
  Nb  Nb4  1  0.50000000  0.75000000  0.95859000  1.0
  Nb  Nb5  1  0.52758000  0.25028000  0.11196000  1.0
  Nb  Nb6  1  0.99808000  0.50484000  0.04426000  1.0
  Nb  Nb7  1  0.99817000  0.99501000  0.04425000  1.0
  Ni  Ni8  1  0.21819000  0.24992000  0.04506000  1.0
  Ni  Ni9  1  0.23364000  0.46779000  0.12291000  1.0
  Ni  Ni10  1  0.23444000  0.03309000  0.12289000  1.0
  Ni  Ni11  1  0.24977000  0.74983000  0.04001000  1.0
  Ni  Ni12  1  0.25000000  0.00000000  0.95859000  1.0
  Ni  Ni13  1  0.25000000  0.25000000  0.87576000  1.0
  Ni  Ni14  1  0.25000000  0.50000000  0.95859000  1.0
  Ni  Ni15  1  0.25000000  0.75000000  0.87576000  1.0
  Ni  Ni16  1  0.73358000  0.98325000  0.11904000  1.0
  Ni  Ni17  1  0.73425000  0.51685000  0.11901000  1.0
  Ni  Ni18  1  0.75000000  0.00000000  0.95859000  1.0
  Ni  Ni19  1  0.75000000  0.25000000  0.87576000  1.0
  Ni  Ni20  1  0.75000000  0.50000000  0.95859000  1.0
  Ni  Ni21  1  0.75000000  0.75000000  0.87576000  1.0
  Ni  Ni22  1  0.75145000  0.74990000  0.04204000  1.0
  Ni  Ni23  1  0.79648000  0.24985000  0.04029000  1.0
  Sn  Sn24  1  -0.00000000  0.75000000  0.95859000  1.0
  Sn  Sn25  1  -0.00000000  0.25000000  0.95859000  1.0
  Sn  Sn26  1  0.01316000  0.75028000  0.13395000  1.0
  Sn  Sn27  1  0.49571000  0.00352000  0.03883000  1.0
  Sn  Sn28  1  0.49575000  0.49642000  0.03883000  1.0
  Sn  Sn29  1  0.50000000  0.00000000  0.87576000  1.0
  Sn  Sn30  1  0.50000000  0.50000000  0.87576000  1.0
  Sn  Sn31  1  0.91518000  0.24953000  0.15560000  1.0
  C  C32  1  0.25343000  0.25117000  0.14699000  1.0
