# generated using pymatgen
data_Li8Co16Ge8CO
_symmetry_space_group_name_H-M   P1
_cell_length_a   5.64259000
_cell_length_b   7.97982000
_cell_length_c   25.98490000
_cell_angle_alpha   90.00000000
_cell_angle_beta   90.00000000
_cell_angle_gamma   90.00000000
_symmetry_Int_Tables_number   1
_chemical_formula_structural   Li8Co16Ge8CO
_chemical_formula_sum   'Li8 Co16 Ge8 C1 O1'
_cell_volume   1170.01826041
_cell_formula_units_Z   1
loop_
 _symmetry_equiv_pos_site_id
 _symmetry_equiv_pos_as_xyz
  1  'x, y, z'
loop_
 _atom_site_type_symbol
 _atom_site_label
 _atom_site_symmetry_multiplicity
 _atom_site_fract_x
 _atom_site_fract_y
 _atom_site_fract_z
 _atom_site_occupancy
  Li  Li0  1  0.00000000  0.00000000  0.88484000  1.0
  Li  Li1  1  0.00000000  0.50000000  0.88484000  1.0
  Li  Li2  1  0.00001000  0.49761000  0.03328000  1.0
  Li  Li3  1  0.49998000  0.74994000  0.14940000  1.0
  Li  Li4  1  0.50000000  0.25000000  0.96161000  1.0
  Li  Li5  1  0.50000000  0.75000000  0.96161000  1.0
  Li  Li6  1  0.50001000  0.25018000  0.13596000  1.0
  Li  Li7  1  0.99999000  0.00235000  0.03328000  1.0
  Co  Co8  1  0.22978000  0.98725000  0.10799000  1.0
  Co  Co9  1  0.22985000  0.51276000  0.10805000  1.0
  Co  Co10  1  0.25000000  0.00000000  0.96161000  1.0
  Co  Co11  1  0.25000000  0.25000000  0.88484000  1.0
  Co  Co12  1  0.25000000  0.50000000  0.96161000  1.0
  Co  Co13  1  0.25000000  0.75000000  0.88484000  1.0
  Co  Co14  1  0.25034000  0.75000000  0.04838000  1.0
  Co  Co15  1  0.25327000  0.24998000  0.04000000  1.0
  Co  Co16  1  0.74680000  0.25001000  0.03997000  1.0
  Co  Co17  1  0.74971000  0.74996000  0.04836000  1.0
  Co  Co18  1  0.75000000  0.00000000  0.96161000  1.0
  Co  Co19  1  0.75000000  0.25000000  0.88484000  1.0
  Co  Co20  1  0.75000000  0.50000000  0.96161000  1.0
  Co  Co21  1  0.75000000  0.75000000  0.88484000  1.0
  Co  Co22  1  0.77004000  0.51271000  0.10805000  1.0
  Co  Co23  1  0.77015000  0.98728000  0.10799000  1.0
  Ge  Ge24  1  0.00000000  0.25000000  0.96161000  1.0
  Ge  Ge25  1  0.00000000  0.75000000  0.96161000  1.0
  Ge  Ge26  1  0.50000000  0.00000000  0.88484000  1.0
  Ge  Ge27  1  0.50000000  0.50000000  0.88484000  1.0
  Ge  Ge28  1  0.50002000  0.49413000  0.03602000  1.0
  Ge  Ge29  1  0.50003000  0.00588000  0.03595000  1.0
  Ge  Ge30  1  0.99989000  0.74999000  0.13341000  1.0
  Ge  Ge31  1  0.99999000  0.25023000  0.11435000  1.0
  C  C32  1  0.50000000  0.25008000  0.21803000  1.0
  O  O33  1  0.50001000  0.25000000  0.26187000  1.0
