# generated using pymatgen
data_Li8Ge8Pd16C
_symmetry_space_group_name_H-M   Pm
_cell_length_a   6.13924000
_cell_length_b   8.68219000
_cell_length_c   26.51160000
_cell_angle_alpha   90.00000000
_cell_angle_beta   90.00000000
_cell_angle_gamma   90.00000000
_symmetry_Int_Tables_number   6
_chemical_formula_structural   Li8Ge8Pd16C
_chemical_formula_sum   'Li8 Ge8 Pd16 C1'
_cell_volume   1413.12257935
_cell_formula_units_Z   1
loop_
 _symmetry_equiv_pos_site_id
 _symmetry_equiv_pos_as_xyz
  1  'x, y, z'
  2  'x, -y, z'
loop_
 _atom_site_type_symbol
 _atom_site_label
 _atom_site_symmetry_multiplicity
 _atom_site_fract_x
 _atom_site_fract_y
 _atom_site_fract_z
 _atom_site_occupancy
  Li  Li0  2  0.00000000  0.25000000  0.87719000  1.0
  Li  Li1  2  0.99832000  0.25020000  0.03906000  1.0
  Li  Li2  1  0.48541000  0.50000000  0.13734000  1.0
  Li  Li3  1  0.50000000  0.00000000  0.95906000  1.0
  Li  Li4  1  0.50000000  0.50000000  0.95906000  1.0
  Li  Li5  1  0.50603000  0.00000000  0.15483000  1.0
  Ge  Ge6  2  0.50000000  0.25000000  0.87719000  1.0
  Ge  Ge7  2  0.50005000  0.24875000  0.04012000  1.0
  Ge  Ge8  1  -0.00000000  0.50000000  0.95906000  1.0
  Ge  Ge9  1  -0.00000000  0.00000000  0.95906000  1.0
  Ge  Ge10  1  0.00830000  0.50000000  0.12061000  1.0
  Ge  Ge11  1  0.90388000  0.00000000  0.13522000  1.0
  Pd  Pd12  2  0.24234000  0.24520000  0.11657000  1.0
  Pd  Pd13  2  0.25000000  0.25000000  0.95906000  1.0
  Pd  Pd14  2  0.75000000  0.25000000  0.95906000  1.0
  Pd  Pd15  2  0.75404000  0.26433000  0.11716000  1.0
  Pd  Pd16  1  0.23944000  0.00000000  0.04238000  1.0
  Pd  Pd17  1  0.25000000  0.00000000  0.87719000  1.0
  Pd  Pd18  1  0.25000000  0.50000000  0.87719000  1.0
  Pd  Pd19  1  0.25551000  0.50000000  0.04153000  1.0
  Pd  Pd20  1  0.74749000  0.00000000  0.04028000  1.0
  Pd  Pd21  1  0.74870000  0.50000000  0.03959000  1.0
  Pd  Pd22  1  0.75000000  0.00000000  0.87719000  1.0
  Pd  Pd23  1  0.75000000  0.50000000  0.87719000  1.0
  C  C24  1  0.20679000  0.00000000  0.12540000  1.0
