# generated using pymatgen
data_Ti8Ni16Sn8CO
_symmetry_space_group_name_H-M   'P 1'
_cell_length_a   8.69583000
_cell_length_b   6.14888000
_cell_length_c   26.52190000
_cell_angle_alpha   90.00000000
_cell_angle_beta   90.00000000
_cell_angle_gamma   90.00000000
_symmetry_Int_Tables_number   1
_chemical_formula_structural   Ti8Ni16Sn8CO
_chemical_formula_sum   'Ti8 Ni16 Sn8 C1 O1'
_cell_volume   1418.11578659
_cell_formula_units_Z   1
loop_
 _symmetry_equiv_pos_site_id
 _symmetry_equiv_pos_as_xyz
  1  'x, y, z'
loop_
 _atom_site_type_symbol
 _atom_site_label
 _atom_site_symmetry_multiplicity
 _atom_site_fract_x
 _atom_site_fract_y
 _atom_site_fract_z
 _atom_site_occupancy
  Ti  Ti0  1  0.00000000  0.00000000  0.12295000  1.0
  Ti  Ti1  1  0.25000000  0.50000000  0.04098000  1.0
  Ti  Ti2  1  0.75000000  0.50000000  0.04098000  1.0
  Ti  Ti3  1  0.50000000  0.00000000  0.12295000  1.0
  Ti  Ti4  1  0.50088000  0.00000000  0.95725000  1.0
  Ti  Ti5  1  0.74998000  0.50000000  0.87817000  1.0
  Ti  Ti6  1  0.24996000  0.50000000  0.87701000  1.0
  Ti  Ti7  1  0.99909000  0.00000000  0.95729000  1.0
  Ni  Ni8  1  0.00000000  0.75000000  0.04098000  1.0
  Ni  Ni9  1  0.50000000  0.25000000  0.04098000  1.0
  Ni  Ni10  1  0.00000000  0.25000000  0.04098000  1.0
  Ni  Ni11  1  0.50000000  0.75000000  0.04098000  1.0
  Ni  Ni12  1  0.75000000  0.25000000  0.12295000  1.0
  Ni  Ni13  1  0.25000000  0.75000000  0.12295000  1.0
  Ni  Ni14  1  0.75000000  0.75000000  0.12295000  1.0
  Ni  Ni15  1  0.25000000  0.25000000  0.12295000  1.0
  Ni  Ni16  1  0.50152000  0.74272000  0.88137000  1.0
  Ni  Ni17  1  0.99845000  0.25750000  0.88143000  1.0
  Ni  Ni18  1  0.50152000  0.25728000  0.88137000  1.0
  Ni  Ni19  1  0.99845000  0.74250000  0.88143000  1.0
  Ni  Ni20  1  0.25000000  0.23419000  0.95664000  1.0
  Ni  Ni21  1  0.74998000  0.75568000  0.95533000  1.0
  Ni  Ni22  1  0.25000000  0.76581000  0.95664000  1.0
  Ni  Ni23  1  0.74998000  0.24432000  0.95533000  1.0
  Sn  Sn24  1  0.75000000  0.00000000  0.04098000  1.0
  Sn  Sn25  1  0.00000000  0.50000000  0.12295000  1.0
  Sn  Sn26  1  0.25000000  0.00000000  0.04098000  1.0
  Sn  Sn27  1  0.50000000  0.50000000  0.12295000  1.0
  Sn  Sn28  1  0.24987000  0.00000000  0.86719000  1.0
  Sn  Sn29  1  0.49743000  0.50000000  0.96071000  1.0
  Sn  Sn30  1  0.75014000  0.00000000  0.86672000  1.0
  Sn  Sn31  1  0.00250000  0.50000000  0.96077000  1.0
  C  C32  1  0.25001000  0.50000000  0.79709000  1.0
  O  O33  1  0.25002000  0.50000000  0.75366000  1.0
