# generated using pymatgen
data_Ti8Ni16Sn8CO
_symmetry_space_group_name_H-M   Pm
_cell_length_a   8.69583000
_cell_length_b   6.14888000
_cell_length_c   26.52190000
_cell_angle_alpha   90.00000000
_cell_angle_beta   90.00000000
_cell_angle_gamma   90.00000000
_symmetry_Int_Tables_number   6
_chemical_formula_structural   Ti8Ni16Sn8CO
_chemical_formula_sum   'Ti8 Ni16 Sn8 C1 O1'
_cell_volume   1418.11578659
_cell_formula_units_Z   1
loop_
 _symmetry_equiv_pos_site_id
 _symmetry_equiv_pos_as_xyz
  1  'x, y, z'
  2  'x, -y, z'
loop_
 _atom_site_type_symbol
 _atom_site_label
 _atom_site_symmetry_multiplicity
 _atom_site_fract_x
 _atom_site_fract_y
 _atom_site_fract_z
 _atom_site_occupancy
  Ti  Ti0  1  0.00000000  0.00000000  0.87705000  1.0
  Ti  Ti1  1  0.24996000  0.50000000  0.12299000  1.0
  Ti  Ti2  1  0.25000000  0.50000000  0.95902000  1.0
  Ti  Ti3  1  0.50000000  0.00000000  0.87705000  1.0
  Ti  Ti4  1  0.50088000  0.00000000  0.04275000  1.0
  Ti  Ti5  1  0.74998000  0.50000000  0.12183000  1.0
  Ti  Ti6  1  0.75000000  0.50000000  0.95902000  1.0
  Ti  Ti7  1  0.99909000  0.00000000  0.04271000  1.0
  Ni  Ni8  2  0.00000000  0.25000000  0.95902000  1.0
  Ni  Ni9  2  0.25000000  0.23419000  0.04336000  1.0
  Ni  Ni10  2  0.25000000  0.25000000  0.87705000  1.0
  Ni  Ni11  2  0.50000000  0.25000000  0.95902000  1.0
  Ni  Ni12  2  0.50152000  0.25728000  0.11863000  1.0
  Ni  Ni13  2  0.74998000  0.24432000  0.04467000  1.0
  Ni  Ni14  2  0.75000000  0.25000000  0.87705000  1.0
  Ni  Ni15  2  0.99845000  0.25750000  0.11857000  1.0
  Sn  Sn16  1  0.00000000  0.50000000  0.87705000  1.0
  Sn  Sn17  1  0.00250000  0.50000000  0.03923000  1.0
  Sn  Sn18  1  0.24987000  0.00000000  0.13281000  1.0
  Sn  Sn19  1  0.25000000  0.00000000  0.95902000  1.0
  Sn  Sn20  1  0.49743000  0.50000000  0.03929000  1.0
  Sn  Sn21  1  0.50000000  0.50000000  0.87705000  1.0
  Sn  Sn22  1  0.75000000  0.00000000  0.95902000  1.0
  Sn  Sn23  1  0.75014000  0.00000000  0.13328000  1.0
  C  C24  1  0.25001000  0.50000000  0.20291000  1.0
  O  O25  1  0.25002000  0.50000000  0.24634000  1.0
