# generated using pymatgen
data_Li4Al4Ag4Sn4CO
_symmetry_space_group_name_H-M   'P 1'
_cell_length_a   8.66686000
_cell_length_b   5.91351000
_cell_length_c   24.43010000
_cell_angle_alpha   90.00000000
_cell_angle_beta   90.00000000
_cell_angle_gamma   90.00000000
_symmetry_Int_Tables_number   1
_chemical_formula_structural   Li4Al4Ag4Sn4CO
_chemical_formula_sum   'Li4 Al4 Ag4 Sn4 C1 O1'
_cell_volume   1252.08081605
_cell_formula_units_Z   1
loop_
 _symmetry_equiv_pos_site_id
 _symmetry_equiv_pos_as_xyz
  1  'x, y, z'
loop_
 _atom_site_type_symbol
 _atom_site_label
 _atom_site_symmetry_multiplicity
 _atom_site_fract_x
 _atom_site_fract_y
 _atom_site_fract_z
 _atom_site_occupancy
  Li  Li0  1  0.75000000  0.50000000  0.09067000  1.0
  Li  Li1  1  0.75120000  0.97648000  0.97098000  1.0
  Li  Li2  1  0.25000000  0.50000000  0.09067000  1.0
  Li  Li3  1  0.24880000  0.97648000  0.97098000  1.0
  Al  Al4  1  0.00000000  0.23807000  0.03022000  1.0
  Al  Al5  1  0.00000000  0.70452000  0.91261000  1.0
  Al  Al6  1  0.50000000  0.23807000  0.03022000  1.0
  Al  Al7  1  0.50000000  0.70552000  0.91492000  1.0
  Ag  Ag8  1  0.75000000  0.00000000  0.09067000  1.0
  Ag  Ag9  1  0.75154000  0.48406000  0.95884000  1.0
  Ag  Ag10  1  0.25000000  0.00000000  0.09067000  1.0
  Ag  Ag11  1  0.24846000  0.48406000  0.95884000  1.0
  Sn  Sn12  1  0.00000000  0.73807000  0.03022000  1.0
  Sn  Sn13  1  0.00000000  0.20943000  0.91210000  1.0
  Sn  Sn14  1  0.50000000  0.73807000  0.03022000  1.0
  Sn  Sn15  1  0.50000000  0.21166000  0.91026000  1.0
  C  C16  1  0.00000000  0.71164000  0.83033000  1.0
  O  O17  1  0.00000000  0.71235000  0.78314000  1.0
