# generated using pymatgen
data_Hf16Rh16C
_symmetry_space_group_name_H-M   'P 1'
_cell_length_a   6.52860000
_cell_length_b   9.23283000
_cell_length_c   26.92460000
_cell_angle_alpha   90.00000000
_cell_angle_beta   90.00000000
_cell_angle_gamma   90.00000000
_symmetry_Int_Tables_number   1
_chemical_formula_structural   Hf16Rh16C
_chemical_formula_sum   'Hf16 Rh16 C1'
_cell_volume   1622.94633630
_cell_formula_units_Z   1
loop_
 _symmetry_equiv_pos_site_id
 _symmetry_equiv_pos_as_xyz
  1  'x, y, z'
loop_
 _atom_site_type_symbol
 _atom_site_label
 _atom_site_symmetry_multiplicity
 _atom_site_fract_x
 _atom_site_fract_y
 _atom_site_fract_z
 _atom_site_occupancy
  Hf  Hf0  1  0.75000000  0.74999000  0.87141000  1.0
  Hf  Hf1  1  0.75000000  0.00000000  0.95714000  1.0
  Hf  Hf2  1  0.75050000  0.75184000  0.04461000  1.0
  Hf  Hf3  1  0.74450000  0.00000000  0.13379000  1.0
  Hf  Hf4  1  0.75000000  0.25001000  0.87141000  1.0
  Hf  Hf5  1  0.75000000  0.50000000  0.95714000  1.0
  Hf  Hf6  1  0.75050000  0.24816000  0.04461000  1.0
  Hf  Hf7  1  0.75005000  0.50000000  0.13032000  1.0
  Hf  Hf8  1  0.25000000  0.74999000  0.87141000  1.0
  Hf  Hf9  1  0.25000000  0.00000000  0.95714000  1.0
  Hf  Hf10  1  0.24950000  0.75184000  0.04461000  1.0
  Hf  Hf11  1  0.25550000  0.00000000  0.13379000  1.0
  Hf  Hf12  1  0.25000000  0.25001000  0.87141000  1.0
  Hf  Hf13  1  0.25000000  0.50000000  0.95714000  1.0
  Hf  Hf14  1  0.24950000  0.24816000  0.04461000  1.0
  Hf  Hf15  1  0.24995000  0.50000000  0.13032000  1.0
  Rh  Rh16  1  0.00000000  0.00000000  0.87141000  1.0
  Rh  Rh17  1  0.00000000  0.74999000  0.95714000  1.0
  Rh  Rh18  1  0.00000000  0.00000000  0.04055000  1.0
  Rh  Rh19  1  0.00000000  0.73404000  0.12291000  1.0
  Rh  Rh20  1  0.00000000  0.50000000  0.87141000  1.0
  Rh  Rh21  1  0.00000000  0.25001000  0.95714000  1.0
  Rh  Rh22  1  0.00000000  0.50000000  0.04546000  1.0
  Rh  Rh23  1  0.00000000  0.26596000  0.12291000  1.0
  Rh  Rh24  1  0.50000000  0.00000000  0.87141000  1.0
  Rh  Rh25  1  0.50000000  0.74999000  0.95714000  1.0
  Rh  Rh26  1  0.50000000  0.00000000  0.03848000  1.0
  Rh  Rh27  1  0.50000000  0.74279000  0.12077000  1.0
  Rh  Rh28  1  0.50000000  0.50000000  0.87141000  1.0
  Rh  Rh29  1  0.50000000  0.25001000  0.95714000  1.0
  Rh  Rh30  1  0.50000000  0.50000000  0.04064000  1.0
  Rh  Rh31  1  0.50000000  0.25721000  0.12077000  1.0
  C  C32  1  0.00000000  0.00000000  0.17522000  1.0
