# generated using pymatgen
data_Sc16Al16C
_symmetry_space_group_name_H-M   'P 1'
_cell_length_a   9.55143000
_cell_length_b   6.75388000
_cell_length_c   27.16360000
_cell_angle_alpha   90.00000000
_cell_angle_beta   90.00000000
_cell_angle_gamma   90.00000000
_symmetry_Int_Tables_number   1
_chemical_formula_structural   Sc16Al16C
_chemical_formula_sum   'Sc16 Al16 C1'
_cell_volume   1752.30243240
_cell_formula_units_Z   1
loop_
 _symmetry_equiv_pos_site_id
 _symmetry_equiv_pos_as_xyz
  1  'x, y, z'
loop_
 _atom_site_type_symbol
 _atom_site_label
 _atom_site_symmetry_multiplicity
 _atom_site_fract_x
 _atom_site_fract_y
 _atom_site_fract_z
 _atom_site_occupancy
  Sc  Sc0  1  0.00000000  0.25000000  0.13186000  1.0
  Sc  Sc1  1  0.75000000  0.25000000  0.04395000  1.0
  Sc  Sc2  1  0.00000000  0.25002000  0.94977000  1.0
  Sc  Sc3  1  0.22680000  0.25013000  0.85950000  1.0
  Sc  Sc4  1  0.50000000  0.25000000  0.13186000  1.0
  Sc  Sc5  1  0.25000000  0.25000000  0.04395000  1.0
  Sc  Sc6  1  0.50000000  0.24995000  0.95918000  1.0
  Sc  Sc7  1  0.77320000  0.25013000  0.85950000  1.0
  Sc  Sc8  1  0.00000000  0.75000000  0.13186000  1.0
  Sc  Sc9  1  0.75000000  0.75000000  0.04395000  1.0
  Sc  Sc10  1  0.00000000  0.75018000  0.95950000  1.0
  Sc  Sc11  1  0.27634000  0.75027000  0.86901000  1.0
  Sc  Sc12  1  0.50000000  0.75000000  0.13186000  1.0
  Sc  Sc13  1  0.25000000  0.75000000  0.04395000  1.0
  Sc  Sc14  1  0.50000000  0.75011000  0.95666000  1.0
  Sc  Sc15  1  0.72366000  0.75027000  0.86901000  1.0
  Al  Al16  1  0.75000000  0.00000000  0.13186000  1.0
  Al  Al17  1  0.00000000  0.00000000  0.04395000  1.0
  Al  Al18  1  0.74963000  0.00575000  0.95361000  1.0
  Al  Al19  1  0.00000000  0.95848000  0.86714000  1.0
  Al  Al20  1  0.25000000  0.00000000  0.13186000  1.0
  Al  Al21  1  0.50000000  0.00000000  0.04395000  1.0
  Al  Al22  1  0.25037000  0.00575000  0.95361000  1.0
  Al  Al23  1  0.50000000  0.03517000  0.86904000  1.0
  Al  Al24  1  0.75000000  0.50000000  0.13186000  1.0
  Al  Al25  1  0.00000000  0.50000000  0.04395000  1.0
  Al  Al26  1  0.74961000  0.49440000  0.95360000  1.0
  Al  Al27  1  0.00000000  0.54227000  0.86723000  1.0
  Al  Al28  1  0.25000000  0.50000000  0.13186000  1.0
  Al  Al29  1  0.50000000  0.50000000  0.04395000  1.0
  Al  Al30  1  0.25039000  0.49440000  0.95360000  1.0
  Al  Al31  1  0.50000000  0.46509000  0.86908000  1.0
  C  C32  1  0.00000000  0.25053000  0.86175000  1.0
