# generated using pymatgen
data_Fe16Co8Ge8C
_symmetry_space_group_name_H-M   Pmm2
_cell_length_a   5.77744000
_cell_length_b   8.17053000
_cell_length_c   26.12790000
_cell_angle_alpha   90.00000000
_cell_angle_beta   90.00000000
_cell_angle_gamma   90.00000000
_symmetry_Int_Tables_number   25
_chemical_formula_structural   Fe16Co8Ge8C
_chemical_formula_sum   'Fe16 Co8 Ge8 C1'
_cell_volume   1233.36090504
_cell_formula_units_Z   1
loop_
 _symmetry_equiv_pos_site_id
 _symmetry_equiv_pos_as_xyz
  1  'x, y, z'
  2  '-x, -y, z'
  3  '-x, y, z'
  4  'x, -y, z'
loop_
 _atom_site_type_symbol
 _atom_site_label
 _atom_site_symmetry_multiplicity
 _atom_site_fract_x
 _atom_site_fract_y
 _atom_site_fract_z
 _atom_site_occupancy
  Fe  Fe0  4  0.24881000  0.25239000  0.04529000  1.0
  Fe  Fe1  4  0.25000000  0.25001000  0.88273000  1.0
  Fe  Fe2  2  0.21125000  0.50000000  0.11312000  1.0
  Fe  Fe3  2  0.25000000  0.00000000  0.96091000  1.0
  Fe  Fe4  2  0.25000000  0.50000000  0.96091000  1.0
  Fe  Fe5  2  0.28046000  0.00000000  0.11715000  1.0
  Co  Co6  2  0.50000000  0.24999000  0.96091000  1.0
  Co  Co7  2  0.50000000  0.27263000  0.12299000  1.0
  Co  Co8  1  0.00000000  0.00000000  0.04486000  1.0
  Co  Co9  1  0.00000000  0.00000000  0.88273000  1.0
  Co  Co10  1  0.00000000  0.50000000  0.03009000  1.0
  Co  Co11  1  0.00000000  0.50000000  0.88273000  1.0
  Ge  Ge12  2  0.00000000  0.23616000  0.12955000  1.0
  Ge  Ge13  2  0.00000000  0.25001000  0.96091000  1.0
  Ge  Ge14  1  0.50000000  0.00000000  0.03617000  1.0
  Ge  Ge15  1  0.50000000  0.00000000  0.88273000  1.0
  Ge  Ge16  1  0.50000000  0.50000000  0.03724000  1.0
  Ge  Ge17  1  0.50000000  0.50000000  0.88273000  1.0
  C  C18  1  0.50000000  0.50000000  0.14267000  1.0
