# generated using pymatgen
data_Li8Al4Rh4CO
_symmetry_space_group_name_H-M   'P 1'
_cell_length_a   6.01864000
_cell_length_b   6.01864000
_cell_length_c   24.51400000
_cell_angle_alpha   90.00000000
_cell_angle_beta   90.00000000
_cell_angle_gamma   90.00000000
_symmetry_Int_Tables_number   1
_chemical_formula_structural   Li8Al4Rh4CO
_chemical_formula_sum   'Li8 Al4 Rh4 C1 O1'
_cell_volume   887.99580890
_cell_formula_units_Z   1
loop_
 _symmetry_equiv_pos_site_id
 _symmetry_equiv_pos_as_xyz
  1  'x, y, z'
loop_
 _atom_site_type_symbol
 _atom_site_label
 _atom_site_symmetry_multiplicity
 _atom_site_fract_x
 _atom_site_fract_y
 _atom_site_fract_z
 _atom_site_occupancy
  Li  Li0  1  0.00000000  0.00000000  0.03069000  1.0
  Li  Li1  1  0.50000000  0.00000000  0.89509000  1.0
  Li  Li2  1  0.00000000  0.50000000  0.89245000  1.0
  Li  Li3  1  0.50000000  0.50000000  0.03069000  1.0
  Li  Li4  1  0.25000000  0.25000000  0.09207000  1.0
  Li  Li5  1  0.24820000  0.74889000  0.97371000  1.0
  Li  Li6  1  0.75000000  0.75000000  0.09207000  1.0
  Li  Li7  1  0.75180000  0.25111000  0.97371000  1.0
  Al  Al8  1  0.00000000  0.00000000  0.91265000  1.0
  Al  Al9  1  0.50000000  0.50000000  0.91278000  1.0
  Al  Al10  1  0.50000000  0.00000000  0.03069000  1.0
  Al  Al11  1  0.00000000  0.50000000  0.03069000  1.0
  Rh  Rh12  1  0.25176000  0.24815000  0.96413000  1.0
  Rh  Rh13  1  0.25000000  0.75000000  0.09207000  1.0
  Rh  Rh14  1  0.74824000  0.75185000  0.96413000  1.0
  Rh  Rh15  1  0.75000000  0.25000000  0.09207000  1.0
  C  C16  1  0.00000000  0.50000000  0.80617000  1.0
  O  O17  1  0.00000000  0.50000000  0.75958000  1.0
