# generated using pymatgen
data_K3Bi
_symmetry_space_group_name_H-M   P1
_cell_length_a   8.83903000
_cell_length_b   12.50030000
_cell_length_c   29.37520000
_cell_angle_alpha   90.00000000
_cell_angle_beta   90.00000000
_cell_angle_gamma   90.00000000
_symmetry_Int_Tables_number   1
_chemical_formula_structural   K3Bi
_chemical_formula_sum   'K24 Bi8'
_cell_volume   3245.68132018
_cell_formula_units_Z   8
loop_
 _symmetry_equiv_pos_site_id
 _symmetry_equiv_pos_as_xyz
  1  'x, y, z'
loop_
 _atom_site_type_symbol
 _atom_site_label
 _atom_site_symmetry_multiplicity
 _atom_site_fract_x
 _atom_site_fract_y
 _atom_site_fract_z
 _atom_site_occupancy
  K  K0  1  0.00000000  0.25000000  0.94681000  1.0
  K  K1  1  0.00000000  0.74999000  0.15277000  1.0
  K  K2  1  0.00000000  0.75000000  0.94681000  1.0
  K  K3  1  0.00001000  0.25004000  0.15273000  1.0
  K  K4  1  0.24983000  0.25000000  0.05203000  1.0
  K  K5  1  0.25000000  0.00000000  0.94681000  1.0
  K  K6  1  0.25000000  0.25000000  0.84042000  1.0
  K  K7  1  0.25000000  0.50000000  0.94681000  1.0
  K  K8  1  0.25000000  0.75000000  0.84042000  1.0
  K  K9  1  0.25015000  0.75002000  0.05213000  1.0
  K  K10  1  0.28304000  0.00001000  0.16875000  1.0
  K  K11  1  0.28307000  0.50002000  0.16872000  1.0
  K  K12  1  0.49999000  0.00015000  0.05612000  1.0
  K  K13  1  0.50000000  0.00000000  0.84042000  1.0
  K  K14  1  0.50000000  0.50000000  0.84042000  1.0
  K  K15  1  0.50000000  0.50003000  0.05603000  1.0
  K  K16  1  0.71694000  0.50001000  0.16872000  1.0
  K  K17  1  0.71697000  0.00002000  0.16875000  1.0
  K  K18  1  0.74985000  0.75002000  0.05213000  1.0
  K  K19  1  0.75000000  0.00000000  0.94681000  1.0
  K  K20  1  0.75000000  0.25000000  0.84042000  1.0
  K  K21  1  0.75000000  0.50000000  0.94681000  1.0
  K  K22  1  0.75000000  0.75000000  0.84042000  1.0
  K  K23  1  0.75018000  0.25000000  0.05203000  1.0
  Bi  Bi24  1  0.00000000  0.00000000  0.84042000  1.0
  Bi  Bi25  1  0.00000000  0.50000000  0.84042000  1.0
  Bi  Bi26  1  0.50000000  0.25000000  0.94681000  1.0
  Bi  Bi27  1  0.50000000  0.75000000  0.94681000  1.0
  Bi  Bi28  1  0.50000000  0.75004000  0.14927000  1.0
  Bi  Bi29  1  0.50001000  0.24997000  0.14911000  1.0
  Bi  Bi30  1  0.99994000  0.49925000  0.06170000  1.0
  Bi  Bi31  1  0.99998000  0.00019000  0.06123000  1.0
