# generated using pymatgen
data_CaIn
_symmetry_space_group_name_H-M   'P 1'
_cell_length_a   3.90288500
_cell_length_b   3.90288500
_cell_length_c   25.85430000
_cell_angle_alpha   90.00000000
_cell_angle_beta   90.00000000
_cell_angle_gamma   90.00000000
_symmetry_Int_Tables_number   1
_chemical_formula_structural   CaIn
_chemical_formula_sum   'Ca2 In2'
_cell_volume   393.82591750
_cell_formula_units_Z   2
loop_
 _symmetry_equiv_pos_site_id
 _symmetry_equiv_pos_as_xyz
  1  'x, y, z'
loop_
 _atom_site_type_symbol
 _atom_site_label
 _atom_site_symmetry_multiplicity
 _atom_site_fract_x
 _atom_site_fract_y
 _atom_site_fract_z
 _atom_site_occupancy
  Ca  Ca0  1  0.00000000  0.00000000  0.13143000  1.0
  Ca  Ca1  1  0.00000000  0.00000000  0.98047000  1.0
  In  In2  1  0.50000000  0.50000000  0.05595000  1.0
  In  In3  1  0.50000000  0.50000000  0.90499000  1.0
