# generated using pymatgen
data_Li8Sb4Au4CO
_symmetry_space_group_name_H-M   Cm
_cell_length_a   9.42638393
_cell_length_b   9.42638393
_cell_length_c   24.99910000
_cell_angle_alpha   90.00000000
_cell_angle_beta   90.00000000
_cell_angle_gamma   90.00000000
_symmetry_Int_Tables_number   8
_chemical_formula_structural   Li8Sb4Au4CO
_chemical_formula_sum   'Li16 Sb8 Au8 C2 O2'
_cell_volume   2221.33787954
_cell_formula_units_Z   2
loop_
 _symmetry_equiv_pos_site_id
 _symmetry_equiv_pos_as_xyz
  1  'x, y, z'
  2  'x, -y, z'
  3  'x+1/2, y+1/2, z'
  4  'x+1/2, -y+1/2, z'
loop_
 _atom_site_type_symbol
 _atom_site_label
 _atom_site_symmetry_multiplicity
 _atom_site_fract_x
 _atom_site_fract_y
 _atom_site_fract_z
 _atom_site_occupancy
  Li  Li0  4  0.00046000  0.25133000  0.10638000  1.0
  Li  Li1  4  0.25000000  0.25000000  0.90001000  1.0
  Li  Li2  2  0.00880500  0.50000000  0.02714000  1.0
  Li  Li3  2  0.25000000  0.00000000  0.96667000  1.0
  Li  Li4  2  0.25000000  0.50000000  0.96667000  1.0
  Li  Li5  2  0.49101000  0.50000000  0.02803000  1.0
  Sb  Sb6  4  0.25024000  0.26792000  0.04440000  1.0
  Sb  Sb7  2  0.00000000  0.00000000  0.90001000  1.0
  Sb  Sb8  2  0.00000000  0.50000000  0.90001000  1.0
  Au  Au9  4  0.00000000  0.25000000  0.96667000  1.0
  Au  Au10  2  0.24872000  0.50000000  0.11245000  1.0
  Au  Au11  2  0.25060000  0.00000000  0.08246000  1.0
  C  C12  2  0.24856000  0.50000000  0.19341000  1.0
  O  O13  2  0.24962500  0.50000000  0.23961000  1.0
