# generated using pymatgen
data_Hf8Al8Cu16C
_symmetry_space_group_name_H-M   'P 1'
_cell_length_a   6.21964000
_cell_length_b   8.79589000
_cell_length_c   26.59690000
_cell_angle_alpha   90.00000000
_cell_angle_beta   90.00000000
_cell_angle_gamma   90.00000000
_symmetry_Int_Tables_number   1
_chemical_formula_structural   Hf8Al8Cu16C
_chemical_formula_sum   'Hf8 Al8 Cu16 C1'
_cell_volume   1455.04377030
_cell_formula_units_Z   1
loop_
 _symmetry_equiv_pos_site_id
 _symmetry_equiv_pos_as_xyz
  1  'x, y, z'
loop_
 _atom_site_type_symbol
 _atom_site_label
 _atom_site_symmetry_multiplicity
 _atom_site_fract_x
 _atom_site_fract_y
 _atom_site_fract_z
 _atom_site_occupancy
  Hf  Hf0  1  0.00000000  0.00000000  0.87598000  1.0
  Hf  Hf1  1  0.50000000  0.25000000  0.95866000  1.0
  Hf  Hf2  1  0.50000000  0.75000000  0.95866000  1.0
  Hf  Hf3  1  0.00000000  0.50000000  0.87598000  1.0
  Hf  Hf4  1  0.00000000  0.50000000  0.05323000  1.0
  Hf  Hf5  1  0.50000000  0.71087000  0.11989000  1.0
  Hf  Hf6  1  0.50000000  0.28913000  0.11989000  1.0
  Hf  Hf7  1  0.00000000  0.00000000  0.04569000  1.0
  Al  Al8  1  0.00000000  0.75000000  0.95866000  1.0
  Al  Al9  1  0.50000000  0.00000000  0.87598000  1.0
  Al  Al10  1  0.00000000  0.25000000  0.95866000  1.0
  Al  Al11  1  0.50000000  0.50000000  0.87598000  1.0
  Al  Al12  1  0.00000000  0.23325000  0.12746000  1.0
  Al  Al13  1  0.50000000  0.50000000  0.03726000  1.0
  Al  Al14  1  0.00000000  0.76675000  0.12746000  1.0
  Al  Al15  1  0.50000000  0.00000000  0.04183000  1.0
  Cu  Cu16  1  0.25000000  0.00000000  0.95866000  1.0
  Cu  Cu17  1  0.75000000  0.50000000  0.95866000  1.0
  Cu  Cu18  1  0.75000000  0.00000000  0.95866000  1.0
  Cu  Cu19  1  0.25000000  0.50000000  0.95866000  1.0
  Cu  Cu20  1  0.75000000  0.75000000  0.87598000  1.0
  Cu  Cu21  1  0.25000000  0.25000000  0.87598000  1.0
  Cu  Cu22  1  0.25000000  0.75000000  0.87598000  1.0
  Cu  Cu23  1  0.75000000  0.25000000  0.87598000  1.0
  Cu  Cu24  1  0.20248000  0.50000000  0.14757000  1.0
  Cu  Cu25  1  0.69276000  0.00000000  0.13156000  1.0
  Cu  Cu26  1  0.79752000  0.50000000  0.14757000  1.0
  Cu  Cu27  1  0.30724000  0.00000000  0.13156000  1.0
  Cu  Cu28  1  0.75526000  0.25081000  0.03930000  1.0
  Cu  Cu29  1  0.24474000  0.74919000  0.03930000  1.0
  Cu  Cu30  1  0.24474000  0.25081000  0.03930000  1.0
  Cu  Cu31  1  0.75526000  0.74919000  0.03930000  1.0
  C  C32  1  0.00000000  0.00000000  0.12934000  1.0
