# generated using pymatgen
data_Y16Au16C
_symmetry_space_group_name_H-M   Pm
_cell_length_a   10.24760000
_cell_length_b   7.24612000
_cell_length_c   27.68570000
_cell_angle_alpha   90.00000000
_cell_angle_beta   90.00000000
_cell_angle_gamma   90.00000000
_symmetry_Int_Tables_number   6
_chemical_formula_structural   Y16Au16C
_chemical_formula_sum   'Y16 Au16 C1'
_cell_volume   2055.81104759
_cell_formula_units_Z   1
loop_
 _symmetry_equiv_pos_site_id
 _symmetry_equiv_pos_as_xyz
  1  'x, y, z'
  2  'x, -y, z'
loop_
 _atom_site_type_symbol
 _atom_site_label
 _atom_site_symmetry_multiplicity
 _atom_site_fract_x
 _atom_site_fract_y
 _atom_site_fract_z
 _atom_site_occupancy
  Y  Y0  2  0.00000000  0.25000000  0.95373000  1.0
  Y  Y1  2  0.00000000  0.28021000  0.14212000  1.0
  Y  Y2  2  0.24970000  0.25040000  0.04665000  1.0
  Y  Y3  2  0.25000000  0.25000000  0.86120000  1.0
  Y  Y4  2  0.50000000  0.24278000  0.13707000  1.0
  Y  Y5  2  0.50000000  0.25000000  0.95373000  1.0
  Y  Y6  2  0.75000000  0.25000000  0.86120000  1.0
  Y  Y7  2  0.75030000  0.25040000  0.04665000  1.0
  Au  Au8  1  0.00000000  0.00000000  0.04341000  1.0
  Au  Au9  1  0.00000000  0.00000000  0.86120000  1.0
  Au  Au10  1  0.00000000  0.50000000  0.04165000  1.0
  Au  Au11  1  0.00000000  0.50000000  0.86120000  1.0
  Au  Au12  1  0.24129000  0.00000000  0.13682000  1.0
  Au  Au13  1  0.25000000  0.00000000  0.95373000  1.0
  Au  Au14  1  0.25000000  0.50000000  0.95373000  1.0
  Au  Au15  1  0.26321000  0.50000000  0.13303000  1.0
  Au  Au16  1  0.50000000  0.00000000  0.04293000  1.0
  Au  Au17  1  0.50000000  0.00000000  0.86120000  1.0
  Au  Au18  1  0.50000000  0.50000000  0.04950000  1.0
  Au  Au19  1  0.50000000  0.50000000  0.86120000  1.0
  Au  Au20  1  0.73678000  0.50000000  0.13303000  1.0
  Au  Au21  1  0.75000000  0.00000000  0.95373000  1.0
  Au  Au22  1  0.75000000  0.50000000  0.95373000  1.0
  Au  Au23  1  0.75870000  0.00000000  0.13681000  1.0
  C  C24  1  0.00005000  0.00000000  0.16511000  1.0
