# generated using pymatgen
data_In4Ni12CO
_symmetry_space_group_name_H-M   'P 1'
_cell_length_a   7.55564000
_cell_length_b   5.34265000
_cell_length_c   24.00700000
_cell_angle_alpha   90.00000000
_cell_angle_beta   90.00000000
_cell_angle_gamma   90.00000000
_symmetry_Int_Tables_number   1
_chemical_formula_structural   In4Ni12CO
_chemical_formula_sum   'In4 Ni12 C1 O1'
_cell_volume   969.09393108
_cell_formula_units_Z   1
loop_
 _symmetry_equiv_pos_site_id
 _symmetry_equiv_pos_as_xyz
  1  'x, y, z'
loop_
 _atom_site_type_symbol
 _atom_site_label
 _atom_site_symmetry_multiplicity
 _atom_site_fract_x
 _atom_site_fract_y
 _atom_site_fract_z
 _atom_site_occupancy
  In  In0  1  0.75002000  0.00000000  0.91655000  1.0
  In  In1  1  0.74900000  0.49797000  0.03141000  1.0
  In  In2  1  0.24998000  0.00000000  0.91655000  1.0
  In  In3  1  0.25100000  0.49797000  0.03141000  1.0
  Ni  Ni4  1  0.75002000  0.50000000  0.91655000  1.0
  Ni  Ni5  1  0.50000000  0.25000000  0.97218000  1.0
  Ni  Ni6  1  0.50000000  0.75000000  0.97218000  1.0
  Ni  Ni7  1  0.74983000  0.99818000  0.02808000  1.0
  Ni  Ni8  1  0.50000000  0.76604000  0.07939000  1.0
  Ni  Ni9  1  0.50000000  0.22015000  0.07625000  1.0
  Ni  Ni10  1  0.24998000  0.50000000  0.91655000  1.0
  Ni  Ni11  1  0.00000000  0.25000000  0.97218000  1.0
  Ni  Ni12  1  0.00000000  0.75000000  0.97218000  1.0
  Ni  Ni13  1  0.25017000  0.99818000  0.02808000  1.0
  Ni  Ni14  1  0.00000000  0.77116000  0.07534000  1.0
  Ni  Ni15  1  0.00000000  0.22494000  0.07545000  1.0
  C  C16  1  0.50000000  0.75400000  0.15255000  1.0
  O  O17  1  0.50000000  0.74876000  0.20069000  1.0
