# generated using pymatgen
data_In4Ni12CO
_symmetry_space_group_name_H-M   Pm
_cell_length_a   5.34265000
_cell_length_b   7.55564000
_cell_length_c   24.00700000
_cell_angle_alpha   90.00000000
_cell_angle_beta   90.00000000
_cell_angle_gamma   90.00000000
_symmetry_Int_Tables_number   6
_chemical_formula_structural   In4Ni12CO
_chemical_formula_sum   'In4 Ni12 C1 O1'
_cell_volume   969.09393108
_cell_formula_units_Z   1
loop_
 _symmetry_equiv_pos_site_id
 _symmetry_equiv_pos_as_xyz
  1  'x, y, z'
  2  'x, -y, z'
loop_
 _atom_site_type_symbol
 _atom_site_label
 _atom_site_symmetry_multiplicity
 _atom_site_fract_x
 _atom_site_fract_y
 _atom_site_fract_z
 _atom_site_occupancy
  In  In0  2  0.00000000  0.24998000  0.08345000  1.0
  In  In1  2  0.49797000  0.25100000  0.96859000  1.0
  Ni  Ni2  2  0.50000000  0.24998000  0.08345000  1.0
  Ni  Ni3  2  0.99818000  0.25017000  0.97192000  1.0
  Ni  Ni4  1  0.22015000  0.50000000  0.92375000  1.0
  Ni  Ni5  1  0.22494000  0.00000000  0.92455000  1.0
  Ni  Ni6  1  0.25000000  0.00000000  0.02782000  1.0
  Ni  Ni7  1  0.25000000  0.50000000  0.02782000  1.0
  Ni  Ni8  1  0.75000000  0.00000000  0.02782000  1.0
  Ni  Ni9  1  0.75000000  0.50000000  0.02782000  1.0
  Ni  Ni10  1  0.76604000  0.50000000  0.92061000  1.0
  Ni  Ni11  1  0.77116000  0.00000000  0.92466000  1.0
  C  C12  1  0.75400000  0.50000000  0.84745000  1.0
  O  O13  1  0.74876000  0.50000000  0.79931000  1.0
