# generated using pymatgen
data_YAg
_symmetry_space_group_name_H-M   Pmm2
_cell_length_a   3.66252500
_cell_length_b   10.35920000
_cell_length_c   27.76940000
_cell_angle_alpha   90.00000000
_cell_angle_beta   90.00000000
_cell_angle_gamma   90.00000000
_symmetry_Int_Tables_number   25
_chemical_formula_structural   YAg
_chemical_formula_sum   'Y8 Ag8'
_cell_volume   1053.59405628
_cell_formula_units_Z   8
loop_
 _symmetry_equiv_pos_site_id
 _symmetry_equiv_pos_as_xyz
  1  'x, y, z'
  2  '-x, -y, z'
  3  '-x, y, z'
  4  'x, -y, z'
loop_
 _atom_site_type_symbol
 _atom_site_label
 _atom_site_symmetry_multiplicity
 _atom_site_fract_x
 _atom_site_fract_y
 _atom_site_fract_z
 _atom_site_occupancy
  Y  Y0  2  0.50000000  0.25000000  0.86011000  1.0
  Y  Y1  2  0.50000000  0.25024500  0.04648000  1.0
  Y  Y2  1  0.50000000  0.00000000  0.13930000  1.0
  Y  Y3  1  0.50000000  0.00000000  0.95337000  1.0
  Y  Y4  1  0.50000000  0.50000000  0.13935000  1.0
  Y  Y5  1  0.50000000  0.50000000  0.95337000  1.0
  Ag  Ag6  2  0.00000000  0.25000000  0.95337000  1.0
  Ag  Ag7  2  0.00000000  0.25003500  0.13462000  1.0
  Ag  Ag8  1  0.00000000  0.00000000  0.04773000  1.0
  Ag  Ag9  1  0.00000000  0.00000000  0.86011000  1.0
  Ag  Ag10  1  0.00000000  0.50000000  0.04774000  1.0
  Ag  Ag11  1  0.00000000  0.50000000  0.86011000  1.0
