# generated using pymatgen
data_Hf16Pt16CO
_symmetry_space_group_name_H-M   Pm
_cell_length_a   6.65903000
_cell_length_b   9.41730000
_cell_length_c   27.06300000
_cell_angle_alpha   90.00000000
_cell_angle_beta   90.00000000
_cell_angle_gamma   90.00000000
_symmetry_Int_Tables_number   6
_chemical_formula_structural   Hf16Pt16CO
_chemical_formula_sum   'Hf16 Pt16 C1 O1'
_cell_volume   1697.12298216
_cell_formula_units_Z   1
loop_
 _symmetry_equiv_pos_site_id
 _symmetry_equiv_pos_as_xyz
  1  'x, y, z'
  2  'x, -y, z'
loop_
 _atom_site_type_symbol
 _atom_site_label
 _atom_site_symmetry_multiplicity
 _atom_site_fract_x
 _atom_site_fract_y
 _atom_site_fract_z
 _atom_site_occupancy
  Hf  Hf0  2  0.00000000  0.25000000  0.95650000  1.0
  Hf  Hf1  2  0.50000000  0.25000000  0.95650000  1.0
  Hf  Hf2  2  0.50564000  0.25446000  0.13067000  1.0
  Hf  Hf3  2  0.99439000  0.25461000  0.13062000  1.0
  Hf  Hf4  1  -0.00000000  0.50000000  0.86951000  1.0
  Hf  Hf5  1  0.00000000  0.00000000  0.86951000  1.0
  Hf  Hf6  1  0.00917000  0.50000000  0.04215000  1.0
  Hf  Hf7  1  0.49041000  0.50000000  0.04215000  1.0
  Hf  Hf8  1  0.50000000  0.00000000  0.86951000  1.0
  Hf  Hf9  1  0.50000000  0.50000000  0.86951000  1.0
  Hf  Hf10  1  0.50604000  0.00000000  0.04299000  1.0
  Hf  Hf11  1  0.99436000  0.00000000  0.04302000  1.0
  Pt  Pt12  2  0.25000000  0.25000000  0.86951000  1.0
  Pt  Pt13  2  0.25025000  0.22138000  0.05393000  1.0
  Pt  Pt14  2  0.74969000  0.27270000  0.04551000  1.0
  Pt  Pt15  2  0.75000000  0.25000000  0.86951000  1.0
  Pt  Pt16  1  0.24966000  0.00000000  0.13983000  1.0
  Pt  Pt17  1  0.25000000  0.00000000  0.95650000  1.0
  Pt  Pt18  1  0.25000000  0.50000000  0.95650000  1.0
  Pt  Pt19  1  0.25002000  0.50000000  0.12366000  1.0
  Pt  Pt20  1  0.74974000  0.50000000  0.12410000  1.0
  Pt  Pt21  1  0.75000000  0.00000000  0.95650000  1.0
  Pt  Pt22  1  0.75000000  0.50000000  0.95650000  1.0
  Pt  Pt23  1  0.75032000  0.00000000  0.12288000  1.0
  C  C24  1  0.25215000  0.00000000  0.20972000  1.0
  O  O25  1  0.25282000  0.00000000  0.25265000  1.0
