# generated using pymatgen
data_Y16Zn16CO
_symmetry_space_group_name_H-M   Pm
_cell_length_a   10.13590000
_cell_length_b   7.16718000
_cell_length_c   27.60190000
_cell_angle_alpha   90.00000000
_cell_angle_beta   90.00000000
_cell_angle_gamma   90.00000000
_symmetry_Int_Tables_number   6
_chemical_formula_structural   Y16Zn16CO
_chemical_formula_sum   'Y16 Zn16 C1 O1'
_cell_volume   2005.16265249
_cell_formula_units_Z   1
loop_
 _symmetry_equiv_pos_site_id
 _symmetry_equiv_pos_as_xyz
  1  'x, y, z'
  2  'x, -y, z'
loop_
 _atom_site_type_symbol
 _atom_site_label
 _atom_site_symmetry_multiplicity
 _atom_site_fract_x
 _atom_site_fract_y
 _atom_site_fract_z
 _atom_site_occupancy
  Y  Y0  1  0.00000000  0.00000000  0.86229000  1.0
  Y  Y1  1  0.00000000  0.50000000  0.86229000  1.0
  Y  Y2  1  0.24984000  0.50000000  0.13758000  1.0
  Y  Y3  1  0.24995000  0.00000000  0.13315000  1.0
  Y  Y4  1  0.25000000  0.00000000  0.95410000  1.0
  Y  Y5  1  0.25000000  0.50000000  0.95410000  1.0
  Y  Y6  1  0.50000000  0.00000000  0.86229000  1.0
  Y  Y7  1  0.50000000  0.50000000  0.86229000  1.0
  Y  Y8  1  0.50028000  0.50000000  0.04443000  1.0
  Y  Y9  1  0.50151000  0.00000000  0.04332000  1.0
  Y  Y10  1  0.74984000  0.00000000  0.13408000  1.0
  Y  Y11  1  0.74992000  0.50000000  0.13459000  1.0
  Y  Y12  1  0.75000000  0.00000000  0.95410000  1.0
  Y  Y13  1  0.75000000  0.50000000  0.95410000  1.0
  Y  Y14  1  0.99839000  0.00000000  0.04331000  1.0
  Y  Y15  1  0.99961000  0.50000000  0.04442000  1.0
  Zn  Zn16  2  0.00000000  0.25000000  0.95410000  1.0
  Zn  Zn17  2  0.00078000  0.24967000  0.13383000  1.0
  Zn  Zn18  2  0.24983000  0.25554000  0.04456000  1.0
  Zn  Zn19  2  0.25000000  0.25000000  0.86229000  1.0
  Zn  Zn20  2  0.49890000  0.24990000  0.13385000  1.0
  Zn  Zn21  2  0.50000000  0.25000000  0.95410000  1.0
  Zn  Zn22  2  0.75000000  0.25000000  0.86229000  1.0
  Zn  Zn23  2  0.75007000  0.25156000  0.04538000  1.0
  C  C24  1  0.25125000  0.00000000  0.22196000  1.0
  O  O25  1  0.25140000  0.00000000  0.26375000  1.0
