# generated using pymatgen
data_Li8Cu8Ag8Ge8CO
_symmetry_space_group_name_H-M   'P 1'
_cell_length_a   8.81124000
_cell_length_b   6.23049000
_cell_length_c   26.60840000
_cell_angle_alpha   90.00000000
_cell_angle_beta   90.00000000
_cell_angle_gamma   90.00000000
_symmetry_Int_Tables_number   1
_chemical_formula_structural   Li8Cu8Ag8Ge8CO
_chemical_formula_sum   'Li8 Cu8 Ag8 Ge8 C1 O1'
_cell_volume   1460.75706210
_cell_formula_units_Z   1
loop_
 _symmetry_equiv_pos_site_id
 _symmetry_equiv_pos_as_xyz
  1  'x, y, z'
loop_
 _atom_site_type_symbol
 _atom_site_label
 _atom_site_symmetry_multiplicity
 _atom_site_fract_x
 _atom_site_fract_y
 _atom_site_fract_z
 _atom_site_occupancy
  Li  Li0  1  0.75000000  0.25000000  0.04139000  1.0
  Li  Li1  1  0.25000000  0.25000000  0.04139000  1.0
  Li  Li2  1  0.00000000  0.75000000  0.12418000  1.0
  Li  Li3  1  0.50000000  0.75000000  0.12418000  1.0
  Li  Li4  1  0.24895000  0.23300000  0.86513000  1.0
  Li  Li5  1  0.75105000  0.23300000  0.86513000  1.0
  Li  Li6  1  0.50000000  0.73946000  0.95983000  1.0
  Li  Li7  1  0.00000000  0.75064000  0.96014000  1.0
  Cu  Cu8  1  0.00000000  0.00000000  0.04139000  1.0
  Cu  Cu9  1  0.50000000  0.00000000  0.04139000  1.0
  Cu  Cu10  1  0.25000000  0.50000000  0.12418000  1.0
  Cu  Cu11  1  0.75000000  0.50000000  0.12418000  1.0
  Cu  Cu12  1  0.50000000  0.98123000  0.88255000  1.0
  Cu  Cu13  1  0.00000000  0.98134000  0.87570000  1.0
  Cu  Cu14  1  0.75101000  0.49522000  0.94994000  1.0
  Cu  Cu15  1  0.24899000  0.49522000  0.94994000  1.0
  Ag  Ag16  1  0.75000000  0.00000000  0.12418000  1.0
  Ag  Ag17  1  0.25000000  0.00000000  0.12418000  1.0
  Ag  Ag18  1  0.50000000  0.50000000  0.04139000  1.0
  Ag  Ag19  1  0.00000000  0.50000000  0.04139000  1.0
  Ag  Ag20  1  0.24629000  0.99209000  0.95363000  1.0
  Ag  Ag21  1  0.75371000  0.99209000  0.95363000  1.0
  Ag  Ag22  1  0.00000000  0.52686000  0.87581000  1.0
  Ag  Ag23  1  0.50000000  0.49013000  0.87265000  1.0
  Ge  Ge24  1  0.75000000  0.75000000  0.04139000  1.0
  Ge  Ge25  1  0.25000000  0.75000000  0.04139000  1.0
  Ge  Ge26  1  0.00000000  0.25000000  0.12418000  1.0
  Ge  Ge27  1  0.50000000  0.25000000  0.12418000  1.0
  Ge  Ge28  1  0.25836000  0.75294000  0.86882000  1.0
  Ge  Ge29  1  0.74164000  0.75294000  0.86882000  1.0
  Ge  Ge30  1  0.50000000  0.24710000  0.95716000  1.0
  Ge  Ge31  1  0.00000000  0.25236000  0.95567000  1.0
  C  C32  1  0.00000000  0.07523000  0.80885000  1.0
  O  O33  1  0.00000000  0.09171000  0.76558000  1.0
