data_image0
_chemical_formula_structural       Li8In8Cu8Au8C
_chemical_formula_sum              "Li8 In8 Cu8 Au8 C1"
_cell_length_a       6.41124
_cell_length_b       9.06686
_cell_length_c       26.8001
_cell_angle_alpha    90
_cell_angle_beta     90
_cell_angle_gamma    90

_space_group_name_H-M_alt    "P 1"
_space_group_IT_number       1

loop_
  _space_group_symop_operation_xyz
  'x, y, z'

loop_
  _atom_site_type_symbol
  _atom_site_label
  _atom_site_symmetry_multiplicity
  _atom_site_fract_x
  _atom_site_fract_y
  _atom_site_fract_z
  _atom_site_occupancy
  Li  Li1       1.0  0.75000  0.00000  0.95771  1.0000
  Li  Li2       1.0  0.75000  0.50000  0.95771  1.0000
  Li  Li3       1.0  0.25000  0.25000  0.87313  1.0000
  Li  Li4       1.0  0.25000  0.75000  0.87313  1.0000
  Li  Li5       1.0  0.64979  0.50000  0.15583  1.0000
  Li  Li6       1.0  0.75840  1.00000  0.13522  1.0000
  Li  Li7       1.0  0.22926  0.74961  0.04719  1.0000
  Li  Li8       1.0  0.22925  0.25038  0.04719  1.0000
  In  In1       1.0  0.00000  0.25000  0.95771  1.0000
  In  In2       1.0  0.00000  0.75000  0.95771  1.0000
  In  In3       1.0  0.50000  0.50000  0.87313  1.0000
  In  In4       1.0  0.50000  0.00000  0.87313  1.0000
  In  In5       1.0  0.98401  0.72386  0.14258  1.0000
  In  In6       1.0  0.98401  0.27614  0.14258  1.0000
  In  In7       1.0  0.50568  0.00000  0.03834  1.0000
  In  In8       1.0  0.51203  0.50000  0.04694  1.0000
  Cu  Cu1       1.0  0.25000  0.00000  0.95771  1.0000
  Cu  Cu2       1.0  0.25000  0.50000  0.95771  1.0000
  Cu  Cu3       1.0  0.75000  0.25000  0.87313  1.0000
  Cu  Cu4       1.0  0.75000  0.75000  0.87313  1.0000
  Cu  Cu5       1.0  0.25561  0.50000  0.12569  1.0000
  Cu  Cu6       1.0  0.16082  0.00000  0.12870  1.0000
  Cu  Cu7       1.0  0.75734  0.74739  0.04450  1.0000
  Cu  Cu8       1.0  0.75735  0.25261  0.04450  1.0000
  Au  Au1       1.0  0.00000  0.00000  0.87313  1.0000
  Au  Au2       1.0  0.00000  0.50000  0.87313  1.0000
  Au  Au3       1.0  0.50000  0.75000  0.95771  1.0000
  Au  Au4       1.0  0.50000  0.25000  0.95771  1.0000
  Au  Au5       1.0  0.99519  0.50000  0.04204  1.0000
  Au  Au6       1.0  0.98471  1.00000  0.03889  1.0000
  Au  Au7       1.0  0.47214  0.24312  0.12729  1.0000
  Au  Au8       1.0  0.47214  0.75688  0.12729  1.0000
  C   C1        1.0  0.45173  1.00000  0.12146  1.0000
