# generated using pymatgen
data_Li8In8Cu8Au8C
_symmetry_space_group_name_H-M   'P 1'
_cell_length_a   9.06686000
_cell_length_b   6.41124000
_cell_length_c   26.80010000
_cell_angle_alpha   90.00000000
_cell_angle_beta   90.00000000
_cell_angle_gamma   90.00000000
_symmetry_Int_Tables_number   1
_chemical_formula_structural   Li8In8Cu8Au8C
_chemical_formula_sum   'Li8 In8 Cu8 Au8 C1'
_cell_volume   1557.88486855
_cell_formula_units_Z   1
loop_
 _symmetry_equiv_pos_site_id
 _symmetry_equiv_pos_as_xyz
  1  'x, y, z'
loop_
 _atom_site_type_symbol
 _atom_site_label
 _atom_site_symmetry_multiplicity
 _atom_site_fract_x
 _atom_site_fract_y
 _atom_site_fract_z
 _atom_site_occupancy
  Li  Li0  1  0.00000000  0.75000000  0.04229000  1.0
  Li  Li1  1  0.50000000  0.75000000  0.04229000  1.0
  Li  Li2  1  0.25000000  0.25000000  0.12687000  1.0
  Li  Li3  1  0.75000000  0.25000000  0.12687000  1.0
  Li  Li4  1  0.50000000  0.64979000  0.84417000  1.0
  Li  Li5  1  0.00000000  0.75840000  0.86478000  1.0
  Li  Li6  1  0.74961000  0.22926000  0.95281000  1.0
  Li  Li7  1  0.25039000  0.22926000  0.95281000  1.0
  In  In8  1  0.25000000  1.00000000  0.04229000  1.0
  In  In9  1  0.75000000  1.00000000  0.04229000  1.0
  In  In10  1  0.50000000  0.50000000  0.12687000  1.0
  In  In11  1  0.00000000  0.50000000  0.12687000  1.0
  In  In12  1  0.72386000  0.98401000  0.85742000  1.0
  In  In13  1  0.27614000  0.98401000  0.85742000  1.0
  In  In14  1  0.00000000  0.50568000  0.96166000  1.0
  In  In15  1  0.50000000  0.51203000  0.95306000  1.0
  Cu  Cu16  1  0.00000000  0.25000000  0.04229000  1.0
  Cu  Cu17  1  0.50000000  0.25000000  0.04229000  1.0
  Cu  Cu18  1  0.25000000  0.75000000  0.12687000  1.0
  Cu  Cu19  1  0.75000000  0.75000000  0.12687000  1.0
  Cu  Cu20  1  0.50000000  0.25561000  0.87431000  1.0
  Cu  Cu21  1  0.00000000  0.16082000  0.87130000  1.0
  Cu  Cu22  1  0.74739000  0.75734000  0.95550000  1.0
  Cu  Cu23  1  0.25261000  0.75734000  0.95550000  1.0
  Au  Au24  1  0.00000000  0.00000000  0.12687000  1.0
  Au  Au25  1  0.50000000  1.00000000  0.12687000  1.0
  Au  Au26  1  0.75000000  0.50000000  0.04229000  1.0
  Au  Au27  1  0.25000000  0.50000000  0.04229000  1.0
  Au  Au28  1  0.50000000  0.99519000  0.95796000  1.0
  Au  Au29  1  0.00000000  0.98471000  0.96111000  1.0
  Au  Au30  1  0.24312000  0.47214000  0.87271000  1.0
  Au  Au31  1  0.75688000  0.47214000  0.87271000  1.0
  C  C32  1  0.00000000  0.45173000  0.87854000  1.0
