data_image0
_chemical_formula_structural       Li8Ag4Sn4C
_chemical_formula_sum              "Li8 Ag4 Sn4 C1"
_cell_length_a       6.6596
_cell_length_b       6.6596
_cell_length_c       24.9947
_cell_angle_alpha    90
_cell_angle_beta     90
_cell_angle_gamma    90

_space_group_name_H-M_alt    "P 1"
_space_group_IT_number       1

loop_
  _space_group_symop_operation_xyz
  'x, y, z'

loop_
  _atom_site_type_symbol
  _atom_site_label
  _atom_site_symmetry_multiplicity
  _atom_site_fract_x
  _atom_site_fract_y
  _atom_site_fract_z
  _atom_site_occupancy
  Li  Li1       1.0  0.00000  0.00000  0.96669  1.0000
  Li  Li2       1.0  0.47458  0.02586  0.10507  1.0000
  Li  Li3       1.0  0.02587  0.47458  0.10507  1.0000
  Li  Li4       1.0  0.50000  0.50000  0.96669  1.0000
  Li  Li5       1.0  0.25034  0.25035  0.02952  1.0000
  Li  Li6       1.0  0.25000  0.75000  0.90008  1.0000
  Li  Li7       1.0  0.74960  0.74960  0.04122  1.0000
  Li  Li8       1.0  0.75000  0.25000  0.90008  1.0000
  Ag  Ag1       1.0  0.25000  0.25000  0.90008  1.0000
  Ag  Ag2       1.0  0.24975  0.75022  0.03537  1.0000
  Ag  Ag3       1.0  0.75000  0.75000  0.90008  1.0000
  Ag  Ag4       1.0  0.75022  0.24975  0.03537  1.0000
  Sn  Sn1       1.0  0.02473  0.02473  0.11317  1.0000
  Sn  Sn2       1.0  0.47764  0.47764  0.11291  1.0000
  Sn  Sn3       1.0  0.50000  0.00000  0.96669  1.0000
  Sn  Sn4       1.0  0.00000  0.50000  0.96669  1.0000
  C   C1        1.0  0.25131  0.25131  0.11297  1.0000
