# generated using pymatgen
data_Li8Ag4Sn4C
_symmetry_space_group_name_H-M   Cm
_cell_length_a   9.41809664
_cell_length_b   9.41809664
_cell_length_c   24.99470000
_cell_angle_alpha   90.00000000
_cell_angle_beta   90.00000000
_cell_angle_gamma   90.00000000
_symmetry_Int_Tables_number   8
_chemical_formula_structural   Li8Ag4Sn4C
_chemical_formula_sum   'Li16 Ag8 Sn8 C2'
_cell_volume   2217.04349512
_cell_formula_units_Z   2
loop_
 _symmetry_equiv_pos_site_id
 _symmetry_equiv_pos_as_xyz
  1  'x, y, z'
  2  'x, -y, z'
  3  'x+1/2, y+1/2, z'
  4  'x+1/2, -y+1/2, z'
loop_
 _atom_site_type_symbol
 _atom_site_label
 _atom_site_symmetry_multiplicity
 _atom_site_fract_x
 _atom_site_fract_y
 _atom_site_fract_z
 _atom_site_occupancy
  Li  Li0  4  0.00000000  0.25000000  0.90008000  1.0
  Li  Li1  4  0.25022000  0.22436000  0.10507000  1.0
  Li  Li2  2  0.00000000  0.00000000  0.96669000  1.0
  Li  Li3  2  0.00000000  0.50000000  0.96669000  1.0
  Li  Li4  2  0.24960000  0.50000000  0.04122000  1.0
  Li  Li5  2  0.25034500  0.00000000  0.02952000  1.0
  Ag  Ag6  4  0.49998500  0.25023500  0.03537000  1.0
  Ag  Ag7  2  0.25000000  0.00000000  0.90008000  1.0
  Ag  Ag8  2  0.25000000  0.50000000  0.90008000  1.0
  Sn  Sn9  4  0.25000000  0.25000000  0.96669000  1.0
  Sn  Sn10  2  0.02473000  0.00000000  0.11317000  1.0
  Sn  Sn11  2  0.47764000  0.00000000  0.11291000  1.0
  C  C12  2  0.25131000  0.00000000  0.11297000  1.0
