# generated using pymatgen
data_Zn8Cu4Au4CO
_symmetry_space_group_name_H-M   Pm
_cell_length_a   6.22913000
_cell_length_b   6.22913000
_cell_length_c   24.67180000
_cell_angle_alpha   90.00000000
_cell_angle_beta   90.00000000
_cell_angle_gamma   90.00000000
_symmetry_Int_Tables_number   6
_chemical_formula_structural   Zn8Cu4Au4CO
_chemical_formula_sum   'Zn8 Cu4 Au4 C1 O1'
_cell_volume   957.31667765
_cell_formula_units_Z   1
loop_
 _symmetry_equiv_pos_site_id
 _symmetry_equiv_pos_as_xyz
  1  'x, y, z'
  2  'x, -y, z'
loop_
 _atom_site_type_symbol
 _atom_site_label
 _atom_site_symmetry_multiplicity
 _atom_site_fract_x
 _atom_site_fract_y
 _atom_site_fract_z
 _atom_site_occupancy
  Zn  Zn0  2  0.24607000  0.24604000  0.03463000  1.0
  Zn  Zn1  2  0.25000000  0.25001000  0.90532000  1.0
  Zn  Zn2  2  0.75000000  0.24999000  0.90532000  1.0
  Zn  Zn3  2  0.75391000  0.24601000  0.03464000  1.0
  Cu  Cu4  1  0.00000000  0.50000000  0.96844000  1.0
  Cu  Cu5  1  0.00001000  0.00000000  0.09876000  1.0
  Cu  Cu6  1  0.50000000  0.00000000  0.96844000  1.0
  Cu  Cu7  1  0.50000000  0.50000000  0.08720000  1.0
  Au  Au8  1  0.00000000  0.00000000  0.96844000  1.0
  Au  Au9  1  0.00000000  0.50000000  0.09410000  1.0
  Au  Au10  1  0.49990000  0.00000000  0.09438000  1.0
  Au  Au11  1  0.50000000  0.50000000  0.96844000  1.0
  C  C12  1  0.00003000  0.00000000  0.17518000  1.0
  O  O13  1  0.99999000  0.00000000  0.22158000  1.0
