# generated using pymatgen
data_Li4Al4Ag4Ge4CO
_symmetry_space_group_name_H-M   Pm
_cell_length_a   5.86609000
_cell_length_b   7.71364000
_cell_length_c   24.39060000
_cell_angle_alpha   90.00000000
_cell_angle_beta   90.00000000
_cell_angle_gamma   90.00000000
_symmetry_Int_Tables_number   6
_chemical_formula_structural   Li4Al4Ag4Ge4CO
_chemical_formula_sum   'Li4 Al4 Ag4 Ge4 C1 O1'
_cell_volume   1103.64797809
_cell_formula_units_Z   1
loop_
 _symmetry_equiv_pos_site_id
 _symmetry_equiv_pos_as_xyz
  1  'x, y, z'
  2  'x, -y, z'
loop_
 _atom_site_type_symbol
 _atom_site_label
 _atom_site_symmetry_multiplicity
 _atom_site_fract_x
 _atom_site_fract_y
 _atom_site_fract_z
 _atom_site_occupancy
  Li  Li0  1  0.25989000  0.50000000  0.90568000  1.0
  Li  Li1  1  0.26391000  0.00000000  0.90221000  1.0
  Li  Li2  1  0.76592000  0.00000000  0.03000000  1.0
  Li  Li3  1  0.76592000  0.50000000  0.03000000  1.0
  Al  Al4  1  0.26592000  0.00000000  0.03000000  1.0
  Al  Al5  1  0.26592000  0.50000000  0.03000000  1.0
  Al  Al6  1  0.76634000  0.50000000  0.92040000  1.0
  Al  Al7  1  0.77774000  0.00000000  0.91343000  1.0
  Ag  Ag8  2  0.00000000  0.24999000  0.09001000  1.0
  Ag  Ag9  2  0.51150000  0.24645000  0.96652000  1.0
  Ge  Ge10  2  0.02351000  0.24652000  0.96102000  1.0
  Ge  Ge11  2  0.50000000  0.24999000  0.09001000  1.0
  C  C12  1  0.78382000  0.50000000  0.84026000  1.0
  O  O13  1  0.79896000  0.50000000  0.79275000  1.0
