# generated using pymatgen
data_Al16Co16CO
_symmetry_space_group_name_H-M   'P 1'
_cell_length_a   5.70199000
_cell_length_b   8.06383000
_cell_length_c   26.04790000
_cell_angle_alpha   90.00000000
_cell_angle_beta   90.00000000
_cell_angle_gamma   90.00000000
_symmetry_Int_Tables_number   1
_chemical_formula_structural   Al16Co16CO
_chemical_formula_sum   'Al16 Co16 C1 O1'
_cell_volume   1197.67926472
_cell_formula_units_Z   1
loop_
 _symmetry_equiv_pos_site_id
 _symmetry_equiv_pos_as_xyz
  1  'x, y, z'
loop_
 _atom_site_type_symbol
 _atom_site_label
 _atom_site_symmetry_multiplicity
 _atom_site_fract_x
 _atom_site_fract_y
 _atom_site_fract_z
 _atom_site_occupancy
  Al  Al0  1  0.75000000  0.00000000  0.88391000  1.0
  Al  Al1  1  0.75000000  0.25000000  0.96130000  1.0
  Al  Al2  1  0.74876000  0.00000000  0.03904000  1.0
  Al  Al3  1  0.75002000  0.25208000  0.11722000  1.0
  Al  Al4  1  0.75000000  0.50000000  0.88391000  1.0
  Al  Al5  1  0.75000000  0.75000000  0.96130000  1.0
  Al  Al6  1  0.74980000  0.50000000  0.03937000  1.0
  Al  Al7  1  0.75002000  0.74792000  0.11722000  1.0
  Al  Al8  1  0.25000000  0.00000000  0.88391000  1.0
  Al  Al9  1  0.25000000  0.25000000  0.96130000  1.0
  Al  Al10  1  0.25124000  0.00000000  0.03904000  1.0
  Al  Al11  1  0.24998000  0.25208000  0.11722000  1.0
  Al  Al12  1  0.25000000  0.50000000  0.88391000  1.0
  Al  Al13  1  0.25000000  0.75000000  0.96130000  1.0
  Al  Al14  1  0.25020000  0.50000000  0.03937000  1.0
  Al  Al15  1  0.24998000  0.74792000  0.11722000  1.0
  Co  Co16  1  0.00000000  0.25000000  0.88391000  1.0
  Co  Co17  1  0.00000000  0.00000000  0.96130000  1.0
  Co  Co18  1  0.00000000  0.24819000  0.03816000  1.0
  Co  Co19  1  0.00000000  0.00000000  0.12009000  1.0
  Co  Co20  1  0.00000000  0.75000000  0.88391000  1.0
  Co  Co21  1  0.00000000  0.50000000  0.96130000  1.0
  Co  Co22  1  0.00000000  0.75181000  0.03816000  1.0
  Co  Co23  1  0.00000000  0.50000000  0.11450000  1.0
  Co  Co24  1  0.50000000  0.25000000  0.88391000  1.0
  Co  Co25  1  0.50000000  0.00000000  0.96130000  1.0
  Co  Co26  1  0.50000000  0.24984000  0.03785000  1.0
  Co  Co27  1  0.50000000  0.00000000  0.11467000  1.0
  Co  Co28  1  0.50000000  0.75000000  0.88391000  1.0
  Co  Co29  1  0.50000000  0.50000000  0.96130000  1.0
  Co  Co30  1  0.50000000  0.75016000  0.03785000  1.0
  Co  Co31  1  0.50000000  0.50000000  0.11498000  1.0
  C  C32  1  0.00000000  0.00000000  0.18708000  1.0
  O  O33  1  0.00000000  0.00000000  0.23143000  1.0
