# generated using pymatgen
data_Al16Co16CO
_symmetry_space_group_name_H-M   Pmm2
_cell_length_a   5.70199000
_cell_length_b   8.06383000
_cell_length_c   26.04790000
_cell_angle_alpha   90.00000000
_cell_angle_beta   90.00000000
_cell_angle_gamma   90.00000000
_symmetry_Int_Tables_number   25
_chemical_formula_structural   Al16Co16CO
_chemical_formula_sum   'Al16 Co16 C1 O1'
_cell_volume   1197.67926472
_cell_formula_units_Z   1
loop_
 _symmetry_equiv_pos_site_id
 _symmetry_equiv_pos_as_xyz
  1  'x, y, z'
  2  '-x, -y, z'
  3  '-x, y, z'
  4  'x, -y, z'
loop_
 _atom_site_type_symbol
 _atom_site_label
 _atom_site_symmetry_multiplicity
 _atom_site_fract_x
 _atom_site_fract_y
 _atom_site_fract_z
 _atom_site_occupancy
  Al  Al0  4  0.24998000  0.25208000  0.11722000  1.0
  Al  Al1  4  0.25000000  0.25000000  0.96130000  1.0
  Al  Al2  2  0.25000000  0.00000000  0.88391000  1.0
  Al  Al3  2  0.25000000  0.50000000  0.88391000  1.0
  Al  Al4  2  0.25020000  0.50000000  0.03937000  1.0
  Al  Al5  2  0.25124000  0.00000000  0.03904000  1.0
  Co  Co6  2  0.00000000  0.24819000  0.03816000  1.0
  Co  Co7  2  0.00000000  0.25000000  0.88391000  1.0
  Co  Co8  2  0.50000000  0.24984000  0.03785000  1.0
  Co  Co9  2  0.50000000  0.25000000  0.88391000  1.0
  Co  Co10  1  0.00000000  0.00000000  0.12009000  1.0
  Co  Co11  1  0.00000000  0.00000000  0.96130000  1.0
  Co  Co12  1  0.00000000  0.50000000  0.11450000  1.0
  Co  Co13  1  0.00000000  0.50000000  0.96130000  1.0
  Co  Co14  1  0.50000000  0.00000000  0.11467000  1.0
  Co  Co15  1  0.50000000  0.00000000  0.96130000  1.0
  Co  Co16  1  0.50000000  0.50000000  0.11498000  1.0
  Co  Co17  1  0.50000000  0.50000000  0.96130000  1.0
  C  C18  1  0.00000000  0.00000000  0.18708000  1.0
  O  O19  1  0.00000000  0.00000000  0.23143000  1.0
