# generated using pymatgen
data_Li8Al4Pt4C
_symmetry_space_group_name_H-M   'P 1'
_cell_length_a   6.07419000
_cell_length_b   6.07419000
_cell_length_c   24.55560000
_cell_angle_alpha   90.00000000
_cell_angle_beta   90.00000000
_cell_angle_gamma   90.00000000
_symmetry_Int_Tables_number   1
_chemical_formula_structural   Li8Al4Pt4C
_chemical_formula_sum   'Li8 Al4 Pt4 C1'
_cell_volume   905.99811742
_cell_formula_units_Z   1
loop_
 _symmetry_equiv_pos_site_id
 _symmetry_equiv_pos_as_xyz
  1  'x, y, z'
loop_
 _atom_site_type_symbol
 _atom_site_label
 _atom_site_symmetry_multiplicity
 _atom_site_fract_x
 _atom_site_fract_y
 _atom_site_fract_z
 _atom_site_occupancy
  Li  Li0  1  0.00000000  0.00000000  0.97508000  1.0
  Li  Li1  1  0.50000000  0.00000000  0.09276000  1.0
  Li  Li2  1  0.00000000  0.50000000  0.09276000  1.0
  Li  Li3  1  0.50000000  0.50000000  0.96302000  1.0
  Li  Li4  1  0.25000000  0.25000000  0.03092000  1.0
  Li  Li5  1  0.26238000  0.73752000  0.88248000  1.0
  Li  Li6  1  0.75000000  0.75000000  0.03092000  1.0
  Li  Li7  1  0.73762000  0.26248000  0.88248000  1.0
  Al  Al8  1  0.00000000  0.00000000  0.09276000  1.0
  Al  Al9  1  0.50000000  0.50000000  0.09276000  1.0
  Al  Al10  1  0.50000000  0.00000000  0.96563000  1.0
  Al  Al11  1  0.00000000  0.50000000  0.96565000  1.0
  Pt  Pt12  1  0.21477000  0.21459000  0.90984000  1.0
  Pt  Pt13  1  0.25000000  0.75000000  0.03092000  1.0
  Pt  Pt14  1  0.78523000  0.78541000  0.90984000  1.0
  Pt  Pt15  1  0.75000000  0.25000000  0.03092000  1.0
  C  C16  1  0.00000000  0.00000000  0.88464000  1.0
