# generated using pymatgen
data_Li16Bi8Au8C
_symmetry_space_group_name_H-M   'P 1'
_cell_length_a   9.72919000
_cell_length_b   6.87958000
_cell_length_c   27.29690000
_cell_angle_alpha   90.00000000
_cell_angle_beta   90.00000000
_cell_angle_gamma   90.00000000
_symmetry_Int_Tables_number   1
_chemical_formula_structural   Li16Bi8Au8C
_chemical_formula_sum   'Li16 Bi8 Au8 C1'
_cell_volume   1827.05633617
_cell_formula_units_Z   1
loop_
 _symmetry_equiv_pos_site_id
 _symmetry_equiv_pos_as_xyz
  1  'x, y, z'
loop_
 _atom_site_type_symbol
 _atom_site_label
 _atom_site_symmetry_multiplicity
 _atom_site_fract_x
 _atom_site_fract_y
 _atom_site_fract_z
 _atom_site_occupancy
  Li  Li0  1  0.74999000  1.00000000  0.04455000  1.0
  Li  Li1  1  0.00000000  0.50000000  0.13366000  1.0
  Li  Li2  1  0.25001000  1.00000000  0.04455000  1.0
  Li  Li3  1  0.50000000  0.50000000  0.13366000  1.0
  Li  Li4  1  0.24999000  0.25000000  0.13366000  1.0
  Li  Li5  1  0.75001000  0.25000000  0.13366000  1.0
  Li  Li6  1  0.50000000  0.75000000  0.04455000  1.0
  Li  Li7  1  0.00000000  0.75000000  0.04455000  1.0
  Li  Li8  1  0.21823000  0.01207000  0.86365000  1.0
  Li  Li9  1  0.50000000  0.50254000  0.95648000  1.0
  Li  Li10  1  0.78177000  0.01207000  0.86365000  1.0
  Li  Li11  1  0.00000000  0.51339000  0.95089000  1.0
  Li  Li12  1  0.75069000  0.27881000  0.94368000  1.0
  Li  Li13  1  0.24931000  0.27881000  0.94368000  1.0
  Li  Li14  1  0.00000000  0.72468000  0.85121000  1.0
  Li  Li15  1  0.50000000  0.77351000  0.87202000  1.0
  Bi  Bi16  1  0.00000000  0.00000000  0.13366000  1.0
  Bi  Bi17  1  0.24999000  0.50000000  0.04455000  1.0
  Bi  Bi18  1  0.75001000  0.50000000  0.04455000  1.0
  Bi  Bi19  1  0.50000000  1.00000000  0.13366000  1.0
  Bi  Bi20  1  0.50000000  0.99491000  0.95928000  1.0
  Bi  Bi21  1  0.73223000  0.51875000  0.85054000  1.0
  Bi  Bi22  1  0.26777000  0.51875000  0.85054000  1.0
  Bi  Bi23  1  0.00000000  0.96863000  0.95636000  1.0
  Au  Au24  1  0.00000000  0.25000000  0.04455000  1.0
  Au  Au25  1  0.50000000  0.25000000  0.04455000  1.0
  Au  Au26  1  0.74999000  0.75000000  0.13366000  1.0
  Au  Au27  1  0.25001000  0.75000000  0.13366000  1.0
  Au  Au28  1  0.50000000  0.26003000  0.87837000  1.0
  Au  Au29  1  0.00000000  0.30812000  0.86499000  1.0
  Au  Au30  1  0.25867000  0.71455000  0.94596000  1.0
  Au  Au31  1  0.74133000  0.71455000  0.94596000  1.0
  C  C32  1  0.00000000  0.00809000  0.87288000  1.0
