# generated using pymatgen
data_Li16Bi8Au8C
_symmetry_space_group_name_H-M   Pm
_cell_length_a   6.87958000
_cell_length_b   9.72919000
_cell_length_c   27.29690000
_cell_angle_alpha   90.00000000
_cell_angle_beta   90.00000000
_cell_angle_gamma   90.00000000
_symmetry_Int_Tables_number   6
_chemical_formula_structural   Li16Bi8Au8C
_chemical_formula_sum   'Li16 Bi8 Au8 C1'
_cell_volume   1827.05633617
_cell_formula_units_Z   1
loop_
 _symmetry_equiv_pos_site_id
 _symmetry_equiv_pos_as_xyz
  1  'x, y, z'
  2  'x, -y, z'
loop_
 _atom_site_type_symbol
 _atom_site_label
 _atom_site_symmetry_multiplicity
 _atom_site_fract_x
 _atom_site_fract_y
 _atom_site_fract_z
 _atom_site_occupancy
  Li  Li0  2  -0.00000000  0.25001000  0.95545000  1.0
  Li  Li1  2  0.01207000  0.21823000  0.13635000  1.0
  Li  Li2  2  0.25000000  0.24999000  0.86634000  1.0
  Li  Li3  2  0.27881000  0.24931000  0.05632000  1.0
  Li  Li4  1  0.50000000  0.00000000  0.86634000  1.0
  Li  Li5  1  0.50000000  0.50000000  0.86634000  1.0
  Li  Li6  1  0.50254000  0.50000000  0.04352000  1.0
  Li  Li7  1  0.51339000  0.00000000  0.04911000  1.0
  Li  Li8  1  0.72468000  0.00000000  0.14879000  1.0
  Li  Li9  1  0.75000000  0.00000000  0.95545000  1.0
  Li  Li10  1  0.75000000  0.50000000  0.95545000  1.0
  Li  Li11  1  0.77351000  0.50000000  0.12798000  1.0
  Bi  Bi12  2  0.50000000  0.24999000  0.95545000  1.0
  Bi  Bi13  2  0.51875000  0.26777000  0.14946000  1.0
  Bi  Bi14  1  -0.00000000  0.50000000  0.86634000  1.0
  Bi  Bi15  1  0.00000000  0.00000000  0.86634000  1.0
  Bi  Bi16  1  0.96863000  0.00000000  0.04364000  1.0
  Bi  Bi17  1  0.99491000  0.50000000  0.04072000  1.0
  Au  Au18  2  0.71455000  0.25867000  0.05404000  1.0
  Au  Au19  2  0.75000000  0.25001000  0.86634000  1.0
  Au  Au20  1  0.25000000  0.00000000  0.95545000  1.0
  Au  Au21  1  0.25000000  0.50000000  0.95545000  1.0
  Au  Au22  1  0.26003000  0.50000000  0.12163000  1.0
  Au  Au23  1  0.30812000  0.00000000  0.13501000  1.0
  C  C24  1  0.00809000  0.00000000  0.12712000  1.0
