# generated using pymatgen
data_Li8Sn8Ge8Pd8C
_symmetry_space_group_name_H-M   'P 1'
_cell_length_a   9.34812000
_cell_length_b   6.61012000
_cell_length_c   27.01110000
_cell_angle_alpha   90.00000000
_cell_angle_beta   90.00000000
_cell_angle_gamma   90.00000000
_symmetry_Int_Tables_number   1
_chemical_formula_structural   Li8Sn8Ge8Pd8C
_chemical_formula_sum   'Li8 Sn8 Ge8 Pd8 C1'
_cell_volume   1669.07515767
_cell_formula_units_Z   1
loop_
 _symmetry_equiv_pos_site_id
 _symmetry_equiv_pos_as_xyz
  1  'x, y, z'
loop_
 _atom_site_type_symbol
 _atom_site_label
 _atom_site_symmetry_multiplicity
 _atom_site_fract_x
 _atom_site_fract_y
 _atom_site_fract_z
 _atom_site_occupancy
  Li  Li0  1  0.00000000  0.75000000  0.04326000  1.0
  Li  Li1  1  0.50000000  0.75000000  0.04326000  1.0
  Li  Li2  1  0.24999000  0.25000000  0.12978000  1.0
  Li  Li3  1  0.75001000  0.25000000  0.12978000  1.0
  Li  Li4  1  0.50000000  0.66948000  0.85896000  1.0
  Li  Li5  1  0.00000000  0.81904000  0.82231000  1.0
  Li  Li6  1  0.76749000  0.27178000  0.95262000  1.0
  Li  Li7  1  0.23251000  0.27178000  0.95262000  1.0
  Sn  Sn8  1  0.24999000  0.00000000  0.04326000  1.0
  Sn  Sn9  1  0.75001000  0.00000000  0.04326000  1.0
  Sn  Sn10  1  0.50000000  0.50000000  0.12978000  1.0
  Sn  Sn11  1  0.00000000  0.50000000  0.12978000  1.0
  Sn  Sn12  1  0.74817000  0.96352000  0.87311000  1.0
  Sn  Sn13  1  0.25183000  0.96352000  0.87311000  1.0
  Sn  Sn14  1  0.00000000  0.55214000  0.93580000  1.0
  Sn  Sn15  1  0.50000000  0.48905000  0.95533000  1.0
  Ge  Ge16  1  0.00000000  0.00000000  0.12978000  1.0
  Ge  Ge17  1  0.50000000  0.00000000  0.12978000  1.0
  Ge  Ge18  1  0.74999000  0.50000000  0.04326000  1.0
  Ge  Ge19  1  0.25001000  0.50000000  0.04326000  1.0
  Ge  Ge20  1  0.50000000  0.97652000  0.96089000  1.0
  Ge  Ge21  1  0.00000000  0.99570000  0.95852000  1.0
  Ge  Ge22  1  0.20348000  0.49240000  0.84474000  1.0
  Ge  Ge23  1  0.79652000  0.49240000  0.84474000  1.0
  Pd  Pd24  1  0.00000000  0.25000000  0.04326000  1.0
  Pd  Pd25  1  0.50000000  0.25000000  0.04326000  1.0
  Pd  Pd26  1  0.24999000  0.75000000  0.12978000  1.0
  Pd  Pd27  1  0.75001000  0.75000000  0.12978000  1.0
  Pd  Pd28  1  0.50000000  0.18666000  0.88476000  1.0
  Pd  Pd29  1  0.00000000  0.19706000  0.87731000  1.0
  Pd  Pd30  1  0.74401000  0.73498000  0.96356000  1.0
  Pd  Pd31  1  0.25599000  0.73498000  0.96356000  1.0
  C  C32  1  0.00000000  0.50860000  0.83920000  1.0
