# generated using pymatgen
data_In16Sb16CO
_symmetry_space_group_name_H-M   Pm
_cell_length_a   10.85840000
_cell_length_b   7.67805000
_cell_length_c   28.14380000
_cell_angle_alpha   90.00000000
_cell_angle_beta   90.00000000
_cell_angle_gamma   90.00000000
_symmetry_Int_Tables_number   6
_chemical_formula_structural   In16Sb16CO
_chemical_formula_sum   'In16 Sb16 C1 O1'
_cell_volume   2346.38626578
_cell_formula_units_Z   1
loop_
 _symmetry_equiv_pos_site_id
 _symmetry_equiv_pos_as_xyz
  1  'x, y, z'
  2  'x, -y, z'
loop_
 _atom_site_type_symbol
 _atom_site_label
 _atom_site_symmetry_multiplicity
 _atom_site_fract_x
 _atom_site_fract_y
 _atom_site_fract_z
 _atom_site_occupancy
  In  In0  1  0.00000000  0.00000000  0.85532000  1.0
  In  In1  1  0.00000000  0.50000000  0.85532000  1.0
  In  In2  1  0.24988000  0.00000000  0.14157000  1.0
  In  In3  1  0.24994000  0.50000000  0.14646000  1.0
  In  In4  1  0.25000000  0.00000000  0.95177000  1.0
  In  In5  1  0.25000000  0.50000000  0.95177000  1.0
  In  In6  1  0.50000000  0.00000000  0.85532000  1.0
  In  In7  1  0.50000000  0.50000000  0.85532000  1.0
  In  In8  1  0.50017000  0.00000000  0.05180000  1.0
  In  In9  1  0.50080000  0.50000000  0.05717000  1.0
  In  In10  1  0.75000000  0.00000000  0.95177000  1.0
  In  In11  1  0.75000000  0.50000000  0.95177000  1.0
  In  In12  1  0.75012000  0.00000000  0.14300000  1.0
  In  In13  1  0.75020000  0.50000000  0.14744000  1.0
  In  In14  1  0.99936000  0.50000000  0.05693000  1.0
  In  In15  1  0.99989000  0.00000000  0.05162000  1.0
  Sb  Sb16  2  0.00000000  0.25000000  0.95177000  1.0
  Sb  Sb17  2  0.00151000  0.22700000  0.14501000  1.0
  Sb  Sb18  2  0.25000000  0.25000000  0.85532000  1.0
  Sb  Sb19  2  0.25056000  0.24920000  0.03911000  1.0
  Sb  Sb20  2  0.49851000  0.22675000  0.14523000  1.0
  Sb  Sb21  2  0.50000000  0.25000000  0.95177000  1.0
  Sb  Sb22  2  0.74968000  0.24821000  0.03997000  1.0
  Sb  Sb23  2  0.75000000  0.25000000  0.85532000  1.0
  C  C24  1  0.24846000  0.00000000  0.26915000  1.0
  O  O25  1  0.25064000  0.00000000  0.30940000  1.0
