# generated using pymatgen
data_Li8Mn8Sb8Pd8CO
_symmetry_space_group_name_H-M   Pm
_cell_length_a   6.44934000
_cell_length_b   9.12074000
_cell_length_c   26.84060000
_cell_angle_alpha   90.00000000
_cell_angle_beta   90.00000000
_cell_angle_gamma   90.00000000
_symmetry_Int_Tables_number   6
_chemical_formula_structural   Li8Mn8Sb8Pd8CO
_chemical_formula_sum   'Li8 Mn8 Sb8 Pd8 C1 O1'
_cell_volume   1578.83799254
_cell_formula_units_Z   1
loop_
 _symmetry_equiv_pos_site_id
 _symmetry_equiv_pos_as_xyz
  1  'x, y, z'
  2  'x, -y, z'
loop_
 _atom_site_type_symbol
 _atom_site_label
 _atom_site_symmetry_multiplicity
 _atom_site_fract_x
 _atom_site_fract_y
 _atom_site_fract_z
 _atom_site_occupancy
  Li  Li0  2  0.49041000  0.26778000  0.13740000  1.0
  Li  Li1  2  0.50000000  0.25000000  0.95752000  1.0
  Li  Li2  1  0.00000000  0.00000000  0.87257000  1.0
  Li  Li3  1  0.00000000  0.50000000  0.87257000  1.0
  Li  Li4  1  0.00598000  0.00000000  0.04379000  1.0
  Li  Li5  1  0.97500000  0.50000000  0.04199000  1.0
  Mn  Mn6  2  0.00000000  0.25000000  0.95752000  1.0
  Mn  Mn7  2  0.98039000  0.24085000  0.12553000  1.0
  Mn  Mn8  1  0.49032000  0.00000000  0.04049000  1.0
  Mn  Mn9  1  0.50000000  0.00000000  0.87257000  1.0
  Mn  Mn10  1  0.50000000  0.50000000  0.87257000  1.0
  Mn  Mn11  1  0.52830000  0.50000000  0.04996000  1.0
  Sb  Sb12  2  0.25000000  0.25000000  0.87257000  1.0
  Sb  Sb13  2  0.25856000  0.25420000  0.04570000  1.0
  Sb  Sb14  1  0.72045000  0.00000000  0.12671000  1.0
  Sb  Sb15  1  0.75000000  0.00000000  0.95752000  1.0
  Sb  Sb16  1  0.75000000  0.50000000  0.95752000  1.0
  Sb  Sb17  1  0.77502000  0.50000000  0.14126000  1.0
  Pd  Pd18  2  0.74021000  0.23761000  0.04021000  1.0
  Pd  Pd19  2  0.75000000  0.25000000  0.87257000  1.0
  Pd  Pd20  1  0.20684000  0.50000000  0.11596000  1.0
  Pd  Pd21  1  0.25000000  0.00000000  0.95752000  1.0
  Pd  Pd22  1  0.25000000  0.50000000  0.95752000  1.0
  Pd  Pd23  1  0.27433000  0.00000000  0.12877000  1.0
  C  C24  1  0.21297000  0.00000000  0.20000000  1.0
  O  O25  1  0.20367000  0.00000000  0.24296000  1.0
