# generated using pymatgen
data_MgInCuPd
_symmetry_space_group_name_H-M   'P 1'
_cell_length_a   6.45956000
_cell_length_b   4.56760000
_cell_length_c   26.85140000
_cell_angle_alpha   90.00000000
_cell_angle_beta   90.00000000
_cell_angle_gamma   90.00000000
_symmetry_Int_Tables_number   1
_chemical_formula_structural   MgInCuPd
_chemical_formula_sum   'Mg4 In4 Cu4 Pd4'
_cell_volume   792.24213253
_cell_formula_units_Z   4
loop_
 _symmetry_equiv_pos_site_id
 _symmetry_equiv_pos_as_xyz
  1  'x, y, z'
loop_
 _atom_site_type_symbol
 _atom_site_label
 _atom_site_symmetry_multiplicity
 _atom_site_fract_x
 _atom_site_fract_y
 _atom_site_fract_z
 _atom_site_occupancy
  Mg  Mg0  1  0.75000000  0.00000000  0.95747000  1.0
  Mg  Mg1  1  0.25000000  0.50000000  0.87242000  1.0
  Mg  Mg2  1  0.75505500  0.00000000  0.13197000  1.0
  Mg  Mg3  1  0.24854000  0.50000000  0.04180000  1.0
  In  In4  1  0.25000000  0.00000000  0.95747000  1.0
  In  In5  1  0.75000000  0.50000000  0.87242000  1.0
  In  In6  1  0.25711000  0.00000000  0.13972000  1.0
  In  In7  1  0.74940000  0.50000000  0.04371000  1.0
  Cu  Cu8  1  1.00000000  0.00000000  0.87242000  1.0
  Cu  Cu9  1  0.50000000  0.50000000  0.95747000  1.0
  Cu  Cu10  1  0.00545000  0.00000000  0.04690000  1.0
  Cu  Cu11  1  0.48802500  0.50000000  0.12518000  1.0
  Pd  Pd12  1  1.00000000  0.50000000  0.95747000  1.0
  Pd  Pd13  1  0.50000000  0.00000000  0.87242000  1.0
  Pd  Pd14  1  0.01344500  0.50000000  0.12394000  1.0
  Pd  Pd15  1  0.49345000  0.00000000  0.04488000  1.0
