# generated using pymatgen
data_Li8In8Cu8Sn8CO
_symmetry_space_group_name_H-M   Pm
_cell_length_a   6.73938000
_cell_length_b   9.53092000
_cell_length_c   27.14820000
_cell_angle_alpha   90.00000000
_cell_angle_beta   90.00000000
_cell_angle_gamma   90.00000000
_symmetry_Int_Tables_number   6
_chemical_formula_structural   Li8In8Cu8Sn8CO
_chemical_formula_sum   'Li8 In8 Cu8 Sn8 C1 O1'
_cell_volume   1743.79652926
_cell_formula_units_Z   1
loop_
 _symmetry_equiv_pos_site_id
 _symmetry_equiv_pos_as_xyz
  1  'x, y, z'
  2  'x, -y, z'
loop_
 _atom_site_type_symbol
 _atom_site_label
 _atom_site_symmetry_multiplicity
 _atom_site_fract_x
 _atom_site_fract_y
 _atom_site_fract_z
 _atom_site_occupancy
  Li  Li0  2  0.48758000  0.25006000  0.04472000  1.0
  Li  Li1  2  0.50000000  0.25000000  0.86835000  1.0
  Li  Li2  1  0.00000000  0.00000000  0.95612000  1.0
  Li  Li3  1  0.00000000  0.50000000  0.95612000  1.0
  Li  Li4  1  0.97641000  0.50000000  0.14891000  1.0
  Li  Li5  1  0.98418000  0.00000000  0.14796000  1.0
  In  In6  2  0.25000000  0.25000000  0.95612000  1.0
  In  In7  2  0.26728000  0.25459000  0.14540000  1.0
  In  In8  1  0.75000000  0.00000000  0.86835000  1.0
  In  In9  1  0.75000000  0.50000000  0.86835000  1.0
  In  In10  1  0.75740000  0.00000000  0.04461000  1.0
  In  In11  1  0.75948000  0.50000000  0.04413000  1.0
  Cu  Cu12  2  0.00000000  0.25000000  0.86835000  1.0
  Cu  Cu13  2  0.00286000  0.24923000  0.04388000  1.0
  Cu  Cu14  1  0.50000000  0.00000000  0.95612000  1.0
  Cu  Cu15  1  0.50000000  0.50000000  0.95612000  1.0
  Cu  Cu16  1  0.50917000  0.00000000  0.12289000  1.0
  Cu  Cu17  1  0.51424000  0.50000000  0.12226000  1.0
  Sn  Sn18  2  0.73622000  0.25042000  0.13388000  1.0
  Sn  Sn19  2  0.75000000  0.25000000  0.95612000  1.0
  Sn  Sn20  1  0.23011000  0.50000000  0.05022000  1.0
  Sn  Sn21  1  0.23269000  0.00000000  0.05032000  1.0
  Sn  Sn22  1  0.25000000  0.00000000  0.86835000  1.0
  Sn  Sn23  1  0.25000000  0.50000000  0.86835000  1.0
  C  C24  1  0.00555000  0.00000000  0.22489000  1.0
  O  O25  1  0.01133000  0.00000000  0.26688000  1.0
