# generated using pymatgen
data_Ti8Al8Fe16C
_symmetry_space_group_name_H-M   'P 1'
_cell_length_a   5.83886000
_cell_length_b   8.25739000
_cell_length_c   26.19300000
_cell_angle_alpha   90.00000000
_cell_angle_beta   90.00000000
_cell_angle_gamma   90.00000000
_symmetry_Int_Tables_number   1
_chemical_formula_structural   Ti8Al8Fe16C
_chemical_formula_sum   'Ti8 Al8 Fe16 C1'
_cell_volume   1262.86260119
_cell_formula_units_Z   1
loop_
 _symmetry_equiv_pos_site_id
 _symmetry_equiv_pos_as_xyz
  1  'x, y, z'
loop_
 _atom_site_type_symbol
 _atom_site_label
 _atom_site_symmetry_multiplicity
 _atom_site_fract_x
 _atom_site_fract_y
 _atom_site_fract_z
 _atom_site_occupancy
  Ti  Ti0  1  0.00000000  0.00000000  0.88178000  1.0
  Ti  Ti1  1  0.50000000  0.25000000  0.96059000  1.0
  Ti  Ti2  1  0.50000000  0.75000000  0.96059000  1.0
  Ti  Ti3  1  0.00000000  0.50000000  0.88178000  1.0
  Ti  Ti4  1  0.00000000  0.50000000  0.03794000  1.0
  Ti  Ti5  1  0.50000000  0.74444000  0.11912000  1.0
  Ti  Ti6  1  0.50000000  0.25556000  0.11912000  1.0
  Ti  Ti7  1  0.00000000  0.00000000  0.03647000  1.0
  Al  Al8  1  0.00000000  0.75000000  0.96059000  1.0
  Al  Al9  1  0.50000000  0.00000000  0.88178000  1.0
  Al  Al10  1  0.00000000  0.25000000  0.96059000  1.0
  Al  Al11  1  0.50000000  0.50000000  0.88178000  1.0
  Al  Al12  1  0.00000000  0.24686000  0.12180000  1.0
  Al  Al13  1  0.50000000  0.50000000  0.03926000  1.0
  Al  Al14  1  0.00000000  0.75314000  0.12180000  1.0
  Al  Al15  1  0.50000000  0.00000000  0.03859000  1.0
  Fe  Fe16  1  0.24997000  0.00000000  0.96059000  1.0
  Fe  Fe17  1  0.74997000  0.50000000  0.96059000  1.0
  Fe  Fe18  1  0.75003000  0.00000000  0.96059000  1.0
  Fe  Fe19  1  0.25003000  0.50000000  0.96059000  1.0
  Fe  Fe20  1  0.74997000  0.75000000  0.88178000  1.0
  Fe  Fe21  1  0.25003000  0.25000000  0.88178000  1.0
  Fe  Fe22  1  0.25003000  0.75000000  0.88178000  1.0
  Fe  Fe23  1  0.74997000  0.25000000  0.88178000  1.0
  Fe  Fe24  1  0.23152000  0.50000000  0.11682000  1.0
  Fe  Fe25  1  0.76244000  0.00000000  0.11662000  1.0
  Fe  Fe26  1  0.76848000  0.50000000  0.11682000  1.0
  Fe  Fe27  1  0.23756000  0.00000000  0.11662000  1.0
  Fe  Fe28  1  0.74766000  0.25033000  0.04158000  1.0
  Fe  Fe29  1  0.25234000  0.74967000  0.04158000  1.0
  Fe  Fe30  1  0.25234000  0.25033000  0.04158000  1.0
  Fe  Fe31  1  0.74766000  0.74967000  0.04158000  1.0
  C  C32  1  0.50000000  0.00000000  0.15068000  1.0
