# generated using pymatgen
data_Ga4Ni12C
_symmetry_space_group_name_H-M   P1
_cell_length_a   5.11939000
_cell_length_b   7.23991000
_cell_length_c   23.83950000
_cell_angle_alpha   90.00000000
_cell_angle_beta   90.00000000
_cell_angle_gamma   90.00000000
_symmetry_Int_Tables_number   1
_chemical_formula_structural   Ga4Ni12C
_chemical_formula_sum   'Ga4 Ni12 C1'
_cell_volume   883.58538890
_cell_formula_units_Z   1
loop_
 _symmetry_equiv_pos_site_id
 _symmetry_equiv_pos_as_xyz
  1  'x, y, z'
loop_
 _atom_site_type_symbol
 _atom_site_label
 _atom_site_symmetry_multiplicity
 _atom_site_fract_x
 _atom_site_fract_y
 _atom_site_fract_z
 _atom_site_occupancy
  Ga  Ga0  1  0.00000000  0.00000000  0.08053000  1.0
  Ga  Ga1  1  0.00000000  0.50000000  0.08053000  1.0
  Ga  Ga2  1  0.49998000  0.99993000  0.97943000  1.0
  Ga  Ga3  1  0.50000000  0.50009000  0.96225000  1.0
  Ni  Ni4  1  0.00000000  0.99996000  0.98104000  1.0
  Ni  Ni5  1  0.24087000  0.80067000  0.91835000  1.0
  Ni  Ni6  1  0.24093000  0.19926000  0.91840000  1.0
  Ni  Ni7  1  0.25000000  0.25000000  0.02684000  1.0
  Ni  Ni8  1  0.25000000  0.75000000  0.02684000  1.0
  Ni  Ni9  1  0.50000000  0.00000000  0.08053000  1.0
  Ni  Ni10  1  0.50000000  0.50000000  0.08053000  1.0
  Ni  Ni11  1  0.75000000  0.25000000  0.02684000  1.0
  Ni  Ni12  1  0.75000000  0.75000000  0.02684000  1.0
  Ni  Ni13  1  0.75908000  0.19924000  0.91841000  1.0
  Ni  Ni14  1  0.75922000  0.80070000  0.91839000  1.0
  Ni  Ni15  1  0.99998000  0.50002000  0.96472000  1.0
  C  C16  1  0.00000000  0.00006000  0.90179000  1.0
