# generated using pymatgen
data_Li8Sc8In8Pd8CO
_symmetry_space_group_name_H-M   'P 1'
_cell_length_a   9.31984000
_cell_length_b   6.59012000
_cell_length_c   26.98990000
_cell_angle_alpha   90.00000000
_cell_angle_beta   90.00000000
_cell_angle_gamma   90.00000000
_symmetry_Int_Tables_number   1
_chemical_formula_structural   Li8Sc8In8Pd8CO
_chemical_formula_sum   'Li8 Sc8 In8 Pd8 C1 O1'
_cell_volume   1657.68899696
_cell_formula_units_Z   1
loop_
 _symmetry_equiv_pos_site_id
 _symmetry_equiv_pos_as_xyz
  1  'x, y, z'
loop_
 _atom_site_type_symbol
 _atom_site_label
 _atom_site_symmetry_multiplicity
 _atom_site_fract_x
 _atom_site_fract_y
 _atom_site_fract_z
 _atom_site_occupancy
  Li  Li0  1  0.50000000  0.75000000  0.04316000  1.0
  Li  Li1  1  0.00000000  0.75000000  0.04316000  1.0
  Li  Li2  1  0.75001000  0.25000000  0.12949000  1.0
  Li  Li3  1  0.24999000  0.25000000  0.12949000  1.0
  Li  Li4  1  0.00000000  0.58989000  0.81674000  1.0
  Li  Li5  1  0.50000000  0.71295000  0.83557000  1.0
  Li  Li6  1  0.24872000  0.25551000  0.95569000  1.0
  Li  Li7  1  0.75128000  0.25551000  0.95569000  1.0
  Sc  Sc8  1  0.75001000  1.00000000  0.04316000  1.0
  Sc  Sc9  1  0.24999000  1.00000000  0.04316000  1.0
  Sc  Sc10  1  0.00000000  0.50000000  0.12949000  1.0
  Sc  Sc11  1  0.50000000  0.50000000  0.12949000  1.0
  Sc  Sc12  1  0.23824000  0.97096000  0.87567000  1.0
  Sc  Sc13  1  0.76176000  0.97096000  0.87567000  1.0
  Sc  Sc14  1  0.50000000  0.50461000  0.95036000  1.0
  Sc  Sc15  1  0.00000000  0.52335000  0.94735000  1.0
  In  In16  1  0.50000000  0.00000000  0.12949000  1.0
  In  In17  1  0.00000000  1.00000000  0.12949000  1.0
  In  In18  1  0.25001000  0.50000000  0.04316000  1.0
  In  In19  1  0.74999000  0.50000000  0.04316000  1.0
  In  In20  1  0.00000000  0.00088000  0.95888000  1.0
  In  In21  1  0.50000000  0.00127000  0.95619000  1.0
  In  In22  1  0.74267000  0.48964000  0.86645000  1.0
  In  In23  1  0.25733000  0.48964000  0.86645000  1.0
  Pd  Pd24  1  0.50000000  0.25000000  0.04316000  1.0
  Pd  Pd25  1  0.00000000  0.25000000  0.04316000  1.0
  Pd  Pd26  1  0.75001000  0.75000000  0.12949000  1.0
  Pd  Pd27  1  0.24999000  0.75000000  0.12949000  1.0
  Pd  Pd28  1  0.00000000  0.24691000  0.87584000  1.0
  Pd  Pd29  1  0.50000000  0.20730000  0.86508000  1.0
  Pd  Pd30  1  0.25175000  0.74682000  0.95869000  1.0
  Pd  Pd31  1  0.74825000  0.74682000  0.95869000  1.0
  C  C32  1  0.50000000  0.11888000  0.79641000  1.0
  O  O33  1  0.50000000  0.10309000  0.75334000  1.0
