# generated using pymatgen
data_Li4In4Pd4Rh4C
_symmetry_space_group_name_H-M   Cm
_cell_length_a   8.90633518
_cell_length_b   8.90633518
_cell_length_c   24.72330000
_cell_angle_alpha   90.00000000
_cell_angle_beta   90.00000000
_cell_angle_gamma   90.00000000
_symmetry_Int_Tables_number   8
_chemical_formula_structural   Li4In4Pd4Rh4C
_chemical_formula_sum   'Li8 In8 Pd8 Rh8 C2'
_cell_volume   1961.12153714
_cell_formula_units_Z   2
loop_
 _symmetry_equiv_pos_site_id
 _symmetry_equiv_pos_as_xyz
  1  'x, y, z'
  2  'x, -y, z'
  3  'x+1/2, y+1/2, z'
  4  'x+1/2, -y+1/2, z'
loop_
 _atom_site_type_symbol
 _atom_site_label
 _atom_site_symmetry_multiplicity
 _atom_site_fract_x
 _atom_site_fract_y
 _atom_site_fract_z
 _atom_site_occupancy
  Li  Li0  4  0.24957500  0.25501500  0.10206000  1.0
  Li  Li1  2  0.00000000  0.00000000  0.96816000  1.0
  Li  Li2  2  0.00000000  0.50000000  0.96816000  1.0
  In  In3  4  0.25000000  0.25000000  0.96816000  1.0
  In  In4  2  0.00029500  0.50000000  0.10107000  1.0
  In  In5  2  0.00059500  0.00000000  0.10110000  1.0
  Pd  Pd6  4  0.00000000  0.25000000  0.90448000  1.0
  Pd  Pd7  2  0.25019000  0.00000000  0.03690000  1.0
  Pd  Pd8  2  0.25030000  0.50000000  0.02914000  1.0
  Rh  Rh9  4  0.49993000  0.24992000  0.03425000  1.0
  Rh  Rh10  2  0.25000000  0.00000000  0.90448000  1.0
  Rh  Rh11  2  0.25000000  0.50000000  0.90448000  1.0
  C  C12  2  0.25079000  0.50000000  0.11281000  1.0
