# generated using pymatgen
data_Li8Sn8Ge8Pd8CO
_symmetry_space_group_name_H-M   Pm
_cell_length_a   6.61012000
_cell_length_b   9.34812000
_cell_length_c   27.01110000
_cell_angle_alpha   90.00000000
_cell_angle_beta   90.00000000
_cell_angle_gamma   90.00000000
_symmetry_Int_Tables_number   6
_chemical_formula_structural   Li8Sn8Ge8Pd8CO
_chemical_formula_sum   'Li8 Sn8 Ge8 Pd8 C1 O1'
_cell_volume   1669.07515767
_cell_formula_units_Z   1
loop_
 _symmetry_equiv_pos_site_id
 _symmetry_equiv_pos_as_xyz
  1  'x, y, z'
  2  'x, -y, z'
loop_
 _atom_site_type_symbol
 _atom_site_label
 _atom_site_symmetry_multiplicity
 _atom_site_fract_x
 _atom_site_fract_y
 _atom_site_fract_z
 _atom_site_occupancy
  Li  Li0  2  0.68481000  0.25099000  0.14170000  1.0
  Li  Li1  2  0.75000000  0.25000000  0.95674000  1.0
  Li  Li2  1  0.21913000  0.50000000  0.04436000  1.0
  Li  Li3  1  0.21927000  0.00000000  0.04425000  1.0
  Li  Li4  1  0.25000000  0.00000000  0.87022000  1.0
  Li  Li5  1  0.25000000  0.50000000  0.87022000  1.0
  Sn  Sn6  2  0.50000000  0.25000000  0.87022000  1.0
  Sn  Sn7  2  0.50569000  0.25059000  0.04060000  1.0
  Sn  Sn8  1  0.00000000  0.00000000  0.95674000  1.0
  Sn  Sn9  1  0.00000000  0.50000000  0.95674000  1.0
  Sn  Sn10  1  0.99595000  0.50000000  0.13835000  1.0
  Sn  Sn11  1  0.99622000  0.00000000  0.13831000  1.0
  Ge  Ge12  2  0.00000000  0.25000000  0.87022000  1.0
  Ge  Ge13  2  0.96400000  0.24952000  0.05099000  1.0
  Ge  Ge14  1  0.44493000  0.50000000  0.13051000  1.0
  Ge  Ge15  1  0.45195000  0.00000000  0.12871000  1.0
  Ge  Ge16  1  0.50000000  0.00000000  0.95674000  1.0
  Ge  Ge17  1  0.50000000  0.50000000  0.95674000  1.0
  Pd  Pd18  2  0.24849000  0.24924000  0.11760000  1.0
  Pd  Pd19  2  0.25000000  0.25000000  0.95674000  1.0
  Pd  Pd20  1  0.75000000  0.00000000  0.87022000  1.0
  Pd  Pd21  1  0.75000000  0.50000000  0.87022000  1.0
  Pd  Pd22  1  0.75187000  0.00000000  0.04510000  1.0
  Pd  Pd23  1  0.75412000  0.50000000  0.04560000  1.0
  C  C24  1  0.33929000  0.00000000  0.27207000  1.0
  O  O25  1  0.49766000  0.00000000  0.28840000  1.0
