# generated using pymatgen
data_Li8Al24CO
_symmetry_space_group_name_H-M   P4mm
_cell_length_a   8.00621000
_cell_length_b   8.00621000
_cell_length_c   26.00470000
_cell_angle_alpha   90.00000000
_cell_angle_beta   90.00000000
_cell_angle_gamma   90.00000000
_symmetry_Int_Tables_number   99
_chemical_formula_structural   Li8Al24CO
_chemical_formula_sum   'Li8 Al24 C1 O1'
_cell_volume   1666.88562984
_cell_formula_units_Z   1
loop_
 _symmetry_equiv_pos_site_id
 _symmetry_equiv_pos_as_xyz
  1  'x, y, z'
  2  '-y, x, z'
  3  '-x, -y, z'
  4  'y, -x, z'
  5  '-x, y, z'
  6  'y, x, z'
  7  'x, -y, z'
  8  '-y, -x, z'
loop_
 _atom_site_type_symbol
 _atom_site_label
 _atom_site_symmetry_multiplicity
 _atom_site_fract_x
 _atom_site_fract_y
 _atom_site_fract_z
 _atom_site_occupancy
  Li  Li0  2  0.00000000  0.50000000  0.11545000  1.0
  Li  Li1  2  0.00000000  0.50000000  0.96152000  1.0
  Li  Li2  1  0.00000000  0.00000000  0.11545000  1.0
  Li  Li3  1  0.00000000  0.00000000  0.96152000  1.0
  Li  Li4  1  0.50000000  0.50000000  0.11545000  1.0
  Li  Li5  1  0.50000000  0.50000000  0.96152000  1.0
  Al  Al6  4  0.00000000  0.25000000  0.03848000  1.0
  Al  Al7  4  0.00000000  0.25000000  0.88455000  1.0
  Al  Al8  4  0.25000000  0.25000000  0.11545000  1.0
  Al  Al9  4  0.25000000  0.25000000  0.96152000  1.0
  Al  Al10  4  0.25000000  0.50000000  0.03848000  1.0
  Al  Al11  4  0.25000000  0.50000000  0.88455000  1.0
  C  C12  1  0.00000000  0.00000000  0.18852000  1.0
  O  O13  1  0.00000000  0.00000000  0.23274000  1.0
