# generated using pymatgen
data_Li8Cu16Ge8C
_symmetry_space_group_name_H-M   'P 1'
_cell_length_a   8.40623000
_cell_length_b   5.94410000
_cell_length_c   26.30470000
_cell_angle_alpha   90.00000000
_cell_angle_beta   90.00000000
_cell_angle_gamma   90.00000000
_symmetry_Int_Tables_number   1
_chemical_formula_structural   Li8Cu16Ge8C
_chemical_formula_sum   'Li8 Cu16 Ge8 C1'
_cell_volume   1314.37935396
_cell_formula_units_Z   1
loop_
 _symmetry_equiv_pos_site_id
 _symmetry_equiv_pos_as_xyz
  1  'x, y, z'
loop_
 _atom_site_type_symbol
 _atom_site_label
 _atom_site_symmetry_multiplicity
 _atom_site_fract_x
 _atom_site_fract_y
 _atom_site_fract_z
 _atom_site_occupancy
  Li  Li0  1  0.75000000  0.00000000  0.11984000  1.0
  Li  Li1  1  0.00000000  0.50000000  0.03995000  1.0
  Li  Li2  1  0.50000000  0.50000000  0.03995000  1.0
  Li  Li3  1  0.25000000  0.00000000  0.11984000  1.0
  Li  Li4  1  0.26502000  0.99705000  0.96554000  1.0
  Li  Li5  1  0.50000000  0.47708000  0.86442000  1.0
  Li  Li6  1  0.00000000  0.48593000  0.87342000  1.0
  Li  Li7  1  0.73498000  0.99705000  0.96554000  1.0
  Cu  Cu8  1  0.75000000  0.25000000  0.03995000  1.0
  Cu  Cu9  1  0.25000000  0.75000000  0.03995000  1.0
  Cu  Cu10  1  0.75000000  0.75000000  0.03995000  1.0
  Cu  Cu11  1  0.25000000  0.25000000  0.03995000  1.0
  Cu  Cu12  1  0.50000000  0.75000000  0.11984000  1.0
  Cu  Cu13  1  0.00000000  0.25000000  0.11984000  1.0
  Cu  Cu14  1  0.50000000  0.25000000  0.11984000  1.0
  Cu  Cu15  1  0.00000000  0.75000000  0.11984000  1.0
  Cu  Cu16  1  0.23576000  0.19925000  0.88457000  1.0
  Cu  Cu17  1  0.73871000  0.75605000  0.88643000  1.0
  Cu  Cu18  1  0.26129000  0.75605000  0.88643000  1.0
  Cu  Cu19  1  0.76424000  0.19925000  0.88457000  1.0
  Cu  Cu20  1  0.00000000  0.76297000  0.95418000  1.0
  Cu  Cu21  1  0.50000000  0.26512000  0.95275000  1.0
  Cu  Cu22  1  0.00000000  0.22373000  0.95758000  1.0
  Cu  Cu23  1  0.50000000  0.73109000  0.95312000  1.0
  Ge  Ge24  1  0.50000000  1.00000000  0.03995000  1.0
  Ge  Ge25  1  0.75000000  0.50000000  0.11984000  1.0
  Ge  Ge26  1  0.00000000  0.00000000  0.03995000  1.0
  Ge  Ge27  1  0.25000000  0.50000000  0.11984000  1.0
  Ge  Ge28  1  0.00000000  0.87938000  0.84715000  1.0
  Ge  Ge29  1  0.24315000  0.49809000  0.95987000  1.0
  Ge  Ge30  1  0.50000000  0.00487000  0.87418000  1.0
  Ge  Ge31  1  0.75685000  0.49809000  0.95987000  1.0
  C  C32  1  0.00000000  0.15478000  0.88243000  1.0
