# generated using pymatgen
data_Li8Cu16Ge8C
_symmetry_space_group_name_H-M   Pm
_cell_length_a   5.94410000
_cell_length_b   8.40623000
_cell_length_c   26.30470000
_cell_angle_alpha   90.00000000
_cell_angle_beta   90.00000000
_cell_angle_gamma   90.00000000
_symmetry_Int_Tables_number   6
_chemical_formula_structural   Li8Cu16Ge8C
_chemical_formula_sum   'Li8 Cu16 Ge8 C1'
_cell_volume   1314.37935396
_cell_formula_units_Z   1
loop_
 _symmetry_equiv_pos_site_id
 _symmetry_equiv_pos_as_xyz
  1  'x, y, z'
  2  'x, -y, z'
loop_
 _atom_site_type_symbol
 _atom_site_label
 _atom_site_symmetry_multiplicity
 _atom_site_fract_x
 _atom_site_fract_y
 _atom_site_fract_z
 _atom_site_occupancy
  Li  Li0  2  0.00000000  0.25000000  0.88016000  1.0
  Li  Li1  2  0.99705000  0.26502000  0.03446000  1.0
  Li  Li2  1  0.47708000  0.50000000  0.13558000  1.0
  Li  Li3  1  0.48593000  0.00000000  0.12658000  1.0
  Li  Li4  1  0.50000000  0.00000000  0.96005000  1.0
  Li  Li5  1  0.50000000  0.50000000  0.96005000  1.0
  Cu  Cu6  2  0.19925000  0.23576000  0.11543000  1.0
  Cu  Cu7  2  0.25000000  0.25000000  0.96005000  1.0
  Cu  Cu8  2  0.75000000  0.25000000  0.96005000  1.0
  Cu  Cu9  2  0.75605000  0.26129000  0.11357000  1.0
  Cu  Cu10  1  0.22373000  0.00000000  0.04242000  1.0
  Cu  Cu11  1  0.25000000  0.00000000  0.88016000  1.0
  Cu  Cu12  1  0.25000000  0.50000000  0.88016000  1.0
  Cu  Cu13  1  0.26512000  0.50000000  0.04725000  1.0
  Cu  Cu14  1  0.73109000  0.50000000  0.04688000  1.0
  Cu  Cu15  1  0.75000000  0.00000000  0.88016000  1.0
  Cu  Cu16  1  0.75000000  0.50000000  0.88016000  1.0
  Cu  Cu17  1  0.76297000  0.00000000  0.04582000  1.0
  Ge  Ge18  2  0.49809000  0.24315000  0.04013000  1.0
  Ge  Ge19  2  0.50000000  0.25000000  0.88016000  1.0
  Ge  Ge20  1  -0.00000000  0.50000000  0.96005000  1.0
  Ge  Ge21  1  0.00000000  0.00000000  0.96005000  1.0
  Ge  Ge22  1  0.00487000  0.50000000  0.12582000  1.0
  Ge  Ge23  1  0.87938000  0.00000000  0.15285000  1.0
  C  C24  1  0.15478000  0.00000000  0.11757000  1.0
