# generated using pymatgen
data_Li4V4Ge4Pd4CO
_symmetry_space_group_name_H-M   Pm
_cell_length_a   6.38622000
_cell_length_b   5.68832000
_cell_length_c   24.77250000
_cell_angle_alpha   90.00000000
_cell_angle_beta   90.00000000
_cell_angle_gamma   90.00000000
_symmetry_Int_Tables_number   6
_chemical_formula_structural   Li4V4Ge4Pd4CO
_chemical_formula_sum   'Li4 V4 Ge4 Pd4 C1 O1'
_cell_volume   899.90721244
_cell_formula_units_Z   1
loop_
 _symmetry_equiv_pos_site_id
 _symmetry_equiv_pos_as_xyz
  1  'x, y, z'
  2  'x, -y, z'
loop_
 _atom_site_type_symbol
 _atom_site_label
 _atom_site_symmetry_multiplicity
 _atom_site_fract_x
 _atom_site_fract_y
 _atom_site_fract_z
 _atom_site_occupancy
  Li  Li0  2  0.18657000  0.25000000  0.90367000  1.0
  Li  Li1  2  0.70728000  0.24717000  0.04170000  1.0
  V  V2  2  0.22841000  0.24373000  0.03082000  1.0
  V  V3  2  0.68657000  0.25000000  0.90367000  1.0
  Ge  Ge4  1  0.00017000  0.50000000  0.09668000  1.0
  Ge  Ge5  1  0.00327000  0.00000000  0.09762000  1.0
  Ge  Ge6  1  0.45771000  0.00000000  0.96789000  1.0
  Ge  Ge7  1  0.45771000  0.50000000  0.96789000  1.0
  Pd  Pd8  1  0.41112000  0.00000000  0.11347000  1.0
  Pd  Pd9  1  0.42133000  0.50000000  0.10207000  1.0
  Pd  Pd10  1  0.95771000  0.00000000  0.96789000  1.0
  Pd  Pd11  1  0.95771000  0.50000000  0.96789000  1.0
  C  C12  1  0.51627000  0.00000000  0.18904000  1.0
  O  O13  1  0.55315000  0.00000000  0.23439000  1.0
