# generated using pymatgen
data_Si4Ni12C
_symmetry_space_group_name_H-M   P1
_cell_length_a   4.97055000
_cell_length_b   7.02942000
_cell_length_c   23.72790000
_cell_angle_alpha   90.00000000
_cell_angle_beta   90.00000000
_cell_angle_gamma   90.00000000
_symmetry_Int_Tables_number   1
_chemical_formula_structural   Si4Ni12C
_chemical_formula_sum   'Si4 Ni12 C1'
_cell_volume   829.05480920
_cell_formula_units_Z   1
loop_
 _symmetry_equiv_pos_site_id
 _symmetry_equiv_pos_as_xyz
  1  'x, y, z'
loop_
 _atom_site_type_symbol
 _atom_site_label
 _atom_site_symmetry_multiplicity
 _atom_site_fract_x
 _atom_site_fract_y
 _atom_site_fract_z
 _atom_site_occupancy
  Si  Si0  1  0.00486000  0.98836000  0.92454000  1.0
  Si  Si1  1  0.00489000  0.51160000  0.92456000  1.0
  Si  Si2  1  0.50000000  0.00000000  0.02619000  1.0
  Si  Si3  1  0.50000000  0.50000000  0.02619000  1.0
  Ni  Ni4  1  0.00000000  0.00000000  0.02619000  1.0
  Ni  Ni5  1  0.00000000  0.50000000  0.02619000  1.0
  Ni  Ni6  1  0.24035000  0.75002000  0.97359000  1.0
  Ni  Ni7  1  0.25000000  0.25000000  0.07856000  1.0
  Ni  Ni8  1  0.25000000  0.75000000  0.07856000  1.0
  Ni  Ni9  1  0.26265000  0.24995000  0.96661000  1.0
  Ni  Ni10  1  0.51274000  0.96831000  0.91802000  1.0
  Ni  Ni11  1  0.51279000  0.53172000  0.91802000  1.0
  Ni  Ni12  1  0.74226000  0.75002000  0.98225000  1.0
  Ni  Ni13  1  0.75000000  0.25000000  0.07856000  1.0
  Ni  Ni14  1  0.75000000  0.75000000  0.07856000  1.0
  Ni  Ni15  1  0.75972000  0.24994000  0.96421000  1.0
  C  C16  1  0.74846000  0.75003000  0.90403000  1.0
