# generated using pymatgen
data_Li4Y4Ag4Sn4CO
_symmetry_space_group_name_H-M   Cmm2
_cell_length_a   10.05808485
_cell_length_b   10.05808485
_cell_length_c   25.33410000
_cell_angle_alpha   90.00000000
_cell_angle_beta   90.00000000
_cell_angle_gamma   90.00000000
_symmetry_Int_Tables_number   35
_chemical_formula_structural   Li4Y4Ag4Sn4CO
_chemical_formula_sum   'Li8 Y8 Ag8 Sn8 C2 O2'
_cell_volume   2562.92601912
_cell_formula_units_Z   2
loop_
 _symmetry_equiv_pos_site_id
 _symmetry_equiv_pos_as_xyz
  1  'x, y, z'
  2  '-x, -y, z'
  3  '-x, y, z'
  4  'x, -y, z'
  5  'x+1/2, y+1/2, z'
  6  '-x+1/2, -y+1/2, z'
  7  '-x+1/2, y+1/2, z'
  8  'x+1/2, -y+1/2, z'
loop_
 _atom_site_type_symbol
 _atom_site_label
 _atom_site_symmetry_multiplicity
 _atom_site_fract_x
 _atom_site_fract_y
 _atom_site_fract_z
 _atom_site_occupancy
  Li  Li0  4  0.00000000  0.24999500  0.89472000  1.0
  Li  Li1  4  0.24558500  0.00000000  0.04015000  1.0
  Y  Y2  4  0.00000000  0.24705500  0.03753000  1.0
  Y  Y3  4  0.24999500  0.00000000  0.89472000  1.0
  Ag  Ag4  4  0.25000000  0.25000000  0.10699000  1.0
  Ag  Ag5  2  0.00000000  0.00000000  0.96491000  1.0
  Ag  Ag6  2  0.00000000  0.50000000  0.96491000  1.0
  Sn  Sn7  4  0.25000000  0.25000000  0.96491000  1.0
  Sn  Sn8  2  0.00000000  0.00000000  0.10792000  1.0
  Sn  Sn9  2  0.00000000  0.50000000  0.10582000  1.0
  C  C10  2  0.00000000  0.50000000  0.19303000  1.0
  O  O11  2  0.00000000  0.50000000  0.23843000  1.0
