# generated using pymatgen
data_Li8Ni16Ge8C
_symmetry_space_group_name_H-M   'P 1'
_cell_length_a   5.71239000
_cell_length_b   8.07854000
_cell_length_c   26.05890000
_cell_angle_alpha   90.00000000
_cell_angle_beta   90.00000000
_cell_angle_gamma   90.00000000
_symmetry_Int_Tables_number   1
_chemical_formula_structural   Li8Ni16Ge8C
_chemical_formula_sum   'Li8 Ni16 Ge8 C1'
_cell_volume   1202.56015259
_cell_formula_units_Z   1
loop_
 _symmetry_equiv_pos_site_id
 _symmetry_equiv_pos_as_xyz
  1  'x, y, z'
loop_
 _atom_site_type_symbol
 _atom_site_label
 _atom_site_symmetry_multiplicity
 _atom_site_fract_x
 _atom_site_fract_y
 _atom_site_fract_z
 _atom_site_occupancy
  Li  Li0  1  0.00000000  0.00000000  0.88375000  1.0
  Li  Li1  1  0.50000000  0.24998000  0.96125000  1.0
  Li  Li2  1  0.50000000  0.75002000  0.96125000  1.0
  Li  Li3  1  0.00000000  0.50000000  0.88375000  1.0
  Li  Li4  1  0.00000000  0.50000000  0.03313000  1.0
  Li  Li5  1  0.50000000  0.73369000  0.13784000  1.0
  Li  Li6  1  0.50000000  0.26631000  0.13784000  1.0
  Li  Li7  1  0.00000000  0.00000000  0.03948000  1.0
  Ni  Ni8  1  0.25000000  0.00000000  0.96125000  1.0
  Ni  Ni9  1  0.75000000  0.50000000  0.96125000  1.0
  Ni  Ni10  1  0.75000000  0.00000000  0.96125000  1.0
  Ni  Ni11  1  0.25000000  0.50000000  0.96125000  1.0
  Ni  Ni12  1  0.75000000  0.74998000  0.88375000  1.0
  Ni  Ni13  1  0.25000000  0.25002000  0.88375000  1.0
  Ni  Ni14  1  0.25000000  0.74998000  0.88375000  1.0
  Ni  Ni15  1  0.75000000  0.25002000  0.88375000  1.0
  Ni  Ni16  1  0.22328000  0.50000000  0.10924000  1.0
  Ni  Ni17  1  0.71649000  0.00000000  0.11127000  1.0
  Ni  Ni18  1  0.77672000  0.50000000  0.10924000  1.0
  Ni  Ni19  1  0.28351000  0.00000000  0.11127000  1.0
  Ni  Ni20  1  0.74750000  0.25135000  0.04089000  1.0
  Ni  Ni21  1  0.25250000  0.74865000  0.04089000  1.0
  Ni  Ni22  1  0.25250000  0.25135000  0.04089000  1.0
  Ni  Ni23  1  0.74750000  0.74865000  0.04089000  1.0
  Ge  Ge24  1  0.00000000  0.74998000  0.96125000  1.0
  Ge  Ge25  1  0.50000000  0.00000000  0.88375000  1.0
  Ge  Ge26  1  0.00000000  0.25002000  0.96125000  1.0
  Ge  Ge27  1  0.50000000  0.50000000  0.88375000  1.0
  Ge  Ge28  1  0.00000000  0.24824000  0.11948000  1.0
  Ge  Ge29  1  0.50000000  0.50000000  0.03983000  1.0
  Ge  Ge30  1  0.00000000  0.75176000  0.11948000  1.0
  Ge  Ge31  1  0.50000000  0.00000000  0.03394000  1.0
  C  C32  1  0.00000000  0.00000000  0.14200000  1.0
