# generated using pymatgen
data_Li8Nb8Al8Pd8C
_symmetry_space_group_name_H-M   Pm
_cell_length_a   6.26744000
_cell_length_b   8.86350000
_cell_length_c   26.64760000
_cell_angle_alpha   90.00000000
_cell_angle_beta   90.00000000
_cell_angle_gamma   90.00000000
_symmetry_Int_Tables_number   6
_chemical_formula_structural   Li8Nb8Al8Pd8C
_chemical_formula_sum   'Li8 Nb8 Al8 Pd8 C1'
_cell_volume   1480.31293734
_cell_formula_units_Z   1
loop_
 _symmetry_equiv_pos_site_id
 _symmetry_equiv_pos_as_xyz
  1  'x, y, z'
  2  'x, -y, z'
loop_
 _atom_site_type_symbol
 _atom_site_label
 _atom_site_symmetry_multiplicity
 _atom_site_fract_x
 _atom_site_fract_y
 _atom_site_fract_z
 _atom_site_occupancy
  Li  Li0  2  0.74102000  0.24968000  0.04239000  1.0
  Li  Li1  2  0.75000000  0.25000000  0.87527000  1.0
  Li  Li2  1  0.23024000  0.00000000  0.17969000  1.0
  Li  Li3  1  0.25000000  0.00000000  0.95842000  1.0
  Li  Li4  1  0.25000000  0.50000000  0.95842000  1.0
  Li  Li5  1  0.31069000  0.50000000  0.16795000  1.0
  Nb  Nb6  2  -0.00000000  0.25000000  0.95842000  1.0
  Nb  Nb7  2  0.02716000  0.25312000  0.11969000  1.0
  Nb  Nb8  1  0.47507000  0.00000000  0.05296000  1.0
  Nb  Nb9  1  0.49057000  0.50000000  0.04739000  1.0
  Nb  Nb10  1  0.50000000  0.00000000  0.87527000  1.0
  Nb  Nb11  1  0.50000000  0.50000000  0.87527000  1.0
  Al  Al12  2  0.49016000  0.23657000  0.13062000  1.0
  Al  Al13  2  0.50000000  0.25000000  0.95842000  1.0
  Al  Al14  1  -0.00000000  0.50000000  0.87527000  1.0
  Al  Al15  1  0.00000000  0.00000000  0.87527000  1.0
  Al  Al16  1  0.00155000  0.50000000  0.04187000  1.0
  Al  Al17  1  0.99646000  0.00000000  0.04146000  1.0
  Pd  Pd18  2  0.25000000  0.25000000  0.87527000  1.0
  Pd  Pd19  2  0.25365000  0.25588000  0.03805000  1.0
  Pd  Pd20  1  0.75000000  0.00000000  0.95842000  1.0
  Pd  Pd21  1  0.75000000  0.50000000  0.95842000  1.0
  Pd  Pd22  1  0.76660000  0.50000000  0.12037000  1.0
  Pd  Pd23  1  0.81807000  0.00000000  0.12600000  1.0
  C  C24  1  0.47267000  0.00000000  0.12741000  1.0
