data_image0
_chemical_formula_structural       Li8Mn8Al8Pd8C
_chemical_formula_sum              "Li8 Mn8 Al8 Pd8 C1"
_cell_length_a       6.10222
_cell_length_b       8.62984
_cell_length_c       26.4724
_cell_angle_alpha    90
_cell_angle_beta     90
_cell_angle_gamma    90

_space_group_name_H-M_alt    "P 1"
_space_group_IT_number       1

loop_
  _space_group_symop_operation_xyz
  'x, y, z'

loop_
  _atom_site_type_symbol
  _atom_site_label
  _atom_site_symmetry_multiplicity
  _atom_site_fract_x
  _atom_site_fract_y
  _atom_site_fract_z
  _atom_site_occupancy
  Li  Li1       1.0  0.00000  0.25000  0.95925  1.0000
  Li  Li2       1.0  0.00000  0.75000  0.95925  1.0000
  Li  Li3       1.0  0.50000  0.50000  0.87775  1.0000
  Li  Li4       1.0  0.50000  0.00000  0.87775  1.0000
  Li  Li5       1.0  0.00000  0.75000  0.12225  1.0000
  Li  Li6       1.0  0.00000  0.25000  0.12225  1.0000
  Li  Li7       1.0  0.50000  0.00000  0.04075  1.0000
  Li  Li8       1.0  0.50000  0.50000  0.04075  1.0000
  Mn  Mn1       1.0  0.25000  0.00000  0.95925  1.0000
  Mn  Mn2       1.0  0.25000  0.50000  0.95925  1.0000
  Mn  Mn3       1.0  0.75000  0.25000  0.87775  1.0000
  Mn  Mn4       1.0  0.75000  0.75000  0.87775  1.0000
  Mn  Mn5       1.0  0.25000  0.50000  0.12225  1.0000
  Mn  Mn6       1.0  0.25000  0.00000  0.12225  1.0000
  Mn  Mn7       1.0  0.75000  0.75000  0.04075  1.0000
  Mn  Mn8       1.0  0.75000  0.25000  0.04075  1.0000
  Al  Al1       1.0  0.00000  0.00000  0.87775  1.0000
  Al  Al2       1.0  0.00000  0.50000  0.87775  1.0000
  Al  Al3       1.0  0.50000  0.75000  0.95925  1.0000
  Al  Al4       1.0  0.50000  0.25000  0.95925  1.0000
  Al  Al5       1.0  0.00000  0.50000  0.04075  1.0000
  Al  Al6       1.0  0.00000  0.00000  0.04075  1.0000
  Al  Al7       1.0  0.50000  0.25000  0.12225  1.0000
  Al  Al8       1.0  0.50000  0.75000  0.12225  1.0000
  Pd  Pd1       1.0  0.75000  0.00000  0.95925  1.0000
  Pd  Pd2       1.0  0.75000  0.50000  0.95925  1.0000
  Pd  Pd3       1.0  0.25000  0.25000  0.87775  1.0000
  Pd  Pd4       1.0  0.25000  0.75000  0.87775  1.0000
  Pd  Pd5       1.0  0.75000  0.50000  0.12225  1.0000
  Pd  Pd6       1.0  0.75000  0.00000  0.12225  1.0000
  Pd  Pd7       1.0  0.25000  0.75000  0.04075  1.0000
  Pd  Pd8       1.0  0.25000  0.25000  0.04075  1.0000
  C   C1        1.0  0.25000  0.25000  0.15247  1.0000
