# generated using pymatgen
data_Li8Al8Cu8Pd8C
_symmetry_space_group_name_H-M   Pm
_cell_length_a   6.00833000
_cell_length_b   8.49706000
_cell_length_c   26.37280000
_cell_angle_alpha   90.00000000
_cell_angle_beta   90.00000000
_cell_angle_gamma   90.00000000
_symmetry_Int_Tables_number   6
_chemical_formula_structural   Li8Al8Cu8Pd8C
_chemical_formula_sum   'Li8 Al8 Cu8 Pd8 C1'
_cell_volume   1346.41426404
_cell_formula_units_Z   1
loop_
 _symmetry_equiv_pos_site_id
 _symmetry_equiv_pos_as_xyz
  1  'x, y, z'
  2  'x, -y, z'
loop_
 _atom_site_type_symbol
 _atom_site_label
 _atom_site_symmetry_multiplicity
 _atom_site_fract_x
 _atom_site_fract_y
 _atom_site_fract_z
 _atom_site_occupancy
  Li  Li0  2  0.50000000  0.25000000  0.87918000  1.0
  Li  Li1  2  0.50329000  0.24904000  0.03904000  1.0
  Li  Li2  1  0.00000000  0.00000000  0.95973000  1.0
  Li  Li3  1  0.00000000  0.50000000  0.95973000  1.0
  Li  Li4  1  0.03818000  0.00000000  0.16076000  1.0
  Li  Li5  1  0.99854000  0.50000000  0.13496000  1.0
  Al  Al6  2  0.00000000  0.25000000  0.87918000  1.0
  Al  Al7  2  0.99992000  0.25338000  0.03822000  1.0
  Al  Al8  1  0.43787000  0.00000000  0.12236000  1.0
  Al  Al9  1  0.50000000  0.00000000  0.95973000  1.0
  Al  Al10  1  0.50000000  0.50000000  0.95973000  1.0
  Al  Al11  1  0.51503000  0.50000000  0.11843000  1.0
  Cu  Cu12  2  0.25000000  0.25000000  0.95973000  1.0
  Cu  Cu13  2  0.25173000  0.25863000  0.11549000  1.0
  Cu  Cu14  1  0.75000000  0.00000000  0.87918000  1.0
  Cu  Cu15  1  0.75000000  0.50000000  0.87918000  1.0
  Cu  Cu16  1  0.75375000  0.00000000  0.04371000  1.0
  Cu  Cu17  1  0.75774000  0.50000000  0.04108000  1.0
  Pd  Pd18  2  0.75000000  0.25000000  0.95973000  1.0
  Pd  Pd19  2  0.75972000  0.24641000  0.11619000  1.0
  Pd  Pd20  1  0.24039000  0.00000000  0.03748000  1.0
  Pd  Pd21  1  0.24869000  0.50000000  0.04138000  1.0
  Pd  Pd22  1  0.25000000  0.00000000  0.87918000  1.0
  Pd  Pd23  1  0.25000000  0.50000000  0.87918000  1.0
  C  C24  1  0.75557000  0.00000000  0.12187000  1.0
