# generated using pymatgen
data_Mg8In8Ni16CO
_symmetry_space_group_name_H-M   'P 1'
_cell_length_a   6.23499000
_cell_length_b   8.81761000
_cell_length_c   26.61320000
_cell_angle_alpha   90.00000000
_cell_angle_beta   90.00000000
_cell_angle_gamma   90.00000000
_symmetry_Int_Tables_number   1
_chemical_formula_structural   Mg8In8Ni16CO
_chemical_formula_sum   'Mg8 In8 Ni16 C1 O1'
_cell_volume   1463.13279640
_cell_formula_units_Z   1
loop_
 _symmetry_equiv_pos_site_id
 _symmetry_equiv_pos_as_xyz
  1  'x, y, z'
loop_
 _atom_site_type_symbol
 _atom_site_label
 _atom_site_symmetry_multiplicity
 _atom_site_fract_x
 _atom_site_fract_y
 _atom_site_fract_z
 _atom_site_occupancy
  Mg  Mg0  1  0.00000000  0.00000000  0.87575000  1.0
  Mg  Mg1  1  0.50000000  0.25000000  0.95858000  1.0
  Mg  Mg2  1  0.50000000  0.75000000  0.95858000  1.0
  Mg  Mg3  1  0.00000000  0.50000000  0.87575000  1.0
  Mg  Mg4  1  0.99740000  0.49994000  0.03790000  1.0
  Mg  Mg5  1  0.49986000  0.74343000  0.12767000  1.0
  Mg  Mg6  1  0.49982000  0.25662000  0.12767000  1.0
  Mg  Mg7  1  0.00545000  0.00000000  0.03957000  1.0
  In  In8  1  0.00000000  0.75000000  0.95858000  1.0
  In  In9  1  0.50000000  0.00000000  0.87575000  1.0
  In  In10  1  0.00000000  0.25000000  0.95858000  1.0
  In  In11  1  0.50000000  0.50000000  0.87575000  1.0
  In  In12  1  0.99575000  0.25144000  0.13019000  1.0
  In  In13  1  0.50002000  0.49997000  0.04099000  1.0
  In  In14  1  0.99573000  0.74862000  0.13021000  1.0
  In  In15  1  0.49666000  0.99998000  0.04105000  1.0
  Ni  Ni16  1  0.25000000  0.00000000  0.95858000  1.0
  Ni  Ni17  1  0.75000000  0.50000000  0.95858000  1.0
  Ni  Ni18  1  0.75000000  0.00000000  0.95858000  1.0
  Ni  Ni19  1  0.25000000  0.50000000  0.95858000  1.0
  Ni  Ni20  1  0.75000000  0.75000000  0.87575000  1.0
  Ni  Ni21  1  0.25000000  0.25000000  0.87575000  1.0
  Ni  Ni22  1  0.25000000  0.75000000  0.87575000  1.0
  Ni  Ni23  1  0.75000000  0.25000000  0.87575000  1.0
  Ni  Ni24  1  0.22679000  0.50004000  0.11640000  1.0
  Ni  Ni25  1  0.76857000  0.00006000  0.11556000  1.0
  Ni  Ni26  1  0.76837000  0.50000000  0.11702000  1.0
  Ni  Ni27  1  0.24985000  0.00002000  0.12591000  1.0
  Ni  Ni28  1  0.75033000  0.24786000  0.04278000  1.0
  Ni  Ni29  1  0.24668000  0.75005000  0.04386000  1.0
  Ni  Ni30  1  0.24683000  0.24990000  0.04383000  1.0
  Ni  Ni31  1  0.75042000  0.75208000  0.04278000  1.0
  C  C32  1  0.32713000  0.00001000  0.18947000  1.0
  O  O33  1  0.35896000  0.00001000  0.23256000  1.0
