# generated using pymatgen
data_Zr16Rh16CO
_symmetry_space_group_name_H-M   Pmm2
_cell_length_a   6.65024000
_cell_length_b   9.40485000
_cell_length_c   27.05360000
_cell_angle_alpha   90.00000000
_cell_angle_beta   90.00000000
_cell_angle_gamma   90.00000000
_symmetry_Int_Tables_number   25
_chemical_formula_structural   Zr16Rh16CO
_chemical_formula_sum   'Zr16 Rh16 C1 O1'
_cell_volume   1692.05414665
_cell_formula_units_Z   1
loop_
 _symmetry_equiv_pos_site_id
 _symmetry_equiv_pos_as_xyz
  1  'x, y, z'
  2  '-x, -y, z'
  3  '-x, y, z'
  4  'x, -y, z'
loop_
 _atom_site_type_symbol
 _atom_site_label
 _atom_site_symmetry_multiplicity
 _atom_site_fract_x
 _atom_site_fract_y
 _atom_site_fract_z
 _atom_site_occupancy
  Zr  Zr0  4  0.25000000  0.25000000  0.95655000  1.0
  Zr  Zr1  4  0.25442000  0.25387000  0.12936000  1.0
  Zr  Zr2  2  0.24777000  0.50000000  0.04203000  1.0
  Zr  Zr3  2  0.25000000  0.00000000  0.86964000  1.0
  Zr  Zr4  2  0.25000000  0.50000000  0.86964000  1.0
  Zr  Zr5  2  0.25350000  0.00000000  0.04190000  1.0
  Rh  Rh6  2  0.00000000  0.23784000  0.04901000  1.0
  Rh  Rh7  2  0.00000000  0.25000000  0.86964000  1.0
  Rh  Rh8  2  0.50000000  0.25000000  0.86964000  1.0
  Rh  Rh9  2  0.50000000  0.25376000  0.04351000  1.0
  Rh  Rh10  1  0.00000000  0.00000000  0.13000000  1.0
  Rh  Rh11  1  0.00000000  0.00000000  0.95655000  1.0
  Rh  Rh12  1  0.00000000  0.50000000  0.12104000  1.0
  Rh  Rh13  1  0.00000000  0.50000000  0.95655000  1.0
  Rh  Rh14  1  0.50000000  0.00000000  0.11993000  1.0
  Rh  Rh15  1  0.50000000  0.00000000  0.95655000  1.0
  Rh  Rh16  1  0.50000000  0.50000000  0.12055000  1.0
  Rh  Rh17  1  0.50000000  0.50000000  0.95655000  1.0
  C  C18  1  0.00000000  0.00000000  0.19905000  1.0
  O  O19  1  0.00000000  0.00000000  0.24222000  1.0
