# generated using pymatgen
data_Li8Mn8Sb8Pd8CO
_symmetry_space_group_name_H-M   'P 1'
_cell_length_a   9.12074000
_cell_length_b   6.44934000
_cell_length_c   26.84060000
_cell_angle_alpha   90.00000000
_cell_angle_beta   90.00000000
_cell_angle_gamma   90.00000000
_symmetry_Int_Tables_number   1
_chemical_formula_structural   Li8Mn8Sb8Pd8CO
_chemical_formula_sum   'Li8 Mn8 Sb8 Pd8 C1 O1'
_cell_volume   1578.83799254
_cell_formula_units_Z   1
loop_
 _symmetry_equiv_pos_site_id
 _symmetry_equiv_pos_as_xyz
  1  'x, y, z'
loop_
 _atom_site_type_symbol
 _atom_site_label
 _atom_site_symmetry_multiplicity
 _atom_site_fract_x
 _atom_site_fract_y
 _atom_site_fract_z
 _atom_site_occupancy
  Li  Li0  1  0.75000000  0.00000000  0.12743000  1.0
  Li  Li1  1  0.25000000  0.00000000  0.12743000  1.0
  Li  Li2  1  0.50000000  0.50000000  0.04248000  1.0
  Li  Li3  1  0.00000000  0.50000000  0.04248000  1.0
  Li  Li4  1  0.25004000  0.98661000  0.95855000  1.0
  Li  Li5  1  0.74996000  0.98661000  0.95855000  1.0
  Li  Li6  1  0.00000000  0.48269000  0.85708000  1.0
  Li  Li7  1  0.50000000  0.48592000  0.86269000  1.0
  Mn  Mn8  1  0.00000000  0.00000000  0.04248000  1.0
  Mn  Mn9  1  0.50000000  0.00000000  0.04248000  1.0
  Mn  Mn10  1  0.25000000  0.50000000  0.12743000  1.0
  Mn  Mn11  1  0.75000000  0.50000000  0.12743000  1.0
  Mn  Mn12  1  0.50000000  0.99010000  0.87333000  1.0
  Mn  Mn13  1  0.00000000  0.97928000  0.87607000  1.0
  Mn  Mn14  1  0.74989000  0.51081000  0.95448000  1.0
  Mn  Mn15  1  0.25011000  0.51081000  0.95448000  1.0
  Sb  Sb16  1  0.75000000  0.75000000  0.04248000  1.0
  Sb  Sb17  1  0.25000000  0.75000000  0.04248000  1.0
  Sb  Sb18  1  0.00000000  0.25000000  0.12743000  1.0
  Sb  Sb19  1  0.50000000  0.25000000  0.12743000  1.0
  Sb  Sb20  1  0.25208000  0.75294000  0.86610000  1.0
  Sb  Sb21  1  0.74792000  0.75294000  0.86610000  1.0
  Sb  Sb22  1  0.50000000  0.25818000  0.95545000  1.0
  Sb  Sb23  1  0.00000000  0.26017000  0.95436000  1.0
  Pd  Pd24  1  0.75000000  0.25000000  0.04248000  1.0
  Pd  Pd25  1  0.25000000  0.25000000  0.04248000  1.0
  Pd  Pd26  1  0.00000000  0.75000000  0.12743000  1.0
  Pd  Pd27  1  0.50000000  0.75000000  0.12743000  1.0
  Pd  Pd28  1  0.24982000  0.21859000  0.88282000  1.0
  Pd  Pd29  1  0.75018000  0.21859000  0.88282000  1.0
  Pd  Pd30  1  0.50000000  0.73890000  0.95751000  1.0
  Pd  Pd31  1  0.00000000  0.73713000  0.96107000  1.0
  C  C32  1  0.00000000  0.46454000  0.77773000  1.0
  O  O33  1  0.00000000  0.46591000  0.73533000  1.0
