# generated using pymatgen
data_Li8Mn8Sb8Pd8CO
_symmetry_space_group_name_H-M   Pm
_cell_length_a   6.44934000
_cell_length_b   9.12074000
_cell_length_c   26.84060000
_cell_angle_alpha   90.00000000
_cell_angle_beta   90.00000000
_cell_angle_gamma   90.00000000
_symmetry_Int_Tables_number   6
_chemical_formula_structural   Li8Mn8Sb8Pd8CO
_chemical_formula_sum   'Li8 Mn8 Sb8 Pd8 C1 O1'
_cell_volume   1578.83799254
_cell_formula_units_Z   1
loop_
 _symmetry_equiv_pos_site_id
 _symmetry_equiv_pos_as_xyz
  1  'x, y, z'
  2  'x, -y, z'
loop_
 _atom_site_type_symbol
 _atom_site_label
 _atom_site_symmetry_multiplicity
 _atom_site_fract_x
 _atom_site_fract_y
 _atom_site_fract_z
 _atom_site_occupancy
  Li  Li0  2  0.00000000  0.25000000  0.87257000  1.0
  Li  Li1  2  0.98661000  0.25004000  0.04145000  1.0
  Li  Li2  1  0.48269000  0.00000000  0.14292000  1.0
  Li  Li3  1  0.48592000  0.50000000  0.13731000  1.0
  Li  Li4  1  0.50000000  0.00000000  0.95752000  1.0
  Li  Li5  1  0.50000000  0.50000000  0.95752000  1.0
  Mn  Mn6  2  0.50000000  0.25000000  0.87257000  1.0
  Mn  Mn7  2  0.51081000  0.25011000  0.04552000  1.0
  Mn  Mn8  1  0.00000000  0.00000000  0.95752000  1.0
  Mn  Mn9  1  0.00000000  0.50000000  0.95752000  1.0
  Mn  Mn10  1  0.97928000  0.00000000  0.12393000  1.0
  Mn  Mn11  1  0.99010000  0.50000000  0.12667000  1.0
  Sb  Sb12  2  0.75000000  0.25000000  0.95752000  1.0
  Sb  Sb13  2  0.75294000  0.25208000  0.13390000  1.0
  Sb  Sb14  1  0.25000000  0.00000000  0.87257000  1.0
  Sb  Sb15  1  0.25000000  0.50000000  0.87257000  1.0
  Sb  Sb16  1  0.25818000  0.50000000  0.04455000  1.0
  Sb  Sb17  1  0.26017000  0.00000000  0.04564000  1.0
  Pd  Pd18  2  0.21859000  0.24982000  0.11718000  1.0
  Pd  Pd19  2  0.25000000  0.25000000  0.95752000  1.0
  Pd  Pd20  1  0.73713000  0.00000000  0.03893000  1.0
  Pd  Pd21  1  0.73890000  0.50000000  0.04249000  1.0
  Pd  Pd22  1  0.75000000  0.00000000  0.87257000  1.0
  Pd  Pd23  1  0.75000000  0.50000000  0.87257000  1.0
  C  C24  1  0.46454000  0.00000000  0.22227000  1.0
  O  O25  1  0.46591000  0.00000000  0.26467000  1.0
