data_image0
_chemical_formula_structural       Ni8Sn8Rh16CO
_chemical_formula_sum              "Ni8 Sn8 Rh16 C1 O1"
_cell_length_a       6.23499
_cell_length_b       8.81761
_cell_length_c       26.6132
_cell_angle_alpha    90
_cell_angle_beta     90
_cell_angle_gamma    90

_space_group_name_H-M_alt    "P 1"
_space_group_IT_number       1

loop_
  _space_group_symop_operation_xyz
  'x, y, z'

loop_
  _atom_site_type_symbol
  _atom_site_label
  _atom_site_symmetry_multiplicity
  _atom_site_fract_x
  _atom_site_fract_y
  _atom_site_fract_z
  _atom_site_occupancy
  Ni  Ni1       1.0  0.00000  0.00000  0.87575  1.0000
  Ni  Ni2       1.0  0.50000  0.25000  0.95858  1.0000
  Ni  Ni3       1.0  0.50000  0.75000  0.95858  1.0000
  Ni  Ni4       1.0  0.00000  0.50000  0.87575  1.0000
  Ni  Ni5       1.0  0.99991  0.50000  0.04231  1.0000
  Ni  Ni6       1.0  0.50126  0.74822  0.12247  1.0000
  Ni  Ni7       1.0  0.50124  0.25187  0.12251  1.0000
  Ni  Ni8       1.0  0.00363  0.00003  0.04467  1.0000
  Sn  Sn1       1.0  0.00000  0.75000  0.95858  1.0000
  Sn  Sn2       1.0  0.50000  0.00000  0.87575  1.0000
  Sn  Sn3       1.0  0.00000  0.25000  0.95858  1.0000
  Sn  Sn4       1.0  0.50000  0.50000  0.87575  1.0000
  Sn  Sn5       1.0  0.99391  0.25125  0.12914  1.0000
  Sn  Sn6       1.0  0.49789  0.50001  0.03861  1.0000
  Sn  Sn7       1.0  0.99383  0.74895  0.12915  1.0000
  Sn  Sn8       1.0  0.49707  1.00000  0.03979  1.0000
  Rh  Rh1       1.0  0.25000  0.00000  0.95858  1.0000
  Rh  Rh2       1.0  0.75000  0.50000  0.95858  1.0000
  Rh  Rh3       1.0  0.75000  0.00000  0.95858  1.0000
  Rh  Rh4       1.0  0.25000  0.50000  0.95858  1.0000
  Rh  Rh5       1.0  0.75000  0.75000  0.87575  1.0000
  Rh  Rh6       1.0  0.25000  0.25000  0.87575  1.0000
  Rh  Rh7       1.0  0.25000  0.75000  0.87575  1.0000
  Rh  Rh8       1.0  0.75000  0.25000  0.87575  1.0000
  Rh  Rh9       1.0  0.25255  0.50012  0.11924  1.0000
  Rh  Rh10      1.0  0.73981  0.00010  0.12016  1.0000
  Rh  Rh11      1.0  0.73765  0.50008  0.11918  1.0000
  Rh  Rh12      1.0  0.25605  0.00005  0.12818  1.0000
  Rh  Rh13      1.0  0.75492  0.24952  0.04120  1.0000
  Rh  Rh14      1.0  0.24322  0.75186  0.04210  1.0000
  Rh  Rh15      1.0  0.24331  0.24816  0.04209  1.0000
  Rh  Rh16      1.0  0.75498  0.75049  0.04121  1.0000
  C   C1        1.0  0.35611  0.00003  0.19391  1.0000
  O   O1        1.0  0.40273  0.99999  0.23607  1.0000
