# generated using pymatgen
data_Ni8Sn8Rh16CO
_symmetry_space_group_name_H-M   'P 1'
_cell_length_a   6.23499000
_cell_length_b   8.81761000
_cell_length_c   26.61320000
_cell_angle_alpha   90.00000000
_cell_angle_beta   90.00000000
_cell_angle_gamma   90.00000000
_symmetry_Int_Tables_number   1
_chemical_formula_structural   Ni8Sn8Rh16CO
_chemical_formula_sum   'Ni8 Sn8 Rh16 C1 O1'
_cell_volume   1463.13279640
_cell_formula_units_Z   1
loop_
 _symmetry_equiv_pos_site_id
 _symmetry_equiv_pos_as_xyz
  1  'x, y, z'
loop_
 _atom_site_type_symbol
 _atom_site_label
 _atom_site_symmetry_multiplicity
 _atom_site_fract_x
 _atom_site_fract_y
 _atom_site_fract_z
 _atom_site_occupancy
  Ni  Ni0  1  0.00000000  0.00000000  0.87575000  1.0
  Ni  Ni1  1  0.50000000  0.25000000  0.95858000  1.0
  Ni  Ni2  1  0.50000000  0.75000000  0.95858000  1.0
  Ni  Ni3  1  0.00000000  0.50000000  0.87575000  1.0
  Ni  Ni4  1  0.99991000  0.50000000  0.04231000  1.0
  Ni  Ni5  1  0.50126000  0.74822000  0.12247000  1.0
  Ni  Ni6  1  0.50124000  0.25187000  0.12251000  1.0
  Ni  Ni7  1  0.00363000  0.00003000  0.04467000  1.0
  Sn  Sn8  1  0.00000000  0.75000000  0.95858000  1.0
  Sn  Sn9  1  0.50000000  0.00000000  0.87575000  1.0
  Sn  Sn10  1  0.00000000  0.25000000  0.95858000  1.0
  Sn  Sn11  1  0.50000000  0.50000000  0.87575000  1.0
  Sn  Sn12  1  0.99391000  0.25125000  0.12914000  1.0
  Sn  Sn13  1  0.49789000  0.50001000  0.03861000  1.0
  Sn  Sn14  1  0.99383000  0.74895000  0.12915000  1.0
  Sn  Sn15  1  0.49707000  0.00000000  0.03979000  1.0
  Rh  Rh16  1  0.25000000  0.00000000  0.95858000  1.0
  Rh  Rh17  1  0.75000000  0.50000000  0.95858000  1.0
  Rh  Rh18  1  0.75000000  0.00000000  0.95858000  1.0
  Rh  Rh19  1  0.25000000  0.50000000  0.95858000  1.0
  Rh  Rh20  1  0.75000000  0.75000000  0.87575000  1.0
  Rh  Rh21  1  0.25000000  0.25000000  0.87575000  1.0
  Rh  Rh22  1  0.25000000  0.75000000  0.87575000  1.0
  Rh  Rh23  1  0.75000000  0.25000000  0.87575000  1.0
  Rh  Rh24  1  0.25255000  0.50012000  0.11924000  1.0
  Rh  Rh25  1  0.73981000  0.00010000  0.12016000  1.0
  Rh  Rh26  1  0.73765000  0.50008000  0.11918000  1.0
  Rh  Rh27  1  0.25605000  0.00005000  0.12818000  1.0
  Rh  Rh28  1  0.75492000  0.24952000  0.04120000  1.0
  Rh  Rh29  1  0.24322000  0.75186000  0.04210000  1.0
  Rh  Rh30  1  0.24331000  0.24816000  0.04209000  1.0
  Rh  Rh31  1  0.75498000  0.75049000  0.04121000  1.0
  C  C32  1  0.35611000  0.00003000  0.19391000  1.0
  O  O33  1  0.40273000  0.99999000  0.23607000  1.0
