# generated using pymatgen
data_Li8Pd16Pb8CO
_symmetry_space_group_name_H-M   'P 1'
_cell_length_a   6.57920000
_cell_length_b   9.30439000
_cell_length_c   26.97830000
_cell_angle_alpha   90.00000000
_cell_angle_beta   90.00000000
_cell_angle_gamma   90.00000000
_symmetry_Int_Tables_number   1
_chemical_formula_structural   Li8Pd16Pb8CO
_chemical_formula_sum   'Li8 Pd16 Pb8 C1 O1'
_cell_volume   1651.48857747
_cell_formula_units_Z   1
loop_
 _symmetry_equiv_pos_site_id
 _symmetry_equiv_pos_as_xyz
  1  'x, y, z'
loop_
 _atom_site_type_symbol
 _atom_site_label
 _atom_site_symmetry_multiplicity
 _atom_site_fract_x
 _atom_site_fract_y
 _atom_site_fract_z
 _atom_site_occupancy
  Li  Li0  1  0.00000000  0.75000000  0.87067000  1.0
  Li  Li1  1  0.50000000  0.00000000  0.95689000  1.0
  Li  Li2  1  0.50000000  0.50000000  0.95689000  1.0
  Li  Li3  1  0.00000000  0.25000000  0.87067000  1.0
  Li  Li4  1  0.00000000  0.24944000  0.03927000  1.0
  Li  Li5  1  0.50000000  0.50000000  0.12743000  1.0
  Li  Li6  1  0.50000000  0.00000000  0.12814000  1.0
  Li  Li7  1  0.00000000  0.75056000  0.03927000  1.0
  Pd  Pd8  1  0.25000000  0.75000000  0.95689000  1.0
  Pd  Pd9  1  0.75000000  0.25000000  0.95689000  1.0
  Pd  Pd10  1  0.75000000  0.75000000  0.95689000  1.0
  Pd  Pd11  1  0.25000000  0.25000000  0.95689000  1.0
  Pd  Pd12  1  0.75000000  0.50000000  0.87067000  1.0
  Pd  Pd13  1  0.25000000  0.00000000  0.87067000  1.0
  Pd  Pd14  1  0.25000000  0.50000000  0.87067000  1.0
  Pd  Pd15  1  0.75000000  0.00000000  0.87067000  1.0
  Pd  Pd16  1  0.22340000  0.25212000  0.11943000  1.0
  Pd  Pd17  1  0.77660000  0.74788000  0.11943000  1.0
  Pd  Pd18  1  0.77660000  0.25212000  0.11943000  1.0
  Pd  Pd19  1  0.22340000  0.74788000  0.11943000  1.0
  Pd  Pd20  1  0.76212000  0.00000000  0.04675000  1.0
  Pd  Pd21  1  0.23483000  0.50000000  0.04727000  1.0
  Pd  Pd22  1  0.23788000  0.00000000  0.04675000  1.0
  Pd  Pd23  1  0.76517000  0.50000000  0.04727000  1.0
  Pb  Pb24  1  0.00000000  0.50000000  0.95689000  1.0
  Pb  Pb25  1  0.50000000  0.75000000  0.87067000  1.0
  Pb  Pb26  1  0.00000000  0.00000000  0.95689000  1.0
  Pb  Pb27  1  0.50000000  0.25000000  0.87067000  1.0
  Pb  Pb28  1  0.00000000  0.00000000  0.14080000  1.0
  Pb  Pb29  1  0.50000000  0.25056000  0.04217000  1.0
  Pb  Pb30  1  0.00000000  0.50000000  0.14396000  1.0
  Pb  Pb31  1  0.50000000  0.74944000  0.04217000  1.0
  C  C32  1  0.50000000  0.00000000  0.20684000  1.0
  O  O33  1  0.50000000  0.00000000  0.24910000  1.0
