# generated using pymatgen
data_Li4Y4Sn4Ge4C
_symmetry_space_group_name_H-M   'P 1'
_cell_length_a   8.52742000
_cell_length_b   6.38551000
_cell_length_c   24.76910000
_cell_angle_alpha   90.00000000
_cell_angle_beta   90.00000000
_cell_angle_gamma   90.00000000
_symmetry_Int_Tables_number   1
_chemical_formula_structural   Li4Y4Sn4Ge4C
_chemical_formula_sum   'Li4 Y4 Sn4 Ge4 C1'
_cell_volume   1348.72519246
_cell_formula_units_Z   1
loop_
 _symmetry_equiv_pos_site_id
 _symmetry_equiv_pos_as_xyz
  1  'x, y, z'
loop_
 _atom_site_type_symbol
 _atom_site_label
 _atom_site_symmetry_multiplicity
 _atom_site_fract_x
 _atom_site_fract_y
 _atom_site_fract_z
 _atom_site_occupancy
  Li  Li0  1  0.25000000  0.72717000  0.03209000  1.0
  Li  Li1  1  0.16111000  0.16567000  0.90142000  1.0
  Li  Li2  1  0.75000000  0.72717000  0.03209000  1.0
  Li  Li3  1  0.83889000  0.16567000  0.90142000  1.0
  Y  Y4  1  0.25000000  0.22717000  0.03209000  1.0
  Y  Y5  1  0.22056000  0.70460000  0.90698000  1.0
  Y  Y6  1  0.75000000  0.22717000  0.03209000  1.0
  Y  Y7  1  0.77944000  0.70460000  0.90698000  1.0
  Sn  Sn8  1  0.00000000  0.50000000  0.09627000  1.0
  Sn  Sn9  1  0.00000000  0.92758000  0.98363000  1.0
  Sn  Sn10  1  0.50000000  0.50000000  0.09627000  1.0
  Sn  Sn11  1  0.50000000  0.03800000  0.94339000  1.0
  Ge  Ge12  1  0.00000000  0.00000000  0.09627000  1.0
  Ge  Ge13  1  0.00000000  0.44956000  0.97281000  1.0
  Ge  Ge14  1  0.50000000  1.00000000  0.09627000  1.0
  Ge  Ge15  1  0.50000000  0.50848000  0.97732000  1.0
  C  C16  1  0.00000000  0.90352000  0.89095000  1.0
