# generated using pymatgen
data_Li4Y4Sn4Ge4C
_symmetry_space_group_name_H-M   Pm
_cell_length_a   6.38551000
_cell_length_b   8.52742000
_cell_length_c   24.76910000
_cell_angle_alpha   90.00000000
_cell_angle_beta   90.00000000
_cell_angle_gamma   90.00000000
_symmetry_Int_Tables_number   6
_chemical_formula_structural   Li4Y4Sn4Ge4C
_chemical_formula_sum   'Li4 Y4 Sn4 Ge4 C1'
_cell_volume   1348.72519246
_cell_formula_units_Z   1
loop_
 _symmetry_equiv_pos_site_id
 _symmetry_equiv_pos_as_xyz
  1  'x, y, z'
  2  'x, -y, z'
loop_
 _atom_site_type_symbol
 _atom_site_label
 _atom_site_symmetry_multiplicity
 _atom_site_fract_x
 _atom_site_fract_y
 _atom_site_fract_z
 _atom_site_occupancy
  Li  Li0  2  0.16567000  0.16111000  0.09858000  1.0
  Li  Li1  2  0.72717000  0.25000000  0.96791000  1.0
  Y  Y2  2  0.22717000  0.25000000  0.96791000  1.0
  Y  Y3  2  0.70460000  0.22056000  0.09302000  1.0
  Sn  Sn4  1  0.03800000  0.50000000  0.05661000  1.0
  Sn  Sn5  1  0.50000000  0.00000000  0.90373000  1.0
  Sn  Sn6  1  0.50000000  0.50000000  0.90373000  1.0
  Sn  Sn7  1  0.92758000  0.00000000  0.01637000  1.0
  Ge  Ge8  1  -0.00000000  0.50000000  0.90373000  1.0
  Ge  Ge9  1  0.00000000  0.00000000  0.90373000  1.0
  Ge  Ge10  1  0.44956000  0.00000000  0.02719000  1.0
  Ge  Ge11  1  0.50848000  0.50000000  0.02268000  1.0
  C  C12  1  0.90352000  0.00000000  0.10905000  1.0
