# generated using pymatgen
data_AlFe2Ni
_symmetry_space_group_name_H-M   P4mm
_cell_length_a   4.09356136
_cell_length_b   4.09356136
_cell_length_c   24.34190000
_cell_angle_alpha   90.00000000
_cell_angle_beta   90.00000000
_cell_angle_gamma   90.00000000
_symmetry_Int_Tables_number   99
_chemical_formula_structural   AlFe2Ni
_chemical_formula_sum   'Al2 Fe4 Ni2'
_cell_volume   407.90317341
_cell_formula_units_Z   2
loop_
 _symmetry_equiv_pos_site_id
 _symmetry_equiv_pos_as_xyz
  1  'x, y, z'
  2  '-y, x, z'
  3  '-x, -y, z'
  4  'y, -x, z'
  5  '-x, y, z'
  6  'y, x, z'
  7  'x, -y, z'
  8  '-y, -x, z'
loop_
 _atom_site_type_symbol
 _atom_site_label
 _atom_site_symmetry_multiplicity
 _atom_site_fract_x
 _atom_site_fract_y
 _atom_site_fract_z
 _atom_site_occupancy
  Al  Al0  1  0.00000000  0.00000000  0.91081000  1.0
  Al  Al1  1  0.50000000  0.50000000  0.02973000  1.0
  Fe  Fe2  2  0.00000000  0.50000000  0.08919000  1.0
  Fe  Fe3  2  0.00000000  0.50000000  0.97027000  1.0
  Ni  Ni4  1  0.00000000  0.00000000  0.02973000  1.0
  Ni  Ni5  1  0.50000000  0.50000000  0.91081000  1.0
