# generated using pymatgen
data_Li8Cu8Ag8Sn8C
_symmetry_space_group_name_H-M   'P 1'
_cell_length_a   9.10192000
_cell_length_b   6.43603000
_cell_length_c   26.82640000
_cell_angle_alpha   90.00000000
_cell_angle_beta   90.00000000
_cell_angle_gamma   90.00000000
_symmetry_Int_Tables_number   1
_chemical_formula_structural   Li8Cu8Ag8Sn8C
_chemical_formula_sum   'Li8 Cu8 Ag8 Sn8 C1'
_cell_volume   1571.49668684
_cell_formula_units_Z   1
loop_
 _symmetry_equiv_pos_site_id
 _symmetry_equiv_pos_as_xyz
  1  'x, y, z'
loop_
 _atom_site_type_symbol
 _atom_site_label
 _atom_site_symmetry_multiplicity
 _atom_site_fract_x
 _atom_site_fract_y
 _atom_site_fract_z
 _atom_site_occupancy
  Li  Li0  1  0.00000000  0.25000000  0.04241000  1.0
  Li  Li1  1  0.50000000  0.25000000  0.04241000  1.0
  Li  Li2  1  0.25000000  0.75000000  0.12723000  1.0
  Li  Li3  1  0.75000000  0.75000000  0.12723000  1.0
  Li  Li4  1  0.50000000  0.22533000  0.86887000  1.0
  Li  Li5  1  0.00000000  0.31029000  0.84657000  1.0
  Li  Li6  1  0.75229000  0.76283000  0.95234000  1.0
  Li  Li7  1  0.24771000  0.76283000  0.95234000  1.0
  Cu  Cu8  1  0.00000000  0.75000000  0.04241000  1.0
  Cu  Cu9  1  0.50000000  0.75000000  0.04241000  1.0
  Cu  Cu10  1  0.25000000  0.25000000  0.12723000  1.0
  Cu  Cu11  1  0.75000000  0.25000000  0.12723000  1.0
  Cu  Cu12  1  0.50000000  0.76862000  0.87798000  1.0
  Cu  Cu13  1  0.00000000  0.71267000  0.87661000  1.0
  Cu  Cu14  1  0.74535000  0.24362000  0.95645000  1.0
  Cu  Cu15  1  0.25465000  0.24362000  0.95645000  1.0
  Ag  Ag16  1  0.00000000  0.00000000  0.12723000  1.0
  Ag  Ag17  1  0.50000000  0.00000000  0.12723000  1.0
  Ag  Ag18  1  0.75000000  0.50000000  0.04241000  1.0
  Ag  Ag19  1  0.25000000  0.50000000  0.04241000  1.0
  Ag  Ag20  1  0.50000000  0.00330000  0.96096000  1.0
  Ag  Ag21  1  0.00000000  0.01391000  0.95003000  1.0
  Ag  Ag22  1  0.26401000  0.50028000  0.87172000  1.0
  Ag  Ag23  1  0.73599000  0.50028000  0.87172000  1.0
  Sn  Sn24  1  0.25000000  0.00000000  0.04241000  1.0
  Sn  Sn25  1  0.75000000  0.00000000  0.04241000  1.0
  Sn  Sn26  1  0.50000000  0.50000000  0.12723000  1.0
  Sn  Sn27  1  0.00000000  0.50000000  0.12723000  1.0
  Sn  Sn28  1  0.76085000  0.00793000  0.85568000  1.0
  Sn  Sn29  1  0.23915000  0.00793000  0.85568000  1.0
  Sn  Sn30  1  0.00000000  0.47978000  0.95533000  1.0
  Sn  Sn31  1  0.50000000  0.49846000  0.95581000  1.0
  C  C32  1  0.00000000  0.99005000  0.85202000  1.0
