# generated using pymatgen
data_Li8Al8Fe8Pd8CO
_symmetry_space_group_name_H-M   'P 1'
_cell_length_a   8.60712000
_cell_length_b   8.84236000
_cell_length_c   24.25770000
_cell_angle_alpha   90.00000000
_cell_angle_beta   90.00000000
_cell_angle_gamma   90.00000000
_symmetry_Int_Tables_number   1
_chemical_formula_structural   Li8Al8Fe8Pd8CO
_chemical_formula_sum   'Li8 Al8 Fe8 Pd8 C1 O1'
_cell_volume   1846.18692573
_cell_formula_units_Z   1
loop_
 _symmetry_equiv_pos_site_id
 _symmetry_equiv_pos_as_xyz
  1  'x, y, z'
loop_
 _atom_site_type_symbol
 _atom_site_label
 _atom_site_symmetry_multiplicity
 _atom_site_fract_x
 _atom_site_fract_y
 _atom_site_fract_z
 _atom_site_occupancy
  Li  Li0  1  0.25217000  0.25138000  0.09279000  1.0
  Li  Li1  1  0.25000000  0.25000000  0.97075000  1.0
  Li  Li2  1  0.25217000  0.74862000  0.09279000  1.0
  Li  Li3  1  0.25000000  0.75000000  0.97075000  1.0
  Li  Li4  1  0.74783000  0.25138000  0.09279000  1.0
  Li  Li5  1  0.75000000  0.25000000  0.97075000  1.0
  Li  Li6  1  0.74783000  0.74862000  0.09279000  1.0
  Li  Li7  1  0.75000000  0.75000000  0.97075000  1.0
  Al  Al8  1  0.00000000  0.00000000  0.08143000  1.0
  Al  Al9  1  0.00000000  0.00000000  0.97075000  1.0
  Al  Al10  1  0.00000000  0.50000000  0.07893000  1.0
  Al  Al11  1  0.00000000  0.50000000  0.97075000  1.0
  Al  Al12  1  0.50000000  0.00000000  0.07905000  1.0
  Al  Al13  1  0.50000000  0.00000000  0.97075000  1.0
  Al  Al14  1  0.50000000  0.50000000  0.07931000  1.0
  Al  Al15  1  0.50000000  0.50000000  0.97075000  1.0
  Fe  Fe16  1  0.25054000  0.00000000  0.02251000  1.0
  Fe  Fe17  1  0.25000000  0.00000000  0.91224000  1.0
  Fe  Fe18  1  0.25048000  0.50000000  0.02304000  1.0
  Fe  Fe19  1  0.25000000  0.50000000  0.91224000  1.0
  Fe  Fe20  1  0.74946000  0.00000000  0.02251000  1.0
  Fe  Fe21  1  0.75000000  0.00000000  0.91224000  1.0
  Fe  Fe22  1  0.74952000  0.50000000  0.02304000  1.0
  Fe  Fe23  1  0.75000000  0.50000000  0.91224000  1.0
  Pd  Pd24  1  0.00000000  0.24794000  0.03219000  1.0
  Pd  Pd25  1  0.00000000  0.25000000  0.91224000  1.0
  Pd  Pd26  1  0.00000000  0.75206000  0.03219000  1.0
  Pd  Pd27  1  0.00000000  0.75000000  0.91224000  1.0
  Pd  Pd28  1  0.50000000  0.25068000  0.03165000  1.0
  Pd  Pd29  1  0.50000000  0.25000000  0.91224000  1.0
  Pd  Pd30  1  0.50000000  0.74932000  0.03165000  1.0
  Pd  Pd31  1  0.50000000  0.75000000  0.91224000  1.0
  C  C32  1  0.00000000  0.00000000  0.16407000  1.0
  O  O33  1  0.00000000  0.00000000  0.21187000  1.0
