# generated using pymatgen
data_Li8Al8Fe8Pd8CO
_symmetry_space_group_name_H-M   Pmm2
_cell_length_a   8.60712000
_cell_length_b   8.84236000
_cell_length_c   24.25770000
_cell_angle_alpha   90.00000000
_cell_angle_beta   90.00000000
_cell_angle_gamma   90.00000000
_symmetry_Int_Tables_number   25
_chemical_formula_structural   Li8Al8Fe8Pd8CO
_chemical_formula_sum   'Li8 Al8 Fe8 Pd8 C1 O1'
_cell_volume   1846.18692573
_cell_formula_units_Z   1
loop_
 _symmetry_equiv_pos_site_id
 _symmetry_equiv_pos_as_xyz
  1  'x, y, z'
  2  '-x, -y, z'
  3  '-x, y, z'
  4  'x, -y, z'
loop_
 _atom_site_type_symbol
 _atom_site_label
 _atom_site_symmetry_multiplicity
 _atom_site_fract_x
 _atom_site_fract_y
 _atom_site_fract_z
 _atom_site_occupancy
  Li  Li0  4  0.25000000  0.25000000  0.97075000  1.0
  Li  Li1  4  0.25217000  0.25138000  0.09279000  1.0
  Al  Al2  1  0.00000000  0.00000000  0.08143000  1.0
  Al  Al3  1  0.00000000  0.00000000  0.97075000  1.0
  Al  Al4  1  0.00000000  0.50000000  0.07893000  1.0
  Al  Al5  1  0.00000000  0.50000000  0.97075000  1.0
  Al  Al6  1  0.50000000  0.00000000  0.07905000  1.0
  Al  Al7  1  0.50000000  0.00000000  0.97075000  1.0
  Al  Al8  1  0.50000000  0.50000000  0.07931000  1.0
  Al  Al9  1  0.50000000  0.50000000  0.97075000  1.0
  Fe  Fe10  2  0.25000000  0.00000000  0.91224000  1.0
  Fe  Fe11  2  0.25000000  0.50000000  0.91224000  1.0
  Fe  Fe12  2  0.25048000  0.50000000  0.02304000  1.0
  Fe  Fe13  2  0.25054000  0.00000000  0.02251000  1.0
  Pd  Pd14  2  0.00000000  0.24794000  0.03219000  1.0
  Pd  Pd15  2  0.00000000  0.25000000  0.91224000  1.0
  Pd  Pd16  2  0.50000000  0.25000000  0.91224000  1.0
  Pd  Pd17  2  0.50000000  0.25068000  0.03165000  1.0
  C  C18  1  0.00000000  0.00000000  0.16407000  1.0
  O  O19  1  0.00000000  0.00000000  0.21187000  1.0
