# generated using pymatgen
data_K4Na8Sb4CO
_symmetry_space_group_name_H-M   P1
_cell_length_a   7.84214000
_cell_length_b   7.84214000
_cell_length_c   25.88160000
_cell_angle_alpha   90.00000000
_cell_angle_beta   90.00000000
_cell_angle_gamma   90.00000000
_symmetry_Int_Tables_number   1
_chemical_formula_structural   K4Na8Sb4CO
_chemical_formula_sum   'K4 Na8 Sb4 C1 O1'
_cell_volume   1591.69665375
_cell_formula_units_Z   1
loop_
 _symmetry_equiv_pos_site_id
 _symmetry_equiv_pos_as_xyz
  1  'x, y, z'
loop_
 _atom_site_type_symbol
 _atom_site_label
 _atom_site_symmetry_multiplicity
 _atom_site_fract_x
 _atom_site_fract_y
 _atom_site_fract_z
 _atom_site_occupancy
  K  K0  1  -0.00000000  0.50000000  0.96212000  1.0
  K  K1  1  0.50000000  0.00000000  0.96212000  1.0
  K  K2  1  0.50005000  0.50002000  0.15477000  1.0
  K  K3  1  0.99997000  0.99995000  0.15195000  1.0
  Na  Na4  1  0.25000000  0.25000000  0.88637000  1.0
  Na  Na5  1  0.25000000  0.75000000  0.88637000  1.0
  Na  Na6  1  0.25135000  0.25129000  0.05201000  1.0
  Na  Na7  1  0.25138000  0.74870000  0.05199000  1.0
  Na  Na8  1  0.74870000  0.25132000  0.05203000  1.0
  Na  Na9  1  0.74872000  0.74869000  0.05201000  1.0
  Na  Na10  1  0.75000000  0.25000000  0.88637000  1.0
  Na  Na11  1  0.75000000  0.75000000  0.88637000  1.0
  Sb  Sb12  1  0.00000000  0.00000000  0.96212000  1.0
  Sb  Sb13  1  0.50000000  0.50000000  0.96212000  1.0
  Sb  Sb14  1  0.50002000  0.00006000  0.11007000  1.0
  Sb  Sb15  1  0.99998000  0.50000000  0.11009000  1.0
  C  C16  1  0.99953000  0.99975000  0.28001000  1.0
  O  O17  1  0.99995000  0.99998000  0.32386000  1.0
