# generated using pymatgen
data_Sc8Al8Pd16C
_symmetry_space_group_name_H-M   Pmm2
_cell_length_a   6.41477000
_cell_length_b   9.07185000
_cell_length_c   26.80390000
_cell_angle_alpha   90.00000000
_cell_angle_beta   90.00000000
_cell_angle_gamma   90.00000000
_symmetry_Int_Tables_number   25
_chemical_formula_structural   Sc8Al8Pd16C
_chemical_formula_sum   'Sc8 Al8 Pd16 C1'
_cell_volume   1559.82163276
_cell_formula_units_Z   1
loop_
 _symmetry_equiv_pos_site_id
 _symmetry_equiv_pos_as_xyz
  1  'x, y, z'
  2  '-x, -y, z'
  3  '-x, y, z'
  4  'x, -y, z'
loop_
 _atom_site_type_symbol
 _atom_site_label
 _atom_site_symmetry_multiplicity
 _atom_site_fract_x
 _atom_site_fract_y
 _atom_site_fract_z
 _atom_site_occupancy
  Sc  Sc0  2  0.50000000  0.23845000  0.13504000  1.0
  Sc  Sc1  2  0.50000000  0.25000000  0.95769000  1.0
  Sc  Sc2  1  0.00000000  0.00000000  0.04006000  1.0
  Sc  Sc3  1  0.00000000  0.00000000  0.87308000  1.0
  Sc  Sc4  1  0.00000000  0.50000000  0.04087000  1.0
  Sc  Sc5  1  0.00000000  0.50000000  0.87308000  1.0
  Al  Al6  2  0.00000000  0.25000000  0.95769000  1.0
  Al  Al7  2  0.00000000  0.25534000  0.12201000  1.0
  Al  Al8  1  0.50000000  0.00000000  0.05105000  1.0
  Al  Al9  1  0.50000000  0.00000000  0.87308000  1.0
  Al  Al10  1  0.50000000  0.50000000  0.04645000  1.0
  Al  Al11  1  0.50000000  0.50000000  0.87308000  1.0
  Pd  Pd12  4  0.25000000  0.25000000  0.87308000  1.0
  Pd  Pd13  4  0.26207000  0.25026000  0.04329000  1.0
  Pd  Pd14  2  0.20001000  0.00000000  0.12515000  1.0
  Pd  Pd15  2  0.23740000  0.50000000  0.12187000  1.0
  Pd  Pd16  2  0.25000000  0.00000000  0.95769000  1.0
  Pd  Pd17  2  0.25000000  0.50000000  0.95769000  1.0
  C  C18  1  0.50000000  0.00000000  0.14386000  1.0
