# generated using pymatgen
data_MgInNi2
_symmetry_space_group_name_H-M   'P 1'
_cell_length_a   4.41551500
_cell_length_b   6.24448000
_cell_length_c   26.62330000
_cell_angle_alpha   90.00000000
_cell_angle_beta   90.00000000
_cell_angle_gamma   90.00000000
_symmetry_Int_Tables_number   1
_chemical_formula_structural   MgInNi2
_chemical_formula_sum   'Mg4 In4 Ni8'
_cell_volume   734.07347132
_cell_formula_units_Z   4
loop_
 _symmetry_equiv_pos_site_id
 _symmetry_equiv_pos_as_xyz
  1  'x, y, z'
loop_
 _atom_site_type_symbol
 _atom_site_label
 _atom_site_symmetry_multiplicity
 _atom_site_fract_x
 _atom_site_fract_y
 _atom_site_fract_z
 _atom_site_occupancy
  Mg  Mg0  1  0.00000000  0.00000000  0.12439000  1.0
  Mg  Mg1  1  0.50000000  0.50000000  0.04146000  1.0
  Mg  Mg2  1  0.00000000  0.00000000  0.96146000  1.0
  Mg  Mg3  1  0.50000000  0.50000000  0.87135500  1.0
  In  In4  1  0.50000000  0.00000000  0.04146000  1.0
  In  In5  1  0.00000000  0.50000000  0.12439000  1.0
  In  In6  1  0.50000000  0.00000000  0.86754500  1.0
  In  In7  1  0.00000000  0.50000000  0.95894000  1.0
  Ni  Ni8  1  0.00000000  0.75000000  0.04146000  1.0
  Ni  Ni9  1  0.00000000  0.25000000  0.04146000  1.0
  Ni  Ni10  1  0.50000000  0.25000000  0.12439000  1.0
  Ni  Ni11  1  0.50000000  0.75000000  0.12439000  1.0
  Ni  Ni12  1  0.00000000  0.76847000  0.88266000  1.0
  Ni  Ni13  1  0.00000000  0.23153000  0.88266000  1.0
  Ni  Ni14  1  0.50000000  0.24727500  0.95673000  1.0
  Ni  Ni15  1  0.50000000  0.75272500  0.95673000  1.0
