# generated using pymatgen
data_Li8Y8Cu8Pd8C
_symmetry_space_group_name_H-M   'P 1'
_cell_length_a   6.67076000
_cell_length_b   9.43388000
_cell_length_c   27.07540000
_cell_angle_alpha   90.00000000
_cell_angle_beta   90.00000000
_cell_angle_gamma   90.00000000
_symmetry_Int_Tables_number   1
_chemical_formula_structural   Li8Y8Cu8Pd8C
_chemical_formula_sum   'Li8 Y8 Cu8 Pd8 C1'
_cell_volume   1703.88604108
_cell_formula_units_Z   1
loop_
 _symmetry_equiv_pos_site_id
 _symmetry_equiv_pos_as_xyz
  1  'x, y, z'
loop_
 _atom_site_type_symbol
 _atom_site_label
 _atom_site_symmetry_multiplicity
 _atom_site_fract_x
 _atom_site_fract_y
 _atom_site_fract_z
 _atom_site_occupancy
  Li  Li0  1  0.75000000  0.00000000  0.95645000  1.0
  Li  Li1  1  0.75000000  0.50000000  0.95645000  1.0
  Li  Li2  1  0.25000000  0.75000000  0.86934000  1.0
  Li  Li3  1  0.25000000  0.25000000  0.86934000  1.0
  Li  Li4  1  0.71813000  0.50008000  0.13509000  1.0
  Li  Li5  1  0.63618000  0.99995000  0.14748000  1.0
  Li  Li6  1  0.22317000  0.25834000  0.04559000  1.0
  Li  Li7  1  0.22311000  0.74175000  0.04558000  1.0
  Y  Y8  1  0.25000000  0.00000000  0.95645000  1.0
  Y  Y9  1  0.25000000  0.50000000  0.95645000  1.0
  Y  Y10  1  0.75000000  0.75000000  0.86934000  1.0
  Y  Y11  1  0.75000000  0.25000000  0.86934000  1.0
  Y  Y12  1  0.24507000  0.49994000  0.12836000  1.0
  Y  Y13  1  0.09489000  0.00006000  0.12832000  1.0
  Y  Y14  1  0.73351000  0.22948000  0.04864000  1.0
  Y  Y15  1  0.73368000  0.77060000  0.04864000  1.0
  Cu  Cu16  1  0.00000000  0.00000000  0.86934000  1.0
  Cu  Cu17  1  0.00000000  0.50000000  0.86934000  1.0
  Cu  Cu18  1  0.50000000  0.25000000  0.95645000  1.0
  Cu  Cu19  1  0.50000000  0.75000000  0.95645000  1.0
  Cu  Cu20  1  0.95656000  0.49996000  0.04628000  1.0
  Cu  Cu21  1  0.01795000  0.00019000  0.03337000  1.0
  Cu  Cu22  1  0.43918000  0.76519000  0.12958000  1.0
  Cu  Cu23  1  0.43948000  0.23485000  0.12962000  1.0
  Pd  Pd24  1  0.00000000  0.75000000  0.95645000  1.0
  Pd  Pd25  1  0.00000000  0.25000000  0.95645000  1.0
  Pd  Pd26  1  0.50000000  0.50000000  0.86934000  1.0
  Pd  Pd27  1  0.50000000  0.00000000  0.86934000  1.0
  Pd  Pd28  1  0.97004000  0.28761000  0.13417000  1.0
  Pd  Pd29  1  0.97036000  0.71246000  0.13412000  1.0
  Pd  Pd30  1  0.43397000  0.99997000  0.05988000  1.0
  Pd  Pd31  1  0.50479000  0.49995000  0.04211000  1.0
  C  C32  1  0.78829000  0.00004000  0.08160000  1.0
