# generated using pymatgen
data_Li8Y8Cu8Pd8C
_symmetry_space_group_name_H-M   P1
_cell_length_a   6.67076000
_cell_length_b   9.43388000
_cell_length_c   27.07540000
_cell_angle_alpha   90.00000000
_cell_angle_beta   90.00000000
_cell_angle_gamma   90.00000000
_symmetry_Int_Tables_number   1
_chemical_formula_structural   Li8Y8Cu8Pd8C
_chemical_formula_sum   'Li8 Y8 Cu8 Pd8 C1'
_cell_volume   1703.88604108
_cell_formula_units_Z   1
loop_
 _symmetry_equiv_pos_site_id
 _symmetry_equiv_pos_as_xyz
  1  'x, y, z'
loop_
 _atom_site_type_symbol
 _atom_site_label
 _atom_site_symmetry_multiplicity
 _atom_site_fract_x
 _atom_site_fract_y
 _atom_site_fract_z
 _atom_site_occupancy
  Li  Li0  1  0.25000000  0.00000000  0.95645000  1.0
  Li  Li1  1  0.25000000  0.50000000  0.95645000  1.0
  Li  Li2  1  0.28187000  0.49992000  0.13509000  1.0
  Li  Li3  1  0.36382000  0.00005000  0.14748000  1.0
  Li  Li4  1  0.75000000  0.25000000  0.86934000  1.0
  Li  Li5  1  0.75000000  0.75000000  0.86934000  1.0
  Li  Li6  1  0.77683000  0.74166000  0.04559000  1.0
  Li  Li7  1  0.77689000  0.25825000  0.04558000  1.0
  Y  Y8  1  0.25000000  0.25000000  0.86934000  1.0
  Y  Y9  1  0.25000000  0.75000000  0.86934000  1.0
  Y  Y10  1  0.26632000  0.22940000  0.04864000  1.0
  Y  Y11  1  0.26649000  0.77052000  0.04864000  1.0
  Y  Y12  1  0.75000000  0.00000000  0.95645000  1.0
  Y  Y13  1  0.75000000  0.50000000  0.95645000  1.0
  Y  Y14  1  0.75493000  0.50006000  0.12836000  1.0
  Y  Y15  1  0.90511000  0.99994000  0.12832000  1.0
  Cu  Cu16  1  0.00000000  0.00000000  0.86934000  1.0
  Cu  Cu17  1  0.00000000  0.50000000  0.86934000  1.0
  Cu  Cu18  1  0.04344000  0.50004000  0.04628000  1.0
  Cu  Cu19  1  0.50000000  0.25000000  0.95645000  1.0
  Cu  Cu20  1  0.50000000  0.75000000  0.95645000  1.0
  Cu  Cu21  1  0.56052000  0.76515000  0.12962000  1.0
  Cu  Cu22  1  0.56082000  0.23481000  0.12958000  1.0
  Cu  Cu23  1  0.98205000  0.99981000  0.03337000  1.0
  Pd  Pd24  1  -0.00000000  0.25000000  0.95645000  1.0
  Pd  Pd25  1  -0.00000000  0.75000000  0.95645000  1.0
  Pd  Pd26  1  0.02964000  0.28754000  0.13412000  1.0
  Pd  Pd27  1  0.02996000  0.71239000  0.13417000  1.0
  Pd  Pd28  1  0.49521000  0.50005000  0.04211000  1.0
  Pd  Pd29  1  0.50000000  0.00000000  0.86934000  1.0
  Pd  Pd30  1  0.50000000  0.50000000  0.86934000  1.0
  Pd  Pd31  1  0.56603000  0.00003000  0.05988000  1.0
  C  C32  1  0.21171000  0.99996000  0.08160000  1.0
