# generated using pymatgen
data_Sc8In8Cu8Pd8C
_symmetry_space_group_name_H-M   'P 1'
_cell_length_a   9.24656000
_cell_length_b   6.53831000
_cell_length_c   26.93490000
_cell_angle_alpha   90.00000000
_cell_angle_beta   90.00000000
_cell_angle_gamma   90.00000000
_symmetry_Int_Tables_number   1
_chemical_formula_structural   Sc8In8Cu8Pd8C
_chemical_formula_sum   'Sc8 In8 Cu8 Pd8 C1'
_cell_volume   1628.39990166
_cell_formula_units_Z   1
loop_
 _symmetry_equiv_pos_site_id
 _symmetry_equiv_pos_as_xyz
  1  'x, y, z'
loop_
 _atom_site_type_symbol
 _atom_site_label
 _atom_site_symmetry_multiplicity
 _atom_site_fract_x
 _atom_site_fract_y
 _atom_site_fract_z
 _atom_site_occupancy
  Sc  Sc0  1  0.00000000  0.75000000  0.04291000  1.0
  Sc  Sc1  1  0.50000000  0.75000000  0.04291000  1.0
  Sc  Sc2  1  0.25000000  0.25000000  0.12873000  1.0
  Sc  Sc3  1  0.75000000  0.25000000  0.12873000  1.0
  Sc  Sc4  1  0.50000000  0.76519000  0.87228000  1.0
  Sc  Sc5  1  0.00000000  0.70993000  0.86938000  1.0
  Sc  Sc6  1  0.74181000  0.25262000  0.95813000  1.0
  Sc  Sc7  1  0.25819000  0.25262000  0.95813000  1.0
  In  In8  1  0.00000000  0.25000000  0.04291000  1.0
  In  In9  1  0.50000000  0.25000000  0.04291000  1.0
  In  In10  1  0.25000000  0.75000000  0.12873000  1.0
  In  In11  1  0.75000000  0.75000000  0.12873000  1.0
  In  In12  1  0.50000000  0.24178000  0.86738000  1.0
  In  In13  1  0.00000000  0.31260000  0.82516000  1.0
  In  In14  1  0.75871000  0.75365000  0.95500000  1.0
  In  In15  1  0.24129000  0.75365000  0.95500000  1.0
  Cu  Cu16  1  0.00000000  0.00000000  0.12873000  1.0
  Cu  Cu17  1  0.50000000  0.00000000  0.12873000  1.0
  Cu  Cu18  1  0.75000000  0.50000000  0.04291000  1.0
  Cu  Cu19  1  0.25000000  0.50000000  0.04291000  1.0
  Cu  Cu20  1  0.50000000  0.98555000  0.95762000  1.0
  Cu  Cu21  1  0.00000000  0.03951000  0.94129000  1.0
  Cu  Cu22  1  0.25830000  0.48082000  0.87327000  1.0
  Cu  Cu23  1  0.74170000  0.48082000  0.87327000  1.0
  Pd  Pd24  1  0.25000000  0.00000000  0.04291000  1.0
  Pd  Pd25  1  0.75000000  0.00000000  0.04291000  1.0
  Pd  Pd26  1  0.50000000  0.50000000  0.12873000  1.0
  Pd  Pd27  1  0.00000000  0.50000000  0.12873000  1.0
  Pd  Pd28  1  0.76625000  0.04137000  0.87461000  1.0
  Pd  Pd29  1  0.23375000  0.04137000  0.87461000  1.0
  Pd  Pd30  1  0.00000000  0.48120000  0.95517000  1.0
  Pd  Pd31  1  0.50000000  0.51752000  0.95519000  1.0
  C  C32  1  0.00000000  0.01956000  0.86467000  1.0
