# generated using pymatgen
data_Li4Mg4In4Ge4CO
_symmetry_space_group_name_H-M   'P 1'
_cell_length_a   6.07136000
_cell_length_b   8.40992000
_cell_length_c   24.55010000
_cell_angle_alpha   90.00000000
_cell_angle_beta   90.00000000
_cell_angle_gamma   90.00000000
_symmetry_Int_Tables_number   1
_chemical_formula_structural   Li4Mg4In4Ge4CO
_chemical_formula_sum   'Li4 Mg4 In4 Ge4 C1 O1'
_cell_volume   1253.51955989
_cell_formula_units_Z   1
loop_
 _symmetry_equiv_pos_site_id
 _symmetry_equiv_pos_as_xyz
  1  'x, y, z'
loop_
 _atom_site_type_symbol
 _atom_site_label
 _atom_site_symmetry_multiplicity
 _atom_site_fract_x
 _atom_site_fract_y
 _atom_site_fract_z
 _atom_site_occupancy
  Li  Li0  1  0.76392000  0.24185000  0.04141000  1.0
  Li  Li1  1  0.22099000  0.25000000  0.90733000  1.0
  Li  Li2  1  0.76389000  0.75815000  0.04141000  1.0
  Li  Li3  1  0.22099000  0.75000000  0.90733000  1.0
  Mg  Mg4  1  0.25741000  0.24783000  0.03529000  1.0
  Mg  Mg5  1  0.72099000  0.25000000  0.90733000  1.0
  Mg  Mg6  1  0.25742000  0.75217000  0.03531000  1.0
  Mg  Mg7  1  0.72099000  0.75000000  0.90733000  1.0
  In  In8  1  0.50586000  0.00005000  0.10510000  1.0
  In  In9  1  0.98066000  0.00000000  0.96911000  1.0
  In  In10  1  0.52036000  0.49997000  0.09804000  1.0
  In  In11  1  0.98066000  0.50000000  0.96911000  1.0
  Ge  Ge12  1  0.00109000  0.99998000  0.09371000  1.0
  Ge  Ge13  1  0.48066000  0.00000000  0.96911000  1.0
  Ge  Ge14  1  0.01868000  0.49999000  0.08526000  1.0
  Ge  Ge15  1  0.48066000  0.50000000  0.96911000  1.0
  C  C16  1  0.97095000  0.99998000  0.17410000  1.0
  O  O17  1  0.99301000  0.99999000  0.22095000  1.0
