# generated using pymatgen
data_MgScInPd
_symmetry_space_group_name_H-M   'P 1'
_cell_length_a   6.76782000
_cell_length_b   6.76782000
_cell_length_c   25.07590000
_cell_angle_alpha   90.00000000
_cell_angle_beta   90.00000000
_cell_angle_gamma   90.00000000
_symmetry_Int_Tables_number   1
_chemical_formula_structural   MgScInPd
_chemical_formula_sum   'Mg4 Sc4 In4 Pd4'
_cell_volume   1148.56116593
_cell_formula_units_Z   4
loop_
 _symmetry_equiv_pos_site_id
 _symmetry_equiv_pos_as_xyz
  1  'x, y, z'
loop_
 _atom_site_type_symbol
 _atom_site_label
 _atom_site_symmetry_multiplicity
 _atom_site_fract_x
 _atom_site_fract_y
 _atom_site_fract_z
 _atom_site_occupancy
  Mg  Mg0  1  0.25000000  0.25000000  0.96626000  1.0
  Mg  Mg1  1  0.25146000  0.74857000  0.10496000  1.0
  Mg  Mg2  1  0.74856000  0.25145000  0.10500000  1.0
  Mg  Mg3  1  0.75000000  0.75000000  0.96626000  1.0
  Sc  Sc4  1  0.75000000  0.25000000  0.96626000  1.0
  Sc  Sc5  1  0.75096000  0.75091000  0.09996000  1.0
  Sc  Sc6  1  0.24918000  0.24916000  0.09994000  1.0
  Sc  Sc7  1  0.25000000  0.75000000  0.96626000  1.0
  In  In8  1  0.00000000  0.00000000  0.89879000  1.0
  In  In9  1  0.99989000  0.50003000  0.03790000  1.0
  In  In10  1  0.50000000  0.00003000  0.03791000  1.0
  In  In11  1  0.50000000  0.50000000  0.89879000  1.0
  Pd  Pd12  1  0.00000000  0.50000000  0.89879000  1.0
  Pd  Pd13  1  0.00000000  0.00009000  0.03750000  1.0
  Pd  Pd14  1  0.50000000  0.50005000  0.03752000  1.0
  Pd  Pd15  1  0.50000000  0.00000000  0.89879000  1.0
