# generated using pymatgen
data_Y4Sc4In4Pd4C
_symmetry_space_group_name_H-M   'P 1'
_cell_length_a   7.36232000
_cell_length_b   6.98742000
_cell_length_c   25.23460000
_cell_angle_alpha   90.00000000
_cell_angle_beta   90.00000000
_cell_angle_gamma   90.00000000
_symmetry_Int_Tables_number   1
_chemical_formula_structural   Y4Sc4In4Pd4C
_chemical_formula_sum   'Y4 Sc4 In4 Pd4 C1'
_cell_volume   1298.15922408
_cell_formula_units_Z   1
loop_
 _symmetry_equiv_pos_site_id
 _symmetry_equiv_pos_as_xyz
  1  'x, y, z'
loop_
 _atom_site_type_symbol
 _atom_site_label
 _atom_site_symmetry_multiplicity
 _atom_site_fract_x
 _atom_site_fract_y
 _atom_site_fract_z
 _atom_site_occupancy
  Y  Y0  1  0.50000000  0.26593000  0.04580000  1.0
  Y  Y1  1  0.50000000  0.78588000  0.89628000  1.0
  Y  Y2  1  0.00000000  0.25939000  0.03773000  1.0
  Y  Y3  1  0.00000000  0.78588000  0.89628000  1.0
  Sc  Sc4  1  0.50000000  0.79295000  0.03898000  1.0
  Sc  Sc5  1  0.50000000  0.28588000  0.89628000  1.0
  Sc  Sc6  1  0.00000000  0.78270000  0.02916000  1.0
  Sc  Sc7  1  0.00000000  0.28588000  0.89628000  1.0
  In  In8  1  0.78397000  0.95626000  0.12337000  1.0
  In  In9  1  0.75001000  0.52392000  0.96543000  1.0
  In  In10  1  0.21603000  0.95626000  0.12337000  1.0
  In  In11  1  0.24999000  0.52392000  0.96543000  1.0
  Pd  Pd12  1  0.77580000  0.55787000  0.08428000  1.0
  Pd  Pd13  1  0.75001000  0.02392000  0.96543000  1.0
  Pd  Pd14  1  0.22420000  0.55787000  0.08428000  1.0
  Pd  Pd15  1  0.24999000  0.02392000  0.96543000  1.0
  C  C16  1  0.50000000  0.00672000  0.10012000  1.0
