# generated using pymatgen
data_Li16Ag8Pb8C
_symmetry_space_group_name_H-M   'P 1'
_cell_length_a   9.68063000
_cell_length_b   6.84524000
_cell_length_c   27.26050000
_cell_angle_alpha   90.00000000
_cell_angle_beta   90.00000000
_cell_angle_gamma   90.00000000
_symmetry_Int_Tables_number   1
_chemical_formula_structural   Li16Ag8Pb8C
_chemical_formula_sum   'Li16 Ag8 Pb8 C1'
_cell_volume   1806.45071833
_cell_formula_units_Z   1
loop_
 _symmetry_equiv_pos_site_id
 _symmetry_equiv_pos_as_xyz
  1  'x, y, z'
loop_
 _atom_site_type_symbol
 _atom_site_label
 _atom_site_symmetry_multiplicity
 _atom_site_fract_x
 _atom_site_fract_y
 _atom_site_fract_z
 _atom_site_occupancy
  Li  Li0  1  0.25002000  1.00000000  0.04439000  1.0
  Li  Li1  1  0.50000000  0.50000000  0.13317000  1.0
  Li  Li2  1  0.74998000  1.00000000  0.04439000  1.0
  Li  Li3  1  0.00000000  0.50000000  0.13317000  1.0
  Li  Li4  1  0.75002000  0.25000000  0.13317000  1.0
  Li  Li5  1  0.24998000  0.25000000  0.13317000  1.0
  Li  Li6  1  0.00000000  0.75000000  0.04439000  1.0
  Li  Li7  1  0.50000000  0.75000000  0.04439000  1.0
  Li  Li8  1  0.71384000  0.02035000  0.86135000  1.0
  Li  Li9  1  0.00000000  0.49461000  0.95639000  1.0
  Li  Li10  1  0.28616000  0.02035000  0.86135000  1.0
  Li  Li11  1  0.50000000  0.50622000  0.95982000  1.0
  Li  Li12  1  0.25892000  0.26875000  0.94419000  1.0
  Li  Li13  1  0.74108000  0.26875000  0.94419000  1.0
  Li  Li14  1  0.50000000  0.73587000  0.86387000  1.0
  Li  Li15  1  0.00000000  0.76708000  0.86989000  1.0
  Ag  Ag16  1  0.50000000  0.25000000  0.04439000  1.0
  Ag  Ag17  1  0.00000000  0.25000000  0.04439000  1.0
  Ag  Ag18  1  0.25002000  0.75000000  0.13317000  1.0
  Ag  Ag19  1  0.74998000  0.75000000  0.13317000  1.0
  Ag  Ag20  1  0.00000000  0.25116000  0.87349000  1.0
  Ag  Ag21  1  0.50000000  0.33255000  0.86783000  1.0
  Ag  Ag22  1  0.75891000  0.71253000  0.94495000  1.0
  Ag  Ag23  1  0.24109000  0.71253000  0.94495000  1.0
  Pb  Pb24  1  0.50000000  0.00000000  0.13317000  1.0
  Pb  Pb25  1  0.75002000  0.50000000  0.04439000  1.0
  Pb  Pb26  1  0.24998000  0.50000000  0.04439000  1.0
  Pb  Pb27  1  0.00000000  1.00000000  0.13317000  1.0
  Pb  Pb28  1  0.00000000  0.99754000  0.95879000  1.0
  Pb  Pb29  1  0.23342000  0.51407000  0.84671000  1.0
  Pb  Pb30  1  0.76658000  0.51407000  0.84671000  1.0
  Pb  Pb31  1  0.50000000  0.96619000  0.96111000  1.0
  C  C32  1  0.50000000  0.02858000  0.88033000  1.0
