# generated using pymatgen
data_Li16Ag8Pb8C
_symmetry_space_group_name_H-M   Pm
_cell_length_a   6.84524000
_cell_length_b   9.68063000
_cell_length_c   27.26050000
_cell_angle_alpha   90.00000000
_cell_angle_beta   90.00000000
_cell_angle_gamma   90.00000000
_symmetry_Int_Tables_number   6
_chemical_formula_structural   Li16Ag8Pb8C
_chemical_formula_sum   'Li16 Ag8 Pb8 C1'
_cell_volume   1806.45071833
_cell_formula_units_Z   1
loop_
 _symmetry_equiv_pos_site_id
 _symmetry_equiv_pos_as_xyz
  1  'x, y, z'
  2  'x, -y, z'
loop_
 _atom_site_type_symbol
 _atom_site_label
 _atom_site_symmetry_multiplicity
 _atom_site_fract_x
 _atom_site_fract_y
 _atom_site_fract_z
 _atom_site_occupancy
  Li  Li0  2  -0.00000000  0.25002000  0.95561000  1.0
  Li  Li1  2  0.02035000  0.28616000  0.13865000  1.0
  Li  Li2  2  0.25000000  0.24998000  0.86683000  1.0
  Li  Li3  2  0.26875000  0.25892000  0.05581000  1.0
  Li  Li4  1  0.49461000  0.00000000  0.04361000  1.0
  Li  Li5  1  0.50000000  0.00000000  0.86683000  1.0
  Li  Li6  1  0.50000000  0.50000000  0.86683000  1.0
  Li  Li7  1  0.50622000  0.50000000  0.04018000  1.0
  Li  Li8  1  0.73587000  0.50000000  0.13613000  1.0
  Li  Li9  1  0.75000000  0.00000000  0.95561000  1.0
  Li  Li10  1  0.75000000  0.50000000  0.95561000  1.0
  Li  Li11  1  0.76708000  0.00000000  0.13011000  1.0
  Ag  Ag12  2  0.71253000  0.24109000  0.05505000  1.0
  Ag  Ag13  2  0.75000000  0.25002000  0.86683000  1.0
  Ag  Ag14  1  0.25000000  0.00000000  0.95561000  1.0
  Ag  Ag15  1  0.25000000  0.50000000  0.95561000  1.0
  Ag  Ag16  1  0.25116000  0.00000000  0.12651000  1.0
  Ag  Ag17  1  0.33255000  0.50000000  0.13217000  1.0
  Pb  Pb18  2  0.50000000  0.24998000  0.95561000  1.0
  Pb  Pb19  2  0.51407000  0.23342000  0.15329000  1.0
  Pb  Pb20  1  -0.00000000  0.00000000  0.86683000  1.0
  Pb  Pb21  1  0.00000000  0.50000000  0.86683000  1.0
  Pb  Pb22  1  0.96619000  0.50000000  0.03889000  1.0
  Pb  Pb23  1  0.99754000  0.00000000  0.04121000  1.0
  C  C24  1  0.02858000  0.50000000  0.11967000  1.0
