# generated using pymatgen
data_Fe4Co8Ge4C
_symmetry_space_group_name_H-M   Cmm2
_cell_length_a   8.15711312
_cell_length_b   8.15711312
_cell_length_c   24.32600000
_cell_angle_alpha   90.00000000
_cell_angle_beta   90.00000000
_cell_angle_gamma   90.00000000
_symmetry_Int_Tables_number   35
_chemical_formula_structural   Fe4Co8Ge4C
_chemical_formula_sum   'Fe8 Co16 Ge8 C2'
_cell_volume   1618.61541490
_cell_formula_units_Z   2
loop_
 _symmetry_equiv_pos_site_id
 _symmetry_equiv_pos_as_xyz
  1  'x, y, z'
  2  '-x, -y, z'
  3  '-x, y, z'
  4  'x, -y, z'
  5  'x+1/2, y+1/2, z'
  6  '-x+1/2, -y+1/2, z'
  7  '-x+1/2, y+1/2, z'
  8  'x+1/2, -y+1/2, z'
loop_
 _atom_site_type_symbol
 _atom_site_label
 _atom_site_symmetry_multiplicity
 _atom_site_fract_x
 _atom_site_fract_y
 _atom_site_fract_z
 _atom_site_occupancy
  Fe  Fe0  4  0.00000000  0.25000000  0.08892000  1.0
  Fe  Fe1  4  0.25000000  0.50000000  0.97036000  1.0
  Co  Co2  4  0.25000000  0.25000000  0.02964000  1.0
  Co  Co3  4  0.25000000  0.25000000  0.91108000  1.0
  Co  Co4  2  0.00000000  0.00000000  0.02964000  1.0
  Co  Co5  2  0.00000000  0.00000000  0.91108000  1.0
  Co  Co6  2  0.00000000  0.50000000  0.02964000  1.0
  Co  Co7  2  0.00000000  0.50000000  0.91108000  1.0
  Ge  Ge8  4  0.00000000  0.25000000  0.97036000  1.0
  Ge  Ge9  4  0.25000000  0.50000000  0.08892000  1.0
  C  C10  2  0.00000000  0.50000000  0.12180000  1.0
