# generated using pymatgen
data_Y8Sc8In8Pd8CO
_symmetry_space_group_name_H-M   P1
_cell_length_a   9.64246000
_cell_length_b   10.11530000
_cell_length_c   25.52170000
_cell_angle_alpha   90.00000000
_cell_angle_beta   90.00000000
_cell_angle_gamma   90.00000000
_symmetry_Int_Tables_number   1
_chemical_formula_structural   Y8Sc8In8Pd8CO
_chemical_formula_sum   'Y8 Sc8 In8 Pd8 C1 O1'
_cell_volume   2489.29411812
_cell_formula_units_Z   1
loop_
 _symmetry_equiv_pos_site_id
 _symmetry_equiv_pos_as_xyz
  1  'x, y, z'
loop_
 _atom_site_type_symbol
 _atom_site_label
 _atom_site_symmetry_multiplicity
 _atom_site_fract_x
 _atom_site_fract_y
 _atom_site_fract_z
 _atom_site_occupancy
  Y  Y0  1  0.00000000  0.25000000  0.89182000  1.0
  Y  Y1  1  0.00000000  0.75000000  0.89182000  1.0
  Y  Y2  1  0.50000000  0.25000000  0.89182000  1.0
  Y  Y3  1  0.50000000  0.74999000  0.03884000  1.0
  Y  Y4  1  0.50000000  0.75000000  0.89182000  1.0
  Y  Y5  1  0.50001000  0.25000000  0.03885000  1.0
  Y  Y6  1  0.99999000  0.25015000  0.03863000  1.0
  Y  Y7  1  0.99999000  0.74984000  0.03864000  1.0
  Sc  Sc8  1  0.25000000  0.00000000  0.89182000  1.0
  Sc  Sc9  1  0.25000000  0.50000000  0.89182000  1.0
  Sc  Sc10  1  0.25025000  0.49999000  0.03955000  1.0
  Sc  Sc11  1  0.25036000  0.99999000  0.03937000  1.0
  Sc  Sc12  1  0.74966000  0.99999000  0.03937000  1.0
  Sc  Sc13  1  0.74976000  0.50000000  0.03956000  1.0
  Sc  Sc14  1  0.75000000  0.00000000  0.89182000  1.0
  Sc  Sc15  1  0.75000000  0.50000000  0.89182000  1.0
  In  In16  1  0.00000000  0.00000000  0.96394000  1.0
  In  In17  1  0.00000000  0.50000000  0.96394000  1.0
  In  In18  1  0.00004000  0.49998000  0.11988000  1.0
  In  In19  1  0.00005000  0.99999000  0.11860000  1.0
  In  In20  1  0.49999000  0.50000000  0.11961000  1.0
  In  In21  1  0.50000000  0.00000000  0.96394000  1.0
  In  In22  1  0.50000000  0.50000000  0.96394000  1.0
  In  In23  1  0.50000000  0.99998000  0.11991000  1.0
  Pd  Pd24  1  0.24966000  0.24911000  0.09641000  1.0
  Pd  Pd25  1  0.24967000  0.75087000  0.09641000  1.0
  Pd  Pd26  1  0.25000000  0.25000000  0.96394000  1.0
  Pd  Pd27  1  0.25000000  0.75000000  0.96394000  1.0
  Pd  Pd28  1  0.75000000  0.25000000  0.96394000  1.0
  Pd  Pd29  1  0.75000000  0.75000000  0.96394000  1.0
  Pd  Pd30  1  0.75031000  0.75088000  0.09641000  1.0
  Pd  Pd31  1  0.75032000  0.24912000  0.09641000  1.0
  C  C32  1  0.99993000  0.00026000  0.26504000  1.0
  O  O33  1  0.00001000  0.99997000  0.30949000  1.0
