# generated using pymatgen
data_Ta8Ga8Ni16C
_symmetry_space_group_name_H-M   Pmm2
_cell_length_a   5.98793000
_cell_length_b   8.46821000
_cell_length_c   26.35120000
_cell_angle_alpha   90.00000000
_cell_angle_beta   90.00000000
_cell_angle_gamma   90.00000000
_symmetry_Int_Tables_number   25
_chemical_formula_structural   Ta8Ga8Ni16C
_chemical_formula_sum   'Ta8 Ga8 Ni16 C1'
_cell_volume   1336.19158184
_cell_formula_units_Z   1
loop_
 _symmetry_equiv_pos_site_id
 _symmetry_equiv_pos_as_xyz
  1  'x, y, z'
  2  '-x, -y, z'
  3  '-x, y, z'
  4  'x, -y, z'
loop_
 _atom_site_type_symbol
 _atom_site_label
 _atom_site_symmetry_multiplicity
 _atom_site_fract_x
 _atom_site_fract_y
 _atom_site_fract_z
 _atom_site_occupancy
  Ta  Ta0  2  0.50000000  0.25000000  0.95983000  1.0
  Ta  Ta1  2  0.50000000  0.25673000  0.11751000  1.0
  Ta  Ta2  1  0.00000000  0.00000000  0.04480000  1.0
  Ta  Ta3  1  0.00000000  0.00000000  0.87949000  1.0
  Ta  Ta4  1  0.00000000  0.50000000  0.04136000  1.0
  Ta  Ta5  1  0.00000000  0.50000000  0.87949000  1.0
  Ga  Ga6  2  0.00000000  0.25000000  0.95983000  1.0
  Ga  Ga7  2  0.00000000  0.25913000  0.12918000  1.0
  Ga  Ga8  1  0.50000000  0.00000000  0.04007000  1.0
  Ga  Ga9  1  0.50000000  0.00000000  0.87949000  1.0
  Ga  Ga10  1  0.50000000  0.50000000  0.03868000  1.0
  Ga  Ga11  1  0.50000000  0.50000000  0.87949000  1.0
  Ni  Ni12  4  0.24653000  0.25358000  0.03996000  1.0
  Ni  Ni13  4  0.25000000  0.25000000  0.87949000  1.0
  Ni  Ni14  2  0.25000000  0.00000000  0.95983000  1.0
  Ni  Ni15  2  0.25000000  0.50000000  0.95983000  1.0
  Ni  Ni16  2  0.25322000  0.50000000  0.11884000  1.0
  Ni  Ni17  2  0.29633000  0.00000000  0.12485000  1.0
  C  C18  1  0.00000000  0.00000000  0.12900000  1.0
