# generated using pymatgen
data_LiAlCoPd
_symmetry_space_group_name_H-M   Pm
_cell_length_a   5.87254000
_cell_length_b   4.15251000
_cell_length_c   26.22880000
_cell_angle_alpha   90.00000000
_cell_angle_beta   90.00000000
_cell_angle_gamma   90.00000000
_symmetry_Int_Tables_number   6
_chemical_formula_structural   LiAlCoPd
_chemical_formula_sum   'Li4 Al4 Co4 Pd4'
_cell_volume   639.60977467
_cell_formula_units_Z   4
loop_
 _symmetry_equiv_pos_site_id
 _symmetry_equiv_pos_as_xyz
  1  'x, y, z'
  2  'x, -y, z'
loop_
 _atom_site_type_symbol
 _atom_site_label
 _atom_site_symmetry_multiplicity
 _atom_site_fract_x
 _atom_site_fract_y
 _atom_site_fract_z
 _atom_site_occupancy
  Li  Li0  1  -0.00000000  0.50000000  0.03958000  1.0
  Li  Li1  1  0.00627000  0.50000000  0.86504000  1.0
  Li  Li2  1  0.50000000  0.00000000  0.11874000  1.0
  Li  Li3  1  0.50504000  0.00000000  0.96230000  1.0
  Al  Al4  1  -0.00000000  0.00000000  0.11874000  1.0
  Al  Al5  1  0.49706500  0.50000000  0.88159000  1.0
  Al  Al6  1  0.50000000  0.50000000  0.03958000  1.0
  Al  Al7  1  0.99683000  0.00000000  0.96142000  1.0
  Co  Co8  1  0.25000000  0.00000000  0.03958000  1.0
  Co  Co9  1  0.26228000  0.00000000  0.88682000  1.0
  Co  Co10  1  0.75000000  0.50000000  0.11874000  1.0
  Co  Co11  1  0.75457000  0.50000000  0.95864000  1.0
  Pd  Pd12  1  0.24527500  0.50000000  0.96019000  1.0
  Pd  Pd13  1  0.25000000  0.50000000  0.11874000  1.0
  Pd  Pd14  1  0.74612500  0.00000000  0.88303000  1.0
  Pd  Pd15  1  0.75000000  0.00000000  0.03958000  1.0
