# generated using pymatgen
data_Sc4In4Ga4Pd4CO
_symmetry_space_group_name_H-M   'P 1'
_cell_length_a   6.68246000
_cell_length_b   6.68246000
_cell_length_c   25.01180000
_cell_angle_alpha   90.00000000
_cell_angle_beta   90.00000000
_cell_angle_gamma   90.00000000
_symmetry_Int_Tables_number   1
_chemical_formula_structural   Sc4In4Ga4Pd4CO
_chemical_formula_sum   'Sc4 In4 Ga4 Pd4 C1 O1'
_cell_volume   1116.90872350
_cell_formula_units_Z   1
loop_
 _symmetry_equiv_pos_site_id
 _symmetry_equiv_pos_as_xyz
  1  'x, y, z'
loop_
 _atom_site_type_symbol
 _atom_site_label
 _atom_site_symmetry_multiplicity
 _atom_site_fract_x
 _atom_site_fract_y
 _atom_site_fract_z
 _atom_site_occupancy
  Sc  Sc0  1  0.75000000  0.25000000  0.96660000  1.0
  Sc  Sc1  1  0.75172000  0.74965000  0.09983000  1.0
  Sc  Sc2  1  0.25042000  0.24829000  0.09984000  1.0
  Sc  Sc3  1  0.25000000  0.75000000  0.96660000  1.0
  In  In4  1  0.25000000  0.25000000  0.96660000  1.0
  In  In5  1  0.25201000  0.74800000  0.11579000  1.0
  In  In6  1  0.75271000  0.24728000  0.10838000  1.0
  In  In7  1  0.75000000  0.75000000  0.96660000  1.0
  Ga  Ga8  1  0.00000000  0.00000000  0.89981000  1.0
  Ga  Ga9  1  0.00965000  0.50771000  0.04024000  1.0
  Ga  Ga10  1  0.49232000  0.99031000  0.04025000  1.0
  Ga  Ga11  1  0.50000000  0.50000000  0.89981000  1.0
  Pd  Pd12  1  1.00000000  0.50000000  0.89981000  1.0
  Pd  Pd13  1  0.01030000  0.98976000  0.03573000  1.0
  Pd  Pd14  1  0.49446000  0.50554000  0.03647000  1.0
  Pd  Pd15  1  0.50000000  0.00000000  0.89981000  1.0
  C  C16  1  0.68229000  0.31813000  0.25603000  1.0
  O  O17  1  0.78243000  0.21749000  0.28113000  1.0
