# generated using pymatgen
data_Li16In8Ir8CO
_symmetry_space_group_name_H-M   Pm
_cell_length_a   6.34973000
_cell_length_b   8.97987000
_cell_length_c   26.73490000
_cell_angle_alpha   90.00000000
_cell_angle_beta   90.00000000
_cell_angle_gamma   90.00000000
_symmetry_Int_Tables_number   6
_chemical_formula_structural   Li16In8Ir8CO
_chemical_formula_sum   'Li16 In8 Ir8 C1 O1'
_cell_volume   1524.41731254
_cell_formula_units_Z   1
loop_
 _symmetry_equiv_pos_site_id
 _symmetry_equiv_pos_as_xyz
  1  'x, y, z'
  2  'x, -y, z'
loop_
 _atom_site_type_symbol
 _atom_site_label
 _atom_site_symmetry_multiplicity
 _atom_site_fract_x
 _atom_site_fract_y
 _atom_site_fract_z
 _atom_site_occupancy
  Li  Li0  2  0.25000000  0.24999000  0.95801000  1.0
  Li  Li1  2  0.26824000  0.24597000  0.13159000  1.0
  Li  Li2  2  0.49922000  0.25194000  0.04189000  1.0
  Li  Li3  2  0.50000000  0.24999000  0.87404000  1.0
  Li  Li4  1  0.00000000  0.00000000  0.95801000  1.0
  Li  Li5  1  0.00000000  0.50000000  0.95801000  1.0
  Li  Li6  1  0.02451000  0.50000000  0.12781000  1.0
  Li  Li7  1  0.74487000  0.50000000  0.04305000  1.0
  Li  Li8  1  0.75000000  0.00000000  0.87404000  1.0
  Li  Li9  1  0.75000000  0.50000000  0.87404000  1.0
  Li  Li10  1  0.75164000  0.00000000  0.03774000  1.0
  Li  Li11  1  0.98715000  0.00000000  0.12261000  1.0
  In  In12  2  0.73815000  0.25900000  0.13032000  1.0
  In  In13  2  0.75000000  0.25001000  0.95801000  1.0
  In  In14  1  0.24011000  0.50000000  0.03957000  1.0
  In  In15  1  0.24837000  0.00000000  0.04099000  1.0
  In  In16  1  0.25000000  0.00000000  0.87404000  1.0
  In  In17  1  0.25000000  0.50000000  0.87404000  1.0
  Ir  Ir18  2  0.00000000  0.24999000  0.87404000  1.0
  Ir  Ir19  2  0.99292000  0.24804000  0.04714000  1.0
  Ir  Ir20  1  0.49132000  0.50000000  0.11981000  1.0
  Ir  Ir21  1  0.50000000  0.00000000  0.95801000  1.0
  Ir  Ir22  1  0.50000000  0.50000000  0.95801000  1.0
  Ir  Ir23  1  0.50184000  0.00000000  0.12618000  1.0
  C  C24  1  0.41321000  0.00000000  0.19219000  1.0
  O  O25  1  0.35801000  0.00000000  0.23403000  1.0
