# generated using pymatgen
data_Li4Y4Sn4Ge4CO
_symmetry_space_group_name_H-M   P1
_cell_length_a   6.35836000
_cell_length_b   8.60818000
_cell_length_c   24.74450000
_cell_angle_alpha   90.00000000
_cell_angle_beta   90.00000000
_cell_angle_gamma   90.00000000
_symmetry_Int_Tables_number   1
_chemical_formula_structural   Li4Y4Sn4Ge4CO
_chemical_formula_sum   'Li4 Y4 Sn4 Ge4 C1 O1'
_cell_volume   1354.36317128
_cell_formula_units_Z   1
loop_
 _symmetry_equiv_pos_site_id
 _symmetry_equiv_pos_as_xyz
  1  'x, y, z'
loop_
 _atom_site_type_symbol
 _atom_site_label
 _atom_site_symmetry_multiplicity
 _atom_site_fract_x
 _atom_site_fract_y
 _atom_site_fract_z
 _atom_site_occupancy
  Li  Li0  1  0.05034000  0.00000000  0.03196000  1.0
  Li  Li1  1  0.05034000  0.50000000  0.03196000  1.0
  Li  Li2  1  0.43106000  0.50008000  0.88538000  1.0
  Li  Li3  1  0.47128000  0.00006000  0.89985000  1.0
  Y  Y4  1  0.32551000  0.25000000  0.09587000  1.0
  Y  Y5  1  0.32551000  0.75000000  0.09587000  1.0
  Y  Y6  1  0.75769000  0.26180000  0.96727000  1.0
  Y  Y7  1  0.75819000  0.73834000  0.96723000  1.0
  Sn  Sn8  1  0.26604000  0.26268000  0.95665000  1.0
  Sn  Sn9  1  0.26635000  0.73726000  0.95673000  1.0
  Sn  Sn10  1  0.82551000  0.25000000  0.09587000  1.0
  Sn  Sn11  1  0.82551000  0.75000000  0.09587000  1.0
  Ge  Ge12  1  0.01187000  0.50006000  0.91001000  1.0
  Ge  Ge13  1  0.55034000  0.00000000  0.03196000  1.0
  Ge  Ge14  1  0.55034000  0.50000000  0.03196000  1.0
  Ge  Ge15  1  0.94081000  0.00021000  0.90623000  1.0
  C  C16  1  0.13614000  0.00028000  0.84799000  1.0
  O  O17  1  0.24484000  0.00016000  0.80940000  1.0
