# generated using pymatgen
data_Li8Y8Pd8Pb8C
_symmetry_space_group_name_H-M   'P 1'
_cell_length_a   9.74510000
_cell_length_b   6.89083000
_cell_length_c   27.30880000
_cell_angle_alpha   90.00000000
_cell_angle_beta   90.00000000
_cell_angle_gamma   90.00000000
_symmetry_Int_Tables_number   1
_chemical_formula_structural   Li8Y8Pd8Pb8C
_chemical_formula_sum   'Li8 Y8 Pd8 Pb8 C1'
_cell_volume   1833.83582500
_cell_formula_units_Z   1
loop_
 _symmetry_equiv_pos_site_id
 _symmetry_equiv_pos_as_xyz
  1  'x, y, z'
loop_
 _atom_site_type_symbol
 _atom_site_label
 _atom_site_symmetry_multiplicity
 _atom_site_fract_x
 _atom_site_fract_y
 _atom_site_fract_z
 _atom_site_occupancy
  Li  Li0  1  0.50000000  0.00000000  0.13382000  1.0
  Li  Li1  1  0.00000000  0.00000000  0.13382000  1.0
  Li  Li2  1  0.25001000  0.50000000  0.04461000  1.0
  Li  Li3  1  0.74999000  0.50000000  0.04461000  1.0
  Li  Li4  1  0.00000000  0.00761000  0.95734000  1.0
  Li  Li5  1  0.50000000  0.97807000  0.93342000  1.0
  Li  Li6  1  0.78082000  0.32200000  0.81098000  1.0
  Li  Li7  1  0.21918000  0.32200000  0.81098000  1.0
  Y  Y8  1  0.50000000  0.75000000  0.04461000  1.0
  Y  Y9  1  0.00000000  0.75000000  0.04461000  1.0
  Y  Y10  1  0.75001000  0.25000000  0.13382000  1.0
  Y  Y11  1  0.24999000  0.25000000  0.13382000  1.0
  Y  Y12  1  0.00000000  0.71949000  0.87026000  1.0
  Y  Y13  1  0.50000000  0.61784000  0.86665000  1.0
  Y  Y14  1  0.25540000  0.25748000  0.94988000  1.0
  Y  Y15  1  0.74460000  0.25748000  0.94988000  1.0
  Pd  Pd16  1  0.75001000  0.00000000  0.04461000  1.0
  Pd  Pd17  1  0.24999000  0.00000000  0.04461000  1.0
  Pd  Pd18  1  0.00000000  0.50000000  0.13382000  1.0
  Pd  Pd19  1  0.50000000  0.50000000  0.13382000  1.0
  Pd  Pd20  1  0.28736000  0.00318000  0.86841000  1.0
  Pd  Pd21  1  0.71264000  0.00318000  0.86841000  1.0
  Pd  Pd22  1  0.50000000  0.49948000  0.96232000  1.0
  Pd  Pd23  1  0.00000000  0.48988000  0.95591000  1.0
  Pb  Pb24  1  0.50000000  0.25000000  0.04461000  1.0
  Pb  Pb25  1  0.00000000  0.25000000  0.04461000  1.0
  Pb  Pb26  1  0.75001000  0.75000000  0.13382000  1.0
  Pb  Pb27  1  0.24999000  0.75000000  0.13382000  1.0
  Pb  Pb28  1  0.00000000  0.21439000  0.86630000  1.0
  Pb  Pb29  1  0.50000000  0.20222000  0.80508000  1.0
  Pb  Pb30  1  0.24865000  0.74771000  0.95408000  1.0
  Pb  Pb31  1  0.75135000  0.74771000  0.95408000  1.0
  C  C32  1  0.50000000  0.93503000  0.85351000  1.0
