# generated using pymatgen
data_Li8Y8Pd8Pb8C
_symmetry_space_group_name_H-M   Pm
_cell_length_a   6.89083000
_cell_length_b   9.74510000
_cell_length_c   27.30880000
_cell_angle_alpha   90.00000000
_cell_angle_beta   90.00000000
_cell_angle_gamma   90.00000000
_symmetry_Int_Tables_number   6
_chemical_formula_structural   Li8Y8Pd8Pb8C
_chemical_formula_sum   'Li8 Y8 Pd8 Pb8 C1'
_cell_volume   1833.83582500
_cell_formula_units_Z   1
loop_
 _symmetry_equiv_pos_site_id
 _symmetry_equiv_pos_as_xyz
  1  'x, y, z'
  2  'x, -y, z'
loop_
 _atom_site_type_symbol
 _atom_site_label
 _atom_site_symmetry_multiplicity
 _atom_site_fract_x
 _atom_site_fract_y
 _atom_site_fract_z
 _atom_site_occupancy
  Li  Li0  2  0.32200000  0.21918000  0.18902000  1.0
  Li  Li1  2  0.50000000  0.25001000  0.95539000  1.0
  Li  Li2  1  0.00000000  0.00000000  0.86618000  1.0
  Li  Li3  1  0.00000000  0.50000000  0.86618000  1.0
  Li  Li4  1  0.00761000  0.00000000  0.04266000  1.0
  Li  Li5  1  0.97807000  0.50000000  0.06658000  1.0
  Y  Y6  2  0.25000000  0.24999000  0.86618000  1.0
  Y  Y7  2  0.25748000  0.25540000  0.05012000  1.0
  Y  Y8  1  0.61784000  0.50000000  0.13335000  1.0
  Y  Y9  1  0.71949000  0.00000000  0.12974000  1.0
  Y  Y10  1  0.75000000  0.00000000  0.95539000  1.0
  Y  Y11  1  0.75000000  0.50000000  0.95539000  1.0
  Pd  Pd12  2  0.00000000  0.24999000  0.95539000  1.0
  Pd  Pd13  2  0.00318000  0.28736000  0.13159000  1.0
  Pd  Pd14  1  0.48988000  0.00000000  0.04409000  1.0
  Pd  Pd15  1  0.49948000  0.50000000  0.03768000  1.0
  Pd  Pd16  1  0.50000000  0.00000000  0.86618000  1.0
  Pd  Pd17  1  0.50000000  0.50000000  0.86618000  1.0
  Pb  Pb18  2  0.74771000  0.24865000  0.04592000  1.0
  Pb  Pb19  2  0.75000000  0.24999000  0.86618000  1.0
  Pb  Pb20  1  0.20222000  0.50000000  0.19492000  1.0
  Pb  Pb21  1  0.21439000  0.00000000  0.13370000  1.0
  Pb  Pb22  1  0.25000000  0.00000000  0.95539000  1.0
  Pb  Pb23  1  0.25000000  0.50000000  0.95539000  1.0
  C  C24  1  0.93503000  0.50000000  0.14649000  1.0
