# generated using pymatgen
data_Hf16Rh16CO
_symmetry_space_group_name_H-M   'P 1'
_cell_length_a   6.52860000
_cell_length_b   9.23283000
_cell_length_c   26.92460000
_cell_angle_alpha   90.00000000
_cell_angle_beta   90.00000000
_cell_angle_gamma   90.00000000
_symmetry_Int_Tables_number   1
_chemical_formula_structural   Hf16Rh16CO
_chemical_formula_sum   'Hf16 Rh16 C1 O1'
_cell_volume   1622.94633630
_cell_formula_units_Z   1
loop_
 _symmetry_equiv_pos_site_id
 _symmetry_equiv_pos_as_xyz
  1  'x, y, z'
loop_
 _atom_site_type_symbol
 _atom_site_label
 _atom_site_symmetry_multiplicity
 _atom_site_fract_x
 _atom_site_fract_y
 _atom_site_fract_z
 _atom_site_occupancy
  Hf  Hf0  1  0.75000000  0.00000000  0.87141000  1.0
  Hf  Hf1  1  0.75000000  0.25000000  0.95714000  1.0
  Hf  Hf2  1  0.74681000  0.00000000  0.04294000  1.0
  Hf  Hf3  1  0.74574000  0.25431000  0.12966000  1.0
  Hf  Hf4  1  0.75000000  0.50000000  0.87141000  1.0
  Hf  Hf5  1  0.75000000  0.75000000  0.95714000  1.0
  Hf  Hf6  1  0.75174000  0.50000000  0.04292000  1.0
  Hf  Hf7  1  0.74574000  0.74569000  0.12966000  1.0
  Hf  Hf8  1  0.25000000  0.00000000  0.87141000  1.0
  Hf  Hf9  1  0.25000000  0.25000000  0.95714000  1.0
  Hf  Hf10  1  0.25319000  0.00000000  0.04294000  1.0
  Hf  Hf11  1  0.25426000  0.25431000  0.12966000  1.0
  Hf  Hf12  1  0.25000000  0.50000000  0.87141000  1.0
  Hf  Hf13  1  0.25000000  0.75000000  0.95714000  1.0
  Hf  Hf14  1  0.24826000  0.50000000  0.04292000  1.0
  Hf  Hf15  1  0.25426000  0.74569000  0.12966000  1.0
  Rh  Rh16  1  0.00000000  0.25000000  0.87141000  1.0
  Rh  Rh17  1  0.00000000  0.00000000  0.95714000  1.0
  Rh  Rh18  1  0.00000000  0.23972000  0.04778000  1.0
  Rh  Rh19  1  0.00000000  0.00000000  0.13053000  1.0
  Rh  Rh20  1  0.00000000  0.75000000  0.87141000  1.0
  Rh  Rh21  1  0.00000000  0.50000000  0.95714000  1.0
  Rh  Rh22  1  0.00000000  0.76028000  0.04778000  1.0
  Rh  Rh23  1  0.00000000  0.50000000  0.12189000  1.0
  Rh  Rh24  1  0.50000000  0.25000000  0.87141000  1.0
  Rh  Rh25  1  0.50000000  0.00000000  0.95714000  1.0
  Rh  Rh26  1  0.50000000  0.25310000  0.04274000  1.0
  Rh  Rh27  1  0.50000000  0.00000000  0.12061000  1.0
  Rh  Rh28  1  0.50000000  0.75000000  0.87141000  1.0
  Rh  Rh29  1  0.50000000  0.50000000  0.95714000  1.0
  Rh  Rh30  1  0.50000000  0.74690000  0.04274000  1.0
  Rh  Rh31  1  0.50000000  0.50000000  0.12090000  1.0
  C  C32  1  0.00000000  0.00000000  0.20054000  1.0
  O  O33  1  0.00000000  0.00000000  0.24381000  1.0
