# generated using pymatgen
data_Hf16Rh16CO
_symmetry_space_group_name_H-M   Pmm2
_cell_length_a   6.52860000
_cell_length_b   9.23283000
_cell_length_c   26.92460000
_cell_angle_alpha   90.00000000
_cell_angle_beta   90.00000000
_cell_angle_gamma   90.00000000
_symmetry_Int_Tables_number   25
_chemical_formula_structural   Hf16Rh16CO
_chemical_formula_sum   'Hf16 Rh16 C1 O1'
_cell_volume   1622.94633630
_cell_formula_units_Z   1
loop_
 _symmetry_equiv_pos_site_id
 _symmetry_equiv_pos_as_xyz
  1  'x, y, z'
  2  '-x, -y, z'
  3  '-x, y, z'
  4  'x, -y, z'
loop_
 _atom_site_type_symbol
 _atom_site_label
 _atom_site_symmetry_multiplicity
 _atom_site_fract_x
 _atom_site_fract_y
 _atom_site_fract_z
 _atom_site_occupancy
  Hf  Hf0  4  0.25000000  0.25000000  0.95714000  1.0
  Hf  Hf1  4  0.25426000  0.25431000  0.12966000  1.0
  Hf  Hf2  2  0.24826000  0.50000000  0.04292000  1.0
  Hf  Hf3  2  0.25000000  0.00000000  0.87141000  1.0
  Hf  Hf4  2  0.25000000  0.50000000  0.87141000  1.0
  Hf  Hf5  2  0.25319000  0.00000000  0.04294000  1.0
  Rh  Rh6  2  0.00000000  0.23972000  0.04778000  1.0
  Rh  Rh7  2  0.00000000  0.25000000  0.87141000  1.0
  Rh  Rh8  2  0.50000000  0.25000000  0.87141000  1.0
  Rh  Rh9  2  0.50000000  0.25310000  0.04274000  1.0
  Rh  Rh10  1  0.00000000  0.00000000  0.13053000  1.0
  Rh  Rh11  1  0.00000000  0.00000000  0.95714000  1.0
  Rh  Rh12  1  0.00000000  0.50000000  0.12189000  1.0
  Rh  Rh13  1  0.00000000  0.50000000  0.95714000  1.0
  Rh  Rh14  1  0.50000000  0.00000000  0.12061000  1.0
  Rh  Rh15  1  0.50000000  0.00000000  0.95714000  1.0
  Rh  Rh16  1  0.50000000  0.50000000  0.12090000  1.0
  Rh  Rh17  1  0.50000000  0.50000000  0.95714000  1.0
  C  C18  1  0.00000000  0.00000000  0.20054000  1.0
  O  O19  1  0.00000000  0.00000000  0.24381000  1.0
