# generated using pymatgen
data_Li8Al8Ag16CO
_symmetry_space_group_name_H-M   'P 1'
_cell_length_a   9.05843000
_cell_length_b   6.40528000
_cell_length_c   26.79380000
_cell_angle_alpha   90.00000000
_cell_angle_beta   90.00000000
_cell_angle_gamma   90.00000000
_symmetry_Int_Tables_number   1
_chemical_formula_structural   Li8Al8Ag16CO
_chemical_formula_sum   'Li8 Al8 Ag16 C1 O1'
_cell_volume   1554.62398264
_cell_formula_units_Z   1
loop_
 _symmetry_equiv_pos_site_id
 _symmetry_equiv_pos_as_xyz
  1  'x, y, z'
loop_
 _atom_site_type_symbol
 _atom_site_label
 _atom_site_symmetry_multiplicity
 _atom_site_fract_x
 _atom_site_fract_y
 _atom_site_fract_z
 _atom_site_occupancy
  Li  Li0  1  0.50000000  0.00000000  0.12678000  1.0
  Li  Li1  1  0.75002000  0.50000000  0.04226000  1.0
  Li  Li2  1  0.24998000  0.50000000  0.04226000  1.0
  Li  Li3  1  0.00000000  0.00000000  0.12678000  1.0
  Li  Li4  1  0.00000000  0.99973000  0.96127000  1.0
  Li  Li5  1  0.24854000  0.50192000  0.87165000  1.0
  Li  Li6  1  0.75146000  0.50192000  0.87165000  1.0
  Li  Li7  1  0.50000000  0.00682000  0.96001000  1.0
  Al  Al8  1  0.25002000  0.00000000  0.04226000  1.0
  Al  Al9  1  0.50000000  0.50000000  0.12678000  1.0
  Al  Al10  1  0.74998000  0.00000000  0.04226000  1.0
  Al  Al11  1  0.00000000  0.50000000  0.12678000  1.0
  Al  Al12  1  0.75324000  0.99526000  0.87387000  1.0
  Al  Al13  1  0.00000000  0.49856000  0.95671000  1.0
  Al  Al14  1  0.24676000  0.99526000  0.87387000  1.0
  Al  Al15  1  0.50000000  0.49712000  0.95607000  1.0
  Ag  Ag16  1  0.50000000  0.25000000  0.04226000  1.0
  Ag  Ag17  1  0.00000000  0.75000000  0.04226000  1.0
  Ag  Ag18  1  0.50000000  0.75000000  0.04226000  1.0
  Ag  Ag19  1  0.00000000  0.25000000  0.04226000  1.0
  Ag  Ag20  1  0.25002000  0.75000000  0.12678000  1.0
  Ag  Ag21  1  0.75002000  0.25000000  0.12678000  1.0
  Ag  Ag22  1  0.24998000  0.25000000  0.12678000  1.0
  Ag  Ag23  1  0.74998000  0.75000000  0.12678000  1.0
  Ag  Ag24  1  0.00000000  0.23421000  0.87621000  1.0
  Ag  Ag25  1  0.50000000  0.77106000  0.87819000  1.0
  Ag  Ag26  1  0.00000000  0.76214000  0.87656000  1.0
  Ag  Ag27  1  0.50000000  0.23188000  0.87197000  1.0
  Ag  Ag28  1  0.75021000  0.74675000  0.95879000  1.0
  Ag  Ag29  1  0.25123000  0.25170000  0.95742000  1.0
  Ag  Ag30  1  0.74877000  0.25170000  0.95742000  1.0
  Ag  Ag31  1  0.24979000  0.74675000  0.95879000  1.0
  C  C32  1  0.50000000  0.30910000  0.78700000  1.0
  O  O33  1  0.50000000  0.25312000  0.74646000  1.0
