# generated using pymatgen
data_Li8Al8Ag16CO
_symmetry_space_group_name_H-M   Pm
_cell_length_a   6.40528000
_cell_length_b   9.05843000
_cell_length_c   26.79380000
_cell_angle_alpha   90.00000000
_cell_angle_beta   90.00000000
_cell_angle_gamma   90.00000000
_symmetry_Int_Tables_number   6
_chemical_formula_structural   Li8Al8Ag16CO
_chemical_formula_sum   'Li8 Al8 Ag16 C1 O1'
_cell_volume   1554.62398264
_cell_formula_units_Z   1
loop_
 _symmetry_equiv_pos_site_id
 _symmetry_equiv_pos_as_xyz
  1  'x, y, z'
  2  'x, -y, z'
loop_
 _atom_site_type_symbol
 _atom_site_label
 _atom_site_symmetry_multiplicity
 _atom_site_fract_x
 _atom_site_fract_y
 _atom_site_fract_z
 _atom_site_occupancy
  Li  Li0  2  0.50000000  0.24998000  0.95774000  1.0
  Li  Li1  2  0.50192000  0.24854000  0.12835000  1.0
  Li  Li2  1  0.00000000  0.00000000  0.87322000  1.0
  Li  Li3  1  0.00000000  0.50000000  0.87322000  1.0
  Li  Li4  1  0.00682000  0.50000000  0.03999000  1.0
  Li  Li5  1  0.99973000  0.00000000  0.03873000  1.0
  Al  Al6  2  0.00000000  0.25002000  0.95774000  1.0
  Al  Al7  2  0.99526000  0.24676000  0.12613000  1.0
  Al  Al8  1  0.49712000  0.50000000  0.04393000  1.0
  Al  Al9  1  0.49856000  0.00000000  0.04329000  1.0
  Al  Al10  1  0.50000000  0.00000000  0.87322000  1.0
  Al  Al11  1  0.50000000  0.50000000  0.87322000  1.0
  Ag  Ag12  2  0.25000000  0.24998000  0.87322000  1.0
  Ag  Ag13  2  0.25170000  0.25123000  0.04258000  1.0
  Ag  Ag14  2  0.74675000  0.24979000  0.04121000  1.0
  Ag  Ag15  2  0.75000000  0.25002000  0.87322000  1.0
  Ag  Ag16  1  0.23188000  0.50000000  0.12803000  1.0
  Ag  Ag17  1  0.23421000  0.00000000  0.12379000  1.0
  Ag  Ag18  1  0.25000000  0.00000000  0.95774000  1.0
  Ag  Ag19  1  0.25000000  0.50000000  0.95774000  1.0
  Ag  Ag20  1  0.75000000  0.00000000  0.95774000  1.0
  Ag  Ag21  1  0.75000000  0.50000000  0.95774000  1.0
  Ag  Ag22  1  0.76214000  0.00000000  0.12344000  1.0
  Ag  Ag23  1  0.77106000  0.50000000  0.12181000  1.0
  C  C24  1  0.30910000  0.50000000  0.21300000  1.0
  O  O25  1  0.25312000  0.50000000  0.25354000  1.0
