# generated using pymatgen
data_ScAlNi2
_symmetry_space_group_name_H-M   'P 1'
_cell_length_a   6.08368000
_cell_length_b   6.08368000
_cell_length_c   24.56280000
_cell_angle_alpha   90.00000000
_cell_angle_beta   90.00000000
_cell_angle_gamma   90.00000000
_symmetry_Int_Tables_number   1
_chemical_formula_structural   ScAlNi2
_chemical_formula_sum   'Sc4 Al4 Ni8'
_cell_volume   909.09777838
_cell_formula_units_Z   4
loop_
 _symmetry_equiv_pos_site_id
 _symmetry_equiv_pos_as_xyz
  1  'x, y, z'
loop_
 _atom_site_type_symbol
 _atom_site_label
 _atom_site_symmetry_multiplicity
 _atom_site_fract_x
 _atom_site_fract_y
 _atom_site_fract_z
 _atom_site_occupancy
  Sc  Sc0  1  0.00000000  0.00000000  0.90712000  1.0
  Sc  Sc1  1  0.50000000  0.50000000  0.90712000  1.0
  Sc  Sc2  1  0.49998000  0.99998000  0.03337000  1.0
  Sc  Sc3  1  0.99998000  0.50006000  0.03334000  1.0
  Al  Al4  1  0.00000000  0.99992000  0.03440000  1.0
  Al  Al5  1  0.50000000  0.00000000  0.90712000  1.0
  Al  Al6  1  1.00000000  0.50000000  0.90712000  1.0
  Al  Al7  1  0.49993000  0.50004000  0.03353000  1.0
  Ni  Ni8  1  0.25000000  0.25000000  0.96904000  1.0
  Ni  Ni9  1  0.74843000  0.74816000  0.08910000  1.0
  Ni  Ni10  1  0.75000000  0.25000000  0.96904000  1.0
  Ni  Ni11  1  0.25161000  0.74849000  0.08897000  1.0
  Ni  Ni12  1  0.75000000  0.75000000  0.96904000  1.0
  Ni  Ni13  1  0.25133000  0.25173000  0.08903000  1.0
  Ni  Ni14  1  0.25000000  0.75000000  0.96904000  1.0
  Ni  Ni15  1  0.74851000  0.25147000  0.08896000  1.0
