# generated using pymatgen
data_Li8In8Cu8Ag8CO
_symmetry_space_group_name_H-M   'P 1'
_cell_length_a   9.06224000
_cell_length_b   6.40797000
_cell_length_c   26.79670000
_cell_angle_alpha   90.00000000
_cell_angle_beta   90.00000000
_cell_angle_gamma   90.00000000
_symmetry_Int_Tables_number   1
_chemical_formula_structural   Li8In8Cu8Ag8CO
_chemical_formula_sum   'Li8 In8 Cu8 Ag8 C1 O1'
_cell_volume   1556.09943016
_cell_formula_units_Z   1
loop_
 _symmetry_equiv_pos_site_id
 _symmetry_equiv_pos_as_xyz
  1  'x, y, z'
loop_
 _atom_site_type_symbol
 _atom_site_label
 _atom_site_symmetry_multiplicity
 _atom_site_fract_x
 _atom_site_fract_y
 _atom_site_fract_z
 _atom_site_occupancy
  Li  Li0  1  0.75001000  0.75000000  0.04227000  1.0
  Li  Li1  1  0.24999000  0.75000000  0.04227000  1.0
  Li  Li2  1  0.00000000  0.25000000  0.12682000  1.0
  Li  Li3  1  0.50000000  0.25000000  0.12682000  1.0
  Li  Li4  1  0.24936000  0.74238000  0.86605000  1.0
  Li  Li5  1  0.75064000  0.74238000  0.86605000  1.0
  Li  Li6  1  0.50000000  0.23866000  0.95552000  1.0
  Li  Li7  1  0.00000000  0.24292000  0.95599000  1.0
  In  In8  1  0.00000000  0.00000000  0.04227000  1.0
  In  In9  1  0.50000000  1.00000000  0.04227000  1.0
  In  In10  1  0.25001000  0.50000000  0.12682000  1.0
  In  In11  1  0.74999000  0.50000000  0.12682000  1.0
  In  In12  1  0.50000000  0.00830000  0.86067000  1.0
  In  In13  1  0.00000000  0.00745000  0.86260000  1.0
  In  In14  1  0.74827000  0.50413000  0.95717000  1.0
  In  In15  1  0.25173000  0.50413000  0.95717000  1.0
  Cu  Cu16  1  0.75001000  0.25000000  0.04227000  1.0
  Cu  Cu17  1  0.24999000  0.25000000  0.04227000  1.0
  Cu  Cu18  1  0.00000000  0.75000000  0.12682000  1.0
  Cu  Cu19  1  0.50000000  0.75000000  0.12682000  1.0
  Cu  Cu20  1  0.25051000  0.23639000  0.87653000  1.0
  Cu  Cu21  1  0.74949000  0.23639000  0.87653000  1.0
  Cu  Cu22  1  0.50000000  0.75835000  0.95456000  1.0
  Cu  Cu23  1  0.00000000  0.75296000  0.95521000  1.0
  Ag  Ag24  1  0.75001000  0.00000000  0.12682000  1.0
  Ag  Ag25  1  0.24999000  0.00000000  0.12682000  1.0
  Ag  Ag26  1  0.50000000  0.50000000  0.04227000  1.0
  Ag  Ag27  1  0.00000000  0.50000000  0.04227000  1.0
  Ag  Ag28  1  0.24846000  0.99183000  0.95871000  1.0
  Ag  Ag29  1  0.75154000  0.99183000  0.95871000  1.0
  Ag  Ag30  1  0.00000000  0.49031000  0.87345000  1.0
  Ag  Ag31  1  0.50000000  0.49113000  0.87336000  1.0
  C  C32  1  0.00000000  0.89790000  0.72419000  1.0
  O  O33  1  0.00000000  0.04509000  0.70055000  1.0
