# generated using pymatgen
data_Y4Cu4Ge4Pd4CO
_symmetry_space_group_name_H-M   'P 1'
_cell_length_a   6.58158000
_cell_length_b   6.58158000
_cell_length_c   24.93620000
_cell_angle_alpha   90.00000000
_cell_angle_beta   90.00000000
_cell_angle_gamma   90.00000000
_symmetry_Int_Tables_number   1
_chemical_formula_structural   Y4Cu4Ge4Pd4CO
_chemical_formula_sum   'Y4 Cu4 Ge4 Pd4 C1 O1'
_cell_volume   1080.16624535
_cell_formula_units_Z   1
loop_
 _symmetry_equiv_pos_site_id
 _symmetry_equiv_pos_as_xyz
  1  'x, y, z'
loop_
 _atom_site_type_symbol
 _atom_site_label
 _atom_site_symmetry_multiplicity
 _atom_site_fract_x
 _atom_site_fract_y
 _atom_site_fract_z
 _atom_site_occupancy
  Y  Y0  1  0.50000000  0.50000000  0.96701000  1
  Y  Y1  1  0.00000000  0.50000000  0.09898000  1
  Y  Y2  1  0.50000000  0.00000000  0.09898000  1
  Y  Y3  1  1.00000000  0.00000000  0.96701000  1
  Cu  Cu4  1  0.75000000  0.75000000  0.90102000  1
  Cu  Cu5  1  0.25000000  0.75000000  0.03299000  1
  Cu  Cu6  1  0.75000000  0.25000000  0.03299000  1
  Cu  Cu7  1  0.25000000  0.25000000  0.90102000  1
  Ge  Ge8  1  0.50000000  0.00000000  0.96701000  1
  Ge  Ge9  1  1.00000000  0.00000000  0.09898000  1
  Ge  Ge10  1  0.50000000  0.50000000  0.09898000  1
  Ge  Ge11  1  0.00000000  0.50000000  0.96701000  1
  Pd  Pd12  1  0.25000000  0.75000000  0.90102000  1
  Pd  Pd13  1  0.75000000  0.75000000  0.03299000  1
  Pd  Pd14  1  0.25000000  0.25000000  0.03299000  1
  Pd  Pd15  1  0.75000000  0.25000000  0.90102000  1
  C  C16  1  0.50000000  0.50000000  0.17517000  1
  O  O17  1  0.50000000  0.50000000  0.22129000  1
