# generated using pymatgen
data_Sc8Ni16Sn8C
_symmetry_space_group_name_H-M   P1
_cell_length_a   6.29417000
_cell_length_b   8.90130000
_cell_length_c   26.67600000
_cell_angle_alpha   90.00000000
_cell_angle_beta   90.00000000
_cell_angle_gamma   90.00000000
_symmetry_Int_Tables_number   1
_chemical_formula_structural   Sc8Ni16Sn8C
_chemical_formula_sum   'Sc8 Ni16 Sn8 C1'
_cell_volume   1494.55745665
_cell_formula_units_Z   1
loop_
 _symmetry_equiv_pos_site_id
 _symmetry_equiv_pos_as_xyz
  1  'x, y, z'
loop_
 _atom_site_type_symbol
 _atom_site_label
 _atom_site_symmetry_multiplicity
 _atom_site_fract_x
 _atom_site_fract_y
 _atom_site_fract_z
 _atom_site_occupancy
  Sc  Sc0  1  -0.00000000  0.50000000  0.87487000  1.0
  Sc  Sc1  1  0.00000000  0.00000000  0.87487000  1.0
  Sc  Sc2  1  0.50000000  0.25000000  0.95829000  1.0
  Sc  Sc3  1  0.50000000  0.75000000  0.95829000  1.0
  Sc  Sc4  1  0.50533000  0.75004000  0.12464000  1.0
  Sc  Sc5  1  0.54033000  0.24999000  0.12539000  1.0
  Sc  Sc6  1  0.99212000  0.50493000  0.04071000  1.0
  Sc  Sc7  1  0.99214000  0.99504000  0.04074000  1.0
  Ni  Ni8  1  0.19367000  0.46513000  0.12116000  1.0
  Ni  Ni9  1  0.19387000  0.03465000  0.12114000  1.0
  Ni  Ni10  1  0.22477000  0.25014000  0.05211000  1.0
  Ni  Ni11  1  0.25000000  0.00000000  0.95829000  1.0
  Ni  Ni12  1  0.25000000  0.25000000  0.87487000  1.0
  Ni  Ni13  1  0.25000000  0.50000000  0.95829000  1.0
  Ni  Ni14  1  0.25000000  0.75000000  0.87487000  1.0
  Ni  Ni15  1  0.26156000  0.74992000  0.04384000  1.0
  Ni  Ni16  1  0.73102000  0.74988000  0.04725000  1.0
  Ni  Ni17  1  0.75000000  0.00000000  0.95829000  1.0
  Ni  Ni18  1  0.75000000  0.25000000  0.87487000  1.0
  Ni  Ni19  1  0.75000000  0.50000000  0.95829000  1.0
  Ni  Ni20  1  0.75000000  0.75000000  0.87487000  1.0
  Ni  Ni21  1  0.75429000  0.25008000  0.04082000  1.0
  Ni  Ni22  1  0.77233000  0.99791000  0.12029000  1.0
  Ni  Ni23  1  0.77238000  0.50205000  0.12029000  1.0
  Sn  Sn24  1  -0.00000000  0.75000000  0.95829000  1.0
  Sn  Sn25  1  -0.00000000  0.25000000  0.95829000  1.0
  Sn  Sn26  1  0.00997000  0.74996000  0.12995000  1.0
  Sn  Sn27  1  0.49416000  0.49640000  0.04368000  1.0
  Sn  Sn28  1  0.49417000  0.00353000  0.04366000  1.0
  Sn  Sn29  1  0.50000000  0.00000000  0.87487000  1.0
  Sn  Sn30  1  0.50000000  0.50000000  0.87487000  1.0
  Sn  Sn31  1  0.94366000  0.25002000  0.17843000  1.0
  C  C32  1  0.20549000  0.24991000  0.12564000  1.0
