data_image0
_chemical_formula_structural       Sc4Ni8Sn4CO
_chemical_formula_sum              "Sc4 Ni8 Sn4 C1 O1"
_cell_length_a       6.31539
_cell_length_b       6.31539
_cell_length_c       24.7365
_cell_angle_alpha    90
_cell_angle_beta     90
_cell_angle_gamma    90

_space_group_name_H-M_alt    "P 1"
_space_group_IT_number       1

loop_
  _space_group_symop_operation_xyz
  'x, y, z'

loop_
  _atom_site_type_symbol
  _atom_site_label
  _atom_site_symmetry_multiplicity
  _atom_site_fract_x
  _atom_site_fract_y
  _atom_site_fract_z
  _atom_site_occupancy
  Sc  Sc1       1.0  0.00007  0.99871  0.09671  1.0000
  Sc  Sc2       1.0  0.50013  0.49912  0.09524  1.0000
  Sc  Sc3       1.0  0.50000  0.00000  0.96809  1.0000
  Sc  Sc4       1.0  0.00000  0.50000  0.96809  1.0000
  Ni  Ni1       1.0  0.25008  0.24779  0.03524  1.0000
  Ni  Ni2       1.0  0.75000  0.75000  0.90426  1.0000
  Ni  Ni3       1.0  0.75020  0.24718  0.03516  1.0000
  Ni  Ni4       1.0  0.25000  0.75000  0.90426  1.0000
  Ni  Ni5       1.0  0.75136  0.75207  0.03535  1.0000
  Ni  Ni6       1.0  0.25000  0.25000  0.90426  1.0000
  Ni  Ni7       1.0  0.24867  0.75159  0.03539  1.0000
  Ni  Ni8       1.0  0.75000  0.25000  0.90426  1.0000
  Sn  Sn1       1.0  0.00000  0.00000  0.96809  1.0000
  Sn  Sn2       1.0  0.50011  0.99939  0.09963  1.0000
  Sn  Sn3       1.0  0.99982  0.49770  0.09865  1.0000
  Sn  Sn4       1.0  0.50000  0.50000  0.96809  1.0000
  C   C1        1.0  0.01720  0.62528  0.25038  1.0000
  O   O1        1.0  0.99359  0.46498  0.27047  1.0000
