# generated using pymatgen
data_Sc4Ni8Sn4CO
_symmetry_space_group_name_H-M   P1
_cell_length_a   6.31539000
_cell_length_b   6.31539000
_cell_length_c   24.73650000
_cell_angle_alpha   90.00000000
_cell_angle_beta   90.00000000
_cell_angle_gamma   90.00000000
_symmetry_Int_Tables_number   1
_chemical_formula_structural   Sc4Ni8Sn4CO
_chemical_formula_sum   'Sc4 Ni8 Sn4 C1 O1'
_cell_volume   986.59429755
_cell_formula_units_Z   1
loop_
 _symmetry_equiv_pos_site_id
 _symmetry_equiv_pos_as_xyz
  1  'x, y, z'
loop_
 _atom_site_type_symbol
 _atom_site_label
 _atom_site_symmetry_multiplicity
 _atom_site_fract_x
 _atom_site_fract_y
 _atom_site_fract_z
 _atom_site_occupancy
  Sc  Sc0  1  0.00000000  0.50000000  0.96809000  1.0
  Sc  Sc1  1  0.00007000  0.99871000  0.09671000  1.0
  Sc  Sc2  1  0.50000000  0.00000000  0.96809000  1.0
  Sc  Sc3  1  0.50013000  0.49912000  0.09524000  1.0
  Ni  Ni4  1  0.24867000  0.75159000  0.03539000  1.0
  Ni  Ni5  1  0.25000000  0.25000000  0.90426000  1.0
  Ni  Ni6  1  0.25000000  0.75000000  0.90426000  1.0
  Ni  Ni7  1  0.25008000  0.24779000  0.03524000  1.0
  Ni  Ni8  1  0.75000000  0.25000000  0.90426000  1.0
  Ni  Ni9  1  0.75000000  0.75000000  0.90426000  1.0
  Ni  Ni10  1  0.75020000  0.24718000  0.03516000  1.0
  Ni  Ni11  1  0.75136000  0.75207000  0.03535000  1.0
  Sn  Sn12  1  0.00000000  0.00000000  0.96809000  1.0
  Sn  Sn13  1  0.50000000  0.50000000  0.96809000  1.0
  Sn  Sn14  1  0.50011000  0.99939000  0.09963000  1.0
  Sn  Sn15  1  0.99982000  0.49770000  0.09865000  1.0
  C  C16  1  0.01720000  0.62528000  0.25038000  1.0
  O  O17  1  0.99359000  0.46498000  0.27047000  1.0
