# generated using pymatgen
data_K4Na8Sb4CO
_symmetry_space_group_name_H-M   Cmm2
_cell_length_a   11.09046075
_cell_length_b   11.09046075
_cell_length_c   25.88160000
_cell_angle_alpha   90.00000000
_cell_angle_beta   90.00000000
_cell_angle_gamma   90.00000000
_symmetry_Int_Tables_number   35
_chemical_formula_structural   K4Na8Sb4CO
_chemical_formula_sum   'K8 Na16 Sb8 C2 O2'
_cell_volume   3183.39330750
_cell_formula_units_Z   2
loop_
 _symmetry_equiv_pos_site_id
 _symmetry_equiv_pos_as_xyz
  1  'x, y, z'
  2  '-x, -y, z'
  3  '-x, y, z'
  4  'x, -y, z'
  5  'x+1/2, y+1/2, z'
  6  '-x+1/2, -y+1/2, z'
  7  '-x+1/2, y+1/2, z'
  8  'x+1/2, -y+1/2, z'
loop_
 _atom_site_type_symbol
 _atom_site_label
 _atom_site_symmetry_multiplicity
 _atom_site_fract_x
 _atom_site_fract_y
 _atom_site_fract_z
 _atom_site_occupancy
  K  K0  4  0.00000000  0.25000000  0.88637000  1.0
  K  K1  4  0.25000000  0.50000000  0.03788000  1.0
  Na  Na2  4  0.25000000  0.25000000  0.11363000  1.0
  Na  Na3  4  0.25000000  0.25000000  0.96212000  1.0
  Na  Na4  2  0.00000000  0.00000000  0.11363000  1.0
  Na  Na5  2  0.00000000  0.00000000  0.96212000  1.0
  Na  Na6  2  0.00000000  0.50000000  0.11363000  1.0
  Na  Na7  2  0.00000000  0.50000000  0.96212000  1.0
  Sb  Sb8  4  0.00000000  0.25000000  0.03788000  1.0
  Sb  Sb9  4  0.25000000  0.50000000  0.88637000  1.0
  C  C10  2  0.00000000  0.50000000  0.18704000  1.0
  O  O11  2  0.00000000  0.50000000  0.23147000  1.0
