data_image0
_chemical_formula_structural       Hf8Co16Sn8CO
_chemical_formula_sum              "Hf8 Co16 Sn8 C1 O1"
_cell_length_a       6.2657
_cell_length_b       8.86104
_cell_length_c       26.6458
_cell_angle_alpha    90
_cell_angle_beta     90
_cell_angle_gamma    90

_space_group_name_H-M_alt    "P 1"
_space_group_IT_number       1

loop_
  _space_group_symop_operation_xyz
  'x, y, z'

loop_
  _atom_site_type_symbol
  _atom_site_label
  _atom_site_symmetry_multiplicity
  _atom_site_fract_x
  _atom_site_fract_y
  _atom_site_fract_z
  _atom_site_occupancy
  Hf  Hf1       1.0  0.00000  0.00000  0.87529  1.0000
  Hf  Hf2       1.0  0.50000  0.25000  0.95843  1.0000
  Hf  Hf3       1.0  0.50000  0.75000  0.95843  1.0000
  Hf  Hf4       1.0  0.00000  0.50000  0.87529  1.0000
  Hf  Hf5       1.0  0.00064  0.50000  0.04267  1.0000
  Hf  Hf6       1.0  0.49965  0.74856  0.12464  1.0000
  Hf  Hf7       1.0  0.49965  0.25144  0.12465  1.0000
  Hf  Hf8       1.0  0.99760  1.00000  0.04195  1.0000
  Co  Co1       1.0  0.25000  0.00000  0.95843  1.0000
  Co  Co2       1.0  0.75000  0.50000  0.95843  1.0000
  Co  Co3       1.0  0.75000  0.00000  0.95843  1.0000
  Co  Co4       1.0  0.25000  0.50000  0.95843  1.0000
  Co  Co5       1.0  0.75000  0.75000  0.87529  1.0000
  Co  Co6       1.0  0.25000  0.25000  0.87529  1.0000
  Co  Co7       1.0  0.25000  0.75000  0.87529  1.0000
  Co  Co8       1.0  0.75000  0.25000  0.87529  1.0000
  Co  Co9       1.0  0.24876  0.49999  0.12164  1.0000
  Co  Co10      1.0  0.75074  0.00001  0.12154  1.0000
  Co  Co11      1.0  0.75047  0.49999  0.12227  1.0000
  Co  Co12      1.0  0.25381  0.00000  0.12923  1.0000
  Co  Co13      1.0  0.74684  0.24975  0.04202  1.0000
  Co  Co14      1.0  0.25235  0.75123  0.04229  1.0000
  Co  Co15      1.0  0.25236  0.24877  0.04229  1.0000
  Co  Co16      1.0  0.74685  0.75025  0.04202  1.0000
  Sn  Sn1       1.0  0.00000  0.75000  0.95843  1.0000
  Sn  Sn2       1.0  0.50000  0.00000  0.87529  1.0000
  Sn  Sn3       1.0  0.00000  0.25000  0.95843  1.0000
  Sn  Sn4       1.0  0.50000  0.50000  0.87529  1.0000
  Sn  Sn5       1.0  0.99718  0.25241  0.12718  1.0000
  Sn  Sn6       1.0  0.49987  0.50000  0.04241  1.0000
  Sn  Sn7       1.0  0.99718  0.74759  0.12718  1.0000
  Sn  Sn8       1.0  0.49973  0.00000  0.04208  1.0000
  C   C1        1.0  0.25803  0.00000  0.19354  1.0000
  O   O1        1.0  0.24830  0.00000  0.23678  1.0000
