# generated using pymatgen
data_Hf8Co16Sn8CO
_symmetry_space_group_name_H-M   Pm
_cell_length_a   6.26570000
_cell_length_b   8.86104000
_cell_length_c   26.64580000
_cell_angle_alpha   90.00000000
_cell_angle_beta   90.00000000
_cell_angle_gamma   90.00000000
_symmetry_Int_Tables_number   6
_chemical_formula_structural   Hf8Co16Sn8CO
_chemical_formula_sum   'Hf8 Co16 Sn8 C1 O1'
_cell_volume   1479.39129184
_cell_formula_units_Z   1
loop_
 _symmetry_equiv_pos_site_id
 _symmetry_equiv_pos_as_xyz
  1  'x, y, z'
  2  'x, -y, z'
loop_
 _atom_site_type_symbol
 _atom_site_label
 _atom_site_symmetry_multiplicity
 _atom_site_fract_x
 _atom_site_fract_y
 _atom_site_fract_z
 _atom_site_occupancy
  Hf  Hf0  2  0.49965000  0.25144000  0.12464000  1.0
  Hf  Hf1  2  0.50000000  0.25000000  0.95843000  1.0
  Hf  Hf2  1  0.00000000  0.00000000  0.87529000  1.0
  Hf  Hf3  1  0.00000000  0.50000000  0.87529000  1.0
  Hf  Hf4  1  0.00064000  0.50000000  0.04267000  1.0
  Hf  Hf5  1  0.99760000  0.00000000  0.04195000  1.0
  Co  Co6  2  0.25000000  0.25000000  0.87529000  1.0
  Co  Co7  2  0.25235000  0.24877000  0.04229000  1.0
  Co  Co8  2  0.74684000  0.24975000  0.04202000  1.0
  Co  Co9  2  0.75000000  0.25000000  0.87529000  1.0
  Co  Co10  1  0.24876000  0.50000000  0.12164000  1.0
  Co  Co11  1  0.25000000  0.00000000  0.95843000  1.0
  Co  Co12  1  0.25000000  0.50000000  0.95843000  1.0
  Co  Co13  1  0.25381000  0.00000000  0.12923000  1.0
  Co  Co14  1  0.75000000  0.00000000  0.95843000  1.0
  Co  Co15  1  0.75000000  0.50000000  0.95843000  1.0
  Co  Co16  1  0.75047000  0.50000000  0.12227000  1.0
  Co  Co17  1  0.75074000  0.00000000  0.12154000  1.0
  Sn  Sn18  2  0.00000000  0.25000000  0.95843000  1.0
  Sn  Sn19  2  0.99718000  0.25241000  0.12718000  1.0
  Sn  Sn20  1  0.49973000  0.00000000  0.04208000  1.0
  Sn  Sn21  1  0.49987000  0.50000000  0.04241000  1.0
  Sn  Sn22  1  0.50000000  0.00000000  0.87529000  1.0
  Sn  Sn23  1  0.50000000  0.50000000  0.87529000  1.0
  C  C24  1  0.25803000  0.00000000  0.19354000  1.0
  O  O25  1  0.24830000  0.00000000  0.23678000  1.0
