# generated using pymatgen
data_LiScGaPd
_symmetry_space_group_name_H-M   'P 1'
_cell_length_a   6.35289000
_cell_length_b   8.98434000
_cell_length_c   26.73830000
_cell_angle_alpha   90.00000000
_cell_angle_beta   90.00000000
_cell_angle_gamma   90.00000000
_symmetry_Int_Tables_number   1
_chemical_formula_structural   LiScGaPd
_chemical_formula_sum   'Li8 Sc8 Ga8 Pd8'
_cell_volume   1526.12921479
_cell_formula_units_Z   8
loop_
 _symmetry_equiv_pos_site_id
 _symmetry_equiv_pos_as_xyz
  1  'x, y, z'
loop_
 _atom_site_type_symbol
 _atom_site_label
 _atom_site_symmetry_multiplicity
 _atom_site_fract_x
 _atom_site_fract_y
 _atom_site_fract_z
 _atom_site_occupancy
  Li  Li0  1  0.75000000  0.00000000  0.95800000  1.0
  Li  Li1  1  0.75000000  0.50000000  0.95800000  1.0
  Li  Li2  1  0.25000000  0.25000000  0.87400000  1.0
  Li  Li3  1  0.25000000  0.75000000  0.87400000  1.0
  Li  Li4  1  0.58485000  0.49999000  0.17736000  1.0
  Li  Li5  1  0.58478000  0.00001000  0.17738000  1.0
  Li  Li6  1  0.24571000  0.75007000  0.04362000  1.0
  Li  Li7  1  0.24580000  0.24985000  0.04363000  1.0
  Sc  Sc8  1  0.00000000  0.25000000  0.95800000  1.0
  Sc  Sc9  1  0.00000000  0.75000000  0.95800000  1.0
  Sc  Sc10  1  0.50000000  0.50000000  0.87400000  1.0
  Sc  Sc11  1  0.50000000  0.00000000  0.87400000  1.0
  Sc  Sc12  1  0.94225000  0.75001000  0.12336000  1.0
  Sc  Sc13  1  0.94237000  0.25004000  0.12334000  1.0
  Sc  Sc14  1  0.51794000  0.99994000  0.05280000  1.0
  Sc  Sc15  1  0.51720000  0.49997000  0.05254000  1.0
  Ga  Ga16  1  0.00000000  0.00000000  0.87400000  1.0
  Ga  Ga17  1  0.00000000  0.50000000  0.87400000  1.0
  Ga  Ga18  1  0.50000000  0.75000000  0.95800000  1.0
  Ga  Ga19  1  0.50000000  0.25000000  0.95800000  1.0
  Ga  Ga20  1  0.99706000  0.50001000  0.04046000  1.0
  Ga  Ga21  1  0.99705000  0.99996000  0.04048000  1.0
  Ga  Ga22  1  0.46449000  0.25009000  0.12942000  1.0
  Ga  Ga23  1  0.46437000  0.74989000  0.12944000  1.0
  Pd  Pd24  1  0.25000000  0.00000000  0.95800000  1.0
  Pd  Pd25  1  0.25000000  0.50000000  0.95800000  1.0
  Pd  Pd26  1  0.75000000  0.25000000  0.87400000  1.0
  Pd  Pd27  1  0.75000000  0.75000000  0.87400000  1.0
  Pd  Pd28  1  0.21978000  0.50002000  0.12159000  1.0
  Pd  Pd29  1  0.21955000  0.00001000  0.12163000  1.0
  Pd  Pd30  1  0.74324000  0.74994000  0.03794000  1.0
  Pd  Pd31  1  0.74320000  0.25002000  0.03793000  1.0
