# generated using pymatgen
data_Li8Ag16Ge8CO
_symmetry_space_group_name_H-M   'P 1'
_cell_length_a   6.51415000
_cell_length_b   9.21240000
_cell_length_c   26.90930000
_cell_angle_alpha   90.00000000
_cell_angle_beta   90.00000000
_cell_angle_gamma   90.00000000
_symmetry_Int_Tables_number   1
_chemical_formula_structural   Li8Ag16Ge8CO
_chemical_formula_sum   'Li8 Ag16 Ge8 C1 O1'
_cell_volume   1614.85280376
_cell_formula_units_Z   1
loop_
 _symmetry_equiv_pos_site_id
 _symmetry_equiv_pos_as_xyz
  1  'x, y, z'
loop_
 _atom_site_type_symbol
 _atom_site_label
 _atom_site_symmetry_multiplicity
 _atom_site_fract_x
 _atom_site_fract_y
 _atom_site_fract_z
 _atom_site_occupancy
  Li  Li0  1  0.00000000  0.74998000  0.87162000  1.0
  Li  Li1  1  0.50000000  0.00000000  0.95721000  1.0
  Li  Li2  1  0.50000000  0.50000000  0.95721000  1.0
  Li  Li3  1  0.00000000  0.25002000  0.87162000  1.0
  Li  Li4  1  0.00000000  0.25458000  0.04032000  1.0
  Li  Li5  1  0.50000000  0.50000000  0.13331000  1.0
  Li  Li6  1  0.50000000  0.00000000  0.13179000  1.0
  Li  Li7  1  0.00000000  0.74542000  0.04032000  1.0
  Ag  Ag8  1  0.24995000  0.74998000  0.95721000  1.0
  Ag  Ag9  1  0.75005000  0.25002000  0.95721000  1.0
  Ag  Ag10  1  0.75005000  0.74998000  0.95721000  1.0
  Ag  Ag11  1  0.24995000  0.25002000  0.95721000  1.0
  Ag  Ag12  1  0.74995000  0.50000000  0.87162000  1.0
  Ag  Ag13  1  0.24995000  0.00000000  0.87162000  1.0
  Ag  Ag14  1  0.25005000  0.50000000  0.87162000  1.0
  Ag  Ag15  1  0.75005000  0.00000000  0.87162000  1.0
  Ag  Ag16  1  0.23760000  0.24786000  0.12819000  1.0
  Ag  Ag17  1  0.76240000  0.75214000  0.12819000  1.0
  Ag  Ag18  1  0.76240000  0.24786000  0.12819000  1.0
  Ag  Ag19  1  0.23760000  0.75214000  0.12819000  1.0
  Ag  Ag20  1  0.74170000  0.00000000  0.04117000  1.0
  Ag  Ag21  1  0.24224000  0.50000000  0.04670000  1.0
  Ag  Ag22  1  0.25830000  0.00000000  0.04117000  1.0
  Ag  Ag23  1  0.75776000  0.50000000  0.04670000  1.0
  Ge  Ge24  1  0.00000000  0.50000000  0.95721000  1.0
  Ge  Ge25  1  0.50000000  0.74998000  0.87162000  1.0
  Ge  Ge26  1  0.00000000  0.00000000  0.95721000  1.0
  Ge  Ge27  1  0.50000000  0.25002000  0.87162000  1.0
  Ge  Ge28  1  0.00000000  0.00000000  0.14577000  1.0
  Ge  Ge29  1  0.50000000  0.25464000  0.04780000  1.0
  Ge  Ge30  1  0.00000000  0.50000000  0.13279000  1.0
  Ge  Ge31  1  0.50000000  0.74536000  0.04780000  1.0
  C  C32  1  0.00000000  0.00000000  0.22012000  1.0
  O  O33  1  0.00000000  0.00000000  0.26309000  1.0
