# generated using pymatgen
data_Y8In8Cu8Sn8CO
_symmetry_space_group_name_H-M   'P 1'
_cell_length_a   8.82850000
_cell_length_b   8.84740000
_cell_length_c   26.85960000
_cell_angle_alpha   90.00000000
_cell_angle_beta   90.00000000
_cell_angle_gamma   90.00000000
_symmetry_Int_Tables_number   1
_chemical_formula_structural   Y8In8Cu8Sn8CO
_chemical_formula_sum   'Y8 In8 Cu8 Sn8 C1 O1'
_cell_volume   2097.98377267
_cell_formula_units_Z   1
loop_
 _symmetry_equiv_pos_site_id
 _symmetry_equiv_pos_as_xyz
  1  'x, y, z'
loop_
 _atom_site_type_symbol
 _atom_site_label
 _atom_site_symmetry_multiplicity
 _atom_site_fract_x
 _atom_site_fract_y
 _atom_site_fract_z
 _atom_site_occupancy
  Y  Y0  1  0.25012000  0.99884000  0.04367000  1.0
  Y  Y1  1  0.25000000  0.00000000  0.87231000  1.0
  Y  Y2  1  0.25016000  0.50116000  0.04367000  1.0
  Y  Y3  1  0.25000000  0.50000000  0.87231000  1.0
  Y  Y4  1  0.75024000  0.99998000  0.04385000  1.0
  Y  Y5  1  0.75000000  0.00000000  0.87231000  1.0
  Y  Y6  1  0.75020000  0.50002000  0.04385000  1.0
  Y  Y7  1  0.75000000  0.50000000  0.87231000  1.0
  In  In8  1  0.25604000  0.24999000  0.13986000  1.0
  In  In9  1  0.25000000  0.25000000  0.95744000  1.0
  In  In10  1  0.24833000  0.74997000  0.14318000  1.0
  In  In11  1  0.25000000  0.75000000  0.95744000  1.0
  In  In12  1  0.74686000  0.25001000  0.14108000  1.0
  In  In13  1  0.75000000  0.25000000  0.95744000  1.0
  In  In14  1  0.75021000  0.75000000  0.14358000  1.0
  In  In15  1  0.75000000  0.75000000  0.95744000  1.0
  Cu  Cu16  1  0.00004000  0.00214000  0.11773000  1.0
  Cu  Cu17  1  0.00000000  0.00000000  0.95744000  1.0
  Cu  Cu18  1  0.00006000  0.49784000  0.11769000  1.0
  Cu  Cu19  1  0.00000000  0.50000000  0.95744000  1.0
  Cu  Cu20  1  0.50026000  0.00352000  0.11776000  1.0
  Cu  Cu21  1  0.50000000  0.00000000  0.95744000  1.0
  Cu  Cu22  1  0.50029000  0.49648000  0.11779000  1.0
  Cu  Cu23  1  0.50000000  0.50000000  0.95744000  1.0
  Sn  Sn24  1  0.00120000  0.25001000  0.05069000  1.0
  Sn  Sn25  1  0.00000000  0.25000000  0.87231000  1.0
  Sn  Sn26  1  0.99967000  0.74998000  0.05227000  1.0
  Sn  Sn27  1  0.00000000  0.75000000  0.87231000  1.0
  Sn  Sn28  1  0.49957000  0.24998000  0.04878000  1.0
  Sn  Sn29  1  0.50000000  0.25000000  0.87231000  1.0
  Sn  Sn30  1  0.50051000  0.75002000  0.05286000  1.0
  Sn  Sn31  1  0.50000000  0.75000000  0.87231000  1.0
  C  C32  1  0.23527000  0.24997000  0.28382000  1.0
  O  O33  1  0.25775000  0.25000000  0.32542000  1.0
