data_image0
_chemical_formula_structural       Mn16Sn8W8CO
_chemical_formula_sum              "Mn16 Sn8 W8 C1 O1"
_cell_length_a       6.1049
_cell_length_b       8.63363
_cell_length_c       26.4752
_cell_angle_alpha    90
_cell_angle_beta     90
_cell_angle_gamma    90

_space_group_name_H-M_alt    "P 1"
_space_group_IT_number       1

loop_
  _space_group_symop_operation_xyz
  'x, y, z'

loop_
  _atom_site_type_symbol
  _atom_site_label
  _atom_site_symmetry_multiplicity
  _atom_site_fract_x
  _atom_site_fract_y
  _atom_site_fract_z
  _atom_site_occupancy
  Mn  Mn1       1.0  0.25000  0.00000  0.95924  1.0000
  Mn  Mn2       1.0  0.75000  0.50000  0.95924  1.0000
  Mn  Mn3       1.0  0.75000  0.00000  0.95924  1.0000
  Mn  Mn4       1.0  0.25000  0.50000  0.95924  1.0000
  Mn  Mn5       1.0  0.75000  0.75000  0.87771  1.0000
  Mn  Mn6       1.0  0.25000  0.25000  0.87771  1.0000
  Mn  Mn7       1.0  0.25000  0.75000  0.87771  1.0000
  Mn  Mn8       1.0  0.75000  0.25000  0.87771  1.0000
  Mn  Mn9       1.0  0.23306  0.50152  0.12842  1.0000
  Mn  Mn10      1.0  0.76694  0.99848  0.12842  1.0000
  Mn  Mn11      1.0  0.76694  0.50152  0.12842  1.0000
  Mn  Mn12      1.0  0.23306  0.99848  0.12842  1.0000
  Mn  Mn13      1.0  0.74437  0.25000  0.04128  1.0000
  Mn  Mn14      1.0  0.26647  0.75000  0.04558  1.0000
  Mn  Mn15      1.0  0.25564  0.25000  0.04128  1.0000
  Mn  Mn16      1.0  0.73353  0.75000  0.04558  1.0000
  Sn  Sn1       1.0  0.00000  0.00000  0.87771  1.0000
  Sn  Sn2       1.0  0.50000  0.25000  0.95924  1.0000
  Sn  Sn3       1.0  0.50000  0.75000  0.95924  1.0000
  Sn  Sn4       1.0  0.00000  0.50000  0.87771  1.0000
  Sn  Sn5       1.0  0.00001  0.50793  0.04084  1.0000
  Sn  Sn6       1.0  0.49999  0.75000  0.14656  1.0000
  Sn  Sn7       1.0  0.49999  0.25000  0.12945  1.0000
  Sn  Sn8       1.0  0.00001  0.99207  0.04084  1.0000
  W   W1        1.0  0.00000  0.75000  0.95924  1.0000
  W   W2        1.0  0.50000  0.00000  0.87771  1.0000
  W   W3        1.0  0.00000  0.25000  0.95924  1.0000
  W   W4        1.0  0.50000  0.50000  0.87771  1.0000
  W   W5        1.0  1.00000  0.25000  0.11291  1.0000
  W   W6        1.0  0.50001  0.49601  0.04406  1.0000
  W   W7        1.0  0.99999  0.75000  0.11932  1.0000
  W   W8        1.0  0.50001  0.00399  0.04406  1.0000
  C   C1        1.0  0.50000  0.25000  0.25070  1.0000
  O   O1        1.0  0.50000  0.25000  0.29339  1.0000
