# generated using pymatgen
data_Mn16Sn8W8CO
_symmetry_space_group_name_H-M   Pmm2
_cell_length_a   6.10490000
_cell_length_b   8.63363000
_cell_length_c   26.47520000
_cell_angle_alpha   90.00000000
_cell_angle_beta   90.00000000
_cell_angle_gamma   90.00000000
_symmetry_Int_Tables_number   25
_chemical_formula_structural   Mn16Sn8W8CO
_chemical_formula_sum   'Mn16 Sn8 W8 C1 O1'
_cell_volume   1395.44022165
_cell_formula_units_Z   1
loop_
 _symmetry_equiv_pos_site_id
 _symmetry_equiv_pos_as_xyz
  1  'x, y, z'
  2  '-x, -y, z'
  3  '-x, y, z'
  4  'x, -y, z'
loop_
 _atom_site_type_symbol
 _atom_site_label
 _atom_site_symmetry_multiplicity
 _atom_site_fract_x
 _atom_site_fract_y
 _atom_site_fract_z
 _atom_site_occupancy
  Mn  Mn0  4  0.23306000  0.25152000  0.12842000  1.0
  Mn  Mn1  4  0.25000000  0.25000000  0.95924000  1.0
  Mn  Mn2  2  0.25000000  0.00000000  0.87771000  1.0
  Mn  Mn3  2  0.25000000  0.50000000  0.87771000  1.0
  Mn  Mn4  2  0.25563000  0.00000000  0.04128000  1.0
  Mn  Mn5  2  0.26647000  0.50000000  0.04558000  1.0
  Sn  Sn6  2  0.00000000  0.25000000  0.87771000  1.0
  Sn  Sn7  2  0.00000000  0.25793000  0.04084000  1.0
  Sn  Sn8  1  0.50000000  0.00000000  0.12945000  1.0
  Sn  Sn9  1  0.50000000  0.00000000  0.95924000  1.0
  Sn  Sn10  1  0.50000000  0.50000000  0.14656000  1.0
  Sn  Sn11  1  0.50000000  0.50000000  0.95924000  1.0
  W  W12  2  0.50000000  0.24601000  0.04406000  1.0
  W  W13  2  0.50000000  0.25000000  0.87771000  1.0
  W  W14  1  0.00000000  0.00000000  0.11291000  1.0
  W  W15  1  0.00000000  0.00000000  0.95924000  1.0
  W  W16  1  0.00000000  0.50000000  0.11932000  1.0
  W  W17  1  0.00000000  0.50000000  0.95924000  1.0
  C  C18  1  0.50000000  0.00000000  0.25070000  1.0
  O  O19  1  0.50000000  0.00000000  0.29339000  1.0
