# generated using pymatgen
data_Li8Y8Cu8Ge8C
_symmetry_space_group_name_H-M   Pm
_cell_length_a   6.66034000
_cell_length_b   9.41914000
_cell_length_c   27.06440000
_cell_angle_alpha   90.00000000
_cell_angle_beta   90.00000000
_cell_angle_gamma   90.00000000
_symmetry_Int_Tables_number   6
_chemical_formula_structural   Li8Y8Cu8Ge8C
_chemical_formula_sum   'Li8 Y8 Cu8 Ge8 C1'
_cell_volume   1697.87633557
_cell_formula_units_Z   1
loop_
 _symmetry_equiv_pos_site_id
 _symmetry_equiv_pos_as_xyz
  1  'x, y, z'
  2  'x, -y, z'
loop_
 _atom_site_type_symbol
 _atom_site_label
 _atom_site_symmetry_multiplicity
 _atom_site_fract_x
 _atom_site_fract_y
 _atom_site_fract_z
 _atom_site_occupancy
  Li  Li0  2  0.24666000  0.25168000  0.03677000  1.0
  Li  Li1  2  0.25000000  0.24999000  0.86949000  1.0
  Li  Li2  1  0.69745000  0.00000000  0.13117000  1.0
  Li  Li3  1  0.75000000  0.00000000  0.95650000  1.0
  Li  Li4  1  0.75000000  0.50000000  0.95650000  1.0
  Li  Li5  1  0.77980000  0.50000000  0.12035000  1.0
  Y  Y6  2  0.75000000  0.24999000  0.86949000  1.0
  Y  Y7  2  0.76024000  0.24712000  0.04564000  1.0
  Y  Y8  1  0.18618000  0.00000000  0.13303000  1.0
  Y  Y9  1  0.25000000  0.00000000  0.95650000  1.0
  Y  Y10  1  0.25000000  0.50000000  0.95650000  1.0
  Y  Y11  1  0.38304000  0.50000000  0.16343000  1.0
  Cu  Cu12  2  0.44124000  0.23725000  0.11682000  1.0
  Cu  Cu13  2  0.50000000  0.25001000  0.95650000  1.0
  Cu  Cu14  1  0.00000000  0.50000000  0.86949000  1.0
  Cu  Cu15  1  0.00000000  0.00000000  0.86949000  1.0
  Cu  Cu16  1  0.00533000  0.00000000  0.04150000  1.0
  Cu  Cu17  1  0.11054000  0.50000000  0.06879000  1.0
  Ge  Ge18  2  0.00000000  0.24999000  0.95650000  1.0
  Ge  Ge19  2  0.04639000  0.29639000  0.13266000  1.0
  Ge  Ge20  1  0.46845000  0.00000000  0.05224000  1.0
  Ge  Ge21  1  0.48606000  0.50000000  0.05427000  1.0
  Ge  Ge22  1  0.50000000  0.00000000  0.86949000  1.0
  Ge  Ge23  1  0.50000000  0.50000000  0.86949000  1.0
  C  C24  1  0.05748000  0.50000000  0.15026000  1.0
