data_image0
_chemical_formula_structural       Fe4Co8Si4CO
_chemical_formula_sum              "Fe4 Co8 Si4 C1 O1"
_cell_length_a       5.64511
_cell_length_b       5.64511
_cell_length_c       24.2338
_cell_angle_alpha    90
_cell_angle_beta     90
_cell_angle_gamma    90

_space_group_name_H-M_alt    "P 1"
_space_group_IT_number       1

loop_
  _space_group_symop_operation_xyz
  'x, y, z'

loop_
  _atom_site_type_symbol
  _atom_site_label
  _atom_site_symmetry_multiplicity
  _atom_site_fract_x
  _atom_site_fract_y
  _atom_site_fract_z
  _atom_site_occupancy
  Fe  Fe1       1.0  0.00000  0.00000  0.08735  1.0000
  Fe  Fe2       1.0  0.50000  0.50000  0.08735  1.0000
  Fe  Fe3       1.0  0.50000  0.00000  0.97088  1.0000
  Fe  Fe4       1.0  0.00000  0.50000  0.97088  1.0000
  Co  Co1       1.0  0.25000  0.25000  0.02912  1.0000
  Co  Co2       1.0  0.75000  0.75000  0.91265  1.0000
  Co  Co3       1.0  0.75000  0.25000  0.02912  1.0000
  Co  Co4       1.0  0.25000  0.75000  0.91265  1.0000
  Co  Co5       1.0  0.75000  0.75000  0.02912  1.0000
  Co  Co6       1.0  0.25000  0.25000  0.91265  1.0000
  Co  Co7       1.0  0.25000  0.75000  0.02912  1.0000
  Co  Co8       1.0  0.75000  0.25000  0.91265  1.0000
  Si  Si1       1.0  0.00000  0.00000  0.97088  1.0000
  Si  Si2       1.0  0.50000  0.00000  0.08735  1.0000
  Si  Si3       1.0  0.00000  0.50000  0.08735  1.0000
  Si  Si4       1.0  0.50000  0.50000  0.97088  1.0000
  C   C1        1.0  0.00000  0.50000  0.16576  1.0000
  O   O1        1.0  0.00000  0.50000  0.21321  1.0000
