# generated using pymatgen
data_V8Co16Sn8C
_symmetry_space_group_name_H-M   Pm
_cell_length_a   8.54677000
_cell_length_b   6.04348000
_cell_length_c   26.41010000
_cell_angle_alpha   90.00000000
_cell_angle_beta   90.00000000
_cell_angle_gamma   90.00000000
_symmetry_Int_Tables_number   6
_chemical_formula_structural   V8Co16Sn8C
_chemical_formula_sum   'V8 Co16 Sn8 C1'
_cell_volume   1364.14065353
_cell_formula_units_Z   1
loop_
 _symmetry_equiv_pos_site_id
 _symmetry_equiv_pos_as_xyz
  1  'x, y, z'
  2  'x, -y, z'
loop_
 _atom_site_type_symbol
 _atom_site_label
 _atom_site_symmetry_multiplicity
 _atom_site_fract_x
 _atom_site_fract_y
 _atom_site_fract_z
 _atom_site_occupancy
  V  V0  1  0.00000000  0.00000000  0.87864000  1.0
  V  V1  1  0.00001000  0.00000000  0.04176000  1.0
  V  V2  1  0.23048000  0.50000000  0.12359000  1.0
  V  V3  1  0.25000000  0.50000000  0.95955000  1.0
  V  V4  1  0.49999000  0.00000000  0.04702000  1.0
  V  V5  1  0.50000000  0.00000000  0.87864000  1.0
  V  V6  1  0.75000000  0.50000000  0.95955000  1.0
  V  V7  1  0.76951000  0.50000000  0.12359000  1.0
  Co  Co8  2  0.00000000  0.25000000  0.95955000  1.0
  Co  Co9  2  0.24693000  0.24583000  0.04038000  1.0
  Co  Co10  2  0.25000000  0.25000000  0.87864000  1.0
  Co  Co11  2  0.50000000  0.25000000  0.95955000  1.0
  Co  Co12  2  0.50006000  0.25799000  0.11354000  1.0
  Co  Co13  2  0.75000000  0.25000000  0.87864000  1.0
  Co  Co14  2  0.75307000  0.24588000  0.04038000  1.0
  Co  Co15  2  0.99996000  0.20831000  0.11465000  1.0
  Sn  Sn16  1  0.00000000  0.50000000  0.87864000  1.0
  Sn  Sn17  1  0.25000000  0.00000000  0.95955000  1.0
  Sn  Sn18  1  0.25758000  0.00000000  0.13365000  1.0
  Sn  Sn19  1  0.50000000  0.50000000  0.87864000  1.0
  Sn  Sn20  1  0.50001000  0.50000000  0.04032000  1.0
  Sn  Sn21  1  0.74241000  0.00000000  0.13365000  1.0
  Sn  Sn22  1  0.75000000  0.00000000  0.95955000  1.0
  Sn  Sn23  1  0.99999000  0.50000000  0.04079000  1.0
  C  C24  1  0.00000000  0.50000000  0.14356000  1.0
