# generated using pymatgen
data_ScIr
_symmetry_space_group_name_H-M   'P 1'
_cell_length_a   3.23415000
_cell_length_b   3.23415000
_cell_length_c   24.85120000
_cell_angle_alpha   90.00000000
_cell_angle_beta   90.00000000
_cell_angle_gamma   90.00000000
_symmetry_Int_Tables_number   1
_chemical_formula_structural   ScIr
_chemical_formula_sum   'Sc2 Ir2'
_cell_volume   259.93674830
_cell_formula_units_Z   2
loop_
 _symmetry_equiv_pos_site_id
 _symmetry_equiv_pos_as_xyz
  1  'x, y, z'
loop_
 _atom_site_type_symbol
 _atom_site_label
 _atom_site_symmetry_multiplicity
 _atom_site_fract_x
 _atom_site_fract_y
 _atom_site_fract_z
 _atom_site_occupancy
  Sc  Sc0  1  0.00000000  0.00000000  0.07740000  1.0
  Sc  Sc1  1  0.00000000  0.00000000  0.94726000  1.0
  Ir  Ir2  1  0.50000000  0.50000000  0.01233000  1.0
  Ir  Ir3  1  0.50000000  0.50000000  0.88219000  1.0
