# generated using pymatgen
data_Ni12Pt4C
_symmetry_space_group_name_H-M   P1
_cell_length_a   5.20155000
_cell_length_b   7.35611000
_cell_length_c   23.90120000
_cell_angle_alpha   90.00000000
_cell_angle_beta   90.00000000
_cell_angle_gamma   90.00000000
_symmetry_Int_Tables_number   1
_chemical_formula_structural   Ni12Pt4C
_chemical_formula_sum   'Ni12 Pt4 C1'
_cell_volume   914.53577370
_cell_formula_units_Z   1
loop_
 _symmetry_equiv_pos_site_id
 _symmetry_equiv_pos_as_xyz
  1  'x, y, z'
loop_
 _atom_site_type_symbol
 _atom_site_label
 _atom_site_symmetry_multiplicity
 _atom_site_fract_x
 _atom_site_fract_y
 _atom_site_fract_z
 _atom_site_occupancy
  Ni  Ni0  1  0.00000000  0.00000000  0.02720000  1.0
  Ni  Ni1  1  0.00000000  0.50000000  0.02720000  1.0
  Ni  Ni2  1  0.24374000  0.75005000  0.97969000  1.0
  Ni  Ni3  1  0.24677000  0.24995000  0.96832000  1.0
  Ni  Ni4  1  0.25000000  0.25000000  0.08161000  1.0
  Ni  Ni5  1  0.25000000  0.75000000  0.08161000  1.0
  Ni  Ni6  1  0.50124000  0.56420000  0.91281000  1.0
  Ni  Ni7  1  0.50126000  0.93568000  0.91271000  1.0
  Ni  Ni8  1  0.75000000  0.25000000  0.08161000  1.0
  Ni  Ni9  1  0.75000000  0.75000000  0.08161000  1.0
  Ni  Ni10  1  0.75379000  0.24994000  0.96787000  1.0
  Ni  Ni11  1  0.75745000  0.75005000  0.98008000  1.0
  Pt  Pt12  1  0.50000000  -0.00000000  0.02720000  1.0
  Pt  Pt13  1  0.50000000  0.50000000  0.02720000  1.0
  Pt  Pt14  1  0.99983000  0.97710000  0.91490000  1.0
  Pt  Pt15  1  0.99984000  0.52292000  0.91489000  1.0
  C  C16  1  0.75576000  0.74998000  0.90225000  1.0
