# generated using pymatgen
data_Li4Y4Sn4Pb4C
_symmetry_space_group_name_H-M   'P 1'
_cell_length_a   8.87168000
_cell_length_b   6.72279000
_cell_length_c   25.04000000
_cell_angle_alpha   90.00000000
_cell_angle_beta   90.00000000
_cell_angle_gamma   90.00000000
_symmetry_Int_Tables_number   1
_chemical_formula_structural   Li4Y4Sn4Pb4C
_chemical_formula_sum   'Li4 Y4 Sn4 Pb4 C1'
_cell_volume   1493.44673734
_cell_formula_units_Z   1
loop_
 _symmetry_equiv_pos_site_id
 _symmetry_equiv_pos_as_xyz
  1  'x, y, z'
loop_
 _atom_site_type_symbol
 _atom_site_label
 _atom_site_symmetry_multiplicity
 _atom_site_fract_x
 _atom_site_fract_y
 _atom_site_fract_z
 _atom_site_occupancy
  Li  Li0  1  0.65980000  0.04474000  0.10241000  1.0
  Li  Li1  1  0.75000000  0.51453000  0.96645000  1.0
  Li  Li2  1  0.34020000  0.04474000  0.10241000  1.0
  Li  Li3  1  0.25000000  0.51453000  0.96645000  1.0
  Y  Y4  1  0.71242000  0.48468000  0.09683000  1.0
  Y  Y5  1  0.75000000  0.01453000  0.96645000  1.0
  Y  Y6  1  0.28758000  0.48468000  0.09683000  1.0
  Y  Y7  1  0.25000000  0.01453000  0.96645000  1.0
  Sn  Sn8  1  0.50000000  0.27326000  0.02029000  1.0
  Sn  Sn9  1  0.50000000  0.77180000  0.89936000  1.0
  Sn  Sn10  1  0.00000000  0.21638000  0.05180000  1.0
  Sn  Sn11  1  0.00000000  0.77180000  0.89936000  1.0
  Pb  Pb12  1  0.50000000  0.76536000  0.02896000  1.0
  Pb  Pb13  1  0.50000000  0.27180000  0.89936000  1.0
  Pb  Pb14  1  0.00000000  0.72921000  0.02944000  1.0
  Pb  Pb15  1  0.00000000  0.27180000  0.89936000  1.0
  C  C16  1  0.50000000  0.30056000  0.11242000  1.0
