# generated using pymatgen
data_Sc8In8Ag16CO
_symmetry_space_group_name_H-M   'P 1'
_cell_length_a   9.69405000
_cell_length_b   6.85473000
_cell_length_c   27.27050000
_cell_angle_alpha   90.00000000
_cell_angle_beta   90.00000000
_cell_angle_gamma   90.00000000
_symmetry_Int_Tables_number   1
_chemical_formula_structural   Sc8In8Ag16CO
_chemical_formula_sum   'Sc8 In8 Ag16 C1 O1'
_cell_volume   1812.12732542
_cell_formula_units_Z   1
loop_
 _symmetry_equiv_pos_site_id
 _symmetry_equiv_pos_as_xyz
  1  'x, y, z'
loop_
 _atom_site_type_symbol
 _atom_site_label
 _atom_site_symmetry_multiplicity
 _atom_site_fract_x
 _atom_site_fract_y
 _atom_site_fract_z
 _atom_site_occupancy
  Sc  Sc0  1  0.00000000  0.00000000  0.13330000  1.0
  Sc  Sc1  1  0.24998000  0.50000000  0.04443000  1.0
  Sc  Sc2  1  0.75002000  0.50000000  0.04443000  1.0
  Sc  Sc3  1  0.50000000  0.00000000  0.13330000  1.0
  Sc  Sc4  1  0.50000000  0.99439000  0.95161000  1.0
  Sc  Sc5  1  0.75509000  0.50001000  0.87069000  1.0
  Sc  Sc6  1  0.24491000  0.50001000  0.87069000  1.0
  Sc  Sc7  1  0.00000000  0.00710000  0.95322000  1.0
  In  In8  1  0.74998000  0.00000000  0.04443000  1.0
  In  In9  1  0.00000000  0.50000000  0.13330000  1.0
  In  In10  1  0.25002000  0.00000000  0.04443000  1.0
  In  In11  1  0.50000000  0.50000000  0.13330000  1.0
  In  In12  1  0.26154000  0.99396000  0.86480000  1.0
  In  In13  1  0.50000000  0.50342000  0.95662000  1.0
  In  In14  1  0.73846000  0.99396000  0.86480000  1.0
  In  In15  1  0.00000000  0.49434000  0.95221000  1.0
  Ag  Ag16  1  0.00000000  0.25000000  0.04443000  1.0
  Ag  Ag17  1  0.50000000  0.75000000  0.04443000  1.0
  Ag  Ag18  1  0.00000000  0.75000000  0.04443000  1.0
  Ag  Ag19  1  0.50000000  0.25000000  0.04443000  1.0
  Ag  Ag20  1  0.74998000  0.75000000  0.13330000  1.0
  Ag  Ag21  1  0.24998000  0.25000000  0.13330000  1.0
  Ag  Ag22  1  0.75002000  0.25000000  0.13330000  1.0
  Ag  Ag23  1  0.25002000  0.75000000  0.13330000  1.0
  Ag  Ag24  1  0.50000000  0.27097000  0.86357000  1.0
  Ag  Ag25  1  0.00000000  0.76614000  0.86364000  1.0
  Ag  Ag26  1  0.50000000  0.72336000  0.86069000  1.0
  Ag  Ag27  1  0.00000000  0.21963000  0.85891000  1.0
  Ag  Ag28  1  0.24751000  0.75198000  0.95668000  1.0
  Ag  Ag29  1  0.74555000  0.24673000  0.95605000  1.0
  Ag  Ag30  1  0.25445000  0.24673000  0.95605000  1.0
  Ag  Ag31  1  0.75249000  0.75198000  0.95668000  1.0
  C  C32  1  0.00000000  0.29215000  0.78003000  1.0
  O  O33  1  0.00000000  0.26808000  0.73841000  1.0
