# generated using pymatgen
data_Sc8In8Ag16CO
_symmetry_space_group_name_H-M   Pm
_cell_length_a   6.85473000
_cell_length_b   9.69405000
_cell_length_c   27.27050000
_cell_angle_alpha   90.00000000
_cell_angle_beta   90.00000000
_cell_angle_gamma   90.00000000
_symmetry_Int_Tables_number   6
_chemical_formula_structural   Sc8In8Ag16CO
_chemical_formula_sum   'Sc8 In8 Ag16 C1 O1'
_cell_volume   1812.12732542
_cell_formula_units_Z   1
loop_
 _symmetry_equiv_pos_site_id
 _symmetry_equiv_pos_as_xyz
  1  'x, y, z'
  2  'x, -y, z'
loop_
 _atom_site_type_symbol
 _atom_site_label
 _atom_site_symmetry_multiplicity
 _atom_site_fract_x
 _atom_site_fract_y
 _atom_site_fract_z
 _atom_site_occupancy
  Sc  Sc0  2  0.50000000  0.24998000  0.95557000  1.0
  Sc  Sc1  2  0.50001000  0.24491000  0.12931000  1.0
  Sc  Sc2  1  0.00000000  0.00000000  0.86670000  1.0
  Sc  Sc3  1  0.00000000  0.50000000  0.86670000  1.0
  Sc  Sc4  1  0.00710000  0.00000000  0.04678000  1.0
  Sc  Sc5  1  0.99439000  0.50000000  0.04839000  1.0
  In  In6  2  0.00000000  0.25002000  0.95557000  1.0
  In  In7  2  0.99396000  0.26154000  0.13520000  1.0
  In  In8  1  0.49434000  0.00000000  0.04779000  1.0
  In  In9  1  0.50000000  0.00000000  0.86670000  1.0
  In  In10  1  0.50000000  0.50000000  0.86670000  1.0
  In  In11  1  0.50342000  0.50000000  0.04338000  1.0
  Ag  Ag12  2  0.24673000  0.25445000  0.04395000  1.0
  Ag  Ag13  2  0.25000000  0.24998000  0.86670000  1.0
  Ag  Ag14  2  0.75000000  0.25002000  0.86670000  1.0
  Ag  Ag15  2  0.75198000  0.24751000  0.04332000  1.0
  Ag  Ag16  1  0.21963000  0.00000000  0.14109000  1.0
  Ag  Ag17  1  0.25000000  0.00000000  0.95557000  1.0
  Ag  Ag18  1  0.25000000  0.50000000  0.95557000  1.0
  Ag  Ag19  1  0.27097000  0.50000000  0.13643000  1.0
  Ag  Ag20  1  0.72336000  0.50000000  0.13931000  1.0
  Ag  Ag21  1  0.75000000  0.00000000  0.95557000  1.0
  Ag  Ag22  1  0.75000000  0.50000000  0.95557000  1.0
  Ag  Ag23  1  0.76614000  0.00000000  0.13636000  1.0
  C  C24  1  0.29215000  0.00000000  0.21997000  1.0
  O  O25  1  0.26808000  0.00000000  0.26159000  1.0
