# generated using pymatgen
data_LiYInPb
_symmetry_space_group_name_H-M   Pm
_cell_length_a   6.51578000
_cell_length_b   4.66446000
_cell_length_c   24.88170000
_cell_angle_alpha   90.00000000
_cell_angle_beta   90.00000000
_cell_angle_gamma   90.00000000
_symmetry_Int_Tables_number   6
_chemical_formula_structural   LiYInPb
_chemical_formula_sum   'Li2 Y2 In2 Pb2'
_cell_volume   756.21943546
_cell_formula_units_Z   2
loop_
 _symmetry_equiv_pos_site_id
 _symmetry_equiv_pos_as_xyz
  1  'x, y, z'
  2  'x, -y, z'
loop_
 _atom_site_type_symbol
 _atom_site_label
 _atom_site_symmetry_multiplicity
 _atom_site_fract_x
 _atom_site_fract_y
 _atom_site_fract_z
 _atom_site_occupancy
  Li  Li0  1  0.35385500  0.50000000  0.90164500  1.0
  Li  Li1  1  0.76145000  0.50000000  0.03270000  1.0
  Y  Y2  1  0.06055000  0.00000000  0.96406000  1.0
  Y  Y3  1  0.50000000  0.00000000  0.09810000  1.0
  In  In4  1  -0.00000000  0.00000000  0.09810000  1.0
  In  In5  1  0.56767500  0.00000000  0.95807000  1.0
  Pb  Pb6  1  0.26145000  0.50000000  0.03270000  1.0
  Pb  Pb7  1  0.81896000  0.50000000  0.90078500  1.0
