# generated using pymatgen
data_Zr12Al4C
_symmetry_space_group_name_H-M   Pmm2
_cell_length_a   6.19807000
_cell_length_b   8.76540000
_cell_length_c   24.64860000
_cell_angle_alpha   90.00000000
_cell_angle_beta   90.00000000
_cell_angle_gamma   90.00000000
_symmetry_Int_Tables_number   25
_chemical_formula_structural   Zr12Al4C
_chemical_formula_sum   'Zr12 Al4 C1'
_cell_volume   1339.12301249
_cell_formula_units_Z   1
loop_
 _symmetry_equiv_pos_site_id
 _symmetry_equiv_pos_as_xyz
  1  'x, y, z'
  2  '-x, -y, z'
  3  '-x, y, z'
  4  'x, -y, z'
loop_
 _atom_site_type_symbol
 _atom_site_label
 _atom_site_symmetry_multiplicity
 _atom_site_fract_x
 _atom_site_fract_y
 _atom_site_fract_z
 _atom_site_occupancy
  Zr  Zr0  4  0.24846000  0.19184000  0.90337000  1.0
  Zr  Zr1  4  0.25000000  0.25000000  0.03143000  1.0
  Zr  Zr2  1  0.00000000  0.00000000  0.98448000  1.0
  Zr  Zr3  1  0.00000000  0.50000000  0.96677000  1.0
  Zr  Zr4  1  0.50000000  0.00000000  0.09430000  1.0
  Zr  Zr5  1  0.50000000  0.50000000  0.09430000  1.0
  Al  Al6  1  0.00000000  0.00000000  0.09430000  1.0
  Al  Al7  1  0.00000000  0.50000000  0.09430000  1.0
  Al  Al8  1  0.50000000  0.00000000  0.97813000  1.0
  Al  Al9  1  0.50000000  0.50000000  0.96576000  1.0
  C  C10  1  0.00000000  0.00000000  0.89117000  1.0
