data_image0
_chemical_formula_structural       Li8Mg8Ga8Pt8C
_chemical_formula_sum              "Li8 Mg8 Ga8 Pt8 C1"
_cell_length_a       6.262
_cell_length_b       8.8558
_cell_length_c       26.6419
_cell_angle_alpha    90
_cell_angle_beta     90
_cell_angle_gamma    90

_space_group_name_H-M_alt    "P 1"
_space_group_IT_number       1

loop_
  _space_group_symop_operation_xyz
  'x, y, z'

loop_
  _atom_site_type_symbol
  _atom_site_label
  _atom_site_symmetry_multiplicity
  _atom_site_fract_x
  _atom_site_fract_y
  _atom_site_fract_z
  _atom_site_occupancy
  Li  Li1       1.0  0.25000  0.00000  0.95845  1.0000
  Li  Li2       1.0  0.25000  0.50000  0.95845  1.0000
  Li  Li3       1.0  0.75000  0.25000  0.87535  1.0000
  Li  Li4       1.0  0.75000  0.75000  0.87535  1.0000
  Li  Li5       1.0  0.29375  0.52374  0.13795  1.0000
  Li  Li6       1.0  0.29374  0.97626  0.13795  1.0000
  Li  Li7       1.0  0.75600  0.75000  0.03831  1.0000
  Li  Li8       1.0  0.74523  0.25000  0.05112  1.0000
  Mg  Mg1       1.0  0.00000  0.25000  0.95845  1.0000
  Mg  Mg2       1.0  0.00000  0.75000  0.95845  1.0000
  Mg  Mg3       1.0  0.50000  0.50000  0.87535  1.0000
  Mg  Mg4       1.0  0.50000  0.00000  0.87535  1.0000
  Mg  Mg5       1.0  0.97393  0.75000  0.12607  1.0000
  Mg  Mg6       1.0  0.06169  0.25001  0.12675  1.0000
  Mg  Mg7       1.0  0.49328  0.99821  0.04165  1.0000
  Mg  Mg8       1.0  0.49327  0.50180  0.04165  1.0000
  Ga  Ga1       1.0  0.00000  0.00000  0.87535  1.0000
  Ga  Ga2       1.0  0.00000  0.50000  0.87535  1.0000
  Ga  Ga3       1.0  0.50000  0.75000  0.95845  1.0000
  Ga  Ga4       1.0  0.50000  0.25000  0.95845  1.0000
  Ga  Ga5       1.0  0.00450  0.49845  0.04478  1.0000
  Ga  Ga6       1.0  0.00450  0.00155  0.04478  1.0000
  Ga  Ga7       1.0  0.44789  0.25000  0.16236  1.0000
  Ga  Ga8       1.0  0.54176  0.75000  0.12258  1.0000
  Pt  Pt1       1.0  0.75000  0.00000  0.95845  1.0000
  Pt  Pt2       1.0  0.75000  0.50000  0.95845  1.0000
  Pt  Pt3       1.0  0.25000  0.25000  0.87535  1.0000
  Pt  Pt4       1.0  0.25000  0.75000  0.87535  1.0000
  Pt  Pt5       1.0  0.73769  0.47990  0.12129  1.0000
  Pt  Pt6       1.0  0.73770  0.02010  0.12129  1.0000
  Pt  Pt7       1.0  0.24371  0.75000  0.04375  1.0000
  Pt  Pt8       1.0  0.24822  0.25000  0.03534  1.0000
  C   C1        1.0  0.73495  0.25000  0.13820  1.0000
