# generated using pymatgen
data_Li8Mg8Ga8Pt8C
_symmetry_space_group_name_H-M   'P 1'
_cell_length_a   8.85580000
_cell_length_b   6.26200000
_cell_length_c   26.64190000
_cell_angle_alpha   90.00000000
_cell_angle_beta   90.00000000
_cell_angle_gamma   90.00000000
_symmetry_Int_Tables_number   1
_chemical_formula_structural   Li8Mg8Ga8Pt8C
_chemical_formula_sum   'Li8 Mg8 Ga8 Pt8 C1'
_cell_volume   1477.42708668
_cell_formula_units_Z   1
loop_
 _symmetry_equiv_pos_site_id
 _symmetry_equiv_pos_as_xyz
  1  'x, y, z'
loop_
 _atom_site_type_symbol
 _atom_site_label
 _atom_site_symmetry_multiplicity
 _atom_site_fract_x
 _atom_site_fract_y
 _atom_site_fract_z
 _atom_site_occupancy
  Li  Li0  1  0.75000000  0.25000000  0.04155000  1.0
  Li  Li1  1  0.25000000  0.25000000  0.04155000  1.0
  Li  Li2  1  0.00000000  0.75000000  0.12465000  1.0
  Li  Li3  1  0.50000000  0.75000000  0.12465000  1.0
  Li  Li4  1  0.27374000  0.29375000  0.86205000  1.0
  Li  Li5  1  0.72626000  0.29375000  0.86205000  1.0
  Li  Li6  1  0.50000000  0.75600000  0.96169000  1.0
  Li  Li7  1  0.00000000  0.74523000  0.94888000  1.0
  Mg  Mg8  1  0.00000000  0.00000000  0.04155000  1.0
  Mg  Mg9  1  0.50000000  0.00000000  0.04155000  1.0
  Mg  Mg10  1  0.25000000  0.50000000  0.12465000  1.0
  Mg  Mg11  1  0.75000000  0.50000000  0.12465000  1.0
  Mg  Mg12  1  0.50000000  0.97393000  0.87393000  1.0
  Mg  Mg13  1  0.00000000  0.06169000  0.87325000  1.0
  Mg  Mg14  1  0.74821000  0.49328000  0.95835000  1.0
  Mg  Mg15  1  0.25179000  0.49328000  0.95835000  1.0
  Ga  Ga16  1  0.75000000  0.00000000  0.12465000  1.0
  Ga  Ga17  1  0.25000000  0.00000000  0.12465000  1.0
  Ga  Ga18  1  0.50000000  0.50000000  0.04155000  1.0
  Ga  Ga19  1  0.00000000  0.50000000  0.04155000  1.0
  Ga  Ga20  1  0.24845000  0.00450000  0.95522000  1.0
  Ga  Ga21  1  0.75155000  0.00450000  0.95522000  1.0
  Ga  Ga22  1  0.00000000  0.44789000  0.83764000  1.0
  Ga  Ga23  1  0.50000000  0.54176000  0.87742000  1.0
  Pt  Pt24  1  0.75000000  0.75000000  0.04155000  1.0
  Pt  Pt25  1  0.25000000  0.75000000  0.04155000  1.0
  Pt  Pt26  1  0.00000000  0.25000000  0.12465000  1.0
  Pt  Pt27  1  0.50000000  0.25000000  0.12465000  1.0
  Pt  Pt28  1  0.22990000  0.73769000  0.87871000  1.0
  Pt  Pt29  1  0.77010000  0.73769000  0.87871000  1.0
  Pt  Pt30  1  0.50000000  0.24371000  0.95625000  1.0
  Pt  Pt31  1  0.00000000  0.24822000  0.96466000  1.0
  C  C32  1  0.00000000  0.73495000  0.86180000  1.0
