# generated using pymatgen
data_Li8Mg8Ga8Pt8C
_symmetry_space_group_name_H-M   Pm
_cell_length_a   6.26200000
_cell_length_b   8.85580000
_cell_length_c   26.64190000
_cell_angle_alpha   90.00000000
_cell_angle_beta   90.00000000
_cell_angle_gamma   90.00000000
_symmetry_Int_Tables_number   6
_chemical_formula_structural   Li8Mg8Ga8Pt8C
_chemical_formula_sum   'Li8 Mg8 Ga8 Pt8 C1'
_cell_volume   1477.42708668
_cell_formula_units_Z   1
loop_
 _symmetry_equiv_pos_site_id
 _symmetry_equiv_pos_as_xyz
  1  'x, y, z'
  2  'x, -y, z'
loop_
 _atom_site_type_symbol
 _atom_site_label
 _atom_site_symmetry_multiplicity
 _atom_site_fract_x
 _atom_site_fract_y
 _atom_site_fract_z
 _atom_site_occupancy
  Li  Li0  2  0.25000000  0.25000000  0.95845000  1.0
  Li  Li1  2  0.29375000  0.27374000  0.13795000  1.0
  Li  Li2  1  0.74523000  0.00000000  0.05112000  1.0
  Li  Li3  1  0.75000000  0.00000000  0.87535000  1.0
  Li  Li4  1  0.75000000  0.50000000  0.87535000  1.0
  Li  Li5  1  0.75600000  0.50000000  0.03831000  1.0
  Mg  Mg6  2  0.49328000  0.25179000  0.04165000  1.0
  Mg  Mg7  2  0.50000000  0.25000000  0.87535000  1.0
  Mg  Mg8  1  0.00000000  0.00000000  0.95845000  1.0
  Mg  Mg9  1  0.00000000  0.50000000  0.95845000  1.0
  Mg  Mg10  1  0.06169000  0.00000000  0.12675000  1.0
  Mg  Mg11  1  0.97393000  0.50000000  0.12607000  1.0
  Ga  Ga12  2  0.00000000  0.25000000  0.87535000  1.0
  Ga  Ga13  2  0.00450000  0.24845000  0.04478000  1.0
  Ga  Ga14  1  0.44789000  0.00000000  0.16236000  1.0
  Ga  Ga15  1  0.50000000  0.00000000  0.95845000  1.0
  Ga  Ga16  1  0.50000000  0.50000000  0.95845000  1.0
  Ga  Ga17  1  0.54176000  0.50000000  0.12258000  1.0
  Pt  Pt18  2  0.73769000  0.22990000  0.12129000  1.0
  Pt  Pt19  2  0.75000000  0.25000000  0.95845000  1.0
  Pt  Pt20  1  0.24371000  0.50000000  0.04375000  1.0
  Pt  Pt21  1  0.24822000  0.00000000  0.03534000  1.0
  Pt  Pt22  1  0.25000000  0.00000000  0.87535000  1.0
  Pt  Pt23  1  0.25000000  0.50000000  0.87535000  1.0
  C  C24  1  0.73495000  0.00000000  0.13820000  1.0
