# generated using pymatgen
data_Ti8Al8Cu16C
_symmetry_space_group_name_H-M   'P 1'
_cell_length_a   8.56849000
_cell_length_b   6.05884000
_cell_length_c   26.42640000
_cell_angle_alpha   90.00000000
_cell_angle_beta   90.00000000
_cell_angle_gamma   90.00000000
_symmetry_Int_Tables_number   1
_chemical_formula_structural   Ti8Al8Cu16C
_chemical_formula_sum   'Ti8 Al8 Cu16 C1'
_cell_volume   1371.92946162
_cell_formula_units_Z   1
loop_
 _symmetry_equiv_pos_site_id
 _symmetry_equiv_pos_as_xyz
  1  'x, y, z'
loop_
 _atom_site_type_symbol
 _atom_site_label
 _atom_site_symmetry_multiplicity
 _atom_site_fract_x
 _atom_site_fract_y
 _atom_site_fract_z
 _atom_site_occupancy
  Ti  Ti0  1  0.00000000  0.00000000  0.12159000  1.0
  Ti  Ti1  1  0.25000000  0.50000000  0.04053000  1.0
  Ti  Ti2  1  0.75000000  0.50000000  0.04053000  1.0
  Ti  Ti3  1  0.50000000  0.00000000  0.12159000  1.0
  Ti  Ti4  1  0.50001000  0.00000000  0.95453000  1.0
  Ti  Ti5  1  0.73966000  0.50000000  0.88400000  1.0
  Ti  Ti6  1  0.26027000  0.50000000  0.88402000  1.0
  Ti  Ti7  1  0.00000000  0.00000000  0.95310000  1.0
  Al  Al8  1  0.75000000  0.00000000  0.04053000  1.0
  Al  Al9  1  0.00000000  0.50000000  0.12159000  1.0
  Al  Al10  1  0.25000000  0.00000000  0.04053000  1.0
  Al  Al11  1  0.50000000  0.50000000  0.12159000  1.0
  Al  Al12  1  0.24163000  0.00000000  0.87569000  1.0
  Al  Al13  1  0.49996000  0.50000000  0.95948000  1.0
  Al  Al14  1  0.75850000  0.00000000  0.87567000  1.0
  Al  Al15  1  0.00001000  0.50000000  0.95881000  1.0
  Cu  Cu16  1  0.00000000  0.75000000  0.04053000  1.0
  Cu  Cu17  1  0.50000000  0.25000000  0.04053000  1.0
  Cu  Cu18  1  0.00000000  0.25000000  0.04053000  1.0
  Cu  Cu19  1  0.50000000  0.75000000  0.04053000  1.0
  Cu  Cu20  1  0.75000000  0.25000000  0.12159000  1.0
  Cu  Cu21  1  0.25000000  0.75000000  0.12159000  1.0
  Cu  Cu22  1  0.75000000  0.75000000  0.12159000  1.0
  Cu  Cu23  1  0.25000000  0.25000000  0.12159000  1.0
  Cu  Cu24  1  0.50016000  0.75988000  0.87137000  1.0
  Cu  Cu25  1  0.99979000  0.30448000  0.86410000  1.0
  Cu  Cu26  1  0.50016000  0.24012000  0.87137000  1.0
  Cu  Cu27  1  0.99979000  0.69552000  0.86410000  1.0
  Cu  Cu28  1  0.25194000  0.24381000  0.96210000  1.0
  Cu  Cu29  1  0.74805000  0.75605000  0.96207000  1.0
  Cu  Cu30  1  0.25194000  0.75619000  0.96210000  1.0
  Cu  Cu31  1  0.74805000  0.24395000  0.96207000  1.0
  C  C32  1  0.00012000  0.00000000  0.87507000  1.0
