# generated using pymatgen
data_Ti8Al8Cu16C
_symmetry_space_group_name_H-M   Pm
_cell_length_a   8.56849000
_cell_length_b   6.05884000
_cell_length_c   26.42640000
_cell_angle_alpha   90.00000000
_cell_angle_beta   90.00000000
_cell_angle_gamma   90.00000000
_symmetry_Int_Tables_number   6
_chemical_formula_structural   Ti8Al8Cu16C
_chemical_formula_sum   'Ti8 Al8 Cu16 C1'
_cell_volume   1371.92946162
_cell_formula_units_Z   1
loop_
 _symmetry_equiv_pos_site_id
 _symmetry_equiv_pos_as_xyz
  1  'x, y, z'
  2  'x, -y, z'
loop_
 _atom_site_type_symbol
 _atom_site_label
 _atom_site_symmetry_multiplicity
 _atom_site_fract_x
 _atom_site_fract_y
 _atom_site_fract_z
 _atom_site_occupancy
  Ti  Ti0  1  0.00000000  0.00000000  0.04690000  1.0
  Ti  Ti1  1  0.00000000  0.00000000  0.87841000  1.0
  Ti  Ti2  1  0.25000000  0.50000000  0.95947000  1.0
  Ti  Ti3  1  0.26027000  0.50000000  0.11598000  1.0
  Ti  Ti4  1  0.50000000  0.00000000  0.87841000  1.0
  Ti  Ti5  1  0.50001000  0.00000000  0.04547000  1.0
  Ti  Ti6  1  0.73966000  0.50000000  0.11600000  1.0
  Ti  Ti7  1  0.75000000  0.50000000  0.95947000  1.0
  Al  Al8  1  0.00000000  0.50000000  0.87841000  1.0
  Al  Al9  1  0.00001000  0.50000000  0.04119000  1.0
  Al  Al10  1  0.24163000  0.00000000  0.12431000  1.0
  Al  Al11  1  0.25000000  0.00000000  0.95947000  1.0
  Al  Al12  1  0.49996000  0.50000000  0.04052000  1.0
  Al  Al13  1  0.50000000  0.50000000  0.87841000  1.0
  Al  Al14  1  0.75000000  0.00000000  0.95947000  1.0
  Al  Al15  1  0.75850000  0.00000000  0.12433000  1.0
  Cu  Cu16  2  0.00000000  0.25000000  0.95947000  1.0
  Cu  Cu17  2  0.25000000  0.25000000  0.87841000  1.0
  Cu  Cu18  2  0.25194000  0.24381000  0.03790000  1.0
  Cu  Cu19  2  0.50000000  0.25000000  0.95947000  1.0
  Cu  Cu20  2  0.50016000  0.24012000  0.12863000  1.0
  Cu  Cu21  2  0.74805000  0.24395000  0.03793000  1.0
  Cu  Cu22  2  0.75000000  0.25000000  0.87841000  1.0
  Cu  Cu23  2  0.99979000  0.30448000  0.13590000  1.0
  C  C24  1  0.00012000  0.00000000  0.12493000  1.0
