# generated using pymatgen
data_Li4Al4Ag4Sn4C
_symmetry_space_group_name_H-M   Pm
_cell_length_a   5.95223000
_cell_length_b   8.56020000
_cell_length_c   24.45610000
_cell_angle_alpha   90.00000000
_cell_angle_beta   90.00000000
_cell_angle_gamma   90.00000000
_symmetry_Int_Tables_number   6
_chemical_formula_structural   Li4Al4Ag4Sn4C
_chemical_formula_sum   'Li4 Al4 Ag4 Sn4 C1'
_cell_volume   1246.09403647
_cell_formula_units_Z   1
loop_
 _symmetry_equiv_pos_site_id
 _symmetry_equiv_pos_as_xyz
  1  'x, y, z'
  2  'x, -y, z'
loop_
 _atom_site_type_symbol
 _atom_site_label
 _atom_site_symmetry_multiplicity
 _atom_site_fract_x
 _atom_site_fract_y
 _atom_site_fract_z
 _atom_site_occupancy
  Li  Li0  1  0.19581000  0.50000000  0.03232000  1.0
  Li  Li1  1  0.21699000  0.00000000  0.03264000  1.0
  Li  Li2  1  0.70495000  0.00000000  0.90890000  1.0
  Li  Li3  1  0.70495000  0.50000000  0.90890000  1.0
  Al  Al4  2  0.42913000  0.22086000  0.10321000  1.0
  Al  Al5  2  0.96997000  0.25000000  0.96963000  1.0
  Ag  Ag6  2  0.46997000  0.25000000  0.96963000  1.0
  Ag  Ag7  2  0.99751000  0.26517000  0.08591000  1.0
  Sn  Sn8  1  0.20495000  0.00000000  0.90890000  1.0
  Sn  Sn9  1  0.20495000  0.50000000  0.90890000  1.0
  Sn  Sn10  1  0.66942000  0.50000000  0.05523000  1.0
  Sn  Sn11  1  0.73395000  0.00000000  0.02945000  1.0
  C  C12  1  0.48212000  0.00000000  0.09517000  1.0
