# generated using pymatgen
data_Al8V8Ni16CO
_symmetry_space_group_name_H-M   'P 1'
_cell_length_a   5.81624000
_cell_length_b   8.22541000
_cell_length_c   26.16910000
_cell_angle_alpha   90.00000000
_cell_angle_beta   90.00000000
_cell_angle_gamma   90.00000000
_symmetry_Int_Tables_number   1
_chemical_formula_structural   Al8V8Ni16CO
_chemical_formula_sum   'Al8 V8 Ni16 C1 O1'
_cell_volume   1251.95483123
_cell_formula_units_Z   1
loop_
 _symmetry_equiv_pos_site_id
 _symmetry_equiv_pos_as_xyz
  1  'x, y, z'
loop_
 _atom_site_type_symbol
 _atom_site_label
 _atom_site_symmetry_multiplicity
 _atom_site_fract_x
 _atom_site_fract_y
 _atom_site_fract_z
 _atom_site_occupancy
  Al  Al0  1  0.00000000  0.00000000  0.88213000  1.0
  Al  Al1  1  0.50000000  0.25000000  0.96071000  1.0
  Al  Al2  1  0.50000000  0.75000000  0.96071000  1.0
  Al  Al3  1  1.00000000  0.50000000  0.88213000  1.0
  Al  Al4  1  0.99952000  0.50003000  0.03709000  1.0
  Al  Al5  1  0.50228000  0.74499000  0.12001000  1.0
  Al  Al6  1  0.50229000  0.25471000  0.12004000  1.0
  Al  Al7  1  0.00589000  0.00004000  0.03989000  1.0
  V  V8  1  1.00000000  0.75000000  0.96071000  1.0
  V  V9  1  0.50000000  0.00000000  0.88213000  1.0
  V  V10  1  1.00000000  0.25000000  0.96071000  1.0
  V  V11  1  0.50000000  0.50000000  0.88213000  1.0
  V  V12  1  0.99994000  0.24973000  0.11714000  1.0
  V  V13  1  0.50091000  0.50000000  0.03960000  1.0
  V  V14  1  0.99978000  0.74997000  0.11714000  1.0
  V  V15  1  0.49533000  0.00000000  0.04082000  1.0
  Ni  Ni16  1  0.25000000  0.00000000  0.96071000  1.0
  Ni  Ni17  1  0.75000000  0.50000000  0.96071000  1.0
  Ni  Ni18  1  0.75000000  0.00000000  0.96071000  1.0
  Ni  Ni19  1  0.25000000  0.50000000  0.96071000  1.0
  Ni  Ni20  1  0.75000000  0.75000000  0.88213000  1.0
  Ni  Ni21  1  0.25000000  0.25000000  0.88213000  1.0
  Ni  Ni22  1  0.25000000  0.75000000  0.88213000  1.0
  Ni  Ni23  1  0.75000000  0.25000000  0.88213000  1.0
  Ni  Ni24  1  0.23707000  0.49982000  0.11253000  1.0
  Ni  Ni25  1  0.74739000  0.99992000  0.11255000  1.0
  Ni  Ni26  1  0.76502000  0.49981000  0.11326000  1.0
  Ni  Ni27  1  0.25452000  0.99983000  0.12495000  1.0
  Ni  Ni28  1  0.75076000  0.24923000  0.04059000  1.0
  Ni  Ni29  1  0.24983000  0.74919000  0.04109000  1.0
  Ni  Ni30  1  0.24988000  0.25090000  0.04106000  1.0
  Ni  Ni31  1  0.75081000  0.75092000  0.04055000  1.0
  C  C32  1  0.15504000  0.99980000  0.18878000  1.0
  O  O33  1  0.10901000  0.99989000  0.23200000  1.0
