# generated using pymatgen
data_Be16Ni16CO
_symmetry_space_group_name_H-M   Pmm2
_cell_length_a   5.23991000
_cell_length_b   7.41035000
_cell_length_c   25.55780000
_cell_angle_alpha   90.00000000
_cell_angle_beta   90.00000000
_cell_angle_gamma   90.00000000
_symmetry_Int_Tables_number   25
_chemical_formula_structural   Be16Ni16CO
_chemical_formula_sum   'Be16 Ni16 C1 O1'
_cell_volume   992.39830922
_cell_formula_units_Z   1
loop_
 _symmetry_equiv_pos_site_id
 _symmetry_equiv_pos_as_xyz
  1  'x, y, z'
  2  '-x, -y, z'
  3  '-x, y, z'
  4  'x, -y, z'
loop_
 _atom_site_type_symbol
 _atom_site_label
 _atom_site_symmetry_multiplicity
 _atom_site_fract_x
 _atom_site_fract_y
 _atom_site_fract_z
 _atom_site_occupancy
  Be  Be0  4  0.24998000  0.25000000  0.96376000  1.0
  Be  Be1  4  0.25112000  0.25334000  0.10849000  1.0
  Be  Be2  2  0.24821000  0.00000000  0.03687000  1.0
  Be  Be3  2  0.24984000  0.50000000  0.03665000  1.0
  Be  Be4  2  0.24998000  0.00000000  0.89127000  1.0
  Be  Be5  2  0.24998000  0.50000000  0.89127000  1.0
  Ni  Ni6  2  0.00000000  0.24678000  0.03644000  1.0
  Ni  Ni7  2  0.00000000  0.25000000  0.89127000  1.0
  Ni  Ni8  2  0.50000000  0.24958000  0.03586000  1.0
  Ni  Ni9  2  0.50000000  0.25000000  0.89127000  1.0
  Ni  Ni10  1  0.00000000  0.00000000  0.11215000  1.0
  Ni  Ni11  1  0.00000000  0.00000000  0.96376000  1.0
  Ni  Ni12  1  0.00000000  0.50000000  0.10657000  1.0
  Ni  Ni13  1  0.00000000  0.50000000  0.96376000  1.0
  Ni  Ni14  1  0.50000000  0.00000000  0.10681000  1.0
  Ni  Ni15  1  0.50000000  0.00000000  0.96376000  1.0
  Ni  Ni16  1  0.50000000  0.50000000  0.10756000  1.0
  Ni  Ni17  1  0.50000000  0.50000000  0.96376000  1.0
  C  C18  1  0.00000000  0.00000000  0.18138000  1.0
  O  O19  1  0.00000000  0.00000000  0.22652000  1.0
