# generated using pymatgen
data_Li16Ga8Pd8C
_symmetry_space_group_name_H-M   'P 1'
_cell_length_a   8.69561000
_cell_length_b   6.14873000
_cell_length_c   26.52170000
_cell_angle_alpha   90.00000000
_cell_angle_beta   90.00000000
_cell_angle_gamma   90.00000000
_symmetry_Int_Tables_number   1
_chemical_formula_structural   Li16Ga8Pd8C
_chemical_formula_sum   'Li16 Ga8 Pd8 C1'
_cell_volume   1418.03462199
_cell_formula_units_Z   1
loop_
 _symmetry_equiv_pos_site_id
 _symmetry_equiv_pos_as_xyz
  1  'x, y, z'
loop_
 _atom_site_type_symbol
 _atom_site_label
 _atom_site_symmetry_multiplicity
 _atom_site_fract_x
 _atom_site_fract_y
 _atom_site_fract_z
 _atom_site_occupancy
  Li  Li0  1  0.74998000  1.00000000  0.04098000  1.0
  Li  Li1  1  0.00000000  0.50000000  0.12295000  1.0
  Li  Li2  1  0.25002000  1.00000000  0.04098000  1.0
  Li  Li3  1  0.50000000  0.50000000  0.12295000  1.0
  Li  Li4  1  0.24998000  0.25000000  0.12295000  1.0
  Li  Li5  1  0.75002000  0.25000000  0.12295000  1.0
  Li  Li6  1  0.50000000  0.75000000  0.04098000  1.0
  Li  Li7  1  0.00000000  0.75000000  0.04098000  1.0
  Li  Li8  1  0.27397000  0.00151000  0.87450000  1.0
  Li  Li9  1  0.50000000  0.50585000  0.96422000  1.0
  Li  Li10  1  0.72603000  0.00151000  0.87450000  1.0
  Li  Li11  1  0.00000000  0.51584000  0.95264000  1.0
  Li  Li12  1  0.75612000  0.24890000  0.96044000  1.0
  Li  Li13  1  0.24388000  0.24890000  0.96044000  1.0
  Li  Li14  1  0.00000000  0.77685000  0.84829000  1.0
  Li  Li15  1  0.50000000  0.71317000  0.87694000  1.0
  Ga  Ga16  1  0.00000000  0.25000000  0.04098000  1.0
  Ga  Ga17  1  0.50000000  0.25000000  0.04098000  1.0
  Ga  Ga18  1  0.74998000  0.75000000  0.12295000  1.0
  Ga  Ga19  1  0.25002000  0.75000000  0.12295000  1.0
  Ga  Ga20  1  0.50000000  0.29389000  0.88348000  1.0
  Ga  Ga21  1  0.00000000  0.16535000  0.87131000  1.0
  Ga  Ga22  1  0.25894000  0.75597000  0.95943000  1.0
  Ga  Ga23  1  0.74106000  0.75597000  0.95943000  1.0
  Pd  Pd24  1  0.00000000  0.00000000  0.12295000  1.0
  Pd  Pd25  1  0.24998000  0.50000000  0.04098000  1.0
  Pd  Pd26  1  0.75002000  0.50000000  0.04098000  1.0
  Pd  Pd27  1  0.50000000  1.00000000  0.12295000  1.0
  Pd  Pd28  1  0.50000000  0.01053000  0.95580000  1.0
  Pd  Pd29  1  0.76733000  0.49384000  0.88352000  1.0
  Pd  Pd30  1  0.23267000  0.49384000  0.88352000  1.0
  Pd  Pd31  1  0.00000000  0.98735000  0.96090000  1.0
  C  C32  1  0.00000000  0.47303000  0.86920000  1.0
