# generated using pymatgen
data_Li16Ga8Pd8C
_symmetry_space_group_name_H-M   Pm
_cell_length_a   6.14873000
_cell_length_b   8.69561000
_cell_length_c   26.52170000
_cell_angle_alpha   90.00000000
_cell_angle_beta   90.00000000
_cell_angle_gamma   90.00000000
_symmetry_Int_Tables_number   6
_chemical_formula_structural   Li16Ga8Pd8C
_chemical_formula_sum   'Li16 Ga8 Pd8 C1'
_cell_volume   1418.03462199
_cell_formula_units_Z   1
loop_
 _symmetry_equiv_pos_site_id
 _symmetry_equiv_pos_as_xyz
  1  'x, y, z'
  2  'x, -y, z'
loop_
 _atom_site_type_symbol
 _atom_site_label
 _atom_site_symmetry_multiplicity
 _atom_site_fract_x
 _atom_site_fract_y
 _atom_site_fract_z
 _atom_site_occupancy
  Li  Li0  2  -0.00000000  0.25002000  0.95902000  1.0
  Li  Li1  2  0.00151000  0.27397000  0.12550000  1.0
  Li  Li2  2  0.24890000  0.24388000  0.03956000  1.0
  Li  Li3  2  0.25000000  0.24998000  0.87705000  1.0
  Li  Li4  1  0.50000000  0.00000000  0.87705000  1.0
  Li  Li5  1  0.50000000  0.50000000  0.87705000  1.0
  Li  Li6  1  0.50585000  0.50000000  0.03578000  1.0
  Li  Li7  1  0.51584000  0.00000000  0.04736000  1.0
  Li  Li8  1  0.71317000  0.50000000  0.12306000  1.0
  Li  Li9  1  0.75000000  0.00000000  0.95902000  1.0
  Li  Li10  1  0.75000000  0.50000000  0.95902000  1.0
  Li  Li11  1  0.77685000  0.00000000  0.15171000  1.0
  Ga  Ga12  2  0.75000000  0.25002000  0.87705000  1.0
  Ga  Ga13  2  0.75597000  0.25894000  0.04057000  1.0
  Ga  Ga14  1  0.16535000  0.00000000  0.12869000  1.0
  Ga  Ga15  1  0.25000000  0.00000000  0.95902000  1.0
  Ga  Ga16  1  0.25000000  0.50000000  0.95902000  1.0
  Ga  Ga17  1  0.29389000  0.50000000  0.11652000  1.0
  Pd  Pd18  2  0.49384000  0.23267000  0.11648000  1.0
  Pd  Pd19  2  0.50000000  0.24998000  0.95902000  1.0
  Pd  Pd20  1  -0.00000000  0.50000000  0.87705000  1.0
  Pd  Pd21  1  0.00000000  0.00000000  0.87705000  1.0
  Pd  Pd22  1  0.01053000  0.50000000  0.04420000  1.0
  Pd  Pd23  1  0.98735000  0.00000000  0.03910000  1.0
  C  C24  1  0.47303000  0.00000000  0.13080000  1.0
