# generated using pymatgen
data_Li8Mg8In8Pt8CO
_symmetry_space_group_name_H-M   'P 1'
_cell_length_a   9.19976000
_cell_length_b   6.50521000
_cell_length_c   26.89980000
_cell_angle_alpha   90.00000000
_cell_angle_beta   90.00000000
_cell_angle_gamma   90.00000000
_symmetry_Int_Tables_number   1
_chemical_formula_structural   Li8Mg8In8Pt8CO
_chemical_formula_sum   'Li8 Mg8 In8 Pt8 C1 O1'
_cell_volume   1609.85540389
_cell_formula_units_Z   1
loop_
 _symmetry_equiv_pos_site_id
 _symmetry_equiv_pos_as_xyz
  1  'x, y, z'
loop_
 _atom_site_type_symbol
 _atom_site_label
 _atom_site_symmetry_multiplicity
 _atom_site_fract_x
 _atom_site_fract_y
 _atom_site_fract_z
 _atom_site_occupancy
  Li  Li0  1  0.50000000  0.25000000  0.04275000  1.0
  Li  Li1  1  0.00000000  0.25000000  0.04275000  1.0
  Li  Li2  1  0.75001000  0.75000000  0.12825000  1.0
  Li  Li3  1  0.24999000  0.75000000  0.12825000  1.0
  Li  Li4  1  0.00000000  0.27493000  0.86244000  1.0
  Li  Li5  1  0.50000000  0.23198000  0.86397000  1.0
  Li  Li6  1  0.24841000  0.74193000  0.95649000  1.0
  Li  Li7  1  0.75159000  0.74193000  0.95649000  1.0
  Mg  Mg8  1  0.75001000  0.00000000  0.04275000  1.0
  Mg  Mg9  1  0.24999000  0.00000000  0.04275000  1.0
  Mg  Mg10  1  0.00000000  0.50000000  0.12825000  1.0
  Mg  Mg11  1  0.50000000  0.50000000  0.12825000  1.0
  Mg  Mg12  1  0.23836000  0.98350000  0.87152000  1.0
  Mg  Mg13  1  0.76164000  0.98350000  0.87152000  1.0
  Mg  Mg14  1  0.50000000  0.49806000  0.95291000  1.0
  Mg  Mg15  1  0.00000000  0.49038000  0.95828000  1.0
  In  In16  1  0.50000000  0.00000000  0.12825000  1.0
  In  In17  1  0.00000000  0.00000000  0.12825000  1.0
  In  In18  1  0.25001000  0.50000000  0.04275000  1.0
  In  In19  1  0.74999000  0.50000000  0.04275000  1.0
  In  In20  1  0.00000000  0.00591000  0.95666000  1.0
  In  In21  1  0.50000000  0.99637000  0.95590000  1.0
  In  In22  1  0.74817000  0.49823000  0.86557000  1.0
  In  In23  1  0.25183000  0.49823000  0.86557000  1.0
  Pt  Pt24  1  0.50000000  0.75000000  0.04275000  1.0
  Pt  Pt25  1  0.00000000  0.75000000  0.04275000  1.0
  Pt  Pt26  1  0.75001000  0.25000000  0.12825000  1.0
  Pt  Pt27  1  0.24999000  0.25000000  0.12825000  1.0
  Pt  Pt28  1  0.00000000  0.73182000  0.87924000  1.0
  Pt  Pt29  1  0.50000000  0.77013000  0.86639000  1.0
  Pt  Pt30  1  0.25248000  0.25014000  0.95730000  1.0
  Pt  Pt31  1  0.74752000  0.25014000  0.95730000  1.0
  C  C32  1  0.50000000  0.81810000  0.79611000  1.0
  O  O33  1  0.50000000  0.83250000  0.75310000  1.0
