# generated using pymatgen
data_Li16Al8Pt8C
_symmetry_space_group_name_H-M   Pm
_cell_length_a   6.07419000
_cell_length_b   8.59020000
_cell_length_c   26.44270000
_cell_angle_alpha   90.00000000
_cell_angle_beta   90.00000000
_cell_angle_gamma   90.00000000
_symmetry_Int_Tables_number   6
_chemical_formula_structural   Li16Al8Pt8C
_chemical_formula_sum   'Li16 Al8 Pt8 C1'
_cell_volume   1379.74060541
_cell_formula_units_Z   1
loop_
 _symmetry_equiv_pos_site_id
 _symmetry_equiv_pos_as_xyz
  1  'x, y, z'
  2  'x, -y, z'
loop_
 _atom_site_type_symbol
 _atom_site_label
 _atom_site_symmetry_multiplicity
 _atom_site_fract_x
 _atom_site_fract_y
 _atom_site_fract_z
 _atom_site_occupancy
  Li  Li0  2  0.00000000  0.25001000  0.95939000  1.0
  Li  Li1  2  0.75000000  0.25001000  0.87818000  1.0
  Li  Li2  2  0.75814000  0.23675000  0.04056000  1.0
  Li  Li3  2  0.97477000  0.24067000  0.12712000  1.0
  Li  Li4  1  0.21610000  0.50000000  0.12438000  1.0
  Li  Li5  1  0.25000000  0.00000000  0.95939000  1.0
  Li  Li6  1  0.25000000  0.50000000  0.95939000  1.0
  Li  Li7  1  0.25040000  0.00000000  0.16389000  1.0
  Li  Li8  1  0.49315000  0.00000000  0.04169000  1.0
  Li  Li9  1  0.50000000  0.00000000  0.87818000  1.0
  Li  Li10  1  0.50000000  0.50000000  0.87818000  1.0
  Li  Li11  1  0.50282000  0.50000000  0.03853000  1.0
  Al  Al12  2  0.48695000  0.25796000  0.11922000  1.0
  Al  Al13  2  0.50000000  0.24999000  0.95939000  1.0
  Al  Al14  1  0.00000000  0.00000000  0.87818000  1.0
  Al  Al15  1  0.00000000  0.50000000  0.87818000  1.0
  Al  Al16  1  0.04134000  0.00000000  0.04548000  1.0
  Al  Al17  1  0.98734000  0.50000000  0.04109000  1.0
  Pt  Pt18  2  0.24848000  0.26111000  0.03850000  1.0
  Pt  Pt19  2  0.25000000  0.24999000  0.87818000  1.0
  Pt  Pt20  1  0.66039000  0.00000000  0.12778000  1.0
  Pt  Pt21  1  0.72663000  0.50000000  0.11463000  1.0
  Pt  Pt22  1  0.75000000  0.00000000  0.95939000  1.0
  Pt  Pt23  1  0.75000000  0.50000000  0.95939000  1.0
  C  C24  1  0.97579000  0.00000000  0.11925000  1.0
