# generated using pymatgen
data_Nb4Ir12CO
_symmetry_space_group_name_H-M   'P 1'
_cell_length_a   7.87138000
_cell_length_b   5.56590000
_cell_length_c   24.17440000
_cell_angle_alpha   90.00000000
_cell_angle_beta   90.00000000
_cell_angle_gamma   90.00000000
_symmetry_Int_Tables_number   1
_chemical_formula_structural   Nb4Ir12CO
_chemical_formula_sum   'Nb4 Ir12 C1 O1'
_cell_volume   1059.11222776
_cell_formula_units_Z   1
loop_
 _symmetry_equiv_pos_site_id
 _symmetry_equiv_pos_as_xyz
  1  'x, y, z'
loop_
 _atom_site_type_symbol
 _atom_site_label
 _atom_site_symmetry_multiplicity
 _atom_site_fract_x
 _atom_site_fract_y
 _atom_site_fract_z
 _atom_site_occupancy
  Nb  Nb0  1  0.75000000  0.00000000  0.91366000  1.0
  Nb  Nb1  1  0.74980000  0.50034000  0.03275000  1.0
  Nb  Nb2  1  0.25000000  0.00000000  0.91366000  1.0
  Nb  Nb3  1  0.25020000  0.50034000  0.03275000  1.0
  Ir  Ir4  1  0.75000000  0.50000000  0.91366000  1.0
  Ir  Ir5  1  0.50000000  0.25000000  0.97122000  1.0
  Ir  Ir6  1  0.50000000  0.75000000  0.97122000  1.0
  Ir  Ir7  1  0.75059000  0.00064000  0.02323000  1.0
  Ir  Ir8  1  0.50000000  0.75724000  0.08498000  1.0
  Ir  Ir9  1  0.50000000  0.25631000  0.08109000  1.0
  Ir  Ir10  1  0.25000000  0.50000000  0.91366000  1.0
  Ir  Ir11  1  0.00000000  0.25000000  0.97122000  1.0
  Ir  Ir12  1  0.00000000  0.75000000  0.97122000  1.0
  Ir  Ir13  1  0.24941000  0.00064000  0.02323000  1.0
  Ir  Ir14  1  0.00000000  0.74369000  0.08152000  1.0
  Ir  Ir15  1  0.00000000  0.25486000  0.08159000  1.0
  C  C16  1  0.50000000  0.75078000  0.16257000  1.0
  O  O17  1  0.50000000  0.74522000  0.21054000  1.0
