# generated using pymatgen
data_Li4Sc4Al4In4CO
_symmetry_space_group_name_H-M   'P 1'
_cell_length_a   6.08380000
_cell_length_b   8.37392000
_cell_length_c   24.56130000
_cell_angle_alpha   90.00000000
_cell_angle_beta   90.00000000
_cell_angle_gamma   90.00000000
_symmetry_Int_Tables_number   1
_chemical_formula_structural   Li4Sc4Al4In4CO
_chemical_formula_sum   'Li4 Sc4 Al4 In4 C1 O1'
_cell_volume   1251.28167925
_cell_formula_units_Z   1
loop_
 _symmetry_equiv_pos_site_id
 _symmetry_equiv_pos_as_xyz
  1  'x, y, z'
loop_
 _atom_site_type_symbol
 _atom_site_label
 _atom_site_symmetry_multiplicity
 _atom_site_fract_x
 _atom_site_fract_y
 _atom_site_fract_z
 _atom_site_occupancy
  Li  Li0  1  0.46738000  0.00002000  0.89825000  1.0
  Li  Li1  1  0.01285000  0.00000000  0.03095000  1.0
  Li  Li2  1  0.47853000  0.49995000  0.89580000  1.0
  Li  Li3  1  0.01285000  0.50000000  0.03095000  1.0
  Sc  Sc4  1  0.73280000  0.74589000  0.96786000  1.0
  Sc  Sc5  1  0.26927000  0.75000000  0.09286000  1.0
  Sc  Sc6  1  0.73271000  0.25400000  0.96789000  1.0
  Sc  Sc7  1  0.26927000  0.25000000  0.09286000  1.0
  Al  Al8  1  0.95358000  0.00003000  0.91215000  1.0
  Al  Al9  1  0.51285000  0.00000000  0.03095000  1.0
  Al  Al10  1  0.96187000  0.49990000  0.91284000  1.0
  Al  Al11  1  0.51285000  0.50000000  0.03095000  1.0
  In  In12  1  0.23558000  0.74621000  0.96068000  1.0
  In  In13  1  0.76927000  0.75000000  0.09286000  1.0
  In  In14  1  0.23555000  0.25381000  0.96078000  1.0
  In  In15  1  0.76927000  0.25000000  0.09286000  1.0
  C  C16  1  0.10337000  0.00005000  0.84152000  1.0
  O  O17  1  0.17217000  0.00008000  0.79707000  1.0
