# generated using pymatgen
data_Li8In8Ge8Pd8C
_symmetry_space_group_name_H-M   Pm
_cell_length_a   6.51863000
_cell_length_b   9.21874000
_cell_length_c   26.91410000
_cell_angle_alpha   90.00000000
_cell_angle_beta   90.00000000
_cell_angle_gamma   90.00000000
_symmetry_Int_Tables_number   6
_chemical_formula_structural   Li8In8Ge8Pd8C
_chemical_formula_sum   'Li8 In8 Ge8 Pd8 C1'
_cell_volume   1617.36395202
_cell_formula_units_Z   1
loop_
 _symmetry_equiv_pos_site_id
 _symmetry_equiv_pos_as_xyz
  1  'x, y, z'
  2  'x, -y, z'
loop_
 _atom_site_type_symbol
 _atom_site_label
 _atom_site_symmetry_multiplicity
 _atom_site_fract_x
 _atom_site_fract_y
 _atom_site_fract_z
 _atom_site_occupancy
  Li  Li0  2  0.73249000  0.27456000  0.14124000  1.0
  Li  Li1  2  0.75000000  0.25000000  0.95718000  1.0
  Li  Li2  1  0.19535000  0.00000000  0.05541000  1.0
  Li  Li3  1  0.20003000  0.50000000  0.04786000  1.0
  Li  Li4  1  0.25000000  0.00000000  0.87155000  1.0
  Li  Li5  1  0.25000000  0.50000000  0.87155000  1.0
  In  In6  2  0.49710000  0.25886000  0.04239000  1.0
  In  In7  2  0.50000000  0.25000000  0.87155000  1.0
  In  In8  1  0.00000000  0.00000000  0.95718000  1.0
  In  In9  1  0.00000000  0.50000000  0.95718000  1.0
  In  In10  1  0.00017000  0.00000000  0.18730000  1.0
  In  In11  1  0.03517000  0.50000000  0.15251000  1.0
  Ge  Ge12  2  0.00000000  0.25000000  0.87155000  1.0
  Ge  Ge13  2  0.96860000  0.25081000  0.04867000  1.0
  Ge  Ge14  1  0.47110000  0.50000000  0.12324000  1.0
  Ge  Ge15  1  0.50000000  0.00000000  0.95718000  1.0
  Ge  Ge16  1  0.50000000  0.50000000  0.95718000  1.0
  Ge  Ge17  1  0.55615000  0.00000000  0.12544000  1.0
  Pd  Pd18  2  0.22955000  0.23576000  0.12056000  1.0
  Pd  Pd19  2  0.25000000  0.25000000  0.95718000  1.0
  Pd  Pd20  1  0.74077000  0.00000000  0.03678000  1.0
  Pd  Pd21  1  0.75000000  0.00000000  0.87155000  1.0
  Pd  Pd22  1  0.75000000  0.50000000  0.87155000  1.0
  Pd  Pd23  1  0.76654000  0.50000000  0.04179000  1.0
  C  C24  1  0.26954000  0.00000000  0.13327000  1.0
