# generated using pymatgen
data_Mg16Rh16C
_symmetry_space_group_name_H-M   'P 1'
_cell_length_a   6.29180000
_cell_length_b   8.89794000
_cell_length_c   26.67350000
_cell_angle_alpha   90.00000000
_cell_angle_beta   90.00000000
_cell_angle_gamma   90.00000000
_symmetry_Int_Tables_number   1
_chemical_formula_structural   Mg16Rh16C
_chemical_formula_sum   'Mg16 Rh16 C1'
_cell_volume   1493.29079486
_cell_formula_units_Z   1
loop_
 _symmetry_equiv_pos_site_id
 _symmetry_equiv_pos_as_xyz
  1  'x, y, z'
loop_
 _atom_site_type_symbol
 _atom_site_label
 _atom_site_symmetry_multiplicity
 _atom_site_fract_x
 _atom_site_fract_y
 _atom_site_fract_z
 _atom_site_occupancy
  Mg  Mg0  1  0.00000000  0.50000000  0.87490000  1.0
  Mg  Mg1  1  0.00000000  0.75001000  0.95830000  1.0
  Mg  Mg2  1  0.00000000  0.50000000  0.03964000  1.0
  Mg  Mg3  1  0.00000000  0.75922000  0.12838000  1.0
  Mg  Mg4  1  0.00000000  0.00000000  0.87490000  1.0
  Mg  Mg5  1  0.00000000  0.24999000  0.95830000  1.0
  Mg  Mg6  1  0.00000000  0.00000000  0.04057000  1.0
  Mg  Mg7  1  0.00000000  0.24078000  0.12838000  1.0
  Mg  Mg8  1  0.50000000  0.50000000  0.87490000  1.0
  Mg  Mg9  1  0.50000000  0.75001000  0.95830000  1.0
  Mg  Mg10  1  0.50000000  0.50000000  0.03807000  1.0
  Mg  Mg11  1  0.50000000  0.75205000  0.12806000  1.0
  Mg  Mg12  1  0.50000000  0.00000000  0.87490000  1.0
  Mg  Mg13  1  0.50000000  0.24999000  0.95830000  1.0
  Mg  Mg14  1  0.50000000  0.00000000  0.03933000  1.0
  Mg  Mg15  1  0.50000000  0.24795000  0.12806000  1.0
  Rh  Rh16  1  0.25000000  0.75001000  0.87490000  1.0
  Rh  Rh17  1  0.25000000  0.00000000  0.95830000  1.0
  Rh  Rh18  1  0.24946000  0.74849000  0.04340000  1.0
  Rh  Rh19  1  0.24443000  0.50000000  0.12456000  1.0
  Rh  Rh20  1  0.25000000  0.24999000  0.87490000  1.0
  Rh  Rh21  1  0.25000000  0.50000000  0.95830000  1.0
  Rh  Rh22  1  0.24946000  0.25151000  0.04340000  1.0
  Rh  Rh23  1  0.25713000  0.00000000  0.12023000  1.0
  Rh  Rh24  1  0.75000000  0.75001000  0.87490000  1.0
  Rh  Rh25  1  0.75000000  0.00000000  0.95830000  1.0
  Rh  Rh26  1  0.75054000  0.74849000  0.04340000  1.0
  Rh  Rh27  1  0.75557000  0.50000000  0.12456000  1.0
  Rh  Rh28  1  0.75000000  0.24999000  0.87490000  1.0
  Rh  Rh29  1  0.75000000  0.50000000  0.95830000  1.0
  Rh  Rh30  1  0.75054000  0.25151000  0.04340000  1.0
  Rh  Rh31  1  0.74287000  0.00000000  0.12023000  1.0
  C  C32  1  0.00000000  0.50000000  0.16142000  1.0
