# generated using pymatgen
data_Mg16Rh16C
_symmetry_space_group_name_H-M   Pmm2
_cell_length_a   6.29180000
_cell_length_b   8.89794000
_cell_length_c   26.67350000
_cell_angle_alpha   90.00000000
_cell_angle_beta   90.00000000
_cell_angle_gamma   90.00000000
_symmetry_Int_Tables_number   25
_chemical_formula_structural   Mg16Rh16C
_chemical_formula_sum   'Mg16 Rh16 C1'
_cell_volume   1493.29079486
_cell_formula_units_Z   1
loop_
 _symmetry_equiv_pos_site_id
 _symmetry_equiv_pos_as_xyz
  1  'x, y, z'
  2  '-x, -y, z'
  3  '-x, y, z'
  4  'x, -y, z'
loop_
 _atom_site_type_symbol
 _atom_site_label
 _atom_site_symmetry_multiplicity
 _atom_site_fract_x
 _atom_site_fract_y
 _atom_site_fract_z
 _atom_site_occupancy
  Mg  Mg0  2  0.00000000  0.24078000  0.12838000  1.0
  Mg  Mg1  2  0.00000000  0.24999000  0.95830000  1.0
  Mg  Mg2  2  0.50000000  0.24795000  0.12806000  1.0
  Mg  Mg3  2  0.50000000  0.24999000  0.95830000  1.0
  Mg  Mg4  1  0.00000000  0.00000000  0.04057000  1.0
  Mg  Mg5  1  0.00000000  0.00000000  0.87490000  1.0
  Mg  Mg6  1  0.00000000  0.50000000  0.03964000  1.0
  Mg  Mg7  1  0.00000000  0.50000000  0.87490000  1.0
  Mg  Mg8  1  0.50000000  0.00000000  0.03933000  1.0
  Mg  Mg9  1  0.50000000  0.00000000  0.87490000  1.0
  Mg  Mg10  1  0.50000000  0.50000000  0.03807000  1.0
  Mg  Mg11  1  0.50000000  0.50000000  0.87490000  1.0
  Rh  Rh12  4  0.24946000  0.25151000  0.04340000  1.0
  Rh  Rh13  4  0.25000000  0.24999000  0.87490000  1.0
  Rh  Rh14  2  0.24443000  0.50000000  0.12456000  1.0
  Rh  Rh15  2  0.25000000  0.00000000  0.95830000  1.0
  Rh  Rh16  2  0.25000000  0.50000000  0.95830000  1.0
  Rh  Rh17  2  0.25713000  0.00000000  0.12023000  1.0
  C  C18  1  0.00000000  0.50000000  0.16142000  1.0
