# generated using pymatgen
data_Ta16Ru16C
_symmetry_space_group_name_H-M   'P 1'
_cell_length_a   6.72556000
_cell_length_b   8.71119000
_cell_length_c   26.53340000
_cell_angle_alpha   90.00000000
_cell_angle_beta   90.00000000
_cell_angle_gamma   90.00000000
_symmetry_Int_Tables_number   1
_chemical_formula_structural   Ta16Ru16C
_chemical_formula_sum   'Ta16 Ru16 C1'
_cell_volume   1554.52904881
_cell_formula_units_Z   1
loop_
 _symmetry_equiv_pos_site_id
 _symmetry_equiv_pos_as_xyz
  1  'x, y, z'
loop_
 _atom_site_type_symbol
 _atom_site_label
 _atom_site_symmetry_multiplicity
 _atom_site_fract_x
 _atom_site_fract_y
 _atom_site_fract_z
 _atom_site_occupancy
  Ta  Ta0  1  0.75000000  0.75000000  0.12312000  1.0
  Ta  Ta1  1  0.75000000  1.00000000  0.04104000  1.0
  Ta  Ta2  1  0.74981000  0.74970000  0.95574000  1.0
  Ta  Ta3  1  0.74979000  0.99444000  0.87598000  1.0
  Ta  Ta4  1  0.25000000  0.75000000  0.12312000  1.0
  Ta  Ta5  1  0.25000000  1.00000000  0.04104000  1.0
  Ta  Ta6  1  0.24989000  0.75017000  0.96032000  1.0
  Ta  Ta7  1  0.24976000  0.00455000  0.87128000  1.0
  Ta  Ta8  1  0.75000000  0.25000000  0.12312000  1.0
  Ta  Ta9  1  0.75000000  0.50000000  0.04104000  1.0
  Ta  Ta10  1  0.74989000  0.25030000  0.95712000  1.0
  Ta  Ta11  1  0.74980000  0.50561000  0.87606000  1.0
  Ta  Ta12  1  0.25000000  0.25000000  0.12312000  1.0
  Ta  Ta13  1  0.25000000  0.50000000  0.04104000  1.0
  Ta  Ta14  1  0.24994000  0.24988000  0.95579000  1.0
  Ta  Ta15  1  0.24976000  0.49551000  0.87127000  1.0
  Ru  Ru16  1  0.00000000  0.00000000  0.12312000  1.0
  Ru  Ru17  1  0.00000000  0.75000000  0.04104000  1.0
  Ru  Ru18  1  0.01396000  0.99936000  0.95730000  1.0
  Ru  Ru19  1  0.03818000  0.75005000  0.88084000  1.0
  Ru  Ru20  1  0.50000000  1.00000000  0.12312000  1.0
  Ru  Ru21  1  0.50000000  0.75000000  0.04104000  1.0
  Ru  Ru22  1  0.48590000  0.99933000  0.95728000  1.0
  Ru  Ru23  1  0.46094000  0.75005000  0.88080000  1.0
  Ru  Ru24  1  0.00000000  0.50000000  0.12312000  1.0
  Ru  Ru25  1  0.00000000  0.25000000  0.04104000  1.0
  Ru  Ru26  1  0.01485000  0.50068000  0.95729000  1.0
  Ru  Ru27  1  0.99750000  0.24998000  0.88027000  1.0
  Ru  Ru28  1  0.50000000  0.50000000  0.12312000  1.0
  Ru  Ru29  1  0.50000000  0.25000000  0.04104000  1.0
  Ru  Ru30  1  0.48502000  0.50070000  0.95728000  1.0
  Ru  Ru31  1  0.50220000  0.24999000  0.88026000  1.0
  C  C32  1  0.74943000  0.75001000  0.86311000  1.0
