# generated using pymatgen
data_Cu24Sn8CO
_symmetry_space_group_name_H-M   Pmm2
_cell_length_a   6.23499000
_cell_length_b   8.81761000
_cell_length_c   26.61320000
_cell_angle_alpha   90.00000000
_cell_angle_beta   90.00000000
_cell_angle_gamma   90.00000000
_symmetry_Int_Tables_number   25
_chemical_formula_structural   Cu24Sn8CO
_chemical_formula_sum   'Cu24 Sn8 C1 O1'
_cell_volume   1463.13279640
_cell_formula_units_Z   1
loop_
 _symmetry_equiv_pos_site_id
 _symmetry_equiv_pos_as_xyz
  1  'x, y, z'
  2  '-x, -y, z'
  3  '-x, y, z'
  4  'x, -y, z'
loop_
 _atom_site_type_symbol
 _atom_site_label
 _atom_site_symmetry_multiplicity
 _atom_site_fract_x
 _atom_site_fract_y
 _atom_site_fract_z
 _atom_site_occupancy
  Cu  Cu0  4  0.25000000  0.25000000  0.95858000  1.0
  Cu  Cu1  4  0.28458000  0.25768000  0.11557000  1.0
  Cu  Cu2  2  0.25000000  0.00000000  0.87575000  1.0
  Cu  Cu3  2  0.25000000  0.50000000  0.87575000  1.0
  Cu  Cu4  2  0.27303000  0.00000000  0.05116000  1.0
  Cu  Cu5  2  0.29195000  0.50000000  0.05177000  1.0
  Cu  Cu6  2  0.50000000  0.24498000  0.03407000  1.0
  Cu  Cu7  2  0.50000000  0.25000000  0.87575000  1.0
  Cu  Cu8  1  0.00000000  0.00000000  0.12425000  1.0
  Cu  Cu9  1  0.00000000  0.00000000  0.95858000  1.0
  Cu  Cu10  1  0.00000000  0.50000000  0.11705000  1.0
  Cu  Cu11  1  0.00000000  0.50000000  0.95858000  1.0
  Sn  Sn12  2  0.00000000  0.24978000  0.04224000  1.0
  Sn  Sn13  2  0.00000000  0.25000000  0.87575000  1.0
  Sn  Sn14  1  0.50000000  0.00000000  0.14203000  1.0
  Sn  Sn15  1  0.50000000  0.00000000  0.95858000  1.0
  Sn  Sn16  1  0.50000000  0.50000000  0.15026000  1.0
  Sn  Sn17  1  0.50000000  0.50000000  0.95858000  1.0
  C  C18  1  0.00000000  0.00000000  0.19472000  1.0
  O  O19  1  0.00000000  0.00000000  0.23789000  1.0
