# generated using pymatgen
data_Y4Sc4Ga4Pd4C
_symmetry_space_group_name_H-M   Pm
_cell_length_a   6.83834000
_cell_length_b   7.06732000
_cell_length_c   25.12490000
_cell_angle_alpha   90.00000000
_cell_angle_beta   90.00000000
_cell_angle_gamma   90.00000000
_symmetry_Int_Tables_number   6
_chemical_formula_structural   Y4Sc4Ga4Pd4C
_chemical_formula_sum   'Y4 Sc4 Ga4 Pd4 C1'
_cell_volume   1214.25468548
_cell_formula_units_Z   1
loop_
 _symmetry_equiv_pos_site_id
 _symmetry_equiv_pos_as_xyz
  1  'x, y, z'
  2  'x, -y, z'
loop_
 _atom_site_type_symbol
 _atom_site_label
 _atom_site_symmetry_multiplicity
 _atom_site_fract_x
 _atom_site_fract_y
 _atom_site_fract_z
 _atom_site_occupancy
  Y  Y0  2  0.25967000  0.25000000  0.03400000  1.0
  Y  Y1  2  0.76248000  0.23912000  0.89405000  1.0
  Sc  Sc2  2  0.28329000  0.22267000  0.90201000  1.0
  Sc  Sc3  2  0.75967000  0.25000000  0.03400000  1.0
  Ga  Ga4  1  0.00000000  0.00000000  0.10199000  1.0
  Ga  Ga5  1  0.00000000  0.50000000  0.10199000  1.0
  Ga  Ga6  1  0.52093000  0.50000000  0.95874000  1.0
  Ga  Ga7  1  0.53449000  0.00000000  0.96931000  1.0
  Pd  Pd8  1  0.50000000  0.00000000  0.10199000  1.0
  Pd  Pd9  1  0.50000000  0.50000000  0.10199000  1.0
  Pd  Pd10  1  0.99579000  0.00000000  0.96353000  1.0
  Pd  Pd11  1  0.99992000  0.50000000  0.96597000  1.0
  C  C12  1  0.50181000  0.00000000  0.88449000  1.0
