# generated using pymatgen
data_Li8Ga4Ir4CO
_symmetry_space_group_name_H-M   'P 1'
_cell_length_a   6.01864000
_cell_length_b   6.01864000
_cell_length_c   24.51400000
_cell_angle_alpha   90.00000000
_cell_angle_beta   90.00000000
_cell_angle_gamma   90.00000000
_symmetry_Int_Tables_number   1
_chemical_formula_structural   Li8Ga4Ir4CO
_chemical_formula_sum   'Li8 Ga4 Ir4 C1 O1'
_cell_volume   887.99580890
_cell_formula_units_Z   1
loop_
 _symmetry_equiv_pos_site_id
 _symmetry_equiv_pos_as_xyz
  1  'x, y, z'
loop_
 _atom_site_type_symbol
 _atom_site_label
 _atom_site_symmetry_multiplicity
 _atom_site_fract_x
 _atom_site_fract_y
 _atom_site_fract_z
 _atom_site_occupancy
  Li  Li0  1  0.99907000  0.99907000  0.02446000  1.0
  Li  Li1  1  0.50000000  0.00000000  0.90793000  1.0
  Li  Li2  1  0.00000000  0.50000000  0.90793000  1.0
  Li  Li3  1  0.50224000  0.50218000  0.02313000  1.0
  Li  Li4  1  0.25000000  0.25000000  0.96931000  1.0
  Li  Li5  1  0.25116000  0.74900000  0.10147000  1.0
  Li  Li6  1  0.75000000  0.75000000  0.96931000  1.0
  Li  Li7  1  0.74941000  0.25097000  0.10168000  1.0
  Ga  Ga8  1  0.25254000  0.25243000  0.08609000  1.0
  Ga  Ga9  1  0.25000000  0.75000000  0.96931000  1.0
  Ga  Ga10  1  0.74793000  0.74784000  0.08755000  1.0
  Ga  Ga11  1  0.75000000  0.25000000  0.96931000  1.0
  Ir  Ir12  1  0.00000000  0.00000000  0.90793000  1.0
  Ir  Ir13  1  0.50000000  0.50000000  0.90793000  1.0
  Ir  Ir14  1  0.50102000  0.99937000  0.03687000  1.0
  Ir  Ir15  1  0.99915000  0.50073000  0.03687000  1.0
  C  C16  1  0.15146000  0.15880000  0.21536000  1.0
  O  O17  1  0.26519000  0.26452000  0.24200000  1.0
