data_image0
_chemical_formula_structural       Ti16Pd16
_chemical_formula_sum              "Ti16 Pd16"
_cell_length_a       6.37073
_cell_length_b       9.00957
_cell_length_c       26.7572
_cell_angle_alpha    90
_cell_angle_beta     90
_cell_angle_gamma    90

_space_group_name_H-M_alt    "P 1"
_space_group_IT_number       1

loop_
  _space_group_symop_operation_xyz
  'x, y, z'

loop_
  _atom_site_type_symbol
  _atom_site_label
  _atom_site_symmetry_multiplicity
  _atom_site_fract_x
  _atom_site_fract_y
  _atom_site_fract_z
  _atom_site_occupancy
  Ti  Ti1       1.0  0.25000  0.25000  0.87373  1.0000
  Ti  Ti2       1.0  0.25000  0.00000  0.95791  1.0000
  Ti  Ti3       1.0  0.25000  0.24995  0.04001  1.0000
  Ti  Ti4       1.0  0.25000  0.99998  0.12718  1.0000
  Ti  Ti5       1.0  0.25000  0.75000  0.87373  1.0000
  Ti  Ti6       1.0  0.25000  0.50000  0.95791  1.0000
  Ti  Ti7       1.0  0.25000  0.75006  0.04004  1.0000
  Ti  Ti8       1.0  0.25000  0.50003  0.12727  1.0000
  Ti  Ti9       1.0  0.75000  0.25000  0.87373  1.0000
  Ti  Ti10      1.0  0.75000  0.00000  0.95791  1.0000
  Ti  Ti11      1.0  0.75000  0.24990  0.04002  1.0000
  Ti  Ti12      1.0  0.75000  0.99996  0.12755  1.0000
  Ti  Ti13      1.0  0.75000  0.75000  0.87373  1.0000
  Ti  Ti14      1.0  0.75000  0.50000  0.95791  1.0000
  Ti  Ti15      1.0  0.75000  0.75010  0.04005  1.0000
  Ti  Ti16      1.0  0.75000  0.50006  0.12767  1.0000
  Pd  Pd1       1.0  0.00000  0.00000  0.87373  1.0000
  Pd  Pd2       1.0  0.00000  0.25000  0.95791  1.0000
  Pd  Pd3       1.0  0.99892  0.00003  0.04544  1.0000
  Pd  Pd4       1.0  0.99978  0.25010  0.12032  1.0000
  Pd  Pd5       1.0  0.00000  0.50000  0.87373  1.0000
  Pd  Pd6       1.0  0.00000  0.75000  0.95791  1.0000
  Pd  Pd7       1.0  0.99873  0.49997  0.04546  1.0000
  Pd  Pd8       1.0  0.99980  0.74993  0.12032  1.0000
  Pd  Pd9       1.0  0.50000  0.00000  0.87373  1.0000
  Pd  Pd10      1.0  0.50000  0.25000  0.95791  1.0000
  Pd  Pd11      1.0  0.50108  0.00002  0.04544  1.0000
  Pd  Pd12      1.0  0.50022  0.25010  0.12032  1.0000
  Pd  Pd13      1.0  0.50000  0.50000  0.87373  1.0000
  Pd  Pd14      1.0  0.50000  0.75000  0.95791  1.0000
  Pd  Pd15      1.0  0.50126  0.49997  0.04546  1.0000
  Pd  Pd16      1.0  0.50019  0.74993  0.12032  1.0000
