# generated using pymatgen
data_TiPd
_symmetry_space_group_name_H-M   'P 1'
_cell_length_a   9.00957000
_cell_length_b   6.37073000
_cell_length_c   26.75720000
_cell_angle_alpha   90.00000000
_cell_angle_beta   90.00000000
_cell_angle_gamma   90.00000000
_symmetry_Int_Tables_number   1
_chemical_formula_structural   TiPd
_chemical_formula_sum   'Ti16 Pd16'
_cell_volume   1535.79740073
_cell_formula_units_Z   16
loop_
 _symmetry_equiv_pos_site_id
 _symmetry_equiv_pos_as_xyz
  1  'x, y, z'
loop_
 _atom_site_type_symbol
 _atom_site_label
 _atom_site_symmetry_multiplicity
 _atom_site_fract_x
 _atom_site_fract_y
 _atom_site_fract_z
 _atom_site_occupancy
  Ti  Ti0  1  0.25000000  0.50000000  0.12627000  1.0
  Ti  Ti1  1  0.00000000  0.50000000  0.04209000  1.0
  Ti  Ti2  1  0.24995000  0.50000000  0.95999000  1.0
  Ti  Ti3  1  0.99998000  0.50000000  0.87282000  1.0
  Ti  Ti4  1  0.75000000  0.50000000  0.12627000  1.0
  Ti  Ti5  1  0.50000000  0.50000000  0.04209000  1.0
  Ti  Ti6  1  0.75006000  0.50000000  0.95996000  1.0
  Ti  Ti7  1  0.50003000  0.50000000  0.87273000  1.0
  Ti  Ti8  1  0.25000000  0.00000000  0.12627000  1.0
  Ti  Ti9  1  0.00000000  0.00000000  0.04209000  1.0
  Ti  Ti10  1  0.24990000  0.00000000  0.95998000  1.0
  Ti  Ti11  1  0.99996000  0.00000000  0.87245000  1.0
  Ti  Ti12  1  0.75000000  0.00000000  0.12627000  1.0
  Ti  Ti13  1  0.50000000  0.00000000  0.04209000  1.0
  Ti  Ti14  1  0.75010000  0.00000000  0.95995000  1.0
  Ti  Ti15  1  0.50006000  0.00000000  0.87233000  1.0
  Pd  Pd16  1  0.00000000  0.75000000  0.12627000  1.0
  Pd  Pd17  1  0.25000000  0.75000000  0.04209000  1.0
  Pd  Pd18  1  0.00003000  0.75108000  0.95456000  1.0
  Pd  Pd19  1  0.25010000  0.75022000  0.87968000  1.0
  Pd  Pd20  1  0.50000000  0.75000000  0.12627000  1.0
  Pd  Pd21  1  0.75000000  0.75000000  0.04209000  1.0
  Pd  Pd22  1  0.49997000  0.75127000  0.95454000  1.0
  Pd  Pd23  1  0.74993000  0.75020000  0.87968000  1.0
  Pd  Pd24  1  0.00000000  0.25000000  0.12627000  1.0
  Pd  Pd25  1  0.25000000  0.25000000  0.04209000  1.0
  Pd  Pd26  1  0.00003000  0.24892000  0.95456000  1.0
  Pd  Pd27  1  0.25010000  0.24978000  0.87968000  1.0
  Pd  Pd28  1  0.50000000  0.25000000  0.12627000  1.0
  Pd  Pd29  1  0.75000000  0.25000000  0.04209000  1.0
  Pd  Pd30  1  0.49997000  0.24873000  0.95454000  1.0
  Pd  Pd31  1  0.74993000  0.24980000  0.87968000  1.0
