# generated using pymatgen
data_Sc8In8Ni16CO
_symmetry_space_group_name_H-M   P1
_cell_length_a   6.31539000
_cell_length_b   8.93131000
_cell_length_c   26.69850000
_cell_angle_alpha   90.00000000
_cell_angle_beta   90.00000000
_cell_angle_gamma   90.00000000
_symmetry_Int_Tables_number   1
_chemical_formula_structural   Sc8In8Ni16CO
_chemical_formula_sum   'Sc8 In8 Ni16 C1 O1'
_cell_volume   1505.92103943
_cell_formula_units_Z   1
loop_
 _symmetry_equiv_pos_site_id
 _symmetry_equiv_pos_as_xyz
  1  'x, y, z'
loop_
 _atom_site_type_symbol
 _atom_site_label
 _atom_site_symmetry_multiplicity
 _atom_site_fract_x
 _atom_site_fract_y
 _atom_site_fract_z
 _atom_site_occupancy
  Sc  Sc0  1  0.00000000  0.00000000  0.87455000  1.0
  Sc  Sc1  1  0.00000000  0.50000000  0.87455000  1.0
  Sc  Sc2  1  0.49842000  0.25526000  0.12542000  1.0
  Sc  Sc3  1  0.49842000  0.74471000  0.12547000  1.0
  Sc  Sc4  1  0.50000000  0.25000000  0.95818000  1.0
  Sc  Sc5  1  0.50000000  0.75000000  0.95818000  1.0
  Sc  Sc6  1  0.99659000  0.99995000  0.04128000  1.0
  Sc  Sc7  1  0.99765000  0.49992000  0.04000000  1.0
  In  In8  1  0.00000000  0.25000000  0.95818000  1.0
  In  In9  1  0.00000000  0.75000000  0.95818000  1.0
  In  In10  1  0.49550000  0.99995000  0.04173000  1.0
  In  In11  1  0.49661000  0.49992000  0.04223000  1.0
  In  In12  1  0.50000000  0.00000000  0.87455000  1.0
  In  In13  1  0.50000000  0.50000000  0.87455000  1.0
  In  In14  1  0.99466000  0.24671000  0.13056000  1.0
  In  In15  1  0.99466000  0.75327000  0.13059000  1.0
  Ni  Ni16  1  0.22147000  0.49995000  0.11936000  1.0
  Ni  Ni17  1  0.25000000  0.00000000  0.95818000  1.0
  Ni  Ni18  1  0.25000000  0.25000000  0.87455000  1.0
  Ni  Ni19  1  0.25000000  0.50000000  0.95818000  1.0
  Ni  Ni20  1  0.25000000  0.75000000  0.87455000  1.0
  Ni  Ni21  1  0.25030000  0.75192000  0.04649000  1.0
  Ni  Ni22  1  0.25035000  0.24787000  0.04644000  1.0
  Ni  Ni23  1  0.25053000  0.00002000  0.12760000  1.0
  Ni  Ni24  1  0.74474000  0.25005000  0.04475000  1.0
  Ni  Ni25  1  0.74476000  0.74972000  0.04487000  1.0
  Ni  Ni26  1  0.75000000  0.00000000  0.95818000  1.0
  Ni  Ni27  1  0.75000000  0.25000000  0.87455000  1.0
  Ni  Ni28  1  0.75000000  0.50000000  0.95818000  1.0
  Ni  Ni29  1  0.75000000  0.75000000  0.87455000  1.0
  Ni  Ni30  1  0.76190000  0.00007000  0.11745000  1.0
  Ni  Ni31  1  0.77110000  0.49993000  0.11948000  1.0
  C  C32  1  0.32928000  0.00004000  0.19043000  1.0
  O  O33  1  0.36559000  0.00004000  0.23329000  1.0
