# generated using pymatgen
data_Li8Cu8Ge8Pd8C
_symmetry_space_group_name_H-M   'P 1'
_cell_length_a   8.54512000
_cell_length_b   6.04231000
_cell_length_c   26.40880000
_cell_angle_alpha   90.00000000
_cell_angle_beta   90.00000000
_cell_angle_gamma   90.00000000
_symmetry_Int_Tables_number   1
_chemical_formula_structural   Li8Cu8Ge8Pd8C
_chemical_formula_sum   'Li8 Cu8 Ge8 Pd8 C1'
_cell_volume   1363.54613424
_cell_formula_units_Z   1
loop_
 _symmetry_equiv_pos_site_id
 _symmetry_equiv_pos_as_xyz
  1  'x, y, z'
loop_
 _atom_site_type_symbol
 _atom_site_label
 _atom_site_symmetry_multiplicity
 _atom_site_fract_x
 _atom_site_fract_y
 _atom_site_fract_z
 _atom_site_occupancy
  Li  Li0  1  0.00000000  0.25000000  0.04045000  1.0
  Li  Li1  1  0.50000000  0.25000000  0.04045000  1.0
  Li  Li2  1  0.25000000  0.75000000  0.12134000  1.0
  Li  Li3  1  0.75000000  0.75000000  0.12134000  1.0
  Li  Li4  1  0.50000000  0.22910000  0.83845000  1.0
  Li  Li5  1  0.00000000  0.24301000  0.83637000  1.0
  Li  Li6  1  0.72466000  0.72721000  0.95911000  1.0
  Li  Li7  1  0.27534000  0.72721000  0.95911000  1.0
  Cu  Cu8  1  0.00000000  0.00000000  0.12134000  1.0
  Cu  Cu9  1  0.50000000  0.00000000  0.12134000  1.0
  Cu  Cu10  1  0.75000000  0.50000000  0.04045000  1.0
  Cu  Cu11  1  0.25000000  0.50000000  0.04045000  1.0
  Cu  Cu12  1  0.50000000  0.99729000  0.95998000  1.0
  Cu  Cu13  1  0.00000000  0.00138000  0.95812000  1.0
  Cu  Cu14  1  0.22770000  0.49832000  0.87780000  1.0
  Cu  Cu15  1  0.77230000  0.49832000  0.87780000  1.0
  Ge  Ge16  1  0.00000000  0.75000000  0.04045000  1.0
  Ge  Ge17  1  0.50000000  0.75000000  0.04045000  1.0
  Ge  Ge18  1  0.25000000  0.25000000  0.12134000  1.0
  Ge  Ge19  1  0.75000000  0.25000000  0.12134000  1.0
  Ge  Ge20  1  0.50000000  0.75304000  0.86818000  1.0
  Ge  Ge21  1  0.00000000  0.84922000  0.86635000  1.0
  Ge  Ge22  1  0.75473000  0.26037000  0.96322000  1.0
  Ge  Ge23  1  0.24527000  0.26037000  0.96322000  1.0
  Pd  Pd24  1  0.25000000  0.00000000  0.04045000  1.0
  Pd  Pd25  1  0.75000000  0.00000000  0.04045000  1.0
  Pd  Pd26  1  0.50000000  0.50000000  0.12134000  1.0
  Pd  Pd27  1  0.00000000  0.50000000  0.12134000  1.0
  Pd  Pd28  1  0.73147000  0.01674000  0.88597000  1.0
  Pd  Pd29  1  0.26853000  0.01674000  0.88597000  1.0
  Pd  Pd30  1  0.00000000  0.52536000  0.95599000  1.0
  Pd  Pd31  1  0.50000000  0.41941000  0.92500000  1.0
  C  C32  1  0.00000000  0.53893000  0.87005000  1.0
