# generated using pymatgen
data_Li8Cu8Ge8Pd8C
_symmetry_space_group_name_H-M   Pm
_cell_length_a   6.04231000
_cell_length_b   8.54512000
_cell_length_c   26.40880000
_cell_angle_alpha   90.00000000
_cell_angle_beta   90.00000000
_cell_angle_gamma   90.00000000
_symmetry_Int_Tables_number   6
_chemical_formula_structural   Li8Cu8Ge8Pd8C
_chemical_formula_sum   'Li8 Cu8 Ge8 Pd8 C1'
_cell_volume   1363.54613424
_cell_formula_units_Z   1
loop_
 _symmetry_equiv_pos_site_id
 _symmetry_equiv_pos_as_xyz
  1  'x, y, z'
  2  'x, -y, z'
loop_
 _atom_site_type_symbol
 _atom_site_label
 _atom_site_symmetry_multiplicity
 _atom_site_fract_x
 _atom_site_fract_y
 _atom_site_fract_z
 _atom_site_occupancy
  Li  Li0  2  0.72721000  0.27534000  0.04089000  1.0
  Li  Li1  2  0.75000000  0.25000000  0.87866000  1.0
  Li  Li2  1  0.22910000  0.50000000  0.16155000  1.0
  Li  Li3  1  0.24301000  0.00000000  0.16363000  1.0
  Li  Li4  1  0.25000000  0.00000000  0.95955000  1.0
  Li  Li5  1  0.25000000  0.50000000  0.95955000  1.0
  Cu  Cu6  2  0.49832000  0.22770000  0.12220000  1.0
  Cu  Cu7  2  0.50000000  0.25000000  0.95955000  1.0
  Cu  Cu8  1  0.00000000  0.00000000  0.87866000  1.0
  Cu  Cu9  1  0.00000000  0.50000000  0.87866000  1.0
  Cu  Cu10  1  0.00138000  0.00000000  0.04188000  1.0
  Cu  Cu11  1  0.99729000  0.50000000  0.04002000  1.0
  Ge  Ge12  2  0.25000000  0.25000000  0.87866000  1.0
  Ge  Ge13  2  0.26037000  0.24527000  0.03678000  1.0
  Ge  Ge14  1  0.75000000  0.00000000  0.95955000  1.0
  Ge  Ge15  1  0.75000000  0.50000000  0.95955000  1.0
  Ge  Ge16  1  0.75304000  0.50000000  0.13182000  1.0
  Ge  Ge17  1  0.84922000  0.00000000  0.13365000  1.0
  Pd  Pd18  2  0.00000000  0.25000000  0.95955000  1.0
  Pd  Pd19  2  0.01674000  0.26853000  0.11403000  1.0
  Pd  Pd20  1  0.41941000  0.50000000  0.07500000  1.0
  Pd  Pd21  1  0.50000000  0.00000000  0.87866000  1.0
  Pd  Pd22  1  0.50000000  0.50000000  0.87866000  1.0
  Pd  Pd23  1  0.52536000  0.00000000  0.04401000  1.0
  C  C24  1  0.53893000  0.00000000  0.12995000  1.0
