# generated using pymatgen
data_Y8Sn8Pd16CO
_symmetry_space_group_name_H-M   'P 1'
_cell_length_a   6.84524000
_cell_length_b   9.68063000
_cell_length_c   27.26050000
_cell_angle_alpha   90.00000000
_cell_angle_beta   90.00000000
_cell_angle_gamma   90.00000000
_symmetry_Int_Tables_number   1
_chemical_formula_structural   Y8Sn8Pd16CO
_chemical_formula_sum   'Y8 Sn8 Pd16 C1 O1'
_cell_volume   1806.45071833
_cell_formula_units_Z   1
loop_
 _symmetry_equiv_pos_site_id
 _symmetry_equiv_pos_as_xyz
  1  'x, y, z'
loop_
 _atom_site_type_symbol
 _atom_site_label
 _atom_site_symmetry_multiplicity
 _atom_site_fract_x
 _atom_site_fract_y
 _atom_site_fract_z
 _atom_site_occupancy
  Y  Y0  1  0.00000000  0.75000000  0.86683000  1.0
  Y  Y1  1  0.50000000  0.00000000  0.95561000  1.0
  Y  Y2  1  0.50000000  0.50000000  0.95561000  1.0
  Y  Y3  1  0.00000000  0.25000000  0.86683000  1.0
  Y  Y4  1  0.00000000  0.25267000  0.04361000  1.0
  Y  Y5  1  0.50000000  0.50000000  0.13773000  1.0
  Y  Y6  1  0.50000000  0.00000000  0.13553000  1.0
  Y  Y7  1  0.00000000  0.74733000  0.04361000  1.0
  Sn  Sn8  1  0.00000000  0.50000000  0.95561000  1.0
  Sn  Sn9  1  0.50000000  0.75000000  0.86683000  1.0
  Sn  Sn10  1  0.00000000  0.00000000  0.95561000  1.0
  Sn  Sn11  1  0.50000000  0.25000000  0.86683000  1.0
  Sn  Sn12  1  0.00000000  0.00000000  0.13347000  1.0
  Sn  Sn13  1  0.50000000  0.24874000  0.04717000  1.0
  Sn  Sn14  1  0.00000000  0.50000000  0.13415000  1.0
  Sn  Sn15  1  0.50000000  0.75126000  0.04717000  1.0
  Pd  Pd16  1  0.25000000  0.75000000  0.95561000  1.0
  Pd  Pd17  1  0.75000000  0.25000000  0.95561000  1.0
  Pd  Pd18  1  0.75000000  0.75000000  0.95561000  1.0
  Pd  Pd19  1  0.25000000  0.25000000  0.95561000  1.0
  Pd  Pd20  1  0.75000000  0.50000000  0.86683000  1.0
  Pd  Pd21  1  0.25000000  0.00000000  0.86683000  1.0
  Pd  Pd22  1  0.25000000  0.50000000  0.86683000  1.0
  Pd  Pd23  1  0.75000000  0.00000000  0.86683000  1.0
  Pd  Pd24  1  0.23629000  0.25151000  0.12901000  1.0
  Pd  Pd25  1  0.76371000  0.74849000  0.12901000  1.0
  Pd  Pd26  1  0.76371000  0.25151000  0.12901000  1.0
  Pd  Pd27  1  0.23629000  0.74849000  0.12901000  1.0
  Pd  Pd28  1  0.74461000  0.00000000  0.04637000  1.0
  Pd  Pd29  1  0.26905000  0.50000000  0.04920000  1.0
  Pd  Pd30  1  0.25539000  0.00000000  0.04637000  1.0
  Pd  Pd31  1  0.73095000  0.50000000  0.04920000  1.0
  C  C32  1  0.50000000  0.00000000  0.22969000  1.0
  O  O33  1  0.50000000  0.00000000  0.27160000  1.0
