# generated using pymatgen
data_Y8Sn8Pd16CO
_symmetry_space_group_name_H-M   Pmm2
_cell_length_a   6.84524000
_cell_length_b   9.68063000
_cell_length_c   27.26050000
_cell_angle_alpha   90.00000000
_cell_angle_beta   90.00000000
_cell_angle_gamma   90.00000000
_symmetry_Int_Tables_number   25
_chemical_formula_structural   Y8Sn8Pd16CO
_chemical_formula_sum   'Y8 Sn8 Pd16 C1 O1'
_cell_volume   1806.45071833
_cell_formula_units_Z   1
loop_
 _symmetry_equiv_pos_site_id
 _symmetry_equiv_pos_as_xyz
  1  'x, y, z'
  2  '-x, -y, z'
  3  '-x, y, z'
  4  'x, -y, z'
loop_
 _atom_site_type_symbol
 _atom_site_label
 _atom_site_symmetry_multiplicity
 _atom_site_fract_x
 _atom_site_fract_y
 _atom_site_fract_z
 _atom_site_occupancy
  Y  Y0  2  0.00000000  0.25000000  0.86683000  1.0
  Y  Y1  2  0.00000000  0.25267000  0.04361000  1.0
  Y  Y2  1  0.50000000  0.00000000  0.13553000  1.0
  Y  Y3  1  0.50000000  0.00000000  0.95561000  1.0
  Y  Y4  1  0.50000000  0.50000000  0.13773000  1.0
  Y  Y5  1  0.50000000  0.50000000  0.95561000  1.0
  Sn  Sn6  2  0.50000000  0.24874000  0.04717000  1.0
  Sn  Sn7  2  0.50000000  0.25000000  0.86683000  1.0
  Sn  Sn8  1  0.00000000  0.00000000  0.13347000  1.0
  Sn  Sn9  1  0.00000000  0.00000000  0.95561000  1.0
  Sn  Sn10  1  0.00000000  0.50000000  0.13415000  1.0
  Sn  Sn11  1  0.00000000  0.50000000  0.95561000  1.0
  Pd  Pd12  4  0.23629000  0.25151000  0.12901000  1.0
  Pd  Pd13  4  0.25000000  0.25000000  0.95561000  1.0
  Pd  Pd14  2  0.25000000  0.00000000  0.86683000  1.0
  Pd  Pd15  2  0.25000000  0.50000000  0.86683000  1.0
  Pd  Pd16  2  0.25539000  0.00000000  0.04637000  1.0
  Pd  Pd17  2  0.26905000  0.50000000  0.04920000  1.0
  C  C18  1  0.50000000  0.00000000  0.22969000  1.0
  O  O19  1  0.50000000  0.00000000  0.27160000  1.0
