# generated using pymatgen
data_Li16Al8Pd8CO
_symmetry_space_group_name_H-M   P1
_cell_length_a   6.13337000
_cell_length_b   8.67390000
_cell_length_c   26.50540000
_cell_angle_alpha   90.00000000
_cell_angle_beta   90.00000000
_cell_angle_gamma   90.00000000
_symmetry_Int_Tables_number   1
_chemical_formula_structural   Li16Al8Pd8CO
_chemical_formula_sum   'Li16 Al8 Pd8 C1 O1'
_cell_volume   1410.09358942
_cell_formula_units_Z   1
loop_
 _symmetry_equiv_pos_site_id
 _symmetry_equiv_pos_as_xyz
  1  'x, y, z'
loop_
 _atom_site_type_symbol
 _atom_site_label
 _atom_site_symmetry_multiplicity
 _atom_site_fract_x
 _atom_site_fract_y
 _atom_site_fract_z
 _atom_site_occupancy
  Li  Li0  1  0.00000000  0.25000000  0.95909000  1.0
  Li  Li1  1  0.00000000  0.75000000  0.95909000  1.0
  Li  Li2  1  0.25000000  0.00000000  0.95909000  1.0
  Li  Li3  1  0.25000000  0.50000000  0.95909000  1.0
  Li  Li4  1  0.26601000  0.49433000  0.12784000  1.0
  Li  Li5  1  0.26637000  0.00578000  0.12793000  1.0
  Li  Li6  1  0.49728000  0.49449000  0.03884000  1.0
  Li  Li7  1  0.49737000  0.00579000  0.03887000  1.0
  Li  Li8  1  0.50000000  0.00000000  0.87728000  1.0
  Li  Li9  1  0.50000000  0.50000000  0.87728000  1.0
  Li  Li10  1  0.75000000  0.25000000  0.87728000  1.0
  Li  Li11  1  0.75000000  0.75000000  0.87728000  1.0
  Li  Li12  1  0.76806000  0.25009000  0.04117000  1.0
  Li  Li13  1  0.76959000  0.75009000  0.03634000  1.0
  Li  Li14  1  0.97299000  0.24999000  0.14196000  1.0
  Li  Li15  1  0.99342000  0.75010000  0.12493000  1.0
  Al  Al16  1  0.00000000  0.00000000  0.87728000  1.0
  Al  Al17  1  0.00000000  0.50000000  0.87728000  1.0
  Al  Al18  1  0.01262000  0.99898000  0.04069000  1.0
  Al  Al19  1  0.01278000  0.50127000  0.04060000  1.0
  Al  Al20  1  0.50000000  0.25000000  0.95909000  1.0
  Al  Al21  1  0.50000000  0.75000000  0.95909000  1.0
  Al  Al22  1  0.52740000  0.74994000  0.11500000  1.0
  Al  Al23  1  0.53058000  0.25012000  0.12097000  1.0
  Pd  Pd24  1  0.24636000  0.25008000  0.04381000  1.0
  Pd  Pd25  1  0.25000000  0.25000000  0.87728000  1.0
  Pd  Pd26  1  0.25000000  0.75000000  0.87728000  1.0
  Pd  Pd27  1  0.25732000  0.75010000  0.04128000  1.0
  Pd  Pd28  1  0.74551000  0.99814000  0.11325000  1.0
  Pd  Pd29  1  0.74581000  0.50214000  0.11316000  1.0
  Pd  Pd30  1  0.75000000  0.00000000  0.95909000  1.0
  Pd  Pd31  1  0.75000000  0.50000000  0.95909000  1.0
  C  C32  1  0.31727000  0.25035000  0.17340000  1.0
  O  O33  1  0.16577000  0.25010000  0.20289000  1.0
