# generated using pymatgen
data_K16CO
_symmetry_space_group_name_H-M   P1
_cell_length_a   9.98137000
_cell_length_b   9.98137000
_cell_length_c   27.48600000
_cell_angle_alpha   90.00000000
_cell_angle_beta   90.00000000
_cell_angle_gamma   90.00000000
_symmetry_Int_Tables_number   1
_chemical_formula_structural   K16CO
_chemical_formula_sum   'K16 C1 O1'
_cell_volume   2738.36825616
_cell_formula_units_Z   1
loop_
 _symmetry_equiv_pos_site_id
 _symmetry_equiv_pos_as_xyz
  1  'x, y, z'
loop_
 _atom_site_type_symbol
 _atom_site_label
 _atom_site_symmetry_multiplicity
 _atom_site_fract_x
 _atom_site_fract_y
 _atom_site_fract_z
 _atom_site_occupancy
  K  K0  1  0.00000000  0.00000000  0.86382000  1.0
  K  K1  1  0.00000000  0.50000000  0.86382000  1.0
  K  K2  1  0.24999000  0.74989000  0.17878000  1.0
  K  K3  1  0.25000000  0.25000000  0.95461000  1.0
  K  K4  1  0.25000000  0.75000000  0.95461000  1.0
  K  K5  1  0.25002000  0.25004000  0.15054000  1.0
  K  K6  1  0.50000000  0.00000000  0.86382000  1.0
  K  K7  1  0.50000000  0.50000000  0.86382000  1.0
  K  K8  1  0.51480000  0.98499000  0.06443000  1.0
  K  K9  1  0.51484000  0.51504000  0.06440000  1.0
  K  K10  1  0.74992000  0.25002000  0.17840000  1.0
  K  K11  1  0.74995000  0.74996000  0.18471000  1.0
  K  K12  1  0.75000000  0.25000000  0.95461000  1.0
  K  K13  1  0.75000000  0.75000000  0.95461000  1.0
  K  K14  1  0.98521000  0.51504000  0.06443000  1.0
  K  K15  1  0.98521000  0.98500000  0.06449000  1.0
  C  C16  1  0.25012000  0.25010000  0.25976000  1.0
  O  O17  1  0.25041000  0.25039000  0.30145000  1.0
