# generated using pymatgen
data_Li8Y8Sn8Pd8CO
_symmetry_space_group_name_H-M   Pm
_cell_length_a   6.77715000
_cell_length_b   9.58434000
_cell_length_c   27.18830000
_cell_angle_alpha   90.00000000
_cell_angle_beta   90.00000000
_cell_angle_gamma   90.00000000
_symmetry_Int_Tables_number   6
_chemical_formula_structural   Li8Y8Sn8Pd8CO
_chemical_formula_sum   'Li8 Y8 Sn8 Pd8 C1 O1'
_cell_volume   1766.00269964
_cell_formula_units_Z   1
loop_
 _symmetry_equiv_pos_site_id
 _symmetry_equiv_pos_as_xyz
  1  'x, y, z'
  2  'x, -y, z'
loop_
 _atom_site_type_symbol
 _atom_site_label
 _atom_site_symmetry_multiplicity
 _atom_site_fract_x
 _atom_site_fract_y
 _atom_site_fract_z
 _atom_site_occupancy
  Li  Li0  2  0.50000000  0.25001000  0.95594000  1.0
  Li  Li1  2  0.67923000  0.25242000  0.18112000  1.0
  Li  Li2  1  0.00000000  0.50000000  0.86781000  1.0
  Li  Li3  1  0.00000000  0.00000000  0.86781000  1.0
  Li  Li4  1  0.00434000  0.50000000  0.04642000  1.0
  Li  Li5  1  0.00539000  0.00000000  0.04702000  1.0
  Y  Y6  2  0.74216000  0.24909000  0.04846000  1.0
  Y  Y7  2  0.75000000  0.24999000  0.86781000  1.0
  Y  Y8  1  0.25000000  0.00000000  0.95594000  1.0
  Y  Y9  1  0.25000000  0.50000000  0.95594000  1.0
  Y  Y10  1  0.27826000  0.50000000  0.13219000  1.0
  Y  Y11  1  0.27917000  0.00000000  0.13211000  1.0
  Sn  Sn12  2  0.25000000  0.24999000  0.86781000  1.0
  Sn  Sn13  2  0.25543000  0.25040000  0.04356000  1.0
  Sn  Sn14  1  0.75000000  0.00000000  0.95594000  1.0
  Sn  Sn15  1  0.75000000  0.50000000  0.95594000  1.0
  Sn  Sn16  1  0.76197000  0.00000000  0.13500000  1.0
  Sn  Sn17  1  0.76472000  0.50000000  0.13342000  1.0
  Pd  Pd18  2  -0.00000000  0.24999000  0.95594000  1.0
  Pd  Pd19  2  0.01469000  0.24710000  0.12578000  1.0
  Pd  Pd20  1  0.49585000  0.00000000  0.04266000  1.0
  Pd  Pd21  1  0.50000000  0.00000000  0.86781000  1.0
  Pd  Pd22  1  0.50000000  0.50000000  0.86781000  1.0
  Pd  Pd23  1  0.50260000  0.50000000  0.04144000  1.0
  C  C24  1  0.28308000  0.50000000  0.22367000  1.0
  O  O25  1  0.27451000  0.50000000  0.26609000  1.0
