data_image0
_chemical_formula_structural       Sc8In8Ge8Pd8CO
_chemical_formula_sum              "Sc8 In8 Ge8 Pd8 C1 O1"
_cell_length_a       9.28368
_cell_length_b       7.76578
_cell_length_c       26.2854
_cell_angle_alpha    90
_cell_angle_beta     90
_cell_angle_gamma    90

_space_group_name_H-M_alt    "P 1"
_space_group_IT_number       1

loop_
  _space_group_symop_operation_xyz
  'x, y, z'

loop_
  _atom_site_type_symbol
  _atom_site_label
  _atom_site_symmetry_multiplicity
  _atom_site_fract_x
  _atom_site_fract_y
  _atom_site_fract_z
  _atom_site_occupancy
  Sc  Sc1       1.0  0.00019  0.25001  0.03848  1.0000
  Sc  Sc2       1.0  0.00000  0.25000  0.88044  1.0000
  Sc  Sc3       1.0  0.99710  0.74999  0.03797  1.0000
  Sc  Sc4       1.0  0.00000  0.75000  0.88044  1.0000
  Sc  Sc5       1.0  0.49981  0.25000  0.03847  1.0000
  Sc  Sc6       1.0  0.50000  0.25000  0.88044  1.0000
  Sc  Sc7       1.0  0.50293  0.74999  0.03799  1.0000
  Sc  Sc8       1.0  0.50000  0.75000  0.88044  1.0000
  In  In1       1.0  0.25002  0.25036  0.12050  1.0000
  In  In2       1.0  0.25000  0.25000  0.96015  1.0000
  In  In3       1.0  0.25005  0.75006  0.13466  1.0000
  In  In4       1.0  0.25000  0.75000  0.96015  1.0000
  In  In5       1.0  0.75002  0.25005  0.13049  1.0000
  In  In6       1.0  0.75000  0.25000  0.96015  1.0000
  In  In7       1.0  0.75001  0.75010  0.13128  1.0000
  In  In8       1.0  0.75000  0.75000  0.96015  1.0000
  Ge  Ge1       1.0  0.00091  0.99629  0.12058  1.0000
  Ge  Ge2       1.0  0.00000  0.00000  0.96015  1.0000
  Ge  Ge3       1.0  0.00136  0.50377  0.12063  1.0000
  Ge  Ge4       1.0  0.00000  0.50000  0.96015  1.0000
  Ge  Ge5       1.0  0.49887  0.99635  0.12056  1.0000
  Ge  Ge6       1.0  0.50000  0.00000  0.96015  1.0000
  Ge  Ge7       1.0  0.49900  0.50367  0.12062  1.0000
  Ge  Ge8       1.0  0.50000  0.50000  0.96015  1.0000
  Pd  Pd1       1.0  0.24996  0.98512  0.04339  1.0000
  Pd  Pd2       1.0  0.25000  0.00000  0.88044  1.0000
  Pd  Pd3       1.0  0.24996  0.51516  0.04332  1.0000
  Pd  Pd4       1.0  0.25000  0.50000  0.88044  1.0000
  Pd  Pd5       1.0  0.75002  0.00244  0.04455  1.0000
  Pd  Pd6       1.0  0.75000  0.00000  0.88044  1.0000
  Pd  Pd7       1.0  0.75003  0.49768  0.04456  1.0000
  Pd  Pd8       1.0  0.75000  0.50000  0.88044  1.0000
  C   C1        1.0  0.25012  0.24627  0.24273  1.0000
  O   O1        1.0  0.24992  0.25077  0.28587  1.0000
