# generated using pymatgen
data_Sc8In8Ge8Pd8CO
_symmetry_space_group_name_H-M   'P 1'
_cell_length_a   7.76578000
_cell_length_b   9.28368000
_cell_length_c   26.28540000
_cell_angle_alpha   90.00000000
_cell_angle_beta   90.00000000
_cell_angle_gamma   90.00000000
_symmetry_Int_Tables_number   1
_chemical_formula_structural   Sc8In8Ge8Pd8CO
_chemical_formula_sum   'Sc8 In8 Ge8 Pd8 C1 O1'
_cell_volume   1895.04634593
_cell_formula_units_Z   1
loop_
 _symmetry_equiv_pos_site_id
 _symmetry_equiv_pos_as_xyz
  1  'x, y, z'
loop_
 _atom_site_type_symbol
 _atom_site_label
 _atom_site_symmetry_multiplicity
 _atom_site_fract_x
 _atom_site_fract_y
 _atom_site_fract_z
 _atom_site_occupancy
  Sc  Sc0  1  0.24985000  0.99993000  0.96159000  1.0
  Sc  Sc1  1  0.25000000  0.00000000  0.11956000  1.0
  Sc  Sc2  1  0.74987000  0.99986000  0.96183000  1.0
  Sc  Sc3  1  0.75000000  0.00000000  0.11956000  1.0
  Sc  Sc4  1  0.25002000  0.50029000  0.96151000  1.0
  Sc  Sc5  1  0.25000000  0.50000000  0.11956000  1.0
  Sc  Sc6  1  0.74991000  0.50060000  0.96186000  1.0
  Sc  Sc7  1  0.75000000  0.50000000  0.11956000  1.0
  In  In8  1  0.25039000  0.25010000  0.87301000  1.0
  In  In9  1  0.25000000  0.25000000  0.03985000  1.0
  In  In10  1  0.74984000  0.24988000  0.86845000  1.0
  In  In11  1  0.75000000  0.25000000  0.03985000  1.0
  In  In12  1  0.24962000  0.75002000  0.87019000  1.0
  In  In13  1  0.25000000  0.75000000  0.03985000  1.0
  In  In14  1  0.74952000  0.74990000  0.87036000  1.0
  In  In15  1  0.75000000  0.75000000  0.03985000  1.0
  Ge  Ge16  1  0.99797000  0.99732000  0.87923000  1.0
  Ge  Ge17  1  0.00000000  0.00000000  0.03985000  1.0
  Ge  Ge18  1  0.50140000  0.00263000  0.87902000  1.0
  Ge  Ge19  1  0.50000000  0.00000000  0.03985000  1.0
  Ge  Ge20  1  0.99803000  0.49752000  0.87932000  1.0
  Ge  Ge21  1  0.00000000  0.50000000  0.03985000  1.0
  Ge  Ge22  1  0.50109000  0.50188000  0.87899000  1.0
  Ge  Ge23  1  0.50000000  0.50000000  0.03985000  1.0
  Pd  Pd24  1  0.99503000  0.24996000  0.95632000  1.0
  Pd  Pd25  1  0.00000000  0.25000000  0.11956000  1.0
  Pd  Pd26  1  0.50514000  0.25046000  0.95649000  1.0
  Pd  Pd27  1  0.50000000  0.25000000  0.11956000  1.0
  Pd  Pd28  1  0.99999000  0.74978000  0.95629000  1.0
  Pd  Pd29  1  0.00000000  0.75000000  0.11956000  1.0
  Pd  Pd30  1  0.49937000  0.75079000  0.95632000  1.0
  Pd  Pd31  1  0.50000000  0.75000000  0.11956000  1.0
  C  C32  1  0.23082000  0.24844000  0.72975000  1.0
  O  O33  1  0.28407000  0.24970000  0.68957000  1.0
