data_image0
_chemical_formula_structural       Li8Sc8In8Ga8CO
_chemical_formula_sum              "Li8 Sc8 In8 Ga8 C1 O1"
_cell_length_a       8.37318
_cell_length_b       8.86716
_cell_length_c       26.1734
_cell_angle_alpha    90
_cell_angle_beta     90
_cell_angle_gamma    90

_space_group_name_H-M_alt    "P 1"
_space_group_IT_number       1

loop_
  _space_group_symop_operation_xyz
  'x, y, z'

loop_
  _atom_site_type_symbol
  _atom_site_label
  _atom_site_symmetry_multiplicity
  _atom_site_fract_x
  _atom_site_fract_y
  _atom_site_fract_z
  _atom_site_occupancy
  Li  Li1       1.0  0.24934  0.24948  0.12962  1.0000
  Li  Li2       1.0  0.25000  0.25000  0.96069  1.0000
  Li  Li3       1.0  0.24935  0.75052  0.12961  1.0000
  Li  Li4       1.0  0.25000  0.75000  0.96069  1.0000
  Li  Li5       1.0  0.75065  0.24948  0.12961  1.0000
  Li  Li6       1.0  0.75000  0.25000  0.96069  1.0000
  Li  Li7       1.0  0.75065  0.75052  0.12961  1.0000
  Li  Li8       1.0  0.75000  0.75000  0.96069  1.0000
  Sc  Sc1       1.0  0.24925  1.00000  0.04046  1.0000
  Sc  Sc2       1.0  0.25000  0.00000  0.88207  1.0000
  Sc  Sc3       1.0  0.25202  0.50000  0.04101  1.0000
  Sc  Sc4       1.0  0.25000  0.50000  0.88207  1.0000
  Sc  Sc5       1.0  0.75075  0.00000  0.04047  1.0000
  Sc  Sc6       1.0  0.75000  0.00000  0.88207  1.0000
  Sc  Sc7       1.0  0.74797  0.50000  0.04100  1.0000
  Sc  Sc8       1.0  0.75000  0.50000  0.88207  1.0000
  In  In1       1.0  0.00000  0.25286  0.04300  1.0000
  In  In2       1.0  0.00000  0.25000  0.88207  1.0000
  In  In3       1.0  1.00000  0.74714  0.04301  1.0000
  In  In4       1.0  0.00000  0.75000  0.88207  1.0000
  In  In5       1.0  0.50000  0.24941  0.04396  1.0000
  In  In6       1.0  0.50000  0.25000  0.88207  1.0000
  In  In7       1.0  0.50000  0.75059  0.04396  1.0000
  In  In8       1.0  0.50000  0.75000  0.88207  1.0000
  Ga  Ga1       1.0  0.99999  1.00000  0.11553  1.0000
  Ga  Ga2       1.0  0.00000  0.00000  0.96069  1.0000
  Ga  Ga3       1.0  0.99998  0.50001  0.11771  1.0000
  Ga  Ga4       1.0  0.00000  0.50000  0.96069  1.0000
  Ga  Ga5       1.0  0.49999  0.99999  0.11622  1.0000
  Ga  Ga6       1.0  0.50000  0.00000  0.96069  1.0000
  Ga  Ga7       1.0  0.50001  0.50000  0.11814  1.0000
  Ga  Ga8       1.0  0.50000  0.50000  0.96069  1.0000
  C   C1        1.0  0.00000  0.99999  0.19094  1.0000
  O   O1        1.0  0.00001  0.99999  0.23553  1.0000
