# generated using pymatgen
data_Li8Ga4Rh4C
_symmetry_space_group_name_H-M   'P 1'
_cell_length_a   6.03399000
_cell_length_b   6.03399000
_cell_length_c   24.52550000
_cell_angle_alpha   90.00000000
_cell_angle_beta   90.00000000
_cell_angle_gamma   90.00000000
_symmetry_Int_Tables_number   1
_chemical_formula_structural   Li8Ga4Rh4C
_chemical_formula_sum   'Li8 Ga4 Rh4 C1'
_cell_volume   892.94979574
_cell_formula_units_Z   1
loop_
 _symmetry_equiv_pos_site_id
 _symmetry_equiv_pos_as_xyz
  1  'x, y, z'
loop_
 _atom_site_type_symbol
 _atom_site_label
 _atom_site_symmetry_multiplicity
 _atom_site_fract_x
 _atom_site_fract_y
 _atom_site_fract_z
 _atom_site_occupancy
  Li  Li0  1  0.99999500  0.99999500  0.03075000  1
  Li  Li1  1  0.99106000  0.50877000  0.88589000  1
  Li  Li2  1  0.50877000  0.99106000  0.88589000  1
  Li  Li3  1  0.49999500  0.49999500  0.03075000  1
  Li  Li4  1  0.24999500  0.24999500  0.09226000  1
  Li  Li5  1  0.75022000  0.24970000  0.96288000  1
  Li  Li6  1  0.74999500  0.74999500  0.09226000  1
  Li  Li7  1  0.24970000  0.75022000  0.96288000  1
  Ga  Ga8  1  0.25022500  0.25022500  0.97587000  1
  Ga  Ga9  1  0.75000000  0.24999000  0.09226000  1
  Ga  Ga10  1  0.74938000  0.74938000  0.96527000  1
  Ga  Ga11  1  0.24999000  0.75000000  0.09226000  1
  Rh  Rh12  1  0.04018500  0.04018500  0.90334000  1
  Rh  Rh13  1  0.45912000  0.45912000  0.90323000  1
  Rh  Rh14  1  0.00000000  0.49999000  0.03075000  1
  Rh  Rh15  1  0.49999000  1.00000000  0.03075000  1
  C  C16  1  0.24947000  0.24947000  0.88275000  1
