# generated using pymatgen
data_Li8Ga4Rh4C
_symmetry_space_group_name_H-M   Cm
_cell_length_a   8.53335049
_cell_length_b   8.53335049
_cell_length_c   24.52550000
_cell_angle_alpha   90.00000000
_cell_angle_beta   90.00000000
_cell_angle_gamma   90.00000000
_symmetry_Int_Tables_number   8
_chemical_formula_structural   Li8Ga4Rh4C
_chemical_formula_sum   'Li16 Ga8 Rh8 C2'
_cell_volume   1785.89959149
_cell_formula_units_Z   2
loop_
 _symmetry_equiv_pos_site_id
 _symmetry_equiv_pos_as_xyz
  1  'x, y, z'
  2  'x, -y, z'
  3  'x+1/2, y+1/2, z'
  4  'x+1/2, -y+1/2, z'
loop_
 _atom_site_type_symbol
 _atom_site_label
 _atom_site_symmetry_multiplicity
 _atom_site_fract_x
 _atom_site_fract_y
 _atom_site_fract_z
 _atom_site_occupancy
  Li  Li0  4  0.24991500  0.25885500  0.11411000  1.0
  Li  Li1  4  0.49996000  0.25026000  0.03712000  1.0
  Li  Li2  2  0.24999500  0.00000000  0.90774000  1.0
  Li  Li3  2  0.24999500  0.50000000  0.90774000  1.0
  Li  Li4  2  0.49999500  0.00000000  0.96925000  1.0
  Li  Li5  2  0.49999500  0.50000000  0.96925000  1.0
  Ga  Ga6  4  0.49999500  0.25000500  0.90774000  1.0
  Ga  Ga7  2  0.24938000  0.50000000  0.03473000  1.0
  Ga  Ga8  2  0.25022500  0.00000000  0.02413000  1.0
  Rh  Rh9  4  0.24999500  0.24999500  0.96925000  1.0
  Rh  Rh10  2  0.04018500  0.00000000  0.09666000  1.0
  Rh  Rh11  2  0.45912000  0.00000000  0.09677000  1.0
  C  C12  2  0.24947000  0.00000000  0.11725000  1.0
