# generated using pymatgen
data_Y4In4Sn4Pd4CO
_symmetry_space_group_name_H-M   Pm
_cell_length_a   6.44465000
_cell_length_b   8.73372000
_cell_length_c   24.83320000
_cell_angle_alpha   90.00000000
_cell_angle_beta   90.00000000
_cell_angle_gamma   90.00000000
_symmetry_Int_Tables_number   6
_chemical_formula_structural   Y4In4Sn4Pd4CO
_chemical_formula_sum   'Y4 In4 Sn4 Pd4 C1 O1'
_cell_volume   1397.75574875
_cell_formula_units_Z   1
loop_
 _symmetry_equiv_pos_site_id
 _symmetry_equiv_pos_as_xyz
  1  'x, y, z'
  2  'x, -y, z'
loop_
 _atom_site_type_symbol
 _atom_site_label
 _atom_site_symmetry_multiplicity
 _atom_site_fract_x
 _atom_site_fract_y
 _atom_site_fract_z
 _atom_site_occupancy
  Y  Y0  2  0.01407000  0.24782000  0.96286000  1.0
  Y  Y1  2  0.50000000  0.25000000  0.09731000  1.0
  In  In2  2  0.00000000  0.25000000  0.09731000  1.0
  In  In3  2  0.52713000  0.24435000  0.96522000  1.0
  Sn  Sn4  1  0.25275000  0.00000000  0.03244000  1.0
  Sn  Sn5  1  0.25275000  0.50000000  0.03244000  1.0
  Sn  Sn6  1  0.73529000  0.50000000  0.90449000  1.0
  Sn  Sn7  1  0.74028000  0.00000000  0.90061000  1.0
  Pd  Pd8  1  0.26949000  0.00000000  0.91881000  1.0
  Pd  Pd9  1  0.27172000  0.50000000  0.91779000  1.0
  Pd  Pd10  1  0.75275000  0.00000000  0.03244000  1.0
  Pd  Pd11  1  0.75275000  0.50000000  0.03244000  1.0
  C  C12  1  0.25242000  0.50000000  0.83886000  1.0
  O  O13  1  0.24613000  0.50000000  0.79260000  1.0
