data_image0
_chemical_formula_structural       V8Co16Si8C
_chemical_formula_sum              "V8 Co16 Si8 C1"
_cell_length_a       5.68381
_cell_length_b       8.03813
_cell_length_c       26.0286
_cell_angle_alpha    90
_cell_angle_beta     90
_cell_angle_gamma    90

_space_group_name_H-M_alt    "P 1"
_space_group_IT_number       1

loop_
  _space_group_symop_operation_xyz
  'x, y, z'

loop_
  _atom_site_type_symbol
  _atom_site_label
  _atom_site_symmetry_multiplicity
  _atom_site_fract_x
  _atom_site_fract_y
  _atom_site_fract_z
  _atom_site_occupancy
  V   V1        1.0  0.00000  0.00000  0.88419  1.0000
  V   V2        1.0  0.50000  0.25000  0.96140  1.0000
  V   V3        1.0  0.50000  0.75000  0.96140  1.0000
  V   V4        1.0  0.00000  0.50000  0.88419  1.0000
  V   V5        1.0  1.00000  0.50000  0.03912  1.0000
  V   V6        1.0  0.50000  0.74964  0.11606  1.0000
  V   V7        1.0  0.50000  0.25036  0.11606  1.0000
  V   V8        1.0  1.00000  0.00000  0.03840  1.0000
  Co  Co1       1.0  0.25000  0.00000  0.96140  1.0000
  Co  Co2       1.0  0.75000  0.50000  0.96140  1.0000
  Co  Co3       1.0  0.75000  0.00000  0.96140  1.0000
  Co  Co4       1.0  0.25000  0.50000  0.96140  1.0000
  Co  Co5       1.0  0.75000  0.75000  0.88419  1.0000
  Co  Co6       1.0  0.25000  0.25000  0.88419  1.0000
  Co  Co7       1.0  0.25000  0.75000  0.88419  1.0000
  Co  Co8       1.0  0.75000  0.25000  0.88419  1.0000
  Co  Co9       1.0  0.24951  0.50000  0.11511  1.0000
  Co  Co10      1.0  0.73547  1.00000  0.11477  1.0000
  Co  Co11      1.0  0.75049  0.50000  0.11511  1.0000
  Co  Co12      1.0  0.26453  1.00000  0.11477  1.0000
  Co  Co13      1.0  0.74961  0.24993  0.03865  1.0000
  Co  Co14      1.0  0.25040  0.75007  0.03865  1.0000
  Co  Co15      1.0  0.25039  0.24993  0.03865  1.0000
  Co  Co16      1.0  0.74960  0.75007  0.03865  1.0000
  Si  Si1       1.0  0.00000  0.75000  0.96140  1.0000
  Si  Si2       1.0  0.50000  0.00000  0.88419  1.0000
  Si  Si3       1.0  0.00000  0.25000  0.96140  1.0000
  Si  Si4       1.0  0.50000  0.50000  0.88419  1.0000
  Si  Si5       1.0  1.00000  0.25152  0.11585  1.0000
  Si  Si6       1.0  0.50000  0.50000  0.03904  1.0000
  Si  Si7       1.0  1.00000  0.74848  0.11585  1.0000
  Si  Si8       1.0  0.50000  0.00000  0.03853  1.0000
  C   C1        1.0  1.00000  0.00000  0.14867  1.0000
