# generated using pymatgen
data_Y4Sc4In4Pd4CO
_symmetry_space_group_name_H-M   'P 1'
_cell_length_a   6.25545000
_cell_length_b   9.64246000
_cell_length_c   24.46440000
_cell_angle_alpha   90.00000000
_cell_angle_beta   90.00000000
_cell_angle_gamma   90.00000000
_symmetry_Int_Tables_number   1
_chemical_formula_structural   Y4Sc4In4Pd4CO
_chemical_formula_sum   'Y4 Sc4 In4 Pd4 C1 O1'
_cell_volume   1475.64187879
_cell_formula_units_Z   1
loop_
 _symmetry_equiv_pos_site_id
 _symmetry_equiv_pos_as_xyz
  1  'x, y, z'
loop_
 _atom_site_type_symbol
 _atom_site_label
 _atom_site_symmetry_multiplicity
 _atom_site_fract_x
 _atom_site_fract_y
 _atom_site_fract_z
 _atom_site_occupancy
  Y  Y0  1  0.60408000  0.00005000  0.09214000  1.0
  Y  Y1  1  0.84630000  0.00000000  0.96959000  1.0
  Y  Y2  1  0.56548000  0.49995000  0.08695000  1.0
  Y  Y3  1  0.84630000  0.50000000  0.96959000  1.0
  Sc  Sc4  1  0.14341000  0.24658000  0.02256000  1.0
  Sc  Sc5  1  0.51945000  0.25000000  0.90876000  1.0
  Sc  Sc6  1  0.14343000  0.75341000  0.02256000  1.0
  Sc  Sc7  1  0.51945000  0.75000000  0.90876000  1.0
  In  In8  1  0.10512000  0.99997000  0.09948000  1.0
  In  In9  1  0.34630000  0.00000000  0.96959000  1.0
  In  In10  1  0.07014000  0.50002000  0.09860000  1.0
  In  In11  1  0.34630000  0.50000000  0.96959000  1.0
  Pd  Pd12  1  0.60748000  0.25246000  0.01544000  1.0
  Pd  Pd13  1  0.01945000  0.25000000  0.90876000  1.0
  Pd  Pd14  1  0.60746000  0.74753000  0.01543000  1.0
  Pd  Pd15  1  0.01945000  0.75000000  0.90876000  1.0
  C  C16  1  0.77432000  0.00002000  0.18279000  1.0
  O  O17  1  0.84034000  0.00001000  0.22704000  1.0
