# generated using pymatgen
data_NbGaNi2
_symmetry_space_group_name_H-M   'P 1'
_cell_length_a   4.24496000
_cell_length_b   6.00328000
_cell_length_c   26.36740000
_cell_angle_alpha   90.00000000
_cell_angle_beta   90.00000000
_cell_angle_gamma   90.00000000
_symmetry_Int_Tables_number   1
_chemical_formula_structural   NbGaNi2
_chemical_formula_sum   'Nb4 Ga4 Ni8'
_cell_volume   671.93847550
_cell_formula_units_Z   4
loop_
 _symmetry_equiv_pos_site_id
 _symmetry_equiv_pos_as_xyz
  1  'x, y, z'
loop_
 _atom_site_type_symbol
 _atom_site_label
 _atom_site_symmetry_multiplicity
 _atom_site_fract_x
 _atom_site_fract_y
 _atom_site_fract_z
 _atom_site_occupancy
  Nb  Nb0  1  0.00000000  0.00000000  0.12074000  1.0
  Nb  Nb1  1  0.50000000  0.50000000  0.04025000  1.0
  Nb  Nb2  1  0.00000000  0.00000000  0.96004000  1.0
  Nb  Nb3  1  0.50000000  0.50000000  0.87859500  1.0
  Ga  Ga4  1  0.50000000  0.00000000  0.04025000  1.0
  Ga  Ga5  1  0.00000000  0.50000000  0.12074000  1.0
  Ga  Ga6  1  0.50000000  0.00000000  0.87747000  1.0
  Ga  Ga7  1  0.00000000  0.50000000  0.96065000  1.0
  Ni  Ni8  1  0.00000000  0.75000000  0.04025000  1.0
  Ni  Ni9  1  0.00000000  0.25000000  0.04025000  1.0
  Ni  Ni10  1  0.50000000  0.25000000  0.12074000  1.0
  Ni  Ni11  1  0.50000000  0.75000000  0.12074000  1.0
  Ni  Ni12  1  0.00000000  0.74550500  0.88318000  1.0
  Ni  Ni13  1  0.00000000  0.25449500  0.88318000  1.0
  Ni  Ni14  1  0.50000000  0.25672000  0.95690000  1.0
  Ni  Ni15  1  0.50000000  0.74328000  0.95690000  1.0
