# generated using pymatgen
data_Hf8Pt8CO
_symmetry_space_group_name_H-M   'P 1'
_cell_length_a   6.65903000
_cell_length_b   6.65903000
_cell_length_c   24.99430000
_cell_angle_alpha   90.00000000
_cell_angle_beta   90.00000000
_cell_angle_gamma   90.00000000
_symmetry_Int_Tables_number   1
_chemical_formula_structural   Hf8Pt8CO
_chemical_formula_sum   'Hf8 Pt8 C1 O1'
_cell_volume   1108.31426024
_cell_formula_units_Z   1
loop_
 _symmetry_equiv_pos_site_id
 _symmetry_equiv_pos_as_xyz
  1  'x, y, z'
loop_
 _atom_site_type_symbol
 _atom_site_label
 _atom_site_symmetry_multiplicity
 _atom_site_fract_x
 _atom_site_fract_y
 _atom_site_fract_z
 _atom_site_occupancy
  Hf  Hf0  1  0.00000000  0.00000000  0.96522000  1.0
  Hf  Hf1  1  0.00000000  0.00000000  0.09843000  1.0
  Hf  Hf2  1  0.00000000  0.50000000  0.96522000  1.0
  Hf  Hf3  1  0.00000000  0.50000000  0.09843000  1.0
  Hf  Hf4  1  0.50000000  0.00000000  0.96522000  1.0
  Hf  Hf5  1  0.50000000  0.00000000  0.09843000  1.0
  Hf  Hf6  1  0.50000000  0.50000000  0.96522000  1.0
  Hf  Hf7  1  0.50000000  0.50000000  0.09843000  1.0
  Pt  Pt8  1  0.75000000  0.75000000  0.89861000  1.0
  Pt  Pt9  1  0.75000000  0.75000000  0.03182000  1.0
  Pt  Pt10  1  0.75000000  0.25000000  0.89861000  1.0
  Pt  Pt11  1  0.75000000  0.25000000  0.03182000  1.0
  Pt  Pt12  1  0.25000000  0.75000000  0.89861000  1.0
  Pt  Pt13  1  0.25000000  0.75000000  0.03182000  1.0
  Pt  Pt14  1  0.25000000  0.25000000  0.89861000  1.0
  Pt  Pt15  1  0.25000000  0.25000000  0.03182000  1.0
  C  C16  1  0.00000000  0.00000000  0.17445000  1.0
  O  O17  1  0.00000000  0.00000000  0.22046000  1.0
