# generated using pymatgen
data_LiMgInSn
_symmetry_space_group_name_H-M   'P 1'
_cell_length_a   7.01918000
_cell_length_b   4.96331000
_cell_length_c   27.44500000
_cell_angle_alpha   90.00000000
_cell_angle_beta   90.00000000
_cell_angle_gamma   90.00000000
_symmetry_Int_Tables_number   1
_chemical_formula_structural   LiMgInSn
_chemical_formula_sum   'Li4 Mg4 In4 Sn4'
_cell_volume   956.13896271
_cell_formula_units_Z   4
loop_
 _symmetry_equiv_pos_site_id
 _symmetry_equiv_pos_as_xyz
  1  'x, y, z'
loop_
 _atom_site_type_symbol
 _atom_site_label
 _atom_site_symmetry_multiplicity
 _atom_site_fract_x
 _atom_site_fract_y
 _atom_site_fract_z
 _atom_site_occupancy
  Li  Li0  1  0.25000000  0.00000000  0.95479000  1.0
  Li  Li1  1  0.75000000  0.50000000  0.86437000  1.0
  Li  Li2  1  0.24632000  0.00000000  0.13844000  1.0
  Li  Li3  1  0.74518500  0.50000000  0.04814000  1.0
  Mg  Mg4  1  0.75000000  0.00000000  0.95479000  1.0
  Mg  Mg5  1  0.25000000  0.50000000  0.86437000  1.0
  Mg  Mg6  1  0.75692000  0.00000000  0.14575000  1.0
  Mg  Mg7  1  0.25705000  0.50000000  0.04997000  1.0
  In  In8  1  0.00000000  0.00000000  0.86437000  1.0
  In  In9  1  0.50000000  0.50000000  0.95479000  1.0
  In  In10  1  0.99358000  0.00000000  0.04933000  1.0
  In  In11  1  0.49256000  0.50000000  0.15305500  1.0
  Sn  Sn12  1  0.00000000  0.50000000  0.95479000  1.0
  Sn  Sn13  1  0.50000000  0.00000000  0.86437000  1.0
  Sn  Sn14  1  0.00653500  0.50000000  0.14215000  1.0
  Sn  Sn15  1  0.50806500  0.00000000  0.05066500  1.0
