# generated using pymatgen
data_Li4Y4Ag4Sn4CO
_symmetry_space_group_name_H-M   'P 1'
_cell_length_a   7.11214000
_cell_length_b   7.11214000
_cell_length_c   25.33410000
_cell_angle_alpha   90.00000000
_cell_angle_beta   90.00000000
_cell_angle_gamma   90.00000000
_symmetry_Int_Tables_number   1
_chemical_formula_structural   Li4Y4Ag4Sn4CO
_chemical_formula_sum   'Li4 Y4 Ag4 Sn4 C1 O1'
_cell_volume   1281.46300956
_cell_formula_units_Z   1
loop_
 _symmetry_equiv_pos_site_id
 _symmetry_equiv_pos_as_xyz
  1  'x, y, z'
loop_
 _atom_site_type_symbol
 _atom_site_label
 _atom_site_symmetry_multiplicity
 _atom_site_fract_x
 _atom_site_fract_y
 _atom_site_fract_z
 _atom_site_occupancy
  Li  Li0  1  0.50000000  0.50000000  0.96491000  1
  Li  Li1  1  0.00000000  0.50000000  0.09673000  1
  Li  Li2  1  0.50000000  0.00000000  0.09673000  1
  Li  Li3  1  0.00000000  0.00000000  0.96491000  1
  Y  Y4  1  0.50000000  0.00000000  0.96491000  1
  Y  Y5  1  0.00000000  0.00000000  0.11224000  1
  Y  Y6  1  0.50000000  0.50000000  0.09665000  1
  Y  Y7  1  0.00000000  0.50000000  0.96491000  1
  Ag  Ag8  1  0.75000000  0.25000000  0.89472000  1
  Ag  Ag9  1  0.23342500  0.23342500  0.03663000  1
  Ag  Ag10  1  0.76657500  0.76657500  0.03663000  1
  Ag  Ag11  1  0.25000000  0.75000000  0.89472000  1
  Sn  Sn12  1  0.25000000  0.25000000  0.89472000  1
  Sn  Sn13  1  0.76416000  0.23584000  0.04016000  1
  Sn  Sn14  1  0.23584000  0.76416000  0.04016000  1
  Sn  Sn15  1  0.75000000  0.75000000  0.89472000  1
  C  C16  1  0.50000000  0.50000000  0.19386000  1
  O  O17  1  0.50000000  0.50000000  0.23955000  1
