# generated using pymatgen
data_Ti8In8Ni16CO
_symmetry_space_group_name_H-M   P1
_cell_length_a   6.14958000
_cell_length_b   8.69682000
_cell_length_c   26.52260000
_cell_angle_alpha   90.00000000
_cell_angle_beta   90.00000000
_cell_angle_gamma   90.00000000
_symmetry_Int_Tables_number   1
_chemical_formula_structural   Ti8In8Ni16CO
_chemical_formula_sum   'Ti8 In8 Ni16 C1 O1'
_cell_volume   1418.47613235
_cell_formula_units_Z   1
loop_
 _symmetry_equiv_pos_site_id
 _symmetry_equiv_pos_as_xyz
  1  'x, y, z'
loop_
 _atom_site_type_symbol
 _atom_site_label
 _atom_site_symmetry_multiplicity
 _atom_site_fract_x
 _atom_site_fract_y
 _atom_site_fract_z
 _atom_site_occupancy
  Ti  Ti0  1  0.00000000  0.00000000  0.87704000  1.0
  Ti  Ti1  1  0.00000000  0.50000000  0.87704000  1.0
  Ti  Ti2  1  0.50000000  0.25000000  0.95901000  1.0
  Ti  Ti3  1  0.50000000  0.75000000  0.95901000  1.0
  Ti  Ti4  1  0.50308000  0.25300000  0.12048000  1.0
  Ti  Ti5  1  0.50343000  0.74686000  0.12045000  1.0
  Ti  Ti6  1  0.99911000  0.49986000  0.04355000  1.0
  Ti  Ti7  1  0.99957000  0.99999000  0.04436000  1.0
  In  In8  1  -0.00000000  0.25000000  0.95901000  1.0
  In  In9  1  -0.00000000  0.75000000  0.95901000  1.0
  In  In10  1  0.49334000  0.99988000  0.04019000  1.0
  In  In11  1  0.49997000  0.49998000  0.03832000  1.0
  In  In12  1  0.50000000  0.00000000  0.87704000  1.0
  In  In13  1  0.50000000  0.50000000  0.87704000  1.0
  In  In14  1  0.99828000  0.25250000  0.13329000  1.0
  In  In15  1  0.99841000  0.74740000  0.13330000  1.0
  Ni  Ni16  1  0.24216000  0.74953000  0.04547000  1.0
  Ni  Ni17  1  0.24225000  0.25033000  0.04542000  1.0
  Ni  Ni18  1  0.25000000  0.00000000  0.95901000  1.0
  Ni  Ni19  1  0.25000000  0.25000000  0.87704000  1.0
  Ni  Ni20  1  0.25000000  0.50000000  0.95901000  1.0
  Ni  Ni21  1  0.25000000  0.75000000  0.87704000  1.0
  Ni  Ni22  1  0.25890000  0.49989000  0.11842000  1.0
  Ni  Ni23  1  0.26742000  0.00002000  0.12802000  1.0
  Ni  Ni24  1  0.73925000  0.49997000  0.11885000  1.0
  Ni  Ni25  1  0.75000000  0.00000000  0.95901000  1.0
  Ni  Ni26  1  0.75000000  0.25000000  0.87704000  1.0
  Ni  Ni27  1  0.75000000  0.50000000  0.95901000  1.0
  Ni  Ni28  1  0.75000000  0.75000000  0.87704000  1.0
  Ni  Ni29  1  0.75086000  0.99995000  0.11750000  1.0
  Ni  Ni30  1  0.75577000  0.24941000  0.04462000  1.0
  Ni  Ni31  1  0.75624000  0.75037000  0.04466000  1.0
  C  C32  1  0.36941000  0.00000000  0.19025000  1.0
  O  O33  1  0.41836000  0.00004000  0.23269000  1.0
