# generated using pymatgen
data_LiInGaPd
_symmetry_space_group_name_H-M   Pmm2
_cell_length_a   4.57271813
_cell_length_b   4.57271813
_cell_length_c   24.85010000
_cell_angle_alpha   90.00000000
_cell_angle_beta   90.00000000
_cell_angle_gamma   90.00000000
_symmetry_Int_Tables_number   25
_chemical_formula_structural   LiInGaPd
_chemical_formula_sum   'Li2 In2 Ga2 Pd2'
_cell_volume   519.60940631
_cell_formula_units_Z   2
loop_
 _symmetry_equiv_pos_site_id
 _symmetry_equiv_pos_as_xyz
  1  'x, y, z'
  2  '-x, -y, z'
  3  '-x, y, z'
  4  'x, -y, z'
loop_
 _atom_site_type_symbol
 _atom_site_label
 _atom_site_symmetry_multiplicity
 _atom_site_fract_x
 _atom_site_fract_y
 _atom_site_fract_z
 _atom_site_occupancy
  Li  Li0  1  0.00000000  0.50000000  0.96517000  1.0
  Li  Li1  1  0.50000000  0.00000000  0.09759000  1.0
  In  In2  1  0.00000000  0.00000000  0.03253000  1.0
  In  In3  1  0.50000000  0.50000000  0.88969000  1.0
  Ga  Ga4  1  0.00000000  0.00000000  0.90169000  1.0
  Ga  Ga5  1  0.50000000  0.50000000  0.03253000  1.0
  Pd  Pd6  1  0.00000000  0.50000000  0.09759000  1.0
  Pd  Pd7  1  0.50000000  0.00000000  0.96886000  1.0
