# generated using pymatgen
data_Sc4Ga4Ge4Pd4CO
_symmetry_space_group_name_H-M   'P 1'
_cell_length_a   7.83718000
_cell_length_b   5.89664000
_cell_length_c   24.41460000
_cell_angle_alpha   90.00000000
_cell_angle_beta   90.00000000
_cell_angle_gamma   90.00000000
_symmetry_Int_Tables_number   1
_chemical_formula_structural   Sc4Ga4Ge4Pd4CO
_chemical_formula_sum   'Sc4 Ga4 Ge4 Pd4 C1 O1'
_cell_volume   1128.27261966
_cell_formula_units_Z   1
loop_
 _symmetry_equiv_pos_site_id
 _symmetry_equiv_pos_as_xyz
  1  'x, y, z'
loop_
 _atom_site_type_symbol
 _atom_site_label
 _atom_site_symmetry_multiplicity
 _atom_site_fract_x
 _atom_site_fract_y
 _atom_site_fract_z
 _atom_site_occupancy
  Sc  Sc0  1  0.74999000  0.50000000  0.90959000  1.0
  Sc  Sc1  1  0.75170000  0.04018000  0.03491000  1.0
  Sc  Sc2  1  0.25001000  0.50000000  0.90959000  1.0
  Sc  Sc3  1  0.24830000  0.04018000  0.03491000  1.0
  Ga  Ga4  1  0.74999000  0.00000000  0.90959000  1.0
  Ga  Ga5  1  0.75521000  0.55132000  0.03452000  1.0
  Ga  Ga6  1  0.25001000  0.00000000  0.90959000  1.0
  Ga  Ga7  1  0.24479000  0.55132000  0.03452000  1.0
  Ge  Ge8  1  0.50000000  0.26491000  0.96986000  1.0
  Ge  Ge9  1  0.50000000  0.76509000  0.08368000  1.0
  Ge  Ge10  1  0.00000000  0.26491000  0.96986000  1.0
  Ge  Ge11  1  0.00000000  0.77021000  0.08753000  1.0
  Pd  Pd12  1  0.50000000  0.76491000  0.96986000  1.0
  Pd  Pd13  1  0.50000000  0.30323000  0.08504000  1.0
  Pd  Pd14  1  0.00000000  0.76491000  0.96986000  1.0
  Pd  Pd15  1  0.00000000  0.30426000  0.08409000  1.0
  C  C16  1  0.50000000  0.28232000  0.16623000  1.0
  O  O17  1  0.50000000  0.28343000  0.21321000  1.0
