# generated using pymatgen
data_Sc4Ga4Ge4Pd4CO
_symmetry_space_group_name_H-M   Pm
_cell_length_a   5.89664000
_cell_length_b   7.83718000
_cell_length_c   24.41460000
_cell_angle_alpha   90.00000000
_cell_angle_beta   90.00000000
_cell_angle_gamma   90.00000000
_symmetry_Int_Tables_number   6
_chemical_formula_structural   Sc4Ga4Ge4Pd4CO
_chemical_formula_sum   'Sc4 Ga4 Ge4 Pd4 C1 O1'
_cell_volume   1128.27261966
_cell_formula_units_Z   1
loop_
 _symmetry_equiv_pos_site_id
 _symmetry_equiv_pos_as_xyz
  1  'x, y, z'
  2  'x, -y, z'
loop_
 _atom_site_type_symbol
 _atom_site_label
 _atom_site_symmetry_multiplicity
 _atom_site_fract_x
 _atom_site_fract_y
 _atom_site_fract_z
 _atom_site_occupancy
  Sc  Sc0  2  0.04018000  0.24830000  0.96509000  1.0
  Sc  Sc1  2  0.50000000  0.25001000  0.09041000  1.0
  Ga  Ga2  2  0.00000000  0.25001000  0.09041000  1.0
  Ga  Ga3  2  0.55132000  0.24479000  0.96548000  1.0
  Ge  Ge4  1  0.26491000  0.00000000  0.03014000  1.0
  Ge  Ge5  1  0.26491000  0.50000000  0.03014000  1.0
  Ge  Ge6  1  0.76509000  0.50000000  0.91632000  1.0
  Ge  Ge7  1  0.77021000  0.00000000  0.91247000  1.0
  Pd  Pd8  1  0.30323000  0.50000000  0.91496000  1.0
  Pd  Pd9  1  0.30426000  0.00000000  0.91591000  1.0
  Pd  Pd10  1  0.76491000  0.00000000  0.03014000  1.0
  Pd  Pd11  1  0.76491000  0.50000000  0.03014000  1.0
  C  C12  1  0.28232000  0.50000000  0.83377000  1.0
  O  O13  1  0.28343000  0.50000000  0.78679000  1.0
