# generated using pymatgen
data_Na24As8C
_symmetry_space_group_name_H-M   'P 1'
_cell_length_a   7.20118000
_cell_length_b   10.18400000
_cell_length_c   27.63800000
_cell_angle_alpha   90.00000000
_cell_angle_beta   90.00000000
_cell_angle_gamma   90.00000000
_symmetry_Int_Tables_number   1
_chemical_formula_structural   Na24As8C
_chemical_formula_sum   'Na24 As8 C1'
_cell_volume   2026.88295156
_cell_formula_units_Z   1
loop_
 _symmetry_equiv_pos_site_id
 _symmetry_equiv_pos_as_xyz
  1  'x, y, z'
loop_
 _atom_site_type_symbol
 _atom_site_label
 _atom_site_symmetry_multiplicity
 _atom_site_fract_x
 _atom_site_fract_y
 _atom_site_fract_z
 _atom_site_occupancy
  Na  Na0  1  0.25000000  0.00000000  0.95394000  1.0
  Na  Na1  1  0.75000000  0.50000000  0.95394000  1.0
  Na  Na2  1  0.75000000  0.00000000  0.95394000  1.0
  Na  Na3  1  0.25000000  0.50000000  0.95394000  1.0
  Na  Na4  1  0.75000000  0.75000000  0.86182000  1.0
  Na  Na5  1  0.25000000  0.25000000  0.86182000  1.0
  Na  Na6  1  0.25000000  0.75000000  0.86182000  1.0
  Na  Na7  1  0.75000000  0.25000000  0.86182000  1.0
  Na  Na8  1  0.00000000  0.75000000  0.95394000  1.0
  Na  Na9  1  0.50000000  0.00000000  0.86182000  1.0
  Na  Na10  1  0.00000000  0.25000000  0.95394000  1.0
  Na  Na11  1  0.50000000  0.50000000  0.86182000  1.0
  Na  Na12  1  0.26605000  0.49640000  0.15246000  1.0
  Na  Na13  1  0.73051000  0.96455000  0.15053000  1.0
  Na  Na14  1  0.73044000  0.53571000  0.15055000  1.0
  Na  Na15  1  0.26660000  0.00485000  0.15226000  1.0
  Na  Na16  1  0.75151000  0.24990000  0.04275000  1.0
  Na  Na17  1  0.23970000  0.74989000  0.04116000  1.0
  Na  Na18  1  0.23601000  0.24998000  0.05210000  1.0
  Na  Na19  1  0.75344000  0.74984000  0.04755000  1.0
  Na  Na20  1  0.97221000  0.25053000  0.13942000  1.0
  Na  Na21  1  0.49512000  0.51438000  0.05041000  1.0
  Na  Na22  1  0.04952000  0.75061000  0.13164000  1.0
  Na  Na23  1  0.49547000  0.98517000  0.05033000  1.0
  As  As24  1  0.00000000  0.00000000  0.86182000  1.0
  As  As25  1  0.50000000  0.25000000  0.95394000  1.0
  As  As26  1  0.50000000  0.75000000  0.95394000  1.0
  As  As27  1  0.00000000  0.50000000  0.86182000  1.0
  As  As28  1  0.99083000  0.50058000  0.05545000  1.0
  As  As29  1  0.47263000  0.75034000  0.12990000  1.0
  As  As30  1  0.55781000  0.25016000  0.14404000  1.0
  As  As31  1  0.99093000  0.99937000  0.05550000  1.0
  C  C32  1  0.30665000  0.25113000  0.14784000  1.0
