data_image0
_chemical_formula_structural       Li24Au8C
_chemical_formula_sum              "Li24 Au8 C1"
_cell_length_a       6.35005
_cell_length_b       8.98033
_cell_length_c       26.7352
_cell_angle_alpha    90
_cell_angle_beta     90
_cell_angle_gamma    90

_space_group_name_H-M_alt    "P 1"
_space_group_IT_number       1

loop_
  _space_group_symop_operation_xyz
  'x, y, z'

loop_
  _atom_site_type_symbol
  _atom_site_label
  _atom_site_symmetry_multiplicity
  _atom_site_fract_x
  _atom_site_fract_y
  _atom_site_fract_z
  _atom_site_occupancy
  Li  Li1       1.0  0.25000  0.00000  0.95801  1.0000
  Li  Li2       1.0  0.75000  0.50000  0.95801  1.0000
  Li  Li3       1.0  0.75000  0.00000  0.95801  1.0000
  Li  Li4       1.0  0.25000  0.50000  0.95801  1.0000
  Li  Li5       1.0  0.75000  0.75000  0.87404  1.0000
  Li  Li6       1.0  0.25000  0.25000  0.87404  1.0000
  Li  Li7       1.0  0.25000  0.75000  0.87404  1.0000
  Li  Li8       1.0  0.75000  0.25000  0.87404  1.0000
  Li  Li9       1.0  0.00000  0.75000  0.95801  1.0000
  Li  Li10      1.0  0.50000  0.00000  0.87404  1.0000
  Li  Li11      1.0  0.00000  0.25000  0.95801  1.0000
  Li  Li12      1.0  0.50000  0.50000  0.87404  1.0000
  Li  Li13      1.0  0.29041  0.50000  0.13152  1.0000
  Li  Li14      1.0  0.80089  0.00002  0.13108  1.0000
  Li  Li15      1.0  0.70958  0.50000  0.13152  1.0000
  Li  Li16      1.0  0.19910  0.00002  0.13108  1.0000
  Li  Li17      1.0  0.74919  0.25000  0.04117  1.0000
  Li  Li18      1.0  0.25081  0.74997  0.04116  1.0000
  Li  Li19      1.0  0.25081  0.25000  0.04116  1.0000
  Li  Li20      1.0  0.74920  0.74997  0.04117  1.0000
  Li  Li21      1.0  0.00000  0.27452  0.12137  1.0000
  Li  Li22      1.0  0.49999  0.50000  0.04481  1.0000
  Li  Li23      1.0  0.00000  0.72548  0.12137  1.0000
  Li  Li24      1.0  0.49999  0.00001  0.04566  1.0000
  Au  Au1       1.0  0.00000  0.00000  0.87404  1.0000
  Au  Au2       1.0  0.50000  0.25000  0.95801  1.0000
  Au  Au3       1.0  0.50000  0.75000  0.95801  1.0000
  Au  Au4       1.0  0.00000  0.50000  0.87404  1.0000
  Au  Au5       1.0  0.00010  0.49975  0.04822  1.0000
  Au  Au6       1.0  0.49998  0.76719  0.11926  1.0000
  Au  Au7       1.0  0.49997  0.23286  0.11924  1.0000
  Au  Au8       1.0  0.00007  0.99979  0.04175  1.0000
  C   C1        1.0  0.49999  0.00003  0.12718  1.0000
