# generated using pymatgen
data_Li24Au8C
_symmetry_space_group_name_H-M   P1
_cell_length_a   6.35005000
_cell_length_b   8.98033000
_cell_length_c   26.73520000
_cell_angle_alpha   90.00000000
_cell_angle_beta   90.00000000
_cell_angle_gamma   90.00000000
_symmetry_Int_Tables_number   1
_chemical_formula_structural   Li24Au8C
_chemical_formula_sum   'Li24 Au8 C1'
_cell_volume   1524.58933776
_cell_formula_units_Z   1
loop_
 _symmetry_equiv_pos_site_id
 _symmetry_equiv_pos_as_xyz
  1  'x, y, z'
loop_
 _atom_site_type_symbol
 _atom_site_label
 _atom_site_symmetry_multiplicity
 _atom_site_fract_x
 _atom_site_fract_y
 _atom_site_fract_z
 _atom_site_occupancy
  Li  Li0  1  0.00000000  0.72548000  0.12137000  1.0
  Li  Li1  1  0.00000000  0.25000000  0.95801000  1.0
  Li  Li2  1  0.00000000  0.75000000  0.95801000  1.0
  Li  Li3  1  0.00000000  0.27452000  0.12137000  1.0
  Li  Li4  1  0.19910000  0.00002000  0.13108000  1.0
  Li  Li5  1  0.25000000  0.00000000  0.95801000  1.0
  Li  Li6  1  0.25000000  0.25000000  0.87404000  1.0
  Li  Li7  1  0.25000000  0.50000000  0.95801000  1.0
  Li  Li8  1  0.25000000  0.75000000  0.87404000  1.0
  Li  Li9  1  0.25081000  0.25000000  0.04116000  1.0
  Li  Li10  1  0.25081000  0.74997000  0.04116000  1.0
  Li  Li11  1  0.29041000  0.50000000  0.13152000  1.0
  Li  Li12  1  0.49999000  0.00001000  0.04566000  1.0
  Li  Li13  1  0.49999000  0.50000000  0.04481000  1.0
  Li  Li14  1  0.50000000  0.00000000  0.87404000  1.0
  Li  Li15  1  0.50000000  0.50000000  0.87404000  1.0
  Li  Li16  1  0.70958000  0.50000000  0.13152000  1.0
  Li  Li17  1  0.74919000  0.25000000  0.04117000  1.0
  Li  Li18  1  0.74920000  0.74997000  0.04117000  1.0
  Li  Li19  1  0.75000000  0.00000000  0.95801000  1.0
  Li  Li20  1  0.75000000  0.25000000  0.87404000  1.0
  Li  Li21  1  0.75000000  0.50000000  0.95801000  1.0
  Li  Li22  1  0.75000000  0.75000000  0.87404000  1.0
  Li  Li23  1  0.80089000  0.00002000  0.13108000  1.0
  Au  Au24  1  0.00000000  0.00000000  0.87404000  1.0
  Au  Au25  1  0.00000000  0.50000000  0.87404000  1.0
  Au  Au26  1  0.00007000  0.99979000  0.04175000  1.0
  Au  Au27  1  0.00010000  0.49975000  0.04822000  1.0
  Au  Au28  1  0.49997000  0.23286000  0.11924000  1.0
  Au  Au29  1  0.49998000  0.76719000  0.11926000  1.0
  Au  Au30  1  0.50000000  0.25000000  0.95801000  1.0
  Au  Au31  1  0.50000000  0.75000000  0.95801000  1.0
  C  C32  1  0.49999000  0.00003000  0.12718000  1.0
