# generated using pymatgen
data_Li4Mg4Ga4Pd4C
_symmetry_space_group_name_H-M   'P 1'
_cell_length_a   6.27706000
_cell_length_b   6.27706000
_cell_length_c   24.70780000
_cell_angle_alpha   90.00000000
_cell_angle_beta   90.00000000
_cell_angle_gamma   90.00000000
_symmetry_Int_Tables_number   1
_chemical_formula_structural   Li4Mg4Ga4Pd4C
_chemical_formula_sum   'Li4 Mg4 Ga4 Pd4 C1'
_cell_volume   973.52394298
_cell_formula_units_Z   1
loop_
 _symmetry_equiv_pos_site_id
 _symmetry_equiv_pos_as_xyz
  1  'x, y, z'
loop_
 _atom_site_type_symbol
 _atom_site_label
 _atom_site_symmetry_multiplicity
 _atom_site_fract_x
 _atom_site_fract_y
 _atom_site_fract_z
 _atom_site_occupancy
  Li  Li0  1  0.24959500  0.75040500  0.97112000  1
  Li  Li1  1  0.75000000  0.75000000  0.09527000  1
  Li  Li2  1  0.25000000  0.25000000  0.09527000  1
  Li  Li3  1  0.75009000  0.24991000  0.95877000  1
  Mg  Mg4  1  0.49257000  0.99316000  0.89498000  1
  Mg  Mg5  1  0.00000000  0.00000000  0.03176000  1
  Mg  Mg6  1  0.50000000  0.50000000  0.03176000  1
  Mg  Mg7  1  0.00684000  0.50743000  0.89498000  1
  Ga  Ga8  1  0.02458000  0.97542000  0.90120000  1
  Ga  Ga9  1  0.50000000  0.00000000  0.03176000  1
  Ga  Ga10  1  0.00000000  0.50000000  0.03176000  1
  Ga  Ga11  1  0.47390000  0.52610000  0.90135000  1
  Pd  Pd12  1  0.25016000  0.25025000  0.96607000  1
  Pd  Pd13  1  0.75000000  0.25000000  0.09527000  1
  Pd  Pd14  1  0.25000000  0.75000000  0.09527000  1
  Pd  Pd15  1  0.74975000  0.74984000  0.96607000  1
  C  C16  1  0.24879000  0.75121000  0.88393000  1
