data_image0
_chemical_formula_structural       Li4Ge4Pd4Au4C
_chemical_formula_sum              "Li4 Ge4 Pd4 Au4 C1"
_cell_length_a       6.30991
_cell_length_b       6.30991
_cell_length_c       24.7324
_cell_angle_alpha    90
_cell_angle_beta     90
_cell_angle_gamma    90

_space_group_name_H-M_alt    "P 1"
_space_group_IT_number       1

loop_
  _space_group_symop_operation_xyz
  'x, y, z'

loop_
  _atom_site_type_symbol
  _atom_site_label
  _atom_site_symmetry_multiplicity
  _atom_site_fract_x
  _atom_site_fract_y
  _atom_site_fract_z
  _atom_site_occupancy
  Li  Li1       1.0  0.25000  0.25000  0.96811  1.0000
  Li  Li2       1.0  0.24605  0.74583  0.10388  1.0000
  Li  Li3       1.0  0.75395  0.25416  0.10388  1.0000
  Li  Li4       1.0  0.75000  0.75000  0.96811  1.0000
  Ge  Ge1       1.0  0.75000  0.25000  0.96811  1.0000
  Ge  Ge2       1.0  0.78073  0.71936  0.10698  1.0000
  Ge  Ge3       1.0  0.21926  0.28064  0.10698  1.0000
  Ge  Ge4       1.0  0.25000  0.75000  0.96811  1.0000
  Pd  Pd1       1.0  0.00000  0.50000  0.90433  1.0000
  Pd  Pd2       1.0  0.00000  1.00000  0.04604  1.0000
  Pd  Pd3       1.0  0.50000  0.50000  0.04600  1.0000
  Pd  Pd4       1.0  0.50000  0.00000  0.90433  1.0000
  Au  Au1       1.0  0.00000  0.00000  0.90433  1.0000
  Au  Au2       1.0  1.00000  0.50000  0.02178  1.0000
  Au  Au3       1.0  0.50000  0.00000  0.03133  1.0000
  Au  Au4       1.0  0.50000  0.50000  0.90433  1.0000
  C   C1        1.0  1.00000  0.50000  0.11116  1.0000
