# generated using pymatgen
data_Li4Ge4Pd4Au4C
_symmetry_space_group_name_H-M   P2
_cell_length_a   6.30991000
_cell_length_b   24.73240000
_cell_length_c   6.30991000
_cell_angle_alpha   90.00000000
_cell_angle_beta   90.00000000
_cell_angle_gamma   90.00000000
_symmetry_Int_Tables_number   3
_chemical_formula_structural   Li4Ge4Pd4Au4C
_chemical_formula_sum   'Li4 Ge4 Pd4 Au4 C1'
_cell_volume   984.71962078
_cell_formula_units_Z   1
loop_
 _symmetry_equiv_pos_site_id
 _symmetry_equiv_pos_as_xyz
  1  'x, y, z'
  2  '-x, y, -z'
loop_
 _atom_site_type_symbol
 _atom_site_label
 _atom_site_symmetry_multiplicity
 _atom_site_fract_x
 _atom_site_fract_y
 _atom_site_fract_z
 _atom_site_occupancy
  Li  Li0  2  0.25000000  0.96811000  0.25000000  1.0
  Li  Li1  2  0.25417000  0.10388000  0.75395000  1.0
  Ge  Ge2  2  0.25000000  0.96811000  0.75000000  1.0
  Ge  Ge3  2  0.28064000  0.10698000  0.21927000  1.0
  Pd  Pd4  1  0.00000000  0.04604000  0.00000000  1.0
  Pd  Pd5  1  0.00000000  0.90433000  0.50000000  1.0
  Pd  Pd6  1  0.50000000  0.04600000  0.50000000  1.0
  Pd  Pd7  1  0.50000000  0.90433000  0.00000000  1.0
  Au  Au8  1  0.00000000  0.03133000  0.50000000  1.0
  Au  Au9  1  0.00000000  0.90433000  0.00000000  1.0
  Au  Au10  1  0.50000000  0.02178000  0.00000000  1.0
  Au  Au11  1  0.50000000  0.90433000  0.50000000  1.0
  C  C12  1  0.50000000  0.11116000  0.00000000  1.0
