# generated using pymatgen
data_Li8In4Ag4CO
_symmetry_space_group_name_H-M   Cm
_cell_length_a   9.43980482
_cell_length_b   9.43980482
_cell_length_c   25.00620000
_cell_angle_alpha   90.00000000
_cell_angle_beta   90.00000000
_cell_angle_gamma   90.00000000
_symmetry_Int_Tables_number   8
_chemical_formula_structural   Li8In4Ag4CO
_chemical_formula_sum   'Li16 In8 Ag8 C2 O2'
_cell_volume   2228.30035660
_cell_formula_units_Z   2
loop_
 _symmetry_equiv_pos_site_id
 _symmetry_equiv_pos_as_xyz
  1  'x, y, z'
  2  'x, -y, z'
  3  'x+1/2, y+1/2, z'
  4  'x+1/2, -y+1/2, z'
loop_
 _atom_site_type_symbol
 _atom_site_label
 _atom_site_symmetry_multiplicity
 _atom_site_fract_x
 _atom_site_fract_y
 _atom_site_fract_z
 _atom_site_occupancy
  Li  Li0  4  0.00000500  0.24999500  0.96663000  1.0
  Li  Li1  4  0.25000500  0.75000500  0.89990000  1.0
  Li  Li2  2  0.00222000  0.00000000  0.03248000  1.0
  Li  Li3  2  0.24911000  0.50000000  0.10420000  1.0
  Li  Li4  2  0.25106000  0.00000000  0.10642000  1.0
  Li  Li5  2  0.49884500  0.00000000  0.03200000  1.0
  In  In6  4  0.25005000  0.24803000  0.03245000  1.0
  In  In7  2  0.00000500  0.00000000  0.89990000  1.0
  In  In8  2  0.00000500  0.50000000  0.89990000  1.0
  Ag  Ag9  4  0.00001000  0.25040000  0.09418000  1.0
  Ag  Ag10  2  0.25000500  0.00000000  0.96663000  1.0
  Ag  Ag11  2  0.25000500  0.50000000  0.96663000  1.0
  C  C12  2  0.24883000  0.50000000  0.18740000  1.0
  O  O13  2  0.24897500  0.50000000  0.23307000  1.0
