# generated using pymatgen
data_Li8Ge8Pd8Pb8CO
_symmetry_space_group_name_H-M   P1
_cell_length_a   6.74945000
_cell_length_b   9.54516000
_cell_length_c   27.15890000
_cell_angle_alpha   90.00000000
_cell_angle_beta   90.00000000
_cell_angle_gamma   90.00000000
_symmetry_Int_Tables_number   1
_chemical_formula_structural   Li8Ge8Pd8Pb8CO
_chemical_formula_sum   'Li8 Ge8 Pd8 Pb8 C1 O1'
_cell_volume   1749.70073016
_cell_formula_units_Z   1
loop_
 _symmetry_equiv_pos_site_id
 _symmetry_equiv_pos_as_xyz
  1  'x, y, z'
loop_
 _atom_site_type_symbol
 _atom_site_label
 _atom_site_symmetry_multiplicity
 _atom_site_fract_x
 _atom_site_fract_y
 _atom_site_fract_z
 _atom_site_occupancy
  Li  Li0  1  0.25000000  0.00000000  0.95607000  1.0
  Li  Li1  1  0.25000000  0.50000000  0.95607000  1.0
  Li  Li2  1  0.27772000  0.00031000  0.14178000  1.0
  Li  Li3  1  0.27775000  0.49965000  0.14178000  1.0
  Li  Li4  1  0.75000000  0.25000000  0.86820000  1.0
  Li  Li5  1  0.75000000  0.75000000  0.86820000  1.0
  Li  Li6  1  0.77266000  0.25000000  0.05011000  1.0
  Li  Li7  1  0.78433000  0.75000000  0.05519000  1.0
  Ge  Ge8  1  0.00000000  0.00000000  0.86820000  1.0
  Ge  Ge9  1  0.00000000  0.50000000  0.86820000  1.0
  Ge  Ge10  1  0.00455000  0.00265000  0.06118000  1.0
  Ge  Ge11  1  0.00455000  0.49735000  0.06120000  1.0
  Ge  Ge12  1  0.50000000  0.25000000  0.95607000  1.0
  Ge  Ge13  1  0.50000000  0.75000000  0.95607000  1.0
  Ge  Ge14  1  0.50630000  0.74996000  0.13146000  1.0
  Ge  Ge15  1  0.50858000  0.24992000  0.12882000  1.0
  Pd  Pd16  1  0.17542000  0.75002000  0.08284000  1.0
  Pd  Pd17  1  0.19999000  0.25001000  0.06956000  1.0
  Pd  Pd18  1  0.25000000  0.25000000  0.86820000  1.0
  Pd  Pd19  1  0.25000000  0.75000000  0.86820000  1.0
  Pd  Pd20  1  0.71574000  0.49801000  0.12434000  1.0
  Pd  Pd21  1  0.71579000  0.00188000  0.12434000  1.0
  Pd  Pd22  1  0.75000000  0.00000000  0.95607000  1.0
  Pd  Pd23  1  0.75000000  0.50000000  0.95607000  1.0
  Pb  Pb24  1  0.00000000  0.25000000  0.95607000  1.0
  Pb  Pb25  1  0.00000000  0.75000000  0.95607000  1.0
  Pb  Pb26  1  0.46213000  0.51198000  0.04209000  1.0
  Pb  Pb27  1  0.46217000  0.98805000  0.04210000  1.0
  Pb  Pb28  1  0.50000000  0.00000000  0.86820000  1.0
  Pb  Pb29  1  0.50000000  0.50000000  0.86820000  1.0
  Pb  Pb30  1  0.91989000  0.74993000  0.16892000  1.0
  Pb  Pb31  1  0.94709000  0.24998000  0.15885000  1.0
  C  C32  1  0.02191000  0.25001000  0.29683000  1.0
  O  O33  1  0.90037000  0.25000000  0.32576000  1.0
