# generated using pymatgen
data_Al8V8Co16C
_symmetry_space_group_name_H-M   'P 1'
_cell_length_a   5.76795000
_cell_length_b   8.15711000
_cell_length_c   26.11780000
_cell_angle_alpha   90.00000000
_cell_angle_beta   90.00000000
_cell_angle_gamma   90.00000000
_symmetry_Int_Tables_number   1
_chemical_formula_structural   Al8V8Co16C
_chemical_formula_sum   'Al8 V8 Co16 C1'
_cell_volume   1228.83733499
_cell_formula_units_Z   1
loop_
 _symmetry_equiv_pos_site_id
 _symmetry_equiv_pos_as_xyz
  1  'x, y, z'
loop_
 _atom_site_type_symbol
 _atom_site_label
 _atom_site_symmetry_multiplicity
 _atom_site_fract_x
 _atom_site_fract_y
 _atom_site_fract_z
 _atom_site_occupancy
  Al  Al0  1  0.00000000  0.00000000  0.88288000  1.0
  Al  Al1  1  0.50000000  0.25000000  0.96096000  1.0
  Al  Al2  1  0.50000000  0.75000000  0.96096000  1.0
  Al  Al3  1  0.00000000  0.50000000  0.88288000  1.0
  Al  Al4  1  0.00000000  0.50000000  0.03976000  1.0
  Al  Al5  1  0.50000000  0.74905000  0.11971000  1.0
  Al  Al6  1  0.50000000  0.25095000  0.11971000  1.0
  Al  Al7  1  0.00000000  0.00000000  0.03772000  1.0
  V  V8  1  0.00000000  0.75000000  0.96096000  1.0
  V  V9  1  0.50000000  0.00000000  0.88288000  1.0
  V  V10  1  0.00000000  0.25000000  0.96096000  1.0
  V  V11  1  0.50000000  0.50000000  0.88288000  1.0
  V  V12  1  0.00000000  0.25266000  0.11663000  1.0
  V  V13  1  0.50000000  0.50000000  0.04105000  1.0
  V  V14  1  0.00000000  0.74734000  0.11663000  1.0
  V  V15  1  0.50000000  0.00000000  0.03883000  1.0
  Co  Co16  1  0.25000000  0.00000000  0.96096000  1.0
  Co  Co17  1  0.75000000  0.50000000  0.96096000  1.0
  Co  Co18  1  0.75000000  0.00000000  0.96096000  1.0
  Co  Co19  1  0.25000000  0.50000000  0.96096000  1.0
  Co  Co20  1  0.75000000  0.75000000  0.88288000  1.0
  Co  Co21  1  0.25000000  0.25000000  0.88288000  1.0
  Co  Co22  1  0.25000000  0.75000000  0.88288000  1.0
  Co  Co23  1  0.75000000  0.25000000  0.88288000  1.0
  Co  Co24  1  0.25018000  0.50000000  0.11411000  1.0
  Co  Co25  1  0.77340000  0.00000000  0.11618000  1.0
  Co  Co26  1  0.74982000  0.50000000  0.11411000  1.0
  Co  Co27  1  0.22660000  0.00000000  0.11618000  1.0
  Co  Co28  1  0.75086000  0.24832000  0.03957000  1.0
  Co  Co29  1  0.24914000  0.75168000  0.03957000  1.0
  Co  Co30  1  0.24914000  0.24832000  0.03957000  1.0
  Co  Co31  1  0.75086000  0.75168000  0.03957000  1.0
  C  C32  1  0.50000000  0.00000000  0.14837000  1.0
