# generated using pymatgen
data_Li8Ag4Pb4CO
_symmetry_space_group_name_H-M   'P 1'
_cell_length_a   6.84524000
_cell_length_b   6.84524000
_cell_length_c   25.13390000
_cell_angle_alpha   90.00000000
_cell_angle_beta   90.00000000
_cell_angle_gamma   90.00000000
_symmetry_Int_Tables_number   1
_chemical_formula_structural   Li8Ag4Pb4CO
_chemical_formula_sum   'Li8 Ag4 Pb4 C1 O1'
_cell_volume   1177.70696034
_cell_formula_units_Z   1
loop_
 _symmetry_equiv_pos_site_id
 _symmetry_equiv_pos_as_xyz
  1  'x, y, z'
loop_
 _atom_site_type_symbol
 _atom_site_label
 _atom_site_symmetry_multiplicity
 _atom_site_fract_x
 _atom_site_fract_y
 _atom_site_fract_z
 _atom_site_occupancy
  Li  Li0  1  0.00000000  0.00000000  0.96596000  1.0
  Li  Li1  1  0.50000000  0.00000000  0.10245000  1.0
  Li  Li2  1  0.00000000  0.50000000  0.10245000  1.0
  Li  Li3  1  0.50000000  0.50000000  0.96596000  1.0
  Li  Li4  1  0.25000000  0.25000000  0.89787000  1.0
  Li  Li5  1  0.26630000  0.73388000  0.03756000  1.0
  Li  Li6  1  0.75000000  0.75000000  0.89787000  1.0
  Li  Li7  1  0.73371000  0.26612000  0.03756000  1.0
  Ag  Ag8  1  0.26645000  0.26618000  0.03776000  1.0
  Ag  Ag9  1  0.25000000  0.75000000  0.89787000  1.0
  Ag  Ag10  1  0.73354000  0.73380000  0.03775000  1.0
  Ag  Ag11  1  0.75000000  0.25000000  0.89787000  1.0
  Pb  Pb12  1  0.99999000  0.99999000  0.10218000  1.0
  Pb  Pb13  1  0.49999000  0.50000000  0.11708000  1.0
  Pb  Pb14  1  0.50000000  0.00000000  0.96596000  1.0
  Pb  Pb15  1  0.00000000  0.50000000  0.96596000  1.0
  C  C16  1  0.99999000  0.00031000  0.25963000  1.0
  O  O17  1  0.00001000  0.99979000  0.30479000  1.0
