# generated using pymatgen
data_Li4In4Pd4Au4CO
_symmetry_space_group_name_H-M   Pm
_cell_length_a   5.83117000
_cell_length_b   8.29976000
_cell_length_c   24.31400000
_cell_angle_alpha   90.00000000
_cell_angle_beta   90.00000000
_cell_angle_gamma   90.00000000
_symmetry_Int_Tables_number   6
_chemical_formula_structural   Li4In4Pd4Au4CO
_chemical_formula_sum   'Li4 In4 Pd4 Au4 C1 O1'
_cell_volume   1176.73223228
_cell_formula_units_Z   1
loop_
 _symmetry_equiv_pos_site_id
 _symmetry_equiv_pos_as_xyz
  1  'x, y, z'
  2  'x, -y, z'
loop_
 _atom_site_type_symbol
 _atom_site_label
 _atom_site_symmetry_multiplicity
 _atom_site_fract_x
 _atom_site_fract_y
 _atom_site_fract_z
 _atom_site_occupancy
  Li  Li0  2  0.20895000  0.25000000  0.02957000  1.0
  Li  Li1  2  0.62685000  0.25000000  0.91129000  1.0
  In  In2  1  0.50000000  0.00000000  0.08871000  1.0
  In  In3  1  0.50000000  0.50000000  0.08871000  1.0
  In  In4  1  0.91790000  0.00000000  0.97043000  1.0
  In  In5  1  0.91790000  0.50000000  0.97043000  1.0
  Pd  Pd6  2  0.12685000  0.25000000  0.91129000  1.0
  Pd  Pd7  2  0.70895000  0.25000000  0.02957000  1.0
  Au  Au8  1  0.00000000  0.00000000  0.08871000  1.0
  Au  Au9  1  0.00000000  0.50000000  0.08871000  1.0
  Au  Au10  1  0.41790000  0.00000000  0.97043000  1.0
  Au  Au11  1  0.41790000  0.50000000  0.97043000  1.0
  C  C12  1  0.50000000  0.00000000  0.16686000  1.0
  O  O13  1  0.50000000  0.00000000  0.21416000  1.0
