data_image0
_chemical_formula_structural       Cu12Pt4CO
_chemical_formula_sum              "Cu12 Pt4 C1 O1"
_cell_length_a       7.52549
_cell_length_b       5.32133
_cell_length_c       23.991
_cell_angle_alpha    90
_cell_angle_beta     90
_cell_angle_gamma    90

_space_group_name_H-M_alt    "P 1"
_space_group_IT_number       1

loop_
  _space_group_symop_operation_xyz
  'x, y, z'

loop_
  _atom_site_type_symbol
  _atom_site_label
  _atom_site_symmetry_multiplicity
  _atom_site_fract_x
  _atom_site_fract_y
  _atom_site_fract_z
  _atom_site_occupancy
  Cu  Cu1       1.0  0.00000  0.50000  0.91682  1.0000
  Cu  Cu2       1.0  0.25000  0.75000  0.97227  1.0000
  Cu  Cu3       1.0  0.25000  0.25000  0.97227  1.0000
  Cu  Cu4       1.0  0.99982  0.00116  0.02796  1.0000
  Cu  Cu5       1.0  0.25000  0.25198  0.08499  1.0000
  Cu  Cu6       1.0  0.25000  0.75857  0.07736  1.0000
  Cu  Cu7       1.0  0.50000  0.50000  0.91682  1.0000
  Cu  Cu8       1.0  0.75000  0.75000  0.97227  1.0000
  Cu  Cu9       1.0  0.75000  0.25000  0.97227  1.0000
  Cu  Cu10      1.0  0.50018  0.00117  0.02796  1.0000
  Cu  Cu11      1.0  0.74998  0.24581  0.07786  1.0000
  Cu  Cu12      1.0  0.75000  0.76006  0.07741  1.0000
  Pt  Pt1       1.0  0.00000  0.00000  0.91682  1.0000
  Pt  Pt2       1.0  0.00154  0.49991  0.02897  1.0000
  Pt  Pt3       1.0  0.50000  0.00000  0.91682  1.0000
  Pt  Pt4       1.0  0.49845  0.49992  0.02897  1.0000
  C   C1        1.0  0.25001  0.19202  0.16155  1.0000
  O   O1        1.0  0.25003  0.17029  0.20907  1.0000
