# generated using pymatgen
data_Cu12Pt4CO
_symmetry_space_group_name_H-M   'P 1'
_cell_length_a   7.52549000
_cell_length_b   5.32133000
_cell_length_c   23.99100000
_cell_angle_alpha   90.00000000
_cell_angle_beta   90.00000000
_cell_angle_gamma   90.00000000
_symmetry_Int_Tables_number   1
_chemical_formula_structural   Cu12Pt4CO
_chemical_formula_sum   'Cu12 Pt4 C1 O1'
_cell_volume   960.73436630
_cell_formula_units_Z   1
loop_
 _symmetry_equiv_pos_site_id
 _symmetry_equiv_pos_as_xyz
  1  'x, y, z'
loop_
 _atom_site_type_symbol
 _atom_site_label
 _atom_site_symmetry_multiplicity
 _atom_site_fract_x
 _atom_site_fract_y
 _atom_site_fract_z
 _atom_site_occupancy
  Cu  Cu0  1  0.75001000  0.50000000  0.91682000  1.0
  Cu  Cu1  1  0.50000000  0.25000000  0.97227000  1.0
  Cu  Cu2  1  0.50000000  0.75000000  0.97227000  1.0
  Cu  Cu3  1  0.75019000  0.99884000  0.02796000  1.0
  Cu  Cu4  1  0.50000000  0.74802000  0.08499000  1.0
  Cu  Cu5  1  0.50000000  0.24143000  0.07736000  1.0
  Cu  Cu6  1  0.24999000  0.50000000  0.91682000  1.0
  Cu  Cu7  1  0.00000000  0.25000000  0.97227000  1.0
  Cu  Cu8  1  0.00000000  0.75000000  0.97227000  1.0
  Cu  Cu9  1  0.24981000  0.99884000  0.02796000  1.0
  Cu  Cu10  1  0.00000000  0.75419000  0.07786000  1.0
  Cu  Cu11  1  0.00000000  0.23994000  0.07741000  1.0
  Pt  Pt12  1  0.75001000  0.00000000  0.91682000  1.0
  Pt  Pt13  1  0.74847000  0.50009000  0.02897000  1.0
  Pt  Pt14  1  0.24999000  0.00000000  0.91682000  1.0
  Pt  Pt15  1  0.25153000  0.50009000  0.02897000  1.0
  C  C16  1  0.50000000  0.80798000  0.16155000  1.0
  O  O17  1  0.50000000  0.82971000  0.20907000  1.0
