data_image0
_chemical_formula_structural       Li8Y8Ag8Sn8C
_chemical_formula_sum              "Li8 Y8 Ag8 Sn8 C1"
_cell_length_a       7.11214
_cell_length_b       10.0581
_cell_length_c       27.5436
_cell_angle_alpha    90
_cell_angle_beta     90
_cell_angle_gamma    90

_space_group_name_H-M_alt    "P 1"
_space_group_IT_number       1

loop_
  _space_group_symop_operation_xyz
  'x, y, z'

loop_
  _atom_site_type_symbol
  _atom_site_label
  _atom_site_symmetry_multiplicity
  _atom_site_fract_x
  _atom_site_fract_y
  _atom_site_fract_z
  _atom_site_occupancy
  Li  Li1       1.0  0.25000  0.00000  0.95435  1.0000
  Li  Li2       1.0  0.25000  0.50000  0.95435  1.0000
  Li  Li3       1.0  0.75000  0.25000  0.86306  1.0000
  Li  Li4       1.0  0.75000  0.75000  0.86306  1.0000
  Li  Li5       1.0  0.12052  0.50014  0.14391  1.0000
  Li  Li6       1.0  0.10616  0.00000  0.14875  1.0000
  Li  Li7       1.0  0.73583  0.73643  0.04236  1.0000
  Li  Li8       1.0  0.73589  0.26354  0.04236  1.0000
  Y   Y1        1.0  0.75000  0.00000  0.95435  1.0000
  Y   Y2        1.0  0.75000  0.50000  0.95435  1.0000
  Y   Y3        1.0  0.25000  0.25000  0.86306  1.0000
  Y   Y4        1.0  0.25000  0.75000  0.86306  1.0000
  Y   Y5        1.0  0.63894  0.49994  0.13716  1.0000
  Y   Y6        1.0  0.57906  0.00015  0.14372  1.0000
  Y   Y7        1.0  0.22504  0.78314  0.06486  1.0000
  Y   Y8        1.0  0.22511  0.21686  0.06485  1.0000
  Ag  Ag1       1.0  0.00000  0.00000  0.86306  1.0000
  Ag  Ag2       1.0  0.00000  0.50000  0.86306  1.0000
  Ag  Ag3       1.0  0.50000  0.75000  0.95435  1.0000
  Ag  Ag4       1.0  0.50000  0.25000  0.95435  1.0000
  Ag  Ag5       1.0  0.99317  0.49997  0.04935  1.0000
  Ag  Ag6       1.0  0.88867  0.99995  0.06687  1.0000
  Ag  Ag7       1.0  0.33624  0.27931  0.16853  1.0000
  Ag  Ag8       1.0  0.33675  0.72076  0.16850  1.0000
  Sn  Sn1       1.0  0.00000  0.25000  0.95435  1.0000
  Sn  Sn2       1.0  0.00000  0.75000  0.95435  1.0000
  Sn  Sn3       1.0  0.50000  0.50000  0.86306  1.0000
  Sn  Sn4       1.0  0.50000  0.00000  0.86306  1.0000
  Sn  Sn5       1.0  0.89247  0.75164  0.14390  1.0000
  Sn  Sn6       1.0  0.89270  0.24841  0.14390  1.0000
  Sn  Sn7       1.0  0.50483  0.99998  0.03348  1.0000
  Sn  Sn8       1.0  0.44962  0.49998  0.04022  1.0000
  C   C1        1.0  0.31377  0.99999  0.09530  1.0000
