# generated using pymatgen
data_Li8Y8Ag8Sn8C
_symmetry_space_group_name_H-M   P1
_cell_length_a   7.11214000
_cell_length_b   10.05810000
_cell_length_c   27.54360000
_cell_angle_alpha   90.00000000
_cell_angle_beta   90.00000000
_cell_angle_gamma   90.00000000
_symmetry_Int_Tables_number   1
_chemical_formula_structural   Li8Y8Ag8Sn8C
_chemical_formula_sum   'Li8 Y8 Ag8 Sn8 C1'
_cell_volume   1970.32083091
_cell_formula_units_Z   1
loop_
 _symmetry_equiv_pos_site_id
 _symmetry_equiv_pos_as_xyz
  1  'x, y, z'
loop_
 _atom_site_type_symbol
 _atom_site_label
 _atom_site_symmetry_multiplicity
 _atom_site_fract_x
 _atom_site_fract_y
 _atom_site_fract_z
 _atom_site_occupancy
  Li  Li0  1  0.10469000  0.99999000  0.14881000  1.0
  Li  Li1  1  0.12289000  0.50012000  0.14407000  1.0
  Li  Li2  1  0.25000000  0.00000000  0.95435000  1.0
  Li  Li3  1  0.25000000  0.50000000  0.95435000  1.0
  Li  Li4  1  0.73539000  0.73718000  0.04201000  1.0
  Li  Li5  1  0.73542000  0.26278000  0.04201000  1.0
  Li  Li6  1  0.75000000  0.25000000  0.86306000  1.0
  Li  Li7  1  0.75000000  0.75000000  0.86306000  1.0
  Y  Y8  1  0.22471000  0.78307000  0.06456000  1.0
  Y  Y9  1  0.22477000  0.21693000  0.06456000  1.0
  Y  Y10  1  0.25000000  0.25000000  0.86306000  1.0
  Y  Y11  1  0.25000000  0.75000000  0.86306000  1.0
  Y  Y12  1  0.57798000  0.00016000  0.14365000  1.0
  Y  Y13  1  0.63869000  0.49993000  0.13723000  1.0
  Y  Y14  1  0.75000000  0.00000000  0.95435000  1.0
  Y  Y15  1  0.75000000  0.50000000  0.95435000  1.0
  Ag  Ag16  1  0.00000000  0.00000000  0.86306000  1.0
  Ag  Ag17  1  0.00000000  0.50000000  0.86306000  1.0
  Ag  Ag18  1  0.33619000  0.27889000  0.16849000  1.0
  Ag  Ag19  1  0.33677000  0.72115000  0.16845000  1.0
  Ag  Ag20  1  0.50000000  0.25000000  0.95435000  1.0
  Ag  Ag21  1  0.50000000  0.75000000  0.95435000  1.0
  Ag  Ag22  1  0.88896000  0.99997000  0.06661000  1.0
  Ag  Ag23  1  0.99159000  0.49997000  0.04930000  1.0
  Sn  Sn24  1  0.00000000  0.25000000  0.95435000  1.0
  Sn  Sn25  1  0.00000000  0.75000000  0.95435000  1.0
  Sn  Sn26  1  0.44913000  0.49999000  0.04042000  1.0
  Sn  Sn27  1  0.50000000  0.00000000  0.86306000  1.0
  Sn  Sn28  1  0.50000000  0.50000000  0.86306000  1.0
  Sn  Sn29  1  0.50468000  0.99998000  0.03368000  1.0
  Sn  Sn30  1  0.89229000  0.75203000  0.14387000  1.0
  Sn  Sn31  1  0.89248000  0.24797000  0.14384000  1.0
  C  C32  1  0.31250000  0.00000000  0.09528000  1.0
