# generated using pymatgen
data_GaRu
_symmetry_space_group_name_H-M   P4mm
_cell_length_a   3.03681500
_cell_length_b   3.03681500
_cell_length_c   24.55520000
_cell_angle_alpha   90.00000000
_cell_angle_beta   90.00000000
_cell_angle_gamma   90.00000000
_symmetry_Int_Tables_number   99
_chemical_formula_structural   GaRu
_chemical_formula_sum   'Ga2 Ru2'
_cell_volume   226.45407888
_cell_formula_units_Z   2
loop_
 _symmetry_equiv_pos_site_id
 _symmetry_equiv_pos_as_xyz
  1  'x, y, z'
  2  '-y, x, z'
  3  '-x, -y, z'
  4  'y, -x, z'
  5  '-x, y, z'
  6  'y, x, z'
  7  'x, -y, z'
  8  '-y, -x, z'
loop_
 _atom_site_type_symbol
 _atom_site_label
 _atom_site_symmetry_multiplicity
 _atom_site_fract_x
 _atom_site_fract_y
 _atom_site_fract_z
 _atom_site_occupancy
  Ga  Ga0  1  0.00000000  0.00000000  0.09843000  1.0
  Ga  Ga1  1  0.00000000  0.00000000  0.97476000  1.0
  Ru  Ru2  1  0.50000000  0.50000000  0.03659000  1.0
  Ru  Ru3  1  0.50000000  0.50000000  0.91292000  1.0
