# generated using pymatgen
data_Sc4Al4In4Pd4CO
_symmetry_space_group_name_H-M   'P 1'
_cell_length_a   8.30234000
_cell_length_b   5.99150000
_cell_length_c   24.49130000
_cell_angle_alpha   90.00000000
_cell_angle_beta   90.00000000
_cell_angle_gamma   90.00000000
_symmetry_Int_Tables_number   1
_chemical_formula_structural   Sc4Al4In4Pd4CO
_chemical_formula_sum   'Sc4 Al4 In4 Pd4 C1 O1'
_cell_volume   1218.28224951
_cell_formula_units_Z   1
loop_
 _symmetry_equiv_pos_site_id
 _symmetry_equiv_pos_as_xyz
  1  'x, y, z'
loop_
 _atom_site_type_symbol
 _atom_site_label
 _atom_site_symmetry_multiplicity
 _atom_site_fract_x
 _atom_site_fract_y
 _atom_site_fract_z
 _atom_site_occupancy
  Sc  Sc0  1  0.75073000  0.25289000  0.03235000  1.0
  Sc  Sc1  1  0.74998000  0.77393000  0.90831000  1.0
  Sc  Sc2  1  0.24927000  0.25289000  0.03235000  1.0
  Sc  Sc3  1  0.25002000  0.77393000  0.90831000  1.0
  Al  Al4  1  0.00000000  0.96068000  0.07806000  1.0
  Al  Al5  1  0.00000000  0.51595000  0.96944000  1.0
  Al  Al6  1  0.50000000  0.02031000  0.09235000  1.0
  Al  Al7  1  0.50000000  0.51595000  0.96944000  1.0
  In  In8  1  0.73135000  0.75383000  0.03731000  1.0
  In  In9  1  0.74998000  0.27393000  0.90831000  1.0
  In  In10  1  0.26865000  0.75383000  0.03731000  1.0
  In  In11  1  0.25002000  0.27393000  0.90831000  1.0
  Pd  Pd12  1  0.00000000  0.49155000  0.08344000  1.0
  Pd  Pd13  1  0.00000000  0.01595000  0.96944000  1.0
  Pd  Pd14  1  0.50000000  0.44523000  0.08443000  1.0
  Pd  Pd15  1  0.50000000  0.01595000  0.96944000  1.0
  C  C16  1  0.00000000  0.48541000  0.16470000  1.0
  O  O17  1  0.00000000  0.48637000  0.21159000  1.0
