# generated using pymatgen
data_Sc4Al4In4Pd4CO
_symmetry_space_group_name_H-M   Pm
_cell_length_a   5.99150000
_cell_length_b   8.30234000
_cell_length_c   24.49130000
_cell_angle_alpha   90.00000000
_cell_angle_beta   90.00000000
_cell_angle_gamma   90.00000000
_symmetry_Int_Tables_number   6
_chemical_formula_structural   Sc4Al4In4Pd4CO
_chemical_formula_sum   'Sc4 Al4 In4 Pd4 C1 O1'
_cell_volume   1218.28224951
_cell_formula_units_Z   1
loop_
 _symmetry_equiv_pos_site_id
 _symmetry_equiv_pos_as_xyz
  1  'x, y, z'
  2  'x, -y, z'
loop_
 _atom_site_type_symbol
 _atom_site_label
 _atom_site_symmetry_multiplicity
 _atom_site_fract_x
 _atom_site_fract_y
 _atom_site_fract_z
 _atom_site_occupancy
  Sc  Sc0  2  0.25289000  0.24927000  0.96765000  1.0
  Sc  Sc1  2  0.77393000  0.25002000  0.09169000  1.0
  Al  Al2  1  0.02031000  0.50000000  0.90765000  1.0
  Al  Al3  1  0.51595000  0.00000000  0.03056000  1.0
  Al  Al4  1  0.51595000  0.50000000  0.03056000  1.0
  Al  Al5  1  0.96068000  0.00000000  0.92194000  1.0
  In  In6  2  0.27393000  0.25002000  0.09169000  1.0
  In  In7  2  0.75383000  0.26865000  0.96269000  1.0
  Pd  Pd8  1  0.01595000  0.00000000  0.03056000  1.0
  Pd  Pd9  1  0.01595000  0.50000000  0.03056000  1.0
  Pd  Pd10  1  0.44523000  0.50000000  0.91557000  1.0
  Pd  Pd11  1  0.49155000  0.00000000  0.91656000  1.0
  C  C12  1  0.48541000  0.00000000  0.83530000  1.0
  O  O13  1  0.48637000  0.00000000  0.78841000  1.0
