# generated using pymatgen
data_Li4Sc4In4Ga4C
_symmetry_space_group_name_H-M   P1
_cell_length_a   6.09788000
_cell_length_b   8.23116000
_cell_length_c   24.56590000
_cell_angle_alpha   90.00000000
_cell_angle_beta   90.00000000
_cell_angle_gamma   90.00000000
_symmetry_Int_Tables_number   1
_chemical_formula_structural   Li4Sc4In4Ga4C
_chemical_formula_sum   'Li4 Sc4 In4 Ga4 C1'
_cell_volume   1233.02702960
_cell_formula_units_Z   1
loop_
 _symmetry_equiv_pos_site_id
 _symmetry_equiv_pos_as_xyz
  1  'x, y, z'
loop_
 _atom_site_type_symbol
 _atom_site_label
 _atom_site_symmetry_multiplicity
 _atom_site_fract_x
 _atom_site_fract_y
 _atom_site_fract_z
 _atom_site_occupancy
  Li  Li0  1  0.02863000  0.00000000  0.03098000  1.0
  Li  Li1  1  0.02863000  0.50000000  0.03098000  1.0
  Li  Li2  1  0.49496000  0.57113000  0.88137000  1.0
  Li  Li3  1  0.49505000  0.92882000  0.88136000  1.0
  Sc  Sc4  1  0.29294000  0.25000000  0.09293000  1.0
  Sc  Sc5  1  0.29294000  0.75000000  0.09293000  1.0
  Sc  Sc6  1  0.72653000  0.75002000  0.97183000  1.0
  Sc  Sc7  1  0.76719000  0.24998000  0.95715000  1.0
  In  In8  1  0.23305000  0.75003000  0.96813000  1.0
  In  In9  1  0.27293000  0.25010000  0.95138000  1.0
  In  In10  1  0.79294000  0.25000000  0.09293000  1.0
  In  In11  1  0.79294000  0.75000000  0.09293000  1.0
  Ga  Ga12  1  0.52863000  0.00000000  0.03098000  1.0
  Ga  Ga13  1  0.52863000  0.50000000  0.03098000  1.0
  Ga  Ga14  1  0.93976000  0.54394000  0.89722000  1.0
  Ga  Ga15  1  0.93992000  0.95597000  0.89720000  1.0
  C  C16  1  0.75164000  0.74994000  0.88604000  1.0
