# generated using pymatgen
data_ZrInNi2
_symmetry_space_group_name_H-M   Pmm2
_cell_length_a   6.34973000
_cell_length_b   8.97987000
_cell_length_c   26.73490000
_cell_angle_alpha   90.00000000
_cell_angle_beta   90.00000000
_cell_angle_gamma   90.00000000
_symmetry_Int_Tables_number   25
_chemical_formula_structural   ZrInNi2
_chemical_formula_sum   'Zr8 In8 Ni16'
_cell_volume   1524.41731254
_cell_formula_units_Z   8
loop_
 _symmetry_equiv_pos_site_id
 _symmetry_equiv_pos_as_xyz
  1  'x, y, z'
  2  '-x, -y, z'
  3  '-x, y, z'
  4  'x, -y, z'
loop_
 _atom_site_type_symbol
 _atom_site_label
 _atom_site_symmetry_multiplicity
 _atom_site_fract_x
 _atom_site_fract_y
 _atom_site_fract_z
 _atom_site_occupancy
  Zr  Zr0  2  0.00000000  0.25000000  0.87404000  1.0
  Zr  Zr1  2  0.00000000  0.25003000  0.04295000  1.0
  Zr  Zr2  1  0.50000000  0.00000000  0.12511000  1.0
  Zr  Zr3  1  0.50000000  0.00000000  0.95801000  1.0
  Zr  Zr4  1  0.50000000  0.50000000  0.12510000  1.0
  Zr  Zr5  1  0.50000000  0.50000000  0.95801000  1.0
  In  In6  2  0.50000000  0.24997000  0.04036000  1.0
  In  In7  2  0.50000000  0.25000000  0.87404000  1.0
  In  In8  1  0.00000000  0.00000000  0.13146000  1.0
  In  In9  1  0.00000000  0.00000000  0.95801000  1.0
  In  In10  1  0.00000000  0.50000000  0.13147000  1.0
  In  In11  1  0.00000000  0.50000000  0.95801000  1.0
  Ni  Ni12  4  0.25000000  0.25000000  0.95801000  1.0
  Ni  Ni13  4  0.25110000  0.24993000  0.12060000  1.0
  Ni  Ni14  2  0.25000000  0.50000000  0.87404000  1.0
  Ni  Ni15  2  0.25000000  0.00000000  0.87404000  1.0
  Ni  Ni16  2  0.25611000  0.00000000  0.04450000  1.0
  Ni  Ni17  2  0.25613000  0.50000000  0.04451000  1.0
