data_image0
_chemical_formula_structural       Li4In4Cu4Ge4C
_chemical_formula_sum              "Li4 In4 Cu4 Ge4 C1"
_cell_length_a       6.49386
_cell_length_b       6.49386
_cell_length_c       24.8704
_cell_angle_alpha    90
_cell_angle_beta     90
_cell_angle_gamma    90

_space_group_name_H-M_alt    "P 1"
_space_group_IT_number       1

loop_
  _space_group_symop_operation_xyz
  'x, y, z'

loop_
  _atom_site_type_symbol
  _atom_site_label
  _atom_site_symmetry_multiplicity
  _atom_site_fract_x
  _atom_site_fract_y
  _atom_site_fract_z
  _atom_site_occupancy
  Li  Li1       1.0  0.02217  0.47786  0.11043  1.0000
  Li  Li2       1.0  0.00000  0.00000  0.96736  1.0000
  Li  Li3       1.0  0.50000  0.50000  0.96736  1.0000
  Li  Li4       1.0  0.47784  0.02214  0.11044  1.0000
  In  In1       1.0  0.25000  0.25000  0.01678  1.0000
  In  In2       1.0  0.25000  0.75000  0.90208  1.0000
  In  In3       1.0  0.75000  0.25000  0.90208  1.0000
  In  In4       1.0  0.75000  0.75000  0.03971  1.0000
  Cu  Cu1       1.0  0.04490  0.04491  0.09084  1.0000
  Cu  Cu2       1.0  0.00000  0.50000  0.96736  1.0000
  Cu  Cu3       1.0  0.50000  0.00000  0.96736  1.0000
  Cu  Cu4       1.0  0.45509  0.45509  0.09084  1.0000
  Ge  Ge1       1.0  0.75000  0.25000  0.03933  1.0000
  Ge  Ge2       1.0  0.75000  0.75000  0.90208  1.0000
  Ge  Ge3       1.0  0.25000  0.25000  0.90208  1.0000
  Ge  Ge4       1.0  0.25000  0.75000  0.03932  1.0000
  C   C1        1.0  0.25000  0.25000  0.10957  1.0000
