# generated using pymatgen
data_Li4In4Cu4Ge4C
_symmetry_space_group_name_H-M   Cmm2
_cell_length_a   9.18370488
_cell_length_b   9.18370488
_cell_length_c   24.87040000
_cell_angle_alpha   90.00000000
_cell_angle_beta   90.00000000
_cell_angle_gamma   90.00000000
_symmetry_Int_Tables_number   35
_chemical_formula_structural   Li4In4Cu4Ge4C
_chemical_formula_sum   'Li8 In8 Cu8 Ge8 C2'
_cell_volume   2097.58036455
_cell_formula_units_Z   2
loop_
 _symmetry_equiv_pos_site_id
 _symmetry_equiv_pos_as_xyz
  1  'x, y, z'
  2  '-x, -y, z'
  3  '-x, y, z'
  4  'x, -y, z'
  5  'x+1/2, y+1/2, z'
  6  '-x+1/2, -y+1/2, z'
  7  '-x+1/2, y+1/2, z'
  8  'x+1/2, -y+1/2, z'
loop_
 _atom_site_type_symbol
 _atom_site_label
 _atom_site_symmetry_multiplicity
 _atom_site_fract_x
 _atom_site_fract_y
 _atom_site_fract_z
 _atom_site_occupancy
  Li  Li0  4  0.00000000  0.25000000  0.96736000  1.0
  Li  Li1  4  0.22784500  0.50000000  0.11043000  1.0
  In  In2  4  0.25000000  0.25000000  0.90208000  1.0
  In  In3  2  0.00000000  0.00000000  0.03971000  1.0
  In  In4  2  0.00000000  0.50000000  0.01678000  1.0
  Cu  Cu5  4  0.00000000  0.29490500  0.09084000  1.0
  Cu  Cu6  4  0.25000000  0.00000000  0.96736000  1.0
  Ge  Ge7  4  0.25000000  0.25000000  0.03933000  1.0
  Ge  Ge8  2  0.00000000  0.00000000  0.90208000  1.0
  Ge  Ge9  2  0.00000000  0.50000000  0.90208000  1.0
  C  C10  2  0.00000000  0.50000000  0.10957000  1.0
