data_image0
_chemical_formula_structural       Cr8Ga8Fe16CO
_chemical_formula_sum              "Cr8 Ga8 Fe16 C1 O1"
_cell_length_a       6.89656
_cell_length_b       9.75322
_cell_length_c       27.3149
_cell_angle_alpha    90
_cell_angle_beta     90
_cell_angle_gamma    90

_space_group_name_H-M_alt    "P 1"
_space_group_IT_number       1

loop_
  _space_group_symop_operation_xyz
  'x, y, z'

loop_
  _atom_site_type_symbol
  _atom_site_label
  _atom_site_symmetry_multiplicity
  _atom_site_fract_x
  _atom_site_fract_y
  _atom_site_fract_z
  _atom_site_occupancy
  Cr  Cr1       1.0  0.00000  0.00000  0.86610  1.0000
  Cr  Cr2       1.0  0.50000  0.25000  0.95537  1.0000
  Cr  Cr3       1.0  0.50000  0.75000  0.95537  1.0000
  Cr  Cr4       1.0  0.00000  0.50000  0.86610  1.0000
  Cr  Cr5       1.0  0.99786  0.49998  0.03912  1.0000
  Cr  Cr6       1.0  0.49940  0.74623  0.11560  1.0000
  Cr  Cr7       1.0  0.49939  0.25377  0.11559  1.0000
  Cr  Cr8       1.0  0.01221  0.00002  0.04083  1.0000
  Ga  Ga1       1.0  0.00000  0.75000  0.95537  1.0000
  Ga  Ga2       1.0  0.50000  0.00000  0.86610  1.0000
  Ga  Ga3       1.0  0.00000  0.25000  0.95537  1.0000
  Ga  Ga4       1.0  0.50000  0.50000  0.86610  1.0000
  Ga  Ga5       1.0  0.00236  0.25414  0.10798  1.0000
  Ga  Ga6       1.0  0.50116  0.50014  0.04105  1.0000
  Ga  Ga7       1.0  0.00230  0.74587  0.10797  1.0000
  Ga  Ga8       1.0  0.48561  0.99984  0.04313  1.0000
  Fe  Fe1       1.0  0.25000  0.00000  0.95537  1.0000
  Fe  Fe2       1.0  0.75000  0.50000  0.95537  1.0000
  Fe  Fe3       1.0  0.75000  0.00000  0.95537  1.0000
  Fe  Fe4       1.0  0.25000  0.50000  0.95537  1.0000
  Fe  Fe5       1.0  0.75000  0.75000  0.86610  1.0000
  Fe  Fe6       1.0  0.25000  0.25000  0.86610  1.0000
  Fe  Fe7       1.0  0.25000  0.75000  0.86610  1.0000
  Fe  Fe8       1.0  0.75000  0.25000  0.86610  1.0000
  Fe  Fe9       1.0  0.20812  0.50003  0.09708  1.0000
  Fe  Fe10      1.0  0.78222  0.99993  0.10054  1.0000
  Fe  Fe11      1.0  0.78981  0.50006  0.09826  1.0000
  Fe  Fe12      1.0  0.21866  0.99995  0.12353  1.0000
  Fe  Fe13      1.0  0.74330  0.24807  0.04062  1.0000
  Fe  Fe14      1.0  0.25240  0.74664  0.03992  1.0000
  Fe  Fe15      1.0  0.25238  0.25337  0.03995  1.0000
  Fe  Fe16      1.0  0.74331  0.75194  0.04057  1.0000
  C   C1        1.0  0.26145  0.00000  0.18750  1.0000
  O   O1        1.0  0.25033  0.99999  0.22887  1.0000
