# generated using pymatgen
data_Cr8Ga8Fe16CO
_symmetry_space_group_name_H-M   'P 1'
_cell_length_a   6.89656000
_cell_length_b   9.75322000
_cell_length_c   27.31490000
_cell_angle_alpha   90.00000000
_cell_angle_beta   90.00000000
_cell_angle_gamma   90.00000000
_symmetry_Int_Tables_number   1
_chemical_formula_structural   Cr8Ga8Fe16CO
_chemical_formula_sum   'Cr8 Ga8 Fe16 C1 O1'
_cell_volume   1837.30033564
_cell_formula_units_Z   1
loop_
 _symmetry_equiv_pos_site_id
 _symmetry_equiv_pos_as_xyz
  1  'x, y, z'
loop_
 _atom_site_type_symbol
 _atom_site_label
 _atom_site_symmetry_multiplicity
 _atom_site_fract_x
 _atom_site_fract_y
 _atom_site_fract_z
 _atom_site_occupancy
  Cr  Cr0  1  0.00000000  0.00000000  0.86610000  1.0
  Cr  Cr1  1  0.50000000  0.25000000  0.95537000  1.0
  Cr  Cr2  1  0.50000000  0.75000000  0.95537000  1.0
  Cr  Cr3  1  0.00000000  0.50000000  0.86610000  1.0
  Cr  Cr4  1  0.00109000  0.49984000  0.00180000  1.0
  Cr  Cr5  1  0.50924000  0.75896000  0.10431000  1.0
  Cr  Cr6  1  0.51059000  0.23992000  0.10503000  1.0
  Cr  Cr7  1  0.99307000  0.99668000  0.02017000  1.0
  Ga  Ga8  1  0.00000000  0.75000000  0.95537000  1.0
  Ga  Ga9  1  0.50000000  0.00000000  0.86610000  1.0
  Ga  Ga10  1  0.00000000  0.25000000  0.95537000  1.0
  Ga  Ga11  1  0.50000000  0.50000000  0.86610000  1.0
  Ga  Ga12  1  0.99541000  0.23716000  0.10126000  1.0
  Ga  Ga13  1  0.49600000  0.50127000  0.02411000  1.0
  Ga  Ga14  1  0.99523000  0.76194000  0.10060000  1.0
  Ga  Ga15  1  0.45234000  0.99943000  0.03162000  1.0
  Fe  Fe16  1  0.25000000  0.00000000  0.95537000  1.0
  Fe  Fe17  1  0.75000000  0.50000000  0.95537000  1.0
  Fe  Fe18  1  0.75000000  0.00000000  0.95537000  1.0
  Fe  Fe19  1  0.25000000  0.50000000  0.95537000  1.0
  Fe  Fe20  1  0.75000000  0.75000000  0.86610000  1.0
  Fe  Fe21  1  0.25000000  0.25000000  0.86610000  1.0
  Fe  Fe22  1  0.25000000  0.75000000  0.86610000  1.0
  Fe  Fe23  1  0.75000000  0.25000000  0.86610000  1.0
  Fe  Fe24  1  0.20226000  0.49881000  0.08717000  1.0
  Fe  Fe25  1  0.77620000  0.00176000  0.09056000  1.0
  Fe  Fe26  1  0.79282000  0.49953000  0.08585000  1.0
  Fe  Fe27  1  0.22018000  0.99981000  0.11040000  1.0
  Fe  Fe28  1  0.77622000  0.29283000  0.02781000  1.0
  Fe  Fe29  1  0.22967000  0.72331000  0.02651000  1.0
  Fe  Fe30  1  0.22860000  0.27607000  0.02684000  1.0
  Fe  Fe31  1  0.77488000  0.70867000  0.02646000  1.0
  C  C32  1  0.22619000  0.99948000  0.17849000  1.0
  O  O33  1  0.26954000  0.00018000  0.21900000  1.0
