# generated using pymatgen
data_Li8Mg8Ag8Pb8CO
_symmetry_space_group_name_H-M   'P 1'
_cell_length_a   9.72976000
_cell_length_b   6.87998000
_cell_length_c   27.29730000
_cell_angle_alpha   90.00000000
_cell_angle_beta   90.00000000
_cell_angle_gamma   90.00000000
_symmetry_Int_Tables_number   1
_chemical_formula_structural   Li8Mg8Ag8Pb8CO
_chemical_formula_sum   'Li8 Mg8 Ag8 Pb8 C1 O1'
_cell_volume   1827.29639029
_cell_formula_units_Z   1
loop_
 _symmetry_equiv_pos_site_id
 _symmetry_equiv_pos_as_xyz
  1  'x, y, z'
loop_
 _atom_site_type_symbol
 _atom_site_label
 _atom_site_symmetry_multiplicity
 _atom_site_fract_x
 _atom_site_fract_y
 _atom_site_fract_z
 _atom_site_occupancy
  Li  Li0  1  0.00000000  0.75000000  0.04455000  1.0
  Li  Li1  1  0.50000000  0.75000000  0.04455000  1.0
  Li  Li2  1  0.25000000  0.25000000  0.13366000  1.0
  Li  Li3  1  0.75000000  0.25000000  0.13366000  1.0
  Li  Li4  1  0.50000000  0.75319000  0.86252000  1.0
  Li  Li5  1  0.00000000  0.75140000  0.85796000  1.0
  Li  Li6  1  0.75041000  0.24227000  0.95280000  1.0
  Li  Li7  1  0.24959000  0.24227000  0.95280000  1.0
  Mg  Mg8  1  0.00000000  0.25000000  0.04455000  1.0
  Mg  Mg9  1  0.50000000  0.25000000  0.04455000  1.0
  Mg  Mg10  1  0.25000000  0.75000000  0.13366000  1.0
  Mg  Mg11  1  0.75000000  0.75000000  0.13366000  1.0
  Mg  Mg12  1  0.50000000  0.25673000  0.85850000  1.0
  Mg  Mg13  1  0.00000000  0.24642000  0.85995000  1.0
  Mg  Mg14  1  0.74890000  0.76955000  0.94875000  1.0
  Mg  Mg15  1  0.25110000  0.76955000  0.94875000  1.0
  Ag  Ag16  1  0.00000000  0.00000000  0.13366000  1.0
  Ag  Ag17  1  0.50000000  0.00000000  0.13366000  1.0
  Ag  Ag18  1  0.75000000  0.50000000  0.04455000  1.0
  Ag  Ag19  1  0.25000000  0.50000000  0.04455000  1.0
  Ag  Ag20  1  0.50000000  0.01118000  0.94756000  1.0
  Ag  Ag21  1  0.00000000  0.00464000  0.94848000  1.0
  Ag  Ag22  1  0.25050000  0.48232000  0.86893000  1.0
  Ag  Ag23  1  0.74950000  0.48232000  0.86893000  1.0
  Pb  Pb24  1  0.25000000  1.00000000  0.04455000  1.0
  Pb  Pb25  1  0.75000000  1.00000000  0.04455000  1.0
  Pb  Pb26  1  0.50000000  0.50000000  0.13366000  1.0
  Pb  Pb27  1  0.00000000  0.50000000  0.13366000  1.0
  Pb  Pb28  1  0.74698000  0.99988000  0.85061000  1.0
  Pb  Pb29  1  0.25302000  0.99988000  0.85061000  1.0
  Pb  Pb30  1  0.00000000  0.50491000  0.95052000  1.0
  Pb  Pb31  1  0.50000000  0.50286000  0.95162000  1.0
  C  C32  1  0.00000000  0.73081000  0.78139000  1.0
  O  O33  1  0.00000000  0.73094000  0.73949000  1.0
