# generated using pymatgen
data_Li16In8Rh8CO
_symmetry_space_group_name_H-M   'P 1'
_cell_length_a   8.97987000
_cell_length_b   6.34973000
_cell_length_c   26.73490000
_cell_angle_alpha   90.00000000
_cell_angle_beta   90.00000000
_cell_angle_gamma   90.00000000
_symmetry_Int_Tables_number   1
_chemical_formula_structural   Li16In8Rh8CO
_chemical_formula_sum   'Li16 In8 Rh8 C1 O1'
_cell_volume   1524.41731254
_cell_formula_units_Z   1
loop_
 _symmetry_equiv_pos_site_id
 _symmetry_equiv_pos_as_xyz
  1  'x, y, z'
loop_
 _atom_site_type_symbol
 _atom_site_label
 _atom_site_symmetry_multiplicity
 _atom_site_fract_x
 _atom_site_fract_y
 _atom_site_fract_z
 _atom_site_occupancy
  Li  Li0  1  0.75000000  0.00000000  0.04199000  1.0
  Li  Li1  1  0.00000000  0.50000000  0.12596000  1.0
  Li  Li2  1  0.25000000  0.00000000  0.04199000  1.0
  Li  Li3  1  0.50000000  0.50000000  0.12596000  1.0
  Li  Li4  1  0.25000000  0.25000000  0.12596000  1.0
  Li  Li5  1  0.75000000  0.25000000  0.12596000  1.0
  Li  Li6  1  0.50000000  0.75000000  0.04199000  1.0
  Li  Li7  1  0.00000000  0.75000000  0.04199000  1.0
  Li  Li8  1  0.24899000  0.99911000  0.87294000  1.0
  Li  Li9  1  0.50000000  0.49823000  0.95628000  1.0
  Li  Li10  1  0.75101000  0.99911000  0.87294000  1.0
  Li  Li11  1  0.00000000  0.50860000  0.95899000  1.0
  Li  Li12  1  0.75071000  0.25192000  0.95852000  1.0
  Li  Li13  1  0.24929000  0.25192000  0.95852000  1.0
  Li  Li14  1  0.00000000  0.73232000  0.87016000  1.0
  Li  Li15  1  0.50000000  0.72891000  0.86779000  1.0
  In  In16  1  0.00000000  0.25000000  0.04199000  1.0
  In  In17  1  0.50000000  0.25000000  0.04199000  1.0
  In  In18  1  0.75000000  0.75000000  0.12596000  1.0
  In  In19  1  0.25000000  0.75000000  0.12596000  1.0
  In  In20  1  0.50000000  0.25902000  0.86821000  1.0
  In  In21  1  0.00000000  0.26407000  0.87284000  1.0
  In  In22  1  0.25156000  0.75545000  0.95923000  1.0
  In  In23  1  0.74844000  0.75545000  0.95923000  1.0
  Rh  Rh24  1  0.00000000  0.00000000  0.12596000  1.0
  Rh  Rh25  1  0.25000000  0.50000000  0.04199000  1.0
  Rh  Rh26  1  0.75000000  0.50000000  0.04199000  1.0
  Rh  Rh27  1  0.50000000  0.00000000  0.12596000  1.0
  Rh  Rh28  1  0.50000000  0.00741000  0.95265000  1.0
  Rh  Rh29  1  0.74718000  0.49125000  0.88104000  1.0
  Rh  Rh30  1  0.25282000  0.49125000  0.88104000  1.0
  Rh  Rh31  1  0.00000000  0.00283000  0.95507000  1.0
  C  C32  1  0.00000000  0.75136000  0.79296000  1.0
  O  O33  1  0.00000000  0.74257000  0.75022000  1.0
