# generated using pymatgen
data_Li16In8Rh8CO
_symmetry_space_group_name_H-M   Pm
_cell_length_a   6.34973000
_cell_length_b   8.97987000
_cell_length_c   26.73490000
_cell_angle_alpha   90.00000000
_cell_angle_beta   90.00000000
_cell_angle_gamma   90.00000000
_symmetry_Int_Tables_number   6
_chemical_formula_structural   Li16In8Rh8CO
_chemical_formula_sum   'Li16 In8 Rh8 C1 O1'
_cell_volume   1524.41731254
_cell_formula_units_Z   1
loop_
 _symmetry_equiv_pos_site_id
 _symmetry_equiv_pos_as_xyz
  1  'x, y, z'
  2  'x, -y, z'
loop_
 _atom_site_type_symbol
 _atom_site_label
 _atom_site_symmetry_multiplicity
 _atom_site_fract_x
 _atom_site_fract_y
 _atom_site_fract_z
 _atom_site_occupancy
  Li  Li0  2  0.00000000  0.25000000  0.95801000  1.0
  Li  Li1  2  0.25000000  0.25000000  0.87404000  1.0
  Li  Li2  2  0.25192000  0.24929000  0.04148000  1.0
  Li  Li3  2  0.99911000  0.24899000  0.12706000  1.0
  Li  Li4  1  0.49823000  0.50000000  0.04372000  1.0
  Li  Li5  1  0.50000000  0.00000000  0.87404000  1.0
  Li  Li6  1  0.50000000  0.50000000  0.87404000  1.0
  Li  Li7  1  0.50860000  0.00000000  0.04101000  1.0
  Li  Li8  1  0.72891000  0.50000000  0.13221000  1.0
  Li  Li9  1  0.73232000  0.00000000  0.12984000  1.0
  Li  Li10  1  0.75000000  0.00000000  0.95801000  1.0
  Li  Li11  1  0.75000000  0.50000000  0.95801000  1.0
  In  In12  2  0.75000000  0.25000000  0.87404000  1.0
  In  In13  2  0.75545000  0.25156000  0.04077000  1.0
  In  In14  1  0.25000000  0.00000000  0.95801000  1.0
  In  In15  1  0.25000000  0.50000000  0.95801000  1.0
  In  In16  1  0.25902000  0.50000000  0.13179000  1.0
  In  In17  1  0.26407000  0.00000000  0.12716000  1.0
  Rh  Rh18  2  0.49125000  0.25282000  0.11896000  1.0
  Rh  Rh19  2  0.50000000  0.25000000  0.95801000  1.0
  Rh  Rh20  1  0.00000000  0.00000000  0.87404000  1.0
  Rh  Rh21  1  0.00000000  0.50000000  0.87404000  1.0
  Rh  Rh22  1  0.00283000  0.00000000  0.04493000  1.0
  Rh  Rh23  1  0.00741000  0.50000000  0.04735000  1.0
  C  C24  1  0.75136000  0.00000000  0.20704000  1.0
  O  O25  1  0.74257000  0.00000000  0.24978000  1.0
