# generated using pymatgen
data_Sc8Cu8Ge8Pd8CO
_symmetry_space_group_name_H-M   'P 1'
_cell_length_a   8.95756000
_cell_length_b   6.33395000
_cell_length_c   26.71820000
_cell_angle_alpha   90.00000000
_cell_angle_beta   90.00000000
_cell_angle_gamma   90.00000000
_symmetry_Int_Tables_number   1
_chemical_formula_structural   Sc8Cu8Ge8Pd8CO
_chemical_formula_sum   'Sc8 Cu8 Ge8 Pd8 C1 O1'
_cell_volume   1515.90349084
_cell_formula_units_Z   1
loop_
 _symmetry_equiv_pos_site_id
 _symmetry_equiv_pos_as_xyz
  1  'x, y, z'
loop_
 _atom_site_type_symbol
 _atom_site_label
 _atom_site_symmetry_multiplicity
 _atom_site_fract_x
 _atom_site_fract_y
 _atom_site_fract_z
 _atom_site_occupancy
  Sc  Sc0  1  0.75002000  0.75000000  0.04191000  1.0
  Sc  Sc1  1  0.24998000  0.75000000  0.04191000  1.0
  Sc  Sc2  1  0.00000000  0.25000000  0.12572000  1.0
  Sc  Sc3  1  0.50000000  0.25000000  0.12572000  1.0
  Sc  Sc4  1  0.24039000  0.69537000  0.87042000  1.0
  Sc  Sc5  1  0.75961000  0.69537000  0.87042000  1.0
  Sc  Sc6  1  0.50000000  0.23944000  0.95392000  1.0
  Sc  Sc7  1  0.00000000  0.25259000  0.95407000  1.0
  Cu  Cu8  1  0.75002000  0.00000000  0.12572000  1.0
  Cu  Cu9  1  0.24998000  0.00000000  0.12572000  1.0
  Cu  Cu10  1  0.50000000  0.50000000  0.04191000  1.0
  Cu  Cu11  1  0.00000000  0.50000000  0.04191000  1.0
  Cu  Cu12  1  0.24985000  0.97365000  0.95136000  1.0
  Cu  Cu13  1  0.75015000  0.97365000  0.95136000  1.0
  Cu  Cu14  1  0.00000000  0.36796000  0.84530000  1.0
  Cu  Cu15  1  0.50000000  0.45178000  0.86167000  1.0
  Ge  Ge16  1  0.75002000  0.25000000  0.04191000  1.0
  Ge  Ge17  1  0.24998000  0.25000000  0.04191000  1.0
  Ge  Ge18  1  0.00000000  0.75000000  0.12572000  1.0
  Ge  Ge19  1  0.50000000  0.75000000  0.12572000  1.0
  Ge  Ge20  1  0.25497000  0.23099000  0.87624000  1.0
  Ge  Ge21  1  0.74503000  0.23099000  0.87624000  1.0
  Ge  Ge22  1  0.50000000  0.74164000  0.95905000  1.0
  Ge  Ge23  1  0.00000000  0.74349000  0.95874000  1.0
  Pd  Pd24  1  0.00000000  0.00000000  0.04191000  1.0
  Pd  Pd25  1  0.50000000  1.00000000  0.04191000  1.0
  Pd  Pd26  1  0.25002000  0.50000000  0.12572000  1.0
  Pd  Pd27  1  0.74998000  0.50000000  0.12572000  1.0
  Pd  Pd28  1  0.50000000  0.93864000  0.87425000  1.0
  Pd  Pd29  1  0.00000000  0.96711000  0.87690000  1.0
  Pd  Pd30  1  0.74686000  0.50013000  0.96002000  1.0
  Pd  Pd31  1  0.25314000  0.50013000  0.96002000  1.0
  C  C32  1  0.00000000  0.53585000  0.78867000  1.0
  O  O33  1  0.00000000  0.61795000  0.74995000  1.0
