# generated using pymatgen
data_Sc8Cu8Ge8Pd8CO
_symmetry_space_group_name_H-M   Pm
_cell_length_a   6.33395000
_cell_length_b   8.95756000
_cell_length_c   26.71820000
_cell_angle_alpha   90.00000000
_cell_angle_beta   90.00000000
_cell_angle_gamma   90.00000000
_symmetry_Int_Tables_number   6
_chemical_formula_structural   Sc8Cu8Ge8Pd8CO
_chemical_formula_sum   'Sc8 Cu8 Ge8 Pd8 C1 O1'
_cell_volume   1515.90349084
_cell_formula_units_Z   1
loop_
 _symmetry_equiv_pos_site_id
 _symmetry_equiv_pos_as_xyz
  1  'x, y, z'
  2  'x, -y, z'
loop_
 _atom_site_type_symbol
 _atom_site_label
 _atom_site_symmetry_multiplicity
 _atom_site_fract_x
 _atom_site_fract_y
 _atom_site_fract_z
 _atom_site_occupancy
  Sc  Sc0  2  0.69537000  0.24039000  0.12958000  1.0
  Sc  Sc1  2  0.75000000  0.24998000  0.95809000  1.0
  Sc  Sc2  1  0.23944000  0.50000000  0.04608000  1.0
  Sc  Sc3  1  0.25000000  0.00000000  0.87428000  1.0
  Sc  Sc4  1  0.25000000  0.50000000  0.87428000  1.0
  Sc  Sc5  1  0.25259000  0.00000000  0.04593000  1.0
  Cu  Cu6  2  0.00000000  0.24998000  0.87428000  1.0
  Cu  Cu7  2  0.97365000  0.24985000  0.04864000  1.0
  Cu  Cu8  1  0.36796000  0.00000000  0.15470000  1.0
  Cu  Cu9  1  0.45178000  0.50000000  0.13833000  1.0
  Cu  Cu10  1  0.50000000  0.00000000  0.95809000  1.0
  Cu  Cu11  1  0.50000000  0.50000000  0.95809000  1.0
  Ge  Ge12  2  0.23099000  0.25497000  0.12376000  1.0
  Ge  Ge13  2  0.25000000  0.24998000  0.95809000  1.0
  Ge  Ge14  1  0.74164000  0.50000000  0.04095000  1.0
  Ge  Ge15  1  0.74349000  0.00000000  0.04126000  1.0
  Ge  Ge16  1  0.75000000  0.00000000  0.87428000  1.0
  Ge  Ge17  1  0.75000000  0.50000000  0.87428000  1.0
  Pd  Pd18  2  0.50000000  0.25002000  0.87428000  1.0
  Pd  Pd19  2  0.50013000  0.25314000  0.03998000  1.0
  Pd  Pd20  1  -0.00000000  0.50000000  0.95809000  1.0
  Pd  Pd21  1  0.00000000  0.00000000  0.95809000  1.0
  Pd  Pd22  1  0.93864000  0.50000000  0.12575000  1.0
  Pd  Pd23  1  0.96711000  0.00000000  0.12310000  1.0
  C  C24  1  0.53585000  0.00000000  0.21133000  1.0
  O  O25  1  0.61795000  0.00000000  0.25005000  1.0
