data_image0
_chemical_formula_structural       Pt24Pb8C
_chemical_formula_sum              "Pt24 Pb8 C1"
_cell_length_a       8.34058
_cell_length_b       8.34058
_cell_length_c       26.2554
_cell_angle_alpha    90
_cell_angle_beta     90
_cell_angle_gamma    90

_space_group_name_H-M_alt    "P 1"
_space_group_IT_number       1

loop_
  _space_group_symop_operation_xyz
  'x, y, z'

loop_
  _atom_site_type_symbol
  _atom_site_label
  _atom_site_symmetry_multiplicity
  _atom_site_fract_x
  _atom_site_fract_y
  _atom_site_fract_z
  _atom_site_occupancy
  Pt  Pt1       1.0  0.99718  0.25081  0.03973  1.0000
  Pt  Pt2       1.0  0.25000  0.99999  0.03683  1.0000
  Pt  Pt3       1.0  0.25000  0.23548  0.11090  1.0000
  Pt  Pt4       1.0  0.00000  0.25000  0.88087  1.0000
  Pt  Pt5       1.0  0.25000  0.00000  0.88087  1.0000
  Pt  Pt6       1.0  0.25000  0.25000  0.96029  1.0000
  Pt  Pt7       1.0  0.99718  0.74919  0.03973  1.0000
  Pt  Pt8       1.0  0.25000  0.50001  0.04543  1.0000
  Pt  Pt9       1.0  0.25000  0.76451  0.11090  1.0000
  Pt  Pt10      1.0  0.00000  0.75000  0.88087  1.0000
  Pt  Pt11      1.0  0.25000  0.50000  0.88087  1.0000
  Pt  Pt12      1.0  0.25000  0.75000  0.96029  1.0000
  Pt  Pt13      1.0  0.50282  0.25081  0.03973  1.0000
  Pt  Pt14      1.0  0.75000  0.99999  0.04329  1.0000
  Pt  Pt15      1.0  0.75000  0.26593  0.11217  1.0000
  Pt  Pt16      1.0  0.50000  0.25000  0.88087  1.0000
  Pt  Pt17      1.0  0.75000  0.00000  0.88087  1.0000
  Pt  Pt18      1.0  0.75000  0.25000  0.96029  1.0000
  Pt  Pt19      1.0  0.50282  0.74919  0.03973  1.0000
  Pt  Pt20      1.0  0.75000  0.50002  0.03712  1.0000
  Pt  Pt21      1.0  0.75000  0.73407  0.11217  1.0000
  Pt  Pt22      1.0  0.50000  0.75000  0.88087  1.0000
  Pt  Pt23      1.0  0.75000  0.50000  0.88087  1.0000
  Pt  Pt24      1.0  0.75000  0.75000  0.96029  1.0000
  Pb  Pb1       1.0  0.95088  0.00000  0.14460  1.0000
  Pb  Pb2       1.0  0.00000  0.00000  0.96029  1.0000
  Pb  Pb3       1.0  0.00611  0.50000  0.13011  1.0000
  Pb  Pb4       1.0  0.00000  0.50000  0.96029  1.0000
  Pb  Pb5       1.0  0.54912  0.00000  0.14460  1.0000
  Pb  Pb6       1.0  0.50000  0.00000  0.96029  1.0000
  Pb  Pb7       1.0  0.49389  0.50000  0.13011  1.0000
  Pb  Pb8       1.0  0.50000  0.50000  0.96029  1.0000
  C   C1        1.0  0.25000  1.00000  0.11653  1.0000
