# generated using pymatgen
data_Zn8Ni16Ge8C
_symmetry_space_group_name_H-M   'P 1'
_cell_length_a   5.88011000
_cell_length_b   8.31574000
_cell_length_c   26.23680000
_cell_angle_alpha   90.00000000
_cell_angle_beta   90.00000000
_cell_angle_gamma   90.00000000
_symmetry_Int_Tables_number   1
_chemical_formula_structural   Zn8Ni16Ge8C
_chemical_formula_sum   'Zn8 Ni16 Ge8 C1'
_cell_volume   1282.91303415
_cell_formula_units_Z   1
loop_
 _symmetry_equiv_pos_site_id
 _symmetry_equiv_pos_as_xyz
  1  'x, y, z'
loop_
 _atom_site_type_symbol
 _atom_site_label
 _atom_site_symmetry_multiplicity
 _atom_site_fract_x
 _atom_site_fract_y
 _atom_site_fract_z
 _atom_site_occupancy
  Zn  Zn0  1  0.00000000  0.00000000  0.88114000  1.0
  Zn  Zn1  1  0.50000000  0.25000000  0.96038000  1.0
  Zn  Zn2  1  0.50000000  0.75000000  0.96038000  1.0
  Zn  Zn3  1  0.00000000  0.50000000  0.88114000  1.0
  Zn  Zn4  1  0.00000000  0.50000000  0.03683000  1.0
  Zn  Zn5  1  0.50000000  0.74635000  0.12855000  1.0
  Zn  Zn6  1  0.50000000  0.25365000  0.12855000  1.0
  Zn  Zn7  1  0.00000000  0.00000000  0.03758000  1.0
  Ni  Ni8  1  0.25000000  0.00000000  0.96038000  1.0
  Ni  Ni9  1  0.75000000  0.50000000  0.96038000  1.0
  Ni  Ni10  1  0.75000000  0.00000000  0.96038000  1.0
  Ni  Ni11  1  0.25000000  0.50000000  0.96038000  1.0
  Ni  Ni12  1  0.75000000  0.75000000  0.88114000  1.0
  Ni  Ni13  1  0.25000000  0.25000000  0.88114000  1.0
  Ni  Ni14  1  0.25000000  0.75000000  0.88114000  1.0
  Ni  Ni15  1  0.75000000  0.25000000  0.88114000  1.0
  Ni  Ni16  1  0.25144000  0.50000000  0.11179000  1.0
  Ni  Ni17  1  0.79269000  0.00000000  0.11984000  1.0
  Ni  Ni18  1  0.74856000  0.50000000  0.11179000  1.0
  Ni  Ni19  1  0.20731000  0.00000000  0.11984000  1.0
  Ni  Ni20  1  0.74695000  0.24846000  0.03989000  1.0
  Ni  Ni21  1  0.25305000  0.75154000  0.03989000  1.0
  Ni  Ni22  1  0.25305000  0.24846000  0.03989000  1.0
  Ni  Ni23  1  0.74695000  0.75154000  0.03989000  1.0
  Ge  Ge24  1  0.00000000  0.75000000  0.96038000  1.0
  Ge  Ge25  1  0.50000000  0.00000000  0.88114000  1.0
  Ge  Ge26  1  0.00000000  0.25000000  0.96038000  1.0
  Ge  Ge27  1  0.50000000  0.50000000  0.88114000  1.0
  Ge  Ge28  1  0.00000000  0.26037000  0.12187000  1.0
  Ge  Ge29  1  0.50000000  0.50000000  0.03836000  1.0
  Ge  Ge30  1  0.00000000  0.73963000  0.12187000  1.0
  Ge  Ge31  1  0.50000000  0.00000000  0.04090000  1.0
  C  C32  1  0.50000000  0.00000000  0.13594000  1.0
