# generated using pymatgen
data_Zn8Ni16Ge8C
_symmetry_space_group_name_H-M   Pmm2
_cell_length_a   5.88011000
_cell_length_b   8.31574000
_cell_length_c   26.23680000
_cell_angle_alpha   90.00000000
_cell_angle_beta   90.00000000
_cell_angle_gamma   90.00000000
_symmetry_Int_Tables_number   25
_chemical_formula_structural   Zn8Ni16Ge8C
_chemical_formula_sum   'Zn8 Ni16 Ge8 C1'
_cell_volume   1282.91303415
_cell_formula_units_Z   1
loop_
 _symmetry_equiv_pos_site_id
 _symmetry_equiv_pos_as_xyz
  1  'x, y, z'
  2  '-x, -y, z'
  3  '-x, y, z'
  4  'x, -y, z'
loop_
 _atom_site_type_symbol
 _atom_site_label
 _atom_site_symmetry_multiplicity
 _atom_site_fract_x
 _atom_site_fract_y
 _atom_site_fract_z
 _atom_site_occupancy
  Zn  Zn0  2  0.50000000  0.25000000  0.96038000  1.0
  Zn  Zn1  2  0.50000000  0.25365000  0.12855000  1.0
  Zn  Zn2  1  0.00000000  0.00000000  0.03758000  1.0
  Zn  Zn3  1  0.00000000  0.00000000  0.88114000  1.0
  Zn  Zn4  1  0.00000000  0.50000000  0.03683000  1.0
  Zn  Zn5  1  0.00000000  0.50000000  0.88114000  1.0
  Ni  Ni6  4  0.25000000  0.25000000  0.88114000  1.0
  Ni  Ni7  4  0.25305000  0.24846000  0.03989000  1.0
  Ni  Ni8  2  0.20731000  0.00000000  0.11984000  1.0
  Ni  Ni9  2  0.25000000  0.00000000  0.96038000  1.0
  Ni  Ni10  2  0.25000000  0.50000000  0.96038000  1.0
  Ni  Ni11  2  0.25144000  0.50000000  0.11179000  1.0
  Ge  Ge12  2  0.00000000  0.25000000  0.96038000  1.0
  Ge  Ge13  2  0.00000000  0.26037000  0.12187000  1.0
  Ge  Ge14  1  0.50000000  0.00000000  0.04090000  1.0
  Ge  Ge15  1  0.50000000  0.00000000  0.88114000  1.0
  Ge  Ge16  1  0.50000000  0.50000000  0.03836000  1.0
  Ge  Ge17  1  0.50000000  0.50000000  0.88114000  1.0
  C  C18  1  0.50000000  0.00000000  0.13594000  1.0
