# generated using pymatgen
data_Li4Sc4Ga4Ge4C
_symmetry_space_group_name_H-M   Pm
_cell_length_a   5.77599000
_cell_length_b   8.07712000
_cell_length_c   24.32640000
_cell_angle_alpha   90.00000000
_cell_angle_beta   90.00000000
_cell_angle_gamma   90.00000000
_symmetry_Int_Tables_number   6
_chemical_formula_structural   Li4Sc4Ga4Ge4C
_chemical_formula_sum   'Li4 Sc4 Ga4 Ge4 C1'
_cell_volume   1134.90840249
_cell_formula_units_Z   1
loop_
 _symmetry_equiv_pos_site_id
 _symmetry_equiv_pos_as_xyz
  1  'x, y, z'
  2  'x, -y, z'
loop_
 _atom_site_type_symbol
 _atom_site_label
 _atom_site_symmetry_multiplicity
 _atom_site_fract_x
 _atom_site_fract_y
 _atom_site_fract_z
 _atom_site_occupancy
  Li  Li0  2  0.23731000  0.24999000  0.97036000  1.0
  Li  Li1  2  0.58566000  0.29677000  0.10851000  1.0
  Sc  Sc2  1  0.50000000  0.00000000  0.91108000  1.0
  Sc  Sc3  1  0.50000000  0.50000000  0.91108000  1.0
  Sc  Sc4  1  0.92180000  0.00000000  0.04310000  1.0
  Sc  Sc5  1  0.94107000  0.50000000  0.03149000  1.0
  Ga  Ga6  1  -0.00000000  0.00000000  0.91108000  1.0
  Ga  Ga7  1  0.00000000  0.50000000  0.91108000  1.0
  Ga  Ga8  1  0.42510000  0.00000000  0.04678000  1.0
  Ga  Ga9  1  0.45201000  0.50000000  0.02313000  1.0
  Ge  Ge10  2  0.12878000  0.27007000  0.10428000  1.0
  Ge  Ge11  2  0.73731000  0.24999000  0.97036000  1.0
  C  C12  1  0.25828000  0.50000000  0.09281000  1.0
