# generated using pymatgen
data_LiGaGePd
_symmetry_space_group_name_H-M   Cmm2
_cell_length_a   8.87402040
_cell_length_b   8.87402040
_cell_length_c   24.70620000
_cell_angle_alpha   90.00000000
_cell_angle_beta   90.00000000
_cell_angle_gamma   90.00000000
_symmetry_Int_Tables_number   35
_chemical_formula_structural   LiGaGePd
_chemical_formula_sum   'Li8 Ga8 Ge8 Pd8'
_cell_volume   1945.56971839
_cell_formula_units_Z   8
loop_
 _symmetry_equiv_pos_site_id
 _symmetry_equiv_pos_as_xyz
  1  'x, y, z'
  2  '-x, -y, z'
  3  '-x, y, z'
  4  'x, -y, z'
  5  'x+1/2, y+1/2, z'
  6  '-x+1/2, -y+1/2, z'
  7  '-x+1/2, y+1/2, z'
  8  'x+1/2, -y+1/2, z'
loop_
 _atom_site_type_symbol
 _atom_site_label
 _atom_site_symmetry_multiplicity
 _atom_site_fract_x
 _atom_site_fract_y
 _atom_site_fract_z
 _atom_site_occupancy
  Li  Li0  4  0.00000000  0.24963000  0.10148000  1.0
  Li  Li1  4  0.25000000  0.00000000  0.96825000  1.0
  Ga  Ga2  4  0.25000000  0.25000000  0.02866000  1.0
  Ga  Ga3  2  0.00000000  0.00000000  0.90476000  1.0
  Ga  Ga4  2  0.00000000  0.50000000  0.90476000  1.0
  Ge  Ge5  4  0.25000000  0.25000000  0.90476000  1.0
  Ge  Ge6  2  0.00000000  0.00000000  0.03333000  1.0
  Ge  Ge7  2  0.00000000  0.50000000  0.03340000  1.0
  Pd  Pd8  4  0.00000000  0.25000000  0.96825000  1.0
  Pd  Pd9  4  0.24997000  0.00000000  0.08248000  1.0
