data_image0
_chemical_formula_structural       Li4Mn4Sb4Pd4CO
_chemical_formula_sum              "Li4 Mn4 Sb4 Pd4 C1 O1"
_cell_length_a       6.44934
_cell_length_b       6.44934
_cell_length_c       24.837
_cell_angle_alpha    90
_cell_angle_beta     90
_cell_angle_gamma    90

_space_group_name_H-M_alt    "P 1"
_space_group_IT_number       1

loop_
  _space_group_symop_operation_xyz
  'x, y, z'

loop_
  _atom_site_type_symbol
  _atom_site_label
  _atom_site_symmetry_multiplicity
  _atom_site_fract_x
  _atom_site_fract_y
  _atom_site_fract_z
  _atom_site_occupancy
  Li  Li1       1.0  0.00000  0.00000  0.90263  1.0000
  Li  Li2       1.0  0.99412  0.49415  0.03327  1.0000
  Li  Li3       1.0  0.50586  0.00588  0.03327  1.0000
  Li  Li4       1.0  0.50000  0.50000  0.90263  1.0000
  Mn  Mn1       1.0  0.00000  0.50000  0.90263  1.0000
  Mn  Mn2       1.0  0.99255  0.00744  0.03326  1.0000
  Mn  Mn3       1.0  0.50748  0.49252  0.03334  1.0000
  Mn  Mn4       1.0  0.50000  0.00000  0.90263  1.0000
  Sb  Sb1       1.0  0.75000  0.25000  0.96754  1.0000
  Sb  Sb2       1.0  0.75013  0.75026  0.09656  1.0000
  Sb  Sb3       1.0  0.24975  0.24986  0.09656  1.0000
  Sb  Sb4       1.0  0.25000  0.75000  0.96754  1.0000
  Pd  Pd1       1.0  0.25000  0.25000  0.96754  1.0000
  Pd  Pd2       1.0  0.24998  0.75003  0.08478  1.0000
  Pd  Pd3       1.0  0.75062  0.24936  0.10550  1.0000
  Pd  Pd4       1.0  0.75000  0.75000  0.96754  1.0000
  C   C1        1.0  0.74942  0.25061  0.18627  1.0000
  O   O1        1.0  0.75008  0.24993  0.23240  1.0000
