# generated using pymatgen
data_Li16In8Ag8C
_symmetry_space_group_name_H-M   Pm
_cell_length_a   6.67495000
_cell_length_b   9.43981000
_cell_length_c   27.07990000
_cell_angle_alpha   90.00000000
_cell_angle_beta   90.00000000
_cell_angle_gamma   90.00000000
_symmetry_Int_Tables_number   6
_chemical_formula_structural   Li16In8Ag8C
_chemical_formula_sum   'Li16 In8 Ag8 C1'
_cell_volume   1706.31153326
_cell_formula_units_Z   1
loop_
 _symmetry_equiv_pos_site_id
 _symmetry_equiv_pos_as_xyz
  1  'x, y, z'
  2  'x, -y, z'
loop_
 _atom_site_type_symbol
 _atom_site_label
 _atom_site_symmetry_multiplicity
 _atom_site_fract_x
 _atom_site_fract_y
 _atom_site_fract_z
 _atom_site_occupancy
  Li  Li0  2  0.25000000  0.25000000  0.95643000  1.0
  Li  Li1  2  0.26196000  0.27242000  0.12836000  1.0
  Li  Li2  2  0.49517000  0.24397000  0.03850000  1.0
  Li  Li3  2  0.50000000  0.25000000  0.86928000  1.0
  Li  Li4  1  0.00000000  0.00000000  0.95643000  1.0
  Li  Li5  1  0.00000000  0.50000000  0.95643000  1.0
  Li  Li6  1  0.73188000  0.50000000  0.04449000  1.0
  Li  Li7  1  0.75000000  0.00000000  0.86928000  1.0
  Li  Li8  1  0.75000000  0.50000000  0.86928000  1.0
  Li  Li9  1  0.75879000  0.00000000  0.04686000  1.0
  Li  Li10  1  0.96649000  0.50000000  0.12565000  1.0
  Li  Li11  1  0.99467000  0.00000000  0.13292000  1.0
  In  In12  2  0.00000000  0.25000000  0.86928000  1.0
  In  In13  2  0.00444000  0.25959000  0.04232000  1.0
  In  In14  1  0.40366000  0.00000000  0.15504000  1.0
  In  In15  1  0.50000000  0.00000000  0.95643000  1.0
  In  In16  1  0.50000000  0.50000000  0.95643000  1.0
  In  In17  1  0.52856000  0.50000000  0.14068000  1.0
  Ag  Ag18  2  0.71302000  0.23474000  0.12178000  1.0
  Ag  Ag19  2  0.75000000  0.25000000  0.95643000  1.0
  Ag  Ag20  1  0.24440000  0.00000000  0.04290000  1.0
  Ag  Ag21  1  0.25000000  0.00000000  0.86928000  1.0
  Ag  Ag22  1  0.25000000  0.50000000  0.86928000  1.0
  Ag  Ag23  1  0.27111000  0.50000000  0.04904000  1.0
  C  C24  1  0.69293000  0.00000000  0.12140000  1.0
