# generated using pymatgen
data_Li8V8Ge8Pd8C
_symmetry_space_group_name_H-M   'P 1'
_cell_length_a   9.40562000
_cell_length_b   5.68832000
_cell_length_c   26.48090000
_cell_angle_alpha   90.00000000
_cell_angle_beta   90.00000000
_cell_angle_gamma   90.00000000
_symmetry_Int_Tables_number   1
_chemical_formula_structural   Li8V8Ge8Pd8C
_chemical_formula_sum   'Li8 V8 Ge8 Pd8 C1'
_cell_volume   1416.78578193
_cell_formula_units_Z   1
loop_
 _symmetry_equiv_pos_site_id
 _symmetry_equiv_pos_as_xyz
  1  'x, y, z'
loop_
 _atom_site_type_symbol
 _atom_site_label
 _atom_site_symmetry_multiplicity
 _atom_site_fract_x
 _atom_site_fract_y
 _atom_site_fract_z
 _atom_site_occupancy
  Li  Li0  1  0.24995000  0.32191000  0.87737000  1.0
  Li  Li1  1  0.25000000  0.25000000  0.04079000  1.0
  Li  Li2  1  0.24995000  0.67809000  0.87737000  1.0
  Li  Li3  1  0.25000000  0.75000000  0.04079000  1.0
  Li  Li4  1  0.75001000  0.23587000  0.86370000  1.0
  Li  Li5  1  0.75000000  0.25000000  0.04079000  1.0
  Li  Li6  1  0.75001000  0.76413000  0.86370000  1.0
  Li  Li7  1  0.75000000  0.75000000  0.04079000  1.0
  V  V8  1  0.99801000  0.25640000  0.95851000  1.0
  V  V9  1  1.00000000  0.25000000  0.12237000  1.0
  V  V10  1  0.99801000  0.74360000  0.95851000  1.0
  V  V11  1  1.00000000  0.75000000  0.12237000  1.0
  V  V12  1  0.50202000  0.25629000  0.95851000  1.0
  V  V13  1  0.50000000  0.25000000  0.12237000  1.0
  V  V14  1  0.50202000  0.74371000  0.95851000  1.0
  V  V15  1  0.50000000  0.75000000  0.12237000  1.0
  Ge  Ge16  1  0.04242000  0.00000000  0.86930000  1.0
  Ge  Ge17  1  0.00000000  0.00000000  0.04079000  1.0
  Ge  Ge18  1  0.97865000  0.50000000  0.87730000  1.0
  Ge  Ge19  1  1.00000000  0.50000000  0.04079000  1.0
  Ge  Ge20  1  0.45759000  0.00000000  0.86935000  1.0
  Ge  Ge21  1  0.50000000  0.00000000  0.04079000  1.0
  Ge  Ge22  1  0.52131000  0.50000000  0.87734000  1.0
  Ge  Ge23  1  0.50000000  0.50000000  0.04079000  1.0
  Pd  Pd24  1  0.24999000  0.00000000  0.94483000  1.0
  Pd  Pd25  1  0.25000000  0.00000000  0.12237000  1.0
  Pd  Pd26  1  0.25008000  0.50000000  0.96636000  1.0
  Pd  Pd27  1  0.25000000  0.50000000  0.12237000  1.0
  Pd  Pd28  1  0.75003000  0.00000000  0.95751000  1.0
  Pd  Pd29  1  0.75000000  0.00000000  0.12237000  1.0
  Pd  Pd30  1  0.74997000  0.50000000  0.94136000  1.0
  Pd  Pd31  1  0.75000000  0.50000000  0.12237000  1.0
  C  C32  1  0.25000000  0.00000000  0.86071000  1.0
