# generated using pymatgen
data_Li8V8Ge8Pd8C
_symmetry_space_group_name_H-M   Pm
_cell_length_a   9.40562000
_cell_length_b   5.68832000
_cell_length_c   26.48090000
_cell_angle_alpha   90.00000000
_cell_angle_beta   90.00000000
_cell_angle_gamma   90.00000000
_symmetry_Int_Tables_number   6
_chemical_formula_structural   Li8V8Ge8Pd8C
_chemical_formula_sum   'Li8 V8 Ge8 Pd8 C1'
_cell_volume   1416.78578193
_cell_formula_units_Z   1
loop_
 _symmetry_equiv_pos_site_id
 _symmetry_equiv_pos_as_xyz
  1  'x, y, z'
  2  'x, -y, z'
loop_
 _atom_site_type_symbol
 _atom_site_label
 _atom_site_symmetry_multiplicity
 _atom_site_fract_x
 _atom_site_fract_y
 _atom_site_fract_z
 _atom_site_occupancy
  Li  Li0  2  0.24995000  0.32191000  0.12263000  1.0
  Li  Li1  2  0.25000000  0.25000000  0.95921000  1.0
  Li  Li2  2  0.75000000  0.25000000  0.95921000  1.0
  Li  Li3  2  0.75001000  0.23587000  0.13630000  1.0
  V  V4  2  -0.00000000  0.25000000  0.87763000  1.0
  V  V5  2  0.50000000  0.25000000  0.87763000  1.0
  V  V6  2  0.50202000  0.25629000  0.04149000  1.0
  V  V7  2  0.99801000  0.25640000  0.04149000  1.0
  Ge  Ge8  1  -0.00000000  0.50000000  0.95921000  1.0
  Ge  Ge9  1  0.00000000  0.00000000  0.95921000  1.0
  Ge  Ge10  1  0.04242000  0.00000000  0.13070000  1.0
  Ge  Ge11  1  0.45759000  0.00000000  0.13065000  1.0
  Ge  Ge12  1  0.50000000  0.00000000  0.95921000  1.0
  Ge  Ge13  1  0.50000000  0.50000000  0.95921000  1.0
  Ge  Ge14  1  0.52131000  0.50000000  0.12266000  1.0
  Ge  Ge15  1  0.97865000  0.50000000  0.12270000  1.0
  Pd  Pd16  1  0.24999000  0.00000000  0.05517000  1.0
  Pd  Pd17  1  0.25000000  0.00000000  0.87763000  1.0
  Pd  Pd18  1  0.25000000  0.50000000  0.87763000  1.0
  Pd  Pd19  1  0.25008000  0.50000000  0.03364000  1.0
  Pd  Pd20  1  0.74997000  0.50000000  0.05864000  1.0
  Pd  Pd21  1  0.75000000  0.00000000  0.87763000  1.0
  Pd  Pd22  1  0.75000000  0.50000000  0.87763000  1.0
  Pd  Pd23  1  0.75003000  0.00000000  0.04249000  1.0
  C  C24  1  0.25000000  0.00000000  0.13929000  1.0
