# generated using pymatgen
data_Zn2CuAu
_symmetry_space_group_name_H-M   P4mm
_cell_length_a   4.40466006
_cell_length_b   4.40466006
_cell_length_c   24.67180000
_cell_angle_alpha   90.00000000
_cell_angle_beta   90.00000000
_cell_angle_gamma   90.00000000
_symmetry_Int_Tables_number   99
_chemical_formula_structural   Zn2CuAu
_chemical_formula_sum   'Zn4 Cu2 Au2'
_cell_volume   478.65833882
_cell_formula_units_Z   2
loop_
 _symmetry_equiv_pos_site_id
 _symmetry_equiv_pos_as_xyz
  1  'x, y, z'
  2  '-y, x, z'
  3  '-x, -y, z'
  4  'y, -x, z'
  5  '-x, y, z'
  6  'y, x, z'
  7  'x, -y, z'
  8  '-y, -x, z'
loop_
 _atom_site_type_symbol
 _atom_site_label
 _atom_site_symmetry_multiplicity
 _atom_site_fract_x
 _atom_site_fract_y
 _atom_site_fract_z
 _atom_site_occupancy
  Zn  Zn0  2  0.00000000  0.50000000  0.03156000  1.0
  Zn  Zn1  2  0.00000000  0.50000000  0.90532000  1.0
  Cu  Cu2  1  0.00000000  0.00000000  0.09468000  1.0
  Cu  Cu3  1  0.50000000  0.50000000  0.96844000  1.0
  Au  Au4  1  0.00000000  0.00000000  0.96844000  1.0
  Au  Au5  1  0.50000000  0.50000000  0.09468000  1.0
