# generated using pymatgen
data_Li16In8Pd8C
_symmetry_space_group_name_H-M   'P 1'
_cell_length_a   9.14213000
_cell_length_b   6.46446000
_cell_length_c   26.85660000
_cell_angle_alpha   90.00000000
_cell_angle_beta   90.00000000
_cell_angle_gamma   90.00000000
_symmetry_Int_Tables_number   1
_chemical_formula_structural   Li16In8Pd8C
_chemical_formula_sum   'Li16 In8 Pd8 C1'
_cell_volume   1587.19642280
_cell_formula_units_Z   1
loop_
 _symmetry_equiv_pos_site_id
 _symmetry_equiv_pos_as_xyz
  1  'x, y, z'
loop_
 _atom_site_type_symbol
 _atom_site_label
 _atom_site_symmetry_multiplicity
 _atom_site_fract_x
 _atom_site_fract_y
 _atom_site_fract_z
 _atom_site_occupancy
  Li  Li0  1  0.50000000  0.00000000  0.04255000  1.0
  Li  Li1  1  0.75000000  0.50000000  0.12765000  1.0
  Li  Li2  1  0.00000000  0.00000000  0.04255000  1.0
  Li  Li3  1  0.25000000  0.50000000  0.12765000  1.0
  Li  Li4  1  0.00000000  0.25000000  0.12765000  1.0
  Li  Li5  1  0.50000000  0.25000000  0.12765000  1.0
  Li  Li6  1  0.25000000  0.75000000  0.04255000  1.0
  Li  Li7  1  0.75000000  0.75000000  0.04255000  1.0
  Li  Li8  1  0.00000000  0.99909000  0.85281000  1.0
  Li  Li9  1  0.24193000  0.49782000  0.95513000  1.0
  Li  Li10  1  0.50000000  0.94286000  0.86735000  1.0
  Li  Li11  1  0.75807000  0.49782000  0.95513000  1.0
  Li  Li12  1  0.50000000  0.25101000  0.95806000  1.0
  Li  Li13  1  0.00000000  0.23756000  0.96148000  1.0
  Li  Li14  1  0.77082000  0.71677000  0.86946000  1.0
  Li  Li15  1  0.22918000  0.71677000  0.86946000  1.0
  In  In16  1  0.75000000  0.25000000  0.04255000  1.0
  In  In17  1  0.25000000  0.25000000  0.04255000  1.0
  In  In18  1  0.50000000  0.75000000  0.12765000  1.0
  In  In19  1  0.00000000  0.75000000  0.12765000  1.0
  In  In20  1  0.26890000  0.23011000  0.86717000  1.0
  In  In21  1  0.73110000  0.23011000  0.86717000  1.0
  In  In22  1  0.00000000  0.77332000  0.95825000  1.0
  In  In23  1  0.50000000  0.74987000  0.95828000  1.0
  Pd  Pd24  1  0.75000000  0.00000000  0.12765000  1.0
  Pd  Pd25  1  0.00000000  0.50000000  0.04255000  1.0
  Pd  Pd26  1  0.50000000  0.50000000  0.04255000  1.0
  Pd  Pd27  1  0.25000000  0.00000000  0.12765000  1.0
  Pd  Pd28  1  0.25757000  0.00519000  0.95772000  1.0
  Pd  Pd29  1  0.50000000  0.49369000  0.87969000  1.0
  Pd  Pd30  1  0.00000000  0.40935000  0.87762000  1.0
  Pd  Pd31  1  0.74243000  0.00519000  0.95772000  1.0
  C  C32  1  0.00000000  0.70761000  0.87617000  1.0
