data_image0
_chemical_formula_structural       Sc4Ga4Cu8CO
_chemical_formula_sum              "Sc4 Ga4 Cu8 C1 O1"
_cell_length_a       6.23499
_cell_length_b       6.23499
_cell_length_c       24.6762
_cell_angle_alpha    90
_cell_angle_beta     90
_cell_angle_gamma    90

_space_group_name_H-M_alt    "P 1"
_space_group_IT_number       1

loop_
  _space_group_symop_operation_xyz
  'x, y, z'

loop_
  _atom_site_type_symbol
  _atom_site_label
  _atom_site_symmetry_multiplicity
  _atom_site_fract_x
  _atom_site_fract_y
  _atom_site_fract_z
  _atom_site_occupancy
  Sc  Sc1       1.0  0.00000  0.00000  0.09475  1.0000
  Sc  Sc2       1.0  0.50000  0.50000  0.09475  1.0000
  Sc  Sc3       1.0  0.50000  0.00000  0.96842  1.0000
  Sc  Sc4       1.0  0.00000  0.50000  0.96842  1.0000
  Ga  Ga1       1.0  0.00000  0.00000  0.96842  1.0000
  Ga  Ga2       1.0  0.50000  0.00000  0.09475  1.0000
  Ga  Ga3       1.0  0.00000  0.50000  0.09475  1.0000
  Ga  Ga4       1.0  0.50000  0.50000  0.96842  1.0000
  Cu  Cu1       1.0  0.25000  0.25000  0.03158  1.0000
  Cu  Cu2       1.0  0.75000  0.75000  0.90525  1.0000
  Cu  Cu3       1.0  0.75000  0.25000  0.03158  1.0000
  Cu  Cu4       1.0  0.25000  0.75000  0.90525  1.0000
  Cu  Cu5       1.0  0.75000  0.75000  0.03158  1.0000
  Cu  Cu6       1.0  0.25000  0.25000  0.90525  1.0000
  Cu  Cu7       1.0  0.25000  0.75000  0.03158  1.0000
  Cu  Cu8       1.0  0.75000  0.25000  0.90525  1.0000
  C   C1        1.0  0.00000  0.00000  0.17175  1.0000
  O   O1        1.0  0.00000  0.00000  0.21835  1.0000
