# generated using pymatgen
data_Sc4Ga4Cu8CO
_symmetry_space_group_name_H-M   P1
_cell_length_a   6.23499000
_cell_length_b   6.23499000
_cell_length_c   24.67620000
_cell_angle_alpha   90.00000000
_cell_angle_beta   90.00000000
_cell_angle_gamma   90.00000000
_symmetry_Int_Tables_number   1
_chemical_formula_structural   Sc4Ga4Cu8CO
_chemical_formula_sum   'Sc4 Ga4 Cu8 C1 O1'
_cell_volume   959.28975003
_cell_formula_units_Z   1
loop_
 _symmetry_equiv_pos_site_id
 _symmetry_equiv_pos_as_xyz
  1  'x, y, z'
loop_
 _atom_site_type_symbol
 _atom_site_label
 _atom_site_symmetry_multiplicity
 _atom_site_fract_x
 _atom_site_fract_y
 _atom_site_fract_z
 _atom_site_occupancy
  Sc  Sc0  1  0.00000000  0.50000000  0.96842000  1.0
  Sc  Sc1  1  0.00014000  0.99995000  0.09649000  1.0
  Sc  Sc2  1  0.49996000  0.49971000  0.10117000  1.0
  Sc  Sc3  1  0.50000000  0.00000000  0.96842000  1.0
  Ga  Ga4  1  0.00000000  0.00000000  0.96842000  1.0
  Ga  Ga5  1  0.50000000  0.50000000  0.96842000  1.0
  Ga  Ga6  1  0.50022000  0.00019000  0.09494000  1.0
  Ga  Ga7  1  0.99995000  0.49968000  0.09494000  1.0
  Cu  Cu8  1  0.25000000  0.25000000  0.90525000  1.0
  Cu  Cu9  1  0.25000000  0.75000000  0.90525000  1.0
  Cu  Cu10  1  0.25887000  0.74119000  0.03470000  1.0
  Cu  Cu11  1  0.25894000  0.25884000  0.03467000  1.0
  Cu  Cu12  1  0.74103000  0.74105000  0.03480000  1.0
  Cu  Cu13  1  0.74113000  0.25897000  0.03479000  1.0
  Cu  Cu14  1  0.75000000  0.25000000  0.90525000  1.0
  Cu  Cu15  1  0.75000000  0.75000000  0.90525000  1.0
  C  C16  1  0.99994000  0.99996000  0.19015000  1.0
  O  O17  1  0.99991000  0.99992000  0.23667000  1.0
