# generated using pymatgen
data_Li8Y8In8Cu8C
_symmetry_space_group_name_H-M   'P 1'
_cell_length_a   9.45282000
_cell_length_b   6.68415000
_cell_length_c   27.08960000
_cell_angle_alpha   90.00000000
_cell_angle_beta   90.00000000
_cell_angle_gamma   90.00000000
_symmetry_Int_Tables_number   1
_chemical_formula_structural   Li8Y8In8Cu8C
_chemical_formula_sum   'Li8 Y8 In8 Cu8 C1'
_cell_volume   1711.63109607
_cell_formula_units_Z   1
loop_
 _symmetry_equiv_pos_site_id
 _symmetry_equiv_pos_as_xyz
  1  'x, y, z'
loop_
 _atom_site_type_symbol
 _atom_site_label
 _atom_site_symmetry_multiplicity
 _atom_site_fract_x
 _atom_site_fract_y
 _atom_site_fract_z
 _atom_site_occupancy
  Li  Li0  1  0.25000000  0.00000000  0.04362000  1.0
  Li  Li1  1  0.75000000  0.00000000  0.04362000  1.0
  Li  Li2  1  0.50000000  0.50000000  0.13085000  1.0
  Li  Li3  1  0.00000000  0.50000000  0.13085000  1.0
  Li  Li4  1  0.71396000  0.16360000  0.81079000  1.0
  Li  Li5  1  0.28604000  0.16360000  0.81079000  1.0
  Li  Li6  1  0.00000000  0.52597000  0.93966000  1.0
  Li  Li7  1  0.50000000  0.50100000  0.95666000  1.0
  Y  Y8  1  0.00000000  0.75000000  0.04362000  1.0
  Y  Y9  1  0.50000000  0.75000000  0.04362000  1.0
  Y  Y10  1  0.25000000  0.25000000  0.13085000  1.0
  Y  Y11  1  0.75000000  0.25000000  0.13085000  1.0
  Y  Y12  1  0.50000000  0.78949000  0.87085000  1.0
  Y  Y13  1  0.00000000  0.87999000  0.86940000  1.0
  Y  Y14  1  0.75459000  0.24223000  0.95049000  1.0
  Y  Y15  1  0.24541000  0.24223000  0.95049000  1.0
  In  In16  1  0.00000000  0.25000000  0.04362000  1.0
  In  In17  1  0.50000000  0.25000000  0.04362000  1.0
  In  In18  1  0.25000000  0.75000000  0.13085000  1.0
  In  In19  1  0.75000000  0.75000000  0.13085000  1.0
  In  In20  1  0.50000000  0.28839000  0.86849000  1.0
  In  In21  1  0.00000000  0.28657000  0.81464000  1.0
  In  In22  1  0.74867000  0.75683000  0.95592000  1.0
  In  In23  1  0.25133000  0.75683000  0.95592000  1.0
  Cu  Cu24  1  0.00000000  0.00000000  0.13085000  1.0
  Cu  Cu25  1  0.50000000  0.00000000  0.13085000  1.0
  Cu  Cu26  1  0.75000000  0.50000000  0.04362000  1.0
  Cu  Cu27  1  0.25000000  0.50000000  0.04362000  1.0
  Cu  Cu28  1  0.50000000  0.00870000  0.95882000  1.0
  Cu  Cu29  1  0.00000000  0.00568000  0.96469000  1.0
  Cu  Cu30  1  0.21089000  0.52116000  0.86892000  1.0
  Cu  Cu31  1  0.78911000  0.52116000  0.86892000  1.0
  C  C32  1  0.00000000  0.55128000  0.86082000  1.0
