# generated using pymatgen
data_Li8Y8In8Cu8C
_symmetry_space_group_name_H-M   Pm
_cell_length_a   6.68415000
_cell_length_b   9.45282000
_cell_length_c   27.08960000
_cell_angle_alpha   90.00000000
_cell_angle_beta   90.00000000
_cell_angle_gamma   90.00000000
_symmetry_Int_Tables_number   6
_chemical_formula_structural   Li8Y8In8Cu8C
_chemical_formula_sum   'Li8 Y8 In8 Cu8 C1'
_cell_volume   1711.63109607
_cell_formula_units_Z   1
loop_
 _symmetry_equiv_pos_site_id
 _symmetry_equiv_pos_as_xyz
  1  'x, y, z'
  2  'x, -y, z'
loop_
 _atom_site_type_symbol
 _atom_site_label
 _atom_site_symmetry_multiplicity
 _atom_site_fract_x
 _atom_site_fract_y
 _atom_site_fract_z
 _atom_site_occupancy
  Li  Li0  2  0.00000000  0.25000000  0.95638000  1.0
  Li  Li1  2  0.16360000  0.28604000  0.18921000  1.0
  Li  Li2  1  0.50000000  0.00000000  0.86915000  1.0
  Li  Li3  1  0.50000000  0.50000000  0.86915000  1.0
  Li  Li4  1  0.50100000  0.50000000  0.04334000  1.0
  Li  Li5  1  0.52597000  0.00000000  0.06034000  1.0
  Y  Y6  2  0.24223000  0.24541000  0.04951000  1.0
  Y  Y7  2  0.25000000  0.25000000  0.86915000  1.0
  Y  Y8  1  0.75000000  0.00000000  0.95638000  1.0
  Y  Y9  1  0.75000000  0.50000000  0.95638000  1.0
  Y  Y10  1  0.78949000  0.50000000  0.12915000  1.0
  Y  Y11  1  0.87999000  0.00000000  0.13060000  1.0
  In  In12  2  0.75000000  0.25000000  0.86915000  1.0
  In  In13  2  0.75683000  0.25133000  0.04408000  1.0
  In  In14  1  0.25000000  0.00000000  0.95638000  1.0
  In  In15  1  0.25000000  0.50000000  0.95638000  1.0
  In  In16  1  0.28657000  0.00000000  0.18536000  1.0
  In  In17  1  0.28839000  0.50000000  0.13151000  1.0
  Cu  Cu18  2  0.50000000  0.25000000  0.95638000  1.0
  Cu  Cu19  2  0.52116000  0.21089000  0.13108000  1.0
  Cu  Cu20  1  0.00000000  0.00000000  0.86915000  1.0
  Cu  Cu21  1  0.00000000  0.50000000  0.86915000  1.0
  Cu  Cu22  1  0.00568000  0.00000000  0.03531000  1.0
  Cu  Cu23  1  0.00870000  0.50000000  0.04118000  1.0
  C  C24  1  0.55128000  0.00000000  0.13918000  1.0
