# generated using pymatgen
data_Mn16Au16C
_symmetry_space_group_name_H-M   Pmm2
_cell_length_a   6.51708000
_cell_length_b   9.21654000
_cell_length_c   26.91240000
_cell_angle_alpha   90.00000000
_cell_angle_beta   90.00000000
_cell_angle_gamma   90.00000000
_symmetry_Int_Tables_number   25
_chemical_formula_structural   Mn16Au16C
_chemical_formula_sum   'Mn16 Au16 C1'
_cell_volume   1616.49138185
_cell_formula_units_Z   1
loop_
 _symmetry_equiv_pos_site_id
 _symmetry_equiv_pos_as_xyz
  1  'x, y, z'
  2  '-x, -y, z'
  3  '-x, y, z'
  4  'x, -y, z'
loop_
 _atom_site_type_symbol
 _atom_site_label
 _atom_site_symmetry_multiplicity
 _atom_site_fract_x
 _atom_site_fract_y
 _atom_site_fract_z
 _atom_site_occupancy
  Mn  Mn0  2  0.00000000  0.22342000  0.12837000  1.0
  Mn  Mn1  2  0.00000000  0.25000000  0.95719000  1.0
  Mn  Mn2  2  0.50000000  0.25000000  0.95719000  1.0
  Mn  Mn3  2  0.50000000  0.26689000  0.12960000  1.0
  Mn  Mn4  1  0.00000000  0.00000000  0.04667000  1.0
  Mn  Mn5  1  0.00000000  0.00000000  0.87158000  1.0
  Mn  Mn6  1  0.00000000  0.50000000  0.04265000  1.0
  Mn  Mn7  1  0.00000000  0.50000000  0.87158000  1.0
  Mn  Mn8  1  0.50000000  0.00000000  0.04125000  1.0
  Mn  Mn9  1  0.50000000  0.00000000  0.87158000  1.0
  Mn  Mn10  1  0.50000000  0.50000000  0.04834000  1.0
  Mn  Mn11  1  0.50000000  0.50000000  0.87158000  1.0
  Au  Au12  4  0.25000000  0.25000000  0.87158000  1.0
  Au  Au13  4  0.25245000  0.25291000  0.04094000  1.0
  Au  Au14  2  0.22968000  0.50000000  0.12801000  1.0
  Au  Au15  2  0.25000000  0.00000000  0.95719000  1.0
  Au  Au16  2  0.25000000  0.50000000  0.95719000  1.0
  Au  Au17  2  0.30411000  0.00000000  0.12940000  1.0
  C  C18  1  0.00000000  0.00000000  0.13741000  1.0
