data_image0
_chemical_formula_structural       Sc4Al4Ni8CO
_chemical_formula_sum              "Sc4 Al4 Ni8 C1 O1"
_cell_length_a       6.08368
_cell_length_b       6.08368
_cell_length_c       24.5628
_cell_angle_alpha    90
_cell_angle_beta     90
_cell_angle_gamma    90

_space_group_name_H-M_alt    "P 1"
_space_group_IT_number       1

loop_
  _space_group_symop_operation_xyz
  'x, y, z'

loop_
  _atom_site_type_symbol
  _atom_site_label
  _atom_site_symmetry_multiplicity
  _atom_site_fract_x
  _atom_site_fract_y
  _atom_site_fract_z
  _atom_site_occupancy
  Sc  Sc1       1.0  0.00000  0.99999  0.09828  1.0000
  Sc  Sc2       1.0  0.50004  0.49997  0.09961  1.0000
  Sc  Sc3       1.0  0.50000  0.00000  0.96904  1.0000
  Sc  Sc4       1.0  0.00000  0.50000  0.96904  1.0000
  Al  Al1       1.0  0.00000  0.00000  0.96904  1.0000
  Al  Al2       1.0  0.50001  0.99999  0.08824  1.0000
  Al  Al3       1.0  0.00001  0.50000  0.08824  1.0000
  Al  Al4       1.0  0.50000  0.50000  0.96904  1.0000
  Ni  Ni1       1.0  0.25444  0.25440  0.03596  1.0000
  Ni  Ni2       1.0  0.75000  0.75000  0.90712  1.0000
  Ni  Ni3       1.0  0.74555  0.25446  0.03599  1.0000
  Ni  Ni4       1.0  0.25000  0.75000  0.90712  1.0000
  Ni  Ni5       1.0  0.74560  0.74553  0.03595  1.0000
  Ni  Ni6       1.0  0.25000  0.25000  0.90712  1.0000
  Ni  Ni7       1.0  0.25446  0.74560  0.03602  1.0000
  Ni  Ni8       1.0  0.75000  0.25000  0.90712  1.0000
  C   C1        1.0  0.00000  0.00002  0.19340  1.0000
  O   O1        1.0  0.00001  0.00002  0.24015  1.0000
