# generated using pymatgen
data_Sc4Al4Ni8CO
_symmetry_space_group_name_H-M   Cmm2
_cell_length_a   8.60362277
_cell_length_b   8.60362277
_cell_length_c   24.56280000
_cell_angle_alpha   90.00000000
_cell_angle_beta   90.00000000
_cell_angle_gamma   90.00000000
_symmetry_Int_Tables_number   35
_chemical_formula_structural   Sc4Al4Ni8CO
_chemical_formula_sum   'Sc8 Al8 Ni16 C2 O2'
_cell_volume   1818.19555677
_cell_formula_units_Z   2
loop_
 _symmetry_equiv_pos_site_id
 _symmetry_equiv_pos_as_xyz
  1  'x, y, z'
  2  'y, -x, z'
  3  '-x, -y, z'
  4  '-y, x, z'
  5  '-y, -x, z'
  6  'x, -y, z'
  7  'y, x, z'
  8  '-x, y, z'
  9  'x+1/2, y+1/2, z'
  10  'y+1/2, -x+1/2, z'
  11  '-x+1/2, -y+1/2, z'
  12  '-y+1/2, x+1/2, z'
  13  '-y+1/2, -x+1/2, z'
  14  'x+1/2, -y+1/2, z'
  15  'y+1/2, x+1/2, z'
  16  '-x+1/2, y+1/2, z'
loop_
 _atom_site_type_symbol
 _atom_site_label
 _atom_site_symmetry_multiplicity
 _atom_site_fract_x
 _atom_site_fract_y
 _atom_site_fract_z
 _atom_site_occupancy
  Sc  Sc0  4  0.25000000  0.25000000  0.96904000  1.0
  Sc  Sc1  2  0.00000000  0.00000000  0.09961000  1.0
  Sc  Sc2  2  0.00000000  0.50000000  0.09828000  1.0
  Al  Al3  4  0.25000000  0.25000000  0.08824000  1.0
  Al  Al4  2  0.00000000  0.00000000  0.96904000  1.0
  Al  Al5  2  0.00000000  0.50000000  0.96904000  1.0
  Ni  Ni6  8  0.00000000  0.24559000  0.03596000  1.0
  Ni  Ni7  8  0.00000000  0.24999000  0.90712000  1.0
  C  C8  2  0.00000000  0.50000000  0.19340000  1.0
  O  O9  2  0.00000000  0.50000000  0.24015000  1.0
