data_image0
_chemical_formula_structural       Ti8Al8Au16CO
_chemical_formula_sum              "Ti8 Al8 Au16 C1 O1"
_cell_length_a       6.4988
_cell_length_b       9.19068
_cell_length_c       26.893
_cell_angle_alpha    90
_cell_angle_beta     90
_cell_angle_gamma    90

_space_group_name_H-M_alt    "P 1"
_space_group_IT_number       1

loop_
  _space_group_symop_operation_xyz
  'x, y, z'

loop_
  _atom_site_type_symbol
  _atom_site_label
  _atom_site_symmetry_multiplicity
  _atom_site_fract_x
  _atom_site_fract_y
  _atom_site_fract_z
  _atom_site_occupancy
  Ti  Ti1       1.0  0.00000  0.00000  0.87184  1.0000
  Ti  Ti2       1.0  0.50000  0.25000  0.95728  1.0000
  Ti  Ti3       1.0  0.50000  0.75000  0.95728  1.0000
  Ti  Ti4       1.0  0.00000  0.50000  0.87184  1.0000
  Ti  Ti5       1.0  0.99946  0.50000  0.05070  1.0000
  Ti  Ti6       1.0  0.46415  0.76014  0.12160  1.0000
  Ti  Ti7       1.0  0.46417  0.23986  0.12159  1.0000
  Ti  Ti8       1.0  0.04792  0.99999  0.05842  1.0000
  Al  Al1       1.0  0.00000  0.75000  0.95728  1.0000
  Al  Al2       1.0  0.50000  0.00000  0.87184  1.0000
  Al  Al3       1.0  0.00000  0.25000  0.95728  1.0000
  Al  Al4       1.0  0.50000  0.50000  0.87184  1.0000
  Al  Al5       1.0  0.00615  0.25668  0.12608  1.0000
  Al  Al6       1.0  0.50652  0.50000  0.04013  1.0000
  Al  Al7       1.0  0.00614  0.74333  0.12609  1.0000
  Al  Al8       1.0  0.50284  0.00000  0.04123  1.0000
  Au  Au1       1.0  0.25000  0.00000  0.95728  1.0000
  Au  Au2       1.0  0.75000  0.50000  0.95728  1.0000
  Au  Au3       1.0  0.75000  0.00000  0.95728  1.0000
  Au  Au4       1.0  0.25000  0.50000  0.95728  1.0000
  Au  Au5       1.0  0.75000  0.75000  0.87184  1.0000
  Au  Au6       1.0  0.25000  0.25000  0.87184  1.0000
  Au  Au7       1.0  0.25000  0.75000  0.87184  1.0000
  Au  Au8       1.0  0.75000  0.25000  0.87184  1.0000
  Au  Au9       1.0  0.24013  0.50004  0.13878  1.0000
  Au  Au10      1.0  0.71561  0.99996  0.12707  1.0000
  Au  Au11      1.0  0.70452  0.50004  0.12554  1.0000
  Au  Au12      1.0  0.18315  0.99997  0.15457  1.0000
  Au  Au13      1.0  0.76427  0.23954  0.04166  1.0000
  Au  Au14      1.0  0.25022  0.74049  0.03794  1.0000
  Au  Au15      1.0  0.25022  0.25951  0.03794  1.0000
  Au  Au16      1.0  0.76427  0.76044  0.04167  1.0000
  C   C1        1.0  0.24757  0.99999  0.23042  1.0000
  O   O1        1.0  0.27607  1.00000  0.27246  1.0000
