# generated using pymatgen
data_Ti8Al8Au16CO
_symmetry_space_group_name_H-M   'P 1'
_cell_length_a   9.19068000
_cell_length_b   6.49880000
_cell_length_c   26.89300000
_cell_angle_alpha   90.00000000
_cell_angle_beta   90.00000000
_cell_angle_gamma   90.00000000
_symmetry_Int_Tables_number   1
_chemical_formula_structural   Ti8Al8Au16CO
_chemical_formula_sum   'Ti8 Al8 Au16 C1 O1'
_cell_volume   1606.27562411
_cell_formula_units_Z   1
loop_
 _symmetry_equiv_pos_site_id
 _symmetry_equiv_pos_as_xyz
  1  'x, y, z'
loop_
 _atom_site_type_symbol
 _atom_site_label
 _atom_site_symmetry_multiplicity
 _atom_site_fract_x
 _atom_site_fract_y
 _atom_site_fract_z
 _atom_site_occupancy
  Ti  Ti0  1  0.50000000  0.00000000  0.12816000  1.0
  Ti  Ti1  1  0.75001000  0.50000000  0.04272000  1.0
  Ti  Ti2  1  0.24999000  0.50000000  0.04272000  1.0
  Ti  Ti3  1  0.00000000  0.00000000  0.12816000  1.0
  Ti  Ti4  1  0.00000000  0.99946000  0.94930000  1.0
  Ti  Ti5  1  0.26015000  0.46415000  0.87840000  1.0
  Ti  Ti6  1  0.73985000  0.46415000  0.87840000  1.0
  Ti  Ti7  1  0.50000000  0.04792000  0.94158000  1.0
  Al  Al8  1  0.25001000  0.00000000  0.04272000  1.0
  Al  Al9  1  0.50000000  0.50000000  0.12816000  1.0
  Al  Al10  1  0.74999000  0.00000000  0.04272000  1.0
  Al  Al11  1  0.00000000  0.50000000  0.12816000  1.0
  Al  Al12  1  0.75669000  0.00615000  0.87392000  1.0
  Al  Al13  1  0.00000000  0.50652000  0.95987000  1.0
  Al  Al14  1  0.24331000  0.00615000  0.87392000  1.0
  Al  Al15  1  0.50000000  0.50284000  0.95877000  1.0
  Au  Au16  1  0.50000000  0.25000000  0.04272000  1.0
  Au  Au17  1  0.00000000  0.75000000  0.04272000  1.0
  Au  Au18  1  0.50000000  0.75000000  0.04272000  1.0
  Au  Au19  1  0.00000000  0.25000000  0.04272000  1.0
  Au  Au20  1  0.25001000  0.75000000  0.12816000  1.0
  Au  Au21  1  0.75001000  0.25000000  0.12816000  1.0
  Au  Au22  1  0.24999000  0.25000000  0.12816000  1.0
  Au  Au23  1  0.74999000  0.75000000  0.12816000  1.0
  Au  Au24  1  0.00000000  0.24013000  0.86122000  1.0
  Au  Au25  1  0.50000000  0.71561000  0.87293000  1.0
  Au  Au26  1  0.00000000  0.70452000  0.87446000  1.0
  Au  Au27  1  0.50000000  0.18315000  0.84543000  1.0
  Au  Au28  1  0.73955000  0.76427000  0.95834000  1.0
  Au  Au29  1  0.24050000  0.25022000  0.96206000  1.0
  Au  Au30  1  0.75950000  0.25022000  0.96206000  1.0
  Au  Au31  1  0.26045000  0.76427000  0.95834000  1.0
  C  C32  1  0.50000000  0.24757000  0.76958000  1.0
  O  O33  1  0.50000000  0.27607000  0.72754000  1.0
