# generated using pymatgen
data_Ni24Sb8C
_symmetry_space_group_name_H-M   'P 1'
_cell_length_a   5.97820000
_cell_length_b   8.45446000
_cell_length_c   26.34080000
_cell_angle_alpha   90.00000000
_cell_angle_beta   90.00000000
_cell_angle_gamma   90.00000000
_symmetry_Int_Tables_number   1
_chemical_formula_structural   Ni24Sb8C
_chemical_formula_sum   'Ni24 Sb8 C1'
_cell_volume   1331.32863998
_cell_formula_units_Z   1
loop_
 _symmetry_equiv_pos_site_id
 _symmetry_equiv_pos_as_xyz
  1  'x, y, z'
loop_
 _atom_site_type_symbol
 _atom_site_label
 _atom_site_symmetry_multiplicity
 _atom_site_fract_x
 _atom_site_fract_y
 _atom_site_fract_z
 _atom_site_occupancy
  Ni  Ni0  1  0.25000000  0.00000000  0.95988000  1.0
  Ni  Ni1  1  0.75000000  0.50000000  0.95988000  1.0
  Ni  Ni2  1  0.75000000  0.00000000  0.95988000  1.0
  Ni  Ni3  1  0.25000000  0.50000000  0.95988000  1.0
  Ni  Ni4  1  0.75000000  0.75000000  0.87964000  1.0
  Ni  Ni5  1  0.25000000  0.25000000  0.87964000  1.0
  Ni  Ni6  1  0.25000000  0.75000000  0.87964000  1.0
  Ni  Ni7  1  0.75000000  0.25000000  0.87964000  1.0
  Ni  Ni8  1  0.00000000  0.75000000  0.95988000  1.0
  Ni  Ni9  1  0.50000000  0.00000000  0.87964000  1.0
  Ni  Ni10  1  0.00000000  0.25000000  0.95988000  1.0
  Ni  Ni11  1  0.50000000  0.50000000  0.87964000  1.0
  Ni  Ni12  1  0.21674000  0.49991000  0.11525000  1.0
  Ni  Ni13  1  0.79340000  0.99988000  0.12391000  1.0
  Ni  Ni14  1  0.78329000  0.50016000  0.11526000  1.0
  Ni  Ni15  1  0.20650000  0.00011000  0.12392000  1.0
  Ni  Ni16  1  0.73469000  0.25147000  0.04188000  1.0
  Ni  Ni17  1  0.26539000  0.74849000  0.04187000  1.0
  Ni  Ni18  1  0.26530000  0.25156000  0.04195000  1.0
  Ni  Ni19  1  0.73458000  0.74851000  0.04192000  1.0
  Ni  Ni20  1  0.99972000  0.25002000  0.11684000  1.0
  Ni  Ni21  1  0.49996000  0.49995000  0.04211000  1.0
  Ni  Ni22  1  0.00034000  0.75006000  0.11674000  1.0
  Ni  Ni23  1  0.49992000  0.00001000  0.04488000  1.0
  Sb  Sb24  1  0.00000000  0.00000000  0.87964000  1.0
  Sb  Sb25  1  0.50000000  0.25000000  0.95988000  1.0
  Sb  Sb26  1  0.50000000  0.75000000  0.95988000  1.0
  Sb  Sb27  1  0.00000000  0.50000000  0.87964000  1.0
  Sb  Sb28  1  0.99990000  0.50000000  0.03506000  1.0
  Sb  Sb29  1  0.49985000  0.72427000  0.13184000  1.0
  Sb  Sb30  1  0.50025000  0.27571000  0.13184000  1.0
  Sb  Sb31  1  0.00005000  0.00000000  0.03804000  1.0
  C  C32  1  0.49994000  0.99989000  0.11549000  1.0
