data_image0
_chemical_formula_structural       Zr3InZr3InZr3InZr3InZr3InZr3InZr3InZr3InC
_chemical_formula_sum              "Zr24 In8 C1"
_cell_length_a       8.97917
_cell_length_b       8.97917
_cell_length_c       26.7344
_cell_angle_alpha    90
_cell_angle_beta     90
_cell_angle_gamma    90

_space_group_name_H-M_alt    "P 1"
_space_group_IT_number       1

loop_
  _space_group_symop_operation_xyz
  'x, y, z'

loop_
  _atom_site_type_symbol
  _atom_site_label
  _atom_site_symmetry_multiplicity
  _atom_site_fract_x
  _atom_site_fract_y
  _atom_site_fract_z
  _atom_site_occupancy
  Zr  Zr1       1.0  0.00000  0.25000  0.95802  1.0000
  Zr  Zr2       1.0  0.25000  0.00000  0.95802  1.0000
  Zr  Zr3       1.0  0.25000  0.25000  0.87405  1.0000
  In  In1       1.0  0.00000  0.00000  0.87405  1.0000
  Zr  Zr4       1.0  0.00000  0.25000  0.12595  1.0000
  Zr  Zr5       1.0  0.25000  0.00000  0.12595  1.0000
  Zr  Zr6       1.0  0.25000  0.25000  0.04198  1.0000
  In  In2       1.0  0.00000  0.00000  0.04198  1.0000
  Zr  Zr7       1.0  0.00000  0.75000  0.95802  1.0000
  Zr  Zr8       1.0  0.25000  0.50000  0.95802  1.0000
  Zr  Zr9       1.0  0.25000  0.75000  0.87405  1.0000
  In  In3       1.0  0.00000  0.50000  0.87405  1.0000
  Zr  Zr10      1.0  0.00000  0.75000  0.12595  1.0000
  Zr  Zr11      1.0  0.25000  0.50000  0.12595  1.0000
  Zr  Zr12      1.0  0.25000  0.75000  0.04198  1.0000
  In  In4       1.0  0.00000  0.50000  0.04198  1.0000
  Zr  Zr13      1.0  0.50000  0.25000  0.95802  1.0000
  Zr  Zr14      1.0  0.75000  0.00000  0.95802  1.0000
  Zr  Zr15      1.0  0.75000  0.25000  0.87405  1.0000
  In  In5       1.0  0.50000  0.00000  0.87405  1.0000
  Zr  Zr16      1.0  0.50000  0.25000  0.12595  1.0000
  Zr  Zr17      1.0  0.75000  0.00000  0.12595  1.0000
  Zr  Zr18      1.0  0.75000  0.25000  0.04198  1.0000
  In  In6       1.0  0.50000  0.00000  0.04198  1.0000
  Zr  Zr19      1.0  0.50000  0.75000  0.95802  1.0000
  Zr  Zr20      1.0  0.75000  0.50000  0.95802  1.0000
  Zr  Zr21      1.0  0.75000  0.75000  0.87405  1.0000
  In  In7       1.0  0.50000  0.50000  0.87405  1.0000
  Zr  Zr22      1.0  0.50000  0.75000  0.12595  1.0000
  Zr  Zr23      1.0  0.75000  0.50000  0.12595  1.0000
  Zr  Zr24      1.0  0.75000  0.75000  0.04198  1.0000
  In  In8       1.0  0.50000  0.50000  0.04198  1.0000
  C   C1        1.0  0.25000  0.25000  0.15587  1.0000
