# generated using pymatgen
data_Zr4In4Au8C
_symmetry_space_group_name_H-M   P4mm
_cell_length_a   6.87009000
_cell_length_b   6.87009000
_cell_length_c   25.15260000
_cell_angle_alpha   90.00000000
_cell_angle_beta   90.00000000
_cell_angle_gamma   90.00000000
_symmetry_Int_Tables_number   99
_chemical_formula_structural   Zr4In4Au8C
_chemical_formula_sum   'Zr4 In4 Au8 C1'
_cell_volume   1187.15585085
_cell_formula_units_Z   1
loop_
 _symmetry_equiv_pos_site_id
 _symmetry_equiv_pos_as_xyz
  1  'x, y, z'
  2  '-y, x, z'
  3  '-x, -y, z'
  4  'y, -x, z'
  5  '-x, y, z'
  6  'y, x, z'
  7  'x, -y, z'
  8  '-y, -x, z'
loop_
 _atom_site_type_symbol
 _atom_site_label
 _atom_site_symmetry_multiplicity
 _atom_site_fract_x
 _atom_site_fract_y
 _atom_site_fract_z
 _atom_site_occupancy
  Zr  Zr0  2  0.00000000  0.50000000  0.89757000  1.0
  Zr  Zr1  1  0.00000000  0.00000000  0.03414000  1.0
  Zr  Zr2  1  0.50000000  0.50000000  0.03414000  1.0
  In  In3  2  0.00000000  0.50000000  0.03414000  1.0
  In  In4  1  0.00000000  0.00000000  0.89757000  1.0
  In  In5  1  0.50000000  0.50000000  0.89757000  1.0
  Au  Au6  4  0.25000000  0.25000000  0.10243000  1.0
  Au  Au7  4  0.25000000  0.25000000  0.96586000  1.0
  C  C8  1  0.00000000  0.00000000  0.13423000  1.0
