# generated using pymatgen
data_Li4Y4Sn4Ge4C
_symmetry_space_group_name_H-M   Pm
_cell_length_a   6.35836000
_cell_length_b   8.60818000
_cell_length_c   24.74450000
_cell_angle_alpha   90.00000000
_cell_angle_beta   90.00000000
_cell_angle_gamma   90.00000000
_symmetry_Int_Tables_number   6
_chemical_formula_structural   Li4Y4Sn4Ge4C
_chemical_formula_sum   'Li4 Y4 Sn4 Ge4 C1'
_cell_volume   1354.36317128
_cell_formula_units_Z   1
loop_
 _symmetry_equiv_pos_site_id
 _symmetry_equiv_pos_as_xyz
  1  'x, y, z'
  2  'x, -y, z'
loop_
 _atom_site_type_symbol
 _atom_site_label
 _atom_site_symmetry_multiplicity
 _atom_site_fract_x
 _atom_site_fract_y
 _atom_site_fract_z
 _atom_site_occupancy
  Li  Li0  1  0.05548000  0.50000000  0.97280000  1.0
  Li  Li1  1  0.07311000  0.00000000  0.96847000  1.0
  Li  Li2  1  0.50000000  0.00000000  0.09587000  1.0
  Li  Li3  1  0.50000000  0.50000000  0.09587000  1.0
  Y  Y4  2  0.34929000  0.24538000  0.90099000  1.0
  Y  Y5  2  0.77517000  0.25000000  0.03196000  1.0
  Sn  Sn6  2  0.27517000  0.25000000  0.03196000  1.0
  Sn  Sn7  2  0.84011000  0.27372000  0.89470000  1.0
  Ge  Ge8  1  0.00000000  0.00000000  0.09587000  1.0
  Ge  Ge9  1  0.00000000  0.50000000  0.09587000  1.0
  Ge  Ge10  1  0.60556000  0.50000000  0.95821000  1.0
  Ge  Ge11  1  0.65059000  0.00000000  0.94999000  1.0
  C  C12  1  0.35667000  0.00000000  0.92539000  1.0
