# generated using pymatgen
data_Sc8In8Ag16C
_symmetry_space_group_name_H-M   Pm
_cell_length_a   6.85473000
_cell_length_b   9.69405000
_cell_length_c   27.27050000
_cell_angle_alpha   90.00000000
_cell_angle_beta   90.00000000
_cell_angle_gamma   90.00000000
_symmetry_Int_Tables_number   6
_chemical_formula_structural   Sc8In8Ag16C
_chemical_formula_sum   'Sc8 In8 Ag16 C1'
_cell_volume   1812.12732542
_cell_formula_units_Z   1
loop_
 _symmetry_equiv_pos_site_id
 _symmetry_equiv_pos_as_xyz
  1  'x, y, z'
  2  'x, -y, z'
loop_
 _atom_site_type_symbol
 _atom_site_label
 _atom_site_symmetry_multiplicity
 _atom_site_fract_x
 _atom_site_fract_y
 _atom_site_fract_z
 _atom_site_occupancy
  Sc  Sc0  2  0.00000000  0.25000000  0.86670000  1.0
  Sc  Sc1  2  0.99936000  0.25665000  0.04538000  1.0
  Sc  Sc2  1  0.47097000  0.50000000  0.12915000  1.0
  Sc  Sc3  1  0.50000000  0.00000000  0.95557000  1.0
  Sc  Sc4  1  0.50000000  0.50000000  0.95557000  1.0
  Sc  Sc5  1  0.51909000  0.00000000  0.12811000  1.0
  In  In6  2  0.50000000  0.25000000  0.86670000  1.0
  In  In7  2  0.50005000  0.24510000  0.04438000  1.0
  In  In8  1  -0.00000000  0.00000000  0.95557000  1.0
  In  In9  1  0.00000000  0.50000000  0.95557000  1.0
  In  In10  1  0.01748000  0.50000000  0.13452000  1.0
  In  In11  1  0.92467000  0.00000000  0.16121000  1.0
  Ag  Ag12  2  0.24025000  0.24079000  0.13873000  1.0
  Ag  Ag13  2  0.25000000  0.25000000  0.95557000  1.0
  Ag  Ag14  2  0.74381000  0.26572000  0.13555000  1.0
  Ag  Ag15  2  0.75000000  0.25000000  0.95557000  1.0
  Ag  Ag16  1  0.22342000  0.00000000  0.05017000  1.0
  Ag  Ag17  1  0.25000000  0.00000000  0.86670000  1.0
  Ag  Ag18  1  0.25000000  0.50000000  0.86670000  1.0
  Ag  Ag19  1  0.25137000  0.50000000  0.04065000  1.0
  Ag  Ag20  1  0.74381000  0.50000000  0.04565000  1.0
  Ag  Ag21  1  0.75000000  0.00000000  0.86670000  1.0
  Ag  Ag22  1  0.75000000  0.50000000  0.86670000  1.0
  Ag  Ag23  1  0.77218000  0.00000000  0.04390000  1.0
  C  C24  1  0.22829000  0.00000000  0.14163000  1.0
