# generated using pymatgen
data_Li8Mg8Cu8Pd8CO
_symmetry_space_group_name_H-M   Pmm2
_cell_length_a   7.56776000
_cell_length_b   7.95764000
_cell_length_c   25.91800000
_cell_angle_alpha   90.00000000
_cell_angle_beta   90.00000000
_cell_angle_gamma   90.00000000
_symmetry_Int_Tables_number   25
_chemical_formula_structural   Li8Mg8Cu8Pd8CO
_chemical_formula_sum   'Li8 Mg8 Cu8 Pd8 C1 O1'
_cell_volume   1560.82108805
_cell_formula_units_Z   1
loop_
 _symmetry_equiv_pos_site_id
 _symmetry_equiv_pos_as_xyz
  1  'x, y, z'
  2  '-x, -y, z'
  3  '-x, y, z'
  4  'x, -y, z'
loop_
 _atom_site_type_symbol
 _atom_site_label
 _atom_site_symmetry_multiplicity
 _atom_site_fract_x
 _atom_site_fract_y
 _atom_site_fract_z
 _atom_site_occupancy
  Li  Li0  2  0.00000000  0.25000000  0.11417000  1.0
  Li  Li1  2  0.00000000  0.25000000  0.96194000  1.0
  Li  Li2  2  0.50000000  0.25000000  0.11417000  1.0
  Li  Li3  2  0.50000000  0.25000000  0.96194000  1.0
  Mg  Mg4  1  0.00000000  0.00000000  0.03806000  1.0
  Mg  Mg5  1  0.00000000  0.00000000  0.88583000  1.0
  Mg  Mg6  1  0.00000000  0.50000000  0.03806000  1.0
  Mg  Mg7  1  0.00000000  0.50000000  0.88583000  1.0
  Mg  Mg8  1  0.50000000  0.00000000  0.03806000  1.0
  Mg  Mg9  1  0.50000000  0.00000000  0.88583000  1.0
  Mg  Mg10  1  0.50000000  0.50000000  0.03806000  1.0
  Mg  Mg11  1  0.50000000  0.50000000  0.88583000  1.0
  Cu  Cu12  4  0.25000000  0.25000000  0.03806000  1.0
  Cu  Cu13  4  0.25000000  0.25000000  0.88583000  1.0
  Pd  Pd14  2  0.25000000  0.00000000  0.11417000  1.0
  Pd  Pd15  2  0.25000000  0.00000000  0.96194000  1.0
  Pd  Pd16  2  0.25000000  0.50000000  0.11417000  1.0
  Pd  Pd17  2  0.25000000  0.50000000  0.96194000  1.0
  C  C18  1  0.00000000  0.00000000  0.81252000  1.0
  O  O19  1  0.00000000  0.00000000  0.76815000  1.0
