# generated using pymatgen
data_Al4Ni12CO
_symmetry_space_group_name_H-M   Pm
_cell_length_a   5.09807000
_cell_length_b   7.20976000
_cell_length_c   23.82360000
_cell_angle_alpha   90.00000000
_cell_angle_beta   90.00000000
_cell_angle_gamma   90.00000000
_symmetry_Int_Tables_number   6
_chemical_formula_structural   Al4Ni12CO
_chemical_formula_sum   'Al4 Ni12 C1 O1'
_cell_volume   875.65693401
_cell_formula_units_Z   1
loop_
 _symmetry_equiv_pos_site_id
 _symmetry_equiv_pos_as_xyz
  1  'x, y, z'
  2  'x, -y, z'
loop_
 _atom_site_type_symbol
 _atom_site_label
 _atom_site_symmetry_multiplicity
 _atom_site_fract_x
 _atom_site_fract_y
 _atom_site_fract_z
 _atom_site_occupancy
  Al  Al0  2  0.00000000  0.25001000  0.08025000  1.0
  Al  Al1  2  0.49960000  0.25093000  0.97410000  1.0
  Ni  Ni2  2  0.00051000  0.24964000  0.97267000  1.0
  Ni  Ni3  2  0.50000000  0.25001000  0.08025000  1.0
  Ni  Ni4  1  0.25000000  0.00000000  0.02675000  1.0
  Ni  Ni5  1  0.25000000  0.50000000  0.02675000  1.0
  Ni  Ni6  1  0.25134000  0.00000000  0.92439000  1.0
  Ni  Ni7  1  0.25405000  0.50000000  0.92336000  1.0
  Ni  Ni8  1  0.74522000  0.00000000  0.92453000  1.0
  Ni  Ni9  1  0.75000000  0.00000000  0.02675000  1.0
  Ni  Ni10  1  0.75000000  0.50000000  0.02675000  1.0
  Ni  Ni11  1  0.75106000  0.50000000  0.92167000  1.0
  C  C12  1  0.74444000  0.50000000  0.84778000  1.0
  O  O13  1  0.74734000  0.50000000  0.79927000  1.0
