data_image0
_chemical_formula_structural       Li8Cu8Ge8Pd8C
_chemical_formula_sum              "Li8 Cu8 Ge8 Pd8 C1"
_cell_length_a       6.04231
_cell_length_b       8.54512
_cell_length_c       26.4088
_cell_angle_alpha    90
_cell_angle_beta     90
_cell_angle_gamma    90

_space_group_name_H-M_alt    "P 1"
_space_group_IT_number       1

loop_
  _space_group_symop_operation_xyz
  'x, y, z'

loop_
  _atom_site_type_symbol
  _atom_site_label
  _atom_site_symmetry_multiplicity
  _atom_site_fract_x
  _atom_site_fract_y
  _atom_site_fract_z
  _atom_site_occupancy
  Li  Li1       1.0  0.25000  0.00000  0.95955  1.0000
  Li  Li2       1.0  0.25000  0.50000  0.95955  1.0000
  Li  Li3       1.0  0.75000  0.25000  0.87866  1.0000
  Li  Li4       1.0  0.75000  0.75000  0.87866  1.0000
  Li  Li5       1.0  0.24388  0.49645  0.13352  1.0000
  Li  Li6       1.0  0.24388  0.00355  0.13352  1.0000
  Li  Li7       1.0  0.74237  0.75000  0.03628  1.0000
  Li  Li8       1.0  0.77738  0.25000  0.04695  1.0000
  Cu  Cu1       1.0  0.00000  0.00000  0.87866  1.0000
  Cu  Cu2       1.0  0.00000  0.50000  0.87866  1.0000
  Cu  Cu3       1.0  0.50000  0.75000  0.95955  1.0000
  Cu  Cu4       1.0  0.50000  0.25000  0.95955  1.0000
  Cu  Cu5       1.0  0.99315  0.51337  0.04067  1.0000
  Cu  Cu6       1.0  0.99315  0.98663  0.04067  1.0000
  Cu  Cu7       1.0  0.52802  0.25000  0.12703  1.0000
  Cu  Cu8       1.0  0.52299  0.75000  0.11623  1.0000
  Ge  Ge1       1.0  0.75000  0.00000  0.95955  1.0000
  Ge  Ge2       1.0  0.75000  0.50000  0.95955  1.0000
  Ge  Ge3       1.0  0.25000  0.25000  0.87866  1.0000
  Ge  Ge4       1.0  0.25000  0.75000  0.87866  1.0000
  Ge  Ge5       1.0  0.75505  0.50785  0.12747  1.0000
  Ge  Ge6       1.0  0.75506  0.99215  0.12747  1.0000
  Ge  Ge7       1.0  0.26071  0.75000  0.04099  1.0000
  Ge  Ge8       1.0  0.24976  0.25000  0.03565  1.0000
  Pd  Pd1       1.0  0.00000  0.25000  0.95955  1.0000
  Pd  Pd2       1.0  0.00000  0.75000  0.95955  1.0000
  Pd  Pd3       1.0  0.50000  0.50000  0.87866  1.0000
  Pd  Pd4       1.0  0.50000  0.00000  0.87866  1.0000
  Pd  Pd5       1.0  0.99245  0.75000  0.11431  1.0000
  Pd  Pd6       1.0  0.94491  0.25000  0.14465  1.0000
  Pd  Pd7       1.0  0.50706  0.00476  0.04531  1.0000
  Pd  Pd8       1.0  0.50705  0.49523  0.04531  1.0000
  C   C1        1.0  0.22894  0.25000  0.10853  1.0000
