# generated using pymatgen
data_Li8Cu8Ge8Pd8C
_symmetry_space_group_name_H-M   'P 1'
_cell_length_a   8.54512000
_cell_length_b   6.04231000
_cell_length_c   26.40880000
_cell_angle_alpha   90.00000000
_cell_angle_beta   90.00000000
_cell_angle_gamma   90.00000000
_symmetry_Int_Tables_number   1
_chemical_formula_structural   Li8Cu8Ge8Pd8C
_chemical_formula_sum   'Li8 Cu8 Ge8 Pd8 C1'
_cell_volume   1363.54613424
_cell_formula_units_Z   1
loop_
 _symmetry_equiv_pos_site_id
 _symmetry_equiv_pos_as_xyz
  1  'x, y, z'
loop_
 _atom_site_type_symbol
 _atom_site_label
 _atom_site_symmetry_multiplicity
 _atom_site_fract_x
 _atom_site_fract_y
 _atom_site_fract_z
 _atom_site_occupancy
  Li  Li0  1  0.75000000  0.25000000  0.04045000  1.0
  Li  Li1  1  0.25000000  0.25000000  0.04045000  1.0
  Li  Li2  1  0.00000000  0.75000000  0.12134000  1.0
  Li  Li3  1  0.50000000  0.75000000  0.12134000  1.0
  Li  Li4  1  0.24643000  0.24393000  0.86649000  1.0
  Li  Li5  1  0.75357000  0.24393000  0.86649000  1.0
  Li  Li6  1  0.50000000  0.74239000  0.96373000  1.0
  Li  Li7  1  0.00000000  0.77738000  0.95306000  1.0
  Cu  Cu8  1  0.75000000  0.00000000  0.12134000  1.0
  Cu  Cu9  1  0.25000000  0.00000000  0.12134000  1.0
  Cu  Cu10  1  0.50000000  0.50000000  0.04045000  1.0
  Cu  Cu11  1  0.00000000  0.50000000  0.04045000  1.0
  Cu  Cu12  1  0.26338000  0.99319000  0.95933000  1.0
  Cu  Cu13  1  0.73662000  0.99319000  0.95933000  1.0
  Cu  Cu14  1  0.00000000  0.52812000  0.87296000  1.0
  Cu  Cu15  1  0.50000000  0.52297000  0.88376000  1.0
  Ge  Ge16  1  0.75000000  0.75000000  0.04045000  1.0
  Ge  Ge17  1  0.25000000  0.75000000  0.04045000  1.0
  Ge  Ge18  1  0.00000000  0.25000000  0.12134000  1.0
  Ge  Ge19  1  0.50000000  0.25000000  0.12134000  1.0
  Ge  Ge20  1  0.25777000  0.75506000  0.87252000  1.0
  Ge  Ge21  1  0.74223000  0.75506000  0.87252000  1.0
  Ge  Ge22  1  0.50000000  0.26074000  0.95902000  1.0
  Ge  Ge23  1  0.00000000  0.24982000  0.96435000  1.0
  Pd  Pd24  1  0.00000000  0.00000000  0.04045000  1.0
  Pd  Pd25  1  0.50000000  0.00000000  0.04045000  1.0
  Pd  Pd26  1  0.25000000  0.50000000  0.12134000  1.0
  Pd  Pd27  1  0.75000000  0.50000000  0.12134000  1.0
  Pd  Pd28  1  0.50000000  0.99248000  0.88569000  1.0
  Pd  Pd29  1  0.00000000  0.94478000  0.85535000  1.0
  Pd  Pd30  1  0.75477000  0.50704000  0.95469000  1.0
  Pd  Pd31  1  0.24523000  0.50704000  0.95469000  1.0
  C  C32  1  0.00000000  0.22885000  0.89147000  1.0
