# generated using pymatgen
data_Li8Cu8Ge8Pd8C
_symmetry_space_group_name_H-M   Pm
_cell_length_a   6.04231000
_cell_length_b   8.54512000
_cell_length_c   26.40880000
_cell_angle_alpha   90.00000000
_cell_angle_beta   90.00000000
_cell_angle_gamma   90.00000000
_symmetry_Int_Tables_number   6
_chemical_formula_structural   Li8Cu8Ge8Pd8C
_chemical_formula_sum   'Li8 Cu8 Ge8 Pd8 C1'
_cell_volume   1363.54613424
_cell_formula_units_Z   1
loop_
 _symmetry_equiv_pos_site_id
 _symmetry_equiv_pos_as_xyz
  1  'x, y, z'
  2  'x, -y, z'
loop_
 _atom_site_type_symbol
 _atom_site_label
 _atom_site_symmetry_multiplicity
 _atom_site_fract_x
 _atom_site_fract_y
 _atom_site_fract_z
 _atom_site_occupancy
  Li  Li0  2  0.24393000  0.24643000  0.13351000  1.0
  Li  Li1  2  0.25000000  0.25000000  0.95955000  1.0
  Li  Li2  1  0.74239000  0.50000000  0.03627000  1.0
  Li  Li3  1  0.75000000  0.00000000  0.87866000  1.0
  Li  Li4  1  0.75000000  0.50000000  0.87866000  1.0
  Li  Li5  1  0.77738000  0.00000000  0.04694000  1.0
  Cu  Cu6  2  0.00000000  0.25000000  0.87866000  1.0
  Cu  Cu7  2  0.99319000  0.26338000  0.04067000  1.0
  Cu  Cu8  1  0.50000000  0.00000000  0.95955000  1.0
  Cu  Cu9  1  0.50000000  0.50000000  0.95955000  1.0
  Cu  Cu10  1  0.52297000  0.50000000  0.11624000  1.0
  Cu  Cu11  1  0.52812000  0.00000000  0.12704000  1.0
  Ge  Ge12  2  0.75000000  0.25000000  0.95955000  1.0
  Ge  Ge13  2  0.75506000  0.25777000  0.12748000  1.0
  Ge  Ge14  1  0.24982000  0.00000000  0.03565000  1.0
  Ge  Ge15  1  0.25000000  0.00000000  0.87866000  1.0
  Ge  Ge16  1  0.25000000  0.50000000  0.87866000  1.0
  Ge  Ge17  1  0.26074000  0.50000000  0.04098000  1.0
  Pd  Pd18  2  0.50000000  0.25000000  0.87866000  1.0
  Pd  Pd19  2  0.50704000  0.24523000  0.04531000  1.0
  Pd  Pd20  1  0.00000000  0.00000000  0.95955000  1.0
  Pd  Pd21  1  0.00000000  0.50000000  0.95955000  1.0
  Pd  Pd22  1  0.94478000  0.00000000  0.14465000  1.0
  Pd  Pd23  1  0.99248000  0.50000000  0.11431000  1.0
  C  C24  1  0.22885000  0.00000000  0.10853000  1.0
