# generated using pymatgen
data_V8Ni16Sn8C
_symmetry_space_group_name_H-M   P1
_cell_length_a   6.09179000
_cell_length_b   8.61509000
_cell_length_c   26.46130000
_cell_angle_alpha   90.00000000
_cell_angle_beta   90.00000000
_cell_angle_gamma   90.00000000
_symmetry_Int_Tables_number   1
_chemical_formula_structural   V8Ni16Sn8C
_chemical_formula_sum   'V8 Ni16 Sn8 C1'
_cell_volume   1388.72392939
_cell_formula_units_Z   1
loop_
 _symmetry_equiv_pos_site_id
 _symmetry_equiv_pos_as_xyz
  1  'x, y, z'
loop_
 _atom_site_type_symbol
 _atom_site_label
 _atom_site_symmetry_multiplicity
 _atom_site_fract_x
 _atom_site_fract_y
 _atom_site_fract_z
 _atom_site_occupancy
  V  V0  1  -0.00000000  0.50000000  0.87791000  1.0
  V  V1  1  0.00000000  0.00000000  0.87791000  1.0
  V  V2  1  0.49526000  0.75001000  0.11324000  1.0
  V  V3  1  0.50000000  0.25000000  0.95930000  1.0
  V  V4  1  0.50000000  0.75000000  0.95930000  1.0
  V  V5  1  0.53311000  0.24997000  0.11225000  1.0
  V  V6  1  0.99151000  0.99776000  0.04081000  1.0
  V  V7  1  0.99156000  0.50227000  0.04079000  1.0
  Ni  Ni8  1  0.18155000  0.25011000  0.05677000  1.0
  Ni  Ni9  1  0.22811000  0.74987000  0.04452000  1.0
  Ni  Ni10  1  0.23143000  0.02157000  0.11674000  1.0
  Ni  Ni11  1  0.23143000  0.47852000  0.11671000  1.0
  Ni  Ni12  1  0.25000000  0.00000000  0.95930000  1.0
  Ni  Ni13  1  0.25000000  0.25000000  0.87791000  1.0
  Ni  Ni14  1  0.25000000  0.50000000  0.95930000  1.0
  Ni  Ni15  1  0.25000000  0.75000000  0.87791000  1.0
  Ni  Ni16  1  0.74658000  0.99413000  0.11472000  1.0
  Ni  Ni17  1  0.74674000  0.50578000  0.11468000  1.0
  Ni  Ni18  1  0.75000000  0.00000000  0.95930000  1.0
  Ni  Ni19  1  0.75000000  0.25000000  0.87791000  1.0
  Ni  Ni20  1  0.75000000  0.50000000  0.95930000  1.0
  Ni  Ni21  1  0.75000000  0.75000000  0.87791000  1.0
  Ni  Ni22  1  0.76732000  0.25016000  0.04077000  1.0
  Ni  Ni23  1  0.77215000  0.74986000  0.04676000  1.0
  Sn  Sn24  1  -0.00000000  0.75000000  0.95930000  1.0
  Sn  Sn25  1  -0.00000000  0.25000000  0.95930000  1.0
  Sn  Sn26  1  0.01525000  0.74997000  0.13580000  1.0
  Sn  Sn27  1  0.49011000  0.00177000  0.03783000  1.0
  Sn  Sn28  1  0.49014000  0.49822000  0.03782000  1.0
  Sn  Sn29  1  0.50000000  0.00000000  0.87791000  1.0
  Sn  Sn30  1  0.50000000  0.50000000  0.87791000  1.0
  Sn  Sn31  1  0.91313000  0.25002000  0.16587000  1.0
  C  C32  1  0.24014000  0.25004000  0.13197000  1.0
