# generated using pymatgen
data_ZnAg
_symmetry_space_group_name_H-M   Pmm2
_cell_length_a   3.20975500
_cell_length_b   4.53928000
_cell_length_c   26.80890000
_cell_angle_alpha   90.00000000
_cell_angle_beta   90.00000000
_cell_angle_gamma   90.00000000
_symmetry_Int_Tables_number   25
_chemical_formula_structural   ZnAg
_chemical_formula_sum   'Zn4 Ag4'
_cell_volume   390.60504772
_cell_formula_units_Z   4
loop_
 _symmetry_equiv_pos_site_id
 _symmetry_equiv_pos_as_xyz
  1  'x, y, z'
  2  '-x, -y, z'
  3  '-x, y, z'
  4  'x, -y, z'
loop_
 _atom_site_type_symbol
 _atom_site_label
 _atom_site_symmetry_multiplicity
 _atom_site_fract_x
 _atom_site_fract_y
 _atom_site_fract_z
 _atom_site_occupancy
  Zn  Zn0  1  0.50000000  0.00000000  0.13143000  1.0
  Zn  Zn1  1  0.50000000  0.00000000  0.95767000  1.0
  Zn  Zn2  1  0.50000000  0.50000000  0.04429000  1.0
  Zn  Zn3  1  0.50000000  0.50000000  0.87301000  1.0
  Ag  Ag4  1  0.00000000  0.00000000  0.04183000  1.0
  Ag  Ag5  1  0.00000000  0.00000000  0.87301000  1.0
  Ag  Ag6  1  0.00000000  0.50000000  0.12964000  1.0
  Ag  Ag7  1  0.00000000  0.50000000  0.95767000  1.0
