data_image0
_chemical_formula_structural       Li4In4Cu4Pt4CO
_chemical_formula_sum              "Li4 In4 Cu4 Pt4 C1 O1"
_cell_length_a       6.3347
_cell_length_b       6.3347
_cell_length_c       24.751
_cell_angle_alpha    90
_cell_angle_beta     90
_cell_angle_gamma    90

_space_group_name_H-M_alt    "P 1"
_space_group_IT_number       1

loop_
  _space_group_symop_operation_xyz
  'x, y, z'

loop_
  _atom_site_type_symbol
  _atom_site_label
  _atom_site_symmetry_multiplicity
  _atom_site_fract_x
  _atom_site_fract_y
  _atom_site_fract_z
  _atom_site_occupancy
  Li  Li1       1.0  0.74060  0.24071  0.03055  1.0000
  Li  Li2       1.0  0.75000  0.75000  0.90402  1.0000
  Li  Li3       1.0  0.25000  0.25000  0.90402  1.0000
  Li  Li4       1.0  0.25808  0.75822  0.03068  1.0000
  In  In1       1.0  0.99804  0.49794  0.09874  1.0000
  In  In2       1.0  0.00000  0.00000  0.96801  1.0000
  In  In3       1.0  0.50000  0.50000  0.96801  1.0000
  In  In4       1.0  0.49946  0.99915  0.10628  1.0000
  Cu  Cu1       1.0  0.99988  0.00017  0.08966  1.0000
  Cu  Cu2       1.0  0.00000  0.50000  0.96801  1.0000
  Cu  Cu3       1.0  0.50000  0.00000  0.96801  1.0000
  Cu  Cu4       1.0  0.50011  0.50011  0.08968  1.0000
  Pt  Pt1       1.0  0.25521  0.24524  0.03446  1.0000
  Pt  Pt2       1.0  0.25000  0.75000  0.90402  1.0000
  Pt  Pt3       1.0  0.75000  0.25000  0.90402  1.0000
  Pt  Pt4       1.0  0.74528  0.75511  0.03438  1.0000
  C   C1        1.0  0.01353  0.52238  0.25057  1.0000
  O   O1        1.0  0.99450  0.49132  0.29546  1.0000
