# generated using pymatgen
data_Li4In4Cu4Pt4CO
_symmetry_space_group_name_H-M   'P 1'
_cell_length_a   6.33470000
_cell_length_b   6.33470000
_cell_length_c   24.75100000
_cell_angle_alpha   90.00000000
_cell_angle_beta   90.00000000
_cell_angle_gamma   90.00000000
_symmetry_Int_Tables_number   1
_chemical_formula_structural   Li4In4Cu4Pt4CO
_chemical_formula_sum   'Li4 In4 Cu4 Pt4 C1 O1'
_cell_volume   993.21862465
_cell_formula_units_Z   1
loop_
 _symmetry_equiv_pos_site_id
 _symmetry_equiv_pos_as_xyz
  1  'x, y, z'
loop_
 _atom_site_type_symbol
 _atom_site_label
 _atom_site_symmetry_multiplicity
 _atom_site_fract_x
 _atom_site_fract_y
 _atom_site_fract_z
 _atom_site_occupancy
  Li  Li0  1  0.25860000  0.75624000  0.02839000  1.0
  Li  Li1  1  0.25000000  0.25000000  0.90402000  1.0
  Li  Li2  1  0.75000000  0.75000000  0.90402000  1.0
  Li  Li3  1  0.75122000  0.25005000  0.03203000  1.0
  In  In4  1  0.01304000  0.51381000  0.10123000  1.0
  In  In5  1  0.00000000  0.00000000  0.96801000  1.0
  In  In6  1  0.50000000  0.50000000  0.96801000  1.0
  In  In7  1  0.49330000  0.99897000  0.10402000  1.0
  Cu  Cu8  1  0.00758000  0.98967000  0.08965000  1.0
  Cu  Cu9  1  0.00000000  0.50000000  0.96801000  1.0
  Cu  Cu10  1  0.50000000  0.00000000  0.96801000  1.0
  Cu  Cu11  1  0.49654000  0.50381000  0.08968000  1.0
  Pt  Pt12  1  0.74602000  0.75254000  0.03455000  1.0
  Pt  Pt13  1  0.75000000  0.25000000  0.90402000  1.0
  Pt  Pt14  1  0.25000000  0.75000000  0.90402000  1.0
  Pt  Pt15  1  0.24975000  0.24887000  0.03438000  1.0
  C  C16  1  0.96745000  0.44554000  0.25282000  1.0
  O  O17  1  0.01884000  0.53506000  0.29037000  1.0
