# generated using pymatgen
data_Li24Au8C
_symmetry_space_group_name_H-M   'P 1'
_cell_length_a   8.98033000
_cell_length_b   6.35005000
_cell_length_c   26.73520000
_cell_angle_alpha   90.00000000
_cell_angle_beta   90.00000000
_cell_angle_gamma   90.00000000
_symmetry_Int_Tables_number   1
_chemical_formula_structural   Li24Au8C
_chemical_formula_sum   'Li24 Au8 C1'
_cell_volume   1524.58933776
_cell_formula_units_Z   1
loop_
 _symmetry_equiv_pos_site_id
 _symmetry_equiv_pos_as_xyz
  1  'x, y, z'
loop_
 _atom_site_type_symbol
 _atom_site_label
 _atom_site_symmetry_multiplicity
 _atom_site_fract_x
 _atom_site_fract_y
 _atom_site_fract_z
 _atom_site_occupancy
  Li  Li0  1  0.75000000  0.25000000  0.04199000  1.0
  Li  Li1  1  0.25000000  0.75000000  0.04199000  1.0
  Li  Li2  1  0.75000000  0.75000000  0.04199000  1.0
  Li  Li3  1  0.25000000  0.25000000  0.04199000  1.0
  Li  Li4  1  0.50000000  0.75000000  0.12596000  1.0
  Li  Li5  1  0.00000000  0.25000000  0.12596000  1.0
  Li  Li6  1  0.50000000  0.25000000  0.12596000  1.0
  Li  Li7  1  0.00000000  0.75000000  0.12596000  1.0
  Li  Li8  1  0.50000000  1.00000000  0.04199000  1.0
  Li  Li9  1  0.75000000  0.50000000  0.12596000  1.0
  Li  Li10  1  0.00000000  0.00000000  0.04199000  1.0
  Li  Li11  1  0.25000000  0.50000000  0.12596000  1.0
  Li  Li12  1  0.23009000  0.25648000  0.86848000  1.0
  Li  Li13  1  0.73599000  0.73349000  0.87204000  1.0
  Li  Li14  1  0.26401000  0.73349000  0.87204000  1.0
  Li  Li15  1  0.76991000  0.25648000  0.86848000  1.0
  Li  Li16  1  0.00000000  0.77691000  0.95867000  1.0
  Li  Li17  1  0.50000000  0.26320000  0.96347000  1.0
  Li  Li18  1  0.00000000  0.20359000  0.94776000  1.0
  Li  Li19  1  0.50000000  0.72861000  0.95882000  1.0
  Li  Li20  1  0.00000000  0.96447000  0.84664000  1.0
  Li  Li21  1  0.22482000  0.48712000  0.95858000  1.0
  Li  Li22  1  0.50000000  0.02846000  0.88601000  1.0
  Li  Li23  1  0.77518000  0.48712000  0.95858000  1.0
  Au  Au24  1  0.75000000  0.00000000  0.12596000  1.0
  Au  Au25  1  0.00000000  0.50000000  0.04199000  1.0
  Au  Au26  1  0.50000000  0.50000000  0.04199000  1.0
  Au  Au27  1  0.25000000  0.00000000  0.12596000  1.0
  Au  Au28  1  0.26422000  0.99422000  0.95871000  1.0
  Au  Au29  1  0.50000000  0.46998000  0.88196000  1.0
  Au  Au30  1  0.00000000  0.56927000  0.87827000  1.0
  Au  Au31  1  0.73578000  0.99422000  0.95871000  1.0
  C  C32  1  0.00000000  0.25623000  0.87012000  1.0
