# generated using pymatgen
data_Li24Au8C
_symmetry_space_group_name_H-M   Pm
_cell_length_a   6.35005000
_cell_length_b   8.98033000
_cell_length_c   26.73520000
_cell_angle_alpha   90.00000000
_cell_angle_beta   90.00000000
_cell_angle_gamma   90.00000000
_symmetry_Int_Tables_number   6
_chemical_formula_structural   Li24Au8C
_chemical_formula_sum   'Li24 Au8 C1'
_cell_volume   1524.58933776
_cell_formula_units_Z   1
loop_
 _symmetry_equiv_pos_site_id
 _symmetry_equiv_pos_as_xyz
  1  'x, y, z'
  2  'x, -y, z'
loop_
 _atom_site_type_symbol
 _atom_site_label
 _atom_site_symmetry_multiplicity
 _atom_site_fract_x
 _atom_site_fract_y
 _atom_site_fract_z
 _atom_site_occupancy
  Li  Li0  2  0.25000000  0.25000000  0.95801000  1.0
  Li  Li1  2  0.25648000  0.23009000  0.13152000  1.0
  Li  Li2  2  0.48712000  0.22482000  0.04142000  1.0
  Li  Li3  2  0.50000000  0.25000000  0.87404000  1.0
  Li  Li4  2  0.73349000  0.26401000  0.12796000  1.0
  Li  Li5  2  0.75000000  0.25000000  0.95801000  1.0
  Li  Li6  1  -0.00000000  0.50000000  0.95801000  1.0
  Li  Li7  1  0.00000000  0.00000000  0.95801000  1.0
  Li  Li8  1  0.02846000  0.50000000  0.11399000  1.0
  Li  Li9  1  0.20359000  0.00000000  0.05224000  1.0
  Li  Li10  1  0.25000000  0.00000000  0.87404000  1.0
  Li  Li11  1  0.25000000  0.50000000  0.87404000  1.0
  Li  Li12  1  0.26320000  0.50000000  0.03653000  1.0
  Li  Li13  1  0.72861000  0.50000000  0.04118000  1.0
  Li  Li14  1  0.75000000  0.00000000  0.87404000  1.0
  Li  Li15  1  0.75000000  0.50000000  0.87404000  1.0
  Li  Li16  1  0.77691000  0.00000000  0.04133000  1.0
  Li  Li17  1  0.96447000  0.00000000  0.15336000  1.0
  Au  Au18  2  0.00000000  0.25000000  0.87404000  1.0
  Au  Au19  2  0.99422000  0.26422000  0.04129000  1.0
  Au  Au20  1  0.46998000  0.50000000  0.11804000  1.0
  Au  Au21  1  0.50000000  0.00000000  0.95801000  1.0
  Au  Au22  1  0.50000000  0.50000000  0.95801000  1.0
  Au  Au23  1  0.56927000  0.00000000  0.12173000  1.0
  C  C24  1  0.25623000  0.00000000  0.12988000  1.0
