data_image0
_chemical_formula_structural       Li8Ge8Pd8Pb8C
_chemical_formula_sum              "Li8 Ge8 Pd8 Pb8 C1"
_cell_length_a       6.74945
_cell_length_b       9.54516
_cell_length_c       27.1589
_cell_angle_alpha    90
_cell_angle_beta     90
_cell_angle_gamma    90

_space_group_name_H-M_alt    "P 1"
_space_group_IT_number       1

loop_
  _space_group_symop_operation_xyz
  'x, y, z'

loop_
  _atom_site_type_symbol
  _atom_site_label
  _atom_site_symmetry_multiplicity
  _atom_site_fract_x
  _atom_site_fract_y
  _atom_site_fract_z
  _atom_site_occupancy
  Li  Li1       1.0  0.25000  0.00000  0.95607  1.0000
  Li  Li2       1.0  0.25000  0.50000  0.95607  1.0000
  Li  Li3       1.0  0.75000  0.25000  0.86820  1.0000
  Li  Li4       1.0  0.75000  0.75000  0.86820  1.0000
  Li  Li5       1.0  0.29292  0.50000  0.13428  1.0000
  Li  Li6       1.0  0.30401  0.00001  0.15246  1.0000
  Li  Li7       1.0  0.80043  0.75672  0.05497  1.0000
  Li  Li8       1.0  0.80043  0.24327  0.05497  1.0000
  Ge  Ge1       1.0  0.00000  0.00000  0.86820  1.0000
  Ge  Ge2       1.0  0.00000  0.50000  0.86820  1.0000
  Ge  Ge3       1.0  0.50000  0.75000  0.95607  1.0000
  Ge  Ge4       1.0  0.50000  0.25000  0.95607  1.0000
  Ge  Ge5       1.0  0.00848  0.50000  0.05597  1.0000
  Ge  Ge6       1.0  0.06321  0.00000  0.06386  1.0000
  Ge  Ge7       1.0  0.51929  0.25144  0.12970  1.0000
  Ge  Ge8       1.0  0.51929  0.74856  0.12970  1.0000
  Pd  Pd1       1.0  0.75000  0.00000  0.95607  1.0000
  Pd  Pd2       1.0  0.75000  0.50000  0.95607  1.0000
  Pd  Pd3       1.0  0.25000  0.25000  0.86820  1.0000
  Pd  Pd4       1.0  0.25000  0.75000  0.86820  1.0000
  Pd  Pd5       1.0  0.72806  0.50001  0.12374  1.0000
  Pd  Pd6       1.0  0.69661  0.00000  0.13441  1.0000
  Pd  Pd7       1.0  0.21017  0.73232  0.06622  1.0000
  Pd  Pd8       1.0  0.21016  0.26767  0.06623  1.0000
  Pb  Pb1       1.0  0.00000  0.25000  0.95607  1.0000
  Pb  Pb2       1.0  0.00000  0.75000  0.95607  1.0000
  Pb  Pb3       1.0  0.50000  0.50000  0.86820  1.0000
  Pb  Pb4       1.0  0.50000  0.00000  0.86820  1.0000
  Pb  Pb5       1.0  0.97558  0.75614  0.16535  1.0000
  Pb  Pb6       1.0  0.97553  0.24391  0.16535  1.0000
  Pb  Pb7       1.0  0.49408  0.00000  0.04379  1.0000
  Pb  Pb8       1.0  0.49259  0.49998  0.03955  1.0000
  C   C1        1.0  0.00411  0.00003  0.13507  1.0000
