# generated using pymatgen
data_Li8Ge8Pd8Pb8C
_symmetry_space_group_name_H-M   'P 1'
_cell_length_a   9.54516000
_cell_length_b   6.74945000
_cell_length_c   27.15890000
_cell_angle_alpha   90.00000000
_cell_angle_beta   90.00000000
_cell_angle_gamma   90.00000000
_symmetry_Int_Tables_number   1
_chemical_formula_structural   Li8Ge8Pd8Pb8C
_chemical_formula_sum   'Li8 Ge8 Pd8 Pb8 C1'
_cell_volume   1749.70073016
_cell_formula_units_Z   1
loop_
 _symmetry_equiv_pos_site_id
 _symmetry_equiv_pos_as_xyz
  1  'x, y, z'
loop_
 _atom_site_type_symbol
 _atom_site_label
 _atom_site_symmetry_multiplicity
 _atom_site_fract_x
 _atom_site_fract_y
 _atom_site_fract_z
 _atom_site_occupancy
  Li  Li0  1  0.00000000  0.25000000  0.04393000  1.0
  Li  Li1  1  0.50000000  0.25000000  0.04393000  1.0
  Li  Li2  1  0.24997000  0.75000000  0.13180000  1.0
  Li  Li3  1  0.75003000  0.75000000  0.13180000  1.0
  Li  Li4  1  0.50000000  0.29313000  0.86555000  1.0
  Li  Li5  1  0.00000000  0.30452000  0.84749000  1.0
  Li  Li6  1  0.75672000  0.80026000  0.94507000  1.0
  Li  Li7  1  0.24328000  0.80026000  0.94507000  1.0
  Ge  Ge8  1  0.00000000  0.00000000  0.13180000  1.0
  Ge  Ge9  1  0.50000000  1.00000000  0.13180000  1.0
  Ge  Ge10  1  0.74997000  0.50000000  0.04393000  1.0
  Ge  Ge11  1  0.25003000  0.50000000  0.04393000  1.0
  Ge  Ge12  1  0.50000000  0.00862000  0.94403000  1.0
  Ge  Ge13  1  0.00000000  0.06321000  0.93624000  1.0
  Ge  Ge14  1  0.25144000  0.51927000  0.87027000  1.0
  Ge  Ge15  1  0.74856000  0.51927000  0.87027000  1.0
  Pd  Pd16  1  0.00000000  0.75000000  0.04393000  1.0
  Pd  Pd17  1  0.50000000  0.75000000  0.04393000  1.0
  Pd  Pd18  1  0.24997000  0.25000000  0.13180000  1.0
  Pd  Pd19  1  0.75003000  0.25000000  0.13180000  1.0
  Pd  Pd20  1  0.50000000  0.72811000  0.87627000  1.0
  Pd  Pd21  1  0.00000000  0.69654000  0.86557000  1.0
  Pd  Pd22  1  0.73235000  0.20997000  0.93368000  1.0
  Pd  Pd23  1  0.26765000  0.20997000  0.93368000  1.0
  Pb  Pb24  1  0.24997000  1.00000000  0.04393000  1.0
  Pb  Pb25  1  0.75003000  1.00000000  0.04393000  1.0
  Pb  Pb26  1  0.50000000  0.50000000  0.13180000  1.0
  Pb  Pb27  1  0.00000000  0.50000000  0.13180000  1.0
  Pb  Pb28  1  0.75634000  0.97531000  0.83464000  1.0
  Pb  Pb29  1  0.24366000  0.97531000  0.83464000  1.0
  Pb  Pb30  1  0.00000000  0.49416000  0.95627000  1.0
  Pb  Pb31  1  0.50000000  0.49197000  0.96047000  1.0
  C  C32  1  0.00000000  0.00395000  0.86506000  1.0
