# generated using pymatgen
data_Li8Ge8Pd8Pb8C
_symmetry_space_group_name_H-M   Pm
_cell_length_a   6.74945000
_cell_length_b   9.54516000
_cell_length_c   27.15890000
_cell_angle_alpha   90.00000000
_cell_angle_beta   90.00000000
_cell_angle_gamma   90.00000000
_symmetry_Int_Tables_number   6
_chemical_formula_structural   Li8Ge8Pd8Pb8C
_chemical_formula_sum   'Li8 Ge8 Pd8 Pb8 C1'
_cell_volume   1749.70073016
_cell_formula_units_Z   1
loop_
 _symmetry_equiv_pos_site_id
 _symmetry_equiv_pos_as_xyz
  1  'x, y, z'
  2  'x, -y, z'
loop_
 _atom_site_type_symbol
 _atom_site_label
 _atom_site_symmetry_multiplicity
 _atom_site_fract_x
 _atom_site_fract_y
 _atom_site_fract_z
 _atom_site_occupancy
  Li  Li0  2  0.75000000  0.24997000  0.86820000  1.0
  Li  Li1  2  0.80026000  0.24328000  0.05493000  1.0
  Li  Li2  1  0.25000000  0.00000000  0.95607000  1.0
  Li  Li3  1  0.25000000  0.50000000  0.95607000  1.0
  Li  Li4  1  0.29313000  0.50000000  0.13445000  1.0
  Li  Li5  1  0.30452000  0.00000000  0.15251000  1.0
  Ge  Ge6  2  0.50000000  0.25003000  0.95607000  1.0
  Ge  Ge7  2  0.51927000  0.25144000  0.12973000  1.0
  Ge  Ge8  1  -0.00000000  0.50000000  0.86820000  1.0
  Ge  Ge9  1  0.00000000  0.00000000  0.86820000  1.0
  Ge  Ge10  1  0.00862000  0.50000000  0.05597000  1.0
  Ge  Ge11  1  0.06321000  0.00000000  0.06376000  1.0
  Pd  Pd12  2  0.20997000  0.26765000  0.06632000  1.0
  Pd  Pd13  2  0.25000000  0.24997000  0.86820000  1.0
  Pd  Pd14  1  0.69654000  0.00000000  0.13443000  1.0
  Pd  Pd15  1  0.72811000  0.50000000  0.12373000  1.0
  Pd  Pd16  1  0.75000000  0.00000000  0.95607000  1.0
  Pd  Pd17  1  0.75000000  0.50000000  0.95607000  1.0
  Pb  Pb18  2  -0.00000000  0.24997000  0.95607000  1.0
  Pb  Pb19  2  0.97531000  0.24366000  0.16536000  1.0
  Pb  Pb20  1  0.49197000  0.50000000  0.03953000  1.0
  Pb  Pb21  1  0.49416000  0.00000000  0.04373000  1.0
  Pb  Pb22  1  0.50000000  0.00000000  0.86820000  1.0
  Pb  Pb23  1  0.50000000  0.50000000  0.86820000  1.0
  C  C24  1  0.00395000  0.00000000  0.13494000  1.0
