# generated using pymatgen
data_Li8In8Pd8Rh8CO
_symmetry_space_group_name_H-M   Pm
_cell_length_a   6.29773000
_cell_length_b   8.90634000
_cell_length_c   26.67980000
_cell_angle_alpha   90.00000000
_cell_angle_beta   90.00000000
_cell_angle_gamma   90.00000000
_symmetry_Int_Tables_number   6
_chemical_formula_structural   Li8In8Pd8Rh8CO
_chemical_formula_sum   'Li8 In8 Pd8 Rh8 C1 O1'
_cell_volume   1496.46263460
_cell_formula_units_Z   1
loop_
 _symmetry_equiv_pos_site_id
 _symmetry_equiv_pos_as_xyz
  1  'x, y, z'
  2  'x, -y, z'
loop_
 _atom_site_type_symbol
 _atom_site_label
 _atom_site_symmetry_multiplicity
 _atom_site_fract_x
 _atom_site_fract_y
 _atom_site_fract_z
 _atom_site_occupancy
  Li  Li0  2  0.00000000  0.25000000  0.95827000  1.0
  Li  Li1  2  0.00271000  0.25015000  0.13386000  1.0
  Li  Li2  1  0.49865000  0.50000000  0.04215000  1.0
  Li  Li3  1  0.50000000  0.00000000  0.87482000  1.0
  Li  Li4  1  0.50000000  0.50000000  0.87482000  1.0
  Li  Li5  1  0.50450000  0.00000000  0.04138000  1.0
  In  In6  2  0.49640000  0.25392000  0.13309000  1.0
  In  In7  2  0.50000000  0.25000000  0.95827000  1.0
  In  In8  1  0.00000000  0.00000000  0.87482000  1.0
  In  In9  1  0.00000000  0.50000000  0.87482000  1.0
  In  In10  1  0.00249000  0.50000000  0.04065000  1.0
  In  In11  1  0.99815000  0.00000000  0.04164000  1.0
  Pd  Pd12  2  0.25000000  0.25000000  0.87482000  1.0
  Pd  Pd13  2  0.25300000  0.24557000  0.04420000  1.0
  Pd  Pd14  1  0.74086000  0.00000000  0.12307000  1.0
  Pd  Pd15  1  0.75000000  0.00000000  0.95827000  1.0
  Pd  Pd16  1  0.75000000  0.50000000  0.95827000  1.0
  Pd  Pd17  1  0.75165000  0.50000000  0.12258000  1.0
  Rh  Rh18  2  0.74636000  0.24940000  0.04553000  1.0
  Rh  Rh19  2  0.75000000  0.25000000  0.87482000  1.0
  Rh  Rh20  1  0.24612000  0.00000000  0.12895000  1.0
  Rh  Rh21  1  0.25000000  0.00000000  0.95827000  1.0
  Rh  Rh22  1  0.25000000  0.50000000  0.95827000  1.0
  Rh  Rh23  1  0.25296000  0.50000000  0.12087000  1.0
  C  C24  1  0.19350000  0.00000000  0.19731000  1.0
  O  O25  1  0.16404000  0.00000000  0.24038000  1.0
