# generated using pymatgen
data_Li4Sc4Ga4Ge4C
_symmetry_space_group_name_H-M   'P 1'
_cell_length_a   7.95848000
_cell_length_b   5.81702000
_cell_length_c   24.35990000
_cell_angle_alpha   90.00000000
_cell_angle_beta   90.00000000
_cell_angle_gamma   90.00000000
_symmetry_Int_Tables_number   1
_chemical_formula_structural   Li4Sc4Ga4Ge4C
_chemical_formula_sum   'Li4 Sc4 Ga4 Ge4 C1'
_cell_volume   1127.73273589
_cell_formula_units_Z   1
loop_
 _symmetry_equiv_pos_site_id
 _symmetry_equiv_pos_as_xyz
  1  'x, y, z'
loop_
 _atom_site_type_symbol
 _atom_site_label
 _atom_site_symmetry_multiplicity
 _atom_site_fract_x
 _atom_site_fract_y
 _atom_site_fract_z
 _atom_site_occupancy
  Li  Li0  1  0.50000000  0.73450000  0.03881000  1.0
  Li  Li1  1  0.50000000  0.27699000  0.91051000  1.0
  Li  Li2  1  0.00000000  0.75799000  0.03062000  1.0
  Li  Li3  1  0.00000000  0.27699000  0.91051000  1.0
  Sc  Sc4  1  0.50000000  0.23516000  0.02898000  1.0
  Sc  Sc5  1  0.50000000  0.77699000  0.91051000  1.0
  Sc  Sc6  1  0.00000000  0.27045000  0.03485000  1.0
  Sc  Sc7  1  0.00000000  0.77699000  0.91051000  1.0
  Ga  Ga8  1  0.76636000  0.97580000  0.08664000  1.0
  Ga  Ga9  1  0.75001000  0.51799000  0.97017000  1.0
  Ga  Ga10  1  0.23364000  0.97580000  0.08664000  1.0
  Ga  Ga11  1  0.24999000  0.51799000  0.97017000  1.0
  Ge  Ge12  1  0.73498000  0.49287000  0.10085000  1.0
  Ge  Ge13  1  0.75001000  0.01799000  0.97017000  1.0
  Ge  Ge14  1  0.26502000  0.49287000  0.10085000  1.0
  Ge  Ge15  1  0.24999000  0.01799000  0.97017000  1.0
  C  C16  1  0.50000000  0.46043000  0.09966000  1.0
