# generated using pymatgen
data_Ti8Ni16Sb8C
_symmetry_space_group_name_H-M   'P 1'
_cell_length_a   6.14873000
_cell_length_b   8.69561000
_cell_length_c   26.52170000
_cell_angle_alpha   90.00000000
_cell_angle_beta   90.00000000
_cell_angle_gamma   90.00000000
_symmetry_Int_Tables_number   1
_chemical_formula_structural   Ti8Ni16Sb8C
_chemical_formula_sum   'Ti8 Ni16 Sb8 C1'
_cell_volume   1418.03462199
_cell_formula_units_Z   1
loop_
 _symmetry_equiv_pos_site_id
 _symmetry_equiv_pos_as_xyz
  1  'x, y, z'
loop_
 _atom_site_type_symbol
 _atom_site_label
 _atom_site_symmetry_multiplicity
 _atom_site_fract_x
 _atom_site_fract_y
 _atom_site_fract_z
 _atom_site_occupancy
  Ti  Ti0  1  0.00000000  0.00000000  0.87705000  1.0
  Ti  Ti1  1  0.50000000  0.25000000  0.95902000  1.0
  Ti  Ti2  1  0.50000000  0.75000000  0.95902000  1.0
  Ti  Ti3  1  0.00000000  0.50000000  0.87705000  1.0
  Ti  Ti4  1  0.00228000  0.50083000  0.04401000  1.0
  Ti  Ti5  1  0.49625000  0.75001000  0.11881000  1.0
  Ti  Ti6  1  0.53364000  0.25001000  0.10979000  1.0
  Ti  Ti7  1  0.00231000  0.99916000  0.04401000  1.0
  Ni  Ni8  1  0.25000000  0.00000000  0.95902000  1.0
  Ni  Ni9  1  0.75000000  0.50000000  0.95902000  1.0
  Ni  Ni10  1  0.75000000  0.00000000  0.95902000  1.0
  Ni  Ni11  1  0.25000000  0.50000000  0.95902000  1.0
  Ni  Ni12  1  0.75000000  0.75000000  0.87705000  1.0
  Ni  Ni13  1  0.25000000  0.25000000  0.87705000  1.0
  Ni  Ni14  1  0.25000000  0.75000000  0.87705000  1.0
  Ni  Ni15  1  0.75000000  0.25000000  0.87705000  1.0
  Ni  Ni16  1  0.23929000  0.48324000  0.11858000  1.0
  Ni  Ni17  1  0.74061000  0.98807000  0.11719000  1.0
  Ni  Ni18  1  0.74059000  0.51196000  0.11719000  1.0
  Ni  Ni19  1  0.23934000  0.01671000  0.11858000  1.0
  Ni  Ni20  1  0.77741000  0.24996000  0.03676000  1.0
  Ni  Ni21  1  0.24749000  0.75003000  0.04303000  1.0
  Ni  Ni22  1  0.18923000  0.25001000  0.05825000  1.0
  Ni  Ni23  1  0.78623000  0.75001000  0.04914000  1.0
  Sb  Sb24  1  0.00000000  0.75000000  0.95902000  1.0
  Sb  Sb25  1  0.50000000  0.00000000  0.87705000  1.0
  Sb  Sb26  1  0.00000000  0.25000000  0.95902000  1.0
  Sb  Sb27  1  0.50000000  0.50000000  0.87705000  1.0
  Sb  Sb28  1  0.90911000  0.25001000  0.16153000  1.0
  Sb  Sb29  1  0.50253000  0.50636000  0.03873000  1.0
  Sb  Sb30  1  0.01631000  0.74999000  0.13734000  1.0
  Sb  Sb31  1  0.50256000  0.99368000  0.03873000  1.0
  C  C32  1  0.23125000  0.24996000  0.13106000  1.0
