# generated using pymatgen
data_Li8In8Cu8Pd8C
_symmetry_space_group_name_H-M   'P 1'
_cell_length_a   8.95884000
_cell_length_b   6.33486000
_cell_length_c   26.71910000
_cell_angle_alpha   90.00000000
_cell_angle_beta   90.00000000
_cell_angle_gamma   90.00000000
_symmetry_Int_Tables_number   1
_chemical_formula_structural   Li8In8Cu8Pd8C
_chemical_formula_sum   'Li8 In8 Cu8 Pd8 C1'
_cell_volume   1516.38900648
_cell_formula_units_Z   1
loop_
 _symmetry_equiv_pos_site_id
 _symmetry_equiv_pos_as_xyz
  1  'x, y, z'
loop_
 _atom_site_type_symbol
 _atom_site_label
 _atom_site_symmetry_multiplicity
 _atom_site_fract_x
 _atom_site_fract_y
 _atom_site_fract_z
 _atom_site_occupancy
  Li  Li0  1  0.75000000  0.25000000  0.04191000  1.0
  Li  Li1  1  0.25000000  0.25000000  0.04191000  1.0
  Li  Li2  1  0.00000000  0.75000000  0.12574000  1.0
  Li  Li3  1  0.50000000  0.75000000  0.12574000  1.0
  Li  Li4  1  0.24478000  0.24760000  0.86768000  1.0
  Li  Li5  1  0.75522000  0.24760000  0.86768000  1.0
  Li  Li6  1  0.50000000  0.75254000  0.96231000  1.0
  Li  Li7  1  0.00000000  0.75267000  0.96150000  1.0
  In  In8  1  0.75000000  0.75000000  0.04191000  1.0
  In  In9  1  0.25000000  0.75000000  0.04191000  1.0
  In  In10  1  0.00000000  0.25000000  0.12574000  1.0
  In  In11  1  0.50000000  0.25000000  0.12574000  1.0
  In  In12  1  0.25612000  0.74568000  0.86072000  1.0
  In  In13  1  0.74388000  0.74568000  0.86072000  1.0
  In  In14  1  0.50000000  0.25459000  0.95861000  1.0
  In  In15  1  0.00000000  0.25135000  0.95880000  1.0
  Cu  Cu16  1  0.75000000  0.00000000  0.12574000  1.0
  Cu  Cu17  1  0.25000000  0.00000000  0.12574000  1.0
  Cu  Cu18  1  0.50000000  0.50000000  0.04191000  1.0
  Cu  Cu19  1  0.00000000  0.50000000  0.04191000  1.0
  Cu  Cu20  1  0.25259000  0.98717000  0.95358000  1.0
  Cu  Cu21  1  0.74741000  0.98717000  0.95358000  1.0
  Cu  Cu22  1  0.00000000  0.54294000  0.87668000  1.0
  Cu  Cu23  1  0.50000000  0.52514000  0.88278000  1.0
  Pd  Pd24  1  0.00000000  1.00000000  0.04191000  1.0
  Pd  Pd25  1  0.50000000  1.00000000  0.04191000  1.0
  Pd  Pd26  1  0.25000000  0.50000000  0.12574000  1.0
  Pd  Pd27  1  0.75000000  0.50000000  0.12574000  1.0
  Pd  Pd28  1  0.50000000  0.97927000  0.88199000  1.0
  Pd  Pd29  1  0.00000000  0.95738000  0.87596000  1.0
  Pd  Pd30  1  0.74995000  0.51618000  0.95370000  1.0
  Pd  Pd31  1  0.25005000  0.51618000  0.95370000  1.0
  C  C32  1  0.00000000  0.25891000  0.86795000  1.0
