# generated using pymatgen
data_Zn4Ni8Ge4C
_symmetry_space_group_name_H-M   Cmm2
_cell_length_a   8.34070632
_cell_length_b   8.34070632
_cell_length_c   24.42330000
_cell_angle_alpha   90.00000000
_cell_angle_beta   90.00000000
_cell_angle_gamma   90.00000000
_symmetry_Int_Tables_number   35
_chemical_formula_structural   Zn4Ni8Ge4C
_chemical_formula_sum   'Zn8 Ni16 Ge8 C2'
_cell_volume   1699.06503948
_cell_formula_units_Z   2
loop_
 _symmetry_equiv_pos_site_id
 _symmetry_equiv_pos_as_xyz
  1  'x, y, z'
  2  '-x, -y, z'
  3  '-x, y, z'
  4  'x, -y, z'
  5  'x+1/2, y+1/2, z'
  6  '-x+1/2, -y+1/2, z'
  7  '-x+1/2, y+1/2, z'
  8  'x+1/2, -y+1/2, z'
loop_
 _atom_site_type_symbol
 _atom_site_label
 _atom_site_symmetry_multiplicity
 _atom_site_fract_x
 _atom_site_fract_y
 _atom_site_fract_z
 _atom_site_occupancy
  Zn  Zn0  4  0.00000000  0.25000000  0.09056000  1.0
  Zn  Zn1  4  0.25000000  0.50000000  0.96981000  1.0
  Ni  Ni2  4  0.25000000  0.25000000  0.03019000  1.0
  Ni  Ni3  4  0.25000000  0.25000000  0.90944000  1.0
  Ni  Ni4  2  0.00000000  0.00000000  0.03019000  1.0
  Ni  Ni5  2  0.00000000  0.00000000  0.90944000  1.0
  Ni  Ni6  2  0.00000000  0.50000000  0.03019000  1.0
  Ni  Ni7  2  0.00000000  0.50000000  0.90944000  1.0
  Ge  Ge8  4  0.00000000  0.25000000  0.96981000  1.0
  Ge  Ge9  4  0.25000000  0.50000000  0.09056000  1.0
  C  C10  2  0.00000000  0.50000000  0.12331000  1.0
