# generated using pymatgen
data_Y8Al8In8Pd8C
_symmetry_space_group_name_H-M   Pmm2
_cell_length_a   8.16174000
_cell_length_b   8.86460000
_cell_length_c   26.91240000
_cell_angle_alpha   90.00000000
_cell_angle_beta   90.00000000
_cell_angle_gamma   90.00000000
_symmetry_Int_Tables_number   25
_chemical_formula_structural   Y8Al8In8Pd8C
_chemical_formula_sum   'Y8 Al8 In8 Pd8 C1'
_cell_volume   1947.12722182
_cell_formula_units_Z   1
loop_
 _symmetry_equiv_pos_site_id
 _symmetry_equiv_pos_as_xyz
  1  'x, y, z'
  2  '-x, -y, z'
  3  '-x, y, z'
  4  'x, -y, z'
loop_
 _atom_site_type_symbol
 _atom_site_label
 _atom_site_symmetry_multiplicity
 _atom_site_fract_x
 _atom_site_fract_y
 _atom_site_fract_z
 _atom_site_occupancy
  Y  Y0  2  0.25000000  0.00000000  0.12842000  1.0
  Y  Y1  2  0.25000000  0.00000000  0.95719000  1.0
  Y  Y2  2  0.25000000  0.50000000  0.12842000  1.0
  Y  Y3  2  0.25000000  0.50000000  0.95719000  1.0
  Al  Al4  1  0.00000000  0.00000000  0.04281000  1.0
  Al  Al5  1  0.00000000  0.00000000  0.87158000  1.0
  Al  Al6  1  0.00000000  0.50000000  0.04281000  1.0
  Al  Al7  1  0.00000000  0.50000000  0.87158000  1.0
  Al  Al8  1  0.50000000  0.00000000  0.04281000  1.0
  Al  Al9  1  0.50000000  0.00000000  0.87158000  1.0
  Al  Al10  1  0.50000000  0.50000000  0.04281000  1.0
  Al  Al11  1  0.50000000  0.50000000  0.87158000  1.0
  In  In12  4  0.25000000  0.25000000  0.04281000  1.0
  In  In13  4  0.25000000  0.25000000  0.87158000  1.0
  Pd  Pd14  2  0.00000000  0.25000000  0.12842000  1.0
  Pd  Pd15  2  0.00000000  0.25000000  0.95719000  1.0
  Pd  Pd16  2  0.50000000  0.25000000  0.12842000  1.0
  Pd  Pd17  2  0.50000000  0.25000000  0.95719000  1.0
  C  C18  1  0.00000000  0.00000000  0.15815000  1.0
