# generated using pymatgen
data_Li8Sc8Al8Pd8C
_symmetry_space_group_name_H-M   'P 1'
_cell_length_a   9.02082000
_cell_length_b   6.37868000
_cell_length_c   26.76560000
_cell_angle_alpha   90.00000000
_cell_angle_beta   90.00000000
_cell_angle_gamma   90.00000000
_symmetry_Int_Tables_number   1
_chemical_formula_structural   Li8Sc8Al8Pd8C
_chemical_formula_sum   'Li8 Sc8 Al8 Pd8 C1'
_cell_volume   1540.11735856
_cell_formula_units_Z   1
loop_
 _symmetry_equiv_pos_site_id
 _symmetry_equiv_pos_as_xyz
  1  'x, y, z'
loop_
 _atom_site_type_symbol
 _atom_site_label
 _atom_site_symmetry_multiplicity
 _atom_site_fract_x
 _atom_site_fract_y
 _atom_site_fract_z
 _atom_site_occupancy
  Li  Li0  1  0.00000000  0.75000000  0.04213000  1.0
  Li  Li1  1  0.50000000  0.75000000  0.04213000  1.0
  Li  Li2  1  0.25000000  0.25000000  0.12639000  1.0
  Li  Li3  1  0.75000000  0.25000000  0.12639000  1.0
  Li  Li4  1  0.50000000  0.58093000  0.82101000  1.0
  Li  Li5  1  0.00000000  0.73615000  0.82876000  1.0
  Li  Li6  1  0.74826000  0.24726000  0.95757000  1.0
  Li  Li7  1  0.25174000  0.24726000  0.95757000  1.0
  Sc  Sc8  1  0.25000000  1.00000000  0.04213000  1.0
  Sc  Sc9  1  0.75000000  1.00000000  0.04213000  1.0
  Sc  Sc10  1  0.50000000  0.50000000  0.12639000  1.0
  Sc  Sc11  1  0.00000000  0.50000000  0.12639000  1.0
  Sc  Sc12  1  0.72967000  0.95116000  0.87688000  1.0
  Sc  Sc13  1  0.27033000  0.95116000  0.87688000  1.0
  Sc  Sc14  1  0.00000000  0.51342000  0.95234000  1.0
  Sc  Sc15  1  0.50000000  0.51565000  0.95031000  1.0
  Al  Al16  1  0.00000000  0.00000000  0.12639000  1.0
  Al  Al17  1  0.50000000  0.00000000  0.12639000  1.0
  Al  Al18  1  0.75000000  0.50000000  0.04213000  1.0
  Al  Al19  1  0.25000000  0.50000000  0.04213000  1.0
  Al  Al20  1  0.50000000  0.00268000  0.96036000  1.0
  Al  Al21  1  0.00000000  0.98769000  0.95898000  1.0
  Al  Al22  1  0.22656000  0.48034000  0.87112000  1.0
  Al  Al23  1  0.77344000  0.48034000  0.87112000  1.0
  Pd  Pd24  1  0.00000000  0.25000000  0.04213000  1.0
  Pd  Pd25  1  0.50000000  0.25000000  0.04213000  1.0
  Pd  Pd26  1  0.25000000  0.75000000  0.12639000  1.0
  Pd  Pd27  1  0.75000000  0.75000000  0.12639000  1.0
  Pd  Pd28  1  0.50000000  0.24195000  0.87785000  1.0
  Pd  Pd29  1  0.00000000  0.14777000  0.87371000  1.0
  Pd  Pd30  1  0.74781000  0.74838000  0.96237000  1.0
  Pd  Pd31  1  0.25219000  0.74838000  0.96237000  1.0
  C  C32  1  0.00000000  0.46527000  0.86976000  1.0
