# generated using pymatgen
data_LiYGePb
_symmetry_space_group_name_H-M   'P 1'
_cell_length_a   8.55406000
_cell_length_b   6.56037000
_cell_length_c   24.87870000
_cell_angle_alpha   90.00000000
_cell_angle_beta   90.00000000
_cell_angle_gamma   90.00000000
_symmetry_Int_Tables_number   1
_chemical_formula_structural   LiYGePb
_chemical_formula_sum   'Li4 Y4 Ge4 Pb4'
_cell_volume   1396.13787608
_cell_formula_units_Z   4
loop_
 _symmetry_equiv_pos_site_id
 _symmetry_equiv_pos_as_xyz
  1  'x, y, z'
loop_
 _atom_site_type_symbol
 _atom_site_label
 _atom_site_symmetry_multiplicity
 _atom_site_fract_x
 _atom_site_fract_y
 _atom_site_fract_z
 _atom_site_occupancy
  Li  Li0  1  0.50000000  0.24058000  0.04353000  1.0
  Li  Li1  1  0.50000000  0.84731000  0.90195000  1.0
  Li  Li2  1  0.00000000  0.24047000  0.04341000  1.0
  Li  Li3  1  0.00000000  0.84731000  0.90195000  1.0
  Y  Y4  1  0.50000000  0.76188000  0.03497000  1.0
  Y  Y5  1  0.50000000  0.34731000  0.90195000  1.0
  Y  Y6  1  0.00000000  0.76187000  0.03497000  1.0
  Y  Y7  1  0.00000000  0.34731000  0.90195000  1.0
  Ge  Ge8  1  0.75005000  0.02868000  0.08263000  1.0
  Ge  Ge9  1  0.75001000  0.56487000  0.96732000  1.0
  Ge  Ge10  1  0.24995000  0.02868000  0.08263000  1.0
  Ge  Ge11  1  0.24999000  0.56487000  0.96732000  1.0
  Pb  Pb12  1  0.75004000  0.46467000  0.09623000  1.0
  Pb  Pb13  1  0.75001000  0.06487000  0.96732000  1.0
  Pb  Pb14  1  0.24996000  0.46467000  0.09623000  1.0
  Pb  Pb15  1  0.24999000  0.06487000  0.96732000  1.0
