# generated using pymatgen
data_LiYGePb
_symmetry_space_group_name_H-M   Pm
_cell_length_a   6.56037000
_cell_length_b   8.55406000
_cell_length_c   24.87870000
_cell_angle_alpha   90.00000000
_cell_angle_beta   90.00000000
_cell_angle_gamma   90.00000000
_symmetry_Int_Tables_number   6
_chemical_formula_structural   LiYGePb
_chemical_formula_sum   'Li4 Y4 Ge4 Pb4'
_cell_volume   1396.13787608
_cell_formula_units_Z   4
loop_
 _symmetry_equiv_pos_site_id
 _symmetry_equiv_pos_as_xyz
  1  'x, y, z'
  2  'x, -y, z'
loop_
 _atom_site_type_symbol
 _atom_site_label
 _atom_site_symmetry_multiplicity
 _atom_site_fract_x
 _atom_site_fract_y
 _atom_site_fract_z
 _atom_site_occupancy
  Li  Li0  1  0.24047000  0.00000000  0.95659000  1.0
  Li  Li1  1  0.24058000  0.50000000  0.95647000  1.0
  Li  Li2  1  0.84731000  0.00000000  0.09805000  1.0
  Li  Li3  1  0.84731000  0.50000000  0.09805000  1.0
  Y  Y4  1  0.34731000  0.00000000  0.09805000  1.0
  Y  Y5  1  0.34731000  0.50000000  0.09805000  1.0
  Y  Y6  1  0.76187000  0.00000000  0.96503000  1.0
  Y  Y7  1  0.76188000  0.50000000  0.96503000  1.0
  Ge  Ge8  2  0.02868000  0.24995000  0.91737000  1.0
  Ge  Ge9  2  0.56487000  0.24999000  0.03268000  1.0
  Pb  Pb10  2  0.06487000  0.24999000  0.03268000  1.0
  Pb  Pb11  2  0.46467000  0.24996000  0.90377000  1.0
