# generated using pymatgen
data_ScInAgPd
_symmetry_space_group_name_H-M   Pm
_cell_length_a   6.71273000
_cell_length_b   4.74662000
_cell_length_c   27.11990000
_cell_angle_alpha   90.00000000
_cell_angle_beta   90.00000000
_cell_angle_gamma   90.00000000
_symmetry_Int_Tables_number   6
_chemical_formula_structural   ScInAgPd
_chemical_formula_sum   'Sc4 In4 Ag4 Pd4'
_cell_volume   864.11536590
_cell_formula_units_Z   4
loop_
 _symmetry_equiv_pos_site_id
 _symmetry_equiv_pos_as_xyz
  1  'x, y, z'
  2  'x, -y, z'
loop_
 _atom_site_type_symbol
 _atom_site_label
 _atom_site_symmetry_multiplicity
 _atom_site_fract_x
 _atom_site_fract_y
 _atom_site_fract_z
 _atom_site_occupancy
  Sc  Sc0  1  0.24792000  0.00000000  0.87142000  1.0
  Sc  Sc1  1  0.25000000  0.00000000  0.04376000  1.0
  Sc  Sc2  1  0.74273000  0.50000000  0.95291000  1.0
  Sc  Sc3  1  0.75000000  0.50000000  0.13127000  1.0
  In  In4  1  0.25000000  0.50000000  0.13127000  1.0
  In  In5  1  0.25390000  0.50000000  0.95576000  1.0
  In  In6  1  0.75000000  0.00000000  0.04376000  1.0
  In  In7  1  0.75778500  0.00000000  0.86254000  1.0
  Ag  Ag8  1  0.00000000  0.00000000  0.13127000  1.0
  Ag  Ag9  1  0.50000000  0.50000000  0.04376000  1.0
  Ag  Ag10  1  0.50397000  0.50000000  0.86044000  1.0
  Ag  Ag11  1  0.99377000  0.00000000  0.95611000  1.0
  Pd  Pd12  1  0.00000000  0.50000000  0.04376000  1.0
  Pd  Pd13  1  0.00091000  0.50000000  0.87401000  1.0
  Pd  Pd14  1  0.49900000  0.00000000  0.95525000  1.0
  Pd  Pd15  1  0.50000000  0.00000000  0.13127000  1.0
