# generated using pymatgen
data_Ca16Ni16CO
_symmetry_space_group_name_H-M   Pm
_cell_length_a   9.80104000
_cell_length_b   6.93038000
_cell_length_c   27.35080000
_cell_angle_alpha   90.00000000
_cell_angle_beta   90.00000000
_cell_angle_gamma   90.00000000
_symmetry_Int_Tables_number   6
_chemical_formula_structural   Ca16Ni16CO
_chemical_formula_sum   'Ca16 Ni16 C1 O1'
_cell_volume   1857.80121907
_cell_formula_units_Z   1
loop_
 _symmetry_equiv_pos_site_id
 _symmetry_equiv_pos_as_xyz
  1  'x, y, z'
  2  'x, -y, z'
loop_
 _atom_site_type_symbol
 _atom_site_label
 _atom_site_symmetry_multiplicity
 _atom_site_fract_x
 _atom_site_fract_y
 _atom_site_fract_z
 _atom_site_occupancy
  Ca  Ca0  1  0.00000000  0.00000000  0.86562000  1.0
  Ca  Ca1  1  0.00000000  0.50000000  0.86562000  1.0
  Ca  Ca2  1  0.25000000  0.00000000  0.13610000  1.0
  Ca  Ca3  1  0.25000000  0.00000000  0.95521000  1.0
  Ca  Ca4  1  0.25000000  0.50000000  0.13953000  1.0
  Ca  Ca5  1  0.25000000  0.50000000  0.95521000  1.0
  Ca  Ca6  1  0.50000000  0.00000000  0.86562000  1.0
  Ca  Ca7  1  0.50000000  0.50000000  0.86562000  1.0
  Ca  Ca8  1  0.50184000  0.00000000  0.04223000  1.0
  Ca  Ca9  1  0.50203000  0.50000000  0.04289000  1.0
  Ca  Ca10  1  0.75000000  0.00000000  0.95521000  1.0
  Ca  Ca11  1  0.75000000  0.50000000  0.95521000  1.0
  Ca  Ca12  1  0.75001000  0.00000000  0.14211000  1.0
  Ca  Ca13  1  0.75002000  0.50000000  0.14233000  1.0
  Ca  Ca14  1  0.99797000  0.50000000  0.04291000  1.0
  Ca  Ca15  1  0.99817000  0.00000000  0.04225000  1.0
  Ni  Ni16  2  0.00000000  0.25000000  0.95521000  1.0
  Ni  Ni17  2  0.25000000  0.25000000  0.86562000  1.0
  Ni  Ni18  2  0.25003000  0.25985000  0.05257000  1.0
  Ni  Ni19  2  0.50000000  0.25000000  0.95521000  1.0
  Ni  Ni20  2  0.50888000  0.24900000  0.12201000  1.0
  Ni  Ni21  2  0.74998000  0.24789000  0.05790000  1.0
  Ni  Ni22  2  0.75000000  0.25000000  0.86562000  1.0
  Ni  Ni23  2  0.99113000  0.24894000  0.12206000  1.0
  C  C24  1  0.24995000  0.00000000  0.23256000  1.0
  O  O25  1  0.24996000  0.00000000  0.27429000  1.0
