# generated using pymatgen
data_Ti16Ga16C
_symmetry_space_group_name_H-M   Pmm2
_cell_length_a   7.95272000
_cell_length_b   7.99342000
_cell_length_c   25.96450000
_cell_angle_alpha   90.00000000
_cell_angle_beta   90.00000000
_cell_angle_gamma   90.00000000
_symmetry_Int_Tables_number   25
_chemical_formula_structural   Ti16Ga16C
_chemical_formula_sum   'Ti16 Ga16 C1'
_cell_volume   1650.54849386
_cell_formula_units_Z   1
loop_
 _symmetry_equiv_pos_site_id
 _symmetry_equiv_pos_as_xyz
  1  'x, y, z'
  2  '-x, -y, z'
  3  '-x, y, z'
  4  'x, -y, z'
loop_
 _atom_site_type_symbol
 _atom_site_label
 _atom_site_symmetry_multiplicity
 _atom_site_fract_x
 _atom_site_fract_y
 _atom_site_fract_z
 _atom_site_occupancy
  Ti  Ti0  2  0.25000000  0.00000000  0.11486000  1.0
  Ti  Ti1  2  0.25000000  0.00000000  0.96171000  1.0
  Ti  Ti2  2  0.25000000  0.50000000  0.11486000  1.0
  Ti  Ti3  2  0.25000000  0.50000000  0.96171000  1.0
  Ti  Ti4  1  0.00000000  0.00000000  0.03829000  1.0
  Ti  Ti5  1  0.00000000  0.00000000  0.88514000  1.0
  Ti  Ti6  1  0.00000000  0.50000000  0.03829000  1.0
  Ti  Ti7  1  0.00000000  0.50000000  0.88514000  1.0
  Ti  Ti8  1  0.50000000  0.00000000  0.03829000  1.0
  Ti  Ti9  1  0.50000000  0.00000000  0.88514000  1.0
  Ti  Ti10  1  0.50000000  0.50000000  0.03829000  1.0
  Ti  Ti11  1  0.50000000  0.50000000  0.88514000  1.0
  Ga  Ga12  4  0.25000000  0.25000000  0.03829000  1.0
  Ga  Ga13  4  0.25000000  0.25000000  0.88514000  1.0
  Ga  Ga14  2  0.00000000  0.25000000  0.11486000  1.0
  Ga  Ga15  2  0.00000000  0.25000000  0.96171000  1.0
  Ga  Ga16  2  0.50000000  0.25000000  0.11486000  1.0
  Ga  Ga17  2  0.50000000  0.25000000  0.96171000  1.0
  C  C18  1  0.00000000  0.00000000  0.14567000  1.0
