# generated using pymatgen
data_Li8Al8Ag8Sn8CO
_symmetry_space_group_name_H-M   P1
_cell_length_a   8.56020000
_cell_length_b   8.66686000
_cell_length_c   26.12070000
_cell_angle_alpha   90.00000000
_cell_angle_beta   90.00000000
_cell_angle_gamma   90.00000000
_symmetry_Int_Tables_number   1
_chemical_formula_structural   Li8Al8Ag8Sn8CO
_chemical_formula_sum   'Li8 Al8 Ag8 Sn8 C1 O1'
_cell_volume   1937.89616891
_cell_formula_units_Z   1
loop_
 _symmetry_equiv_pos_site_id
 _symmetry_equiv_pos_as_xyz
  1  'x, y, z'
loop_
 _atom_site_type_symbol
 _atom_site_label
 _atom_site_symmetry_multiplicity
 _atom_site_fract_x
 _atom_site_fract_y
 _atom_site_fract_z
 _atom_site_occupancy
  Li  Li0  1  0.25000000  0.00000000  0.88284000  1.0
  Li  Li1  1  0.25000000  0.50000000  0.88284000  1.0
  Li  Li2  1  0.25255000  0.50002000  0.03599000  1.0
  Li  Li3  1  0.26025000  0.99999000  0.03781000  1.0
  Li  Li4  1  0.73974000  0.00001000  0.03780000  1.0
  Li  Li5  1  0.74744000  0.49999000  0.03598000  1.0
  Li  Li6  1  0.75000000  0.00000000  0.88284000  1.0
  Li  Li7  1  0.75000000  0.50000000  0.88284000  1.0
  Al  Al8  1  0.00000000  0.25000000  0.88284000  1.0
  Al  Al9  1  0.00000000  0.75000000  0.88284000  1.0
  Al  Al10  1  0.00001000  0.74868000  0.03878000  1.0
  Al  Al11  1  0.50000000  0.25000000  0.88284000  1.0
  Al  Al12  1  0.50000000  0.25039000  0.03960000  1.0
  Al  Al13  1  0.50000000  0.75000000  0.88284000  1.0
  Al  Al14  1  0.50001000  0.74960000  0.03960000  1.0
  Al  Al15  1  0.99999000  0.25130000  0.03878000  1.0
  Ag  Ag16  1  0.00000000  0.00000000  0.96095000  1.0
  Ag  Ag17  1  0.00000000  0.50000000  0.96095000  1.0
  Ag  Ag18  1  0.50000000  0.00000000  0.10784000  1.0
  Ag  Ag19  1  0.50000000  0.00000000  0.96095000  1.0
  Ag  Ag20  1  0.50000000  0.50000000  0.96095000  1.0
  Ag  Ag21  1  0.50007000  0.49996000  0.10245000  1.0
  Ag  Ag22  1  0.99997000  0.99999000  0.09825000  1.0
  Ag  Ag23  1  0.99998000  0.49999000  0.10104000  1.0
  Sn  Sn24  1  0.25000000  0.25000000  0.96095000  1.0
  Sn  Sn25  1  0.25000000  0.75000000  0.96095000  1.0
  Sn  Sn26  1  0.25037000  0.25884000  0.12234000  1.0
  Sn  Sn27  1  0.25040000  0.74117000  0.12234000  1.0
  Sn  Sn28  1  0.74962000  0.25881000  0.12235000  1.0
  Sn  Sn29  1  0.74964000  0.74121000  0.12234000  1.0
  Sn  Sn30  1  0.75000000  0.25000000  0.96095000  1.0
  Sn  Sn31  1  0.75000000  0.75000000  0.96095000  1.0
  C  C32  1  0.00013000  0.00018000  0.23887000  1.0
  O  O33  1  0.99996000  0.99997000  0.28236000  1.0
