# generated using pymatgen
data_Mn8Au8C
_symmetry_space_group_name_H-M   P4mm
_cell_length_a   6.45068000
_cell_length_b   6.45068000
_cell_length_c   25.03480000
_cell_angle_alpha   90.00000000
_cell_angle_beta   90.00000000
_cell_angle_gamma   90.00000000
_symmetry_Int_Tables_number   99
_chemical_formula_structural   Mn8Au8C
_chemical_formula_sum   'Mn8 Au8 C1'
_cell_volume   1041.72988384
_cell_formula_units_Z   1
loop_
 _symmetry_equiv_pos_site_id
 _symmetry_equiv_pos_as_xyz
  1  'x, y, z'
  2  '-y, x, z'
  3  '-x, -y, z'
  4  'y, -x, z'
  5  '-x, y, z'
  6  'y, x, z'
  7  'x, -y, z'
  8  '-y, -x, z'
loop_
 _atom_site_type_symbol
 _atom_site_label
 _atom_site_symmetry_multiplicity
 _atom_site_fract_x
 _atom_site_fract_y
 _atom_site_fract_z
 _atom_site_occupancy
  Mn  Mn0  4  0.25000000  0.25000000  0.11945000  1.0
  Mn  Mn1  4  0.25000000  0.25000000  0.98538000  1.0
  Au  Au2  2  0.00000000  0.50000000  0.05242000  1.0
  Au  Au3  2  0.00000000  0.50000000  0.91834000  1.0
  Au  Au4  1  0.00000000  0.00000000  0.05242000  1.0
  Au  Au5  1  0.00000000  0.00000000  0.91834000  1.0
  Au  Au6  1  0.50000000  0.50000000  0.05242000  1.0
  Au  Au7  1  0.50000000  0.50000000  0.91834000  1.0
  C  C8  1  0.00000000  0.00000000  0.15141000  1.0
