# generated using pymatgen
data_Zr8Ni16Sn8CO
_symmetry_space_group_name_H-M   'P 1'
_cell_length_a   8.96645000
_cell_length_b   6.34024000
_cell_length_c   26.72480000
_cell_angle_alpha   90.00000000
_cell_angle_beta   90.00000000
_cell_angle_gamma   90.00000000
_symmetry_Int_Tables_number   1
_chemical_formula_structural   Zr8Ni16Sn8CO
_chemical_formula_sum   'Zr8 Ni16 Sn8 C1 O1'
_cell_volume   1519.29004635
_cell_formula_units_Z   1
loop_
 _symmetry_equiv_pos_site_id
 _symmetry_equiv_pos_as_xyz
  1  'x, y, z'
loop_
 _atom_site_type_symbol
 _atom_site_label
 _atom_site_symmetry_multiplicity
 _atom_site_fract_x
 _atom_site_fract_y
 _atom_site_fract_z
 _atom_site_occupancy
  Zr  Zr0  1  0.50000000  0.00000000  0.12582000  1.0
  Zr  Zr1  1  0.75001000  0.50000000  0.04194000  1.0
  Zr  Zr2  1  0.24999000  0.50000000  0.04194000  1.0
  Zr  Zr3  1  0.00000000  0.00000000  0.12582000  1.0
  Zr  Zr4  1  0.00000000  0.99760000  0.95816000  1.0
  Zr  Zr5  1  0.25086000  0.49756000  0.87377000  1.0
  Zr  Zr6  1  0.74914000  0.49756000  0.87377000  1.0
  Zr  Zr7  1  0.50000000  0.00229000  0.95836000  1.0
  Ni  Ni8  1  0.50000000  0.25000000  0.04194000  1.0
  Ni  Ni9  1  0.00000000  0.75000000  0.04194000  1.0
  Ni  Ni10  1  0.50000000  0.75000000  0.04194000  1.0
  Ni  Ni11  1  0.00000000  0.25000000  0.04194000  1.0
  Ni  Ni12  1  0.25001000  0.75000000  0.12582000  1.0
  Ni  Ni13  1  0.75001000  0.25000000  0.12582000  1.0
  Ni  Ni14  1  0.24999000  0.25000000  0.12582000  1.0
  Ni  Ni15  1  0.74999000  0.75000000  0.12582000  1.0
  Ni  Ni16  1  0.00000000  0.26734000  0.88034000  1.0
  Ni  Ni17  1  0.50000000  0.75881000  0.88286000  1.0
  Ni  Ni18  1  0.00000000  0.72591000  0.87940000  1.0
  Ni  Ni19  1  0.50000000  0.24539000  0.86702000  1.0
  Ni  Ni20  1  0.74816000  0.74425000  0.95498000  1.0
  Ni  Ni21  1  0.24845000  0.25271000  0.95437000  1.0
  Ni  Ni22  1  0.75155000  0.25271000  0.95437000  1.0
  Ni  Ni23  1  0.25184000  0.74425000  0.95498000  1.0
  Sn  Sn24  1  0.25001000  0.00000000  0.04194000  1.0
  Sn  Sn25  1  0.50000000  0.50000000  0.12582000  1.0
  Sn  Sn26  1  0.74999000  0.00000000  0.04194000  1.0
  Sn  Sn27  1  0.00000000  0.50000000  0.12582000  1.0
  Sn  Sn28  1  0.75685000  0.99379000  0.86903000  1.0
  Sn  Sn29  1  0.00000000  0.49986000  0.96072000  1.0
  Sn  Sn30  1  0.24315000  0.99379000  0.86903000  1.0
  Sn  Sn31  1  0.50000000  0.49295000  0.95792000  1.0
  C  C32  1  0.50000000  0.34603000  0.80587000  1.0
  O  O33  1  0.50000000  0.39393000  0.76371000  1.0
