# generated using pymatgen
data_Zr8Ni16Sn8CO
_symmetry_space_group_name_H-M   Pm
_cell_length_a   6.34024000
_cell_length_b   8.96645000
_cell_length_c   26.72480000
_cell_angle_alpha   90.00000000
_cell_angle_beta   90.00000000
_cell_angle_gamma   90.00000000
_symmetry_Int_Tables_number   6
_chemical_formula_structural   Zr8Ni16Sn8CO
_chemical_formula_sum   'Zr8 Ni16 Sn8 C1 O1'
_cell_volume   1519.29004635
_cell_formula_units_Z   1
loop_
 _symmetry_equiv_pos_site_id
 _symmetry_equiv_pos_as_xyz
  1  'x, y, z'
  2  'x, -y, z'
loop_
 _atom_site_type_symbol
 _atom_site_label
 _atom_site_symmetry_multiplicity
 _atom_site_fract_x
 _atom_site_fract_y
 _atom_site_fract_z
 _atom_site_occupancy
  Zr  Zr0  2  0.49756000  0.25086000  0.12623000  1.0
  Zr  Zr1  2  0.50000000  0.24999000  0.95806000  1.0
  Zr  Zr2  1  0.00000000  0.00000000  0.87418000  1.0
  Zr  Zr3  1  0.00000000  0.50000000  0.87418000  1.0
  Zr  Zr4  1  0.00229000  0.50000000  0.04164000  1.0
  Zr  Zr5  1  0.99760000  0.00000000  0.04184000  1.0
  Ni  Ni6  2  0.25000000  0.24999000  0.87418000  1.0
  Ni  Ni7  2  0.25271000  0.24845000  0.04563000  1.0
  Ni  Ni8  2  0.74425000  0.25184000  0.04502000  1.0
  Ni  Ni9  2  0.75000000  0.25001000  0.87418000  1.0
  Ni  Ni10  1  0.24539000  0.50000000  0.13298000  1.0
  Ni  Ni11  1  0.25000000  0.00000000  0.95806000  1.0
  Ni  Ni12  1  0.25000000  0.50000000  0.95806000  1.0
  Ni  Ni13  1  0.26734000  0.00000000  0.11966000  1.0
  Ni  Ni14  1  0.72591000  0.00000000  0.12060000  1.0
  Ni  Ni15  1  0.75000000  0.00000000  0.95806000  1.0
  Ni  Ni16  1  0.75000000  0.50000000  0.95806000  1.0
  Ni  Ni17  1  0.75881000  0.50000000  0.11714000  1.0
  Sn  Sn18  2  0.00000000  0.25001000  0.95806000  1.0
  Sn  Sn19  2  0.99379000  0.24315000  0.13097000  1.0
  Sn  Sn20  1  0.49295000  0.50000000  0.04208000  1.0
  Sn  Sn21  1  0.49986000  0.00000000  0.03928000  1.0
  Sn  Sn22  1  0.50000000  0.00000000  0.87418000  1.0
  Sn  Sn23  1  0.50000000  0.50000000  0.87418000  1.0
  C  C24  1  0.34603000  0.50000000  0.19413000  1.0
  O  O25  1  0.39393000  0.50000000  0.23629000  1.0
