# generated using pymatgen
data_Ni24Ge8CO
_symmetry_space_group_name_H-M   'P 1'
_cell_length_a   7.20976000
_cell_length_b   7.20976000
_cell_length_c   25.40730000
_cell_angle_alpha   90.00000000
_cell_angle_beta   90.00000000
_cell_angle_gamma   90.00000000
_symmetry_Int_Tables_number   1
_chemical_formula_structural   Ni24Ge8CO
_chemical_formula_sum   'Ni24 Ge8 C1 O1'
_cell_volume   1320.68769581
_cell_formula_units_Z   1
loop_
 _symmetry_equiv_pos_site_id
 _symmetry_equiv_pos_as_xyz
  1  'x, y, z'
loop_
 _atom_site_type_symbol
 _atom_site_label
 _atom_site_symmetry_multiplicity
 _atom_site_fract_x
 _atom_site_fract_y
 _atom_site_fract_z
 _atom_site_occupancy
  Ni  Ni0  1  0.75000000  0.25000000  0.96453000  1.0
  Ni  Ni1  1  0.00000000  0.00000000  0.96453000  1.0
  Ni  Ni2  1  0.00000000  0.25000000  0.89359000  1.0
  Ni  Ni3  1  0.75000000  0.25000000  0.10641000  1.0
  Ni  Ni4  1  0.00000000  0.00000000  0.10641000  1.0
  Ni  Ni5  1  0.00000000  0.25000000  0.03547000  1.0
  Ni  Ni6  1  0.75000000  0.75000000  0.96453000  1.0
  Ni  Ni7  1  0.00000000  0.50000000  0.96453000  1.0
  Ni  Ni8  1  0.00000000  0.75000000  0.89359000  1.0
  Ni  Ni9  1  0.75000000  0.75000000  0.10641000  1.0
  Ni  Ni10  1  0.00000000  0.50000000  0.10641000  1.0
  Ni  Ni11  1  0.00000000  0.75000000  0.03547000  1.0
  Ni  Ni12  1  0.25000000  0.25000000  0.96453000  1.0
  Ni  Ni13  1  0.50000000  0.00000000  0.96453000  1.0
  Ni  Ni14  1  0.50000000  0.25000000  0.89359000  1.0
  Ni  Ni15  1  0.25000000  0.25000000  0.10641000  1.0
  Ni  Ni16  1  0.50000000  0.00000000  0.10641000  1.0
  Ni  Ni17  1  0.50000000  0.25000000  0.03547000  1.0
  Ni  Ni18  1  0.25000000  0.75000000  0.96453000  1.0
  Ni  Ni19  1  0.50000000  0.50000000  0.96453000  1.0
  Ni  Ni20  1  0.50000000  0.75000000  0.89359000  1.0
  Ni  Ni21  1  0.25000000  0.75000000  0.10641000  1.0
  Ni  Ni22  1  0.50000000  0.50000000  0.10641000  1.0
  Ni  Ni23  1  0.50000000  0.75000000  0.03547000  1.0
  Ge  Ge24  1  0.75000000  0.00000000  0.89359000  1.0
  Ge  Ge25  1  0.75000000  0.00000000  0.03547000  1.0
  Ge  Ge26  1  0.75000000  0.50000000  0.89359000  1.0
  Ge  Ge27  1  0.75000000  0.50000000  0.03547000  1.0
  Ge  Ge28  1  0.25000000  0.00000000  0.89359000  1.0
  Ge  Ge29  1  0.25000000  0.00000000  0.03547000  1.0
  Ge  Ge30  1  0.25000000  0.50000000  0.89359000  1.0
  Ge  Ge31  1  0.25000000  0.50000000  0.03547000  1.0
  C  C32  1  0.00000000  0.00000000  0.18119000  1.0
  O  O33  1  0.00000000  0.00000000  0.22646000  1.0
