# generated using pymatgen
data_ZrInPt2
_symmetry_space_group_name_H-M   P4mm
_cell_length_a   4.73076357
_cell_length_b   4.73076357
_cell_length_c   25.01770000
_cell_angle_alpha   90.00000000
_cell_angle_beta   90.00000000
_cell_angle_gamma   90.00000000
_symmetry_Int_Tables_number   99
_chemical_formula_structural   ZrInPt2
_chemical_formula_sum   'Zr2 In2 Pt4'
_cell_volume   559.89922690
_cell_formula_units_Z   2
loop_
 _symmetry_equiv_pos_site_id
 _symmetry_equiv_pos_as_xyz
  1  'x, y, z'
  2  '-y, x, z'
  3  '-x, -y, z'
  4  'y, -x, z'
  5  '-x, y, z'
  6  'y, x, z'
  7  'x, -y, z'
  8  '-y, -x, z'
loop_
 _atom_site_type_symbol
 _atom_site_label
 _atom_site_symmetry_multiplicity
 _atom_site_fract_x
 _atom_site_fract_y
 _atom_site_fract_z
 _atom_site_occupancy
  Zr  Zr0  1  0.00000000  0.00000000  0.10028000  1.0
  Zr  Zr1  1  0.50000000  0.50000000  0.96657000  1.0
  In  In2  1  0.00000000  0.00000000  0.96657000  1.0
  In  In3  1  0.50000000  0.50000000  0.10028000  1.0
  Pt  Pt4  2  0.00000000  0.50000000  0.03343000  1.0
  Pt  Pt5  2  0.00000000  0.50000000  0.89972000  1.0
