# generated using pymatgen
data_LiAl2Pd
_symmetry_space_group_name_H-M   'P 1'
_cell_length_a   4.33023500
_cell_length_b   6.12388000
_cell_length_c   26.49540000
_cell_angle_alpha   90.00000000
_cell_angle_beta   90.00000000
_cell_angle_gamma   90.00000000
_symmetry_Int_Tables_number   1
_chemical_formula_structural   LiAl2Pd
_chemical_formula_sum   'Li4 Al8 Pd4'
_cell_volume   702.60076500
_cell_formula_units_Z   4
loop_
 _symmetry_equiv_pos_site_id
 _symmetry_equiv_pos_as_xyz
  1  'x, y, z'
loop_
 _atom_site_type_symbol
 _atom_site_label
 _atom_site_symmetry_multiplicity
 _atom_site_fract_x
 _atom_site_fract_y
 _atom_site_fract_z
 _atom_site_occupancy
  Li  Li0  1  0.00000000  0.00000000  0.12258000  1.0
  Li  Li1  1  0.50000000  0.50000000  0.04086000  1.0
  Li  Li2  1  0.00000000  0.00000000  0.95856000  1.0
  Li  Li3  1  0.50000000  0.50000000  0.83776000  1.0
  Al  Al4  1  0.00000000  0.75000000  0.04086000  1.0
  Al  Al5  1  0.00000000  0.25000000  0.04086000  1.0
  Al  Al6  1  0.50000000  0.25000000  0.12258000  1.0
  Al  Al7  1  0.50000000  0.75000000  0.12258000  1.0
  Al  Al8  1  0.00000000  0.73947000  0.87701000  1.0
  Al  Al9  1  0.00000000  0.26053000  0.87701000  1.0
  Al  Al10  1  0.50000000  0.26500000  0.95334000  1.0
  Al  Al11  1  0.50000000  0.73500000  0.95334000  1.0
  Pd  Pd12  1  0.50000000  0.00000000  0.04086000  1.0
  Pd  Pd13  1  0.00000000  0.50000000  0.12258000  1.0
  Pd  Pd14  1  0.50000000  0.00000000  0.87981000  1.0
  Pd  Pd15  1  0.00000000  0.50000000  0.96405000  1.0
