# generated using pymatgen
data_Li4V4Ge4Pd4CO
_symmetry_space_group_name_H-M   P1
_cell_length_a   5.17268000
_cell_length_b   9.40562000
_cell_length_c   23.56350000
_cell_angle_alpha   90.00000000
_cell_angle_beta   90.00000000
_cell_angle_gamma   90.00000000
_symmetry_Int_Tables_number   1
_chemical_formula_structural   Li4V4Ge4Pd4CO
_chemical_formula_sum   'Li4 V4 Ge4 Pd4 C1 O1'
_cell_volume   1146.41758651
_cell_formula_units_Z   1
loop_
 _symmetry_equiv_pos_site_id
 _symmetry_equiv_pos_as_xyz
  1  'x, y, z'
loop_
 _atom_site_type_symbol
 _atom_site_label
 _atom_site_symmetry_multiplicity
 _atom_site_fract_x
 _atom_site_fract_y
 _atom_site_fract_z
 _atom_site_occupancy
  Li  Li0  1  0.29907000  0.25656000  0.03347000  1.0
  Li  Li1  1  0.31491000  0.75871000  0.03904000  1.0
  Li  Li2  1  0.45349000  0.25000000  0.92439000  1.0
  Li  Li3  1  0.45349000  0.75000000  0.92439000  1.0
  V  V4  1  0.60890000  0.01201000  0.06298000  1.0
  V  V5  1  0.61322000  0.49698000  0.05880000  1.0
  V  V6  1  0.80233000  0.00000000  0.97480000  1.0
  V  V7  1  0.80233000  0.50000000  0.97480000  1.0
  Ge  Ge8  1  0.09451000  0.01852000  0.07500000  1.0
  Ge  Ge9  1  0.09722000  0.50738000  0.07420000  1.0
  Ge  Ge10  1  0.30233000  0.00000000  0.97480000  1.0
  Ge  Ge11  1  0.30233000  0.50000000  0.97480000  1.0
  Pd  Pd12  1  0.81401000  0.25504000  0.04439000  1.0
  Pd  Pd13  1  0.82355000  0.75041000  0.04221000  1.0
  Pd  Pd14  1  0.95349000  0.25000000  0.92439000  1.0
  Pd  Pd15  1  0.95349000  0.75000000  0.92439000  1.0
  C  C16  1  0.63142000  0.84000000  0.11639000  1.0
  O  O17  1  0.61981000  0.78441000  0.16121000  1.0
