# generated using pymatgen
data_Pd3Pb
_symmetry_space_group_name_H-M   Pmm2
_cell_length_a   4.16097500
_cell_length_b   5.88450000
_cell_length_c   24.41340000
_cell_angle_alpha   90.00000000
_cell_angle_beta   90.00000000
_cell_angle_gamma   90.00000000
_symmetry_Int_Tables_number   25
_chemical_formula_structural   Pd3Pb
_chemical_formula_sum   'Pd6 Pb2'
_cell_volume   597.76838270
_cell_formula_units_Z   2
loop_
 _symmetry_equiv_pos_site_id
 _symmetry_equiv_pos_as_xyz
  1  'x, y, z'
  2  '-x, -y, z'
  3  '-x, y, z'
  4  'x, -y, z'
loop_
 _atom_site_type_symbol
 _atom_site_label
 _atom_site_symmetry_multiplicity
 _atom_site_fract_x
 _atom_site_fract_y
 _atom_site_fract_z
 _atom_site_occupancy
  Pd  Pd0  2  0.50000000  0.24511000  0.03039000  1.0
  Pd  Pd1  2  0.50000000  0.25000000  0.90961000  1.0
  Pd  Pd2  1  0.00000000  0.00000000  0.96987000  1.0
  Pd  Pd3  1  0.00000000  0.50000000  0.08484000  1.0
  Pb  Pb4  1  0.00000000  0.00000000  0.09030000  1.0
  Pb  Pb5  1  0.00000000  0.50000000  0.96987000  1.0
