# generated using pymatgen
data_Li8Mg8Al8Pt8CO
_symmetry_space_group_name_H-M   Pm
_cell_length_a   6.24880000
_cell_length_b   8.83714000
_cell_length_c   26.62790000
_cell_angle_alpha   90.00000000
_cell_angle_beta   90.00000000
_cell_angle_gamma   90.00000000
_symmetry_Int_Tables_number   6
_chemical_formula_structural   Li8Mg8Al8Pt8CO
_chemical_formula_sum   'Li8 Mg8 Al8 Pt8 C1 O1'
_cell_volume   1470.43312391
_cell_formula_units_Z   1
loop_
 _symmetry_equiv_pos_site_id
 _symmetry_equiv_pos_as_xyz
  1  'x, y, z'
  2  'x, -y, z'
loop_
 _atom_site_type_symbol
 _atom_site_label
 _atom_site_symmetry_multiplicity
 _atom_site_fract_x
 _atom_site_fract_y
 _atom_site_fract_z
 _atom_site_occupancy
  Li  Li0  2  0.25000000  0.25000000  0.95852000  1.0
  Li  Li1  2  0.27458000  0.25074000  0.13199000  1.0
  Li  Li2  1  0.75000000  0.00000000  0.87555000  1.0
  Li  Li3  1  0.75000000  0.50000000  0.87555000  1.0
  Li  Li4  1  0.75444000  0.50000000  0.04000000  1.0
  Li  Li5  1  0.75946000  0.00000000  0.03917000  1.0
  Mg  Mg6  2  0.49112000  0.24964000  0.03903000  1.0
  Mg  Mg7  2  0.50000000  0.25000000  0.87555000  1.0
  Mg  Mg8  1  0.00000000  0.00000000  0.95852000  1.0
  Mg  Mg9  1  0.00000000  0.50000000  0.95852000  1.0
  Mg  Mg10  1  0.98399000  0.00000000  0.12910000  1.0
  Mg  Mg11  1  0.98686000  0.50000000  0.13000000  1.0
  Al  Al12  2  0.00000000  0.25000000  0.87555000  1.0
  Al  Al13  2  0.00245000  0.25011000  0.04387000  1.0
  Al  Al14  1  0.50000000  0.00000000  0.95852000  1.0
  Al  Al15  1  0.50000000  0.50000000  0.95852000  1.0
  Al  Al16  1  0.51907000  0.50000000  0.12170000  1.0
  Al  Al17  1  0.52277000  0.00000000  0.12010000  1.0
  Pt  Pt18  2  0.73445000  0.25182000  0.11735000  1.0
  Pt  Pt19  2  0.75000000  0.25000000  0.95852000  1.0
  Pt  Pt20  1  0.24229000  0.00000000  0.04445000  1.0
  Pt  Pt21  1  0.24343000  0.50000000  0.04224000  1.0
  Pt  Pt22  1  0.25000000  0.00000000  0.87555000  1.0
  Pt  Pt23  1  0.25000000  0.50000000  0.87555000  1.0
  C  C24  1  0.02425000  0.00000000  0.21308000  1.0
  O  O25  1  0.01981000  0.00000000  0.25605000  1.0
