# generated using pymatgen
data_Sc16Zn16CO
_symmetry_space_group_name_H-M   'P 1'
_cell_length_a   9.48244000
_cell_length_b   6.70510000
_cell_length_c   27.11180000
_cell_angle_alpha   90.00000000
_cell_angle_beta   90.00000000
_cell_angle_gamma   90.00000000
_symmetry_Int_Tables_number   1
_chemical_formula_structural   Sc16Zn16CO
_chemical_formula_sum   'Sc16 Zn16 C1 O1'
_cell_volume   1723.78745119
_cell_formula_units_Z   1
loop_
 _symmetry_equiv_pos_site_id
 _symmetry_equiv_pos_as_xyz
  1  'x, y, z'
loop_
 _atom_site_type_symbol
 _atom_site_label
 _atom_site_symmetry_multiplicity
 _atom_site_fract_x
 _atom_site_fract_y
 _atom_site_fract_z
 _atom_site_occupancy
  Sc  Sc0  1  0.00000000  0.00000000  0.13116000  1.0
  Sc  Sc1  1  0.25000000  0.00000000  0.04372000  1.0
  Sc  Sc2  1  0.00000000  0.00068000  0.95668000  1.0
  Sc  Sc3  1  0.25157000  0.99926000  0.86881000  1.0
  Sc  Sc4  1  0.50000000  1.00000000  0.13116000  1.0
  Sc  Sc5  1  0.75000000  0.00000000  0.04372000  1.0
  Sc  Sc6  1  0.50000000  0.99982000  0.95741000  1.0
  Sc  Sc7  1  0.74843000  0.99926000  0.86881000  1.0
  Sc  Sc8  1  0.00000000  0.50000000  0.13116000  1.0
  Sc  Sc9  1  0.25000000  0.50000000  0.04372000  1.0
  Sc  Sc10  1  0.00000000  0.49941000  0.95681000  1.0
  Sc  Sc11  1  0.25151000  0.50069000  0.86869000  1.0
  Sc  Sc12  1  0.50000000  0.50000000  0.13116000  1.0
  Sc  Sc13  1  0.75000000  0.50000000  0.04372000  1.0
  Sc  Sc14  1  0.50000000  0.50020000  0.95744000  1.0
  Sc  Sc15  1  0.74849000  0.50069000  0.86869000  1.0
  Zn  Zn16  1  0.25000000  0.25000000  0.13116000  1.0
  Zn  Zn17  1  0.00000000  0.25000000  0.04372000  1.0
  Zn  Zn18  1  0.25501000  0.25025000  0.95762000  1.0
  Zn  Zn19  1  0.00000000  0.25052000  0.87161000  1.0
  Zn  Zn20  1  0.75000000  0.25000000  0.13116000  1.0
  Zn  Zn21  1  0.50000000  0.25000000  0.04372000  1.0
  Zn  Zn22  1  0.74499000  0.25025000  0.95762000  1.0
  Zn  Zn23  1  0.50000000  0.25030000  0.86993000  1.0
  Zn  Zn24  1  0.25000000  0.75000000  0.13116000  1.0
  Zn  Zn25  1  0.00000000  0.75000000  0.04372000  1.0
  Zn  Zn26  1  0.24912000  0.74972000  0.95616000  1.0
  Zn  Zn27  1  0.00000000  0.74951000  0.87024000  1.0
  Zn  Zn28  1  0.75000000  0.75000000  0.13116000  1.0
  Zn  Zn29  1  0.50000000  0.75000000  0.04372000  1.0
  Zn  Zn30  1  0.75088000  0.74972000  0.95616000  1.0
  Zn  Zn31  1  0.50000000  0.74960000  0.87066000  1.0
  C  C32  1  0.00000000  0.25206000  0.79912000  1.0
  O  O33  1  0.00000000  0.25158000  0.75609000  1.0
