# generated using pymatgen
data_Mg4In4Cu4Pd4C
_symmetry_space_group_name_H-M   'P 1'
_cell_length_a   6.45956000
_cell_length_b   6.45956000
_cell_length_c   24.84470000
_cell_angle_alpha   90.00000000
_cell_angle_beta   90.00000000
_cell_angle_gamma   90.00000000
_symmetry_Int_Tables_number   1
_chemical_formula_structural   Mg4In4Cu4Pd4C
_chemical_formula_sum   'Mg4 In4 Cu4 Pd4 C1'
_cell_volume   1036.66785018
_cell_formula_units_Z   1
loop_
 _symmetry_equiv_pos_site_id
 _symmetry_equiv_pos_as_xyz
  1  'x, y, z'
loop_
 _atom_site_type_symbol
 _atom_site_label
 _atom_site_symmetry_multiplicity
 _atom_site_fract_x
 _atom_site_fract_y
 _atom_site_fract_z
 _atom_site_occupancy
  Mg  Mg0  1  0.50000000  0.50000000  0.03250000  1
  Mg  Mg1  1  0.00000000  0.50000000  0.90250000  1
  Mg  Mg2  1  0.50000000  1.00000000  0.90250000  1
  Mg  Mg3  1  0.00000000  0.00000000  0.03250000  1
  In  In4  1  0.50000000  1.00000000  0.03250000  1
  In  In5  1  0.00000000  0.00000000  0.90250000  1
  In  In6  1  0.50000000  0.50000000  0.90250000  1
  In  In7  1  0.00000000  0.50000000  0.03250000  1
  Cu  Cu8  1  0.75000000  0.25000000  0.09750000  1
  Cu  Cu9  1  0.25000000  0.25000000  0.96750000  1
  Cu  Cu10  1  0.75000000  0.75000000  0.96750000  1
  Cu  Cu11  1  0.25000000  0.75000000  0.09750000  1
  Pd  Pd12  1  0.25000000  0.25000000  0.09750000  1
  Pd  Pd13  1  0.75000000  0.25000000  0.96750000  1
  Pd  Pd14  1  0.25000000  0.75000000  0.96750000  1
  Pd  Pd15  1  0.75000000  0.75000000  0.09750000  1
  C  C16  1  0.50000000  0.50000000  0.12970000  1
