# generated using pymatgen
data_Be16Co16CO
_symmetry_space_group_name_H-M   'P 1'
_cell_length_a   5.19112000
_cell_length_b   7.34136000
_cell_length_c   25.50600000
_cell_angle_alpha   90.00000000
_cell_angle_beta   90.00000000
_cell_angle_gamma   90.00000000
_symmetry_Int_Tables_number   1
_chemical_formula_structural   Be16Co16CO
_chemical_formula_sum   'Be16 Co16 C1 O1'
_cell_volume   972.03061773
_cell_formula_units_Z   1
loop_
 _symmetry_equiv_pos_site_id
 _symmetry_equiv_pos_as_xyz
  1  'x, y, z'
loop_
 _atom_site_type_symbol
 _atom_site_label
 _atom_site_symmetry_multiplicity
 _atom_site_fract_x
 _atom_site_fract_y
 _atom_site_fract_z
 _atom_site_occupancy
  Be  Be0  1  0.75000000  0.00000000  0.89206000  1.0
  Be  Be1  1  0.75000000  0.24999000  0.96402000  1.0
  Be  Be2  1  0.74695000  0.50000000  0.03322000  1.0
  Be  Be3  1  0.75784000  0.24562000  0.10783000  1.0
  Be  Be4  1  0.75000000  0.50000000  0.89206000  1.0
  Be  Be5  1  0.75000000  0.75001000  0.96402000  1.0
  Be  Be6  1  0.75967000  0.00000000  0.03549000  1.0
  Be  Be7  1  0.75784000  0.75438000  0.10783000  1.0
  Be  Be8  1  0.25000000  0.00000000  0.89206000  1.0
  Be  Be9  1  0.25000000  0.24999000  0.96402000  1.0
  Be  Be10  1  0.25305000  0.50000000  0.03322000  1.0
  Be  Be11  1  0.24216000  0.24562000  0.10783000  1.0
  Be  Be12  1  0.25000000  0.50000000  0.89206000  1.0
  Be  Be13  1  0.25000000  0.75001000  0.96402000  1.0
  Be  Be14  1  0.24033000  0.00000000  0.03549000  1.0
  Be  Be15  1  0.24216000  0.75438000  0.10783000  1.0
  Co  Co16  1  0.00000000  0.24999000  0.89206000  1.0
  Co  Co17  1  0.00000000  0.00000000  0.96402000  1.0
  Co  Co18  1  0.00000000  0.25243000  0.03642000  1.0
  Co  Co19  1  0.00000000  0.00000000  0.11190000  1.0
  Co  Co20  1  0.00000000  0.75001000  0.89206000  1.0
  Co  Co21  1  0.00000000  0.50000000  0.96402000  1.0
  Co  Co22  1  0.00000000  0.74757000  0.03642000  1.0
  Co  Co23  1  0.00000000  0.50000000  0.10495000  1.0
  Co  Co24  1  0.50000000  0.24999000  0.89206000  1.0
  Co  Co25  1  0.50000000  0.00000000  0.96402000  1.0
  Co  Co26  1  0.50000000  0.24759000  0.03783000  1.0
  Co  Co27  1  0.50000000  0.00000000  0.10566000  1.0
  Co  Co28  1  0.50000000  0.75001000  0.89206000  1.0
  Co  Co29  1  0.50000000  0.50000000  0.96402000  1.0
  Co  Co30  1  0.50000000  0.75241000  0.03783000  1.0
  Co  Co31  1  0.50000000  0.50000000  0.10569000  1.0
  C  C32  1  0.00000000  0.00000000  0.18010000  1.0
  O  O33  1  0.00000000  0.00000000  0.22560000  1.0
