# generated using pymatgen
data_Li4V4Ge4Pd4C
_symmetry_space_group_name_H-M   Pm
_cell_length_a   5.17268000
_cell_length_b   9.40562000
_cell_length_c   23.56350000
_cell_angle_alpha   90.00000000
_cell_angle_beta   90.00000000
_cell_angle_gamma   90.00000000
_symmetry_Int_Tables_number   6
_chemical_formula_structural   Li4V4Ge4Pd4C
_chemical_formula_sum   'Li4 V4 Ge4 Pd4 C1'
_cell_volume   1146.41758651
_cell_formula_units_Z   1
loop_
 _symmetry_equiv_pos_site_id
 _symmetry_equiv_pos_as_xyz
  1  'x, y, z'
  2  'x, -y, z'
loop_
 _atom_site_type_symbol
 _atom_site_label
 _atom_site_symmetry_multiplicity
 _atom_site_fract_x
 _atom_site_fract_y
 _atom_site_fract_z
 _atom_site_occupancy
  Li  Li0  2  0.15116000  0.25000000  0.97480000  1.0
  Li  Li1  2  0.47947000  0.22426000  0.08904000  1.0
  V  V2  1  0.50000000  0.00000000  0.92439000  1.0
  V  V3  1  0.50000000  0.50000000  0.92439000  1.0
  V  V4  1  0.69239000  0.50000000  0.00992000  1.0
  V  V5  1  0.72525000  0.00000000  0.02612000  1.0
  Ge  Ge6  1  0.00000000  0.00000000  0.92439000  1.0
  Ge  Ge7  1  0.00000000  0.50000000  0.92439000  1.0
  Ge  Ge8  1  0.20683000  0.50000000  0.02990000  1.0
  Ge  Ge9  1  0.21505000  0.00000000  0.03501000  1.0
  Pd  Pd10  2  0.65116000  0.25000000  0.97480000  1.0
  Pd  Pd11  2  0.97170000  0.27478000  0.06923000  1.0
  C  C12  1  0.51569000  0.00000000  0.08609000  1.0
