# generated using pymatgen
data_Li8Cu8Sn8Ge8C
_symmetry_space_group_name_H-M   'P 1'
_cell_length_a   9.29718000
_cell_length_b   6.57410000
_cell_length_c   26.97290000
_cell_angle_alpha   90.00000000
_cell_angle_beta   90.00000000
_cell_angle_gamma   90.00000000
_symmetry_Int_Tables_number   1
_chemical_formula_structural   Li8Cu8Sn8Ge8C
_chemical_formula_sum   'Li8 Cu8 Sn8 Ge8 C1'
_cell_volume   1648.59959001
_cell_formula_units_Z   1
loop_
 _symmetry_equiv_pos_site_id
 _symmetry_equiv_pos_as_xyz
  1  'x, y, z'
loop_
 _atom_site_type_symbol
 _atom_site_label
 _atom_site_symmetry_multiplicity
 _atom_site_fract_x
 _atom_site_fract_y
 _atom_site_fract_z
 _atom_site_occupancy
  Li  Li0  1  0.00000000  1.00000000  0.04309000  1.0
  Li  Li1  1  0.50000000  1.00000000  0.04309000  1.0
  Li  Li2  1  0.25000000  0.50000000  0.12926000  1.0
  Li  Li3  1  0.75000000  0.50000000  0.12926000  1.0
  Li  Li4  1  0.50000000  0.09301000  0.86338000  1.0
  Li  Li5  1  0.00000000  0.94573000  0.83584000  1.0
  Li  Li6  1  0.75955000  0.49272000  0.95280000  1.0
  Li  Li7  1  0.24045000  0.49272000  0.95280000  1.0
  Cu  Cu8  1  0.75000000  0.00000000  0.12926000  1.0
  Cu  Cu9  1  0.25000000  0.00000000  0.12926000  1.0
  Cu  Cu10  1  0.50000000  0.50000000  0.04309000  1.0
  Cu  Cu11  1  0.00000000  0.50000000  0.04309000  1.0
  Cu  Cu12  1  0.25879000  0.99936000  0.95376000  1.0
  Cu  Cu13  1  0.74121000  0.99936000  0.95376000  1.0
  Cu  Cu14  1  0.00000000  0.54947000  0.87386000  1.0
  Cu  Cu15  1  0.50000000  0.52942000  0.88728000  1.0
  Sn  Sn16  1  0.75000000  0.75000000  0.04309000  1.0
  Sn  Sn17  1  0.25000000  0.75000000  0.04309000  1.0
  Sn  Sn18  1  0.00000000  0.25000000  0.12926000  1.0
  Sn  Sn19  1  0.50000000  0.25000000  0.12926000  1.0
  Sn  Sn20  1  0.26673000  0.75721000  0.86549000  1.0
  Sn  Sn21  1  0.73327000  0.75721000  0.86549000  1.0
  Sn  Sn22  1  0.50000000  0.25826000  0.95970000  1.0
  Sn  Sn23  1  0.00000000  0.21473000  0.94199000  1.0
  Ge  Ge24  1  0.75000000  0.25000000  0.04309000  1.0
  Ge  Ge25  1  0.25000000  0.25000000  0.04309000  1.0
  Ge  Ge26  1  0.00000000  0.75000000  0.12926000  1.0
  Ge  Ge27  1  0.50000000  0.75000000  0.12926000  1.0
  Ge  Ge28  1  0.20929000  0.24803000  0.85548000  1.0
  Ge  Ge29  1  0.79071000  0.24803000  0.85548000  1.0
  Ge  Ge30  1  0.50000000  0.79232000  0.95296000  1.0
  Ge  Ge31  1  0.00000000  0.76215000  0.95078000  1.0
  C  C32  1  0.00000000  0.25673000  0.85013000  1.0
