# generated using pymatgen
data_Li8Cu8Sn8Ge8C
_symmetry_space_group_name_H-M   Pm
_cell_length_a   6.57410000
_cell_length_b   9.29718000
_cell_length_c   26.97290000
_cell_angle_alpha   90.00000000
_cell_angle_beta   90.00000000
_cell_angle_gamma   90.00000000
_symmetry_Int_Tables_number   6
_chemical_formula_structural   Li8Cu8Sn8Ge8C
_chemical_formula_sum   'Li8 Cu8 Sn8 Ge8 C1'
_cell_volume   1648.59959001
_cell_formula_units_Z   1
loop_
 _symmetry_equiv_pos_site_id
 _symmetry_equiv_pos_as_xyz
  1  'x, y, z'
  2  'x, -y, z'
loop_
 _atom_site_type_symbol
 _atom_site_label
 _atom_site_symmetry_multiplicity
 _atom_site_fract_x
 _atom_site_fract_y
 _atom_site_fract_z
 _atom_site_occupancy
  Li  Li0  2  0.49272000  0.24045000  0.04720000  1.0
  Li  Li1  2  0.50000000  0.25000000  0.87074000  1.0
  Li  Li2  1  -0.00000000  0.50000000  0.95691000  1.0
  Li  Li3  1  -0.00000000  0.00000000  0.95691000  1.0
  Li  Li4  1  0.09301000  0.50000000  0.13662000  1.0
  Li  Li5  1  0.94573000  0.00000000  0.16416000  1.0
  Cu  Cu6  2  0.00000000  0.25000000  0.87074000  1.0
  Cu  Cu7  2  0.99936000  0.25879000  0.04624000  1.0
  Cu  Cu8  1  0.50000000  0.00000000  0.95691000  1.0
  Cu  Cu9  1  0.50000000  0.50000000  0.95691000  1.0
  Cu  Cu10  1  0.52942000  0.50000000  0.11272000  1.0
  Cu  Cu11  1  0.54947000  0.00000000  0.12614000  1.0
  Sn  Sn12  2  0.75000000  0.25000000  0.95691000  1.0
  Sn  Sn13  2  0.75721000  0.26673000  0.13451000  1.0
  Sn  Sn14  1  0.21473000  0.00000000  0.05801000  1.0
  Sn  Sn15  1  0.25000000  0.00000000  0.87074000  1.0
  Sn  Sn16  1  0.25000000  0.50000000  0.87074000  1.0
  Sn  Sn17  1  0.25826000  0.50000000  0.04030000  1.0
  Ge  Ge18  2  0.24803000  0.20929000  0.14452000  1.0
  Ge  Ge19  2  0.25000000  0.25000000  0.95691000  1.0
  Ge  Ge20  1  0.75000000  0.00000000  0.87074000  1.0
  Ge  Ge21  1  0.75000000  0.50000000  0.87074000  1.0
  Ge  Ge22  1  0.76215000  0.00000000  0.04922000  1.0
  Ge  Ge23  1  0.79232000  0.50000000  0.04704000  1.0
  C  C24  1  0.25673000  0.00000000  0.14987000  1.0
