# generated using pymatgen
data_Li8In8Cu8Sn8CO
_symmetry_space_group_name_H-M   'P 1'
_cell_length_a   9.53092000
_cell_length_b   6.73938000
_cell_length_c   27.14820000
_cell_angle_alpha   90.00000000
_cell_angle_beta   90.00000000
_cell_angle_gamma   90.00000000
_symmetry_Int_Tables_number   1
_chemical_formula_structural   Li8In8Cu8Sn8CO
_chemical_formula_sum   'Li8 In8 Cu8 Sn8 C1 O1'
_cell_volume   1743.79652926
_cell_formula_units_Z   1
loop_
 _symmetry_equiv_pos_site_id
 _symmetry_equiv_pos_as_xyz
  1  'x, y, z'
loop_
 _atom_site_type_symbol
 _atom_site_label
 _atom_site_symmetry_multiplicity
 _atom_site_fract_x
 _atom_site_fract_y
 _atom_site_fract_z
 _atom_site_occupancy
  Li  Li0  1  0.25000000  0.00000000  0.04388000  1.0
  Li  Li1  1  0.75000000  0.00000000  0.04388000  1.0
  Li  Li2  1  0.50000000  0.50000000  0.13165000  1.0
  Li  Li3  1  0.00000000  0.50000000  0.13165000  1.0
  Li  Li4  1  0.75009000  0.96804000  0.85534000  1.0
  Li  Li5  1  0.24991000  0.96804000  0.85534000  1.0
  Li  Li6  1  0.00000000  0.49830000  0.95436000  1.0
  Li  Li7  1  0.50000000  0.48728000  0.95355000  1.0
  In  In8  1  0.00000000  0.25000000  0.04388000  1.0
  In  In9  1  0.50000000  0.25000000  0.04388000  1.0
  In  In10  1  0.25000000  0.75000000  0.13165000  1.0
  In  In11  1  0.75000000  0.75000000  0.13165000  1.0
  In  In12  1  0.50000000  0.25283000  0.85493000  1.0
  In  In13  1  0.00000000  0.24904000  0.85715000  1.0
  In  In14  1  0.74921000  0.75727000  0.95626000  1.0
  In  In15  1  0.25079000  0.75727000  0.95626000  1.0
  Cu  Cu16  1  0.00000000  0.00000000  0.13165000  1.0
  Cu  Cu17  1  0.50000000  0.00000000  0.13165000  1.0
  Cu  Cu18  1  0.75000000  0.50000000  0.04388000  1.0
  Cu  Cu19  1  0.25000000  0.50000000  0.04388000  1.0
  Cu  Cu20  1  0.50000000  0.99959000  0.95393000  1.0
  Cu  Cu21  1  0.00000000  0.99791000  0.95680000  1.0
  Cu  Cu22  1  0.24960000  0.51274000  0.87685000  1.0
  Cu  Cu23  1  0.75040000  0.51274000  0.87685000  1.0
  Sn  Sn24  1  0.00000000  0.75000000  0.04388000  1.0
  Sn  Sn25  1  0.50000000  0.75000000  0.04388000  1.0
  Sn  Sn26  1  0.25000000  0.25000000  0.13165000  1.0
  Sn  Sn27  1  0.75000000  0.25000000  0.13165000  1.0
  Sn  Sn28  1  0.50000000  0.72386000  0.86201000  1.0
  Sn  Sn29  1  0.00000000  0.72135000  0.86069000  1.0
  Sn  Sn30  1  0.75013000  0.23211000  0.94995000  1.0
  Sn  Sn31  1  0.24987000  0.23211000  0.94995000  1.0
  C  C32  1  0.00000000  0.31912000  0.71842000  1.0
  O  O33  1  0.00000000  0.21140000  0.68626000  1.0
