# generated using pymatgen
data_Sc8Al8Pd16CO
_symmetry_space_group_name_H-M   'P 1'
_cell_length_a   9.07185000
_cell_length_b   6.41477000
_cell_length_c   26.80390000
_cell_angle_alpha   90.00000000
_cell_angle_beta   90.00000000
_cell_angle_gamma   90.00000000
_symmetry_Int_Tables_number   1
_chemical_formula_structural   Sc8Al8Pd16CO
_chemical_formula_sum   'Sc8 Al8 Pd16 C1 O1'
_cell_volume   1559.82163276
_cell_formula_units_Z   1
loop_
 _symmetry_equiv_pos_site_id
 _symmetry_equiv_pos_as_xyz
  1  'x, y, z'
loop_
 _atom_site_type_symbol
 _atom_site_label
 _atom_site_symmetry_multiplicity
 _atom_site_fract_x
 _atom_site_fract_y
 _atom_site_fract_z
 _atom_site_occupancy
  Sc  Sc0  1  0.50000000  0.00000000  0.12692000  1.0
  Sc  Sc1  1  0.75001000  0.50000000  0.04231000  1.0
  Sc  Sc2  1  0.24999000  0.50000000  0.04231000  1.0
  Sc  Sc3  1  0.00000000  1.00000000  0.12692000  1.0
  Sc  Sc4  1  0.00000000  0.00266000  0.95870000  1.0
  Sc  Sc5  1  0.24925000  0.50369000  0.86997000  1.0
  Sc  Sc6  1  0.75075000  0.50369000  0.86997000  1.0
  Sc  Sc7  1  0.50000000  0.00373000  0.95797000  1.0
  Al  Al8  1  0.25001000  1.00000000  0.04231000  1.0
  Al  Al9  1  0.50000000  0.50000000  0.12692000  1.0
  Al  Al10  1  0.74999000  1.00000000  0.04231000  1.0
  Al  Al11  1  0.00000000  0.50000000  0.12692000  1.0
  Al  Al12  1  0.75081000  0.99725000  0.87711000  1.0
  Al  Al13  1  0.00000000  0.50056000  0.95373000  1.0
  Al  Al14  1  0.24919000  0.99725000  0.87711000  1.0
  Al  Al15  1  0.50000000  0.50033000  0.95466000  1.0
  Pd  Pd16  1  0.50000000  0.25000000  0.04231000  1.0
  Pd  Pd17  1  0.00000000  0.75000000  0.04231000  1.0
  Pd  Pd18  1  0.50000000  0.75000000  0.04231000  1.0
  Pd  Pd19  1  0.00000000  0.25000000  0.04231000  1.0
  Pd  Pd20  1  0.25001000  0.75000000  0.12692000  1.0
  Pd  Pd21  1  0.75001000  0.25000000  0.12692000  1.0
  Pd  Pd22  1  0.24999000  0.25000000  0.12692000  1.0
  Pd  Pd23  1  0.74999000  0.75000000  0.12692000  1.0
  Pd  Pd24  1  0.00000000  0.23636000  0.87686000  1.0
  Pd  Pd25  1  0.50000000  0.76582000  0.87881000  1.0
  Pd  Pd26  1  0.00000000  0.76619000  0.87700000  1.0
  Pd  Pd27  1  0.50000000  0.23665000  0.86711000  1.0
  Pd  Pd28  1  0.75138000  0.74238000  0.95762000  1.0
  Pd  Pd29  1  0.25461000  0.26183000  0.95509000  1.0
  Pd  Pd30  1  0.74539000  0.26183000  0.95509000  1.0
  Pd  Pd31  1  0.24862000  0.74238000  0.95762000  1.0
  C  C32  1  0.50000000  0.31835000  0.79628000  1.0
  O  O33  1  0.50000000  0.32292000  0.75307000  1.0
