# generated using pymatgen
data_ScGa3
_symmetry_space_group_name_H-M   Pmm2
_cell_length_a   4.15741500
_cell_length_b   5.87947000
_cell_length_c   24.40960000
_cell_angle_alpha   90.00000000
_cell_angle_beta   90.00000000
_cell_angle_gamma   90.00000000
_symmetry_Int_Tables_number   25
_chemical_formula_structural   ScGa3
_chemical_formula_sum   'Sc2 Ga6'
_cell_volume   596.65353780
_cell_formula_units_Z   2
loop_
 _symmetry_equiv_pos_site_id
 _symmetry_equiv_pos_as_xyz
  1  'x, y, z'
  2  '-x, -y, z'
  3  '-x, y, z'
  4  'x, -y, z'
loop_
 _atom_site_type_symbol
 _atom_site_label
 _atom_site_symmetry_multiplicity
 _atom_site_fract_x
 _atom_site_fract_y
 _atom_site_fract_z
 _atom_site_occupancy
  Sc  Sc0  1  0.00000000  0.00000000  0.90967000  1.0
  Sc  Sc1  1  0.00000000  0.50000000  0.03143000  1.0
  Ga  Ga2  2  0.50000000  0.24184500  0.08725500  1.0
  Ga  Ga3  2  0.50000000  0.25000000  0.96989000  1.0
  Ga  Ga4  1  0.00000000  0.00000000  0.04052500  1.0
  Ga  Ga5  1  0.00000000  0.50000000  0.90967000  1.0
