# generated using pymatgen
data_Y4Sc4In4Pd4CO
_symmetry_space_group_name_H-M   'P 1'
_cell_length_a   7.36232000
_cell_length_b   6.98742000
_cell_length_c   25.23460000
_cell_angle_alpha   90.00000000
_cell_angle_beta   90.00000000
_cell_angle_gamma   90.00000000
_symmetry_Int_Tables_number   1
_chemical_formula_structural   Y4Sc4In4Pd4CO
_chemical_formula_sum   'Y4 Sc4 In4 Pd4 C1 O1'
_cell_volume   1298.15922408
_cell_formula_units_Z   1
loop_
 _symmetry_equiv_pos_site_id
 _symmetry_equiv_pos_as_xyz
  1  'x, y, z'
loop_
 _atom_site_type_symbol
 _atom_site_label
 _atom_site_symmetry_multiplicity
 _atom_site_fract_x
 _atom_site_fract_y
 _atom_site_fract_z
 _atom_site_occupancy
  Y  Y0  1  0.75001000  0.27119000  0.04227000  1.0
  Y  Y1  1  0.74998000  0.78588000  0.89628000  1.0
  Y  Y2  1  0.24999000  0.27119000  0.04227000  1.0
  Y  Y3  1  0.25002000  0.78588000  0.89628000  1.0
  Sc  Sc4  1  0.75034000  0.78850000  0.03042000  1.0
  Sc  Sc5  1  0.74998000  0.28588000  0.89628000  1.0
  Sc  Sc6  1  0.24966000  0.78850000  0.03042000  1.0
  Sc  Sc7  1  0.25002000  0.28588000  0.89628000  1.0
  In  In8  1  0.00000000  0.98063000  0.11428000  1.0
  In  In9  1  0.00000000  0.52392000  0.96543000  1.0
  In  In10  1  0.50000000  0.97508000  0.11616000  1.0
  In  In11  1  0.50000000  0.52392000  0.96543000  1.0
  Pd  Pd12  1  0.00000000  0.57141000  0.08305000  1.0
  Pd  Pd13  1  0.00000000  0.02392000  0.96543000  1.0
  Pd  Pd14  1  0.50000000  0.56949000  0.08273000  1.0
  Pd  Pd15  1  0.50000000  0.02392000  0.96543000  1.0
  C  C16  1  0.00000000  0.98020000  0.21278000  1.0
  O  O17  1  0.00000000  0.01522000  0.25699000  1.0
