# generated using pymatgen
data_Y4Sc4In4Pd4CO
_symmetry_space_group_name_H-M   Pm
_cell_length_a   6.98742000
_cell_length_b   7.36232000
_cell_length_c   25.23460000
_cell_angle_alpha   90.00000000
_cell_angle_beta   90.00000000
_cell_angle_gamma   90.00000000
_symmetry_Int_Tables_number   6
_chemical_formula_structural   Y4Sc4In4Pd4CO
_chemical_formula_sum   'Y4 Sc4 In4 Pd4 C1 O1'
_cell_volume   1298.15922408
_cell_formula_units_Z   1
loop_
 _symmetry_equiv_pos_site_id
 _symmetry_equiv_pos_as_xyz
  1  'x, y, z'
  2  'x, -y, z'
loop_
 _atom_site_type_symbol
 _atom_site_label
 _atom_site_symmetry_multiplicity
 _atom_site_fract_x
 _atom_site_fract_y
 _atom_site_fract_z
 _atom_site_occupancy
  Y  Y0  2  0.27119000  0.24999000  0.95773000  1.0
  Y  Y1  2  0.78588000  0.25002000  0.10372000  1.0
  Sc  Sc2  2  0.28588000  0.25002000  0.10372000  1.0
  Sc  Sc3  2  0.78850000  0.24966000  0.96958000  1.0
  In  In4  1  0.52392000  0.00000000  0.03457000  1.0
  In  In5  1  0.52392000  0.50000000  0.03457000  1.0
  In  In6  1  0.97508000  0.50000000  0.88384000  1.0
  In  In7  1  0.98063000  0.00000000  0.88572000  1.0
  Pd  Pd8  1  0.02392000  0.00000000  0.03457000  1.0
  Pd  Pd9  1  0.02392000  0.50000000  0.03457000  1.0
  Pd  Pd10  1  0.56949000  0.50000000  0.91727000  1.0
  Pd  Pd11  1  0.57141000  0.00000000  0.91695000  1.0
  C  C12  1  0.98020000  0.00000000  0.78722000  1.0
  O  O13  1  0.01522000  0.00000000  0.74301000  1.0
