# generated using pymatgen
data_Li4Hf4Sn4Pd4C
_symmetry_space_group_name_H-M   'P 1'
_cell_length_a   6.67688000
_cell_length_b   6.67688000
_cell_length_c   25.00770000
_cell_angle_alpha   90.00000000
_cell_angle_beta   90.00000000
_cell_angle_gamma   90.00000000
_symmetry_Int_Tables_number   1
_chemical_formula_structural   Li4Hf4Sn4Pd4C
_chemical_formula_sum   'Li4 Hf4 Sn4 Pd4 C1'
_cell_volume   1114.86143495
_cell_formula_units_Z   1
loop_
 _symmetry_equiv_pos_site_id
 _symmetry_equiv_pos_as_xyz
  1  'x, y, z'
loop_
 _atom_site_type_symbol
 _atom_site_label
 _atom_site_symmetry_multiplicity
 _atom_site_fract_x
 _atom_site_fract_y
 _atom_site_fract_z
 _atom_site_occupancy
  Li  Li0  1  0.48692000  0.98701000  0.89654000  1
  Li  Li1  1  0.00000000  0.00000000  0.03337000  1
  Li  Li2  1  0.50000000  0.50000000  0.03337000  1
  Li  Li3  1  0.01299000  0.51308000  0.89654000  1
  Hf  Hf4  1  0.03187000  0.96813000  0.89891000  1
  Hf  Hf5  1  0.50000000  0.00000000  0.03337000  1
  Hf  Hf6  1  0.00000000  0.50000000  0.03337000  1
  Hf  Hf7  1  0.46854000  0.53146000  0.89915000  1
  Sn  Sn8  1  0.24974000  0.75026000  0.97550000  1
  Sn  Sn9  1  0.75000000  0.75000000  0.10012000  1
  Sn  Sn10  1  0.25000000  0.25000000  0.10012000  1
  Sn  Sn11  1  0.75041000  0.24959000  0.95479000  1
  Pd  Pd12  1  0.24986000  0.24981000  0.96259000  1
  Pd  Pd13  1  0.75000000  0.25000000  0.10012000  1
  Pd  Pd14  1  0.25000000  0.75000000  0.10012000  1
  Pd  Pd15  1  0.75019000  0.75014000  0.96259000  1
  C  C16  1  0.25033000  0.74967000  0.88064000  1
