# generated using pymatgen
data_Cu4Au12C
_symmetry_space_group_name_H-M   'P 1'
_cell_length_a   8.19423000
_cell_length_b   5.79419000
_cell_length_c   24.34560000
_cell_angle_alpha   90.00000000
_cell_angle_beta   90.00000000
_cell_angle_gamma   90.00000000
_symmetry_Int_Tables_number   1
_chemical_formula_structural   Cu4Au12C
_chemical_formula_sum   'Cu4 Au12 C1'
_cell_volume   1155.90292923
_cell_formula_units_Z   1
loop_
 _symmetry_equiv_pos_site_id
 _symmetry_equiv_pos_as_xyz
  1  'x, y, z'
loop_
 _atom_site_type_symbol
 _atom_site_label
 _atom_site_symmetry_multiplicity
 _atom_site_fract_x
 _atom_site_fract_y
 _atom_site_fract_z
 _atom_site_occupancy
  Cu  Cu0  1  0.69347000  0.96113000  0.09252000  1.0
  Cu  Cu1  1  0.75000000  0.50000000  0.97025000  1.0
  Cu  Cu2  1  0.30653000  0.96113000  0.09252000  1.0
  Cu  Cu3  1  0.25000000  0.50000000  0.97025000  1.0
  Au  Au4  1  0.72421000  0.49712000  0.09590000  1.0
  Au  Au5  1  0.50000000  0.23136000  0.03241000  1.0
  Au  Au6  1  0.50000000  0.72138000  0.01907000  1.0
  Au  Au7  1  0.75000000  0.00000000  0.97025000  1.0
  Au  Au8  1  0.50000000  0.75000000  0.91075000  1.0
  Au  Au9  1  0.50000000  0.25000000  0.91075000  1.0
  Au  Au10  1  0.27579000  0.49712000  0.09590000  1.0
  Au  Au11  1  0.00000000  0.23257000  0.06005000  1.0
  Au  Au12  1  0.00000000  0.74336000  0.04415000  1.0
  Au  Au13  1  0.25000000  0.00000000  0.97025000  1.0
  Au  Au14  1  0.00000000  0.75000000  0.91075000  1.0
  Au  Au15  1  0.00000000  0.25000000  0.91075000  1.0
  C  C16  1  0.50000000  0.74403000  0.10562000  1.0
