# generated using pymatgen
data_Li4Cu4Sb4Pd4C
_symmetry_space_group_name_H-M   'P 1'
_cell_length_a   6.37250000
_cell_length_b   6.37250000
_cell_length_c   24.77940000
_cell_angle_alpha   90.00000000
_cell_angle_beta   90.00000000
_cell_angle_gamma   90.00000000
_symmetry_Int_Tables_number   1
_chemical_formula_structural   Li4Cu4Sb4Pd4C
_chemical_formula_sum   'Li4 Cu4 Sb4 Pd4 C1'
_cell_volume   1006.26061462
_cell_formula_units_Z   1
loop_
 _symmetry_equiv_pos_site_id
 _symmetry_equiv_pos_as_xyz
  1  'x, y, z'
loop_
 _atom_site_type_symbol
 _atom_site_label
 _atom_site_symmetry_multiplicity
 _atom_site_fract_x
 _atom_site_fract_y
 _atom_site_fract_z
 _atom_site_occupancy
  Li  Li0  1  0.50000000  0.50000000  0.02387000  1
  Li  Li1  1  1.00000000  0.50000000  0.90356000  1
  Li  Li2  1  0.50000000  1.00000000  0.90356000  1
  Li  Li3  1  0.00000000  0.00000000  0.03519000  1
  Cu  Cu4  1  0.71178000  0.28822000  0.09862000  1
  Cu  Cu5  1  0.25000000  0.25000000  0.96785000  1
  Cu  Cu6  1  0.75000000  0.75000000  0.96785000  1
  Cu  Cu7  1  0.28822000  0.71178000  0.09862000  1
  Sb  Sb8  1  0.50000000  1.00000000  0.03876000  1
  Sb  Sb9  1  0.00000000  0.00000000  0.90356000  1
  Sb  Sb10  1  0.50000000  0.50000000  0.90356000  1
  Sb  Sb11  1  1.00000000  0.50000000  0.03876000  1
  Pd  Pd12  1  0.28664500  0.28664500  0.09917000  1
  Pd  Pd13  1  0.75000000  0.25000000  0.96785000  1
  Pd  Pd14  1  0.25000000  0.75000000  0.96785000  1
  Pd  Pd15  1  0.71335500  0.71335500  0.09917000  1
  C  C16  1  0.50000000  0.50000000  0.12118000  1
