data_image0
_chemical_formula_structural       Li16In8Pd8C
_chemical_formula_sum              "Li16 In8 Pd8 C1"
_cell_length_a       6.46446
_cell_length_b       9.14213
_cell_length_c       26.8566
_cell_angle_alpha    90
_cell_angle_beta     90
_cell_angle_gamma    90

_space_group_name_H-M_alt    "P 1"
_space_group_IT_number       1

loop_
  _space_group_symop_operation_xyz
  'x, y, z'

loop_
  _atom_site_type_symbol
  _atom_site_label
  _atom_site_symmetry_multiplicity
  _atom_site_fract_x
  _atom_site_fract_y
  _atom_site_fract_z
  _atom_site_occupancy
  Li  Li1       1.0  0.00000  0.75000  0.95745  1.0000
  Li  Li2       1.0  0.50000  0.00000  0.87235  1.0000
  Li  Li3       1.0  0.00000  0.25000  0.95745  1.0000
  Li  Li4       1.0  0.50000  0.50000  0.87235  1.0000
  Li  Li5       1.0  0.25000  0.25000  0.87235  1.0000
  Li  Li6       1.0  0.25000  0.75000  0.87235  1.0000
  Li  Li7       1.0  0.75000  0.50000  0.95745  1.0000
  Li  Li8       1.0  0.75000  0.00000  0.95745  1.0000
  Li  Li9       1.0  0.01027  0.22619  0.12907  1.0000
  Li  Li10      1.0  0.50165  0.50000  0.04176  1.0000
  Li  Li11      1.0  0.01029  0.77381  0.12907  1.0000
  Li  Li12      1.0  0.46284  1.00000  0.05131  1.0000
  Li  Li13      1.0  0.24089  0.74883  0.04120  1.0000
  Li  Li14      1.0  0.24089  0.25116  0.04120  1.0000
  Li  Li15      1.0  0.72284  1.00000  0.13751  1.0000
  Li  Li16      1.0  0.72926  0.50000  0.12648  1.0000
  In  In1       1.0  0.25000  0.00000  0.95745  1.0000
  In  In2       1.0  0.25000  0.50000  0.95745  1.0000
  In  In3       1.0  0.75000  0.75000  0.87235  1.0000
  In  In4       1.0  0.75000  0.25000  0.87235  1.0000
  In  In5       1.0  0.23939  0.50000  0.12762  1.0000
  In  In6       1.0  0.31684  1.00000  0.15791  1.0000
  In  In7       1.0  0.75150  0.24754  0.04128  1.0000
  In  In8       1.0  0.75150  0.75247  0.04128  1.0000
  Pd  Pd1       1.0  0.00000  0.00000  0.87235  1.0000
  Pd  Pd2       1.0  0.50000  0.25000  0.95745  1.0000
  Pd  Pd3       1.0  0.50000  0.75000  0.95745  1.0000
  Pd  Pd4       1.0  0.00000  0.50000  0.87235  1.0000
  Pd  Pd5       1.0  0.99312  0.50000  0.04286  1.0000
  Pd  Pd6       1.0  0.48466  0.74350  0.11950  1.0000
  Pd  Pd7       1.0  0.48466  0.25649  0.11950  1.0000
  Pd  Pd8       1.0  0.01734  1.00000  0.04640  1.0000
  C   C1        1.0  0.01884  0.00000  0.12062  1.0000
