# generated using pymatgen
data_Li16In8Pd8C
_symmetry_space_group_name_H-M   Pm
_cell_length_a   6.46446000
_cell_length_b   9.14213000
_cell_length_c   26.85660000
_cell_angle_alpha   90.00000000
_cell_angle_beta   90.00000000
_cell_angle_gamma   90.00000000
_symmetry_Int_Tables_number   6
_chemical_formula_structural   Li16In8Pd8C
_chemical_formula_sum   'Li16 In8 Pd8 C1'
_cell_volume   1587.19642280
_cell_formula_units_Z   1
loop_
 _symmetry_equiv_pos_site_id
 _symmetry_equiv_pos_as_xyz
  1  'x, y, z'
  2  'x, -y, z'
loop_
 _atom_site_type_symbol
 _atom_site_label
 _atom_site_symmetry_multiplicity
 _atom_site_fract_x
 _atom_site_fract_y
 _atom_site_fract_z
 _atom_site_occupancy
  Li  Li0  2  0.00000000  0.25000000  0.95745000  1.0
  Li  Li1  2  0.01027000  0.22619000  0.12907000  1.0
  Li  Li2  2  0.24089000  0.25117000  0.04120000  1.0
  Li  Li3  2  0.25000000  0.25000000  0.87235000  1.0
  Li  Li4  1  0.46284000  0.00000000  0.05131000  1.0
  Li  Li5  1  0.50000000  0.00000000  0.87235000  1.0
  Li  Li6  1  0.50000000  0.50000000  0.87235000  1.0
  Li  Li7  1  0.50165000  0.50000000  0.04176000  1.0
  Li  Li8  1  0.72284000  0.00000000  0.13751000  1.0
  Li  Li9  1  0.72926000  0.50000000  0.12648000  1.0
  Li  Li10  1  0.75000000  0.00000000  0.95745000  1.0
  Li  Li11  1  0.75000000  0.50000000  0.95745000  1.0
  In  In12  2  0.75000000  0.25000000  0.87235000  1.0
  In  In13  2  0.75150000  0.24754000  0.04128000  1.0
  In  In14  1  0.23939000  0.50000000  0.12762000  1.0
  In  In15  1  0.25000000  0.00000000  0.95745000  1.0
  In  In16  1  0.25000000  0.50000000  0.95745000  1.0
  In  In17  1  0.31684000  0.00000000  0.15791000  1.0
  Pd  Pd18  2  0.48466000  0.25650000  0.11950000  1.0
  Pd  Pd19  2  0.50000000  0.25000000  0.95745000  1.0
  Pd  Pd20  1  0.00000000  0.00000000  0.87235000  1.0
  Pd  Pd21  1  0.00000000  0.50000000  0.87235000  1.0
  Pd  Pd22  1  0.01734000  0.00000000  0.04640000  1.0
  Pd  Pd23  1  0.99312000  0.50000000  0.04286000  1.0
  C  C24  1  0.01884000  0.00000000  0.12062000  1.0
