# generated using pymatgen
data_Mn16V8Ga8C
_symmetry_space_group_name_H-M   'P 1'
_cell_length_a   5.83886000
_cell_length_b   8.25739000
_cell_length_c   26.19300000
_cell_angle_alpha   90.00000000
_cell_angle_beta   90.00000000
_cell_angle_gamma   90.00000000
_symmetry_Int_Tables_number   1
_chemical_formula_structural   Mn16V8Ga8C
_chemical_formula_sum   'Mn16 V8 Ga8 C1'
_cell_volume   1262.86260119
_cell_formula_units_Z   1
loop_
 _symmetry_equiv_pos_site_id
 _symmetry_equiv_pos_as_xyz
  1  'x, y, z'
loop_
 _atom_site_type_symbol
 _atom_site_label
 _atom_site_symmetry_multiplicity
 _atom_site_fract_x
 _atom_site_fract_y
 _atom_site_fract_z
 _atom_site_occupancy
  Mn  Mn0  1  0.25000000  0.00000000  0.96059000  1.0
  Mn  Mn1  1  0.75000000  0.50000000  0.96059000  1.0
  Mn  Mn2  1  0.75000000  0.00000000  0.96059000  1.0
  Mn  Mn3  1  0.25000000  0.50000000  0.96059000  1.0
  Mn  Mn4  1  0.75000000  0.75000000  0.88178000  1.0
  Mn  Mn5  1  0.25000000  0.25000000  0.88178000  1.0
  Mn  Mn6  1  0.25000000  0.75000000  0.88178000  1.0
  Mn  Mn7  1  0.75000000  0.25000000  0.88178000  1.0
  Mn  Mn8  1  0.24921000  0.50000000  0.12048000  1.0
  Mn  Mn9  1  0.74768000  0.00000000  0.11859000  1.0
  Mn  Mn10  1  0.75079000  0.50000000  0.12048000  1.0
  Mn  Mn11  1  0.25232000  0.00000000  0.11859000  1.0
  Mn  Mn12  1  0.75391000  0.24816000  0.04209000  1.0
  Mn  Mn13  1  0.24609000  0.75184000  0.04209000  1.0
  Mn  Mn14  1  0.24609000  0.24816000  0.04209000  1.0
  Mn  Mn15  1  0.75391000  0.75184000  0.04209000  1.0
  V  V16  1  0.00000000  0.00000000  0.88178000  1.0
  V  V17  1  0.50000000  0.25000000  0.96059000  1.0
  V  V18  1  0.50000000  0.75000000  0.96059000  1.0
  V  V19  1  0.00000000  0.50000000  0.88178000  1.0
  V  V20  1  0.00000000  0.50000000  0.03952000  1.0
  V  V21  1  0.50000000  0.75500000  0.11621000  1.0
  V  V22  1  0.50000000  0.24500000  0.11621000  1.0
  V  V23  1  0.00000000  0.00000000  0.03840000  1.0
  Ga  Ga24  1  0.00000000  0.75000000  0.96059000  1.0
  Ga  Ga25  1  0.50000000  0.00000000  0.88178000  1.0
  Ga  Ga26  1  0.00000000  0.25000000  0.96059000  1.0
  Ga  Ga27  1  0.50000000  0.50000000  0.88178000  1.0
  Ga  Ga28  1  0.00000000  0.25420000  0.13144000  1.0
  Ga  Ga29  1  0.50000000  0.50000000  0.04034000  1.0
  Ga  Ga30  1  0.00000000  0.74580000  0.13144000  1.0
  Ga  Ga31  1  0.50000000  0.00000000  0.03853000  1.0
  C  C32  1  0.00000000  0.00000000  0.15830000  1.0
