# generated using pymatgen
data_Li8Ga4Pt4C
_symmetry_space_group_name_H-M   P2
_cell_length_a   6.10853000
_cell_length_b   24.58140000
_cell_length_c   6.10853000
_cell_angle_alpha   90.00000000
_cell_angle_beta   90.00000000
_cell_angle_gamma   90.00000000
_symmetry_Int_Tables_number   3
_chemical_formula_structural   Li8Ga4Pt4C
_chemical_formula_sum   'Li8 Ga4 Pt4 C1'
_cell_volume   917.23377054
_cell_formula_units_Z   1
loop_
 _symmetry_equiv_pos_site_id
 _symmetry_equiv_pos_as_xyz
  1  'x, y, z'
  2  '-x, y, -z'
loop_
 _atom_site_type_symbol
 _atom_site_label
 _atom_site_symmetry_multiplicity
 _atom_site_fract_x
 _atom_site_fract_y
 _atom_site_fract_z
 _atom_site_occupancy
  Li  Li0  2  0.24779000  0.11098000  0.25190000  1.0
  Li  Li1  2  0.25000000  0.96894000  0.75000000  1.0
  Li  Li2  1  0.00000000  0.03168000  0.00000000  1.0
  Li  Li3  1  0.00000000  0.90681000  0.50000000  1.0
  Li  Li4  1  0.50000000  0.03232000  0.50000000  1.0
  Li  Li5  1  0.50000000  0.90681000  0.00000000  1.0
  Ga  Ga6  2  0.25000000  0.96894000  0.25000000  1.0
  Ga  Ga7  2  0.26616000  0.10304000  0.76540000  1.0
  Pt  Pt8  1  0.00000000  0.03974000  0.50000000  1.0
  Pt  Pt9  1  0.00000000  0.90681000  0.00000000  1.0
  Pt  Pt10  1  0.50000000  0.02464000  0.00000000  1.0
  Pt  Pt11  1  0.50000000  0.90681000  0.50000000  1.0
  C  C12  1  0.50000000  0.11152000  0.00000000  1.0
