# generated using pymatgen
data_Li8Al16Rh8CO
_symmetry_space_group_name_H-M   'P 1'
_cell_length_a   6.03986000
_cell_length_b   8.54165000
_cell_length_c   26.40620000
_cell_angle_alpha   90.00000000
_cell_angle_beta   90.00000000
_cell_angle_gamma   90.00000000
_symmetry_Int_Tables_number   1
_chemical_formula_structural   Li8Al16Rh8CO
_chemical_formula_sum   'Li8 Al16 Rh8 C1 O1'
_cell_volume   1362.30563276
_cell_formula_units_Z   1
loop_
 _symmetry_equiv_pos_site_id
 _symmetry_equiv_pos_as_xyz
  1  'x, y, z'
loop_
 _atom_site_type_symbol
 _atom_site_label
 _atom_site_symmetry_multiplicity
 _atom_site_fract_x
 _atom_site_fract_y
 _atom_site_fract_z
 _atom_site_occupancy
  Li  Li0  1  0.00000000  0.75000000  0.87870000  1.0
  Li  Li1  1  0.50000000  0.00000000  0.95957000  1.0
  Li  Li2  1  0.50000000  0.50000000  0.95957000  1.0
  Li  Li3  1  0.00000000  0.25000000  0.87870000  1.0
  Li  Li4  1  0.00000000  0.25131000  0.03791000  1.0
  Li  Li5  1  0.50000000  0.50000000  0.14722000  1.0
  Li  Li6  1  0.50000000  0.00000000  0.14063000  1.0
  Li  Li7  1  0.00000000  0.74869000  0.03791000  1.0
  Al  Al8  1  0.25000000  0.75000000  0.95957000  1.0
  Al  Al9  1  0.75000000  0.25000000  0.95957000  1.0
  Al  Al10  1  0.75000000  0.75000000  0.95957000  1.0
  Al  Al11  1  0.25000000  0.25000000  0.95957000  1.0
  Al  Al12  1  0.75000000  0.50000000  0.87870000  1.0
  Al  Al13  1  0.25000000  0.00000000  0.87870000  1.0
  Al  Al14  1  0.25000000  0.50000000  0.87870000  1.0
  Al  Al15  1  0.75000000  0.00000000  0.87870000  1.0
  Al  Al16  1  0.23908000  0.25437000  0.11881000  1.0
  Al  Al17  1  0.76092000  0.74563000  0.11881000  1.0
  Al  Al18  1  0.76092000  0.25437000  0.11881000  1.0
  Al  Al19  1  0.23908000  0.74563000  0.11881000  1.0
  Al  Al20  1  0.74744000  0.00000000  0.04465000  1.0
  Al  Al21  1  0.25691000  0.50000000  0.04192000  1.0
  Al  Al22  1  0.25256000  0.00000000  0.04465000  1.0
  Al  Al23  1  0.74309000  0.50000000  0.04192000  1.0
  Rh  Rh24  1  0.00000000  0.50000000  0.95957000  1.0
  Rh  Rh25  1  0.50000000  0.75000000  0.87870000  1.0
  Rh  Rh26  1  0.00000000  0.00000000  0.95957000  1.0
  Rh  Rh27  1  0.50000000  0.25000000  0.87870000  1.0
  Rh  Rh28  1  0.00000000  0.00000000  0.12680000  1.0
  Rh  Rh29  1  0.50000000  0.24804000  0.03841000  1.0
  Rh  Rh30  1  0.00000000  0.50000000  0.11576000  1.0
  Rh  Rh31  1  0.50000000  0.75196000  0.03841000  1.0
  C  C32  1  0.00000000  0.00000000  0.19908000  1.0
  O  O33  1  0.00000000  0.00000000  0.24297000  1.0
