data_image0
_chemical_formula_structural       Li4Ga4Ge4Pd4C
_chemical_formula_sum              "Li4 Ga4 Ge4 Pd4 C1"
_cell_length_a       6.27488
_cell_length_b       6.27488
_cell_length_c       24.7062
_cell_angle_alpha    90
_cell_angle_beta     90
_cell_angle_gamma    90

_space_group_name_H-M_alt    "P 1"
_space_group_IT_number       1

loop_
  _space_group_symop_operation_xyz
  'x, y, z'

loop_
  _atom_site_type_symbol
  _atom_site_label
  _atom_site_symmetry_multiplicity
  _atom_site_fract_x
  _atom_site_fract_y
  _atom_site_fract_z
  _atom_site_occupancy
  Li  Li1       1.0  0.75083  0.25063  0.03767  1.0000
  Li  Li2       1.0  0.75000  0.75000  0.90476  1.0000
  Li  Li3       1.0  0.25000  0.25000  0.90476  1.0000
  Li  Li4       1.0  0.25063  0.75084  0.03767  1.0000
  Ga  Ga1       1.0  0.98920  0.98919  0.10941  1.0000
  Ga  Ga2       1.0  0.00000  0.50000  0.96825  1.0000
  Ga  Ga3       1.0  0.50000  0.00000  0.96825  1.0000
  Ga  Ga4       1.0  0.50894  0.50894  0.10956  1.0000
  Ge  Ge1       1.0  0.03171  0.46757  0.11816  1.0000
  Ge  Ge2       1.0  0.00000  0.00000  0.96825  1.0000
  Ge  Ge3       1.0  0.50000  0.50000  0.96825  1.0000
  Ge  Ge4       1.0  0.46758  0.03171  0.11816  1.0000
  Pd  Pd1       1.0  0.25014  0.25014  0.02862  1.0000
  Pd  Pd2       1.0  0.25000  0.75000  0.90476  1.0000
  Pd  Pd3       1.0  0.75000  0.25000  0.90476  1.0000
  Pd  Pd4       1.0  0.75046  0.75046  0.02402  1.0000
  C   C1        1.0  0.24623  0.24622  0.12000  1.0000
