# generated using pymatgen
data_Li4Ga4Ge4Pd4C
_symmetry_space_group_name_H-M   'P 1'
_cell_length_a   6.27488000
_cell_length_b   6.27488000
_cell_length_c   24.70620000
_cell_angle_alpha   90.00000000
_cell_angle_beta   90.00000000
_cell_angle_gamma   90.00000000
_symmetry_Int_Tables_number   1
_chemical_formula_structural   Li4Ga4Ge4Pd4C
_chemical_formula_sum   'Li4 Ga4 Ge4 Pd4 C1'
_cell_volume   972.78485919
_cell_formula_units_Z   1
loop_
 _symmetry_equiv_pos_site_id
 _symmetry_equiv_pos_as_xyz
  1  'x, y, z'
loop_
 _atom_site_type_symbol
 _atom_site_label
 _atom_site_symmetry_multiplicity
 _atom_site_fract_x
 _atom_site_fract_y
 _atom_site_fract_z
 _atom_site_occupancy
  Li  Li0  1  0.25063000  0.24918000  0.96233000  1
  Li  Li1  1  0.74999500  0.25000500  0.09524000  1
  Li  Li2  1  0.24999500  0.75000500  0.09524000  1
  Li  Li3  1  0.75082000  0.74937000  0.96233000  1
  Ga  Ga4  1  0.98919000  0.01081000  0.89059000  1
  Ga  Ga5  1  0.50000000  0.00001000  0.03175000  1
  Ga  Ga6  1  0.99999000  0.50000000  0.03175000  1
  Ga  Ga7  1  0.50893500  0.49106500  0.89044000  1
  Ge  Ge8  1  0.46757000  0.96830000  0.88184000  1
  Ge  Ge9  1  0.99999500  0.00000500  0.03175000  1
  Ge  Ge10  1  0.49999500  0.50000500  0.03175000  1
  Ge  Ge11  1  0.03170000  0.53243000  0.88184000  1
  Pd  Pd12  1  0.25013500  0.74986500  0.97138000  1
  Pd  Pd13  1  0.75000000  0.75001000  0.09524000  1
  Pd  Pd14  1  0.24999000  0.25000000  0.09524000  1
  Pd  Pd15  1  0.75045500  0.24954500  0.97598000  1
  C  C16  1  0.24622000  0.75378000  0.88000000  1
