# generated using pymatgen
data_Li8Y8Ga8Pd8CO
_symmetry_space_group_name_H-M   'P 1'
_cell_length_a   9.36046000
_cell_length_b   6.61884000
_cell_length_c   27.02030000
_cell_angle_alpha   90.00000000
_cell_angle_beta   90.00000000
_cell_angle_gamma   90.00000000
_symmetry_Int_Tables_number   1
_chemical_formula_structural   Li8Y8Ga8Pd8CO
_chemical_formula_sum   'Li8 Y8 Ga8 Pd8 C1 O1'
_cell_volume   1674.05314515
_cell_formula_units_Z   1
loop_
 _symmetry_equiv_pos_site_id
 _symmetry_equiv_pos_as_xyz
  1  'x, y, z'
loop_
 _atom_site_type_symbol
 _atom_site_label
 _atom_site_symmetry_multiplicity
 _atom_site_fract_x
 _atom_site_fract_y
 _atom_site_fract_z
 _atom_site_occupancy
  Li  Li0  1  0.00000000  0.75000000  0.04330000  1.0
  Li  Li1  1  0.50000000  0.75000000  0.04330000  1.0
  Li  Li2  1  0.25000000  0.25000000  0.12991000  1.0
  Li  Li3  1  0.75000000  0.25000000  0.12991000  1.0
  Li  Li4  1  0.50000000  0.51346000  0.81957000  1.0
  Li  Li5  1  0.00000000  0.51940000  0.81925000  1.0
  Li  Li6  1  0.75179000  0.21486000  0.95034000  1.0
  Li  Li7  1  0.24821000  0.21486000  0.95034000  1.0
  Y  Y8  1  0.25000000  0.00000000  0.04330000  1.0
  Y  Y9  1  0.75000000  0.00000000  0.04330000  1.0
  Y  Y10  1  0.50000000  0.50000000  0.12991000  1.0
  Y  Y11  1  0.00000000  0.50000000  0.12991000  1.0
  Y  Y12  1  0.74936000  0.91070000  0.86969000  1.0
  Y  Y13  1  0.25064000  0.91070000  0.86969000  1.0
  Y  Y14  1  0.00000000  0.49763000  0.94841000  1.0
  Y  Y15  1  0.50000000  0.50295000  0.94729000  1.0
  Ga  Ga16  1  0.00000000  0.00000000  0.12991000  1.0
  Ga  Ga17  1  0.50000000  0.00000000  0.12991000  1.0
  Ga  Ga18  1  0.75000000  0.50000000  0.04330000  1.0
  Ga  Ga19  1  0.25000000  0.50000000  0.04330000  1.0
  Ga  Ga20  1  0.50000000  0.98178000  0.95946000  1.0
  Ga  Ga21  1  0.00000000  0.98950000  0.95835000  1.0
  Ga  Ga22  1  0.24989000  0.43567000  0.86941000  1.0
  Ga  Ga23  1  0.75011000  0.43567000  0.86941000  1.0
  Pd  Pd24  1  0.00000000  0.25000000  0.04330000  1.0
  Pd  Pd25  1  0.50000000  0.25000000  0.04330000  1.0
  Pd  Pd26  1  0.25000000  0.75000000  0.12991000  1.0
  Pd  Pd27  1  0.75000000  0.75000000  0.12991000  1.0
  Pd  Pd28  1  0.50000000  0.19172000  0.87820000  1.0
  Pd  Pd29  1  0.00000000  0.18361000  0.86922000  1.0
  Pd  Pd30  1  0.75126000  0.73872000  0.96220000  1.0
  Pd  Pd31  1  0.24874000  0.73872000  0.96220000  1.0
  C  C32  1  0.00000000  0.10135000  0.79995000  1.0
  O  O33  1  0.00000000  0.10107000  0.75644000  1.0
