# generated using pymatgen
data_Ca16Ni16CO
_symmetry_space_group_name_H-M   'P 1'
_cell_length_a   6.93038000
_cell_length_b   9.80104000
_cell_length_c   27.35080000
_cell_angle_alpha   90.00000000
_cell_angle_beta   90.00000000
_cell_angle_gamma   90.00000000
_symmetry_Int_Tables_number   1
_chemical_formula_structural   Ca16Ni16CO
_chemical_formula_sum   'Ca16 Ni16 C1 O1'
_cell_volume   1857.80121907
_cell_formula_units_Z   1
loop_
 _symmetry_equiv_pos_site_id
 _symmetry_equiv_pos_as_xyz
  1  'x, y, z'
loop_
 _atom_site_type_symbol
 _atom_site_label
 _atom_site_symmetry_multiplicity
 _atom_site_fract_x
 _atom_site_fract_y
 _atom_site_fract_z
 _atom_site_occupancy
  Ca  Ca0  1  0.00000000  0.00000000  0.86562000  1.0
  Ca  Ca1  1  1.00000000  0.25000000  0.95521000  1.0
  Ca  Ca2  1  0.99851000  0.99998000  0.04167000  1.0
  Ca  Ca3  1  0.99918000  0.25259000  0.14140000  1.0
  Ca  Ca4  1  1.00000000  0.50000000  0.86562000  1.0
  Ca  Ca5  1  1.00000000  0.75000000  0.95521000  1.0
  Ca  Ca6  1  0.99775000  0.50003000  0.04359000  1.0
  Ca  Ca7  1  0.99921000  0.74740000  0.14138000  1.0
  Ca  Ca8  1  0.50000000  0.00000000  0.86562000  1.0
  Ca  Ca9  1  0.50000000  0.25000000  0.95521000  1.0
  Ca  Ca10  1  0.50147000  0.00003000  0.04165000  1.0
  Ca  Ca11  1  0.50080000  0.25259000  0.14139000  1.0
  Ca  Ca12  1  0.50000000  0.50000000  0.86562000  1.0
  Ca  Ca13  1  0.50000000  0.75000000  0.95521000  1.0
  Ca  Ca14  1  0.50223000  0.49999000  0.04358000  1.0
  Ca  Ca15  1  0.50079000  0.74739000  0.14140000  1.0
  Ni  Ni16  1  0.25000000  0.25000000  0.86562000  1.0
  Ni  Ni17  1  0.25000000  0.00000000  0.95521000  1.0
  Ni  Ni18  1  0.24991000  0.24121000  0.05843000  1.0
  Ni  Ni19  1  0.25015000  0.99998000  0.12773000  1.0
  Ni  Ni20  1  0.25000000  0.75000000  0.86562000  1.0
  Ni  Ni21  1  0.25000000  0.50000000  0.95521000  1.0
  Ni  Ni22  1  0.25019000  0.75882000  0.05841000  1.0
  Ni  Ni23  1  0.25008000  0.49996000  0.12271000  1.0
  Ni  Ni24  1  0.75000000  0.25000000  0.86562000  1.0
  Ni  Ni25  1  0.75000000  0.00000000  0.95521000  1.0
  Ni  Ni26  1  0.75007000  0.24619000  0.05741000  1.0
  Ni  Ni27  1  0.74987000  0.99998000  0.12012000  1.0
  Ni  Ni28  1  0.75000000  0.75000000  0.86562000  1.0
  Ni  Ni29  1  0.75000000  0.50000000  0.95521000  1.0
  Ni  Ni30  1  0.74987000  0.75384000  0.05743000  1.0
  Ni  Ni31  1  0.74992000  0.49996000  0.12412000  1.0
  C  C32  1  0.25003000  0.00000000  0.19120000  1.0
  O  O33  1  0.24999000  0.00000000  0.23444000  1.0
