# generated using pymatgen
data_Mn8V8CO
_symmetry_space_group_name_H-M   'P 1'
_cell_length_a   5.76229000
_cell_length_b   5.76229000
_cell_length_c   24.32170000
_cell_angle_alpha   90.00000000
_cell_angle_beta   90.00000000
_cell_angle_gamma   90.00000000
_symmetry_Int_Tables_number   1
_chemical_formula_structural   Mn8V8CO
_chemical_formula_sum   'Mn8 V8 C1 O1'
_cell_volume   807.57738737
_cell_formula_units_Z   1
loop_
 _symmetry_equiv_pos_site_id
 _symmetry_equiv_pos_as_xyz
  1  'x, y, z'
loop_
 _atom_site_type_symbol
 _atom_site_label
 _atom_site_symmetry_multiplicity
 _atom_site_fract_x
 _atom_site_fract_y
 _atom_site_fract_z
 _atom_site_occupancy
  Mn  Mn0  1  0.00000000  0.00000000  0.97150000  1.0
  Mn  Mn1  1  0.00000000  0.00000000  0.08996000  1.0
  Mn  Mn2  1  0.00000000  0.50000000  0.97150000  1.0
  Mn  Mn3  1  0.00000000  0.50000000  0.08996000  1.0
  Mn  Mn4  1  0.50000000  0.00000000  0.97150000  1.0
  Mn  Mn5  1  0.50000000  0.00000000  0.08996000  1.0
  Mn  Mn6  1  0.50000000  0.50000000  0.97150000  1.0
  Mn  Mn7  1  0.50000000  0.50000000  0.08996000  1.0
  V  V8  1  0.75000000  0.75000000  0.91227000  1.0
  V  V9  1  0.75000000  0.75000000  0.03073000  1.0
  V  V10  1  0.75000000  0.25000000  0.91227000  1.0
  V  V11  1  0.75000000  0.25000000  0.03073000  1.0
  V  V12  1  0.25000000  0.75000000  0.91227000  1.0
  V  V13  1  0.25000000  0.75000000  0.03073000  1.0
  V  V14  1  0.25000000  0.25000000  0.91227000  1.0
  V  V15  1  0.25000000  0.25000000  0.03073000  1.0
  C  C16  1  0.00000000  0.00000000  0.16808000  1.0
  O  O17  1  0.00000000  0.00000000  0.21537000  1.0
