# generated using pymatgen
data_Ga16Ni16C
_symmetry_space_group_name_H-M   'P 1'
_cell_length_a   5.82971000
_cell_length_b   8.24446000
_cell_length_c   26.18330000
_cell_angle_alpha   90.00000000
_cell_angle_beta   90.00000000
_cell_angle_gamma   90.00000000
_symmetry_Int_Tables_number   1
_chemical_formula_structural   Ga16Ni16C
_chemical_formula_sum   'Ga16 Ni16 C1'
_cell_volume   1258.44299681
_cell_formula_units_Z   1
loop_
 _symmetry_equiv_pos_site_id
 _symmetry_equiv_pos_as_xyz
  1  'x, y, z'
loop_
 _atom_site_type_symbol
 _atom_site_label
 _atom_site_symmetry_multiplicity
 _atom_site_fract_x
 _atom_site_fract_y
 _atom_site_fract_z
 _atom_site_occupancy
  Ga  Ga0  1  0.00000000  0.00000000  0.88192000  1.0
  Ga  Ga1  1  0.00000000  0.24998000  0.96064000  1.0
  Ga  Ga2  1  0.00000000  0.00000000  0.04378000  1.0
  Ga  Ga3  1  0.00000000  0.25360000  0.12999000  1.0
  Ga  Ga4  1  0.00000000  0.50000000  0.88192000  1.0
  Ga  Ga5  1  0.00000000  0.75002000  0.96064000  1.0
  Ga  Ga6  1  0.00000000  0.50000000  0.03876000  1.0
  Ga  Ga7  1  0.00000000  0.74640000  0.12999000  1.0
  Ga  Ga8  1  0.50000000  0.00000000  0.88192000  1.0
  Ga  Ga9  1  0.50000000  0.24998000  0.96064000  1.0
  Ga  Ga10  1  0.50000000  0.00000000  0.03764000  1.0
  Ga  Ga11  1  0.50000000  0.26208000  0.12716000  1.0
  Ga  Ga12  1  0.50000000  0.50000000  0.88192000  1.0
  Ga  Ga13  1  0.50000000  0.75002000  0.96064000  1.0
  Ga  Ga14  1  0.50000000  0.50000000  0.04030000  1.0
  Ga  Ga15  1  0.50000000  0.73792000  0.12716000  1.0
  Ni  Ni16  1  0.25000000  0.24998000  0.88192000  1.0
  Ni  Ni17  1  0.25000000  0.00000000  0.96064000  1.0
  Ni  Ni18  1  0.24702000  0.25135000  0.03977000  1.0
  Ni  Ni19  1  0.24190000  0.50000000  0.11552000  1.0
  Ni  Ni20  1  0.25000000  0.75002000  0.88192000  1.0
  Ni  Ni21  1  0.25000000  0.50000000  0.96064000  1.0
  Ni  Ni22  1  0.24702000  0.74865000  0.03977000  1.0
  Ni  Ni23  1  0.29393000  0.00000000  0.11810000  1.0
  Ni  Ni24  1  0.75000000  0.24998000  0.88192000  1.0
  Ni  Ni25  1  0.75000000  0.00000000  0.96064000  1.0
  Ni  Ni26  1  0.75298000  0.25135000  0.03977000  1.0
  Ni  Ni27  1  0.75810000  0.50000000  0.11552000  1.0
  Ni  Ni28  1  0.75000000  0.75002000  0.88192000  1.0
  Ni  Ni29  1  0.75000000  0.50000000  0.96064000  1.0
  Ni  Ni30  1  0.75298000  0.74865000  0.03977000  1.0
  Ni  Ni31  1  0.70607000  0.00000000  0.11810000  1.0
  C  C32  1  0.00000000  0.00000000  0.13851000  1.0
