# generated using pymatgen
data_Ga16Ni16C
_symmetry_space_group_name_H-M   Pmm2
_cell_length_a   5.82971000
_cell_length_b   8.24446000
_cell_length_c   26.18330000
_cell_angle_alpha   90.00000000
_cell_angle_beta   90.00000000
_cell_angle_gamma   90.00000000
_symmetry_Int_Tables_number   25
_chemical_formula_structural   Ga16Ni16C
_chemical_formula_sum   'Ga16 Ni16 C1'
_cell_volume   1258.44299681
_cell_formula_units_Z   1
loop_
 _symmetry_equiv_pos_site_id
 _symmetry_equiv_pos_as_xyz
  1  'x, y, z'
  2  '-x, -y, z'
  3  '-x, y, z'
  4  'x, -y, z'
loop_
 _atom_site_type_symbol
 _atom_site_label
 _atom_site_symmetry_multiplicity
 _atom_site_fract_x
 _atom_site_fract_y
 _atom_site_fract_z
 _atom_site_occupancy
  Ga  Ga0  2  0.00000000  0.24998000  0.96064000  1.0
  Ga  Ga1  2  0.00000000  0.25360000  0.12999000  1.0
  Ga  Ga2  2  0.50000000  0.24998000  0.96064000  1.0
  Ga  Ga3  2  0.50000000  0.26208000  0.12716000  1.0
  Ga  Ga4  1  0.00000000  0.00000000  0.04378000  1.0
  Ga  Ga5  1  0.00000000  0.00000000  0.88192000  1.0
  Ga  Ga6  1  0.00000000  0.50000000  0.03876000  1.0
  Ga  Ga7  1  0.00000000  0.50000000  0.88192000  1.0
  Ga  Ga8  1  0.50000000  0.00000000  0.03764000  1.0
  Ga  Ga9  1  0.50000000  0.00000000  0.88192000  1.0
  Ga  Ga10  1  0.50000000  0.50000000  0.04030000  1.0
  Ga  Ga11  1  0.50000000  0.50000000  0.88192000  1.0
  Ni  Ni12  4  0.24702000  0.25135000  0.03977000  1.0
  Ni  Ni13  4  0.25000000  0.24998000  0.88192000  1.0
  Ni  Ni14  2  0.24190000  0.50000000  0.11552000  1.0
  Ni  Ni15  2  0.25000000  0.00000000  0.96064000  1.0
  Ni  Ni16  2  0.25000000  0.50000000  0.96064000  1.0
  Ni  Ni17  2  0.29393000  0.00000000  0.11810000  1.0
  C  C18  1  0.00000000  0.00000000  0.13851000  1.0
