# generated using pymatgen
data_Mg8In8Ni16C
_symmetry_space_group_name_H-M   'P 1'
_cell_length_a   6.24448000
_cell_length_b   8.83103000
_cell_length_c   26.62330000
_cell_angle_alpha   90.00000000
_cell_angle_beta   90.00000000
_cell_angle_gamma   90.00000000
_symmetry_Int_Tables_number   1
_chemical_formula_structural   Mg8In8Ni16C
_chemical_formula_sum   'Mg8 In8 Ni16 C1'
_cell_volume   1468.14694264
_cell_formula_units_Z   1
loop_
 _symmetry_equiv_pos_site_id
 _symmetry_equiv_pos_as_xyz
  1  'x, y, z'
loop_
 _atom_site_type_symbol
 _atom_site_label
 _atom_site_symmetry_multiplicity
 _atom_site_fract_x
 _atom_site_fract_y
 _atom_site_fract_z
 _atom_site_occupancy
  Mg  Mg0  1  0.00000000  0.00000000  0.87561000  1.0
  Mg  Mg1  1  0.50000000  0.25000000  0.95854000  1.0
  Mg  Mg2  1  0.50000000  0.75000000  0.95854000  1.0
  Mg  Mg3  1  0.00000000  0.50000000  0.87561000  1.0
  Mg  Mg4  1  0.00000000  0.50000000  0.03806000  1.0
  Mg  Mg5  1  0.50000000  0.73843000  0.13007000  1.0
  Mg  Mg6  1  0.50000000  0.26157000  0.13007000  1.0
  Mg  Mg7  1  0.00000000  0.00000000  0.04431000  1.0
  In  In8  1  0.00000000  0.75000000  0.95854000  1.0
  In  In9  1  0.50000000  0.00000000  0.87561000  1.0
  In  In10  1  0.00000000  0.25000000  0.95854000  1.0
  In  In11  1  0.50000000  0.50000000  0.87561000  1.0
  In  In12  1  0.00000000  0.26186000  0.13327000  1.0
  In  In13  1  0.50000000  0.50000000  0.04007000  1.0
  In  In14  1  0.00000000  0.73814000  0.13327000  1.0
  In  In15  1  0.50000000  0.00000000  0.03941000  1.0
  Ni  Ni16  1  0.25000000  0.00000000  0.95854000  1.0
  Ni  Ni17  1  0.75000000  0.50000000  0.95854000  1.0
  Ni  Ni18  1  0.75000000  0.00000000  0.95854000  1.0
  Ni  Ni19  1  0.25000000  0.50000000  0.95854000  1.0
  Ni  Ni20  1  0.75000000  0.75000000  0.87561000  1.0
  Ni  Ni21  1  0.25000000  0.25000000  0.87561000  1.0
  Ni  Ni22  1  0.25000000  0.75000000  0.87561000  1.0
  Ni  Ni23  1  0.75000000  0.25000000  0.87561000  1.0
  Ni  Ni24  1  0.23769000  0.50000000  0.11631000  1.0
  Ni  Ni25  1  0.71935000  0.00000000  0.12250000  1.0
  Ni  Ni26  1  0.76231000  0.50000000  0.11631000  1.0
  Ni  Ni27  1  0.28065000  0.00000000  0.12250000  1.0
  Ni  Ni28  1  0.75183000  0.25144000  0.04301000  1.0
  Ni  Ni29  1  0.24817000  0.74856000  0.04301000  1.0
  Ni  Ni30  1  0.24817000  0.25144000  0.04301000  1.0
  Ni  Ni31  1  0.75183000  0.74856000  0.04301000  1.0
  C  C32  1  0.00000000  0.00000000  0.13578000  1.0
