# generated using pymatgen
data_Mn8Pt24CO
_symmetry_space_group_name_H-M   'P 1'
_cell_length_a   7.92107000
_cell_length_b   7.92107000
_cell_length_c   25.94080000
_cell_angle_alpha   90.00000000
_cell_angle_beta   90.00000000
_cell_angle_gamma   90.00000000
_symmetry_Int_Tables_number   1
_chemical_formula_structural   Mn8Pt24CO
_chemical_formula_sum   'Mn8 Pt24 C1 O1'
_cell_volume   1627.61269225
_cell_formula_units_Z   1
loop_
 _symmetry_equiv_pos_site_id
 _symmetry_equiv_pos_as_xyz
  1  'x, y, z'
loop_
 _atom_site_type_symbol
 _atom_site_label
 _atom_site_symmetry_multiplicity
 _atom_site_fract_x
 _atom_site_fract_y
 _atom_site_fract_z
 _atom_site_occupancy
  Mn  Mn0  1  0.00000000  0.00000000  0.11451000  1.0
  Mn  Mn1  1  0.00000000  0.00000000  0.96183000  1.0
  Mn  Mn2  1  0.00000000  0.50000000  0.11451000  1.0
  Mn  Mn3  1  0.00000000  0.50000000  0.96183000  1.0
  Mn  Mn4  1  0.50000000  0.00000000  0.11451000  1.0
  Mn  Mn5  1  0.50000000  0.00000000  0.96183000  1.0
  Mn  Mn6  1  0.50000000  0.50000000  0.11451000  1.0
  Mn  Mn7  1  0.50000000  0.50000000  0.96183000  1.0
  Pt  Pt8  1  0.00000000  0.25000000  0.03817000  1.0
  Pt  Pt9  1  0.25000000  0.00000000  0.03817000  1.0
  Pt  Pt10  1  0.25000000  0.25000000  0.11451000  1.0
  Pt  Pt11  1  0.00000000  0.25000000  0.88549000  1.0
  Pt  Pt12  1  0.25000000  0.00000000  0.88549000  1.0
  Pt  Pt13  1  0.25000000  0.25000000  0.96183000  1.0
  Pt  Pt14  1  0.00000000  0.75000000  0.03817000  1.0
  Pt  Pt15  1  0.25000000  0.50000000  0.03817000  1.0
  Pt  Pt16  1  0.25000000  0.75000000  0.11451000  1.0
  Pt  Pt17  1  0.00000000  0.75000000  0.88549000  1.0
  Pt  Pt18  1  0.25000000  0.50000000  0.88549000  1.0
  Pt  Pt19  1  0.25000000  0.75000000  0.96183000  1.0
  Pt  Pt20  1  0.50000000  0.25000000  0.03817000  1.0
  Pt  Pt21  1  0.75000000  0.00000000  0.03817000  1.0
  Pt  Pt22  1  0.75000000  0.25000000  0.11451000  1.0
  Pt  Pt23  1  0.50000000  0.25000000  0.88549000  1.0
  Pt  Pt24  1  0.75000000  0.00000000  0.88549000  1.0
  Pt  Pt25  1  0.75000000  0.25000000  0.96183000  1.0
  Pt  Pt26  1  0.50000000  0.75000000  0.03817000  1.0
  Pt  Pt27  1  0.75000000  0.50000000  0.03817000  1.0
  Pt  Pt28  1  0.75000000  0.75000000  0.11451000  1.0
  Pt  Pt29  1  0.50000000  0.75000000  0.88549000  1.0
  Pt  Pt30  1  0.75000000  0.50000000  0.88549000  1.0
  Pt  Pt31  1  0.75000000  0.75000000  0.96183000  1.0
  C  C32  1  0.00000000  0.00000000  0.18775000  1.0
  O  O33  1  0.00000000  0.00000000  0.23208000  1.0
