# generated using pymatgen
data_Ta8Al8Ni16CO
_symmetry_space_group_name_H-M   P1
_cell_length_a   5.99379000
_cell_length_b   8.47650000
_cell_length_c   26.35740000
_cell_angle_alpha   90.00000000
_cell_angle_beta   90.00000000
_cell_angle_gamma   90.00000000
_symmetry_Int_Tables_number   1
_chemical_formula_structural   Ta8Al8Ni16CO
_chemical_formula_sum   'Ta8 Al8 Ni16 C1 O1'
_cell_volume   1339.12357771
_cell_formula_units_Z   1
loop_
 _symmetry_equiv_pos_site_id
 _symmetry_equiv_pos_as_xyz
  1  'x, y, z'
loop_
 _atom_site_type_symbol
 _atom_site_label
 _atom_site_symmetry_multiplicity
 _atom_site_fract_x
 _atom_site_fract_y
 _atom_site_fract_z
 _atom_site_occupancy
  Ta  Ta0  1  0.00000000  0.00000000  0.87940000  1.0
  Ta  Ta1  1  0.00000000  0.50000000  0.87940000  1.0
  Ta  Ta2  1  0.00558000  0.99998000  0.04111000  1.0
  Ta  Ta3  1  0.49481000  0.24794000  0.12005000  1.0
  Ta  Ta4  1  0.49483000  0.75205000  0.12006000  1.0
  Ta  Ta5  1  0.50000000  0.25000000  0.95980000  1.0
  Ta  Ta6  1  0.50000000  0.75000000  0.95980000  1.0
  Ta  Ta7  1  0.99595000  0.50004000  0.03988000  1.0
  Al  Al8  1  0.00000000  0.25000000  0.95980000  1.0
  Al  Al9  1  0.00000000  0.75000000  0.95980000  1.0
  Al  Al10  1  0.49582000  0.00002000  0.04110000  1.0
  Al  Al11  1  0.49975000  0.49999000  0.03828000  1.0
  Al  Al12  1  0.50000000  0.00000000  0.87940000  1.0
  Al  Al13  1  0.50000000  0.50000000  0.87940000  1.0
  Al  Al14  1  0.99431000  0.74472000  0.12113000  1.0
  Al  Al15  1  0.99434000  0.25528000  0.12114000  1.0
  Ni  Ni16  1  0.23810000  0.99999000  0.12842000  1.0
  Ni  Ni17  1  0.25000000  0.00000000  0.95980000  1.0
  Ni  Ni18  1  0.25000000  0.25000000  0.87940000  1.0
  Ni  Ni19  1  0.25000000  0.50000000  0.95980000  1.0
  Ni  Ni20  1  0.25000000  0.75000000  0.87940000  1.0
  Ni  Ni21  1  0.25581000  0.25367000  0.04159000  1.0
  Ni  Ni22  1  0.25600000  0.74636000  0.04159000  1.0
  Ni  Ni23  1  0.26160000  0.50000000  0.11449000  1.0
  Ni  Ni24  1  0.72984000  0.50000000  0.11514000  1.0
  Ni  Ni25  1  0.74198000  0.75237000  0.04238000  1.0
  Ni  Ni26  1  0.74216000  0.24766000  0.04239000  1.0
  Ni  Ni27  1  0.75000000  0.00000000  0.95980000  1.0
  Ni  Ni28  1  0.75000000  0.25000000  0.87940000  1.0
  Ni  Ni29  1  0.75000000  0.50000000  0.95980000  1.0
  Ni  Ni30  1  0.75000000  0.75000000  0.87940000  1.0
  Ni  Ni31  1  0.75190000  0.00001000  0.11506000  1.0
  C  C32  1  0.32040000  0.99998000  0.19294000  1.0
  O  O33  1  0.35358000  0.99999000  0.23638000  1.0
