# generated using pymatgen
data_Li4Al4Cu4Pd4CO
_symmetry_space_group_name_H-M   'P 1'
_cell_length_a   6.00833000
_cell_length_b   6.00833000
_cell_length_c   24.50620000
_cell_angle_alpha   90.00000000
_cell_angle_beta   90.00000000
_cell_angle_gamma   90.00000000
_symmetry_Int_Tables_number   1
_chemical_formula_structural   Li4Al4Cu4Pd4CO
_chemical_formula_sum   'Li4 Al4 Cu4 Pd4 C1 O1'
_cell_volume   884.67454021
_cell_formula_units_Z   1
loop_
 _symmetry_equiv_pos_site_id
 _symmetry_equiv_pos_as_xyz
  1  'x, y, z'
loop_
 _atom_site_type_symbol
 _atom_site_label
 _atom_site_symmetry_multiplicity
 _atom_site_fract_x
 _atom_site_fract_y
 _atom_site_fract_z
 _atom_site_occupancy
  Li  Li0  1  0.00000000  0.50000000  0.89296000  1.0
  Li  Li1  1  0.00000000  0.00000000  0.03065000  1.0
  Li  Li2  1  0.50000000  0.50000000  0.03065000  1.0
  Li  Li3  1  0.50000000  0.00000000  0.89656000  1.0
  Al  Al4  1  0.00000000  0.00000000  0.91128000  1.0
  Al  Al5  1  0.00000000  0.50000000  0.03065000  1.0
  Al  Al6  1  0.50000000  0.00000000  0.03065000  1.0
  Al  Al7  1  0.50000000  0.50000000  0.91117000  1.0
  Cu  Cu8  1  0.24891000  0.25141000  0.96707000  1.0
  Cu  Cu9  1  0.25000000  0.75000000  0.09194000  1.0
  Cu  Cu10  1  0.75000000  0.25000000  0.09194000  1.0
  Cu  Cu11  1  0.75109000  0.74859000  0.96707000  1.0
  Pd  Pd12  1  0.75078000  0.25090000  0.96504000  1.0
  Pd  Pd13  1  0.75000000  0.75000000  0.09194000  1.0
  Pd  Pd14  1  0.25000000  0.25000000  0.09194000  1.0
  Pd  Pd15  1  0.24922000  0.74910000  0.96504000  1.0
  C  C16  1  0.00000000  0.50000000  0.80719000  1.0
  O  O17  1  0.00000000  0.50000000  0.76059000  1.0
