# generated using pymatgen
data_Y8Mg8In8Pd8C
_symmetry_space_group_name_H-M   'P 1'
_cell_length_a   9.89420000
_cell_length_b   6.99626000
_cell_length_c   27.42070000
_cell_angle_alpha   90.00000000
_cell_angle_beta   90.00000000
_cell_angle_gamma   90.00000000
_symmetry_Int_Tables_number   1
_chemical_formula_structural   Y8Mg8In8Pd8C
_chemical_formula_sum   'Y8 Mg8 In8 Pd8 C1'
_cell_volume   1898.12654555
_cell_formula_units_Z   1
loop_
 _symmetry_equiv_pos_site_id
 _symmetry_equiv_pos_as_xyz
  1  'x, y, z'
loop_
 _atom_site_type_symbol
 _atom_site_label
 _atom_site_symmetry_multiplicity
 _atom_site_fract_x
 _atom_site_fract_y
 _atom_site_fract_z
 _atom_site_occupancy
  Y  Y0  1  0.75000000  0.75000000  0.04510000  1.0
  Y  Y1  1  0.25000000  0.75000000  0.04510000  1.0
  Y  Y2  1  0.00000000  0.25000000  0.13531000  1.0
  Y  Y3  1  0.50000000  0.25000000  0.13531000  1.0
  Y  Y4  1  0.28979000  0.72380000  0.86117000  1.0
  Y  Y5  1  0.71021000  0.72380000  0.86117000  1.0
  Y  Y6  1  0.50000000  0.28030000  0.94658000  1.0
  Y  Y7  1  0.00000000  0.26051000  0.94780000  1.0
  Mg  Mg8  1  0.75000000  0.25000000  0.04510000  1.0
  Mg  Mg9  1  0.25000000  0.25000000  0.04510000  1.0
  Mg  Mg10  1  0.00000000  0.75000000  0.13531000  1.0
  Mg  Mg11  1  0.50000000  0.75000000  0.13531000  1.0
  Mg  Mg12  1  0.22855000  0.22821000  0.85941000  1.0
  Mg  Mg13  1  0.77145000  0.22821000  0.85941000  1.0
  Mg  Mg14  1  0.50000000  0.75348000  0.95575000  1.0
  Mg  Mg15  1  0.00000000  0.74522000  0.95188000  1.0
  In  In16  1  0.75000000  0.00000000  0.13531000  1.0
  In  In17  1  0.25000000  0.00000000  0.13531000  1.0
  In  In18  1  0.50000000  0.50000000  0.04510000  1.0
  In  In19  1  0.00000000  0.50000000  0.04510000  1.0
  In  In20  1  0.25545000  0.99463000  0.95270000  1.0
  In  In21  1  0.74455000  0.99463000  0.95270000  1.0
  In  In22  1  0.00000000  0.52829000  0.83983000  1.0
  In  In23  1  0.50000000  0.40007000  0.82827000  1.0
  Pd  Pd24  1  0.00000000  0.00000000  0.04510000  1.0
  Pd  Pd25  1  0.50000000  0.00000000  0.04510000  1.0
  Pd  Pd26  1  0.25000000  0.50000000  0.13531000  1.0
  Pd  Pd27  1  0.75000000  0.50000000  0.13531000  1.0
  Pd  Pd28  1  0.50000000  0.01764000  0.87056000  1.0
  Pd  Pd29  1  0.00000000  0.92695000  0.86231000  1.0
  Pd  Pd30  1  0.74843000  0.52336000  0.95482000  1.0
  Pd  Pd31  1  0.25157000  0.52336000  0.95482000  1.0
  C  C32  1  0.00000000  0.21995000  0.86350000  1.0
