# generated using pymatgen
data_Y8Mg8In8Pd8C
_symmetry_space_group_name_H-M   Pm
_cell_length_a   6.99626000
_cell_length_b   9.89420000
_cell_length_c   27.42070000
_cell_angle_alpha   90.00000000
_cell_angle_beta   90.00000000
_cell_angle_gamma   90.00000000
_symmetry_Int_Tables_number   6
_chemical_formula_structural   Y8Mg8In8Pd8C
_chemical_formula_sum   'Y8 Mg8 In8 Pd8 C1'
_cell_volume   1898.12654555
_cell_formula_units_Z   1
loop_
 _symmetry_equiv_pos_site_id
 _symmetry_equiv_pos_as_xyz
  1  'x, y, z'
  2  'x, -y, z'
loop_
 _atom_site_type_symbol
 _atom_site_label
 _atom_site_symmetry_multiplicity
 _atom_site_fract_x
 _atom_site_fract_y
 _atom_site_fract_z
 _atom_site_occupancy
  Y  Y0  2  0.72380000  0.28979000  0.13883000  1.0
  Y  Y1  2  0.75000000  0.25000000  0.95490000  1.0
  Y  Y2  1  0.25000000  0.00000000  0.86469000  1.0
  Y  Y3  1  0.25000000  0.50000000  0.86469000  1.0
  Y  Y4  1  0.26051000  0.00000000  0.05220000  1.0
  Y  Y5  1  0.28030000  0.50000000  0.05342000  1.0
  Mg  Mg6  2  0.22821000  0.22855000  0.14059000  1.0
  Mg  Mg7  2  0.25000000  0.25000000  0.95490000  1.0
  Mg  Mg8  1  0.74522000  0.00000000  0.04812000  1.0
  Mg  Mg9  1  0.75000000  0.00000000  0.86469000  1.0
  Mg  Mg10  1  0.75000000  0.50000000  0.86469000  1.0
  Mg  Mg11  1  0.75348000  0.50000000  0.04425000  1.0
  In  In12  2  0.00000000  0.25000000  0.86469000  1.0
  In  In13  2  0.99463000  0.25545000  0.04730000  1.0
  In  In14  1  0.40007000  0.50000000  0.17173000  1.0
  In  In15  1  0.50000000  0.00000000  0.95490000  1.0
  In  In16  1  0.50000000  0.50000000  0.95490000  1.0
  In  In17  1  0.52829000  0.00000000  0.16017000  1.0
  Pd  Pd18  2  0.50000000  0.25000000  0.86469000  1.0
  Pd  Pd19  2  0.52336000  0.25157000  0.04518000  1.0
  Pd  Pd20  1  0.00000000  0.00000000  0.95490000  1.0
  Pd  Pd21  1  0.00000000  0.50000000  0.95490000  1.0
  Pd  Pd22  1  0.01764000  0.50000000  0.12944000  1.0
  Pd  Pd23  1  0.92695000  0.00000000  0.13769000  1.0
  C  C24  1  0.21995000  0.00000000  0.13650000  1.0
