# generated using pymatgen
data_Ga16Ni16CO
_symmetry_space_group_name_H-M   Pmm2
_cell_length_a   5.87849000
_cell_length_b   8.31345000
_cell_length_c   26.23510000
_cell_angle_alpha   90.00000000
_cell_angle_beta   90.00000000
_cell_angle_gamma   90.00000000
_symmetry_Int_Tables_number   25
_chemical_formula_structural   Ga16Ni16CO
_chemical_formula_sum   'Ga16 Ni16 C1 O1'
_cell_volume   1282.12331219
_cell_formula_units_Z   1
loop_
 _symmetry_equiv_pos_site_id
 _symmetry_equiv_pos_as_xyz
  1  'x, y, z'
  2  '-x, -y, z'
  3  '-x, y, z'
  4  'x, -y, z'
loop_
 _atom_site_type_symbol
 _atom_site_label
 _atom_site_symmetry_multiplicity
 _atom_site_fract_x
 _atom_site_fract_y
 _atom_site_fract_z
 _atom_site_occupancy
  Ga  Ga0  4  0.25000000  0.25000000  0.96039000  1.0
  Ga  Ga1  4  0.25683000  0.25572000  0.12312000  1.0
  Ga  Ga2  2  0.24296000  0.00000000  0.04082000  1.0
  Ga  Ga3  2  0.25000000  0.00000000  0.88117000  1.0
  Ga  Ga4  2  0.25000000  0.50000000  0.88117000  1.0
  Ga  Ga5  2  0.25041000  0.50000000  0.03920000  1.0
  Ni  Ni6  2  0.00000000  0.24871000  0.04032000  1.0
  Ni  Ni7  2  0.00000000  0.25000000  0.88117000  1.0
  Ni  Ni8  2  0.50000000  0.24748000  0.03676000  1.0
  Ni  Ni9  2  0.50000000  0.25000000  0.88117000  1.0
  Ni  Ni10  1  0.00000000  0.00000000  0.12576000  1.0
  Ni  Ni11  1  0.00000000  0.00000000  0.96039000  1.0
  Ni  Ni12  1  0.00000000  0.50000000  0.11445000  1.0
  Ni  Ni13  1  0.00000000  0.50000000  0.96039000  1.0
  Ni  Ni14  1  0.50000000  0.00000000  0.11244000  1.0
  Ni  Ni15  1  0.50000000  0.00000000  0.96039000  1.0
  Ni  Ni16  1  0.50000000  0.50000000  0.11501000  1.0
  Ni  Ni17  1  0.50000000  0.50000000  0.96039000  1.0
  C  C18  1  0.00000000  0.00000000  0.19378000  1.0
  O  O19  1  0.00000000  0.00000000  0.23774000  1.0
