# generated using pymatgen
data_LiMgAlPt
_symmetry_space_group_name_H-M   'P 1'
_cell_length_a   6.24880000
_cell_length_b   4.41857000
_cell_length_c   26.62790000
_cell_angle_alpha   90.00000000
_cell_angle_beta   90.00000000
_cell_angle_gamma   90.00000000
_symmetry_Int_Tables_number   1
_chemical_formula_structural   LiMgAlPt
_chemical_formula_sum   'Li4 Mg4 Al4 Pt4'
_cell_volume   735.21656196
_cell_formula_units_Z   4
loop_
 _symmetry_equiv_pos_site_id
 _symmetry_equiv_pos_as_xyz
  1  'x, y, z'
loop_
 _atom_site_type_symbol
 _atom_site_label
 _atom_site_symmetry_multiplicity
 _atom_site_fract_x
 _atom_site_fract_y
 _atom_site_fract_z
 _atom_site_occupancy
  Li  Li0  1  0.75000000  0.00000000  0.95852000  1.0
  Li  Li1  1  0.25000000  0.50000000  0.87555000  1.0
  Li  Li2  1  0.72636000  0.00000000  0.13053000  1.0
  Li  Li3  1  0.24470000  0.50000000  0.03995000  1.0
  Mg  Mg4  1  0.00000000  0.50000000  0.95852000  1.0
  Mg  Mg5  1  0.50000000  0.00000000  0.87555000  1.0
  Mg  Mg6  1  0.01389000  0.50000000  0.13002500  1.0
  Mg  Mg7  1  0.50835000  0.00000000  0.03888000  1.0
  Al  Al8  1  0.00000000  0.00000000  0.87555000  1.0
  Al  Al9  1  0.50000000  0.50000000  0.95852000  1.0
  Al  Al10  1  0.99960000  0.00000000  0.04319000  1.0
  Al  Al11  1  0.47929500  0.50000000  0.12141000  1.0
  Pt  Pt12  1  0.25000000  0.00000000  0.95852000  1.0
  Pt  Pt13  1  0.75000000  0.50000000  0.87555000  1.0
  Pt  Pt14  1  0.26425500  0.00000000  0.11736000  1.0
  Pt  Pt15  1  0.75601000  0.50000000  0.04283000  1.0
