# generated using pymatgen
data_Y8In8Pd8Pt8C
_symmetry_space_group_name_H-M   'P 1'
_cell_length_a   9.65478000
_cell_length_b   6.82696000
_cell_length_c   27.24110000
_cell_angle_alpha   90.00000000
_cell_angle_beta   90.00000000
_cell_angle_gamma   90.00000000
_symmetry_Int_Tables_number   1
_chemical_formula_structural   Y8In8Pd8Pt8C
_chemical_formula_sum   'Y8 In8 Pd8 Pt8 C1'
_cell_volume   1795.53709078
_cell_formula_units_Z   1
loop_
 _symmetry_equiv_pos_site_id
 _symmetry_equiv_pos_as_xyz
  1  'x, y, z'
loop_
 _atom_site_type_symbol
 _atom_site_label
 _atom_site_symmetry_multiplicity
 _atom_site_fract_x
 _atom_site_fract_y
 _atom_site_fract_z
 _atom_site_occupancy
  Y  Y0  1  0.00000000  1.00000000  0.04430000  1.0
  Y  Y1  1  0.50000000  0.00000000  0.04430000  1.0
  Y  Y2  1  0.25001000  0.50000000  0.13291000  1.0
  Y  Y3  1  0.74999000  0.50000000  0.13291000  1.0
  Y  Y4  1  0.50000000  0.99563000  0.86386000  1.0
  Y  Y5  1  0.00000000  0.02925000  0.86405000  1.0
  Y  Y6  1  0.74590000  0.50619000  0.95541000  1.0
  Y  Y7  1  0.25410000  0.50619000  0.95541000  1.0
  In  In8  1  0.75001000  0.00000000  0.13291000  1.0
  In  In9  1  0.24999000  0.00000000  0.13291000  1.0
  In  In10  1  0.50000000  0.50000000  0.04430000  1.0
  In  In11  1  0.00000000  0.50000000  0.04430000  1.0
  In  In12  1  0.24782000  0.99669000  0.95181000  1.0
  In  In13  1  0.75218000  0.99669000  0.95181000  1.0
  In  In14  1  0.00000000  0.46101000  0.86864000  1.0
  In  In15  1  0.50000000  0.51286000  0.86225000  1.0
  Pd  Pd16  1  0.75001000  0.75000000  0.04430000  1.0
  Pd  Pd17  1  0.24999000  0.75000000  0.04430000  1.0
  Pd  Pd18  1  0.00000000  0.25000000  0.13291000  1.0
  Pd  Pd19  1  0.50000000  0.25000000  0.13291000  1.0
  Pd  Pd20  1  0.22878000  0.72613000  0.86429000  1.0
  Pd  Pd21  1  0.77122000  0.72613000  0.86429000  1.0
  Pd  Pd22  1  0.50000000  0.24340000  0.95312000  1.0
  Pd  Pd23  1  0.00000000  0.25420000  0.95938000  1.0
  Pt  Pt24  1  0.75001000  0.25000000  0.04430000  1.0
  Pt  Pt25  1  0.24999000  0.25000000  0.04430000  1.0
  Pt  Pt26  1  0.00000000  0.75000000  0.13291000  1.0
  Pt  Pt27  1  0.50000000  0.75000000  0.13291000  1.0
  Pt  Pt28  1  0.26553000  0.26063000  0.87256000  1.0
  Pt  Pt29  1  0.73447000  0.26063000  0.87256000  1.0
  Pt  Pt30  1  0.50000000  0.76853000  0.95243000  1.0
  Pt  Pt31  1  0.00000000  0.75989000  0.95504000  1.0
  C  C32  1  0.00000000  0.73171000  0.83265000  1.0
