# generated using pymatgen
data_Y8In8Pd8Pt8C
_symmetry_space_group_name_H-M   Pm
_cell_length_a   6.82696000
_cell_length_b   9.65478000
_cell_length_c   27.24110000
_cell_angle_alpha   90.00000000
_cell_angle_beta   90.00000000
_cell_angle_gamma   90.00000000
_symmetry_Int_Tables_number   6
_chemical_formula_structural   Y8In8Pd8Pt8C
_chemical_formula_sum   'Y8 In8 Pd8 Pt8 C1'
_cell_volume   1795.53709078
_cell_formula_units_Z   1
loop_
 _symmetry_equiv_pos_site_id
 _symmetry_equiv_pos_as_xyz
  1  'x, y, z'
  2  'x, -y, z'
loop_
 _atom_site_type_symbol
 _atom_site_label
 _atom_site_symmetry_multiplicity
 _atom_site_fract_x
 _atom_site_fract_y
 _atom_site_fract_z
 _atom_site_occupancy
  Y  Y0  2  0.50000000  0.25001000  0.86709000  1.0
  Y  Y1  2  0.50619000  0.25410000  0.04459000  1.0
  Y  Y2  1  -0.00000000  0.00000000  0.95570000  1.0
  Y  Y3  1  0.00000000  0.50000000  0.95570000  1.0
  Y  Y4  1  0.02925000  0.00000000  0.13595000  1.0
  Y  Y5  1  0.99563000  0.50000000  0.13614000  1.0
  In  In6  2  0.00000000  0.24999000  0.86709000  1.0
  In  In7  2  0.99669000  0.24782000  0.04819000  1.0
  In  In8  1  0.46101000  0.00000000  0.13136000  1.0
  In  In9  1  0.50000000  0.00000000  0.95570000  1.0
  In  In10  1  0.50000000  0.50000000  0.95570000  1.0
  In  In11  1  0.51286000  0.50000000  0.13775000  1.0
  Pd  Pd12  2  0.72613000  0.22878000  0.13571000  1.0
  Pd  Pd13  2  0.75000000  0.24999000  0.95570000  1.0
  Pd  Pd14  1  0.24340000  0.50000000  0.04688000  1.0
  Pd  Pd15  1  0.25000000  0.00000000  0.86709000  1.0
  Pd  Pd16  1  0.25000000  0.50000000  0.86709000  1.0
  Pd  Pd17  1  0.25420000  0.00000000  0.04062000  1.0
  Pt  Pt18  2  0.25000000  0.24999000  0.95570000  1.0
  Pt  Pt19  2  0.26063000  0.26553000  0.12744000  1.0
  Pt  Pt20  1  0.75000000  0.00000000  0.86709000  1.0
  Pt  Pt21  1  0.75000000  0.50000000  0.86709000  1.0
  Pt  Pt22  1  0.75989000  0.00000000  0.04496000  1.0
  Pt  Pt23  1  0.76853000  0.50000000  0.04757000  1.0
  C  C24  1  0.73171000  0.00000000  0.16735000  1.0
