# generated using pymatgen
data_Y4Sc4Ga4Pd4CO
_symmetry_space_group_name_H-M   'P 1'
_cell_length_a   7.06732000
_cell_length_b   6.83834000
_cell_length_c   25.12490000
_cell_angle_alpha   90.00000000
_cell_angle_beta   90.00000000
_cell_angle_gamma   90.00000000
_symmetry_Int_Tables_number   1
_chemical_formula_structural   Y4Sc4Ga4Pd4CO
_chemical_formula_sum   'Y4 Sc4 Ga4 Pd4 C1 O1'
_cell_volume   1214.25468548
_cell_formula_units_Z   1
loop_
 _symmetry_equiv_pos_site_id
 _symmetry_equiv_pos_as_xyz
  1  'x, y, z'
loop_
 _atom_site_type_symbol
 _atom_site_label
 _atom_site_symmetry_multiplicity
 _atom_site_fract_x
 _atom_site_fract_y
 _atom_site_fract_z
 _atom_site_occupancy
  Y  Y0  1  0.25066000  0.26411000  0.04150000  1.0
  Y  Y1  1  0.25001000  0.77900000  0.89801000  1.0
  Y  Y2  1  0.74934000  0.26411000  0.04150000  1.0
  Y  Y3  1  0.74999000  0.77900000  0.89801000  1.0
  Sc  Sc4  1  0.25222000  0.77339000  0.02994000  1.0
  Sc  Sc5  1  0.25001000  0.27900000  0.89801000  1.0
  Sc  Sc6  1  0.74778000  0.77339000  0.02994000  1.0
  Sc  Sc7  1  0.74999000  0.27900000  0.89801000  1.0
  Ga  Ga8  1  0.50000000  0.96788000  0.10371000  1.0
  Ga  Ga9  1  0.50000000  0.51933000  0.96600000  1.0
  Ga  Ga10  1  0.00000000  0.96837000  0.10419000  1.0
  Ga  Ga11  1  0.00000000  0.51933000  0.96600000  1.0
  Pd  Pd12  1  0.50000000  0.56344000  0.08659000  1.0
  Pd  Pd13  1  0.50000000  0.01933000  0.96600000  1.0
  Pd  Pd14  1  0.00000000  0.56656000  0.08623000  1.0
  Pd  Pd15  1  0.00000000  0.01933000  0.96600000  1.0
  C  C16  1  0.50000000  0.98566000  0.18378000  1.0
  O  O17  1  0.50000000  0.00403000  0.22932000  1.0
