# generated using pymatgen
data_Y4Sc4Ga4Pd4CO
_symmetry_space_group_name_H-M   Pm
_cell_length_a   6.83834000
_cell_length_b   7.06732000
_cell_length_c   25.12490000
_cell_angle_alpha   90.00000000
_cell_angle_beta   90.00000000
_cell_angle_gamma   90.00000000
_symmetry_Int_Tables_number   6
_chemical_formula_structural   Y4Sc4Ga4Pd4CO
_chemical_formula_sum   'Y4 Sc4 Ga4 Pd4 C1 O1'
_cell_volume   1214.25468548
_cell_formula_units_Z   1
loop_
 _symmetry_equiv_pos_site_id
 _symmetry_equiv_pos_as_xyz
  1  'x, y, z'
  2  'x, -y, z'
loop_
 _atom_site_type_symbol
 _atom_site_label
 _atom_site_symmetry_multiplicity
 _atom_site_fract_x
 _atom_site_fract_y
 _atom_site_fract_z
 _atom_site_occupancy
  Y  Y0  2  0.26411000  0.25066000  0.95850000  1.0
  Y  Y1  2  0.77900000  0.25001000  0.10199000  1.0
  Sc  Sc2  2  0.27900000  0.25001000  0.10199000  1.0
  Sc  Sc3  2  0.77339000  0.25222000  0.97006000  1.0
  Ga  Ga4  1  0.51933000  0.00000000  0.03400000  1.0
  Ga  Ga5  1  0.51933000  0.50000000  0.03400000  1.0
  Ga  Ga6  1  0.96788000  0.50000000  0.89629000  1.0
  Ga  Ga7  1  0.96837000  0.00000000  0.89581000  1.0
  Pd  Pd8  1  0.01933000  0.00000000  0.03400000  1.0
  Pd  Pd9  1  0.01933000  0.50000000  0.03400000  1.0
  Pd  Pd10  1  0.56344000  0.50000000  0.91341000  1.0
  Pd  Pd11  1  0.56656000  0.00000000  0.91377000  1.0
  C  C12  1  0.98566000  0.50000000  0.81622000  1.0
  O  O13  1  0.00403000  0.50000000  0.77068000  1.0
