# generated using pymatgen
data_Mn16Ni16C
_symmetry_space_group_name_H-M   'P 1'
_cell_length_a   5.87849000
_cell_length_b   8.31345000
_cell_length_c   26.23510000
_cell_angle_alpha   90.00000000
_cell_angle_beta   90.00000000
_cell_angle_gamma   90.00000000
_symmetry_Int_Tables_number   1
_chemical_formula_structural   Mn16Ni16C
_chemical_formula_sum   'Mn16 Ni16 C1'
_cell_volume   1282.12331219
_cell_formula_units_Z   1
loop_
 _symmetry_equiv_pos_site_id
 _symmetry_equiv_pos_as_xyz
  1  'x, y, z'
loop_
 _atom_site_type_symbol
 _atom_site_label
 _atom_site_symmetry_multiplicity
 _atom_site_fract_x
 _atom_site_fract_y
 _atom_site_fract_z
 _atom_site_occupancy
  Mn  Mn0  1  0.75000000  0.75000000  0.88117000  1.0
  Mn  Mn1  1  0.75000000  0.00000000  0.96039000  1.0
  Mn  Mn2  1  0.75017000  0.74923000  0.04001000  1.0
  Mn  Mn3  1  0.71023000  0.00000000  0.11989000  1.0
  Mn  Mn4  1  0.75000000  0.25000000  0.88117000  1.0
  Mn  Mn5  1  0.75000000  0.50000000  0.96039000  1.0
  Mn  Mn6  1  0.75017000  0.25077000  0.04001000  1.0
  Mn  Mn7  1  0.75421000  0.50000000  0.12266000  1.0
  Mn  Mn8  1  0.25000000  0.75000000  0.88117000  1.0
  Mn  Mn9  1  0.25000000  0.00000000  0.96039000  1.0
  Mn  Mn10  1  0.24983000  0.74923000  0.04001000  1.0
  Mn  Mn11  1  0.28977000  0.00000000  0.11989000  1.0
  Mn  Mn12  1  0.25000000  0.25000000  0.88117000  1.0
  Mn  Mn13  1  0.25000000  0.50000000  0.96039000  1.0
  Mn  Mn14  1  0.24983000  0.25077000  0.04001000  1.0
  Mn  Mn15  1  0.24579000  0.50000000  0.12266000  1.0
  Ni  Ni16  1  0.00000000  0.00000000  0.88117000  1.0
  Ni  Ni17  1  0.00000000  0.75000000  0.96039000  1.0
  Ni  Ni18  1  0.00000000  0.00000000  0.04123000  1.0
  Ni  Ni19  1  0.00000000  0.76925000  0.11699000  1.0
  Ni  Ni20  1  0.00000000  0.50000000  0.88117000  1.0
  Ni  Ni21  1  0.00000000  0.25000000  0.96039000  1.0
  Ni  Ni22  1  0.00000000  0.50000000  0.04230000  1.0
  Ni  Ni23  1  0.00000000  0.23075000  0.11699000  1.0
  Ni  Ni24  1  0.50000000  0.00000000  0.88117000  1.0
  Ni  Ni25  1  0.50000000  0.75000000  0.96039000  1.0
  Ni  Ni26  1  0.50000000  0.00000000  0.03779000  1.0
  Ni  Ni27  1  0.50000000  0.74394000  0.11347000  1.0
  Ni  Ni28  1  0.50000000  0.50000000  0.88117000  1.0
  Ni  Ni29  1  0.50000000  0.25000000  0.96039000  1.0
  Ni  Ni30  1  0.50000000  0.50000000  0.04125000  1.0
  Ni  Ni31  1  0.50000000  0.25606000  0.11347000  1.0
  C  C32  1  0.00000000  0.00000000  0.14206000  1.0
