# generated using pymatgen
data_YMgInPd
_symmetry_space_group_name_H-M   'P 1'
_cell_length_a   6.99626000
_cell_length_b   4.94710000
_cell_length_c   27.42070000
_cell_angle_alpha   90.00000000
_cell_angle_beta   90.00000000
_cell_angle_gamma   90.00000000
_symmetry_Int_Tables_number   1
_chemical_formula_structural   YMgInPd
_chemical_formula_sum   'Y4 Mg4 In4 Pd4'
_cell_volume   949.06327278
_cell_formula_units_Z   4
loop_
 _symmetry_equiv_pos_site_id
 _symmetry_equiv_pos_as_xyz
  1  'x, y, z'
loop_
 _atom_site_type_symbol
 _atom_site_label
 _atom_site_symmetry_multiplicity
 _atom_site_fract_x
 _atom_site_fract_y
 _atom_site_fract_z
 _atom_site_occupancy
  Y  Y0  1  0.25000000  0.00000000  0.95490000  1.0
  Y  Y1  1  0.75000000  0.50000000  0.86469000  1.0
  Y  Y2  1  0.25403000  0.00000000  0.14231000  1.0
  Y  Y3  1  0.74189500  0.50000000  0.04695000  1.0
  Mg  Mg4  1  0.75000000  0.00000000  0.95490000  1.0
  Mg  Mg5  1  0.25000000  0.50000000  0.86469000  1.0
  Mg  Mg6  1  0.75161000  0.00000000  0.13343000  1.0
  Mg  Mg7  1  0.26145000  0.50000000  0.05032000  1.0
  In  In8  1  0.00000000  0.00000000  0.86469000  1.0
  In  In9  1  0.50000000  0.50000000  0.95490000  1.0
  In  In10  1  0.01388000  0.00000000  0.04822000  1.0
  In  In11  1  0.53060500  0.50000000  0.15450500  1.0
  Pd  Pd12  1  0.00000000  0.50000000  0.95490000  1.0
  Pd  Pd13  1  0.50000000  0.00000000  0.86469000  1.0
  Pd  Pd14  1  0.99005000  0.50000000  0.12628000  1.0
  Pd  Pd15  1  0.47449000  0.00000000  0.04965000  1.0
