# generated using pymatgen
data_Ta8Ga8Ni16CO
_symmetry_space_group_name_H-M   P1
_cell_length_a   6.00328000
_cell_length_b   8.48992000
_cell_length_c   26.36740000
_cell_angle_alpha   90.00000000
_cell_angle_beta   90.00000000
_cell_angle_gamma   90.00000000
_symmetry_Int_Tables_number   1
_chemical_formula_structural   Ta8Ga8Ni16CO
_chemical_formula_sum   'Ta8 Ga8 Ni16 C1 O1'
_cell_volume   1343.87695099
_cell_formula_units_Z   1
loop_
 _symmetry_equiv_pos_site_id
 _symmetry_equiv_pos_as_xyz
  1  'x, y, z'
loop_
 _atom_site_type_symbol
 _atom_site_label
 _atom_site_symmetry_multiplicity
 _atom_site_fract_x
 _atom_site_fract_y
 _atom_site_fract_z
 _atom_site_occupancy
  Ta  Ta0  1  0.00000000  0.00000000  0.87926000  1.0
  Ta  Ta1  1  0.00000000  0.50000000  0.87926000  1.0
  Ta  Ta2  1  0.00962000  0.00003000  0.04245000  1.0
  Ta  Ta3  1  0.48468000  0.24483000  0.11844000  1.0
  Ta  Ta4  1  0.48471000  0.75517000  0.11845000  1.0
  Ta  Ta5  1  0.50000000  0.25000000  0.95975000  1.0
  Ta  Ta6  1  0.50000000  0.75000000  0.95975000  1.0
  Ta  Ta7  1  0.99316000  0.50001000  0.04107000  1.0
  Ga  Ga8  1  -0.00000000  0.25000000  0.95975000  1.0
  Ga  Ga9  1  -0.00000000  0.75000000  0.95975000  1.0
  Ga  Ga10  1  0.49429000  0.00001000  0.04043000  1.0
  Ga  Ga11  1  0.49958000  0.50001000  0.03739000  1.0
  Ga  Ga12  1  0.50000000  0.00000000  0.87926000  1.0
  Ga  Ga13  1  0.50000000  0.50000000  0.87926000  1.0
  Ga  Ga14  1  0.99175000  0.25642000  0.12307000  1.0
  Ga  Ga15  1  0.99175000  0.74359000  0.12307000  1.0
  Ni  Ni16  1  0.22801000  0.00000000  0.13568000  1.0
  Ni  Ni17  1  0.25000000  0.00000000  0.95975000  1.0
  Ni  Ni18  1  0.25000000  0.25000000  0.87926000  1.0
  Ni  Ni19  1  0.25000000  0.50000000  0.95975000  1.0
  Ni  Ni20  1  0.25000000  0.75000000  0.87926000  1.0
  Ni  Ni21  1  0.25185000  0.74424000  0.04021000  1.0
  Ni  Ni22  1  0.25189000  0.25579000  0.04019000  1.0
  Ni  Ni23  1  0.26346000  0.50000000  0.11551000  1.0
  Ni  Ni24  1  0.72143000  0.50000000  0.11658000  1.0
  Ni  Ni25  1  0.74592000  0.24744000  0.04158000  1.0
  Ni  Ni26  1  0.74596000  0.75263000  0.04161000  1.0
  Ni  Ni27  1  0.74701000  0.00001000  0.11546000  1.0
  Ni  Ni28  1  0.75000000  0.00000000  0.95975000  1.0
  Ni  Ni29  1  0.75000000  0.25000000  0.87926000  1.0
  Ni  Ni30  1  0.75000000  0.50000000  0.95975000  1.0
  Ni  Ni31  1  0.75000000  0.75000000  0.87926000  1.0
  C  C32  1  0.31681000  0.99997000  0.19946000  1.0
  O  O33  1  0.35922000  0.00002000  0.24234000  1.0
