# generated using pymatgen
data_Sc4Ga4Ge4Pd4CO
_symmetry_space_group_name_H-M   'P 1'
_cell_length_a   8.08666000
_cell_length_b   5.81182000
_cell_length_c   24.34090000
_cell_angle_alpha   90.00000000
_cell_angle_beta   90.00000000
_cell_angle_gamma   90.00000000
_symmetry_Int_Tables_number   1
_chemical_formula_structural   Sc4Ga4Ge4Pd4CO
_chemical_formula_sum   'Sc4 Ga4 Ge4 Pd4 C1 O1'
_cell_volume   1143.97878629
_cell_formula_units_Z   1
loop_
 _symmetry_equiv_pos_site_id
 _symmetry_equiv_pos_as_xyz
  1  'x, y, z'
loop_
 _atom_site_type_symbol
 _atom_site_label
 _atom_site_symmetry_multiplicity
 _atom_site_fract_x
 _atom_site_fract_y
 _atom_site_fract_z
 _atom_site_occupancy
  Sc  Sc0  1  0.00000000  0.72730000  0.02972000  1.0
  Sc  Sc1  1  0.00000000  0.17865000  0.91589000  1.0
  Sc  Sc2  1  0.50000000  0.72730000  0.02972000  1.0
  Sc  Sc3  1  0.50000000  0.17293000  0.92044000  1.0
  Ga  Ga4  1  0.75000000  0.00000000  0.08917000  1.0
  Ga  Ga5  1  0.75451000  0.44582000  0.97350000  1.0
  Ga  Ga6  1  0.25000000  0.00000000  0.08917000  1.0
  Ga  Ga7  1  0.24549000  0.44582000  0.97350000  1.0
  Ge  Ge8  1  0.75000000  0.50000000  0.08917000  1.0
  Ge  Ge9  1  0.75539000  0.93368000  0.96383000  1.0
  Ge  Ge10  1  0.25000000  0.50000000  0.08917000  1.0
  Ge  Ge11  1  0.24461000  0.93368000  0.96383000  1.0
  Pd  Pd12  1  0.00000000  0.22730000  0.02972000  1.0
  Pd  Pd13  1  0.00000000  0.66525000  0.91102000  1.0
  Pd  Pd14  1  0.50000000  0.22730000  0.02972000  1.0
  Pd  Pd15  1  0.50000000  0.65771000  0.92308000  1.0
  C  C16  1  0.00000000  0.66163000  0.83130000  1.0
  O  O17  1  0.00000000  0.67394000  0.78371000  1.0
