# generated using pymatgen
data_Cu16Ni8Sn8C
_symmetry_space_group_name_H-M   P1
_cell_length_a   6.14873000
_cell_length_b   8.69561000
_cell_length_c   26.52170000
_cell_angle_alpha   90.00000000
_cell_angle_beta   90.00000000
_cell_angle_gamma   90.00000000
_symmetry_Int_Tables_number   1
_chemical_formula_structural   Cu16Ni8Sn8C
_chemical_formula_sum   'Cu16 Ni8 Sn8 C1'
_cell_volume   1418.03462199
_cell_formula_units_Z   1
loop_
 _symmetry_equiv_pos_site_id
 _symmetry_equiv_pos_as_xyz
  1  'x, y, z'
loop_
 _atom_site_type_symbol
 _atom_site_label
 _atom_site_symmetry_multiplicity
 _atom_site_fract_x
 _atom_site_fract_y
 _atom_site_fract_z
 _atom_site_occupancy
  Cu  Cu0  1  0.21896000  0.24998000  0.04873000  1.0
  Cu  Cu1  1  0.21951000  0.47453000  0.11863000  1.0
  Cu  Cu2  1  0.21959000  0.02537000  0.11859000  1.0
  Cu  Cu3  1  0.22274000  0.75004000  0.04333000  1.0
  Cu  Cu4  1  0.25000000  0.00000000  0.95902000  1.0
  Cu  Cu5  1  0.25000000  0.25000000  0.87705000  1.0
  Cu  Cu6  1  0.25000000  0.50000000  0.95902000  1.0
  Cu  Cu7  1  0.25000000  0.75000000  0.87705000  1.0
  Cu  Cu8  1  0.75000000  0.00000000  0.95902000  1.0
  Cu  Cu9  1  0.75000000  0.25000000  0.87705000  1.0
  Cu  Cu10  1  0.75000000  0.50000000  0.95902000  1.0
  Cu  Cu11  1  0.75000000  0.75000000  0.87705000  1.0
  Cu  Cu12  1  0.78083000  0.51816000  0.11693000  1.0
  Cu  Cu13  1  0.78085000  0.98175000  0.11694000  1.0
  Cu  Cu14  1  0.79691000  0.74998000  0.05231000  1.0
  Cu  Cu15  1  0.79987000  0.25004000  0.04930000  1.0
  Ni  Ni16  1  0.00000000  0.00000000  0.87705000  1.0
  Ni  Ni17  1  0.00000000  0.50000000  0.87705000  1.0
  Ni  Ni18  1  0.00115000  0.50215000  0.03411000  1.0
  Ni  Ni19  1  0.00120000  0.99781000  0.03407000  1.0
  Ni  Ni20  1  0.48224000  0.75002000  0.11127000  1.0
  Ni  Ni21  1  0.50000000  0.25000000  0.95902000  1.0
  Ni  Ni22  1  0.50000000  0.75000000  0.95902000  1.0
  Ni  Ni23  1  0.52060000  0.24993000  0.11474000  1.0
  Sn  Sn24  1  0.00000000  0.25000000  0.95902000  1.0
  Sn  Sn25  1  0.00000000  0.75000000  0.95902000  1.0
  Sn  Sn26  1  0.05147000  0.74997000  0.14389000  1.0
  Sn  Sn27  1  0.50000000  0.00000000  0.87705000  1.0
  Sn  Sn28  1  0.50000000  0.50000000  0.87705000  1.0
  Sn  Sn29  1  0.50544000  0.50154000  0.04078000  1.0
  Sn  Sn30  1  0.50557000  0.99848000  0.04077000  1.0
  Sn  Sn31  1  0.90049000  0.24994000  0.16179000  1.0
  C  C32  1  0.23146000  0.24995000  0.12926000  1.0
