# generated using pymatgen
data_Y8Mn8In8Pd8CO
_symmetry_space_group_name_H-M   'P 1'
_cell_length_a   6.85874000
_cell_length_b   9.69972000
_cell_length_c   27.27480000
_cell_angle_alpha   90.00000000
_cell_angle_beta   90.00000000
_cell_angle_gamma   90.00000000
_symmetry_Int_Tables_number   1
_chemical_formula_structural   Y8Mn8In8Pd8CO
_chemical_formula_sum   'Y8 Mn8 In8 Pd8 C1 O1'
_cell_volume   1814.53400918
_cell_formula_units_Z   1
loop_
 _symmetry_equiv_pos_site_id
 _symmetry_equiv_pos_as_xyz
  1  'x, y, z'
loop_
 _atom_site_type_symbol
 _atom_site_label
 _atom_site_symmetry_multiplicity
 _atom_site_fract_x
 _atom_site_fract_y
 _atom_site_fract_z
 _atom_site_occupancy
  Y  Y0  1  0.00000000  0.75000000  0.95555000  1.0
  Y  Y1  1  0.00000000  0.25000000  0.95555000  1.0
  Y  Y2  1  0.50000000  0.50000000  0.86664000  1.0
  Y  Y3  1  0.50000000  0.00000000  0.86664000  1.0
  Y  Y4  1  0.02937000  0.26995000  0.13575000  1.0
  Y  Y5  1  0.03387000  0.71750000  0.13964000  1.0
  Y  Y6  1  0.50209000  0.00000000  0.04579000  1.0
  Y  Y7  1  0.48365000  0.50131000  0.04765000  1.0
  Mn  Mn8  1  0.25000000  0.00000000  0.95555000  1.0
  Mn  Mn9  1  0.25000000  0.50000000  0.95555000  1.0
  Mn  Mn10  1  0.75000000  0.75000000  0.86664000  1.0
  Mn  Mn11  1  0.75000000  0.25000000  0.86664000  1.0
  Mn  Mn12  1  0.37719000  0.49842000  0.16606000  1.0
  Mn  Mn13  1  0.25073000  0.98644000  0.14344000  1.0
  Mn  Mn14  1  0.75901000  0.25243000  0.05063000  1.0
  Mn  Mn15  1  0.77364000  0.75029000  0.04987000  1.0
  In  In16  1  0.00000000  0.00000000  0.86664000  1.0
  In  In17  1  0.00000000  0.50000000  0.86664000  1.0
  In  In18  1  0.50000000  0.25000000  0.95555000  1.0
  In  In19  1  0.50000000  0.75000000  0.95555000  1.0
  In  In20  1  0.00340000  0.49869000  0.04282000  1.0
  In  In21  1  0.01382000  0.00187000  0.04550000  1.0
  In  In22  1  0.52145000  0.75948000  0.13188000  1.0
  In  In23  1  0.50799000  0.23148000  0.13665000  1.0
  Pd  Pd24  1  0.75000000  0.00000000  0.95555000  1.0
  Pd  Pd25  1  0.75000000  0.50000000  0.95555000  1.0
  Pd  Pd26  1  0.25000000  0.75000000  0.86664000  1.0
  Pd  Pd27  1  0.25000000  0.25000000  0.86664000  1.0
  Pd  Pd28  1  0.73979000  0.49276000  0.12531000  1.0
  Pd  Pd29  1  0.77136000  0.00220000  0.12528000  1.0
  Pd  Pd30  1  0.24378000  0.24883000  0.04252000  1.0
  Pd  Pd31  1  0.24414000  0.75295000  0.04195000  1.0
  C  C32  1  0.19986000  0.79501000  0.21168000  1.0
  O  O33  1  0.26478000  0.82100000  0.25026000  1.0
