# generated using pymatgen
data_Y8In8Cu8Sn8C
_symmetry_space_group_name_H-M   'P 1'
_cell_length_a   8.82850000
_cell_length_b   9.14612000
_cell_length_c   26.63560000
_cell_angle_alpha   90.00000000
_cell_angle_beta   90.00000000
_cell_angle_gamma   90.00000000
_symmetry_Int_Tables_number   1
_chemical_formula_structural   Y8In8Cu8Sn8C
_chemical_formula_sum   'Y8 In8 Cu8 Sn8 C1'
_cell_volume   2150.73201930
_cell_formula_units_Z   1
loop_
 _symmetry_equiv_pos_site_id
 _symmetry_equiv_pos_as_xyz
  1  'x, y, z'
loop_
 _atom_site_type_symbol
 _atom_site_label
 _atom_site_symmetry_multiplicity
 _atom_site_fract_x
 _atom_site_fract_y
 _atom_site_fract_z
 _atom_site_occupancy
  Y  Y0  1  0.26261000  0.00000000  0.87024000  1.0
  Y  Y1  1  0.25000000  0.00000000  0.04152000  1.0
  Y  Y2  1  0.73739000  0.00000000  0.87024000  1.0
  Y  Y3  1  0.75000000  0.00000000  0.04152000  1.0
  Y  Y4  1  0.27076000  0.50000000  0.87122000  1.0
  Y  Y5  1  0.25000000  0.50000000  0.04152000  1.0
  Y  Y6  1  0.72924000  0.50000000  0.87122000  1.0
  Y  Y7  1  0.75000000  0.50000000  0.04152000  1.0
  In  In8  1  0.25126000  0.74958000  0.95818000  1.0
  In  In9  1  0.25000000  0.75000000  0.12456000  1.0
  In  In10  1  0.74874000  0.74958000  0.95818000  1.0
  In  In11  1  0.75000000  0.75000000  0.12456000  1.0
  In  In12  1  0.25126000  0.25042000  0.95818000  1.0
  In  In13  1  0.25000000  0.25000000  0.12456000  1.0
  In  In14  1  0.74874000  0.25042000  0.95818000  1.0
  In  In15  1  0.75000000  0.25000000  0.12456000  1.0
  Cu  Cu16  1  0.00000000  0.77452000  0.88293000  1.0
  Cu  Cu17  1  0.00000000  0.75000000  0.04152000  1.0
  Cu  Cu18  1  0.50000000  0.74075000  0.88234000  1.0
  Cu  Cu19  1  0.50000000  0.75000000  0.04152000  1.0
  Cu  Cu20  1  0.00000000  0.22548000  0.88293000  1.0
  Cu  Cu21  1  0.00000000  0.25000000  0.04152000  1.0
  Cu  Cu22  1  0.50000000  0.25925000  0.88234000  1.0
  Cu  Cu23  1  0.50000000  0.25000000  0.04152000  1.0
  Sn  Sn24  1  0.00000000  0.00000000  0.95961000  1.0
  Sn  Sn25  1  0.00000000  0.00000000  0.12456000  1.0
  Sn  Sn26  1  0.50000000  0.00000000  0.95922000  1.0
  Sn  Sn27  1  0.50000000  0.00000000  0.12456000  1.0
  Sn  Sn28  1  0.00000000  0.50000000  0.94995000  1.0
  Sn  Sn29  1  0.00000000  0.50000000  0.12456000  1.0
  Sn  Sn30  1  0.50000000  0.50000000  0.95944000  1.0
  Sn  Sn31  1  0.50000000  0.50000000  0.12456000  1.0
  C  C32  1  0.00000000  0.00000000  0.87104000  1.0
