# generated using pymatgen
data_Li4Y4Ge4Pb4C
_symmetry_space_group_name_H-M   'P 1'
_cell_length_a   8.65500000
_cell_length_b   6.52719000
_cell_length_c   24.84630000
_cell_angle_alpha   90.00000000
_cell_angle_beta   90.00000000
_cell_angle_gamma   90.00000000
_symmetry_Int_Tables_number   1
_chemical_formula_structural   Li4Y4Ge4Pb4C
_chemical_formula_sum   'Li4 Y4 Ge4 Pb4 C1'
_cell_volume   1403.63778836
_cell_formula_units_Z   1
loop_
 _symmetry_equiv_pos_site_id
 _symmetry_equiv_pos_as_xyz
  1  'x, y, z'
loop_
 _atom_site_type_symbol
 _atom_site_label
 _atom_site_symmetry_multiplicity
 _atom_site_fract_x
 _atom_site_fract_y
 _atom_site_fract_z
 _atom_site_occupancy
  Li  Li0  1  0.00000000  0.50000000  0.09753000  1.0
  Li  Li1  1  0.00000000  0.90770000  0.97233000  1.0
  Li  Li2  1  0.50000000  0.50000000  0.09753000  1.0
  Li  Li3  1  0.50000000  0.92892000  0.96300000  1.0
  Y  Y4  1  0.25000000  0.21469000  0.03251000  1.0
  Y  Y5  1  0.20765000  0.58463000  0.90478000  1.0
  Y  Y6  1  0.75000000  0.21469000  0.03251000  1.0
  Y  Y7  1  0.79235000  0.58463000  0.90478000  1.0
  Ge  Ge8  1  0.00000000  0.00000000  0.09753000  1.0
  Ge  Ge9  1  0.00000000  0.31420000  0.96050000  1.0
  Ge  Ge10  1  0.50000000  0.00000000  0.09753000  1.0
  Ge  Ge11  1  0.50000000  0.40489000  0.96173000  1.0
  Pb  Pb12  1  0.25000000  0.71469000  0.03251000  1.0
  Pb  Pb13  1  0.20075000  0.07426000  0.88231000  1.0
  Pb  Pb14  1  0.75000000  0.71469000  0.03251000  1.0
  Pb  Pb15  1  0.79925000  0.07426000  0.88231000  1.0
  C  C16  1  0.00000000  0.79569000  0.89033000  1.0
