# generated using pymatgen
data_Li4Y4Ge4Pb4C
_symmetry_space_group_name_H-M   Pm
_cell_length_a   6.52719000
_cell_length_b   8.65500000
_cell_length_c   24.84630000
_cell_angle_alpha   90.00000000
_cell_angle_beta   90.00000000
_cell_angle_gamma   90.00000000
_symmetry_Int_Tables_number   6
_chemical_formula_structural   Li4Y4Ge4Pb4C
_chemical_formula_sum   'Li4 Y4 Ge4 Pb4 C1'
_cell_volume   1403.63778836
_cell_formula_units_Z   1
loop_
 _symmetry_equiv_pos_site_id
 _symmetry_equiv_pos_as_xyz
  1  'x, y, z'
  2  'x, -y, z'
loop_
 _atom_site_type_symbol
 _atom_site_label
 _atom_site_symmetry_multiplicity
 _atom_site_fract_x
 _atom_site_fract_y
 _atom_site_fract_z
 _atom_site_occupancy
  Li  Li0  1  0.50000000  0.00000000  0.90247000  1.0
  Li  Li1  1  0.50000000  0.50000000  0.90247000  1.0
  Li  Li2  1  0.90770000  0.00000000  0.02767000  1.0
  Li  Li3  1  0.92892000  0.50000000  0.03700000  1.0
  Y  Y4  2  0.21469000  0.25000000  0.96749000  1.0
  Y  Y5  2  0.58463000  0.20765000  0.09522000  1.0
  Ge  Ge6  1  0.00000000  0.00000000  0.90247000  1.0
  Ge  Ge7  1  0.00000000  0.50000000  0.90247000  1.0
  Ge  Ge8  1  0.31420000  0.00000000  0.03950000  1.0
  Ge  Ge9  1  0.40489000  0.50000000  0.03827000  1.0
  Pb  Pb10  2  0.07426000  0.20075000  0.11769000  1.0
  Pb  Pb11  2  0.71469000  0.25000000  0.96749000  1.0
  C  C12  1  0.79569000  0.00000000  0.10967000  1.0
