# generated using pymatgen
data_Ca8Pd8CO
_symmetry_space_group_name_H-M   P4mm
_cell_length_a   7.14855000
_cell_length_b   7.14855000
_cell_length_c   25.36140000
_cell_angle_alpha   90.00000000
_cell_angle_beta   90.00000000
_cell_angle_gamma   90.00000000
_symmetry_Int_Tables_number   99
_chemical_formula_structural   Ca8Pd8CO
_chemical_formula_sum   'Ca8 Pd8 C1 O1'
_cell_volume   1296.01235619
_cell_formula_units_Z   1
loop_
 _symmetry_equiv_pos_site_id
 _symmetry_equiv_pos_as_xyz
  1  'x, y, z'
  2  '-y, x, z'
  3  '-x, -y, z'
  4  'y, -x, z'
  5  '-x, y, z'
  6  'y, x, z'
  7  'x, -y, z'
  8  '-y, -x, z'
loop_
 _atom_site_type_symbol
 _atom_site_label
 _atom_site_symmetry_multiplicity
 _atom_site_fract_x
 _atom_site_fract_y
 _atom_site_fract_z
 _atom_site_occupancy
  Ca  Ca0  4  0.25000000  0.25000000  0.01928000  1.0
  Ca  Ca1  4  0.25000000  0.25000000  0.87834000  1.0
  Pd  Pd2  2  0.00000000  0.50000000  0.08974000  1.0
  Pd  Pd3  2  0.00000000  0.50000000  0.94881000  1.0
  Pd  Pd4  1  0.00000000  0.00000000  0.08974000  1.0
  Pd  Pd5  1  0.00000000  0.00000000  0.94881000  1.0
  Pd  Pd6  1  0.50000000  0.50000000  0.08974000  1.0
  Pd  Pd7  1  0.50000000  0.50000000  0.94881000  1.0
  C  C8  1  0.00000000  0.00000000  0.16466000  1.0
  O  O9  1  0.00000000  0.00000000  0.21001000  1.0
