# generated using pymatgen
data_ScGaCuPd
_symmetry_space_group_name_H-M   'P 1'
_cell_length_a   6.33027000
_cell_length_b   4.47618000
_cell_length_c   26.71430000
_cell_angle_alpha   90.00000000
_cell_angle_beta   90.00000000
_cell_angle_gamma   90.00000000
_symmetry_Int_Tables_number   1
_chemical_formula_structural   ScGaCuPd
_chemical_formula_sum   'Sc4 Ga4 Cu4 Pd4'
_cell_volume   756.96112338
_cell_formula_units_Z   4
loop_
 _symmetry_equiv_pos_site_id
 _symmetry_equiv_pos_as_xyz
  1  'x, y, z'
loop_
 _atom_site_type_symbol
 _atom_site_label
 _atom_site_symmetry_multiplicity
 _atom_site_fract_x
 _atom_site_fract_y
 _atom_site_fract_z
 _atom_site_occupancy
  Sc  Sc0  1  0.25000000  0.00000000  0.95811000  1.0
  Sc  Sc1  1  0.75000000  0.50000000  0.87433000  1.0
  Sc  Sc2  1  0.24919000  0.00000000  0.13018000  1.0
  Sc  Sc3  1  0.75104500  0.50000000  0.04126500  1.0
  Ga  Ga4  1  0.75000000  0.00000000  0.95811000  1.0
  Ga  Ga5  1  0.25000000  0.50000000  0.87433000  1.0
  Ga  Ga6  1  0.74880000  0.00000000  0.12485000  1.0
  Ga  Ga7  1  0.24815500  0.50000000  0.04512500  1.0
  Cu  Cu8  1  0.00000000  0.00000000  0.87433000  1.0
  Cu  Cu9  1  0.50000000  0.50000000  0.95811000  1.0
  Cu  Cu10  1  0.01363000  0.00000000  0.04446000  1.0
  Cu  Cu11  1  0.51998500  0.50000000  0.12525500  1.0
  Pd  Pd12  1  0.00000000  0.50000000  0.95811000  1.0
  Pd  Pd13  1  0.50000000  0.00000000  0.87433000  1.0
  Pd  Pd14  1  0.98430500  0.50000000  0.12450000  1.0
  Pd  Pd15  1  0.48599500  0.00000000  0.04371000  1.0
