# generated using pymatgen
data_Li8Mg8Al8Pd8C
_symmetry_space_group_name_H-M   Pm
_cell_length_a   6.28130000
_cell_length_b   8.88310000
_cell_length_c   26.66230000
_cell_angle_alpha   90.00000000
_cell_angle_beta   90.00000000
_cell_angle_gamma   90.00000000
_symmetry_Int_Tables_number   6
_chemical_formula_structural   Li8Mg8Al8Pd8C
_chemical_formula_sum   'Li8 Mg8 Al8 Pd8 C1'
_cell_volume   1487.68744542
_cell_formula_units_Z   1
loop_
 _symmetry_equiv_pos_site_id
 _symmetry_equiv_pos_as_xyz
  1  'x, y, z'
  2  'x, -y, z'
loop_
 _atom_site_type_symbol
 _atom_site_label
 _atom_site_symmetry_multiplicity
 _atom_site_fract_x
 _atom_site_fract_y
 _atom_site_fract_z
 _atom_site_occupancy
  Li  Li0  2  0.75000000  0.24999000  0.87506000  1.0
  Li  Li1  2  0.75564000  0.24779000  0.04174000  1.0
  Li  Li2  1  0.25000000  0.00000000  0.95835000  1.0
  Li  Li3  1  0.25000000  0.50000000  0.95835000  1.0
  Li  Li4  1  0.25897000  0.50000000  0.13365000  1.0
  Li  Li5  1  0.28311000  0.00000000  0.15833000  1.0
  Mg  Mg6  2  0.00000000  0.24999000  0.95835000  1.0
  Mg  Mg7  2  0.99484000  0.24390000  0.13067000  1.0
  Mg  Mg8  1  0.48710000  0.00000000  0.04235000  1.0
  Mg  Mg9  1  0.50000000  0.00000000  0.87506000  1.0
  Mg  Mg10  1  0.50000000  0.50000000  0.87506000  1.0
  Mg  Mg11  1  0.50051000  0.50000000  0.04072000  1.0
  Al  Al12  2  0.50000000  0.25001000  0.95835000  1.0
  Al  Al13  2  0.50693000  0.25757000  0.12399000  1.0
  Al  Al14  1  0.00000000  0.00000000  0.87506000  1.0
  Al  Al15  1  0.00000000  0.50000000  0.87506000  1.0
  Al  Al16  1  0.00200000  0.50000000  0.04469000  1.0
  Al  Al17  1  0.02018000  0.00000000  0.04393000  1.0
  Pd  Pd18  2  0.24992000  0.25826000  0.04036000  1.0
  Pd  Pd19  2  0.25000000  0.24999000  0.87506000  1.0
  Pd  Pd20  1  0.68289000  0.00000000  0.12745000  1.0
  Pd  Pd21  1  0.74458000  0.50000000  0.11994000  1.0
  Pd  Pd22  1  0.75000000  0.00000000  0.95835000  1.0
  Pd  Pd23  1  0.75000000  0.50000000  0.95835000  1.0
  C  C24  1  0.00514000  0.00000000  0.11822000  1.0
