# generated using pymatgen
data_K24Bi8CO
_symmetry_space_group_name_H-M   'P 1'
_cell_length_a   8.83903000
_cell_length_b   12.50030000
_cell_length_c   29.37520000
_cell_angle_alpha   90.00000000
_cell_angle_beta   90.00000000
_cell_angle_gamma   90.00000000
_symmetry_Int_Tables_number   1
_chemical_formula_structural   K24Bi8CO
_chemical_formula_sum   'K24 Bi8 C1 O1'
_cell_volume   3245.68132018
_cell_formula_units_Z   1
loop_
 _symmetry_equiv_pos_site_id
 _symmetry_equiv_pos_as_xyz
  1  'x, y, z'
loop_
 _atom_site_type_symbol
 _atom_site_label
 _atom_site_symmetry_multiplicity
 _atom_site_fract_x
 _atom_site_fract_y
 _atom_site_fract_z
 _atom_site_occupancy
  K  K0  1  0.25000000  0.00000000  0.94681000  1.0
  K  K1  1  0.75000000  0.50000000  0.94681000  1.0
  K  K2  1  0.75000000  0.00000000  0.94681000  1.0
  K  K3  1  0.25000000  0.50000000  0.94681000  1.0
  K  K4  1  0.75000000  0.75000000  0.84042000  1.0
  K  K5  1  0.25000000  0.25000000  0.84042000  1.0
  K  K6  1  0.25000000  0.75000000  0.84042000  1.0
  K  K7  1  0.75000000  0.25000000  0.84042000  1.0
  K  K8  1  0.00000000  0.75000000  0.94681000  1.0
  K  K9  1  0.50000000  0.00000000  0.84042000  1.0
  K  K10  1  0.00000000  0.25000000  0.94681000  1.0
  K  K11  1  0.50000000  0.50000000  0.84042000  1.0
  K  K12  1  0.28271000  0.49767000  0.17805000  1.0
  K  K13  1  0.71886000  0.99711000  0.17686000  1.0
  K  K14  1  0.71533000  0.49678000  0.17907000  1.0
  K  K15  1  0.28111000  0.99733000  0.17700000  1.0
  K  K16  1  0.74757000  0.24946000  0.05186000  1.0
  K  K17  1  0.25526000  0.74811000  0.05095000  1.0
  K  K18  1  0.25288000  0.24956000  0.05187000  1.0
  K  K19  1  0.74593000  0.74834000  0.05105000  1.0
  K  K20  1  0.99930000  0.24874000  0.14894000  1.0
  K  K21  1  0.50201000  0.49980000  0.06615000  1.0
  K  K22  1  0.00021000  0.74666000  0.14888000  1.0
  K  K23  1  0.49981000  0.99719000  0.06405000  1.0
  Bi  Bi24  1  0.00000000  0.00000000  0.84042000  1.0
  Bi  Bi25  1  0.50000000  0.25000000  0.94681000  1.0
  Bi  Bi26  1  0.50000000  0.75000000  0.94681000  1.0
  Bi  Bi27  1  0.00000000  0.50000000  0.84042000  1.0
  Bi  Bi28  1  0.99977000  0.49801000  0.06306000  1.0
  Bi  Bi29  1  0.50009000  0.74710000  0.15206000  1.0
  Bi  Bi30  1  0.50034000  0.24751000  0.15325000  1.0
  Bi  Bi31  1  0.00022000  0.99953000  0.06349000  1.0
  C  C32  1  0.49896000  0.31377000  0.31253000  1.0
  O  O33  1  0.50038000  0.23087000  0.32872000  1.0
