# generated using pymatgen
data_Li4Co4Ge4Pd4CO
_symmetry_space_group_name_H-M   P1
_cell_length_a   5.88348000
_cell_length_b   5.88348000
_cell_length_c   24.41260000
_cell_angle_alpha   90.00000000
_cell_angle_beta   90.00000000
_cell_angle_gamma   90.00000000
_symmetry_Int_Tables_number   1
_chemical_formula_structural   Li4Co4Ge4Pd4CO
_chemical_formula_sum   'Li4 Co4 Ge4 Pd4 C1 O1'
_cell_volume   845.05037386
_cell_formula_units_Z   1
loop_
 _symmetry_equiv_pos_site_id
 _symmetry_equiv_pos_as_xyz
  1  'x, y, z'
loop_
 _atom_site_type_symbol
 _atom_site_label
 _atom_site_symmetry_multiplicity
 _atom_site_fract_x
 _atom_site_fract_y
 _atom_site_fract_z
 _atom_site_occupancy
  Li  Li0  1  0.24763000  0.24862000  0.10558000  1.0
  Li  Li1  1  0.25000000  0.75000000  0.96987000  1.0
  Li  Li2  1  0.75000000  0.25000000  0.96987000  1.0
  Li  Li3  1  0.75144000  0.75235000  0.10559000  1.0
  Co  Co4  1  0.00000000  0.00000000  0.90962000  1.0
  Co  Co5  1  0.00058000  0.50269000  0.03526000  1.0
  Co  Co6  1  0.49732000  0.99939000  0.03528000  1.0
  Co  Co7  1  0.50000000  0.50000000  0.90962000  1.0
  Ge  Ge8  1  0.24347000  0.75681000  0.09127000  1.0
  Ge  Ge9  1  0.25000000  0.25000000  0.96987000  1.0
  Ge  Ge10  1  0.74226000  0.25760000  0.08437000  1.0
  Ge  Ge11  1  0.75000000  0.75000000  0.96987000  1.0
  Pd  Pd12  1  0.00000000  0.50000000  0.90962000  1.0
  Pd  Pd13  1  0.48965000  0.51033000  0.03316000  1.0
  Pd  Pd14  1  0.50000000  0.00000000  0.90962000  1.0
  Pd  Pd15  1  0.99959000  0.00044000  0.03297000  1.0
  C  C16  1  0.80595000  0.19387000  0.17678000  1.0
  O  O17  1  0.72953000  0.27053000  0.21651000  1.0
