# generated using pymatgen
data_Y8Mg8C
_symmetry_space_group_name_H-M   P4mm
_cell_length_a   7.58049000
_cell_length_b   7.58049000
_cell_length_c   25.68540000
_cell_angle_alpha   90.00000000
_cell_angle_beta   90.00000000
_cell_angle_gamma   90.00000000
_symmetry_Int_Tables_number   99
_chemical_formula_structural   Y8Mg8C
_chemical_formula_sum   'Y8 Mg8 C1'
_cell_volume   1475.98142415
_cell_formula_units_Z   1
loop_
 _symmetry_equiv_pos_site_id
 _symmetry_equiv_pos_as_xyz
  1  'x, y, z'
  2  '-y, x, z'
  3  '-x, -y, z'
  4  'y, -x, z'
  5  '-x, y, z'
  6  'y, x, z'
  7  'x, -y, z'
  8  '-y, -x, z'
loop_
 _atom_site_type_symbol
 _atom_site_label
 _atom_site_symmetry_multiplicity
 _atom_site_fract_x
 _atom_site_fract_y
 _atom_site_fract_z
 _atom_site_occupancy
  Y  Y0  4  0.25000000  0.25000000  0.13172000  1.0
  Y  Y1  4  0.25000000  0.25000000  0.98416000  1.0
  Mg  Mg2  2  0.00000000  0.50000000  0.05794000  1.0
  Mg  Mg3  2  0.00000000  0.50000000  0.91038000  1.0
  Mg  Mg4  1  0.00000000  0.00000000  0.05794000  1.0
  Mg  Mg5  1  0.00000000  0.00000000  0.91038000  1.0
  Mg  Mg6  1  0.50000000  0.50000000  0.05794000  1.0
  Mg  Mg7  1  0.50000000  0.50000000  0.91038000  1.0
  C  C8  1  0.00000000  0.00000000  0.16287000  1.0
