# generated using pymatgen
data_Mn8Al8Ni16C
_symmetry_space_group_name_H-M   Pm
_cell_length_a   5.81764000
_cell_length_b   8.22738000
_cell_length_c   26.17050000
_cell_angle_alpha   90.00000000
_cell_angle_beta   90.00000000
_cell_angle_gamma   90.00000000
_symmetry_Int_Tables_number   6
_chemical_formula_structural   Mn8Al8Ni16C
_chemical_formula_sum   'Mn8 Al8 Ni16 C1'
_cell_volume   1252.62311048
_cell_formula_units_Z   1
loop_
 _symmetry_equiv_pos_site_id
 _symmetry_equiv_pos_as_xyz
  1  'x, y, z'
  2  'x, -y, z'
loop_
 _atom_site_type_symbol
 _atom_site_label
 _atom_site_symmetry_multiplicity
 _atom_site_fract_x
 _atom_site_fract_y
 _atom_site_fract_z
 _atom_site_occupancy
  Mn  Mn0  2  0.00000000  0.25000000  0.88211000  1.0
  Mn  Mn1  2  0.00102000  0.25204000  0.03912000  1.0
  Mn  Mn2  1  0.48989000  0.50000000  0.12198000  1.0
  Mn  Mn3  1  0.50000000  0.00000000  0.96070000  1.0
  Mn  Mn4  1  0.50000000  0.50000000  0.96070000  1.0
  Mn  Mn5  1  0.53981000  0.00000000  0.11541000  1.0
  Al  Al6  2  0.49618000  0.24814000  0.03968000  1.0
  Al  Al7  2  0.50000000  0.25000000  0.88211000  1.0
  Al  Al8  1  -0.00000000  0.50000000  0.96070000  1.0
  Al  Al9  1  0.00000000  0.00000000  0.96070000  1.0
  Al  Al10  1  0.00655000  0.50000000  0.11784000  1.0
  Al  Al11  1  0.95141000  0.00000000  0.12174000  1.0
  Ni  Ni12  2  0.24209000  0.22914000  0.11774000  1.0
  Ni  Ni13  2  0.25000000  0.25000000  0.96070000  1.0
  Ni  Ni14  2  0.75000000  0.25000000  0.96070000  1.0
  Ni  Ni15  2  0.75013000  0.25814000  0.11292000  1.0
  Ni  Ni16  1  0.24564000  0.00000000  0.03931000  1.0
  Ni  Ni17  1  0.25000000  0.00000000  0.88211000  1.0
  Ni  Ni18  1  0.25000000  0.50000000  0.88211000  1.0
  Ni  Ni19  1  0.25398000  0.50000000  0.03980000  1.0
  Ni  Ni20  1  0.74454000  0.50000000  0.04024000  1.0
  Ni  Ni21  1  0.75000000  0.00000000  0.88211000  1.0
  Ni  Ni22  1  0.75000000  0.50000000  0.88211000  1.0
  Ni  Ni23  1  0.75511000  0.00000000  0.03584000  1.0
  C  C24  1  0.26562000  0.00000000  0.14252000  1.0
