data_image0
_chemical_formula_structural       Li8Ge8Pd8Pt8C
_chemical_formula_sum              "Li8 Ge8 Pd8 Pt8 C1"
_cell_length_a       6.12898
_cell_length_b       8.66768
_cell_length_c       26.5008
_cell_angle_alpha    90
_cell_angle_beta     90
_cell_angle_gamma    90

_space_group_name_H-M_alt    "P 1"
_space_group_IT_number       1

loop_
  _space_group_symop_operation_xyz
  'x, y, z'

loop_
  _atom_site_type_symbol
  _atom_site_label
  _atom_site_symmetry_multiplicity
  _atom_site_fract_x
  _atom_site_fract_y
  _atom_site_fract_z
  _atom_site_occupancy
  Li  Li1       1.0  0.00000  0.25000  0.95912  1.0000
  Li  Li2       1.0  0.00000  0.75000  0.95912  1.0000
  Li  Li3       1.0  0.50000  0.50000  0.87735  1.0000
  Li  Li4       1.0  0.50000  0.00000  0.87735  1.0000
  Li  Li5       1.0  0.02430  0.74734  0.14097  1.0000
  Li  Li6       1.0  0.02430  0.25266  0.14097  1.0000
  Li  Li7       1.0  0.47438  0.00000  0.04947  1.0000
  Li  Li8       1.0  0.50118  0.50000  0.03712  1.0000
  Ge  Ge1       1.0  0.00000  0.00000  0.87735  1.0000
  Ge  Ge2       1.0  0.00000  0.50000  0.87735  1.0000
  Ge  Ge3       1.0  0.50000  0.75000  0.95912  1.0000
  Ge  Ge4       1.0  0.50000  0.25000  0.95912  1.0000
  Ge  Ge5       1.0  0.99704  0.50000  0.04153  1.0000
  Ge  Ge6       1.0  0.99493  0.00000  0.03870  1.0000
  Ge  Ge7       1.0  0.50049  0.25647  0.12455  1.0000
  Ge  Ge8       1.0  0.50049  0.74353  0.12455  1.0000
  Pd  Pd1       1.0  0.75000  0.00000  0.95912  1.0000
  Pd  Pd2       1.0  0.75000  0.50000  0.95912  1.0000
  Pd  Pd3       1.0  0.25000  0.25000  0.87735  1.0000
  Pd  Pd4       1.0  0.25000  0.75000  0.87735  1.0000
  Pd  Pd5       1.0  0.74032  0.50000  0.11680  1.0000
  Pd  Pd6       1.0  0.77748  0.00000  0.12174  1.0000
  Pd  Pd7       1.0  0.24071  0.75386  0.03924  1.0000
  Pd  Pd8       1.0  0.24071  0.24614  0.03924  1.0000
  Pt  Pt1       1.0  0.25000  0.00000  0.95912  1.0000
  Pt  Pt2       1.0  0.25000  0.50000  0.95912  1.0000
  Pt  Pt3       1.0  0.75000  0.25000  0.87735  1.0000
  Pt  Pt4       1.0  0.75000  0.75000  0.87735  1.0000
  Pt  Pt5       1.0  0.26666  0.50000  0.11345  1.0000
  Pt  Pt6       1.0  0.34526  0.00000  0.15292  1.0000
  Pt  Pt7       1.0  0.74217  0.75547  0.04147  1.0000
  Pt  Pt8       1.0  0.74217  0.24453  0.04147  1.0000
  C   C1        1.0  0.04744  0.00000  0.15780  1.0000
