# generated using pymatgen
data_Li8Ge8Pd8Pt8C
_symmetry_space_group_name_H-M   Pm
_cell_length_a   6.12898000
_cell_length_b   8.66768000
_cell_length_c   26.50080000
_cell_angle_alpha   90.00000000
_cell_angle_beta   90.00000000
_cell_angle_gamma   90.00000000
_symmetry_Int_Tables_number   6
_chemical_formula_structural   Li8Ge8Pd8Pt8C
_chemical_formula_sum   'Li8 Ge8 Pd8 Pt8 C1'
_cell_volume   1407.82948944
_cell_formula_units_Z   1
loop_
 _symmetry_equiv_pos_site_id
 _symmetry_equiv_pos_as_xyz
  1  'x, y, z'
  2  'x, -y, z'
loop_
 _atom_site_type_symbol
 _atom_site_label
 _atom_site_symmetry_multiplicity
 _atom_site_fract_x
 _atom_site_fract_y
 _atom_site_fract_z
 _atom_site_occupancy
  Li  Li0  2  0.00000000  0.25000000  0.95912000  1.0
  Li  Li1  2  0.02436000  0.25267000  0.14098000  1.0
  Li  Li2  1  0.47436000  0.00000000  0.04947000  1.0
  Li  Li3  1  0.50000000  0.00000000  0.87735000  1.0
  Li  Li4  1  0.50000000  0.50000000  0.87735000  1.0
  Li  Li5  1  0.50120000  0.50000000  0.03712000  1.0
  Ge  Ge6  2  0.50000000  0.25000000  0.95912000  1.0
  Ge  Ge7  2  0.50052000  0.25644000  0.12457000  1.0
  Ge  Ge8  1  0.00000000  0.00000000  0.87735000  1.0
  Ge  Ge9  1  0.00000000  0.50000000  0.87735000  1.0
  Ge  Ge10  1  0.99490000  0.00000000  0.03873000  1.0
  Ge  Ge11  1  0.99708000  0.50000000  0.04153000  1.0
  Pd  Pd12  2  0.24073000  0.24615000  0.03925000  1.0
  Pd  Pd13  2  0.25000000  0.25000000  0.87735000  1.0
  Pd  Pd14  1  0.74037000  0.50000000  0.11680000  1.0
  Pd  Pd15  1  0.75000000  0.00000000  0.95912000  1.0
  Pd  Pd16  1  0.75000000  0.50000000  0.95912000  1.0
  Pd  Pd17  1  0.77740000  0.00000000  0.12173000  1.0
  Pt  Pt18  2  0.74218000  0.24457000  0.04148000  1.0
  Pt  Pt19  2  0.75000000  0.25000000  0.87735000  1.0
  Pt  Pt20  1  0.25000000  0.00000000  0.95912000  1.0
  Pt  Pt21  1  0.25000000  0.50000000  0.95912000  1.0
  Pt  Pt22  1  0.26674000  0.50000000  0.11345000  1.0
  Pt  Pt23  1  0.34539000  0.00000000  0.15292000  1.0
  C  C24  1  0.04752000  0.00000000  0.15782000  1.0
