# generated using pymatgen
data_Li8Cu8Ag8Sn8C
_symmetry_space_group_name_H-M   Pm
_cell_length_a   6.43603000
_cell_length_b   9.10192000
_cell_length_c   26.82640000
_cell_angle_alpha   90.00000000
_cell_angle_beta   90.00000000
_cell_angle_gamma   90.00000000
_symmetry_Int_Tables_number   6
_chemical_formula_structural   Li8Cu8Ag8Sn8C
_chemical_formula_sum   'Li8 Cu8 Ag8 Sn8 C1'
_cell_volume   1571.49668684
_cell_formula_units_Z   1
loop_
 _symmetry_equiv_pos_site_id
 _symmetry_equiv_pos_as_xyz
  1  'x, y, z'
  2  'x, -y, z'
loop_
 _atom_site_type_symbol
 _atom_site_label
 _atom_site_symmetry_multiplicity
 _atom_site_fract_x
 _atom_site_fract_y
 _atom_site_fract_z
 _atom_site_occupancy
  Li  Li0  2  0.25000000  0.25000000  0.95759000  1.0
  Li  Li1  2  0.27202000  0.23117000  0.15948000  1.0
  Li  Li2  1  0.73641000  0.00000000  0.04125000  1.0
  Li  Li3  1  0.75000000  0.00000000  0.87277000  1.0
  Li  Li4  1  0.75000000  0.50000000  0.87277000  1.0
  Li  Li5  1  0.76381000  0.50000000  0.04805000  1.0
  Cu  Cu6  2  0.75000000  0.25000000  0.95759000  1.0
  Cu  Cu7  2  0.76605000  0.27239000  0.12198000  1.0
  Cu  Cu8  1  0.24010000  0.50000000  0.04122000  1.0
  Cu  Cu9  1  0.25000000  0.00000000  0.87277000  1.0
  Cu  Cu10  1  0.25000000  0.50000000  0.87277000  1.0
  Cu  Cu11  1  0.26657000  0.00000000  0.04587000  1.0
  Ag  Ag12  2  0.00000000  0.25000000  0.87277000  1.0
  Ag  Ag13  2  0.01173000  0.24796000  0.04116000  1.0
  Ag  Ag14  1  0.48026000  0.50000000  0.12823000  1.0
  Ag  Ag15  1  0.50000000  0.00000000  0.95759000  1.0
  Ag  Ag16  1  0.50000000  0.50000000  0.95759000  1.0
  Ag  Ag17  1  0.55724000  0.00000000  0.13399000  1.0
  Sn  Sn18  2  0.49021000  0.25559000  0.04646000  1.0
  Sn  Sn19  2  0.50000000  0.25000000  0.87277000  1.0
  Sn  Sn20  1  0.00000000  0.00000000  0.95759000  1.0
  Sn  Sn21  1  0.00000000  0.50000000  0.95759000  1.0
  Sn  Sn22  1  0.02162000  0.50000000  0.13685000  1.0
  Sn  Sn23  1  0.97736000  0.00000000  0.12656000  1.0
  C  C24  1  0.25796000  0.00000000  0.16275000  1.0
