# generated using pymatgen
data_LiGaGePd
_symmetry_space_group_name_H-M   'P 1'
_cell_length_a   6.27488000
_cell_length_b   4.43701000
_cell_length_c   26.65550000
_cell_angle_alpha   90.00000000
_cell_angle_beta   90.00000000
_cell_angle_gamma   90.00000000
_symmetry_Int_Tables_number   1
_chemical_formula_structural   LiGaGePd
_chemical_formula_sum   'Li4 Ga4 Ge4 Pd4'
_cell_volume   742.13457586
_cell_formula_units_Z   4
loop_
 _symmetry_equiv_pos_site_id
 _symmetry_equiv_pos_as_xyz
  1  'x, y, z'
loop_
 _atom_site_type_symbol
 _atom_site_label
 _atom_site_symmetry_multiplicity
 _atom_site_fract_x
 _atom_site_fract_y
 _atom_site_fract_z
 _atom_site_occupancy
  Li  Li0  1  0.25000000  0.00000000  0.95839000  1.0
  Li  Li1  1  0.75000000  0.50000000  0.87516000  1.0
  Li  Li2  1  0.24652000  0.00000000  0.14216000  1.0
  Li  Li3  1  0.74286500  0.50000000  0.04155000  1.0
  Ga  Ga4  1  0.00000000  0.00000000  0.87516000  1.0
  Ga  Ga5  1  0.50000000  0.50000000  0.95839000  1.0
  Ga  Ga6  1  0.01249000  0.00000000  0.04331000  1.0
  Ga  Ga7  1  0.51973500  0.50000000  0.13410000  1.0
  Ge  Ge8  1  0.00000000  0.50000000  0.95839000  1.0
  Ge  Ge9  1  0.50000000  0.00000000  0.87516000  1.0
  Ge  Ge10  1  0.00354000  0.50000000  0.12440000  1.0
  Ge  Ge11  1  0.48552500  0.00000000  0.04570000  1.0
  Pd  Pd12  1  0.75000000  0.00000000  0.95839000  1.0
  Pd  Pd13  1  0.25000000  0.50000000  0.87516000  1.0
  Pd  Pd14  1  0.75527000  0.00000000  0.11794000  1.0
  Pd  Pd15  1  0.25016000  0.50000000  0.03703000  1.0
