# generated using pymatgen
data_LiInGePd
_symmetry_space_group_name_H-M   'P 1'
_cell_length_a   6.51863000
_cell_length_b   4.60937000
_cell_length_c   26.91410000
_cell_angle_alpha   90.00000000
_cell_angle_beta   90.00000000
_cell_angle_gamma   90.00000000
_symmetry_Int_Tables_number   1
_chemical_formula_structural   LiInGePd
_chemical_formula_sum   'Li4 In4 Ge4 Pd4'
_cell_volume   808.68197601
_cell_formula_units_Z   4
loop_
 _symmetry_equiv_pos_site_id
 _symmetry_equiv_pos_as_xyz
  1  'x, y, z'
loop_
 _atom_site_type_symbol
 _atom_site_label
 _atom_site_symmetry_multiplicity
 _atom_site_fract_x
 _atom_site_fract_y
 _atom_site_fract_z
 _atom_site_occupancy
  Li  Li0  1  0.25000000  0.00000000  0.95718000  1.0
  Li  Li1  1  0.75000000  0.50000000  0.87155000  1.0
  Li  Li2  1  0.29140000  0.00000000  0.14331500  1.0
  Li  Li3  1  0.78832000  0.50000000  0.04776000  1.0
  In  In4  1  0.00000000  0.50000000  0.95718000  1.0
  In  In5  1  0.50000000  0.00000000  0.87155000  1.0
  In  In6  1  0.99927000  0.50000000  0.14782000  1.0
  In  In7  1  0.49868000  0.00000000  0.04291000  1.0
  Ge  Ge8  1  0.00000000  0.00000000  0.87155000  1.0
  Ge  Ge9  1  0.50000000  0.50000000  0.95718000  1.0
  Ge  Ge10  1  0.02752000  0.00000000  0.05028000  1.0
  Ge  Ge11  1  0.51564500  0.50000000  0.12551500  1.0
  Pd  Pd12  1  0.75000000  0.00000000  0.95718000  1.0
  Pd  Pd13  1  0.25000000  0.50000000  0.87155000  1.0
  Pd  Pd14  1  0.75937000  0.00000000  0.12103000  1.0
  Pd  Pd15  1  0.24315000  0.50000000  0.04095000  1.0
