# generated using pymatgen
data_Sc4Al4In4Pd4C
_symmetry_space_group_name_H-M   'P 1'
_cell_length_a   8.60736000
_cell_length_b   5.88291000
_cell_length_c   24.41210000
_cell_angle_alpha   90.00000000
_cell_angle_beta   90.00000000
_cell_angle_gamma   90.00000000
_symmetry_Int_Tables_number   1
_chemical_formula_structural   Sc4Al4In4Pd4C
_chemical_formula_sum   'Sc4 Al4 In4 Pd4 C1'
_cell_volume   1236.13901043
_cell_formula_units_Z   1
loop_
 _symmetry_equiv_pos_site_id
 _symmetry_equiv_pos_as_xyz
  1  'x, y, z'
loop_
 _atom_site_type_symbol
 _atom_site_label
 _atom_site_symmetry_multiplicity
 _atom_site_fract_x
 _atom_site_fract_y
 _atom_site_fract_z
 _atom_site_occupancy
  Sc  Sc0  1  0.00000000  0.26240000  0.97343000  1.0
  Sc  Sc1  1  0.00000000  0.74688000  0.09037000  1.0
  Sc  Sc2  1  0.50000000  0.21251000  0.96373000  1.0
  Sc  Sc3  1  0.50000000  0.74688000  0.09037000  1.0
  Al  Al4  1  0.77910000  0.00862000  0.90308000  1.0
  Al  Al5  1  0.75000000  0.49792000  0.03012000  1.0
  Al  Al6  1  0.22090000  0.00862000  0.90308000  1.0
  Al  Al7  1  0.25000000  0.49792000  0.03012000  1.0
  In  In8  1  0.72780000  0.53574000  0.90489000  1.0
  In  In9  1  0.75000000  0.99792000  0.03012000  1.0
  In  In10  1  0.27220000  0.53574000  0.90489000  1.0
  In  In11  1  0.25000000  0.99792000  0.03012000  1.0
  Pd  Pd12  1  0.00000000  0.73243000  0.97433000  1.0
  Pd  Pd13  1  0.00000000  0.24688000  0.09037000  1.0
  Pd  Pd14  1  0.50000000  0.70626000  0.98360000  1.0
  Pd  Pd15  1  0.50000000  0.24688000  0.09037000  1.0
  C  C16  1  0.00000000  0.01999000  0.90866000  1.0
