# generated using pymatgen
data_Ca32C
_symmetry_space_group_name_H-M   P1
_cell_length_a   11.12370000
_cell_length_b   11.12370000
_cell_length_c   28.34280000
_cell_angle_alpha   90.00000000
_cell_angle_beta   90.00000000
_cell_angle_gamma   90.00000000
_symmetry_Int_Tables_number   1
_chemical_formula_structural   Ca32C
_chemical_formula_sum   'Ca32 C1'
_cell_volume   3507.04458866
_cell_formula_units_Z   1
loop_
 _symmetry_equiv_pos_site_id
 _symmetry_equiv_pos_as_xyz
  1  'x, y, z'
loop_
 _atom_site_type_symbol
 _atom_site_label
 _atom_site_symmetry_multiplicity
 _atom_site_fract_x
 _atom_site_fract_y
 _atom_site_fract_z
 _atom_site_occupancy
  Ca  Ca0  1  -0.00000000  0.75000000  0.95094000  1.0
  Ca  Ca1  1  -0.00000000  0.25000000  0.95094000  1.0
  Ca  Ca2  1  -0.00000000  0.50000000  0.85282000  1.0
  Ca  Ca3  1  0.00000000  0.00000000  0.85282000  1.0
  Ca  Ca4  1  0.00002000  0.00023000  0.05304000  1.0
  Ca  Ca5  1  0.21906000  0.00032000  0.14748000  1.0
  Ca  Ca6  1  0.24338000  0.49992000  0.14568000  1.0
  Ca  Ca7  1  0.25000000  0.00000000  0.95094000  1.0
  Ca  Ca8  1  0.25000000  0.25000000  0.85282000  1.0
  Ca  Ca9  1  0.25000000  0.50000000  0.95094000  1.0
  Ca  Ca10  1  0.25000000  0.75000000  0.85282000  1.0
  Ca  Ca11  1  0.25184000  0.74798000  0.04896000  1.0
  Ca  Ca12  1  0.25225000  0.25227000  0.04890000  1.0
  Ca  Ca13  1  0.49992000  0.99983000  0.05002000  1.0
  Ca  Ca14  1  0.50000000  0.00000000  0.85282000  1.0
  Ca  Ca15  1  0.50000000  0.25000000  0.95094000  1.0
  Ca  Ca16  1  0.50000000  0.50000000  0.85282000  1.0
  Ca  Ca17  1  0.50000000  0.75000000  0.95094000  1.0
  Ca  Ca18  1  0.50005000  0.24378000  0.14560000  1.0
  Ca  Ca19  1  0.50007000  0.75636000  0.14564000  1.0
  Ca  Ca20  1  0.50043000  0.50053000  0.05004000  1.0
  Ca  Ca21  1  0.74800000  0.25187000  0.04892000  1.0
  Ca  Ca22  1  0.74830000  0.74827000  0.04890000  1.0
  Ca  Ca23  1  0.75000000  0.00000000  0.95094000  1.0
  Ca  Ca24  1  0.75000000  0.25000000  0.85282000  1.0
  Ca  Ca25  1  0.75000000  0.50000000  0.95094000  1.0
  Ca  Ca26  1  0.75000000  0.75000000  0.85282000  1.0
  Ca  Ca27  1  0.75689000  0.49999000  0.14564000  1.0
  Ca  Ca28  1  0.78048000  0.00021000  0.14751000  1.0
  Ca  Ca29  1  0.99980000  0.21944000  0.14748000  1.0
  Ca  Ca30  1  0.99984000  0.78104000  0.14748000  1.0
  Ca  Ca31  1  0.99995000  0.49992000  0.04996000  1.0
  C  C32  1  0.99966000  0.00032000  0.13785000  1.0
