# generated using pymatgen
data_Be16Co16CO
_symmetry_space_group_name_H-M   Pmm2
_cell_length_a   5.19112000
_cell_length_b   7.34136000
_cell_length_c   25.50600000
_cell_angle_alpha   90.00000000
_cell_angle_beta   90.00000000
_cell_angle_gamma   90.00000000
_symmetry_Int_Tables_number   25
_chemical_formula_structural   Be16Co16CO
_chemical_formula_sum   'Be16 Co16 C1 O1'
_cell_volume   972.03061773
_cell_formula_units_Z   1
loop_
 _symmetry_equiv_pos_site_id
 _symmetry_equiv_pos_as_xyz
  1  'x, y, z'
  2  '-x, -y, z'
  3  '-x, y, z'
  4  'x, -y, z'
loop_
 _atom_site_type_symbol
 _atom_site_label
 _atom_site_symmetry_multiplicity
 _atom_site_fract_x
 _atom_site_fract_y
 _atom_site_fract_z
 _atom_site_occupancy
  Be  Be0  2  0.00000000  0.24955000  0.03585000  1.0
  Be  Be1  2  0.00000000  0.25000000  0.89206000  1.0
  Be  Be2  2  0.50000000  0.24905000  0.03580000  1.0
  Be  Be3  2  0.50000000  0.25000000  0.89206000  1.0
  Be  Be4  1  0.00000000  0.00000000  0.10410000  1.0
  Be  Be5  1  0.00000000  0.00000000  0.96402000  1.0
  Be  Be6  1  0.00000000  0.50000000  0.10599000  1.0
  Be  Be7  1  0.00000000  0.50000000  0.96402000  1.0
  Be  Be8  1  0.50000000  0.00000000  0.10203000  1.0
  Be  Be9  1  0.50000000  0.00000000  0.96402000  1.0
  Be  Be10  1  0.50000000  0.50000000  0.10559000  1.0
  Be  Be11  1  0.50000000  0.50000000  0.96402000  1.0
  Co  Co12  4  0.24999000  0.25000000  0.96402000  1.0
  Co  Co13  4  0.25189000  0.25113000  0.10888000  1.0
  Co  Co14  2  0.24864000  0.00000000  0.03525000  1.0
  Co  Co15  2  0.24999000  0.00000000  0.89206000  1.0
  Co  Co16  2  0.24999000  0.50000000  0.89206000  1.0
  Co  Co17  2  0.25004000  0.50000000  0.03623000  1.0
  C  C18  1  0.00000000  0.00000000  0.16921000  1.0
  O  O19  1  0.00000000  0.00000000  0.21489000  1.0
