# generated using pymatgen
data_Sc16Pd16CO
_symmetry_space_group_name_H-M   Pmm2
_cell_length_a   6.66071000
_cell_length_b   9.41967000
_cell_length_c   27.06480000
_cell_angle_alpha   90.00000000
_cell_angle_beta   90.00000000
_cell_angle_gamma   90.00000000
_symmetry_Int_Tables_number   25
_chemical_formula_structural   Sc16Pd16CO
_chemical_formula_sum   'Sc16 Pd16 C1 O1'
_cell_volume   1698.09129600
_cell_formula_units_Z   1
loop_
 _symmetry_equiv_pos_site_id
 _symmetry_equiv_pos_as_xyz
  1  'x, y, z'
  2  '-x, -y, z'
  3  '-x, y, z'
  4  'x, -y, z'
loop_
 _atom_site_type_symbol
 _atom_site_label
 _atom_site_symmetry_multiplicity
 _atom_site_fract_x
 _atom_site_fract_y
 _atom_site_fract_z
 _atom_site_occupancy
  Sc  Sc0  4  0.25000000  0.25000000  0.95649000  1.0
  Sc  Sc1  4  0.25341000  0.25183000  0.13066000  1.0
  Sc  Sc2  2  0.24841000  0.50000000  0.04282000  1.0
  Sc  Sc3  2  0.25000000  0.00000000  0.86948000  1.0
  Sc  Sc4  2  0.25000000  0.50000000  0.86948000  1.0
  Sc  Sc5  2  0.25005000  0.00000000  0.04254000  1.0
  Pd  Pd6  2  0.00000000  0.24229000  0.04765000  1.0
  Pd  Pd7  2  0.00000000  0.25000000  0.86948000  1.0
  Pd  Pd8  2  0.50000000  0.25000000  0.86948000  1.0
  Pd  Pd9  2  0.50000000  0.25166000  0.04442000  1.0
  Pd  Pd10  1  0.00000000  0.00000000  0.13127000  1.0
  Pd  Pd11  1  0.00000000  0.00000000  0.95649000  1.0
  Pd  Pd12  1  0.00000000  0.50000000  0.12334000  1.0
  Pd  Pd13  1  0.00000000  0.50000000  0.95649000  1.0
  Pd  Pd14  1  0.50000000  0.00000000  0.12170000  1.0
  Pd  Pd15  1  0.50000000  0.00000000  0.95649000  1.0
  Pd  Pd16  1  0.50000000  0.50000000  0.12261000  1.0
  Pd  Pd17  1  0.50000000  0.50000000  0.95649000  1.0
  C  C18  1  0.00000000  0.00000000  0.20372000  1.0
  O  O19  1  0.00000000  0.00000000  0.24666000  1.0
