# generated using pymatgen
data_Sc8In8Ga8Pd8C
_symmetry_space_group_name_H-M   'P 1'
_cell_length_a   9.45042000
_cell_length_b   6.68246000
_cell_length_c   27.08780000
_cell_angle_alpha   90.00000000
_cell_angle_beta   90.00000000
_cell_angle_gamma   90.00000000
_symmetry_Int_Tables_number   1
_chemical_formula_structural   Sc8In8Ga8Pd8C
_chemical_formula_sum   'Sc8 In8 Ga8 Pd8 C1'
_cell_volume   1710.65019841
_cell_formula_units_Z   1
loop_
 _symmetry_equiv_pos_site_id
 _symmetry_equiv_pos_as_xyz
  1  'x, y, z'
loop_
 _atom_site_type_symbol
 _atom_site_label
 _atom_site_symmetry_multiplicity
 _atom_site_fract_x
 _atom_site_fract_y
 _atom_site_fract_z
 _atom_site_occupancy
  Sc  Sc0  1  0.75000000  0.75000000  0.04361000  1.0
  Sc  Sc1  1  0.25000000  0.75000000  0.04361000  1.0
  Sc  Sc2  1  0.00000000  0.25000000  0.13083000  1.0
  Sc  Sc3  1  0.50000000  0.25000000  0.13083000  1.0
  Sc  Sc4  1  0.25405000  0.75729000  0.87606000  1.0
  Sc  Sc5  1  0.74595000  0.75729000  0.87606000  1.0
  Sc  Sc6  1  0.50000000  0.25771000  0.95156000  1.0
  Sc  Sc7  1  0.00000000  0.26206000  0.94256000  1.0
  In  In8  1  0.75000000  0.25000000  0.04361000  1.0
  In  In9  1  0.25000000  0.25000000  0.04361000  1.0
  In  In10  1  0.00000000  0.75000000  0.13083000  1.0
  In  In11  1  0.50000000  0.75000000  0.13083000  1.0
  In  In12  1  0.25863000  0.25852000  0.85909000  1.0
  In  In13  1  0.74137000  0.25852000  0.85909000  1.0
  In  In14  1  0.50000000  0.74149000  0.95517000  1.0
  In  In15  1  0.00000000  0.74713000  0.95416000  1.0
  Ga  Ga16  1  0.75000000  0.00000000  0.13083000  1.0
  Ga  Ga17  1  0.25000000  0.00000000  0.13083000  1.0
  Ga  Ga18  1  0.50000000  0.50000000  0.04361000  1.0
  Ga  Ga19  1  0.00000000  0.50000000  0.04361000  1.0
  Ga  Ga20  1  0.25057000  0.01729000  0.95764000  1.0
  Ga  Ga21  1  0.74943000  0.01729000  0.95764000  1.0
  Ga  Ga22  1  0.00000000  0.53922000  0.83902000  1.0
  Ga  Ga23  1  0.50000000  0.54263000  0.83996000  1.0
  Pd  Pd24  1  0.00000000  0.00000000  0.04361000  1.0
  Pd  Pd25  1  0.50000000  0.00000000  0.04361000  1.0
  Pd  Pd26  1  0.25000000  0.50000000  0.13083000  1.0
  Pd  Pd27  1  0.75000000  0.50000000  0.13083000  1.0
  Pd  Pd28  1  0.50000000  0.99941000  0.87243000  1.0
  Pd  Pd29  1  0.00000000  0.94213000  0.85656000  1.0
  Pd  Pd30  1  0.74765000  0.48820000  0.95605000  1.0
  Pd  Pd31  1  0.25235000  0.48820000  0.95605000  1.0
  C  C32  1  0.00000000  0.25518000  0.86166000  1.0
