# generated using pymatgen
data_YScInPd
_symmetry_space_group_name_H-M   Pm
_cell_length_a   6.25545000
_cell_length_b   4.82123000
_cell_length_c   24.46440000
_cell_angle_alpha   90.00000000
_cell_angle_beta   90.00000000
_cell_angle_gamma   90.00000000
_symmetry_Int_Tables_number   6
_chemical_formula_structural   YScInPd
_chemical_formula_sum   'Y2 Sc2 In2 Pd2'
_cell_volume   737.82093940
_cell_formula_units_Z   2
loop_
 _symmetry_equiv_pos_site_id
 _symmetry_equiv_pos_as_xyz
  1  'x, y, z'
  2  'x, -y, z'
loop_
 _atom_site_type_symbol
 _atom_site_label
 _atom_site_symmetry_multiplicity
 _atom_site_fract_x
 _atom_site_fract_y
 _atom_site_fract_z
 _atom_site_occupancy
  Y  Y0  1  0.18749000  0.00000000  0.97082500  1.0
  Y  Y1  1  0.50000000  0.00000000  0.09124000  1.0
  Sc  Sc2  1  0.48342500  0.50000000  0.92301000  1.0
  Sc  Sc3  1  0.82685000  0.50000000  0.03041000  1.0
  In  In4  1  0.00000000  0.00000000  0.09124000  1.0
  In  In5  1  0.69780500  0.00000000  0.95539000  1.0
  Pd  Pd6  1  0.32685000  0.50000000  0.03041000  1.0
  Pd  Pd7  1  0.98017000  0.50000000  0.93169000  1.0
