# generated using pymatgen
data_Nb4Al4Ni8CO
_symmetry_space_group_name_H-M   'P 1'
_cell_length_a   6.00915000
_cell_length_b   6.00915000
_cell_length_c   24.50690000
_cell_angle_alpha   90.00000000
_cell_angle_beta   90.00000000
_cell_angle_gamma   90.00000000
_symmetry_Int_Tables_number   1
_chemical_formula_structural   Nb4Al4Ni8CO
_chemical_formula_sum   'Nb4 Al4 Ni8 C1 O1'
_cell_volume   884.94130940
_cell_formula_units_Z   1
loop_
 _symmetry_equiv_pos_site_id
 _symmetry_equiv_pos_as_xyz
  1  'x, y, z'
loop_
 _atom_site_type_symbol
 _atom_site_label
 _atom_site_symmetry_multiplicity
 _atom_site_fract_x
 _atom_site_fract_y
 _atom_site_fract_z
 _atom_site_occupancy
  Nb  Nb0  1  0.00000000  0.00000000  0.09195000  1.0
  Nb  Nb1  1  0.50000000  0.50000000  0.09195000  1.0
  Nb  Nb2  1  0.50000000  0.00000000  0.96935000  1.0
  Nb  Nb3  1  0.00000000  0.50000000  0.96935000  1.0
  Al  Al4  1  0.00000000  0.00000000  0.96935000  1.0
  Al  Al5  1  0.50000000  0.00000000  0.09195000  1.0
  Al  Al6  1  0.00000000  0.50000000  0.09195000  1.0
  Al  Al7  1  0.50000000  0.50000000  0.96935000  1.0
  Ni  Ni8  1  0.25000000  0.25000000  0.03065000  1.0
  Ni  Ni9  1  0.75000000  0.75000000  0.90805000  1.0
  Ni  Ni10  1  0.75000000  0.25000000  0.03065000  1.0
  Ni  Ni11  1  0.25000000  0.75000000  0.90805000  1.0
  Ni  Ni12  1  0.75000000  0.75000000  0.03065000  1.0
  Ni  Ni13  1  0.25000000  0.25000000  0.90805000  1.0
  Ni  Ni14  1  0.25000000  0.75000000  0.03065000  1.0
  Ni  Ni15  1  0.75000000  0.25000000  0.90805000  1.0
  C  C16  1  0.00000000  0.00000000  0.16948000  1.0
  O  O17  1  0.00000000  0.00000000  0.21641000  1.0
