# generated using pymatgen
data_Li8Y8In8Pb8CO
_symmetry_space_group_name_H-M   Pm
_cell_length_a   9.42336000
_cell_length_b   9.00122000
_cell_length_c   26.99670000
_cell_angle_alpha   90.00000000
_cell_angle_beta   90.00000000
_cell_angle_gamma   90.00000000
_symmetry_Int_Tables_number   6
_chemical_formula_structural   Li8Y8In8Pb8CO
_chemical_formula_sum   'Li8 Y8 In8 Pb8 C1 O1'
_cell_volume   2289.90697375
_cell_formula_units_Z   1
loop_
 _symmetry_equiv_pos_site_id
 _symmetry_equiv_pos_as_xyz
  1  'x, y, z'
  2  'x, -y, z'
loop_
 _atom_site_type_symbol
 _atom_site_label
 _atom_site_symmetry_multiplicity
 _atom_site_fract_x
 _atom_site_fract_y
 _atom_site_fract_z
 _atom_site_occupancy
  Li  Li0  2  0.00000000  0.24999000  0.95681000  1.0
  Li  Li1  2  0.50000000  0.24999000  0.95681000  1.0
  Li  Li2  2  0.50025000  0.25697000  0.13597000  1.0
  Li  Li3  2  0.99975000  0.25697000  0.13597000  1.0
  Y  Y4  2  0.25000000  0.24892000  0.04426000  1.0
  Y  Y5  2  0.25000000  0.24999000  0.87042000  1.0
  Y  Y6  2  0.75000000  0.24840000  0.04426000  1.0
  Y  Y7  2  0.75000000  0.24999000  0.87042000  1.0
  In  In8  1  0.00000000  0.00000000  0.87042000  1.0
  In  In9  1  0.00000000  0.50000000  0.87042000  1.0
  In  In10  1  0.50000000  0.00000000  0.87042000  1.0
  In  In11  1  0.50000000  0.50000000  0.87042000  1.0
  In  In12  1  0.50018000  0.00000000  0.05768000  1.0
  In  In13  1  0.50023000  0.50000000  0.05400000  1.0
  In  In14  1  0.99977000  0.50000000  0.05400000  1.0
  In  In15  1  0.99982000  0.00000000  0.05768000  1.0
  Pb  Pb16  1  0.25000000  0.00000000  0.13842000  1.0
  Pb  Pb17  1  0.25000000  0.00000000  0.95681000  1.0
  Pb  Pb18  1  0.25000000  0.50000000  0.13619000  1.0
  Pb  Pb19  1  0.25000000  0.50000000  0.95681000  1.0
  Pb  Pb20  1  0.75000000  0.00000000  0.13899000  1.0
  Pb  Pb21  1  0.75000000  0.00000000  0.95681000  1.0
  Pb  Pb22  1  0.75000000  0.50000000  0.13630000  1.0
  Pb  Pb23  1  0.75000000  0.50000000  0.95681000  1.0
  C  C24  1  0.24991000  0.50000000  0.29455000  1.0
  O  O25  1  0.25005000  0.50000000  0.33659000  1.0
