data_image0
_chemical_formula_structural       Nb4Al4Co8CO
_chemical_formula_sum              "Nb4 Al4 Co8 C1 O1"
_cell_length_a       5.97844
_cell_length_b       5.97844
_cell_length_c       24.4838
_cell_angle_alpha    90
_cell_angle_beta     90
_cell_angle_gamma    90

_space_group_name_H-M_alt    "P 1"
_space_group_IT_number       1

loop_
  _space_group_symop_operation_xyz
  'x, y, z'

loop_
  _atom_site_type_symbol
  _atom_site_label
  _atom_site_symmetry_multiplicity
  _atom_site_fract_x
  _atom_site_fract_y
  _atom_site_fract_z
  _atom_site_occupancy
  Nb  Nb1       1.0  0.00000  0.00000  0.90843  1.0000
  Nb  Nb2       1.0  0.50000  0.50000  0.90843  1.0000
  Nb  Nb3       1.0  0.50000  0.00000  0.03052  1.0000
  Nb  Nb4       1.0  0.00000  0.50000  0.03052  1.0000
  Al  Al1       1.0  0.00000  0.00000  0.03052  1.0000
  Al  Al2       1.0  0.50000  0.00000  0.90843  1.0000
  Al  Al3       1.0  0.00000  0.50000  0.90843  1.0000
  Al  Al4       1.0  0.50000  0.50000  0.03052  1.0000
  Co  Co1       1.0  0.25000  0.25000  0.96948  1.0000
  Co  Co2       1.0  0.75000  0.75000  0.09157  1.0000
  Co  Co3       1.0  0.75000  0.25000  0.96948  1.0000
  Co  Co4       1.0  0.25000  0.75000  0.09157  1.0000
  Co  Co5       1.0  0.75000  0.75000  0.96948  1.0000
  Co  Co6       1.0  0.25000  0.25000  0.09157  1.0000
  Co  Co7       1.0  0.25000  0.75000  0.96948  1.0000
  Co  Co8       1.0  0.75000  0.25000  0.09157  1.0000
  C   C1        1.0  0.25000  0.25000  0.16917  1.0000
  O   O1        1.0  0.25000  0.25000  0.21614  1.0000
