# generated using pymatgen
data_GaFe3
_symmetry_space_group_name_H-M   'P 1'
_cell_length_a   4.10905407
_cell_length_b   4.10905407
_cell_length_c   24.35830000
_cell_angle_alpha   90.00000000
_cell_angle_beta   90.00000000
_cell_angle_gamma   90.00000000
_symmetry_Int_Tables_number   1
_chemical_formula_structural   GaFe3
_chemical_formula_sum   'Ga2 Fe6'
_cell_volume   411.27346298
_cell_formula_units_Z   2
loop_
 _symmetry_equiv_pos_site_id
 _symmetry_equiv_pos_as_xyz
  1  'x, y, z'
loop_
 _atom_site_type_symbol
 _atom_site_label
 _atom_site_symmetry_multiplicity
 _atom_site_fract_x
 _atom_site_fract_y
 _atom_site_fract_z
 _atom_site_occupancy
  Ga  Ga0  1  0.00000000  0.00000000  0.91054000  1.0
  Ga  Ga1  1  0.50000000  0.50000000  0.02982000  1.0
  Fe  Fe2  1  0.50000000  0.00000000  0.97018000  1.0
  Fe  Fe3  1  0.50000000  0.00000000  0.08946000  1.0
  Fe  Fe4  1  0.00000000  0.50000000  0.97018000  1.0
  Fe  Fe5  1  0.00000000  0.50000000  0.08946000  1.0
  Fe  Fe6  1  0.00000000  0.00000000  0.02982000  1.0
  Fe  Fe7  1  0.50000000  0.50000000  0.91054000  1.0
