# generated using pymatgen
data_ZnCo2Ge
_symmetry_space_group_name_H-M   P2
_cell_length_a   5.75846000
_cell_length_b   24.31880000
_cell_length_c   5.75846000
_cell_angle_alpha   90.00000000
_cell_angle_beta   90.00000000
_cell_angle_gamma   90.00000000
_symmetry_Int_Tables_number   3
_chemical_formula_structural   ZnCo2Ge
_chemical_formula_sum   'Zn4 Co8 Ge4'
_cell_volume   806.40804159
_cell_formula_units_Z   4
loop_
 _symmetry_equiv_pos_site_id
 _symmetry_equiv_pos_as_xyz
  1  'x, y, z'
  2  '-x, y, -z'
loop_
 _atom_site_type_symbol
 _atom_site_label
 _atom_site_symmetry_multiplicity
 _atom_site_fract_x
 _atom_site_fract_y
 _atom_site_fract_z
 _atom_site_occupancy
  Zn  Zn0  2  0.25000000  0.97040000  0.75000000  1.0
  Zn  Zn1  2  0.25002000  0.09053000  0.24990000  1.0
  Co  Co2  1  0.00000000  0.03179000  0.00000000  1.0
  Co  Co3  1  0.00000000  0.03181000  0.50000000  1.0
  Co  Co4  1  0.00000000  0.91120000  0.00000000  1.0
  Co  Co5  1  0.00000000  0.91120000  0.50000000  1.0
  Co  Co6  1  0.50000000  0.03168000  0.00000000  1.0
  Co  Co7  1  0.50000000  0.03177000  0.50000000  1.0
  Co  Co8  1  0.50000000  0.91120000  0.00000000  1.0
  Co  Co9  1  0.50000000  0.91120000  0.50000000  1.0
  Ge  Ge10  2  0.25000000  0.97040000  0.25000000  1.0
  Ge  Ge11  2  0.25005000  0.08867000  0.75008000  1.0
