# generated using pymatgen
data_Li2GaAu
_symmetry_space_group_name_H-M   Cmm2
_cell_length_a   8.90130058
_cell_length_b   8.90130058
_cell_length_c   24.72060000
_cell_angle_alpha   90.00000000
_cell_angle_beta   90.00000000
_cell_angle_gamma   90.00000000
_symmetry_Int_Tables_number   35
_chemical_formula_structural   Li2GaAu
_chemical_formula_sum   'Li16 Ga8 Au8'
_cell_volume   1958.69105678
_cell_formula_units_Z   8
loop_
 _symmetry_equiv_pos_site_id
 _symmetry_equiv_pos_as_xyz
  1  'x, y, z'
  2  '-x, -y, z'
  3  '-x, y, z'
  4  'x, -y, z'
  5  'x+1/2, y+1/2, z'
  6  '-x+1/2, -y+1/2, z'
  7  '-x+1/2, y+1/2, z'
  8  'x+1/2, -y+1/2, z'
loop_
 _atom_site_type_symbol
 _atom_site_label
 _atom_site_symmetry_multiplicity
 _atom_site_fract_x
 _atom_site_fract_y
 _atom_site_fract_z
 _atom_site_occupancy
  Li  Li0  4  0.00000000  0.24808000  0.10917000  1.0
  Li  Li1  4  0.25000000  0.00000000  0.96817000  1.0
  Li  Li2  4  0.25000000  0.25000000  0.90452000  1.0
  Li  Li3  2  0.00000000  0.00000000  0.03209000  1.0
  Li  Li4  2  0.00000000  0.50000000  0.03308000  1.0
  Ga  Ga5  4  0.25000000  0.25000000  0.03212000  1.0
  Ga  Ga6  2  0.00000000  0.00000000  0.90452000  1.0
  Ga  Ga7  2  0.00000000  0.50000000  0.90452000  1.0
  Au  Au8  4  0.00000000  0.25000000  0.96817000  1.0
  Au  Au9  4  0.24896000  0.00000000  0.08974000  1.0
