# generated using pymatgen
data_TiIr
_symmetry_space_group_name_H-M   'P 1'
_cell_length_a   2.94331000
_cell_length_b   2.94331000
_cell_length_c   25.28270000
_cell_angle_alpha   90.00000000
_cell_angle_beta   90.00000000
_cell_angle_gamma   90.00000000
_symmetry_Int_Tables_number   1
_chemical_formula_structural   TiIr
_chemical_formula_sum   'Ti2 Ir2'
_cell_volume   219.02589485
_cell_formula_units_Z   2
loop_
 _symmetry_equiv_pos_site_id
 _symmetry_equiv_pos_as_xyz
  1  'x, y, z'
loop_
 _atom_site_type_symbol
 _atom_site_label
 _atom_site_symmetry_multiplicity
 _atom_site_fract_x
 _atom_site_fract_y
 _atom_site_fract_z
 _atom_site_occupancy
  Ti  Ti0  1  0.00000000  0.00000000  0.08353000  1.0
  Ti  Ti1  1  0.00000000  0.00000000  0.94424000  1.0
  Ir  Ir2  1  0.50000000  0.50000000  0.01389000  1.0
  Ir  Ir3  1  0.50000000  0.50000000  0.87459000  1.0
