# generated using pymatgen
data_Hf8Ga8Ni16C
_symmetry_space_group_name_H-M   'P 1'
_cell_length_a   6.09904000
_cell_length_b   8.62534000
_cell_length_c   26.46900000
_cell_angle_alpha   90.00000000
_cell_angle_beta   90.00000000
_cell_angle_gamma   90.00000000
_symmetry_Int_Tables_number   1
_chemical_formula_structural   Hf8Ga8Ni16C
_chemical_formula_sum   'Hf8 Ga8 Ni16 C1'
_cell_volume   1392.43598725
_cell_formula_units_Z   1
loop_
 _symmetry_equiv_pos_site_id
 _symmetry_equiv_pos_as_xyz
  1  'x, y, z'
loop_
 _atom_site_type_symbol
 _atom_site_label
 _atom_site_symmetry_multiplicity
 _atom_site_fract_x
 _atom_site_fract_y
 _atom_site_fract_z
 _atom_site_occupancy
  Hf  Hf0  1  0.00000000  0.00000000  0.87780000  1.0
  Hf  Hf1  1  0.50000000  0.25000000  0.95927000  1.0
  Hf  Hf2  1  0.50000000  0.75000000  0.95927000  1.0
  Hf  Hf3  1  1.00000000  0.50000000  0.87780000  1.0
  Hf  Hf4  1  0.99599000  0.50654000  0.04366000  1.0
  Hf  Hf5  1  0.44831000  0.74998000  0.12294000  1.0
  Hf  Hf6  1  0.49618000  0.25001000  0.11566000  1.0
  Hf  Hf7  1  0.99597000  0.99345000  0.04366000  1.0
  Ga  Ga8  1  1.00000000  0.75000000  0.95927000  1.0
  Ga  Ga9  1  0.50000000  0.00000000  0.87780000  1.0
  Ga  Ga10  1  1.00000000  0.25000000  0.95927000  1.0
  Ga  Ga11  1  0.50000000  0.50000000  0.87780000  1.0
  Ga  Ga12  1  0.88893000  0.24998000  0.15857000  1.0
  Ga  Ga13  1  0.49253000  0.49880000  0.04168000  1.0
  Ga  Ga14  1  0.98248000  0.75000000  0.12470000  1.0
  Ga  Ga15  1  0.49253000  0.00121000  0.04168000  1.0
  Ni  Ni16  1  0.25000000  0.00000000  0.95927000  1.0
  Ni  Ni17  1  0.75000000  0.50000000  0.95927000  1.0
  Ni  Ni18  1  0.75000000  0.00000000  0.95927000  1.0
  Ni  Ni19  1  0.25000000  0.50000000  0.95927000  1.0
  Ni  Ni20  1  0.75000000  0.75000000  0.87780000  1.0
  Ni  Ni21  1  0.25000000  0.25000000  0.87780000  1.0
  Ni  Ni22  1  0.25000000  0.75000000  0.87780000  1.0
  Ni  Ni23  1  0.75000000  0.25000000  0.87780000  1.0
  Ni  Ni24  1  0.17399000  0.47438000  0.13041000  1.0
  Ni  Ni25  1  0.73461000  0.99039000  0.12007000  1.0
  Ni  Ni26  1  0.73462000  0.50960000  0.12007000  1.0
  Ni  Ni27  1  0.17417000  0.02557000  0.13039000  1.0
  Ni  Ni28  1  0.75913000  0.25000000  0.03682000  1.0
  Ni  Ni29  1  0.26215000  0.75000000  0.03716000  1.0
  Ni  Ni30  1  0.23859000  0.25000000  0.03731000  1.0
  Ni  Ni31  1  0.71541000  0.75001000  0.04792000  1.0
  C  C32  1  0.20013000  0.24997000  0.15165000  1.0
