data_image0
_chemical_formula_structural       Sc4In12C
_chemical_formula_sum              "Sc4 In12 C1"
_cell_length_a       9.13703
_cell_length_b       6.46086
_cell_length_c       24.8456
_cell_angle_alpha    90
_cell_angle_beta     90
_cell_angle_gamma    90

_space_group_name_H-M_alt    "P 1"
_space_group_IT_number       1

loop_
  _space_group_symop_operation_xyz
  'x, y, z'

loop_
  _atom_site_type_symbol
  _atom_site_label
  _atom_site_symmetry_multiplicity
  _atom_site_fract_x
  _atom_site_fract_y
  _atom_site_fract_z
  _atom_site_occupancy
  Sc  Sc1       1.0  0.04851  0.01749  0.09671  1.0000
  Sc  Sc2       1.0  0.00000  0.50000  0.96750  1.0000
  Sc  Sc3       1.0  0.45149  0.01748  0.09671  1.0000
  Sc  Sc4       1.0  0.50000  0.50000  0.96750  1.0000
  In  In1       1.0  0.02072  0.51131  0.11511  1.0000
  In  In2       1.0  0.24999  0.73627  0.03228  1.0000
  In  In3       1.0  0.25000  0.28076  0.02709  1.0000
  In  In4       1.0  0.00000  0.00000  0.96750  1.0000
  In  In5       1.0  0.25000  0.25000  0.90249  1.0000
  In  In6       1.0  0.25000  0.75000  0.90249  1.0000
  In  In7       1.0  0.47928  0.51130  0.11511  1.0000
  In  In8       1.0  0.75000  0.76393  0.04021  1.0000
  In  In9       1.0  0.75000  0.26861  0.04705  1.0000
  In  In10      1.0  0.50000  0.00000  0.96750  1.0000
  In  In11      1.0  0.75000  0.25000  0.90249  1.0000
  In  In12      1.0  0.75000  0.75000  0.90249  1.0000
  C   C1        1.0  0.25000  0.15076  0.11201  1.0000
