data_image0
_chemical_formula_structural       YAlInPdYAlInPdYAlInPdYAlInPdCO
_chemical_formula_sum              "Y4 Al4 In4 Pd4 C1 O1"
_cell_length_a       6.15545
_cell_length_b       8.8646
_cell_length_c       24.5827
_cell_angle_alpha    90
_cell_angle_beta     90
_cell_angle_gamma    90

_space_group_name_H-M_alt    "P 1"
_space_group_IT_number       1

loop_
  _space_group_symop_operation_xyz
  'x, y, z'

loop_
  _atom_site_type_symbol
  _atom_site_label
  _atom_site_symmetry_multiplicity
  _atom_site_fract_x
  _atom_site_fract_y
  _atom_site_fract_z
  _atom_site_occupancy
  Y   Y1        1.0  0.50000  0.00000  0.90679  1.0000
  Al  Al1       1.0  0.00000  0.00000  0.90679  1.0000
  In  In1       1.0  0.21976  0.25000  0.96893  1.0000
  Pd  Pd1       1.0  0.71976  0.25000  0.96893  1.0000
  Y   Y2        1.0  0.93953  0.00000  0.03107  1.0000
  Al  Al2       1.0  0.43953  0.00000  0.03107  1.0000
  In  In2       1.0  0.65929  0.25000  0.09321  1.0000
  Pd  Pd2       1.0  0.15929  0.25000  0.09321  1.0000
  Y   Y3        1.0  0.50000  0.50000  0.90679  1.0000
  Al  Al3       1.0  0.00000  0.50000  0.90679  1.0000
  In  In3       1.0  0.21976  0.75000  0.96893  1.0000
  Pd  Pd3       1.0  0.71976  0.75000  0.96893  1.0000
  Y   Y4        1.0  0.93953  0.50000  0.03107  1.0000
  Al  Al4       1.0  0.43953  0.50000  0.03107  1.0000
  In  In4       1.0  0.65929  0.75000  0.09321  1.0000
  Pd  Pd4       1.0  0.15929  0.75000  0.09321  1.0000
  C   C1        1.0  0.15929  0.25000  0.17050  1.0000
  O   O1        1.0  0.15929  0.25000  0.21728  1.0000
