data_image0
_chemical_formula_structural       Al8Cu24CO
_chemical_formula_sum              "Al8 Cu24 C1 O1"
_cell_length_a       5.88044
_cell_length_b       8.3162
_cell_length_c       26.2371
_cell_angle_alpha    90
_cell_angle_beta     90
_cell_angle_gamma    90

_space_group_name_H-M_alt    "P 1"
_space_group_IT_number       1

loop_
  _space_group_symop_operation_xyz
  'x, y, z'

loop_
  _atom_site_type_symbol
  _atom_site_label
  _atom_site_symmetry_multiplicity
  _atom_site_fract_x
  _atom_site_fract_y
  _atom_site_fract_z
  _atom_site_occupancy
  Al  Al1       1.0  0.00000  0.00000  0.88114  1.0000
  Al  Al2       1.0  0.50000  0.25000  0.96038  1.0000
  Al  Al3       1.0  0.50000  0.75000  0.96038  1.0000
  Al  Al4       1.0  0.00000  0.50000  0.88114  1.0000
  Al  Al5       1.0  0.00000  0.50000  0.03962  1.0000
  Al  Al6       1.0  0.50000  0.75000  0.11886  1.0000
  Al  Al7       1.0  0.50000  0.25000  0.11886  1.0000
  Al  Al8       1.0  0.00000  0.00000  0.03962  1.0000
  Cu  Cu1       1.0  0.25000  0.00000  0.96038  1.0000
  Cu  Cu2       1.0  0.75000  0.50000  0.96038  1.0000
  Cu  Cu3       1.0  0.75000  0.00000  0.96038  1.0000
  Cu  Cu4       1.0  0.25000  0.50000  0.96038  1.0000
  Cu  Cu5       1.0  0.75000  0.75000  0.88114  1.0000
  Cu  Cu6       1.0  0.25000  0.25000  0.88114  1.0000
  Cu  Cu7       1.0  0.25000  0.75000  0.88114  1.0000
  Cu  Cu8       1.0  0.75000  0.25000  0.88114  1.0000
  Cu  Cu9       1.0  0.00000  0.75000  0.96038  1.0000
  Cu  Cu10      1.0  0.50000  0.00000  0.88114  1.0000
  Cu  Cu11      1.0  0.00000  0.25000  0.96038  1.0000
  Cu  Cu12      1.0  0.50000  0.50000  0.88114  1.0000
  Cu  Cu13      1.0  0.25000  0.50000  0.11886  1.0000
  Cu  Cu14      1.0  0.75000  0.00000  0.11886  1.0000
  Cu  Cu15      1.0  0.75000  0.50000  0.11886  1.0000
  Cu  Cu16      1.0  0.25000  0.00000  0.11886  1.0000
  Cu  Cu17      1.0  0.75000  0.25000  0.03962  1.0000
  Cu  Cu18      1.0  0.25000  0.75000  0.03962  1.0000
  Cu  Cu19      1.0  0.25000  0.25000  0.03962  1.0000
  Cu  Cu20      1.0  0.75000  0.75000  0.03962  1.0000
  Cu  Cu21      1.0  0.00000  0.25000  0.11886  1.0000
  Cu  Cu22      1.0  0.50000  0.50000  0.03962  1.0000
  Cu  Cu23      1.0  0.00000  0.75000  0.11886  1.0000
  Cu  Cu24      1.0  0.50000  0.00000  0.03962  1.0000
  C   C1        1.0  0.25000  0.00000  0.19128  1.0000
  O   O1        1.0  0.25000  0.00000  0.23511  1.0000
