# generated using pymatgen
data_Al8Cu24CO
_symmetry_space_group_name_H-M   Pm
_cell_length_a   5.88044000
_cell_length_b   8.31620000
_cell_length_c   26.23710000
_cell_angle_alpha   90.00000000
_cell_angle_beta   90.00000000
_cell_angle_gamma   90.00000000
_symmetry_Int_Tables_number   6
_chemical_formula_structural   Al8Cu24CO
_chemical_formula_sum   'Al8 Cu24 C1 O1'
_cell_volume   1283.07067450
_cell_formula_units_Z   1
loop_
 _symmetry_equiv_pos_site_id
 _symmetry_equiv_pos_as_xyz
  1  'x, y, z'
  2  'x, -y, z'
loop_
 _atom_site_type_symbol
 _atom_site_label
 _atom_site_symmetry_multiplicity
 _atom_site_fract_x
 _atom_site_fract_y
 _atom_site_fract_z
 _atom_site_occupancy
  Al  Al0  2  0.50000000  0.25000000  0.96038000  1.0
  Al  Al1  2  0.50901000  0.25371000  0.12027000  1.0
  Al  Al2  1  0.00000000  0.00000000  0.88114000  1.0
  Al  Al3  1  0.00000000  0.50000000  0.88114000  1.0
  Al  Al4  1  0.01423000  0.00000000  0.04353000  1.0
  Al  Al5  1  0.99000000  0.50000000  0.04231000  1.0
  Cu  Cu6  2  0.00000000  0.25000000  0.96038000  1.0
  Cu  Cu7  2  0.25000000  0.25000000  0.88114000  1.0
  Cu  Cu8  2  0.25468000  0.25758000  0.03917000  1.0
  Cu  Cu9  2  0.74655000  0.24196000  0.03726000  1.0
  Cu  Cu10  2  0.75000000  0.25000000  0.88114000  1.0
  Cu  Cu11  2  0.99505000  0.25238000  0.11506000  1.0
  Cu  Cu12  1  0.25000000  0.00000000  0.96038000  1.0
  Cu  Cu13  1  0.25000000  0.50000000  0.96038000  1.0
  Cu  Cu14  1  0.26016000  0.50000000  0.11784000  1.0
  Cu  Cu15  1  0.26216000  0.00000000  0.12872000  1.0
  Cu  Cu16  1  0.47885000  0.00000000  0.04152000  1.0
  Cu  Cu17  1  0.50000000  0.00000000  0.88114000  1.0
  Cu  Cu18  1  0.50000000  0.50000000  0.88114000  1.0
  Cu  Cu19  1  0.51242000  0.50000000  0.03813000  1.0
  Cu  Cu20  1  0.73978000  0.00000000  0.11748000  1.0
  Cu  Cu21  1  0.74486000  0.50000000  0.12229000  1.0
  Cu  Cu22  1  0.75000000  0.00000000  0.96038000  1.0
  Cu  Cu23  1  0.75000000  0.50000000  0.96038000  1.0
  C  C24  1  0.21064000  0.00000000  0.19953000  1.0
  O  O25  1  0.19249000  0.00000000  0.24307000  1.0
