# generated using pymatgen
data_Li8In8Pd8Rh8C
_symmetry_space_group_name_H-M   'P 1'
_cell_length_a   8.90634000
_cell_length_b   6.29773000
_cell_length_c   26.67980000
_cell_angle_alpha   90.00000000
_cell_angle_beta   90.00000000
_cell_angle_gamma   90.00000000
_symmetry_Int_Tables_number   1
_chemical_formula_structural   Li8In8Pd8Rh8C
_chemical_formula_sum   'Li8 In8 Pd8 Rh8 C1'
_cell_volume   1496.46263460
_cell_formula_units_Z   1
loop_
 _symmetry_equiv_pos_site_id
 _symmetry_equiv_pos_as_xyz
  1  'x, y, z'
loop_
 _atom_site_type_symbol
 _atom_site_label
 _atom_site_symmetry_multiplicity
 _atom_site_fract_x
 _atom_site_fract_y
 _atom_site_fract_z
 _atom_site_occupancy
  Li  Li0  1  0.00000000  0.00000000  0.04173000  1.0
  Li  Li1  1  0.50000000  0.00000000  0.04173000  1.0
  Li  Li2  1  0.25002000  0.50000000  0.12518000  1.0
  Li  Li3  1  0.74998000  0.50000000  0.12518000  1.0
  Li  Li4  1  0.50000000  0.99642000  0.86755000  1.0
  Li  Li5  1  0.00000000  0.95564000  0.88452000  1.0
  Li  Li6  1  0.74948000  0.49715000  0.95670000  1.0
  Li  Li7  1  0.25052000  0.49715000  0.95670000  1.0
  In  In8  1  0.75002000  0.00000000  0.12518000  1.0
  In  In9  1  0.24998000  0.00000000  0.12518000  1.0
  In  In10  1  0.50000000  0.50000000  0.04173000  1.0
  In  In11  1  0.00000000  0.50000000  0.04173000  1.0
  In  In12  1  0.24728000  0.00053000  0.95863000  1.0
  In  In13  1  0.75272000  0.00053000  0.95863000  1.0
  In  In14  1  0.00000000  0.58845000  0.85001000  1.0
  In  In15  1  0.50000000  0.46917000  0.86788000  1.0
  Pd  Pd16  1  0.75002000  0.75000000  0.04173000  1.0
  Pd  Pd17  1  0.24998000  0.75000000  0.04173000  1.0
  Pd  Pd18  1  0.00000000  0.25000000  0.12518000  1.0
  Pd  Pd19  1  0.50000000  0.25000000  0.12518000  1.0
  Pd  Pd20  1  0.26488000  0.74146000  0.87811000  1.0
  Pd  Pd21  1  0.73512000  0.74146000  0.87811000  1.0
  Pd  Pd22  1  0.50000000  0.24581000  0.95694000  1.0
  Pd  Pd23  1  0.00000000  0.26180000  0.95555000  1.0
  Rh  Rh24  1  0.75002000  0.25000000  0.04173000  1.0
  Rh  Rh25  1  0.24998000  0.25000000  0.04173000  1.0
  Rh  Rh26  1  0.00000000  0.75000000  0.12518000  1.0
  Rh  Rh27  1  0.50000000  0.75000000  0.12518000  1.0
  Rh  Rh28  1  0.19915000  0.24399000  0.87053000  1.0
  Rh  Rh29  1  0.80085000  0.24399000  0.87053000  1.0
  Rh  Rh30  1  0.50000000  0.74658000  0.95624000  1.0
  Rh  Rh31  1  0.00000000  0.74121000  0.95900000  1.0
  C  C32  1  0.00000000  0.22773000  0.84988000  1.0
