data_image0
_chemical_formula_structural       V3AuV3AuV3AuV3AuV3AuV3AuV3AuV3AuC
_chemical_formula_sum              "V24 Au8 C1"
_cell_length_a       7.78093
_cell_length_b       7.78093
_cell_length_c       25.8357
_cell_angle_alpha    90
_cell_angle_beta     90
_cell_angle_gamma    90

_space_group_name_H-M_alt    "P 1"
_space_group_IT_number       1

loop_
  _space_group_symop_operation_xyz
  'x, y, z'

loop_
  _atom_site_type_symbol
  _atom_site_label
  _atom_site_symmetry_multiplicity
  _atom_site_fract_x
  _atom_site_fract_y
  _atom_site_fract_z
  _atom_site_occupancy
  V   V1        1.0  0.00000  0.25000  0.03765  1.0000
  V   V2        1.0  0.25000  0.00000  0.03765  1.0000
  V   V3        1.0  0.25000  0.25000  0.11294  1.0000
  Au  Au1       1.0  0.00000  0.00000  0.11294  1.0000
  V   V4        1.0  0.00000  0.25000  0.88706  1.0000
  V   V5        1.0  0.25000  0.00000  0.88706  1.0000
  V   V6        1.0  0.25000  0.25000  0.96235  1.0000
  Au  Au2       1.0  0.00000  0.00000  0.96235  1.0000
  V   V7        1.0  0.00000  0.75000  0.03765  1.0000
  V   V8        1.0  0.25000  0.50000  0.03765  1.0000
  V   V9        1.0  0.25000  0.75000  0.11294  1.0000
  Au  Au3       1.0  0.00000  0.50000  0.11294  1.0000
  V   V10       1.0  0.00000  0.75000  0.88706  1.0000
  V   V11       1.0  0.25000  0.50000  0.88706  1.0000
  V   V12       1.0  0.25000  0.75000  0.96235  1.0000
  Au  Au4       1.0  0.00000  0.50000  0.96235  1.0000
  V   V13       1.0  0.50000  0.25000  0.03765  1.0000
  V   V14       1.0  0.75000  0.00000  0.03765  1.0000
  V   V15       1.0  0.75000  0.25000  0.11294  1.0000
  Au  Au5       1.0  0.50000  0.00000  0.11294  1.0000
  V   V16       1.0  0.50000  0.25000  0.88706  1.0000
  V   V17       1.0  0.75000  0.00000  0.88706  1.0000
  V   V18       1.0  0.75000  0.25000  0.96235  1.0000
  Au  Au6       1.0  0.50000  0.00000  0.96235  1.0000
  V   V19       1.0  0.50000  0.75000  0.03765  1.0000
  V   V20       1.0  0.75000  0.50000  0.03765  1.0000
  V   V21       1.0  0.75000  0.75000  0.11294  1.0000
  Au  Au7       1.0  0.50000  0.50000  0.11294  1.0000
  V   V22       1.0  0.50000  0.75000  0.88706  1.0000
  V   V23       1.0  0.75000  0.50000  0.88706  1.0000
  V   V24       1.0  0.75000  0.75000  0.96235  1.0000
  Au  Au8       1.0  0.50000  0.50000  0.96235  1.0000
  C   C1        1.0  0.25000  0.00000  0.14390  1.0000
