# generated using pymatgen
data_Li8Ga8Ge8Pd8CO
_symmetry_space_group_name_H-M   'P 1'
_cell_length_a   8.87402000
_cell_length_b   6.27488000
_cell_length_c   26.65550000
_cell_angle_alpha   90.00000000
_cell_angle_beta   90.00000000
_cell_angle_gamma   90.00000000
_symmetry_Int_Tables_number   1
_chemical_formula_structural   Li8Ga8Ge8Pd8CO
_chemical_formula_sum   'Li8 Ga8 Ge8 Pd8 C1 O1'
_cell_volume   1484.26915172
_cell_formula_units_Z   1
loop_
 _symmetry_equiv_pos_site_id
 _symmetry_equiv_pos_as_xyz
  1  'x, y, z'
loop_
 _atom_site_type_symbol
 _atom_site_label
 _atom_site_symmetry_multiplicity
 _atom_site_fract_x
 _atom_site_fract_y
 _atom_site_fract_z
 _atom_site_occupancy
  Li  Li0  1  0.00000000  0.75000000  0.04161000  1.0
  Li  Li1  1  0.50000000  0.75000000  0.04161000  1.0
  Li  Li2  1  0.25000000  0.25000000  0.12484000  1.0
  Li  Li3  1  0.75000000  0.25000000  0.12484000  1.0
  Li  Li4  1  0.50000000  0.75604000  0.84627000  1.0
  Li  Li5  1  0.00000000  0.75328000  0.85832000  1.0
  Li  Li6  1  0.73692000  0.25388000  0.95907000  1.0
  Li  Li7  1  0.26308000  0.25388000  0.95907000  1.0
  Ga  Ga8  1  0.00000000  0.00000000  0.12484000  1.0
  Ga  Ga9  1  0.50000000  0.00000000  0.12484000  1.0
  Ga  Ga10  1  0.75000000  0.50000000  0.04161000  1.0
  Ga  Ga11  1  0.25000000  0.50000000  0.04161000  1.0
  Ga  Ga12  1  0.50000000  0.96841000  0.95461000  1.0
  Ga  Ga13  1  0.00000000  0.02031000  0.94904000  1.0
  Ga  Ga14  1  0.25642000  0.50186000  0.86984000  1.0
  Ga  Ga15  1  0.74358000  0.50186000  0.86984000  1.0
  Ge  Ge16  1  0.25000000  0.00000000  0.04161000  1.0
  Ge  Ge17  1  0.75000000  0.00000000  0.04161000  1.0
  Ge  Ge18  1  0.50000000  0.50000000  0.12484000  1.0
  Ge  Ge19  1  0.00000000  0.50000000  0.12484000  1.0
  Ge  Ge20  1  0.74570000  0.98472000  0.87714000  1.0
  Ge  Ge21  1  0.25430000  0.98472000  0.87714000  1.0
  Ge  Ge22  1  0.00000000  0.48021000  0.94799000  1.0
  Ge  Ge23  1  0.50000000  0.52857000  0.95423000  1.0
  Pd  Pd24  1  0.00000000  0.25000000  0.04161000  1.0
  Pd  Pd25  1  0.50000000  0.25000000  0.04161000  1.0
  Pd  Pd26  1  0.25000000  0.75000000  0.12484000  1.0
  Pd  Pd27  1  0.75000000  0.75000000  0.12484000  1.0
  Pd  Pd28  1  0.50000000  0.24745000  0.88405000  1.0
  Pd  Pd29  1  0.00000000  0.26422000  0.86007000  1.0
  Pd  Pd30  1  0.76724000  0.74990000  0.96383000  1.0
  Pd  Pd31  1  0.23276000  0.74990000  0.96383000  1.0
  C  C32  1  0.00000000  0.24616000  0.78586000  1.0
  O  O33  1  0.00000000  0.24571000  0.74264000  1.0
