# generated using pymatgen
data_Li8Ga8Ge8Pd8CO
_symmetry_space_group_name_H-M   Pm
_cell_length_a   6.27488000
_cell_length_b   8.87402000
_cell_length_c   26.65550000
_cell_angle_alpha   90.00000000
_cell_angle_beta   90.00000000
_cell_angle_gamma   90.00000000
_symmetry_Int_Tables_number   6
_chemical_formula_structural   Li8Ga8Ge8Pd8CO
_chemical_formula_sum   'Li8 Ga8 Ge8 Pd8 C1 O1'
_cell_volume   1484.26915172
_cell_formula_units_Z   1
loop_
 _symmetry_equiv_pos_site_id
 _symmetry_equiv_pos_as_xyz
  1  'x, y, z'
  2  'x, -y, z'
loop_
 _atom_site_type_symbol
 _atom_site_label
 _atom_site_symmetry_multiplicity
 _atom_site_fract_x
 _atom_site_fract_y
 _atom_site_fract_z
 _atom_site_occupancy
  Li  Li0  2  0.25000000  0.25000000  0.87516000  1.0
  Li  Li1  2  0.25388000  0.26308000  0.04093000  1.0
  Li  Li2  1  0.75000000  0.00000000  0.95839000  1.0
  Li  Li3  1  0.75000000  0.50000000  0.95839000  1.0
  Li  Li4  1  0.75328000  0.00000000  0.14168000  1.0
  Li  Li5  1  0.75604000  0.50000000  0.15373000  1.0
  Ga  Ga6  2  0.50000000  0.25000000  0.95839000  1.0
  Ga  Ga7  2  0.50186000  0.25642000  0.13016000  1.0
  Ga  Ga8  1  0.00000000  0.00000000  0.87516000  1.0
  Ga  Ga9  1  0.00000000  0.50000000  0.87516000  1.0
  Ga  Ga10  1  0.02031000  0.00000000  0.05096000  1.0
  Ga  Ga11  1  0.96841000  0.50000000  0.04539000  1.0
  Ge  Ge12  2  0.00000000  0.25000000  0.95839000  1.0
  Ge  Ge13  2  0.98472000  0.25430000  0.12286000  1.0
  Ge  Ge14  1  0.48021000  0.00000000  0.05201000  1.0
  Ge  Ge15  1  0.50000000  0.00000000  0.87516000  1.0
  Ge  Ge16  1  0.50000000  0.50000000  0.87516000  1.0
  Ge  Ge17  1  0.52857000  0.50000000  0.04577000  1.0
  Pd  Pd18  2  0.74990000  0.23276000  0.03617000  1.0
  Pd  Pd19  2  0.75000000  0.25000000  0.87516000  1.0
  Pd  Pd20  1  0.24745000  0.50000000  0.11595000  1.0
  Pd  Pd21  1  0.25000000  0.00000000  0.95839000  1.0
  Pd  Pd22  1  0.25000000  0.50000000  0.95839000  1.0
  Pd  Pd23  1  0.26422000  0.00000000  0.13993000  1.0
  C  C24  1  0.24616000  0.00000000  0.21414000  1.0
  O  O25  1  0.24571000  0.00000000  0.25736000  1.0
