# generated using pymatgen
data_Li8Zn8Ag8Ge8C
_symmetry_space_group_name_H-M   'P 1'
_cell_length_a   8.98822000
_cell_length_b   6.35563000
_cell_length_c   26.74120000
_cell_angle_alpha   90.00000000
_cell_angle_beta   90.00000000
_cell_angle_gamma   90.00000000
_symmetry_Int_Tables_number   1
_chemical_formula_structural   Li8Zn8Ag8Ge8C
_chemical_formula_sum   'Li8 Zn8 Ag8 Ge8 C1'
_cell_volume   1527.61246111
_cell_formula_units_Z   1
loop_
 _symmetry_equiv_pos_site_id
 _symmetry_equiv_pos_as_xyz
  1  'x, y, z'
loop_
 _atom_site_type_symbol
 _atom_site_label
 _atom_site_symmetry_multiplicity
 _atom_site_fract_x
 _atom_site_fract_y
 _atom_site_fract_z
 _atom_site_occupancy
  Li  Li0  1  0.00000000  0.75000000  0.04201000  1.0
  Li  Li1  1  0.50000000  0.75000000  0.04201000  1.0
  Li  Li2  1  0.25000000  0.25000000  0.12604000  1.0
  Li  Li3  1  0.75000000  0.25000000  0.12604000  1.0
  Li  Li4  1  0.50000000  0.75313000  0.86344000  1.0
  Li  Li5  1  0.00000000  0.77550000  0.84382000  1.0
  Li  Li6  1  0.75909000  0.25788000  0.95420000  1.0
  Li  Li7  1  0.24091000  0.25788000  0.95420000  1.0
  Zn  Zn8  1  0.00000000  0.25000000  0.04201000  1.0
  Zn  Zn9  1  0.50000000  0.25000000  0.04201000  1.0
  Zn  Zn10  1  0.25000000  0.75000000  0.12604000  1.0
  Zn  Zn11  1  0.75000000  0.75000000  0.12604000  1.0
  Zn  Zn12  1  0.50000000  0.23792000  0.86526000  1.0
  Zn  Zn13  1  0.00000000  0.18462000  0.86640000  1.0
  Zn  Zn14  1  0.73609000  0.75216000  0.95500000  1.0
  Zn  Zn15  1  0.26391000  0.75216000  0.95500000  1.0
  Ag  Ag16  1  0.00000000  0.00000000  0.12604000  1.0
  Ag  Ag17  1  0.50000000  0.00000000  0.12604000  1.0
  Ag  Ag18  1  0.75000000  0.50000000  0.04201000  1.0
  Ag  Ag19  1  0.25000000  0.50000000  0.04201000  1.0
  Ag  Ag20  1  0.50000000  0.01959000  0.95455000  1.0
  Ag  Ag21  1  0.00000000  0.98246000  0.95708000  1.0
  Ag  Ag22  1  0.25436000  0.49169000  0.86477000  1.0
  Ag  Ag23  1  0.74564000  0.49169000  0.86477000  1.0
  Ge  Ge24  1  0.25000000  0.00000000  0.04201000  1.0
  Ge  Ge25  1  0.75000000  0.00000000  0.04201000  1.0
  Ge  Ge26  1  0.50000000  0.50000000  0.12604000  1.0
  Ge  Ge27  1  0.00000000  0.50000000  0.12604000  1.0
  Ge  Ge28  1  0.74146000  0.99249000  0.86873000  1.0
  Ge  Ge29  1  0.25854000  0.99249000  0.86873000  1.0
  Ge  Ge30  1  0.00000000  0.53947000  0.95096000  1.0
  Ge  Ge31  1  0.50000000  0.49561000  0.95185000  1.0
  C  C32  1  0.00000000  0.49158000  0.87897000  1.0
