# generated using pymatgen
data_Mg8In8Cu8Pd8C
_symmetry_space_group_name_H-M   Pm
_cell_length_a   6.45956000
_cell_length_b   9.13520000
_cell_length_c   26.85140000
_cell_angle_alpha   90.00000000
_cell_angle_beta   90.00000000
_cell_angle_gamma   90.00000000
_symmetry_Int_Tables_number   6
_chemical_formula_structural   Mg8In8Cu8Pd8C
_chemical_formula_sum   'Mg8 In8 Cu8 Pd8 C1'
_cell_volume   1584.48426507
_cell_formula_units_Z   1
loop_
 _symmetry_equiv_pos_site_id
 _symmetry_equiv_pos_as_xyz
  1  'x, y, z'
  2  'x, -y, z'
loop_
 _atom_site_type_symbol
 _atom_site_label
 _atom_site_symmetry_multiplicity
 _atom_site_fract_x
 _atom_site_fract_y
 _atom_site_fract_z
 _atom_site_occupancy
  Mg  Mg0  2  0.74904000  0.25827000  0.04115000  1.0
  Mg  Mg1  2  0.75000000  0.25000000  0.87242000  1.0
  Mg  Mg2  1  0.21307000  0.00000000  0.13403000  1.0
  Mg  Mg3  1  0.24553000  0.50000000  0.13205000  1.0
  Mg  Mg4  1  0.25000000  0.00000000  0.95747000  1.0
  Mg  Mg5  1  0.25000000  0.50000000  0.95747000  1.0
  In  In6  2  0.25000000  0.25000000  0.87242000  1.0
  In  In7  2  0.25027000  0.24264000  0.04454000  1.0
  In  In8  1  0.71773000  0.50000000  0.13993000  1.0
  In  In9  1  0.75000000  0.00000000  0.95747000  1.0
  In  In10  1  0.75000000  0.50000000  0.95747000  1.0
  In  In11  1  0.81736000  0.00000000  0.17281000  1.0
  Cu  Cu12  2  0.50000000  0.25000000  0.95747000  1.0
  Cu  Cu13  2  0.53534000  0.21667000  0.12701000  1.0
  Cu  Cu14  1  0.00000000  0.00000000  0.87242000  1.0
  Cu  Cu15  1  0.00000000  0.50000000  0.87242000  1.0
  Cu  Cu16  1  0.97570000  0.00000000  0.04886000  1.0
  Cu  Cu17  1  0.99687000  0.50000000  0.04981000  1.0
  Pd  Pd18  2  -0.00000000  0.25000000  0.95747000  1.0
  Pd  Pd19  2  0.97748000  0.25885000  0.12352000  1.0
  Pd  Pd20  1  0.49077000  0.50000000  0.04416000  1.0
  Pd  Pd21  1  0.50000000  0.00000000  0.87242000  1.0
  Pd  Pd22  1  0.50000000  0.50000000  0.87242000  1.0
  Pd  Pd23  1  0.53432000  0.00000000  0.04770000  1.0
  C  C24  1  0.53426000  0.00000000  0.12802000  1.0
