# generated using pymatgen
data_Li4Cu4Sn4Ge4CO
_symmetry_space_group_name_H-M   Cm
_cell_length_a   9.29718138
_cell_length_b   9.29718138
_cell_length_c   24.93060000
_cell_angle_alpha   90.00000000
_cell_angle_beta   90.00000000
_cell_angle_gamma   90.00000000
_symmetry_Int_Tables_number   8
_chemical_formula_structural   Li4Cu4Sn4Ge4CO
_chemical_formula_sum   'Li8 Cu8 Sn8 Ge8 C2 O2'
_cell_volume   2154.94077234
_cell_formula_units_Z   2
loop_
 _symmetry_equiv_pos_site_id
 _symmetry_equiv_pos_as_xyz
  1  'x, y, z'
  2  'x, -y, z'
  3  'x+1/2, y+1/2, z'
  4  'x+1/2, -y+1/2, z'
loop_
 _atom_site_type_symbol
 _atom_site_label
 _atom_site_symmetry_multiplicity
 _atom_site_fract_x
 _atom_site_fract_y
 _atom_site_fract_z
 _atom_site_occupancy
  Li  Li0  4  0.24999000  0.25008000  0.09832000  1.0
  Li  Li1  2  0.00002000  0.00000000  0.96704000  1.0
  Li  Li2  2  0.00002000  0.50000000  0.96704000  1.0
  Cu  Cu3  4  0.25002000  0.25002000  0.96704000  1.0
  Cu  Cu4  2  0.00007000  0.50000000  0.07765000  1.0
  Cu  Cu5  2  0.49999500  0.50000000  0.08391000  1.0
  Sn  Sn6  4  0.00002000  0.25002000  0.90111000  1.0
  Sn  Sn7  2  0.24905000  0.00000000  0.02980000  1.0
  Sn  Sn8  2  0.25101000  0.50000000  0.02973000  1.0
  Ge  Ge9  4  0.00003000  0.25250000  0.03250000  1.0
  Ge  Ge10  2  0.25002000  0.50000000  0.90111000  1.0
  Ge  Ge11  2  0.25002000  0.00000000  0.90111000  1.0
  C  C12  2  0.49974000  0.50000000  0.15811000  1.0
  O  O13  2  0.49973500  0.50000000  0.20452000  1.0
