data_image0
_chemical_formula_structural       Li4Mg4In4Ag4C
_chemical_formula_sum              "Li4 Mg4 In4 Ag4 C1"
_cell_length_a       6.69019
_cell_length_b       6.69019
_cell_length_c       25.0176
_cell_angle_alpha    90
_cell_angle_beta     90
_cell_angle_gamma    90

_space_group_name_H-M_alt    "P 1"
_space_group_IT_number       1

loop_
  _space_group_symop_operation_xyz
  'x, y, z'

loop_
  _atom_site_type_symbol
  _atom_site_label
  _atom_site_symmetry_multiplicity
  _atom_site_fract_x
  _atom_site_fract_y
  _atom_site_fract_z
  _atom_site_occupancy
  Li  Li1       1.0  0.96894  0.46854  0.12857  1.0000
  Li  Li2       1.0  0.00000  0.00000  0.96657  1.0000
  Li  Li3       1.0  0.50000  0.50000  0.96657  1.0000
  Li  Li4       1.0  0.53146  0.03106  0.12857  1.0000
  Mg  Mg1       1.0  0.74899  0.25101  0.03333  1.0000
  Mg  Mg2       1.0  0.75000  0.75000  0.89972  1.0000
  Mg  Mg3       1.0  0.25000  0.25000  0.89972  1.0000
  Mg  Mg4       1.0  0.25039  0.74961  0.04800  1.0000
  In  In1       1.0  0.25004  0.24991  0.04033  1.0000
  In  In2       1.0  0.25000  0.75000  0.89972  1.0000
  In  In3       1.0  0.75000  0.25000  0.89972  1.0000
  In  In4       1.0  0.75009  0.74996  0.04033  1.0000
  Ag  Ag1       1.0  0.97946  0.02054  0.10666  1.0000
  Ag  Ag2       1.0  0.00000  0.50000  0.96657  1.0000
  Ag  Ag3       1.0  0.50000  0.00000  0.96657  1.0000
  Ag  Ag4       1.0  0.51920  0.48080  0.10706  1.0000
  C   C1        1.0  0.74886  0.25115  0.12088  1.0000
