# generated using pymatgen
data_TiCo2Ge
_symmetry_space_group_name_H-M   Pmm2
_cell_length_a   4.15810000
_cell_length_b   5.88044000
_cell_length_c   26.23710000
_cell_angle_alpha   90.00000000
_cell_angle_beta   90.00000000
_cell_angle_gamma   90.00000000
_symmetry_Int_Tables_number   25
_chemical_formula_structural   TiCo2Ge
_chemical_formula_sum   'Ti4 Co8 Ge4'
_cell_volume   641.53533725
_cell_formula_units_Z   4
loop_
 _symmetry_equiv_pos_site_id
 _symmetry_equiv_pos_as_xyz
  1  'x, y, z'
  2  '-x, -y, z'
  3  '-x, y, z'
  4  'x, -y, z'
loop_
 _atom_site_type_symbol
 _atom_site_label
 _atom_site_symmetry_multiplicity
 _atom_site_fract_x
 _atom_site_fract_y
 _atom_site_fract_z
 _atom_site_occupancy
  Ti  Ti0  1  0.00000000  0.00000000  0.11886000  1.0
  Ti  Ti1  1  0.00000000  0.00000000  0.96091500  1.0
  Ti  Ti2  1  0.50000000  0.50000000  0.03962000  1.0
  Ti  Ti3  1  0.50000000  0.50000000  0.88106000  1.0
  Co  Co4  2  0.00000000  0.23677500  0.88746000  1.0
  Co  Co5  2  0.00000000  0.25000000  0.03962000  1.0
  Co  Co6  2  0.50000000  0.25000000  0.11886000  1.0
  Co  Co7  2  0.50000000  0.25606000  0.95981000  1.0
  Ge  Ge8  1  0.00000000  0.50000000  0.11886000  1.0
  Ge  Ge9  1  0.00000000  0.50000000  0.95997000  1.0
  Ge  Ge10  1  0.50000000  0.00000000  0.03962000  1.0
  Ge  Ge11  1  0.50000000  0.00000000  0.87800500  1.0
