# generated using pymatgen
data_Li8Y8Ag8Sn8CO
_symmetry_space_group_name_H-M   'P 1'
_cell_length_a   7.11214000
_cell_length_b   10.05810000
_cell_length_c   27.54360000
_cell_angle_alpha   90.00000000
_cell_angle_beta   90.00000000
_cell_angle_gamma   90.00000000
_symmetry_Int_Tables_number   1
_chemical_formula_structural   Li8Y8Ag8Sn8CO
_chemical_formula_sum   'Li8 Y8 Ag8 Sn8 C1 O1'
_cell_volume   1970.32083091
_cell_formula_units_Z   1
loop_
 _symmetry_equiv_pos_site_id
 _symmetry_equiv_pos_as_xyz
  1  'x, y, z'
loop_
 _atom_site_type_symbol
 _atom_site_label
 _atom_site_symmetry_multiplicity
 _atom_site_fract_x
 _atom_site_fract_y
 _atom_site_fract_z
 _atom_site_occupancy
  Li  Li0  1  0.25000000  0.00000000  0.95435000  1.0
  Li  Li1  1  0.25000000  0.50000000  0.95435000  1.0
  Li  Li2  1  0.75000000  0.25000000  0.86306000  1.0
  Li  Li3  1  0.75000000  0.75000000  0.86306000  1.0
  Li  Li4  1  0.24533000  0.49058000  0.13344000  1.0
  Li  Li5  1  0.24554000  0.00992000  0.13345000  1.0
  Li  Li6  1  0.75214000  0.75011000  0.04566000  1.0
  Li  Li7  1  0.75792000  0.24994000  0.04146000  1.0
  Y  Y8  1  0.75000000  0.00000000  0.95435000  1.0
  Y  Y9  1  0.75000000  0.50000000  0.95435000  1.0
  Y  Y10  1  0.25000000  0.25000000  0.86306000  1.0
  Y  Y11  1  0.25000000  0.75000000  0.86306000  1.0
  Y  Y12  1  0.77412000  0.52259000  0.13932000  1.0
  Y  Y13  1  0.77386000  0.97720000  0.13938000  1.0
  Y  Y14  1  0.24290000  0.75001000  0.04846000  1.0
  Y  Y15  1  0.25058000  0.25008000  0.04655000  1.0
  Ag  Ag16  1  0.00000000  0.00000000  0.86306000  1.0
  Ag  Ag17  1  0.00000000  0.50000000  0.86306000  1.0
  Ag  Ag18  1  0.50000000  0.75000000  0.95435000  1.0
  Ag  Ag19  1  0.50000000  0.25000000  0.95435000  1.0
  Ag  Ag20  1  0.99316000  0.49542000  0.04577000  1.0
  Ag  Ag21  1  0.99321000  0.00475000  0.04583000  1.0
  Ag  Ag22  1  0.55463000  0.24993000  0.12542000  1.0
  Ag  Ag23  1  0.47989000  0.74983000  0.13722000  1.0
  Sn  Sn24  1  0.00000000  0.25000000  0.95435000  1.0
  Sn  Sn25  1  0.00000000  0.75000000  0.95435000  1.0
  Sn  Sn26  1  0.50000000  0.50000000  0.86306000  1.0
  Sn  Sn27  1  0.50000000  0.00000000  0.86306000  1.0
  Sn  Sn28  1  0.05780000  0.75006000  0.15317000  1.0
  Sn  Sn29  1  0.98795000  0.24981000  0.13823000  1.0
  Sn  Sn30  1  0.50897000  0.99989000  0.04991000  1.0
  Sn  Sn31  1  0.50902000  0.50017000  0.04992000  1.0
  C  C32  1  0.12582000  0.25199000  0.27823000  1.0
  O  O33  1  0.98236000  0.25054000  0.29640000  1.0
