# generated using pymatgen
data_YPb3
_symmetry_space_group_name_H-M   'P 1'
_cell_length_a   4.95742500
_cell_length_b   7.01086000
_cell_length_c   25.25810000
_cell_angle_alpha   90.00000000
_cell_angle_beta   90.00000000
_cell_angle_gamma   90.00000000
_symmetry_Int_Tables_number   1
_chemical_formula_structural   YPb3
_chemical_formula_sum   'Y2 Pb6'
_cell_volume   877.86579113
_cell_formula_units_Z   2
loop_
 _symmetry_equiv_pos_site_id
 _symmetry_equiv_pos_as_xyz
  1  'x, y, z'
loop_
 _atom_site_type_symbol
 _atom_site_label
 _atom_site_symmetry_multiplicity
 _atom_site_fract_x
 _atom_site_fract_y
 _atom_site_fract_z
 _atom_site_occupancy
  Y  Y0  1  0.00000000  0.00000000  0.89591000  1.0
  Y  Y1  1  0.00000000  0.50000000  0.02954000  1.0
  Pb  Pb2  1  0.00000000  0.50000000  0.89591000  1.0
  Pb  Pb3  1  0.50000000  0.75000000  0.96530000  1.0
  Pb  Pb4  1  0.50000000  0.25000000  0.96530000  1.0
  Pb  Pb5  1  0.00000000  0.00000000  0.03915500  1.0
  Pb  Pb6  1  0.50000000  0.26335500  0.09875000  1.0
  Pb  Pb7  1  0.50000000  0.73664500  0.09875000  1.0
