data_image0
_chemical_formula_structural       Ti4In4Au8CO
_chemical_formula_sum              "Ti4 In4 Au8 C1 O1"
_cell_length_a       6.72102
_cell_length_b       6.72102
_cell_length_c       25.0408
_cell_angle_alpha    90
_cell_angle_beta     90
_cell_angle_gamma    90

_space_group_name_H-M_alt    "P 1"
_space_group_IT_number       1

loop_
  _space_group_symop_operation_xyz
  'x, y, z'

loop_
  _atom_site_type_symbol
  _atom_site_label
  _atom_site_symmetry_multiplicity
  _atom_site_fract_x
  _atom_site_fract_y
  _atom_site_fract_z
  _atom_site_occupancy
  Ti  Ti1       1.0  0.00000  0.00000  0.89935  1.0000
  Ti  Ti2       1.0  0.50000  0.50000  0.89935  1.0000
  Ti  Ti3       1.0  0.49794  0.00213  0.03683  1.0000
  Ti  Ti4       1.0  0.99934  0.50049  0.03555  1.0000
  In  In1       1.0  0.01334  0.00300  0.03720  1.0000
  In  In2       1.0  0.50000  0.00000  0.89935  1.0000
  In  In3       1.0  0.00000  0.50000  0.89935  1.0000
  In  In4       1.0  0.49704  0.48624  0.03716  1.0000
  Au  Au1       1.0  0.25000  0.25000  0.96645  1.0000
  Au  Au2       1.0  0.74275  0.75618  0.09782  1.0000
  Au  Au3       1.0  0.75000  0.25000  0.96645  1.0000
  Au  Au4       1.0  0.25734  0.74085  0.10059  1.0000
  Au  Au5       1.0  0.75000  0.75000  0.96645  1.0000
  Au  Au6       1.0  0.19769  0.30301  0.11212  1.0000
  Au  Au7       1.0  0.25000  0.75000  0.96645  1.0000
  Au  Au8       1.0  0.76051  0.24501  0.10059  1.0000
  C   C1        1.0  0.27333  0.22821  0.19349  1.0000
  O   O1        1.0  0.24825  0.25374  0.23824  1.0000
