# generated using pymatgen
data_Ti4In4Au8CO
_symmetry_space_group_name_H-M   P1
_cell_length_a   6.72102000
_cell_length_b   6.72102000
_cell_length_c   25.04080000
_cell_angle_alpha   90.00000000
_cell_angle_beta   90.00000000
_cell_angle_gamma   90.00000000
_symmetry_Int_Tables_number   1
_chemical_formula_structural   Ti4In4Au8CO
_chemical_formula_sum   'Ti4 In4 Au8 C1 O1'
_cell_volume   1131.14576809
_cell_formula_units_Z   1
loop_
 _symmetry_equiv_pos_site_id
 _symmetry_equiv_pos_as_xyz
  1  'x, y, z'
loop_
 _atom_site_type_symbol
 _atom_site_label
 _atom_site_symmetry_multiplicity
 _atom_site_fract_x
 _atom_site_fract_y
 _atom_site_fract_z
 _atom_site_occupancy
  Ti  Ti0  1  0.00000000  0.00000000  0.89935000  1.0
  Ti  Ti1  1  0.49794000  0.00213000  0.03683000  1.0
  Ti  Ti2  1  0.50000000  0.50000000  0.89935000  1.0
  Ti  Ti3  1  0.99934000  0.50049000  0.03555000  1.0
  In  In4  1  0.00000000  0.50000000  0.89935000  1.0
  In  In5  1  0.01334000  0.00300000  0.03720000  1.0
  In  In6  1  0.49704000  0.48624000  0.03716000  1.0
  In  In7  1  0.50000000  0.00000000  0.89935000  1.0
  Au  Au8  1  0.19769000  0.30301000  0.11212000  1.0
  Au  Au9  1  0.25000000  0.25000000  0.96645000  1.0
  Au  Au10  1  0.25000000  0.75000000  0.96645000  1.0
  Au  Au11  1  0.25734000  0.74085000  0.10059000  1.0
  Au  Au12  1  0.74275000  0.75618000  0.09782000  1.0
  Au  Au13  1  0.75000000  0.25000000  0.96645000  1.0
  Au  Au14  1  0.75000000  0.75000000  0.96645000  1.0
  Au  Au15  1  0.76051000  0.24501000  0.10059000  1.0
  C  C16  1  0.27333000  0.22821000  0.19349000  1.0
  O  O17  1  0.24825000  0.25374000  0.23824000  1.0
