# generated using pymatgen
data_FeRh
_symmetry_space_group_name_H-M   Pmm2
_cell_length_a   3.02394000
_cell_length_b   4.27649500
_cell_length_c   26.41470000
_cell_angle_alpha   90.00000000
_cell_angle_beta   90.00000000
_cell_angle_gamma   90.00000000
_symmetry_Int_Tables_number   25
_chemical_formula_structural   FeRh
_chemical_formula_sum   'Fe4 Rh4'
_cell_volume   341.59131567
_cell_formula_units_Z   4
loop_
 _symmetry_equiv_pos_site_id
 _symmetry_equiv_pos_as_xyz
  1  'x, y, z'
  2  '-x, -y, z'
  3  '-x, y, z'
  4  'x, -y, z'
loop_
 _atom_site_type_symbol
 _atom_site_label
 _atom_site_symmetry_multiplicity
 _atom_site_fract_x
 _atom_site_fract_y
 _atom_site_fract_z
 _atom_site_occupancy
  Fe  Fe0  1  0.00000000  0.00000000  0.04129000  1.0
  Fe  Fe1  1  0.00000000  0.00000000  0.87858000  1.0
  Fe  Fe2  1  0.00000000  0.50000000  0.12381000  1.0
  Fe  Fe3  1  0.00000000  0.50000000  0.95953000  1.0
  Rh  Rh4  1  0.50000000  0.00000000  0.11793000  1.0
  Rh  Rh5  1  0.50000000  0.00000000  0.95953000  1.0
  Rh  Rh6  1  0.50000000  0.50000000  0.04121000  1.0
  Rh  Rh7  1  0.50000000  0.50000000  0.87858000  1.0
