# generated using pymatgen
data_Sc8Zn8C
_symmetry_space_group_name_H-M   'P 1'
_cell_length_a   6.70510000
_cell_length_b   6.70510000
_cell_length_c   25.02880000
_cell_angle_alpha   90.00000000
_cell_angle_beta   90.00000000
_cell_angle_gamma   90.00000000
_symmetry_Int_Tables_number   1
_chemical_formula_structural   Sc8Zn8C
_chemical_formula_sum   'Sc8 Zn8 C1'
_cell_volume   1125.25395119
_cell_formula_units_Z   1
loop_
 _symmetry_equiv_pos_site_id
 _symmetry_equiv_pos_as_xyz
  1  'x, y, z'
loop_
 _atom_site_type_symbol
 _atom_site_label
 _atom_site_symmetry_multiplicity
 _atom_site_fract_x
 _atom_site_fract_y
 _atom_site_fract_z
 _atom_site_occupancy
  Sc  Sc0  1  0.25000000  0.25000000  0.96031000  1.0
  Sc  Sc1  1  0.25000000  0.25000000  0.09426000  1.0
  Sc  Sc2  1  0.25000000  0.75000000  0.96031000  1.0
  Sc  Sc3  1  0.25000000  0.75000000  0.09426000  1.0
  Sc  Sc4  1  0.75000000  0.25000000  0.96031000  1.0
  Sc  Sc5  1  0.75000000  0.25000000  0.09426000  1.0
  Sc  Sc6  1  0.75000000  0.75000000  0.96031000  1.0
  Sc  Sc7  1  0.75000000  0.75000000  0.09426000  1.0
  Zn  Zn8  1  0.00000000  0.00000000  0.89334000  1.0
  Zn  Zn9  1  0.00000000  0.00000000  0.02729000  1.0
  Zn  Zn10  1  0.00000000  0.50000000  0.89334000  1.0
  Zn  Zn11  1  0.00000000  0.50000000  0.02729000  1.0
  Zn  Zn12  1  0.50000000  0.00000000  0.89334000  1.0
  Zn  Zn13  1  0.50000000  0.00000000  0.02729000  1.0
  Zn  Zn14  1  0.50000000  0.50000000  0.89334000  1.0
  Zn  Zn15  1  0.50000000  0.50000000  0.02729000  1.0
  C  C16  1  0.00000000  0.00000000  0.12623000  1.0
