# generated using pymatgen
data_Al8In8Cu8Pd8C
_symmetry_space_group_name_H-M   'P 1'
_cell_length_a   8.99448000
_cell_length_b   6.36006000
_cell_length_c   26.74590000
_cell_angle_alpha   90.00000000
_cell_angle_beta   90.00000000
_cell_angle_gamma   90.00000000
_symmetry_Int_Tables_number   1
_chemical_formula_structural   Al8In8Cu8Pd8C
_chemical_formula_sum   'Al8 In8 Cu8 Pd8 C1'
_cell_volume   1530.01077627
_cell_formula_units_Z   1
loop_
 _symmetry_equiv_pos_site_id
 _symmetry_equiv_pos_as_xyz
  1  'x, y, z'
loop_
 _atom_site_type_symbol
 _atom_site_label
 _atom_site_symmetry_multiplicity
 _atom_site_fract_x
 _atom_site_fract_y
 _atom_site_fract_z
 _atom_site_occupancy
  Al  Al0  1  0.75000000  0.00000000  0.12611000  1.0
  Al  Al1  1  0.25000000  0.00000000  0.12611000  1.0
  Al  Al2  1  0.50000000  0.50000000  0.04204000  1.0
  Al  Al3  1  0.00000000  0.50000000  0.04204000  1.0
  Al  Al4  1  0.25288000  0.01850000  0.95600000  1.0
  Al  Al5  1  0.74712000  0.01850000  0.95600000  1.0
  Al  Al6  1  0.00000000  0.45972000  0.87352000  1.0
  Al  Al7  1  0.50000000  0.51919000  0.87575000  1.0
  In  In8  1  0.00000000  0.00000000  0.04204000  1.0
  In  In9  1  0.50000000  0.00000000  0.04204000  1.0
  In  In10  1  0.25000000  0.50000000  0.12611000  1.0
  In  In11  1  0.75000000  0.50000000  0.12611000  1.0
  In  In12  1  0.50000000  0.03049000  0.84314000  1.0
  In  In13  1  0.00000000  0.06713000  0.82586000  1.0
  In  In14  1  0.74999000  0.51860000  0.95677000  1.0
  In  In15  1  0.25001000  0.51860000  0.95677000  1.0
  Cu  Cu16  1  0.75000000  0.25000000  0.04204000  1.0
  Cu  Cu17  1  0.25000000  0.25000000  0.04204000  1.0
  Cu  Cu18  1  0.00000000  0.75000000  0.12611000  1.0
  Cu  Cu19  1  0.50000000  0.75000000  0.12611000  1.0
  Cu  Cu20  1  0.26075000  0.26071000  0.87641000  1.0
  Cu  Cu21  1  0.73925000  0.26071000  0.87641000  1.0
  Cu  Cu22  1  0.50000000  0.81342000  0.94071000  1.0
  Cu  Cu23  1  0.00000000  0.84917000  0.93180000  1.0
  Pd  Pd24  1  0.75000000  0.75000000  0.04204000  1.0
  Pd  Pd25  1  0.25000000  0.75000000  0.04204000  1.0
  Pd  Pd26  1  0.00000000  0.25000000  0.12611000  1.0
  Pd  Pd27  1  0.50000000  0.25000000  0.12611000  1.0
  Pd  Pd28  1  0.25149000  0.78263000  0.87596000  1.0
  Pd  Pd29  1  0.74851000  0.78263000  0.87596000  1.0
  Pd  Pd30  1  0.50000000  0.24870000  0.95745000  1.0
  Pd  Pd31  1  0.00000000  0.25701000  0.95724000  1.0
  C  C32  1  0.00000000  0.75381000  0.86036000  1.0
