# generated using pymatgen
data_Al8In8Cu8Pd8C
_symmetry_space_group_name_H-M   Pm
_cell_length_a   6.36006000
_cell_length_b   8.99448000
_cell_length_c   26.74590000
_cell_angle_alpha   90.00000000
_cell_angle_beta   90.00000000
_cell_angle_gamma   90.00000000
_symmetry_Int_Tables_number   6
_chemical_formula_structural   Al8In8Cu8Pd8C
_chemical_formula_sum   'Al8 In8 Cu8 Pd8 C1'
_cell_volume   1530.01077627
_cell_formula_units_Z   1
loop_
 _symmetry_equiv_pos_site_id
 _symmetry_equiv_pos_as_xyz
  1  'x, y, z'
  2  'x, -y, z'
loop_
 _atom_site_type_symbol
 _atom_site_label
 _atom_site_symmetry_multiplicity
 _atom_site_fract_x
 _atom_site_fract_y
 _atom_site_fract_z
 _atom_site_occupancy
  Al  Al0  2  0.00000000  0.25000000  0.87389000  1.0
  Al  Al1  2  0.01850000  0.25288000  0.04400000  1.0
  Al  Al2  1  0.45972000  0.00000000  0.12648000  1.0
  Al  Al3  1  0.50000000  0.00000000  0.95796000  1.0
  Al  Al4  1  0.50000000  0.50000000  0.95796000  1.0
  Al  Al5  1  0.51919000  0.50000000  0.12425000  1.0
  In  In6  2  0.50000000  0.25000000  0.87389000  1.0
  In  In7  2  0.51860000  0.25001000  0.04323000  1.0
  In  In8  1  0.00000000  0.00000000  0.95796000  1.0
  In  In9  1  0.00000000  0.50000000  0.95796000  1.0
  In  In10  1  0.03049000  0.50000000  0.15686000  1.0
  In  In11  1  0.06713000  0.00000000  0.17414000  1.0
  Cu  Cu12  2  0.25000000  0.25000000  0.95796000  1.0
  Cu  Cu13  2  0.26071000  0.26075000  0.12359000  1.0
  Cu  Cu14  1  0.75000000  0.00000000  0.87389000  1.0
  Cu  Cu15  1  0.75000000  0.50000000  0.87389000  1.0
  Cu  Cu16  1  0.81342000  0.50000000  0.05929000  1.0
  Cu  Cu17  1  0.84917000  0.00000000  0.06820000  1.0
  Pd  Pd18  2  0.75000000  0.25000000  0.95796000  1.0
  Pd  Pd19  2  0.78263000  0.25149000  0.12404000  1.0
  Pd  Pd20  1  0.24870000  0.50000000  0.04255000  1.0
  Pd  Pd21  1  0.25000000  0.00000000  0.87389000  1.0
  Pd  Pd22  1  0.25000000  0.50000000  0.87389000  1.0
  Pd  Pd23  1  0.25701000  0.00000000  0.04276000  1.0
  C  C24  1  0.75381000  0.00000000  0.13964000  1.0
