data_image0
_chemical_formula_structural       Y8In8Sn8Pd8CO
_chemical_formula_sum              "Y8 In8 Sn8 Pd8 C1 O1"
_cell_length_a       9.16402
_cell_length_b       8.73372
_cell_length_c       26.798
_cell_angle_alpha    90
_cell_angle_beta     90
_cell_angle_gamma    90

_space_group_name_H-M_alt    "P 1"
_space_group_IT_number       1

loop_
  _space_group_symop_operation_xyz
  'x, y, z'

loop_
  _atom_site_type_symbol
  _atom_site_label
  _atom_site_symmetry_multiplicity
  _atom_site_fract_x
  _atom_site_fract_y
  _atom_site_fract_z
  _atom_site_occupancy
  Y   Y1        1.0  0.25000  0.99157  0.04263  1.0000
  Y   Y2        1.0  0.25000  0.00000  0.87316  1.0000
  Y   Y3        1.0  0.25001  0.50843  0.04263  1.0000
  Y   Y4        1.0  0.25000  0.50000  0.87316  1.0000
  Y   Y5        1.0  0.75000  0.00830  0.04282  1.0000
  Y   Y6        1.0  0.75000  0.00000  0.87316  1.0000
  Y   Y7        1.0  0.75000  0.49170  0.04282  1.0000
  Y   Y8        1.0  0.75000  0.50000  0.87316  1.0000
  In  In1       1.0  0.00049  0.00086  0.12907  1.0000
  In  In2       1.0  0.00000  0.00000  0.95772  1.0000
  In  In3       1.0  0.00049  0.49914  0.12907  1.0000
  In  In4       1.0  0.00000  0.50000  0.95772  1.0000
  In  In5       1.0  0.49952  0.00086  0.12907  1.0000
  In  In6       1.0  0.50000  0.00000  0.95772  1.0000
  In  In7       1.0  0.49952  0.49914  0.12907  1.0000
  In  In8       1.0  0.50000  0.50000  0.95772  1.0000
  Sn  Sn1       1.0  0.25002  0.25000  0.12766  1.0000
  Sn  Sn2       1.0  0.25000  0.25000  0.95772  1.0000
  Sn  Sn3       1.0  0.25000  0.75000  0.13532  1.0000
  Sn  Sn4       1.0  0.25000  0.75000  0.95772  1.0000
  Sn  Sn5       1.0  0.75001  0.25000  0.13751  1.0000
  Sn  Sn6       1.0  0.75000  0.25000  0.95772  1.0000
  Sn  Sn7       1.0  0.75000  0.75000  0.12794  1.0000
  Sn  Sn8       1.0  0.75000  0.75000  0.95772  1.0000
  Pd  Pd1       1.0  0.00624  0.25000  0.04328  1.0000
  Pd  Pd2       1.0  0.00000  0.25000  0.87316  1.0000
  Pd  Pd3       1.0  0.99286  0.75000  0.04295  1.0000
  Pd  Pd4       1.0  0.00000  0.75000  0.87316  1.0000
  Pd  Pd5       1.0  0.49377  0.25000  0.04328  1.0000
  Pd  Pd6       1.0  0.50000  0.25000  0.87316  1.0000
  Pd  Pd7       1.0  0.50714  0.75000  0.04295  1.0000
  Pd  Pd8       1.0  0.50000  0.75000  0.87316  1.0000
  C   C1        1.0  0.24984  0.25001  0.27871  1.0000
  O   O1        1.0  0.25006  0.25000  0.32106  1.0000
