# generated using pymatgen
data_Y8In8Sn8Pd8CO
_symmetry_space_group_name_H-M   Pm
_cell_length_a   9.16402000
_cell_length_b   8.73372000
_cell_length_c   26.79800000
_cell_angle_alpha   90.00000000
_cell_angle_beta   90.00000000
_cell_angle_gamma   90.00000000
_symmetry_Int_Tables_number   6
_chemical_formula_structural   Y8In8Sn8Pd8CO
_chemical_formula_sum   'Y8 In8 Sn8 Pd8 C1 O1'
_cell_volume   2144.80431945
_cell_formula_units_Z   1
loop_
 _symmetry_equiv_pos_site_id
 _symmetry_equiv_pos_as_xyz
  1  'x, y, z'
  2  'x, -y, z'
loop_
 _atom_site_type_symbol
 _atom_site_label
 _atom_site_symmetry_multiplicity
 _atom_site_fract_x
 _atom_site_fract_y
 _atom_site_fract_z
 _atom_site_occupancy
  Y  Y0  2  0.25000000  0.25001000  0.87316000  1.0
  Y  Y1  2  0.25000000  0.25844000  0.04263000  1.0
  Y  Y2  2  0.75000000  0.24171000  0.04282000  1.0
  Y  Y3  2  0.75000000  0.25001000  0.87316000  1.0
  In  In4  2  0.00000000  0.25001000  0.95772000  1.0
  In  In5  2  0.00049000  0.24915000  0.12907000  1.0
  In  In6  2  0.49952000  0.24915000  0.12907000  1.0
  In  In7  2  0.50000000  0.25001000  0.95772000  1.0
  Sn  Sn8  1  0.25000000  0.00000000  0.95772000  1.0
  Sn  Sn9  1  0.25000000  0.50000000  0.13532000  1.0
  Sn  Sn10  1  0.25000000  0.50000000  0.95772000  1.0
  Sn  Sn11  1  0.25002000  0.00000000  0.12766000  1.0
  Sn  Sn12  1  0.75000000  0.00000000  0.95772000  1.0
  Sn  Sn13  1  0.75000000  0.50000000  0.12794000  1.0
  Sn  Sn14  1  0.75000000  0.50000000  0.95772000  1.0
  Sn  Sn15  1  0.75001000  0.00000000  0.13751000  1.0
  Pd  Pd16  1  -0.00000000  0.00000000  0.87316000  1.0
  Pd  Pd17  1  0.00000000  0.50000000  0.87316000  1.0
  Pd  Pd18  1  0.00624000  0.00000000  0.04328000  1.0
  Pd  Pd19  1  0.49377000  0.00000000  0.04328000  1.0
  Pd  Pd20  1  0.50000000  0.00000000  0.87316000  1.0
  Pd  Pd21  1  0.50000000  0.50000000  0.87316000  1.0
  Pd  Pd22  1  0.50714000  0.50000000  0.04295000  1.0
  Pd  Pd23  1  0.99286000  0.50000000  0.04295000  1.0
  C  C24  1  0.24984000  0.00000000  0.27871000  1.0
  O  O25  1  0.25006000  0.00000000  0.32106000  1.0
