# generated using pymatgen
data_Zr8Al8Ni16CO
_symmetry_space_group_name_H-M   'P 1'
_cell_length_a   8.69583000
_cell_length_b   6.14888000
_cell_length_c   26.52190000
_cell_angle_alpha   90.00000000
_cell_angle_beta   90.00000000
_cell_angle_gamma   90.00000000
_symmetry_Int_Tables_number   1
_chemical_formula_structural   Zr8Al8Ni16CO
_chemical_formula_sum   'Zr8 Al8 Ni16 C1 O1'
_cell_volume   1418.11578659
_cell_formula_units_Z   1
loop_
 _symmetry_equiv_pos_site_id
 _symmetry_equiv_pos_as_xyz
  1  'x, y, z'
loop_
 _atom_site_type_symbol
 _atom_site_label
 _atom_site_symmetry_multiplicity
 _atom_site_fract_x
 _atom_site_fract_y
 _atom_site_fract_z
 _atom_site_occupancy
  Zr  Zr0  1  0.00000000  0.00000000  0.12295000  1.0
  Zr  Zr1  1  0.24999000  0.50000000  0.04098000  1.0
  Zr  Zr2  1  0.75001000  0.50000000  0.04098000  1.0
  Zr  Zr3  1  0.50000000  0.00000000  0.12295000  1.0
  Zr  Zr4  1  0.50000000  0.00201000  0.96084000  1.0
  Zr  Zr5  1  0.75006000  0.50326000  0.87192000  1.0
  Zr  Zr6  1  0.24994000  0.50326000  0.87192000  1.0
  Zr  Zr7  1  0.00000000  0.00339000  0.95973000  1.0
  Al  Al8  1  0.74999000  0.00000000  0.04098000  1.0
  Al  Al9  1  0.00000000  0.50000000  0.12295000  1.0
  Al  Al10  1  0.25001000  0.00000000  0.04098000  1.0
  Al  Al11  1  0.50000000  0.50000000  0.12295000  1.0
  Al  Al12  1  0.25294000  0.99906000  0.88064000  1.0
  Al  Al13  1  0.50000000  0.50192000  0.95677000  1.0
  Al  Al14  1  0.74706000  0.99906000  0.88064000  1.0
  Al  Al15  1  0.00000000  0.49971000  0.95572000  1.0
  Ni  Ni16  1  0.00000000  0.25000000  0.04098000  1.0
  Ni  Ni17  1  0.50000000  0.75000000  0.04098000  1.0
  Ni  Ni18  1  0.00000000  0.75000000  0.04098000  1.0
  Ni  Ni19  1  0.50000000  0.25000000  0.04098000  1.0
  Ni  Ni20  1  0.74999000  0.75000000  0.12295000  1.0
  Ni  Ni21  1  0.24999000  0.25000000  0.12295000  1.0
  Ni  Ni22  1  0.75001000  0.25000000  0.12295000  1.0
  Ni  Ni23  1  0.25001000  0.75000000  0.12295000  1.0
  Ni  Ni24  1  0.50000000  0.24089000  0.88243000  1.0
  Ni  Ni25  1  0.00000000  0.77080000  0.88301000  1.0
  Ni  Ni26  1  0.50000000  0.76344000  0.88199000  1.0
  Ni  Ni27  1  0.00000000  0.22796000  0.87072000  1.0
  Ni  Ni28  1  0.24935000  0.73092000  0.95570000  1.0
  Ni  Ni29  1  0.75124000  0.27498000  0.95403000  1.0
  Ni  Ni30  1  0.24876000  0.27498000  0.95403000  1.0
  Ni  Ni31  1  0.75065000  0.73092000  0.95570000  1.0
  C  C32  1  0.00000000  0.31501000  0.80721000  1.0
  O  O33  1  0.00000000  0.35006000  0.76385000  1.0
