# generated using pymatgen
data_Zr8Al8Ni16CO
_symmetry_space_group_name_H-M   Pm
_cell_length_a   6.14888000
_cell_length_b   8.69583000
_cell_length_c   26.52190000
_cell_angle_alpha   90.00000000
_cell_angle_beta   90.00000000
_cell_angle_gamma   90.00000000
_symmetry_Int_Tables_number   6
_chemical_formula_structural   Zr8Al8Ni16CO
_chemical_formula_sum   'Zr8 Al8 Ni16 C1 O1'
_cell_volume   1418.11578659
_cell_formula_units_Z   1
loop_
 _symmetry_equiv_pos_site_id
 _symmetry_equiv_pos_as_xyz
  1  'x, y, z'
  2  'x, -y, z'
loop_
 _atom_site_type_symbol
 _atom_site_label
 _atom_site_symmetry_multiplicity
 _atom_site_fract_x
 _atom_site_fract_y
 _atom_site_fract_z
 _atom_site_occupancy
  Zr  Zr0  2  0.50000000  0.24999000  0.95902000  1.0
  Zr  Zr1  2  0.50326000  0.24994000  0.12808000  1.0
  Zr  Zr2  1  0.00000000  0.00000000  0.87705000  1.0
  Zr  Zr3  1  0.00000000  0.50000000  0.87705000  1.0
  Zr  Zr4  1  0.00201000  0.50000000  0.03916000  1.0
  Zr  Zr5  1  0.00339000  0.00000000  0.04027000  1.0
  Al  Al6  2  0.00000000  0.25001000  0.95902000  1.0
  Al  Al7  2  0.99906000  0.25294000  0.11936000  1.0
  Al  Al8  1  0.49971000  0.00000000  0.04428000  1.0
  Al  Al9  1  0.50000000  0.00000000  0.87705000  1.0
  Al  Al10  1  0.50000000  0.50000000  0.87705000  1.0
  Al  Al11  1  0.50192000  0.50000000  0.04323000  1.0
  Ni  Ni12  2  0.25000000  0.24999000  0.87705000  1.0
  Ni  Ni13  2  0.27498000  0.24876000  0.04597000  1.0
  Ni  Ni14  2  0.73092000  0.24935000  0.04430000  1.0
  Ni  Ni15  2  0.75000000  0.25001000  0.87705000  1.0
  Ni  Ni16  1  0.22796000  0.00000000  0.12928000  1.0
  Ni  Ni17  1  0.24089000  0.50000000  0.11757000  1.0
  Ni  Ni18  1  0.25000000  0.00000000  0.95902000  1.0
  Ni  Ni19  1  0.25000000  0.50000000  0.95902000  1.0
  Ni  Ni20  1  0.75000000  0.00000000  0.95902000  1.0
  Ni  Ni21  1  0.75000000  0.50000000  0.95902000  1.0
  Ni  Ni22  1  0.76344000  0.50000000  0.11801000  1.0
  Ni  Ni23  1  0.77080000  0.00000000  0.11699000  1.0
  C  C24  1  0.31501000  0.00000000  0.19279000  1.0
  O  O25  1  0.35006000  0.00000000  0.23615000  1.0
