# generated using pymatgen
data_Li8In8Cu8Pt8CO
_symmetry_space_group_name_H-M   'P 1'
_cell_length_a   8.95862000
_cell_length_b   6.33470000
_cell_length_c   26.71900000
_cell_angle_alpha   90.00000000
_cell_angle_beta   90.00000000
_cell_angle_gamma   90.00000000
_symmetry_Int_Tables_number   1
_chemical_formula_structural   Li8In8Cu8Pt8CO
_chemical_formula_sum   'Li8 In8 Cu8 Pt8 C1 O1'
_cell_volume   1516.30779528
_cell_formula_units_Z   1
loop_
 _symmetry_equiv_pos_site_id
 _symmetry_equiv_pos_as_xyz
  1  'x, y, z'
loop_
 _atom_site_type_symbol
 _atom_site_label
 _atom_site_symmetry_multiplicity
 _atom_site_fract_x
 _atom_site_fract_y
 _atom_site_fract_z
 _atom_site_occupancy
  Li  Li0  1  0.00000000  0.75000000  0.04191000  1.0
  Li  Li1  1  0.50000000  0.75000000  0.04191000  1.0
  Li  Li2  1  0.24999000  0.25000000  0.12573000  1.0
  Li  Li3  1  0.75001000  0.25000000  0.12573000  1.0
  Li  Li4  1  0.50000000  0.70330000  0.86564000  1.0
  Li  Li5  1  0.00000000  0.71097000  0.86284000  1.0
  Li  Li6  1  0.75115000  0.23243000  0.95771000  1.0
  Li  Li7  1  0.24885000  0.23243000  0.95771000  1.0
  In  In8  1  0.24999000  1.00000000  0.04191000  1.0
  In  In9  1  0.75001000  1.00000000  0.04191000  1.0
  In  In10  1  0.50000000  0.50000000  0.12573000  1.0
  In  In11  1  0.00000000  0.50000000  0.12573000  1.0
  In  In12  1  0.74827000  0.00489000  0.86368000  1.0
  In  In13  1  0.25173000  0.00489000  0.86368000  1.0
  In  In14  1  0.00000000  0.50825000  0.95897000  1.0
  In  In15  1  0.50000000  0.50614000  0.95970000  1.0
  Cu  Cu16  1  0.00000000  0.00000000  0.12573000  1.0
  Cu  Cu17  1  0.50000000  0.00000000  0.12573000  1.0
  Cu  Cu18  1  0.74999000  0.50000000  0.04191000  1.0
  Cu  Cu19  1  0.25001000  0.50000000  0.04191000  1.0
  Cu  Cu20  1  0.50000000  0.99120000  0.95881000  1.0
  Cu  Cu21  1  0.00000000  0.98772000  0.95899000  1.0
  Cu  Cu22  1  0.24901000  0.47353000  0.88260000  1.0
  Cu  Cu23  1  0.75099000  0.47353000  0.88260000  1.0
  Pt  Pt24  1  0.00000000  0.25000000  0.04191000  1.0
  Pt  Pt25  1  0.50000000  0.25000000  0.04191000  1.0
  Pt  Pt26  1  0.24999000  0.75000000  0.12573000  1.0
  Pt  Pt27  1  0.75001000  0.75000000  0.12573000  1.0
  Pt  Pt28  1  0.50000000  0.24773000  0.87967000  1.0
  Pt  Pt29  1  0.00000000  0.24149000  0.88045000  1.0
  Pt  Pt30  1  0.74939000  0.75951000  0.95538000  1.0
  Pt  Pt31  1  0.25061000  0.75951000  0.95538000  1.0
  C  C32  1  0.00000000  0.69431000  0.78386000  1.0
  O  O33  1  0.00000000  0.68526000  0.74126000  1.0
