# generated using pymatgen
data_Li4In4Pd4Rh4C
_symmetry_space_group_name_H-M   'P 1'
_cell_length_a   6.29773000
_cell_length_b   6.29773000
_cell_length_c   24.72330000
_cell_angle_alpha   90.00000000
_cell_angle_beta   90.00000000
_cell_angle_gamma   90.00000000
_symmetry_Int_Tables_number   1
_chemical_formula_structural   Li4In4Pd4Rh4C
_chemical_formula_sum   'Li4 In4 Pd4 Rh4 C1'
_cell_volume   980.56076857
_cell_formula_units_Z   1
loop_
 _symmetry_equiv_pos_site_id
 _symmetry_equiv_pos_as_xyz
  1  'x, y, z'
loop_
 _atom_site_type_symbol
 _atom_site_label
 _atom_site_symmetry_multiplicity
 _atom_site_fract_x
 _atom_site_fract_y
 _atom_site_fract_z
 _atom_site_occupancy
  Li  Li0  1  0.49983000  0.00018000  0.89943000  1
  Li  Li1  1  0.00000000  0.00000000  0.03184000  1
  Li  Li2  1  0.50000000  0.50000000  0.03184000  1
  Li  Li3  1  0.99982000  0.50017000  0.89943000  1
  In  In4  1  0.99154000  0.00846000  0.89729000  1
  In  In5  1  0.50000000  0.00000000  0.03184000  1
  In  In6  1  1.00000000  0.50000000  0.03184000  1
  In  In7  1  0.50780000  0.49220000  0.89727000  1
  Pd  Pd8  1  0.24999000  0.25006000  0.96639000  1
  Pd  Pd9  1  0.75000000  0.25000000  0.09552000  1
  Pd  Pd10  1  0.25000000  0.75000000  0.09552000  1
  Pd  Pd11  1  0.74994000  0.75001000  0.96639000  1
  Rh  Rh12  1  0.24993000  0.75007000  0.96728000  1
  Rh  Rh13  1  0.75000000  0.75000000  0.09552000  1
  Rh  Rh14  1  0.25000000  0.25000000  0.09552000  1
  Rh  Rh15  1  0.74981000  0.25019000  0.96208000  1
  C  C16  1  0.24938000  0.75062000  0.89142000  1
