# generated using pymatgen
data_Sc4Ga4Ge4Pd4C
_symmetry_space_group_name_H-M   'P 1'
_cell_length_a   7.83718000
_cell_length_b   5.89664000
_cell_length_c   24.41460000
_cell_angle_alpha   90.00000000
_cell_angle_beta   90.00000000
_cell_angle_gamma   90.00000000
_symmetry_Int_Tables_number   1
_chemical_formula_structural   Sc4Ga4Ge4Pd4C
_chemical_formula_sum   'Sc4 Ga4 Ge4 Pd4 C1'
_cell_volume   1128.27261966
_cell_formula_units_Z   1
loop_
 _symmetry_equiv_pos_site_id
 _symmetry_equiv_pos_as_xyz
  1  'x, y, z'
loop_
 _atom_site_type_symbol
 _atom_site_label
 _atom_site_symmetry_multiplicity
 _atom_site_fract_x
 _atom_site_fract_y
 _atom_site_fract_z
 _atom_site_occupancy
  Sc  Sc0  1  0.71194000  0.48370000  0.09225000  1.0
  Sc  Sc1  1  0.74999000  0.02981000  0.96986000  1.0
  Sc  Sc2  1  0.28806000  0.48370000  0.09225000  1.0
  Sc  Sc3  1  0.25001000  0.02981000  0.96986000  1.0
  Ga  Ga4  1  0.68743000  0.98142000  0.10825000  1.0
  Ga  Ga5  1  0.74999000  0.52981000  0.96986000  1.0
  Ga  Ga6  1  0.31257000  0.98142000  0.10825000  1.0
  Ga  Ga7  1  0.25001000  0.52981000  0.96986000  1.0
  Ge  Ge8  1  0.50000000  0.24828000  0.02563000  1.0
  Ge  Ge9  1  0.50000000  0.79472000  0.90959000  1.0
  Ge  Ge10  1  0.00000000  0.29136000  0.02839000  1.0
  Ge  Ge11  1  0.00000000  0.79472000  0.90959000  1.0
  Pd  Pd12  1  0.50000000  0.76866000  0.02095000  1.0
  Pd  Pd13  1  0.50000000  0.29472000  0.90959000  1.0
  Pd  Pd14  1  0.00000000  0.75036000  0.03768000  1.0
  Pd  Pd15  1  0.00000000  0.29472000  0.90959000  1.0
  C  C16  1  0.50000000  0.71528000  0.11146000  1.0
