# generated using pymatgen
data_Sc4Ga4Ge4Pd4C
_symmetry_space_group_name_H-M   Pm
_cell_length_a   5.89664000
_cell_length_b   7.83718000
_cell_length_c   24.41460000
_cell_angle_alpha   90.00000000
_cell_angle_beta   90.00000000
_cell_angle_gamma   90.00000000
_symmetry_Int_Tables_number   6
_chemical_formula_structural   Sc4Ga4Ge4Pd4C
_chemical_formula_sum   'Sc4 Ga4 Ge4 Pd4 C1'
_cell_volume   1128.27261966
_cell_formula_units_Z   1
loop_
 _symmetry_equiv_pos_site_id
 _symmetry_equiv_pos_as_xyz
  1  'x, y, z'
  2  'x, -y, z'
loop_
 _atom_site_type_symbol
 _atom_site_label
 _atom_site_symmetry_multiplicity
 _atom_site_fract_x
 _atom_site_fract_y
 _atom_site_fract_z
 _atom_site_occupancy
  Sc  Sc0  2  0.02981000  0.25001000  0.03014000  1.0
  Sc  Sc1  2  0.48370000  0.28806000  0.90775000  1.0
  Ga  Ga2  2  0.52981000  0.25001000  0.03014000  1.0
  Ga  Ga3  2  0.98142000  0.31257000  0.89175000  1.0
  Ge  Ge4  1  0.24828000  0.50000000  0.97437000  1.0
  Ge  Ge5  1  0.29136000  0.00000000  0.97161000  1.0
  Ge  Ge6  1  0.79472000  0.00000000  0.09041000  1.0
  Ge  Ge7  1  0.79472000  0.50000000  0.09041000  1.0
  Pd  Pd8  1  0.29472000  0.00000000  0.09041000  1.0
  Pd  Pd9  1  0.29472000  0.50000000  0.09041000  1.0
  Pd  Pd10  1  0.75036000  0.00000000  0.96232000  1.0
  Pd  Pd11  1  0.76866000  0.50000000  0.97905000  1.0
  C  C12  1  0.71528000  0.50000000  0.88854000  1.0
