# generated using pymatgen
data_Ti8Ni16Sb8CO
_symmetry_space_group_name_H-M   'P 1'
_cell_length_a   8.69561000
_cell_length_b   6.14873000
_cell_length_c   26.52170000
_cell_angle_alpha   90.00000000
_cell_angle_beta   90.00000000
_cell_angle_gamma   90.00000000
_symmetry_Int_Tables_number   1
_chemical_formula_structural   Ti8Ni16Sb8CO
_chemical_formula_sum   'Ti8 Ni16 Sb8 C1 O1'
_cell_volume   1418.03462199
_cell_formula_units_Z   1
loop_
 _symmetry_equiv_pos_site_id
 _symmetry_equiv_pos_as_xyz
  1  'x, y, z'
loop_
 _atom_site_type_symbol
 _atom_site_label
 _atom_site_symmetry_multiplicity
 _atom_site_fract_x
 _atom_site_fract_y
 _atom_site_fract_z
 _atom_site_occupancy
  Ti  Ti0  1  0.00000000  0.00000000  0.12295000  1.0
  Ti  Ti1  1  0.25000000  0.50000000  0.04098000  1.0
  Ti  Ti2  1  0.75000000  0.50000000  0.04098000  1.0
  Ti  Ti3  1  0.50000000  0.00000000  0.12295000  1.0
  Ti  Ti4  1  0.49946000  0.00000000  0.95724000  1.0
  Ti  Ti5  1  0.75000000  0.50000000  0.87992000  1.0
  Ti  Ti6  1  0.25001000  0.50000000  0.87943000  1.0
  Ti  Ti7  1  0.00054000  0.00000000  0.95724000  1.0
  Ni  Ni8  1  0.00000000  0.74997000  0.04098000  1.0
  Ni  Ni9  1  0.50000000  0.24997000  0.04098000  1.0
  Ni  Ni10  1  0.00000000  0.25003000  0.04098000  1.0
  Ni  Ni11  1  0.50000000  0.75003000  0.04098000  1.0
  Ni  Ni12  1  0.75000000  0.24997000  0.12295000  1.0
  Ni  Ni13  1  0.25000000  0.74997000  0.12295000  1.0
  Ni  Ni14  1  0.75000000  0.75003000  0.12295000  1.0
  Ni  Ni15  1  0.25000000  0.25003000  0.12295000  1.0
  Ni  Ni16  1  0.50046000  0.72885000  0.88339000  1.0
  Ni  Ni17  1  0.99954000  0.27110000  0.88339000  1.0
  Ni  Ni18  1  0.50046000  0.27115000  0.88339000  1.0
  Ni  Ni19  1  0.99954000  0.72890000  0.88339000  1.0
  Ni  Ni20  1  0.25001000  0.24588000  0.95564000  1.0
  Ni  Ni21  1  0.74999000  0.77957000  0.95106000  1.0
  Ni  Ni22  1  0.25001000  0.75412000  0.95564000  1.0
  Ni  Ni23  1  0.74999000  0.22043000  0.95106000  1.0
  Sb  Sb24  1  0.75000000  0.00000000  0.04098000  1.0
  Sb  Sb25  1  0.00000000  0.50000000  0.12295000  1.0
  Sb  Sb26  1  0.25000000  0.00000000  0.04098000  1.0
  Sb  Sb27  1  0.50000000  0.50000000  0.12295000  1.0
  Sb  Sb28  1  0.25000000  0.00000000  0.86908000  1.0
  Sb  Sb29  1  0.50488000  0.50000000  0.96223000  1.0
  Sb  Sb30  1  0.75001000  0.00000000  0.86185000  1.0
  Sb  Sb31  1  0.99513000  0.50000000  0.96223000  1.0
  C  C32  1  0.24995000  0.00000000  0.72095000  1.0
  O  O33  1  0.25001000  0.00000000  0.67814000  1.0
