# generated using pymatgen
data_Ti8Ni16Sb8CO
_symmetry_space_group_name_H-M   Pm
_cell_length_a   8.69561000
_cell_length_b   6.14873000
_cell_length_c   26.52170000
_cell_angle_alpha   90.00000000
_cell_angle_beta   90.00000000
_cell_angle_gamma   90.00000000
_symmetry_Int_Tables_number   6
_chemical_formula_structural   Ti8Ni16Sb8CO
_chemical_formula_sum   'Ti8 Ni16 Sb8 C1 O1'
_cell_volume   1418.03462199
_cell_formula_units_Z   1
loop_
 _symmetry_equiv_pos_site_id
 _symmetry_equiv_pos_as_xyz
  1  'x, y, z'
  2  'x, -y, z'
loop_
 _atom_site_type_symbol
 _atom_site_label
 _atom_site_symmetry_multiplicity
 _atom_site_fract_x
 _atom_site_fract_y
 _atom_site_fract_z
 _atom_site_occupancy
  Ti  Ti0  1  0.00000000  0.00000000  0.87705000  1.0
  Ti  Ti1  1  0.00054000  0.00000000  0.04276000  1.0
  Ti  Ti2  1  0.25000000  0.50000000  0.95902000  1.0
  Ti  Ti3  1  0.25001000  0.50000000  0.12057000  1.0
  Ti  Ti4  1  0.49946000  0.00000000  0.04276000  1.0
  Ti  Ti5  1  0.50000000  0.00000000  0.87705000  1.0
  Ti  Ti6  1  0.75000000  0.50000000  0.12008000  1.0
  Ti  Ti7  1  0.75000000  0.50000000  0.95902000  1.0
  Ni  Ni8  2  0.00000000  0.25003000  0.95902000  1.0
  Ni  Ni9  2  0.25000000  0.25003000  0.87705000  1.0
  Ni  Ni10  2  0.25001000  0.24588000  0.04436000  1.0
  Ni  Ni11  2  0.50000000  0.24997000  0.95902000  1.0
  Ni  Ni12  2  0.50046000  0.27115000  0.11661000  1.0
  Ni  Ni13  2  0.74999000  0.22043000  0.04894000  1.0
  Ni  Ni14  2  0.75000000  0.24997000  0.87705000  1.0
  Ni  Ni15  2  0.99954000  0.27110000  0.11661000  1.0
  Sb  Sb16  1  0.00000000  0.50000000  0.87705000  1.0
  Sb  Sb17  1  0.25000000  0.00000000  0.13092000  1.0
  Sb  Sb18  1  0.25000000  0.00000000  0.95902000  1.0
  Sb  Sb19  1  0.50000000  0.50000000  0.87705000  1.0
  Sb  Sb20  1  0.50488000  0.50000000  0.03777000  1.0
  Sb  Sb21  1  0.75000000  0.00000000  0.95902000  1.0
  Sb  Sb22  1  0.75001000  0.00000000  0.13815000  1.0
  Sb  Sb23  1  0.99513000  0.50000000  0.03777000  1.0
  C  C24  1  0.24995000  0.00000000  0.27905000  1.0
  O  O25  1  0.25001000  0.00000000  0.32186000  1.0
