# generated using pymatgen
data_In8Ag24CO
_symmetry_space_group_name_H-M   'P 1'
_cell_length_a   8.59601000
_cell_length_b   8.59601000
_cell_length_c   26.44700000
_cell_angle_alpha   90.00000000
_cell_angle_beta   90.00000000
_cell_angle_gamma   90.00000000
_symmetry_Int_Tables_number   1
_chemical_formula_structural   In8Ag24CO
_chemical_formula_sum   'In8 Ag24 C1 O1'
_cell_volume   1954.20553632
_cell_formula_units_Z   1
loop_
 _symmetry_equiv_pos_site_id
 _symmetry_equiv_pos_as_xyz
  1  'x, y, z'
loop_
 _atom_site_type_symbol
 _atom_site_label
 _atom_site_symmetry_multiplicity
 _atom_site_fract_x
 _atom_site_fract_y
 _atom_site_fract_z
 _atom_site_occupancy
  In  In0  1  0.00001500  0.00001500  0.87061000  1
  In  In1  1  0.00002000  0.00002000  0.04063000  1
  In  In2  1  0.00000000  0.50003000  0.86572000  1
  In  In3  1  1.00000000  0.50004000  0.04063000  1
  In  In4  1  0.50003000  0.00000000  0.86572000  1
  In  In5  1  0.50004000  0.00000000  0.04063000  1
  In  In6  1  0.50002000  0.50002000  0.86769000  1
  In  In7  1  0.50002000  0.50002000  0.04063000  1
  Ag  Ag8  1  0.99999000  0.74787000  0.95908000  1
  Ag  Ag9  1  0.25217000  0.00004000  0.95908000  1
  Ag  Ag10  1  0.24965000  0.75038000  0.88003000  1
  Ag  Ag11  1  1.00000000  0.75004000  0.12189000  1
  Ag  Ag12  1  0.25000000  0.00004000  0.12189000  1
  Ag  Ag13  1  0.25000000  0.75004000  0.04063000  1
  Ag  Ag14  1  0.00004000  0.25217000  0.95908000  1
  Ag  Ag15  1  0.25043000  0.50003000  0.95860000  1
  Ag  Ag16  1  0.24967500  0.24967500  0.88003000  1
  Ag  Ag17  1  0.00004000  0.25000000  0.12189000  1
  Ag  Ag18  1  0.25000000  0.50004000  0.12189000  1
  Ag  Ag19  1  0.25002000  0.25002000  0.04063000  1
  Ag  Ag20  1  0.50000000  0.74960000  0.95860000  1
  Ag  Ag21  1  0.74787000  0.99999000  0.95908000  1
  Ag  Ag22  1  0.75036000  0.75036000  0.88003000  1
  Ag  Ag23  1  0.50000000  0.75004000  0.12189000  1
  Ag  Ag24  1  0.75004000  0.00000000  0.12189000  1
  Ag  Ag25  1  0.75002000  0.75002000  0.04063000  1
  Ag  Ag26  1  0.50003000  0.25043000  0.95860000  1
  Ag  Ag27  1  0.74960000  0.50000000  0.95860000  1
  Ag  Ag28  1  0.75038000  0.24965000  0.88003000  1
  Ag  Ag29  1  0.50004000  0.25000000  0.12189000  1
  Ag  Ag30  1  0.75004000  0.50000000  0.12189000  1
  Ag  Ag31  1  0.75004000  0.25000000  0.04063000  1
  C  C32  1  0.00012000  0.00012000  0.71605000  1
  O  O33  1  0.99999500  0.99999500  0.67316000  1
