# generated using pymatgen
data_In8Ag24CO
_symmetry_space_group_name_H-M   Cm
_cell_length_a   12.15659392
_cell_length_b   12.15659392
_cell_length_c   26.44700000
_cell_angle_alpha   90.00000000
_cell_angle_beta   90.00000000
_cell_angle_gamma   90.00000000
_symmetry_Int_Tables_number   8
_chemical_formula_structural   In8Ag24CO
_chemical_formula_sum   'In16 Ag48 C2 O2'
_cell_volume   3908.41107265
_cell_formula_units_Z   2
loop_
 _symmetry_equiv_pos_site_id
 _symmetry_equiv_pos_as_xyz
  1  'x, y, z'
  2  'x, -y, z'
  3  'x+1/2, y+1/2, z'
  4  'x+1/2, -y+1/2, z'
loop_
 _atom_site_type_symbol
 _atom_site_label
 _atom_site_symmetry_multiplicity
 _atom_site_fract_x
 _atom_site_fract_y
 _atom_site_fract_z
 _atom_site_occupancy
  In  In0  4  0.25001500  0.25001500  0.13428000  1.0
  In  In1  4  0.25002000  0.25002000  0.95937000  1.0
  In  In2  2  0.00001500  0.00000000  0.12939000  1.0
  In  In3  2  0.00002000  0.00000000  0.95937000  1.0
  In  In4  2  0.00002000  0.50000000  0.13231000  1.0
  In  In5  2  0.00002000  0.50000000  0.95937000  1.0
  Ag  Ag6  4  0.00001500  0.24963500  0.11997000  1.0
  Ag  Ag7  4  0.00002000  0.24998000  0.95937000  1.0
  Ag  Ag8  4  0.12480000  0.37520000  0.04140000  1.0
  Ag  Ag9  4  0.12502000  0.12498000  0.87811000  1.0
  Ag  Ag10  4  0.12502000  0.37498000  0.87811000  1.0
  Ag  Ag11  4  0.12610500  0.87393500  0.04092000  1.0
  Ag  Ag12  4  0.37393000  0.37394000  0.04092000  1.0
  Ag  Ag13  4  0.37502000  0.12502000  0.87811000  1.0
  Ag  Ag14  4  0.37502000  0.37502000  0.87811000  1.0
  Ag  Ag15  4  0.37523000  0.12480000  0.04140000  1.0
  Ag  Ag16  2  0.24967500  0.00000000  0.11997000  1.0
  Ag  Ag17  2  0.25002000  0.50000000  0.95937000  1.0
  Ag  Ag18  2  0.25002000  0.00000000  0.95937000  1.0
  Ag  Ag19  2  0.25036000  0.50000000  0.11997000  1.0
  C  C20  2  0.00012000  0.00000000  0.28395000  1.0
  O  O21  2  0.49999500  0.50000000  0.32684000  1.0
