# generated using pymatgen
data_Sc24In8CO
_symmetry_space_group_name_H-M   'P 1'
_cell_length_a   9.05810000
_cell_length_b   9.05810000
_cell_length_c   26.79360000
_cell_angle_alpha   90.00000000
_cell_angle_beta   90.00000000
_cell_angle_gamma   90.00000000
_symmetry_Int_Tables_number   1
_chemical_formula_structural   Sc24In8CO
_chemical_formula_sum   'Sc24 In8 C1 O1'
_cell_volume   2198.39279162
_cell_formula_units_Z   1
loop_
 _symmetry_equiv_pos_site_id
 _symmetry_equiv_pos_as_xyz
  1  'x, y, z'
loop_
 _atom_site_type_symbol
 _atom_site_label
 _atom_site_symmetry_multiplicity
 _atom_site_fract_x
 _atom_site_fract_y
 _atom_site_fract_z
 _atom_site_occupancy
  Sc  Sc0  1  0.75000000  0.00000000  0.04226000  1.0
  Sc  Sc1  1  0.00000000  0.75000000  0.04226000  1.0
  Sc  Sc2  1  0.00000000  0.00000000  0.12678000  1.0
  Sc  Sc3  1  0.75000000  0.00000000  0.87322000  1.0
  Sc  Sc4  1  0.00000000  0.75000000  0.87322000  1.0
  Sc  Sc5  1  0.00000000  0.00000000  0.95774000  1.0
  Sc  Sc6  1  0.75000000  0.50000000  0.04226000  1.0
  Sc  Sc7  1  0.00000000  0.25000000  0.04226000  1.0
  Sc  Sc8  1  0.00000000  0.50000000  0.12678000  1.0
  Sc  Sc9  1  0.75000000  0.50000000  0.87322000  1.0
  Sc  Sc10  1  0.00000000  0.25000000  0.87322000  1.0
  Sc  Sc11  1  0.00000000  0.50000000  0.95774000  1.0
  Sc  Sc12  1  0.25000000  0.00000000  0.04226000  1.0
  Sc  Sc13  1  0.50000000  0.75000000  0.04226000  1.0
  Sc  Sc14  1  0.50000000  0.00000000  0.12678000  1.0
  Sc  Sc15  1  0.25000000  0.00000000  0.87322000  1.0
  Sc  Sc16  1  0.50000000  0.75000000  0.87322000  1.0
  Sc  Sc17  1  0.50000000  0.00000000  0.95774000  1.0
  Sc  Sc18  1  0.25000000  0.50000000  0.04226000  1.0
  Sc  Sc19  1  0.50000000  0.25000000  0.04226000  1.0
  Sc  Sc20  1  0.50000000  0.50000000  0.12678000  1.0
  Sc  Sc21  1  0.25000000  0.50000000  0.87322000  1.0
  Sc  Sc22  1  0.50000000  0.25000000  0.87322000  1.0
  Sc  Sc23  1  0.50000000  0.50000000  0.95774000  1.0
  In  In24  1  0.75000000  0.75000000  0.12678000  1.0
  In  In25  1  0.75000000  0.75000000  0.95774000  1.0
  In  In26  1  0.75000000  0.25000000  0.12678000  1.0
  In  In27  1  0.75000000  0.25000000  0.95774000  1.0
  In  In28  1  0.25000000  0.75000000  0.12678000  1.0
  In  In29  1  0.25000000  0.75000000  0.95774000  1.0
  In  In30  1  0.25000000  0.25000000  0.12678000  1.0
  In  In31  1  0.25000000  0.25000000  0.95774000  1.0
  C  C32  1  0.00000000  0.00000000  0.19769000  1.0
  O  O33  1  0.00000000  0.00000000  0.24061000  1.0
