# generated using pymatgen
data_Li4Y4In4Pt4CO
_symmetry_space_group_name_H-M   P2
_cell_length_a   6.80323000
_cell_length_b   25.10240000
_cell_length_c   6.80323000
_cell_angle_alpha   90.00000000
_cell_angle_beta   90.00000000
_cell_angle_gamma   90.00000000
_symmetry_Int_Tables_number   3
_chemical_formula_structural   Li4Y4In4Pt4CO
_chemical_formula_sum   'Li4 Y4 In4 Pt4 C1 O1'
_cell_volume   1161.83793612
_cell_formula_units_Z   1
loop_
 _symmetry_equiv_pos_site_id
 _symmetry_equiv_pos_as_xyz
  1  'x, y, z'
  2  '-x, y, -z'
loop_
 _atom_site_type_symbol
 _atom_site_label
 _atom_site_symmetry_multiplicity
 _atom_site_fract_x
 _atom_site_fract_y
 _atom_site_fract_z
 _atom_site_occupancy
  Li  Li0  2  0.24795000  0.03505000  0.74752000  1.0
  Li  Li1  2  0.25000000  0.89837000  0.25000000  1.0
  Y  Y2  1  0.00000000  0.10289000  0.50000000  1.0
  Y  Y3  1  0.00000000  0.96612000  0.00000000  1.0
  Y  Y4  1  0.50000000  0.10336000  0.00000000  1.0
  Y  Y5  1  0.50000000  0.96612000  0.50000000  1.0
  In  In6  1  0.00000000  0.10248000  0.00000000  1.0
  In  In7  1  0.00000000  0.96612000  0.50000000  1.0
  In  In8  1  0.50000000  0.10245000  0.50000000  1.0
  In  In9  1  0.50000000  0.96612000  0.00000000  1.0
  Pt  Pt10  2  0.24657000  0.03433000  0.25344000  1.0
  Pt  Pt11  2  0.25000000  0.89837000  0.75000000  1.0
  C  C12  1  0.50000000  0.20349000  0.00000000  1.0
  O  O13  1  0.50000000  0.24920000  0.00000000  1.0
