# generated using pymatgen
data_GaNi
_symmetry_space_group_name_H-M   Pmm2
_cell_length_a   2.93924500
_cell_length_b   8.31345000
_cell_length_c   26.23510000
_cell_angle_alpha   90.00000000
_cell_angle_beta   90.00000000
_cell_angle_gamma   90.00000000
_symmetry_Int_Tables_number   25
_chemical_formula_structural   GaNi
_chemical_formula_sum   'Ga8 Ni8'
_cell_volume   641.06165609
_cell_formula_units_Z   8
loop_
 _symmetry_equiv_pos_site_id
 _symmetry_equiv_pos_as_xyz
  1  'x, y, z'
  2  '-x, -y, z'
  3  '-x, y, z'
  4  'x, -y, z'
  5  'x, y+1/2, z'
  6  '-x, -y+1/2, z'
  7  '-x, y+1/2, z'
  8  'x, -y+1/2, z'
loop_
 _atom_site_type_symbol
 _atom_site_label
 _atom_site_symmetry_multiplicity
 _atom_site_fract_x
 _atom_site_fract_y
 _atom_site_fract_z
 _atom_site_occupancy
  Ga  Ga0  2  0.00000000  0.00000000  0.12486000  1.0
  Ga  Ga1  2  0.00000000  0.00000000  0.96039000  1.0
  Ga  Ga2  2  0.00000000  0.25000000  0.88117000  1.0
  Ga  Ga3  2  0.00000000  0.25001000  0.04029000  1.0
  Ni  Ni4  2  0.50000000  0.00000000  0.03750000  1.0
  Ni  Ni5  2  0.50000000  0.00000000  0.88117000  1.0
  Ni  Ni6  2  0.50000000  0.25000000  0.11523500  1.0
  Ni  Ni7  2  0.50000000  0.25000000  0.96039000  1.0
