# generated using pymatgen
data_ScInGePd
_symmetry_space_group_name_H-M   P1
_cell_length_a   5.71274000
_cell_length_b   9.28368000
_cell_length_c   24.27220000
_cell_angle_alpha   90.00000000
_cell_angle_beta   90.00000000
_cell_angle_gamma   90.00000000
_symmetry_Int_Tables_number   1
_chemical_formula_structural   ScInGePd
_chemical_formula_sum   'Sc4 In4 Ge4 Pd4'
_cell_volume   1287.28219707
_cell_formula_units_Z   4
loop_
 _symmetry_equiv_pos_site_id
 _symmetry_equiv_pos_as_xyz
  1  'x, y, z'
loop_
 _atom_site_type_symbol
 _atom_site_label
 _atom_site_symmetry_multiplicity
 _atom_site_fract_x
 _atom_site_fract_y
 _atom_site_fract_z
 _atom_site_occupancy
  Sc  Sc0  1  0.50000000  0.00000000  0.91199000  1.0
  Sc  Sc1  1  0.50000000  0.50000000  0.91199000  1.0
  Sc  Sc2  1  0.93147000  0.50001000  0.03171000  1.0
  Sc  Sc3  1  0.93188000  0.99997000  0.03182000  1.0
  In  In4  1  0.23099000  0.25000000  0.97066000  1.0
  In  In5  1  0.23099000  0.75000000  0.97066000  1.0
  In  In6  1  0.64671000  0.74994000  0.09493000  1.0
  In  In7  1  0.64711000  0.24995000  0.09498000  1.0
  Ge  Ge8  1  0.00000000  0.00000000  0.91199000  1.0
  Ge  Ge9  1  0.00000000  0.50000000  0.91199000  1.0
  Ge  Ge10  1  0.43425000  0.49976000  0.04296000  1.0
  Ge  Ge11  1  0.43510000  0.00013000  0.04280000  1.0
  Pd  Pd12  1  0.13935000  0.74997000  0.08021000  1.0
  Pd  Pd13  1  0.13956000  0.25007000  0.08022000  1.0
  Pd  Pd14  1  0.73099000  0.25000000  0.97066000  1.0
  Pd  Pd15  1  0.73099000  0.75000000  0.97066000  1.0
