# generated using pymatgen
data_Li8Zr8Ge8Pd8C
_symmetry_space_group_name_H-M   'P 1'
_cell_length_a   6.47880000
_cell_length_b   9.16240000
_cell_length_c   26.87180000
_cell_angle_alpha   90.00000000
_cell_angle_beta   90.00000000
_cell_angle_gamma   90.00000000
_symmetry_Int_Tables_number   1
_chemical_formula_structural   Li8Zr8Ge8Pd8C
_chemical_formula_sum   'Li8 Zr8 Ge8 Pd8 C1'
_cell_volume   1595.14651626
_cell_formula_units_Z   1
loop_
 _symmetry_equiv_pos_site_id
 _symmetry_equiv_pos_as_xyz
  1  'x, y, z'
loop_
 _atom_site_type_symbol
 _atom_site_label
 _atom_site_symmetry_multiplicity
 _atom_site_fract_x
 _atom_site_fract_y
 _atom_site_fract_z
 _atom_site_occupancy
  Li  Li0  1  0.25000000  0.00000000  0.95738000  1.0
  Li  Li1  1  0.25000000  0.50000000  0.95738000  1.0
  Li  Li2  1  0.75000000  0.25000000  0.87214000  1.0
  Li  Li3  1  0.75000000  0.75000000  0.87214000  1.0
  Li  Li4  1  0.20281000  0.51011000  0.14301000  1.0
  Li  Li5  1  0.22049000  0.04760000  0.14237000  1.0
  Li  Li6  1  0.74837000  0.75305000  0.03890000  1.0
  Li  Li7  1  0.74351000  0.23574000  0.03976000  1.0
  Zr  Zr8  1  0.75000000  0.00000000  0.95738000  1.0
  Zr  Zr9  1  0.75000000  0.50000000  0.95738000  1.0
  Zr  Zr10  1  0.25000000  0.25000000  0.87214000  1.0
  Zr  Zr11  1  0.25000000  0.75000000  0.87214000  1.0
  Zr  Zr12  1  0.68132000  0.57783000  0.13272000  1.0
  Zr  Zr13  1  0.71197000  0.01538000  0.11853000  1.0
  Zr  Zr14  1  0.26892000  0.72318000  0.04829000  1.0
  Zr  Zr15  1  0.21961000  0.24840000  0.05088000  1.0
  Ge  Ge16  1  0.00000000  0.00000000  0.87214000  1.0
  Ge  Ge17  1  0.00000000  0.50000000  0.87214000  1.0
  Ge  Ge18  1  0.50000000  0.75000000  0.95738000  1.0
  Ge  Ge19  1  0.50000000  0.25000000  0.95738000  1.0
  Ge  Ge20  1  0.96134000  0.50439000  0.05199000  1.0
  Ge  Ge21  1  0.01945000  0.97017000  0.04003000  1.0
  Ge  Ge22  1  0.49591000  0.29563000  0.13175000  1.0
  Ge  Ge23  1  0.40085000  0.78793000  0.14688000  1.0
  Pd  Pd24  1  0.00000000  0.25000000  0.95738000  1.0
  Pd  Pd25  1  0.00000000  0.75000000  0.95738000  1.0
  Pd  Pd26  1  0.50000000  0.50000000  0.87214000  1.0
  Pd  Pd27  1  0.50000000  0.00000000  0.87214000  1.0
  Pd  Pd28  1  0.99319000  0.77316000  0.12247000  1.0
  Pd  Pd29  1  0.88878000  0.31959000  0.12490000  1.0
  Pd  Pd30  1  0.47090000  0.99179000  0.03652000  1.0
  Pd  Pd31  1  0.52443000  0.47894000  0.04510000  1.0
  C  C32  1  0.98929000  0.11967000  0.09399000  1.0
