data_image0
_chemical_formula_structural       Li8Cu8Sb8Pd8CO
_chemical_formula_sum              "Li8 Cu8 Sb8 Pd8 C1 O1"
_cell_length_a       6.3725
_cell_length_b       9.01208
_cell_length_c       26.7591
_cell_angle_alpha    90
_cell_angle_beta     90
_cell_angle_gamma    90

_space_group_name_H-M_alt    "P 1"
_space_group_IT_number       1

loop_
  _space_group_symop_operation_xyz
  'x, y, z'

loop_
  _atom_site_type_symbol
  _atom_site_label
  _atom_site_symmetry_multiplicity
  _atom_site_fract_x
  _atom_site_fract_y
  _atom_site_fract_z
  _atom_site_occupancy
  Li  Li1       1.0  0.25000  0.00000  0.95790  1.0000
  Li  Li2       1.0  0.25000  0.50000  0.95790  1.0000
  Li  Li3       1.0  0.75000  0.25000  0.87371  1.0000
  Li  Li4       1.0  0.75000  0.75000  0.87371  1.0000
  Li  Li5       1.0  0.24650  0.50000  0.12948  1.0000
  Li  Li6       1.0  0.24174  1.00000  0.13317  1.0000
  Li  Li7       1.0  0.74901  0.75803  0.03525  1.0000
  Li  Li8       1.0  0.74901  0.24196  0.03525  1.0000
  Cu  Cu1       1.0  0.00000  0.00000  0.87371  1.0000
  Cu  Cu2       1.0  0.00000  0.50000  0.87371  1.0000
  Cu  Cu3       1.0  0.50000  0.75000  0.95790  1.0000
  Cu  Cu4       1.0  0.50000  0.25000  0.95790  1.0000
  Cu  Cu5       1.0  0.97065  0.50000  0.05165  1.0000
  Cu  Cu6       1.0  0.98879  1.00000  0.05182  1.0000
  Cu  Cu7       1.0  0.54004  0.25126  0.11471  1.0000
  Cu  Cu8       1.0  0.54004  0.74874  0.11471  1.0000
  Sb  Sb1       1.0  0.75000  0.00000  0.95790  1.0000
  Sb  Sb2       1.0  0.75000  0.50000  0.95790  1.0000
  Sb  Sb3       1.0  0.25000  0.25000  0.87371  1.0000
  Sb  Sb4       1.0  0.25000  0.75000  0.87371  1.0000
  Sb  Sb5       1.0  0.73923  0.50001  0.14290  1.0000
  Sb  Sb6       1.0  0.75139  0.99999  0.13850  1.0000
  Sb  Sb7       1.0  0.25463  0.74652  0.04221  1.0000
  Sb  Sb8       1.0  0.25463  0.25348  0.04221  1.0000
  Pd  Pd1       1.0  0.00000  0.25000  0.95790  1.0000
  Pd  Pd2       1.0  0.00000  0.75000  0.95790  1.0000
  Pd  Pd3       1.0  0.50000  0.50000  0.87371  1.0000
  Pd  Pd4       1.0  0.50000  0.00000  0.87371  1.0000
  Pd  Pd5       1.0  0.97027  0.74568  0.11527  1.0000
  Pd  Pd6       1.0  0.97029  0.25432  0.11526  1.0000
  Pd  Pd7       1.0  0.50092  0.00000  0.05272  1.0000
  Pd  Pd8       1.0  0.52675  0.50000  0.05007  1.0000
  C   C1        1.0  0.68027  1.00000  0.28695  1.0000
  O   O1        1.0  0.78587  0.00000  0.32121  1.0000
