# generated using pymatgen
data_Mg4Ni8Sb4C
_symmetry_space_group_name_H-M   'P 1'
_cell_length_a   6.22749000
_cell_length_b   6.22749000
_cell_length_c   24.67060000
_cell_angle_alpha   90.00000000
_cell_angle_beta   90.00000000
_cell_angle_gamma   90.00000000
_symmetry_Int_Tables_number   1
_chemical_formula_structural   Mg4Ni8Sb4C
_chemical_formula_sum   'Mg4 Ni8 Sb4 C1'
_cell_volume   956.76612302
_cell_formula_units_Z   1
loop_
 _symmetry_equiv_pos_site_id
 _symmetry_equiv_pos_as_xyz
  1  'x, y, z'
loop_
 _atom_site_type_symbol
 _atom_site_label
 _atom_site_symmetry_multiplicity
 _atom_site_fract_x
 _atom_site_fract_y
 _atom_site_fract_z
 _atom_site_occupancy
  Mg  Mg0  1  0.00000000  0.00000000  0.90534000  1.0
  Mg  Mg1  1  0.50000000  0.50000000  0.90534000  1.0
  Mg  Mg2  1  0.50012000  0.99994000  0.03645000  1.0
  Mg  Mg3  1  0.99991000  0.50009000  0.03649000  1.0
  Ni  Ni4  1  0.25000000  0.25000000  0.96845000  1.0
  Ni  Ni5  1  0.79069000  0.79106000  0.09647000  1.0
  Ni  Ni6  1  0.75000000  0.25000000  0.96845000  1.0
  Ni  Ni7  1  0.20909000  0.79101000  0.09638000  1.0
  Ni  Ni8  1  0.75000000  0.75000000  0.96845000  1.0
  Ni  Ni9  1  0.20908000  0.20895000  0.09625000  1.0
  Ni  Ni10  1  0.25000000  0.75000000  0.96845000  1.0
  Ni  Ni11  1  0.79066000  0.20893000  0.09641000  1.0
  Sb  Sb12  1  0.99994000  0.99993000  0.02001000  1.0
  Sb  Sb13  1  0.50000000  0.00000000  0.90534000  1.0
  Sb  Sb14  1  0.00000000  0.50000000  0.90534000  1.0
  Sb  Sb15  1  0.49996000  0.49996000  0.05563000  1.0
  C  C16  1  0.99987000  0.99988000  0.11638000  1.0
