# generated using pymatgen
data_Li4Al4In4Pd4CO
_symmetry_space_group_name_H-M   'P 1'
_cell_length_a   6.39489000
_cell_length_b   6.39489000
_cell_length_c   24.79620000
_cell_angle_alpha   90.00000000
_cell_angle_beta   90.00000000
_cell_angle_gamma   90.00000000
_symmetry_Int_Tables_number   1
_chemical_formula_structural   Li4Al4In4Pd4CO
_chemical_formula_sum   'Li4 Al4 In4 Pd4 C1 O1'
_cell_volume   1014.03112963
_cell_formula_units_Z   1
loop_
 _symmetry_equiv_pos_site_id
 _symmetry_equiv_pos_as_xyz
  1  'x, y, z'
loop_
 _atom_site_type_symbol
 _atom_site_label
 _atom_site_symmetry_multiplicity
 _atom_site_fract_x
 _atom_site_fract_y
 _atom_site_fract_z
 _atom_site_occupancy
  Li  Li0  1  0.25000000  0.24995000  0.03224000  1
  Li  Li1  1  0.75002500  0.24997500  0.88845000  1
  Li  Li2  1  0.25002500  0.74997500  0.88812000  1
  Li  Li3  1  0.75005000  0.75000000  0.03224000  1
  Al  Al4  1  0.00002500  0.99997500  0.09671000  1
  Al  Al5  1  0.49977000  0.99971000  0.96267000  1
  Al  Al6  1  0.00029000  0.50023000  0.96267000  1
  Al  Al7  1  0.50002500  0.49997500  0.09671000  1
  In  In8  1  0.50000000  0.99995000  0.09671000  1
  In  In9  1  0.00081000  0.99919000  0.96529000  1
  In  In10  1  0.49923500  0.50076500  0.96529000  1
  In  In11  1  0.00005000  0.50000000  0.09671000  1
  Pd  Pd12  1  0.25002500  0.74997500  0.03224000  1
  Pd  Pd13  1  0.75001000  0.74994000  0.90961000  1
  Pd  Pd14  1  0.25006000  0.24999000  0.90961000  1
  Pd  Pd15  1  0.75002500  0.24997500  0.03224000  1
  C  C16  1  0.25007000  0.74993000  0.80362000  1
  O  O17  1  0.25006500  0.74993500  0.75765000  1
