# generated using pymatgen
data_Li8Y8Sn8Ge8C
_symmetry_space_group_name_H-M   Pmm2
_cell_length_a   8.60818000
_cell_length_b   9.43388000
_cell_length_c   26.39560000
_cell_angle_alpha   90.00000000
_cell_angle_beta   90.00000000
_cell_angle_gamma   90.00000000
_symmetry_Int_Tables_number   25
_chemical_formula_structural   Li8Y8Sn8Ge8C
_chemical_formula_sum   'Li8 Y8 Sn8 Ge8 C1'
_cell_volume   2143.54806289
_cell_formula_units_Z   1
loop_
 _symmetry_equiv_pos_site_id
 _symmetry_equiv_pos_as_xyz
  1  'x, y, z'
  2  '-x, -y, z'
  3  '-x, y, z'
  4  'x, -y, z'
loop_
 _atom_site_type_symbol
 _atom_site_label
 _atom_site_symmetry_multiplicity
 _atom_site_fract_x
 _atom_site_fract_y
 _atom_site_fract_z
 _atom_site_occupancy
  Li  Li0  2  0.00000000  0.22686000  0.88605000  1.0
  Li  Li1  2  0.00000000  0.25000000  0.04038000  1.0
  Li  Li2  2  0.50000000  0.25000000  0.04038000  1.0
  Li  Li3  2  0.50000000  0.25654000  0.89048000  1.0
  Y  Y4  2  0.24955000  0.50000000  0.88231000  1.0
  Y  Y5  2  0.25000000  0.00000000  0.04038000  1.0
  Y  Y6  2  0.25000000  0.50000000  0.04038000  1.0
  Y  Y7  2  0.26036000  0.00000000  0.87724000  1.0
  Sn  Sn8  4  0.25000000  0.25000000  0.12115000  1.0
  Sn  Sn9  4  0.25040000  0.24858000  0.95998000  1.0
  Ge  Ge10  1  0.00000000  0.00000000  0.12115000  1.0
  Ge  Ge11  1  0.00000000  0.00000000  0.95850000  1.0
  Ge  Ge12  1  0.00000000  0.50000000  0.12115000  1.0
  Ge  Ge13  1  0.00000000  0.50000000  0.95830000  1.0
  Ge  Ge14  1  0.50000000  0.00000000  0.12115000  1.0
  Ge  Ge15  1  0.50000000  0.00000000  0.96158000  1.0
  Ge  Ge16  1  0.50000000  0.50000000  0.12115000  1.0
  Ge  Ge17  1  0.50000000  0.50000000  0.95965000  1.0
  C  C18  1  0.00000000  0.00000000  0.88145000  1.0
