# generated using pymatgen
data_Zn8Ni16Ge8CO
_symmetry_space_group_name_H-M   Pmm2
_cell_length_a   5.89777000
_cell_length_b   8.34071000
_cell_length_c   26.25550000
_cell_angle_alpha   90.00000000
_cell_angle_beta   90.00000000
_cell_angle_gamma   90.00000000
_symmetry_Int_Tables_number   25
_chemical_formula_structural   Zn8Ni16Ge8CO
_chemical_formula_sum   'Zn8 Ni16 Ge8 C1 O1'
_cell_volume   1291.54977068
_cell_formula_units_Z   1
loop_
 _symmetry_equiv_pos_site_id
 _symmetry_equiv_pos_as_xyz
  1  'x, y, z'
  2  '-x, -y, z'
  3  '-x, y, z'
  4  'x, -y, z'
loop_
 _atom_site_type_symbol
 _atom_site_label
 _atom_site_symmetry_multiplicity
 _atom_site_fract_x
 _atom_site_fract_y
 _atom_site_fract_z
 _atom_site_occupancy
  Zn  Zn0  2  0.00000000  0.24398000  0.03557000  1.0
  Zn  Zn1  2  0.00000000  0.25000000  0.88087000  1.0
  Zn  Zn2  1  0.50000000  0.00000000  0.12600000  1.0
  Zn  Zn3  1  0.50000000  0.00000000  0.96029000  1.0
  Zn  Zn4  1  0.50000000  0.50000000  0.12438000  1.0
  Zn  Zn5  1  0.50000000  0.50000000  0.96029000  1.0
  Ni  Ni6  4  0.23544000  0.25473000  0.11129000  1.0
  Ni  Ni7  4  0.25000000  0.25000000  0.96029000  1.0
  Ni  Ni8  2  0.24669000  0.50000000  0.03795000  1.0
  Ni  Ni9  2  0.25000000  0.00000000  0.88087000  1.0
  Ni  Ni10  2  0.25000000  0.50000000  0.88087000  1.0
  Ni  Ni11  2  0.26380000  0.00000000  0.04290000  1.0
  Ge  Ge12  2  0.50000000  0.25000000  0.88087000  1.0
  Ge  Ge13  2  0.50000000  0.25312000  0.03993000  1.0
  Ge  Ge14  1  0.00000000  0.00000000  0.11999000  1.0
  Ge  Ge15  1  0.00000000  0.00000000  0.96029000  1.0
  Ge  Ge16  1  0.00000000  0.50000000  0.12008000  1.0
  Ge  Ge17  1  0.00000000  0.50000000  0.96029000  1.0
  C  C18  1  0.50000000  0.00000000  0.20582000  1.0
  O  O19  1  0.50000000  0.00000000  0.24931000  1.0
