# generated using pymatgen
data_Li4Y4In4Pb4CO
_symmetry_space_group_name_H-M   'P 1'
_cell_length_a   9.00122000
_cell_length_b   6.63002000
_cell_length_c   24.97230000
_cell_angle_alpha   90.00000000
_cell_angle_beta   90.00000000
_cell_angle_gamma   90.00000000
_symmetry_Int_Tables_number   1
_chemical_formula_structural   Li4Y4In4Pb4CO
_chemical_formula_sum   'Li4 Y4 In4 Pb4 C1 O1'
_cell_volume   1490.30362757
_cell_formula_units_Z   1
loop_
 _symmetry_equiv_pos_site_id
 _symmetry_equiv_pos_as_xyz
  1  'x, y, z'
loop_
 _atom_site_type_symbol
 _atom_site_label
 _atom_site_symmetry_multiplicity
 _atom_site_fract_x
 _atom_site_fract_y
 _atom_site_fract_z
 _atom_site_occupancy
  Li  Li0  1  0.50000000  0.75252000  0.96681000  1.0
  Li  Li1  1  0.50000000  0.27110000  0.09020000  1.0
  Li  Li2  1  0.00000000  0.75252000  0.96681000  1.0
  Li  Li3  1  0.00000000  0.26904000  0.09038000  1.0
  Y  Y4  1  0.50000000  0.25252000  0.96681000  1.0
  Y  Y5  1  0.50000000  0.76436000  0.09321000  1.0
  Y  Y6  1  0.00000000  0.25252000  0.96681000  1.0
  Y  Y7  1  0.00000000  0.76260000  0.09119000  1.0
  In  In8  1  0.75000000  0.00000000  0.90044000  1.0
  In  In9  1  0.74918000  0.51861000  0.03055000  1.0
  In  In10  1  0.25000000  0.00000000  0.90044000  1.0
  In  In11  1  0.25082000  0.51861000  0.03055000  1.0
  Pb  Pb12  1  0.75000000  0.50000000  0.90044000  1.0
  Pb  Pb13  1  0.74909000  0.02454000  0.04107000  1.0
  Pb  Pb14  1  0.25000000  0.50000000  0.90044000  1.0
  Pb  Pb15  1  0.25091000  0.02454000  0.04107000  1.0
  C  C16  1  0.50000000  0.26025000  0.17068000  1.0
  O  O17  1  0.50000000  0.25373000  0.21692000  1.0
