data_image0
_chemical_formula_structural       Zr16Os16CO
_chemical_formula_sum              "Zr16 Os16 C1 O1"
_cell_length_a       6.57738
_cell_length_b       9.30182
_cell_length_c       26.9764
_cell_angle_alpha    90
_cell_angle_beta     90
_cell_angle_gamma    90

_space_group_name_H-M_alt    "P 1"
_space_group_IT_number       1

loop_
  _space_group_symop_operation_xyz
  'x, y, z'

loop_
  _atom_site_type_symbol
  _atom_site_label
  _atom_site_symmetry_multiplicity
  _atom_site_fract_x
  _atom_site_fract_y
  _atom_site_fract_z
  _atom_site_occupancy
  Zr  Zr1       1.0  0.25000  0.25000  0.87069  1.0000
  Zr  Zr2       1.0  0.25000  0.00000  0.95690  1.0000
  Zr  Zr3       1.0  0.25000  0.24938  0.04455  1.0000
  Zr  Zr4       1.0  0.25000  0.50000  0.13087  1.0000
  Zr  Zr5       1.0  0.25000  0.75000  0.87069  1.0000
  Zr  Zr6       1.0  0.25000  0.50000  0.95690  1.0000
  Zr  Zr7       1.0  0.25000  0.75062  0.04455  1.0000
  Zr  Zr8       1.0  0.25000  0.00000  0.13234  1.0000
  Zr  Zr9       1.0  0.75000  0.25000  0.87069  1.0000
  Zr  Zr10      1.0  0.75000  0.00000  0.95690  1.0000
  Zr  Zr11      1.0  0.75000  0.25002  0.04442  1.0000
  Zr  Zr12      1.0  0.75000  0.50000  0.13100  1.0000
  Zr  Zr13      1.0  0.75000  0.75000  0.87069  1.0000
  Zr  Zr14      1.0  0.75000  0.50000  0.95690  1.0000
  Zr  Zr15      1.0  0.75000  0.74998  0.04442  1.0000
  Zr  Zr16      1.0  0.75000  1.00000  0.13111  1.0000
  Os  Os1       1.0  0.00000  0.00000  0.87069  1.0000
  Os  Os2       1.0  0.00000  0.25000  0.95690  1.0000
  Os  Os3       1.0  0.99804  0.00000  0.04267  1.0000
  Os  Os4       1.0  0.99941  0.25150  0.12348  1.0000
  Os  Os5       1.0  0.00000  0.50000  0.87069  1.0000
  Os  Os6       1.0  0.00000  0.75000  0.95690  1.0000
  Os  Os7       1.0  0.00022  0.50000  0.04334  1.0000
  Os  Os8       1.0  0.99941  0.74850  0.12348  1.0000
  Os  Os9       1.0  0.50000  0.00000  0.87069  1.0000
  Os  Os10      1.0  0.50000  0.25000  0.95690  1.0000
  Os  Os11      1.0  0.50196  1.00000  0.04267  1.0000
  Os  Os12      1.0  0.50059  0.25150  0.12348  1.0000
  Os  Os13      1.0  0.50000  0.50000  0.87069  1.0000
  Os  Os14      1.0  0.50000  0.75000  0.95690  1.0000
  Os  Os15      1.0  0.49978  0.50000  0.04334  1.0000
  Os  Os16      1.0  0.50059  0.74850  0.12348  1.0000
  C   C1        1.0  0.25000  1.00000  0.21866  1.0000
  O   O1        1.0  0.25000  1.00000  0.26124  1.0000
