# generated using pymatgen
data_Zr16Os16CO
_symmetry_space_group_name_H-M   Pmm2
_cell_length_a   6.57738000
_cell_length_b   9.30182000
_cell_length_c   26.97640000
_cell_angle_alpha   90.00000000
_cell_angle_beta   90.00000000
_cell_angle_gamma   90.00000000
_symmetry_Int_Tables_number   25
_chemical_formula_structural   Zr16Os16CO
_chemical_formula_sum   'Zr16 Os16 C1 O1'
_cell_volume   1650.45944458
_cell_formula_units_Z   1
loop_
 _symmetry_equiv_pos_site_id
 _symmetry_equiv_pos_as_xyz
  1  'x, y, z'
  2  '-x, -y, z'
  3  '-x, y, z'
  4  'x, -y, z'
loop_
 _atom_site_type_symbol
 _atom_site_label
 _atom_site_symmetry_multiplicity
 _atom_site_fract_x
 _atom_site_fract_y
 _atom_site_fract_z
 _atom_site_occupancy
  Zr  Zr0  2  0.00000000  0.24938000  0.04455000  1.0
  Zr  Zr1  2  0.00000000  0.25000000  0.87069000  1.0
  Zr  Zr2  2  0.50000000  0.25000000  0.87069000  1.0
  Zr  Zr3  2  0.50000000  0.25002000  0.04442000  1.0
  Zr  Zr4  1  0.00000000  0.00000000  0.13234000  1.0
  Zr  Zr5  1  0.00000000  0.00000000  0.95690000  1.0
  Zr  Zr6  1  0.00000000  0.50000000  0.13087000  1.0
  Zr  Zr7  1  0.00000000  0.50000000  0.95690000  1.0
  Zr  Zr8  1  0.50000000  0.00000000  0.13111000  1.0
  Zr  Zr9  1  0.50000000  0.00000000  0.95690000  1.0
  Zr  Zr10  1  0.50000000  0.50000000  0.13100000  1.0
  Zr  Zr11  1  0.50000000  0.50000000  0.95690000  1.0
  Os  Os12  4  0.25000000  0.25000000  0.95690000  1.0
  Os  Os13  4  0.25059000  0.25150000  0.12348000  1.0
  Os  Os14  2  0.24978000  0.50000000  0.04334000  1.0
  Os  Os15  2  0.25000000  0.00000000  0.87069000  1.0
  Os  Os16  2  0.25000000  0.50000000  0.87069000  1.0
  Os  Os17  2  0.25196000  0.00000000  0.04267000  1.0
  C  C18  1  0.00000000  0.00000000  0.21866000  1.0
  O  O19  1  0.00000000  0.00000000  0.26124000  1.0
