# generated using pymatgen
data_Sc4Ga4Ge4Pd4C
_symmetry_space_group_name_H-M   'P 1'
_cell_length_a   8.08666000
_cell_length_b   5.81182000
_cell_length_c   24.34090000
_cell_angle_alpha   90.00000000
_cell_angle_beta   90.00000000
_cell_angle_gamma   90.00000000
_symmetry_Int_Tables_number   1
_chemical_formula_structural   Sc4Ga4Ge4Pd4C
_chemical_formula_sum   'Sc4 Ga4 Ge4 Pd4 C1'
_cell_volume   1143.97878629
_cell_formula_units_Z   1
loop_
 _symmetry_equiv_pos_site_id
 _symmetry_equiv_pos_as_xyz
  1  'x, y, z'
loop_
 _atom_site_type_symbol
 _atom_site_label
 _atom_site_symmetry_multiplicity
 _atom_site_fract_x
 _atom_site_fract_y
 _atom_site_fract_z
 _atom_site_occupancy
  Sc  Sc0  1  0.25000000  0.72730000  0.02972000  1.0
  Sc  Sc1  1  0.21431000  0.20030000  0.91288000  1.0
  Sc  Sc2  1  0.75000000  0.72730000  0.02972000  1.0
  Sc  Sc3  1  0.78569000  0.20030000  0.91288000  1.0
  Ga  Ga4  1  0.00000000  0.00000000  0.08917000  1.0
  Ga  Ga5  1  0.00000000  0.44242000  0.98484000  1.0
  Ga  Ga6  1  0.50000000  0.00000000  0.08917000  1.0
  Ga  Ga7  1  0.50000000  0.42489000  0.97047000  1.0
  Ge  Ge8  1  0.00000000  0.50000000  0.08917000  1.0
  Ge  Ge9  1  0.00000000  0.95544000  0.97514000  1.0
  Ge  Ge10  1  0.50000000  0.50000000  0.08917000  1.0
  Ge  Ge11  1  0.50000000  0.91662000  0.95192000  1.0
  Pd  Pd12  1  0.25000000  0.22730000  0.02972000  1.0
  Pd  Pd13  1  0.21794000  0.68430000  0.91853000  1.0
  Pd  Pd14  1  0.75000000  0.22730000  0.02972000  1.0
  Pd  Pd15  1  0.78206000  0.68430000  0.91853000  1.0
  C  C16  1  0.00000000  0.43139000  0.90105000  1.0
