# generated using pymatgen
data_Sc4Ga4Ge4Pd4C
_symmetry_space_group_name_H-M   Pm
_cell_length_a   5.81182000
_cell_length_b   8.08666000
_cell_length_c   24.34090000
_cell_angle_alpha   90.00000000
_cell_angle_beta   90.00000000
_cell_angle_gamma   90.00000000
_symmetry_Int_Tables_number   6
_chemical_formula_structural   Sc4Ga4Ge4Pd4C
_chemical_formula_sum   'Sc4 Ga4 Ge4 Pd4 C1'
_cell_volume   1143.97878629
_cell_formula_units_Z   1
loop_
 _symmetry_equiv_pos_site_id
 _symmetry_equiv_pos_as_xyz
  1  'x, y, z'
  2  'x, -y, z'
loop_
 _atom_site_type_symbol
 _atom_site_label
 _atom_site_symmetry_multiplicity
 _atom_site_fract_x
 _atom_site_fract_y
 _atom_site_fract_z
 _atom_site_occupancy
  Sc  Sc0  2  0.20030000  0.21431000  0.08712000  1.0
  Sc  Sc1  2  0.72730000  0.25000000  0.97028000  1.0
  Ga  Ga2  1  0.00000000  0.00000000  0.91083000  1.0
  Ga  Ga3  1  0.00000000  0.50000000  0.91083000  1.0
  Ga  Ga4  1  0.42489000  0.50000000  0.02953000  1.0
  Ga  Ga5  1  0.44242000  0.00000000  0.01516000  1.0
  Ge  Ge6  1  0.50000000  0.00000000  0.91083000  1.0
  Ge  Ge7  1  0.50000000  0.50000000  0.91083000  1.0
  Ge  Ge8  1  0.91662000  0.50000000  0.04808000  1.0
  Ge  Ge9  1  0.95544000  0.00000000  0.02486000  1.0
  Pd  Pd10  2  0.22730000  0.25000000  0.97028000  1.0
  Pd  Pd11  2  0.68430000  0.21794000  0.08147000  1.0
  C  C12  1  0.43139000  0.00000000  0.09895000  1.0
