# generated using pymatgen
data_LiMgInGe
_symmetry_space_group_name_H-M   Pm
_cell_length_a   5.94975000
_cell_length_b   4.37534000
_cell_length_c   24.46230000
_cell_angle_alpha   90.00000000
_cell_angle_beta   90.00000000
_cell_angle_gamma   90.00000000
_symmetry_Int_Tables_number   6
_chemical_formula_structural   LiMgInGe
_chemical_formula_sum   'Li2 Mg2 In2 Ge2'
_cell_volume   636.80697639
_cell_formula_units_Z   2
loop_
 _symmetry_equiv_pos_site_id
 _symmetry_equiv_pos_as_xyz
  1  'x, y, z'
  2  'x, -y, z'
loop_
 _atom_site_type_symbol
 _atom_site_label
 _atom_site_symmetry_multiplicity
 _atom_site_fract_x
 _atom_site_fract_y
 _atom_site_fract_z
 _atom_site_occupancy
  Li  Li0  1  0.27302000  0.50000000  0.96626500  1.0
  Li  Li1  1  0.74924000  0.50000000  0.09121000  1.0
  Mg  Mg2  1  0.50491500  0.00000000  0.90529000  1.0
  Mg  Mg3  1  0.99949000  0.00000000  0.03040000  1.0
  In  In4  1  0.24924000  0.50000000  0.09121000  1.0
  In  In5  1  0.78848500  0.50000000  0.95326000  1.0
  Ge  Ge6  1  0.01683000  0.00000000  0.90487000  1.0
  Ge  Ge7  1  0.49949000  0.00000000  0.03040000  1.0
