# generated using pymatgen
data_Li8Ti8Al8Pd8C
_symmetry_space_group_name_H-M   'P 1'
_cell_length_a   8.73352000
_cell_length_b   6.17553000
_cell_length_c   26.55010000
_cell_angle_alpha   90.00000000
_cell_angle_beta   90.00000000
_cell_angle_gamma   90.00000000
_symmetry_Int_Tables_number   1
_chemical_formula_structural   Li8Ti8Al8Pd8C
_chemical_formula_sum   'Li8 Ti8 Al8 Pd8 C1'
_cell_volume   1431.95614044
_cell_formula_units_Z   1
loop_
 _symmetry_equiv_pos_site_id
 _symmetry_equiv_pos_as_xyz
  1  'x, y, z'
loop_
 _atom_site_type_symbol
 _atom_site_label
 _atom_site_symmetry_multiplicity
 _atom_site_fract_x
 _atom_site_fract_y
 _atom_site_fract_z
 _atom_site_occupancy
  Li  Li0  1  0.75000000  0.75000000  0.04112000  1.0
  Li  Li1  1  0.25000000  0.75000000  0.04112000  1.0
  Li  Li2  1  0.00000000  0.25000000  0.12335000  1.0
  Li  Li3  1  0.50000000  0.25000000  0.12335000  1.0
  Li  Li4  1  0.26716000  0.69780000  0.82858000  1.0
  Li  Li5  1  0.73284000  0.69780000  0.82858000  1.0
  Li  Li6  1  0.50000000  0.25575000  0.95915000  1.0
  Li  Li7  1  0.00000000  0.25424000  0.95160000  1.0
  Ti  Ti8  1  0.00000000  0.00000000  0.04112000  1.0
  Ti  Ti9  1  0.50000000  0.00000000  0.04112000  1.0
  Ti  Ti10  1  0.25000000  0.50000000  0.12335000  1.0
  Ti  Ti11  1  0.75000000  0.50000000  0.12335000  1.0
  Ti  Ti12  1  0.50000000  0.99193000  0.88120000  1.0
  Ti  Ti13  1  0.00000000  0.94104000  0.88022000  1.0
  Ti  Ti14  1  0.74828000  0.51245000  0.95594000  1.0
  Ti  Ti15  1  0.25172000  0.51245000  0.95594000  1.0
  Al  Al16  1  0.75000000  0.00000000  0.12335000  1.0
  Al  Al17  1  0.25000000  0.00000000  0.12335000  1.0
  Al  Al18  1  0.50000000  0.50000000  0.04112000  1.0
  Al  Al19  1  0.00000000  0.50000000  0.04112000  1.0
  Al  Al20  1  0.24953000  0.99306000  0.95790000  1.0
  Al  Al21  1  0.75047000  0.99306000  0.95790000  1.0
  Al  Al22  1  0.00000000  0.53700000  0.86842000  1.0
  Al  Al23  1  0.50000000  0.49781000  0.87731000  1.0
  Pd  Pd24  1  0.75000000  0.25000000  0.04112000  1.0
  Pd  Pd25  1  0.25000000  0.25000000  0.04112000  1.0
  Pd  Pd26  1  0.00000000  0.75000000  0.12335000  1.0
  Pd  Pd27  1  0.50000000  0.75000000  0.12335000  1.0
  Pd  Pd28  1  0.24720000  0.24685000  0.88045000  1.0
  Pd  Pd29  1  0.75280000  0.24685000  0.88045000  1.0
  Pd  Pd30  1  0.50000000  0.75302000  0.96100000  1.0
  Pd  Pd31  1  0.00000000  0.74120000  0.96414000  1.0
  C  C32  1  0.00000000  0.23231000  0.86048000  1.0
