# generated using pymatgen
data_ScCuGePd
_symmetry_space_group_name_H-M   'P 1'
_cell_length_a   6.33395000
_cell_length_b   4.47878000
_cell_length_c   26.71820000
_cell_angle_alpha   90.00000000
_cell_angle_beta   90.00000000
_cell_angle_gamma   90.00000000
_symmetry_Int_Tables_number   1
_chemical_formula_structural   ScCuGePd
_chemical_formula_sum   'Sc4 Cu4 Ge4 Pd4'
_cell_volume   757.95174542
_cell_formula_units_Z   4
loop_
 _symmetry_equiv_pos_site_id
 _symmetry_equiv_pos_as_xyz
  1  'x, y, z'
loop_
 _atom_site_type_symbol
 _atom_site_label
 _atom_site_symmetry_multiplicity
 _atom_site_fract_x
 _atom_site_fract_y
 _atom_site_fract_z
 _atom_site_occupancy
  Sc  Sc0  1  0.25000000  0.00000000  0.95809000  1.0
  Sc  Sc1  1  0.75000000  0.50000000  0.87428000  1.0
  Sc  Sc2  1  0.30370500  0.00000000  0.12988500  1.0
  Sc  Sc3  1  0.75482000  0.50000000  0.04517000  1.0
  Cu  Cu4  1  0.00000000  0.00000000  0.87428000  1.0
  Cu  Cu5  1  0.50000000  0.50000000  0.95809000  1.0
  Cu  Cu6  1  0.02364500  0.00000000  0.04930500  1.0
  Cu  Cu7  1  0.59268500  0.50000000  0.14294000  1.0
  Ge  Ge8  1  0.75000000  0.00000000  0.95809000  1.0
  Ge  Ge9  1  0.25000000  0.50000000  0.87428000  1.0
  Ge  Ge10  1  0.76588500  0.00000000  0.12512500  1.0
  Ge  Ge11  1  0.25566500  0.50000000  0.04159000  1.0
  Pd  Pd12  1  0.00000000  0.50000000  0.95809000  1.0
  Pd  Pd13  1  0.50000000  0.00000000  0.87428000  1.0
  Pd  Pd14  1  0.03950500  0.50000000  0.12485000  1.0
  Pd  Pd15  1  0.49945500  0.00000000  0.04025000  1.0
