# generated using pymatgen
data_Li8Mg8In8Pt8C
_symmetry_space_group_name_H-M   Pm
_cell_length_a   6.50521000
_cell_length_b   9.19976000
_cell_length_c   26.89980000
_cell_angle_alpha   90.00000000
_cell_angle_beta   90.00000000
_cell_angle_gamma   90.00000000
_symmetry_Int_Tables_number   6
_chemical_formula_structural   Li8Mg8In8Pt8C
_chemical_formula_sum   'Li8 Mg8 In8 Pt8 C1'
_cell_volume   1609.85540389
_cell_formula_units_Z   1
loop_
 _symmetry_equiv_pos_site_id
 _symmetry_equiv_pos_as_xyz
  1  'x, y, z'
  2  'x, -y, z'
loop_
 _atom_site_type_symbol
 _atom_site_label
 _atom_site_symmetry_multiplicity
 _atom_site_fract_x
 _atom_site_fract_y
 _atom_site_fract_z
 _atom_site_occupancy
  Li  Li0  2  0.74053000  0.24772000  0.04543000  1.0
  Li  Li1  2  0.75000000  0.25000000  0.87175000  1.0
  Li  Li2  1  0.22501000  0.50000000  0.13431000  1.0
  Li  Li3  1  0.25000000  0.00000000  0.95725000  1.0
  Li  Li4  1  0.25000000  0.50000000  0.95725000  1.0
  Li  Li5  1  0.28126000  0.00000000  0.15501000  1.0
  Mg  Mg6  2  0.00000000  0.25000000  0.95725000  1.0
  Mg  Mg7  2  0.98959000  0.24114000  0.13299000  1.0
  Mg  Mg8  1  0.48138000  0.00000000  0.04257000  1.0
  Mg  Mg9  1  0.49726000  0.50000000  0.04377000  1.0
  Mg  Mg10  1  0.50000000  0.00000000  0.87175000  1.0
  Mg  Mg11  1  0.50000000  0.50000000  0.87175000  1.0
  In  In12  2  0.49183000  0.26386000  0.13647000  1.0
  In  In13  2  0.50000000  0.25000000  0.95725000  1.0
  In  In14  1  0.00000000  0.00000000  0.87175000  1.0
  In  In15  1  0.00000000  0.50000000  0.87175000  1.0
  In  In16  1  0.01130000  0.00000000  0.04502000  1.0
  In  In17  1  0.99976000  0.50000000  0.04271000  1.0
  Pt  Pt18  2  0.25000000  0.25000000  0.87175000  1.0
  Pt  Pt19  2  0.25078000  0.25581000  0.04152000  1.0
  Pt  Pt20  1  0.68704000  0.00000000  0.12696000  1.0
  Pt  Pt21  1  0.75000000  0.00000000  0.95725000  1.0
  Pt  Pt22  1  0.75000000  0.50000000  0.95725000  1.0
  Pt  Pt23  1  0.75513000  0.50000000  0.12310000  1.0
  C  C24  1  0.98575000  0.00000000  0.13478000  1.0
