# generated using pymatgen
data_Li16Mg8Pb8CO
_symmetry_space_group_name_H-M   'P 1'
_cell_length_a   6.88544000
_cell_length_b   9.73748000
_cell_length_c   27.30310000
_cell_angle_alpha   90.00000000
_cell_angle_beta   90.00000000
_cell_angle_gamma   90.00000000
_symmetry_Int_Tables_number   1
_chemical_formula_structural   Li16Mg8Pb8CO
_chemical_formula_sum   'Li16 Mg8 Pb8 C1 O1'
_cell_volume   1830.58642134
_cell_formula_units_Z   1
loop_
 _symmetry_equiv_pos_site_id
 _symmetry_equiv_pos_as_xyz
  1  'x, y, z'
loop_
 _atom_site_type_symbol
 _atom_site_label
 _atom_site_symmetry_multiplicity
 _atom_site_fract_x
 _atom_site_fract_y
 _atom_site_fract_z
 _atom_site_occupancy
  Li  Li0  1  0.25000000  0.75000000  0.95542000  1.0
  Li  Li1  1  0.75000000  0.25000000  0.95542000  1.0
  Li  Li2  1  0.75000000  0.75000000  0.95542000  1.0
  Li  Li3  1  0.25000000  0.25000000  0.95542000  1.0
  Li  Li4  1  0.75000000  0.50000000  0.86626000  1.0
  Li  Li5  1  0.25000000  0.00000000  0.86626000  1.0
  Li  Li6  1  0.25000000  0.50000000  0.86626000  1.0
  Li  Li7  1  0.75000000  0.00000000  0.86626000  1.0
  Li  Li8  1  0.22653000  0.25114000  0.13909000  1.0
  Li  Li9  1  0.77347000  0.74886000  0.13909000  1.0
  Li  Li10  1  0.77347000  0.25114000  0.13909000  1.0
  Li  Li11  1  0.22653000  0.74886000  0.13909000  1.0
  Li  Li12  1  0.75564000  0.00000000  0.04219000  1.0
  Li  Li13  1  0.24482000  0.50000000  0.04333000  1.0
  Li  Li14  1  0.24436000  0.00000000  0.04219000  1.0
  Li  Li15  1  0.75518000  0.50000000  0.04333000  1.0
  Mg  Mg16  1  0.00000000  0.75000000  0.86626000  1.0
  Mg  Mg17  1  0.50000000  0.00000000  0.95542000  1.0
  Mg  Mg18  1  0.50000000  0.50000000  0.95542000  1.0
  Mg  Mg19  1  0.00000000  0.25000000  0.86626000  1.0
  Mg  Mg20  1  0.00000000  0.25199000  0.04818000  1.0
  Mg  Mg21  1  0.50000000  0.50000000  0.13104000  1.0
  Mg  Mg22  1  0.50000000  0.00000000  0.12587000  1.0
  Mg  Mg23  1  0.00000000  0.74801000  0.04818000  1.0
  Pb  Pb24  1  0.00000000  0.50000000  0.95542000  1.0
  Pb  Pb25  1  0.50000000  0.75000000  0.86626000  1.0
  Pb  Pb26  1  0.00000000  0.00000000  0.95542000  1.0
  Pb  Pb27  1  0.50000000  0.25000000  0.86626000  1.0
  Pb  Pb28  1  0.00000000  0.00000000  0.13219000  1.0
  Pb  Pb29  1  0.50000000  0.25191000  0.04935000  1.0
  Pb  Pb30  1  0.00000000  0.50000000  0.13347000  1.0
  Pb  Pb31  1  0.50000000  0.74809000  0.04935000  1.0
  C  C32  1  0.50000000  0.00000000  0.20702000  1.0
  O  O33  1  0.50000000  0.00000000  0.24919000  1.0
