# generated using pymatgen
data_Hf16Os16CO
_symmetry_space_group_name_H-M   'P 1'
_cell_length_a   6.49845000
_cell_length_b   9.19019000
_cell_length_c   26.89260000
_cell_angle_alpha   90.00000000
_cell_angle_beta   90.00000000
_cell_angle_gamma   90.00000000
_symmetry_Int_Tables_number   1
_chemical_formula_structural   Hf16Os16CO
_chemical_formula_sum   'Hf16 Os16 C1 O1'
_cell_volume   1606.07959380
_cell_formula_units_Z   1
loop_
 _symmetry_equiv_pos_site_id
 _symmetry_equiv_pos_as_xyz
  1  'x, y, z'
loop_
 _atom_site_type_symbol
 _atom_site_label
 _atom_site_symmetry_multiplicity
 _atom_site_fract_x
 _atom_site_fract_y
 _atom_site_fract_z
 _atom_site_occupancy
  Hf  Hf0  1  0.00000000  0.75000000  0.87185000  1.0
  Hf  Hf1  1  0.00000000  0.00000000  0.95728000  1.0
  Hf  Hf2  1  0.00000000  0.75074000  0.04426000  1.0
  Hf  Hf3  1  0.00000000  0.00000000  0.13118000  1.0
  Hf  Hf4  1  0.00000000  0.25000000  0.87185000  1.0
  Hf  Hf5  1  0.00000000  0.50000000  0.95728000  1.0
  Hf  Hf6  1  0.00000000  0.24926000  0.04426000  1.0
  Hf  Hf7  1  0.00000000  0.50000000  0.12885000  1.0
  Hf  Hf8  1  0.50000000  0.75000000  0.87185000  1.0
  Hf  Hf9  1  0.50000000  0.00000000  0.95728000  1.0
  Hf  Hf10  1  0.50000000  0.75005000  0.04411000  1.0
  Hf  Hf11  1  0.50000000  0.00000000  0.12919000  1.0
  Hf  Hf12  1  0.50000000  0.25000000  0.87185000  1.0
  Hf  Hf13  1  0.50000000  0.50000000  0.95728000  1.0
  Hf  Hf14  1  0.50000000  0.24995000  0.04411000  1.0
  Hf  Hf15  1  0.50000000  0.50000000  0.12906000  1.0
  Os  Os16  1  0.25000000  0.00000000  0.87185000  1.0
  Os  Os17  1  0.25000000  0.75000000  0.95728000  1.0
  Os  Os18  1  0.25141000  0.00000000  0.04217000  1.0
  Os  Os19  1  0.25090000  0.74883000  0.12325000  1.0
  Os  Os20  1  0.25000000  0.50000000  0.87185000  1.0
  Os  Os21  1  0.25000000  0.25000000  0.95728000  1.0
  Os  Os22  1  0.24990000  0.50000000  0.04255000  1.0
  Os  Os23  1  0.25090000  0.25117000  0.12325000  1.0
  Os  Os24  1  0.75000000  0.00000000  0.87185000  1.0
  Os  Os25  1  0.75000000  0.75000000  0.95728000  1.0
  Os  Os26  1  0.74859000  0.00000000  0.04217000  1.0
  Os  Os27  1  0.74910000  0.74883000  0.12325000  1.0
  Os  Os28  1  0.75000000  0.50000000  0.87185000  1.0
  Os  Os29  1  0.75000000  0.25000000  0.95728000  1.0
  Os  Os30  1  0.75010000  0.50000000  0.04255000  1.0
  Os  Os31  1  0.74910000  0.25117000  0.12325000  1.0
  C  C32  1  0.00000000  0.00000000  0.21609000  1.0
  O  O33  1  0.00000000  0.00000000  0.25883000  1.0
