# generated using pymatgen
data_Hf16Os16CO
_symmetry_space_group_name_H-M   Pmm2
_cell_length_a   6.49845000
_cell_length_b   9.19019000
_cell_length_c   26.89260000
_cell_angle_alpha   90.00000000
_cell_angle_beta   90.00000000
_cell_angle_gamma   90.00000000
_symmetry_Int_Tables_number   25
_chemical_formula_structural   Hf16Os16CO
_chemical_formula_sum   'Hf16 Os16 C1 O1'
_cell_volume   1606.07959380
_cell_formula_units_Z   1
loop_
 _symmetry_equiv_pos_site_id
 _symmetry_equiv_pos_as_xyz
  1  'x, y, z'
  2  '-x, -y, z'
  3  '-x, y, z'
  4  'x, -y, z'
loop_
 _atom_site_type_symbol
 _atom_site_label
 _atom_site_symmetry_multiplicity
 _atom_site_fract_x
 _atom_site_fract_y
 _atom_site_fract_z
 _atom_site_occupancy
  Hf  Hf0  2  0.00000000  0.24926000  0.04426000  1.0
  Hf  Hf1  2  0.00000000  0.25000000  0.87185000  1.0
  Hf  Hf2  2  0.50000000  0.24995000  0.04411000  1.0
  Hf  Hf3  2  0.50000000  0.25000000  0.87185000  1.0
  Hf  Hf4  1  0.00000000  0.00000000  0.13118000  1.0
  Hf  Hf5  1  0.00000000  0.00000000  0.95728000  1.0
  Hf  Hf6  1  0.00000000  0.50000000  0.12885000  1.0
  Hf  Hf7  1  0.00000000  0.50000000  0.95728000  1.0
  Hf  Hf8  1  0.50000000  0.00000000  0.12919000  1.0
  Hf  Hf9  1  0.50000000  0.00000000  0.95728000  1.0
  Hf  Hf10  1  0.50000000  0.50000000  0.12906000  1.0
  Hf  Hf11  1  0.50000000  0.50000000  0.95728000  1.0
  Os  Os12  4  0.25000000  0.25000000  0.95728000  1.0
  Os  Os13  4  0.25090000  0.25117000  0.12325000  1.0
  Os  Os14  2  0.24990000  0.50000000  0.04255000  1.0
  Os  Os15  2  0.25000000  0.00000000  0.87185000  1.0
  Os  Os16  2  0.25000000  0.50000000  0.87185000  1.0
  Os  Os17  2  0.25141000  0.00000000  0.04217000  1.0
  C  C18  1  0.00000000  0.00000000  0.21609000  1.0
  O  O19  1  0.00000000  0.00000000  0.25883000  1.0
