# generated using pymatgen
data_VCo2Si
_symmetry_space_group_name_H-M   'P 1'
_cell_length_a   4.01906059
_cell_length_b   4.01906059
_cell_length_c   24.26290000
_cell_angle_alpha   90.00000000
_cell_angle_beta   90.00000000
_cell_angle_gamma   90.00000000
_symmetry_Int_Tables_number   1
_chemical_formula_structural   VCo2Si
_chemical_formula_sum   'V2 Co4 Si2'
_cell_volume   391.91493715
_cell_formula_units_Z   2
loop_
 _symmetry_equiv_pos_site_id
 _symmetry_equiv_pos_as_xyz
  1  'x, y, z'
loop_
 _atom_site_type_symbol
 _atom_site_label
 _atom_site_symmetry_multiplicity
 _atom_site_fract_x
 _atom_site_fract_y
 _atom_site_fract_z
 _atom_site_occupancy
  V  V0  1  0.00000000  0.00000000  0.08785000  1.0
  V  V1  1  0.50000000  0.50000000  0.97072000  1.0
  Co  Co2  1  0.50000000  0.00000000  0.02928000  1.0
  Co  Co3  1  0.50000000  0.00000000  0.91215000  1.0
  Co  Co4  1  0.00000000  0.50000000  0.02928000  1.0
  Co  Co5  1  0.00000000  0.50000000  0.91215000  1.0
  Si  Si6  1  0.00000000  0.00000000  0.97072000  1.0
  Si  Si7  1  0.50000000  0.50000000  0.08785000  1.0
