# generated using pymatgen
data_Sc4Ga4Ge4Pd4C
_symmetry_space_group_name_H-M   'P 1'
_cell_length_a   8.58414000
_cell_length_b   5.63062000
_cell_length_c   24.22090000
_cell_angle_alpha   90.00000000
_cell_angle_beta   90.00000000
_cell_angle_gamma   90.00000000
_symmetry_Int_Tables_number   1
_chemical_formula_structural   Sc4Ga4Ge4Pd4C
_chemical_formula_sum   'Sc4 Ga4 Ge4 Pd4 C1'
_cell_volume   1170.69371611
_cell_formula_units_Z   1
loop_
 _symmetry_equiv_pos_site_id
 _symmetry_equiv_pos_as_xyz
  1  'x, y, z'
loop_
 _atom_site_type_symbol
 _atom_site_label
 _atom_site_symmetry_multiplicity
 _atom_site_fract_x
 _atom_site_fract_y
 _atom_site_fract_z
 _atom_site_occupancy
  Sc  Sc0  1  0.00000000  0.73935000  0.96893000  1.0
  Sc  Sc1  1  0.00000000  0.22651000  0.08713000  1.0
  Sc  Sc2  1  0.50000000  0.74172000  0.96053000  1.0
  Sc  Sc3  1  0.50000000  0.22651000  0.08713000  1.0
  Ga  Ga4  1  0.76665000  0.94506000  0.89368000  1.0
  Ga  Ga5  1  0.75000000  0.48434000  0.02904000  1.0
  Ga  Ga6  1  0.23335000  0.94506000  0.89368000  1.0
  Ga  Ga7  1  0.25000000  0.48434000  0.02904000  1.0
  Ge  Ge8  1  0.00000000  0.24161000  0.96627000  1.0
  Ge  Ge9  1  0.00000000  0.72651000  0.08713000  1.0
  Ge  Ge10  1  0.50000000  0.22160000  0.96129000  1.0
  Ge  Ge11  1  0.50000000  0.72651000  0.08713000  1.0
  Pd  Pd12  1  0.74825000  0.47272000  0.92208000  1.0
  Pd  Pd13  1  0.75000000  0.98434000  0.02904000  1.0
  Pd  Pd14  1  0.25175000  0.47272000  0.92208000  1.0
  Pd  Pd15  1  0.25000000  0.98434000  0.02904000  1.0
  C  C16  1  0.00000000  0.00648000  0.90520000  1.0
