# generated using pymatgen
data_Sc4Ga4Ge4Pd4C
_symmetry_space_group_name_H-M   Pm
_cell_length_a   5.63062000
_cell_length_b   8.58414000
_cell_length_c   24.22090000
_cell_angle_alpha   90.00000000
_cell_angle_beta   90.00000000
_cell_angle_gamma   90.00000000
_symmetry_Int_Tables_number   6
_chemical_formula_structural   Sc4Ga4Ge4Pd4C
_chemical_formula_sum   'Sc4 Ga4 Ge4 Pd4 C1'
_cell_volume   1170.69371611
_cell_formula_units_Z   1
loop_
 _symmetry_equiv_pos_site_id
 _symmetry_equiv_pos_as_xyz
  1  'x, y, z'
  2  'x, -y, z'
loop_
 _atom_site_type_symbol
 _atom_site_label
 _atom_site_symmetry_multiplicity
 _atom_site_fract_x
 _atom_site_fract_y
 _atom_site_fract_z
 _atom_site_occupancy
  Sc  Sc0  1  0.22651000  0.00000000  0.91287000  1.0
  Sc  Sc1  1  0.22651000  0.50000000  0.91287000  1.0
  Sc  Sc2  1  0.73935000  0.00000000  0.03107000  1.0
  Sc  Sc3  1  0.74172000  0.50000000  0.03947000  1.0
  Ga  Ga4  2  0.48434000  0.25000000  0.97096000  1.0
  Ga  Ga5  2  0.94506000  0.23335000  0.10632000  1.0
  Ge  Ge6  1  0.22160000  0.50000000  0.03871000  1.0
  Ge  Ge7  1  0.24161000  0.00000000  0.03373000  1.0
  Ge  Ge8  1  0.72651000  0.00000000  0.91287000  1.0
  Ge  Ge9  1  0.72651000  0.50000000  0.91287000  1.0
  Pd  Pd10  2  0.47272000  0.25175000  0.07792000  1.0
  Pd  Pd11  2  0.98434000  0.25000000  0.97096000  1.0
  C  C12  1  0.00648000  0.00000000  0.09480000  1.0
