# generated using pymatgen
data_LiYSnPd
_symmetry_space_group_name_H-M   'P 1'
_cell_length_a   6.77715000
_cell_length_b   4.79217000
_cell_length_c   27.18830000
_cell_angle_alpha   90.00000000
_cell_angle_beta   90.00000000
_cell_angle_gamma   90.00000000
_symmetry_Int_Tables_number   1
_chemical_formula_structural   LiYSnPd
_chemical_formula_sum   'Li4 Y4 Sn4 Pd4'
_cell_volume   883.00134982
_cell_formula_units_Z   4
loop_
 _symmetry_equiv_pos_site_id
 _symmetry_equiv_pos_as_xyz
  1  'x, y, z'
loop_
 _atom_site_type_symbol
 _atom_site_label
 _atom_site_symmetry_multiplicity
 _atom_site_fract_x
 _atom_site_fract_y
 _atom_site_fract_z
 _atom_site_occupancy
  Li  Li0  1  1.00000000  0.00000000  0.86781000  1.0
  Li  Li1  1  0.50000000  0.50000000  0.95594000  1.0
  Li  Li2  1  0.99600000  0.00000000  0.04696000  1.0
  Li  Li3  1  0.31277000  0.50000000  0.18064500  1.0
  Y  Y4  1  0.75000000  0.00000000  0.95594000  1.0
  Y  Y5  1  0.25000000  0.50000000  0.86781000  1.0
  Y  Y6  1  0.71597000  0.00000000  0.13141000  1.0
  Y  Y7  1  0.25760000  0.50000000  0.04851500  1.0
  Sn  Sn8  1  0.25000000  0.00000000  0.95594000  1.0
  Sn  Sn9  1  0.75000000  0.50000000  0.86781000  1.0
  Sn  Sn10  1  0.23159000  0.00000000  0.13506000  1.0
  Sn  Sn11  1  0.74425000  0.50000000  0.04331000  1.0
  Pd  Pd12  1  1.00000000  0.50000000  0.95594000  1.0
  Pd  Pd13  1  0.50000000  0.00000000  0.86781000  1.0
  Pd  Pd14  1  0.97884000  0.50000000  0.12588000  1.0
  Pd  Pd15  1  0.50177000  0.00000000  0.04244000  1.0
