# generated using pymatgen
data_Li4Al4Ag4Ge4CO
_symmetry_space_group_name_H-M   Pm
_cell_length_a   5.75991000
_cell_length_b   8.02734000
_cell_length_c   24.29680000
_cell_angle_alpha   90.00000000
_cell_angle_beta   90.00000000
_cell_angle_gamma   90.00000000
_symmetry_Int_Tables_number   6
_chemical_formula_structural   Li4Al4Ag4Ge4CO
_chemical_formula_sum   'Li4 Al4 Ag4 Ge4 C1 O1'
_cell_volume   1123.40521171
_cell_formula_units_Z   1
loop_
 _symmetry_equiv_pos_site_id
 _symmetry_equiv_pos_as_xyz
  1  'x, y, z'
  2  'x, -y, z'
loop_
 _atom_site_type_symbol
 _atom_site_label
 _atom_site_symmetry_multiplicity
 _atom_site_fract_x
 _atom_site_fract_y
 _atom_site_fract_z
 _atom_site_occupancy
  Li  Li0  2  0.21640000  0.25284000  0.03134000  1.0
  Li  Li1  2  0.67254000  0.25000000  0.91158000  1.0
  Al  Al2  1  0.48016000  0.00000000  0.08551000  1.0
  Al  Al3  1  0.49376000  0.50000000  0.08951000  1.0
  Al  Al4  1  0.94836000  0.00000000  0.97053000  1.0
  Al  Al5  1  0.94836000  0.50000000  0.97053000  1.0
  Ag  Ag6  1  0.01346000  0.00000000  0.08687000  1.0
  Ag  Ag7  1  0.02323000  0.50000000  0.09101000  1.0
  Ag  Ag8  1  0.44836000  0.00000000  0.97053000  1.0
  Ag  Ag9  1  0.44836000  0.50000000  0.97053000  1.0
  Ge  Ge10  2  0.17254000  0.25000000  0.91158000  1.0
  Ge  Ge11  2  0.71643000  0.24946000  0.04322000  1.0
  C  C12  1  0.49621000  0.00000000  0.16723000  1.0
  O  O13  1  0.50575000  0.00000000  0.21470000  1.0
