# generated using pymatgen
data_Li8Y8Mg8In8C
_symmetry_space_group_name_H-M   P1
_cell_length_a   7.08651000
_cell_length_b   10.02180000
_cell_length_c   27.51640000
_cell_angle_alpha   90.00000000
_cell_angle_beta   90.00000000
_cell_angle_gamma   90.00000000
_symmetry_Int_Tables_number   1
_chemical_formula_structural   Li8Y8Mg8In8C
_chemical_formula_sum   'Li8 Y8 Mg8 In8 C1'
_cell_volume   1954.20333395
_cell_formula_units_Z   1
loop_
 _symmetry_equiv_pos_site_id
 _symmetry_equiv_pos_as_xyz
  1  'x, y, z'
loop_
 _atom_site_type_symbol
 _atom_site_label
 _atom_site_symmetry_multiplicity
 _atom_site_fract_x
 _atom_site_fract_y
 _atom_site_fract_z
 _atom_site_occupancy
  Li  Li0  1  -0.00000000  0.25000000  0.95447000  1.0
  Li  Li1  1  -0.00000000  0.75000000  0.95447000  1.0
  Li  Li2  1  0.49271000  0.99850000  0.05024000  1.0
  Li  Li3  1  0.49335000  0.50370000  0.05023000  1.0
  Li  Li4  1  0.50000000  0.00000000  0.86342000  1.0
  Li  Li5  1  0.50000000  0.50000000  0.86342000  1.0
  Li  Li6  1  0.88798000  0.75041000  0.18891000  1.0
  Li  Li7  1  0.99537000  0.24964000  0.18378000  1.0
  Y  Y8  1  0.19604000  0.52910000  0.13719000  1.0
  Y  Y9  1  0.19660000  0.97106000  0.13723000  1.0
  Y  Y10  1  0.25000000  0.00000000  0.95447000  1.0
  Y  Y11  1  0.25000000  0.50000000  0.95447000  1.0
  Y  Y12  1  0.75000000  0.25000000  0.86342000  1.0
  Y  Y13  1  0.75000000  0.75000000  0.86342000  1.0
  Y  Y14  1  0.75060000  0.25053000  0.06417000  1.0
  Y  Y15  1  0.76836000  0.75049000  0.07025000  1.0
  Mg  Mg16  1  0.24998000  0.25068000  0.04794000  1.0
  Mg  Mg17  1  0.25000000  0.25000000  0.86342000  1.0
  Mg  Mg18  1  0.25000000  0.75000000  0.86342000  1.0
  Mg  Mg19  1  0.26074000  0.74981000  0.04669000  1.0
  Mg  Mg20  1  0.72451000  0.47394000  0.15047000  1.0
  Mg  Mg21  1  0.72504000  0.02750000  0.15049000  1.0
  Mg  Mg22  1  0.75000000  0.00000000  0.95447000  1.0
  Mg  Mg23  1  0.75000000  0.50000000  0.95447000  1.0
  In  In24  1  0.00000000  0.00000000  0.86342000  1.0
  In  In25  1  0.00000000  0.50000000  0.86342000  1.0
  In  In26  1  0.41883000  0.25015000  0.15121000  1.0
  In  In27  1  0.48420000  0.75000000  0.15800000  1.0
  In  In28  1  0.50000000  0.25000000  0.95447000  1.0
  In  In29  1  0.50000000  0.75000000  0.95447000  1.0
  In  In30  1  0.99147000  0.50076000  0.04135000  1.0
  In  In31  1  0.99183000  0.99987000  0.04142000  1.0
  C  C32  1  0.74742000  0.25091000  0.14665000  1.0
