data_image0
_chemical_formula_structural       PbLiPbLiPbLiPbLiPbLiPbLiPbLiPbLi
_chemical_formula_sum              "Pb8 Li8"
_cell_length_a       7.21597
_cell_length_b       7.21597
_cell_length_c       25.412
_cell_angle_alpha    90
_cell_angle_beta     90
_cell_angle_gamma    90

_space_group_name_H-M_alt    "P 1"
_space_group_IT_number       1

loop_
  _space_group_symop_operation_xyz
  'x, y, z'

loop_
  _atom_site_type_symbol
  _atom_site_label
  _atom_site_symmetry_multiplicity
  _atom_site_fract_x
  _atom_site_fract_y
  _atom_site_fract_z
  _atom_site_occupancy
  Pb  Pb1       1.0  0.00000  0.00000  0.86032  1.0000
  Li  Li1       1.0  0.25000  0.25000  0.93131  1.0000
  Pb  Pb2       1.0  0.00000  0.00000  0.00230  1.0000
  Li  Li2       1.0  0.25000  0.25000  0.07329  1.0000
  Pb  Pb3       1.0  0.00000  0.50000  0.86032  1.0000
  Li  Li3       1.0  0.25000  0.75000  0.93131  1.0000
  Pb  Pb4       1.0  0.00000  0.50000  0.00230  1.0000
  Li  Li4       1.0  0.25000  0.75000  0.07329  1.0000
  Pb  Pb5       1.0  0.50000  0.00000  0.86032  1.0000
  Li  Li5       1.0  0.75000  0.25000  0.93131  1.0000
  Pb  Pb6       1.0  0.50000  0.00000  0.00230  1.0000
  Li  Li6       1.0  0.75000  0.25000  0.07329  1.0000
  Pb  Pb7       1.0  0.50000  0.50000  0.86032  1.0000
  Li  Li7       1.0  0.75000  0.75000  0.93131  1.0000
  Pb  Pb8       1.0  0.50000  0.50000  0.00230  1.0000
  Li  Li8       1.0  0.75000  0.75000  0.07329  1.0000
