data_image0
_chemical_formula_structural       Li4Ni8Ge4Li4Ni8Ge4C
_chemical_formula_sum              "Li8 Ni16 Ge8 C1"
_cell_length_a       5.71239
_cell_length_b       8.07854
_cell_length_c       26.0589
_cell_angle_alpha    90
_cell_angle_beta     90
_cell_angle_gamma    90

_space_group_name_H-M_alt    "P 1"
_space_group_IT_number       1

loop_
  _space_group_symop_operation_xyz
  'x, y, z'

loop_
  _atom_site_type_symbol
  _atom_site_label
  _atom_site_symmetry_multiplicity
  _atom_site_fract_x
  _atom_site_fract_y
  _atom_site_fract_z
  _atom_site_occupancy
  Li  Li1       1.0  0.00000  0.00000  0.88375  1.0000
  Li  Li2       1.0  0.50000  0.25000  0.96125  1.0000
  Li  Li3       1.0  0.50000  0.75000  0.96125  1.0000
  Li  Li4       1.0  0.00000  0.50000  0.88375  1.0000
  Ni  Ni1       1.0  0.25000  0.00000  0.96125  1.0000
  Ni  Ni2       1.0  0.75000  0.50000  0.96125  1.0000
  Ni  Ni3       1.0  0.75000  0.00000  0.96125  1.0000
  Ni  Ni4       1.0  0.25000  0.50000  0.96125  1.0000
  Ni  Ni5       1.0  0.75000  0.75000  0.88375  1.0000
  Ni  Ni6       1.0  0.25000  0.25000  0.88375  1.0000
  Ni  Ni7       1.0  0.25000  0.75000  0.88375  1.0000
  Ni  Ni8       1.0  0.75000  0.25000  0.88375  1.0000
  Ge  Ge1       1.0  0.00000  0.75000  0.96125  1.0000
  Ge  Ge2       1.0  0.50000  0.00000  0.88375  1.0000
  Ge  Ge3       1.0  0.00000  0.25000  0.96125  1.0000
  Ge  Ge4       1.0  0.50000  0.50000  0.88375  1.0000
  Li  Li5       1.0  0.00000  0.50000  0.03875  1.0000
  Li  Li6       1.0  0.50000  0.75000  0.11625  1.0000
  Li  Li7       1.0  0.50000  0.25000  0.11625  1.0000
  Li  Li8       1.0  0.00000  1.00000  0.03875  1.0000
  Ni  Ni9       1.0  0.25000  0.50000  0.11625  1.0000
  Ni  Ni10      1.0  0.75000  1.00000  0.11625  1.0000
  Ni  Ni11      1.0  0.75000  0.50000  0.11625  1.0000
  Ni  Ni12      1.0  0.25000  1.00000  0.11625  1.0000
  Ni  Ni13      1.0  0.75000  0.25000  0.03875  1.0000
  Ni  Ni14      1.0  0.25000  0.75000  0.03875  1.0000
  Ni  Ni15      1.0  0.25000  0.25000  0.03875  1.0000
  Ni  Ni16      1.0  0.75000  0.75000  0.03875  1.0000
  Ge  Ge5       1.0  0.00000  0.25000  0.11625  1.0000
  Ge  Ge6       1.0  0.50000  0.50000  0.03875  1.0000
  Ge  Ge7       1.0  0.00000  0.75000  0.11625  1.0000
  Ge  Ge8       1.0  0.50000  1.00000  0.03875  1.0000
  C   C1        1.0  0.25000  0.25000  0.14695  1.0000
