# generated using pymatgen
data_Li8Ni16Ge8C
_symmetry_space_group_name_H-M   Pm
_cell_length_a   5.71239000
_cell_length_b   8.07854000
_cell_length_c   26.05890000
_cell_angle_alpha   90.00000000
_cell_angle_beta   90.00000000
_cell_angle_gamma   90.00000000
_symmetry_Int_Tables_number   6
_chemical_formula_structural   Li8Ni16Ge8C
_chemical_formula_sum   'Li8 Ni16 Ge8 C1'
_cell_volume   1202.56015259
_cell_formula_units_Z   1
loop_
 _symmetry_equiv_pos_site_id
 _symmetry_equiv_pos_as_xyz
  1  'x, y, z'
  2  'x, -y, z'
loop_
 _atom_site_type_symbol
 _atom_site_label
 _atom_site_symmetry_multiplicity
 _atom_site_fract_x
 _atom_site_fract_y
 _atom_site_fract_z
 _atom_site_occupancy
  Li  Li0  2  0.00000000  0.25000000  0.88375000  1.0
  Li  Li1  2  0.00104000  0.24893000  0.03762000  1.0
  Li  Li2  1  0.48443000  0.50000000  0.13882000  1.0
  Li  Li3  1  0.50000000  0.00000000  0.96125000  1.0
  Li  Li4  1  0.50000000  0.50000000  0.96125000  1.0
  Li  Li5  1  0.51964000  0.00000000  0.16685000  1.0
  Ni  Ni6  2  0.25000000  0.25000000  0.96125000  1.0
  Ni  Ni7  2  0.25182000  0.23271000  0.11216000  1.0
  Ni  Ni8  2  0.75000000  0.25000000  0.96125000  1.0
  Ni  Ni9  2  0.75037000  0.26458000  0.11085000  1.0
  Ni  Ni10  1  0.25000000  0.00000000  0.88375000  1.0
  Ni  Ni11  1  0.25000000  0.50000000  0.88375000  1.0
  Ni  Ni12  1  0.25195000  0.00000000  0.04181000  1.0
  Ni  Ni13  1  0.25462000  0.50000000  0.04133000  1.0
  Ni  Ni14  1  0.74393000  0.00000000  0.03696000  1.0
  Ni  Ni15  1  0.75000000  0.00000000  0.88375000  1.0
  Ni  Ni16  1  0.75000000  0.50000000  0.88375000  1.0
  Ni  Ni17  1  0.75010000  0.50000000  0.04005000  1.0
  Ge  Ge18  2  0.50000000  0.25000000  0.88375000  1.0
  Ge  Ge19  2  0.50038000  0.25211000  0.03744000  1.0
  Ge  Ge20  1  -0.00000000  0.50000000  0.96125000  1.0
  Ge  Ge21  1  -0.00000000  0.00000000  0.96125000  1.0
  Ge  Ge22  1  0.00949000  0.50000000  0.11753000  1.0
  Ge  Ge23  1  0.90985000  0.00000000  0.12329000  1.0
  C  C24  1  0.24784000  0.00000000  0.11785000  1.0
