# generated using pymatgen
data_Li4Sc4In4Ga4C
_symmetry_space_group_name_H-M   Pm
_cell_length_a   5.87074000
_cell_length_b   8.86716000
_cell_length_c   24.40240000
_cell_angle_alpha   90.00000000
_cell_angle_beta   90.00000000
_cell_angle_gamma   90.00000000
_symmetry_Int_Tables_number   6
_chemical_formula_structural   Li4Sc4In4Ga4C
_chemical_formula_sum   'Li4 Sc4 In4 Ga4 C1'
_cell_volume   1270.31063422
_cell_formula_units_Z   1
loop_
 _symmetry_equiv_pos_site_id
 _symmetry_equiv_pos_as_xyz
  1  'x, y, z'
  2  'x, -y, z'
loop_
 _atom_site_type_symbol
 _atom_site_label
 _atom_site_symmetry_multiplicity
 _atom_site_fract_x
 _atom_site_fract_y
 _atom_site_fract_z
 _atom_site_occupancy
  Li  Li0  1  0.23717000  0.00000000  0.90980000  1.0
  Li  Li1  1  0.23717000  0.50000000  0.90980000  1.0
  Li  Li2  1  0.70422000  0.00000000  0.02464000  1.0
  Li  Li3  1  0.76143000  0.50000000  0.05271000  1.0
  Sc  Sc4  2  0.44490000  0.18943000  0.09968000  1.0
  Sc  Sc5  2  0.99145000  0.25001000  0.96993000  1.0
  In  In6  1  0.20026000  0.00000000  0.02256000  1.0
  In  In7  1  0.27134000  0.50000000  0.03634000  1.0
  In  In8  1  0.73717000  0.00000000  0.90980000  1.0
  In  In9  1  0.73717000  0.50000000  0.90980000  1.0
  Ga  Ga10  2  0.49145000  0.25001000  0.96993000  1.0
  Ga  Ga11  2  0.94341000  0.15717000  0.11358000  1.0
  C  C12  1  0.67030000  0.00000000  0.11036000  1.0
