# generated using pymatgen
data_Li4Ga8Ru4CO
_symmetry_space_group_name_H-M   P1
_cell_length_a   6.09317000
_cell_length_b   6.09317000
_cell_length_c   24.56990000
_cell_angle_alpha   90.00000000
_cell_angle_beta   90.00000000
_cell_angle_gamma   90.00000000
_symmetry_Int_Tables_number   1
_chemical_formula_structural   Li4Ga8Ru4CO
_chemical_formula_sum   'Li4 Ga8 Ru4 C1 O1'
_cell_volume   912.19981367
_cell_formula_units_Z   1
loop_
 _symmetry_equiv_pos_site_id
 _symmetry_equiv_pos_as_xyz
  1  'x, y, z'
loop_
 _atom_site_type_symbol
 _atom_site_label
 _atom_site_symmetry_multiplicity
 _atom_site_fract_x
 _atom_site_fract_y
 _atom_site_fract_z
 _atom_site_occupancy
  Li  Li0  1  -0.00000000  0.50000000  0.96900000  1.0
  Li  Li1  1  0.50000000  0.00000000  0.96900000  1.0
  Li  Li2  1  0.50000000  0.50015000  0.10642000  1.0
  Li  Li3  1  0.99999000  0.99987000  0.10803000  1.0
  Ga  Ga4  1  0.25000000  0.25000000  0.90700000  1.0
  Ga  Ga5  1  0.25000000  0.75000000  0.90700000  1.0
  Ga  Ga6  1  0.25009000  0.25025000  0.03514000  1.0
  Ga  Ga7  1  0.25021000  0.75018000  0.03507000  1.0
  Ga  Ga8  1  0.74984000  0.75018000  0.03506000  1.0
  Ga  Ga9  1  0.74996000  0.25025000  0.03514000  1.0
  Ga  Ga10  1  0.75000000  0.25000000  0.90700000  1.0
  Ga  Ga11  1  0.75000000  0.75000000  0.90700000  1.0
  Ru  Ru12  1  0.00000000  0.00000000  0.96900000  1.0
  Ru  Ru13  1  0.00002000  0.50036000  0.08701000  1.0
  Ru  Ru14  1  0.50000000  0.50000000  0.96900000  1.0
  Ru  Ru15  1  0.50005000  0.00014000  0.08709000  1.0
  C  C16  1  0.99982000  0.99953000  0.19327000  1.0
  O  O17  1  0.99989000  0.99973000  0.23968000  1.0
