# generated using pymatgen
data_ZnCo2Ge
_symmetry_space_group_name_H-M   Pmm2
_cell_length_a   4.07184500
_cell_length_b   5.75846000
_cell_length_c   26.10780000
_cell_angle_alpha   90.00000000
_cell_angle_beta   90.00000000
_cell_angle_gamma   90.00000000
_symmetry_Int_Tables_number   25
_chemical_formula_structural   ZnCo2Ge
_chemical_formula_sum   'Zn4 Co8 Ge4'
_cell_volume   612.16411712
_cell_formula_units_Z   4
loop_
 _symmetry_equiv_pos_site_id
 _symmetry_equiv_pos_as_xyz
  1  'x, y, z'
  2  '-x, -y, z'
  3  '-x, y, z'
  4  'x, -y, z'
loop_
 _atom_site_type_symbol
 _atom_site_label
 _atom_site_symmetry_multiplicity
 _atom_site_fract_x
 _atom_site_fract_y
 _atom_site_fract_z
 _atom_site_occupancy
  Zn  Zn0  1  0.00000000  0.00000000  0.11697000  1.0
  Zn  Zn1  1  0.00000000  0.00000000  0.96242500  1.0
  Zn  Zn2  1  0.50000000  0.50000000  0.03899000  1.0
  Zn  Zn3  1  0.50000000  0.50000000  0.87133000  1.0
  Co  Co4  2  0.00000000  0.24387500  0.88728500  1.0
  Co  Co5  2  0.00000000  0.25000000  0.03899000  1.0
  Co  Co6  2  0.50000000  0.25000000  0.11697000  1.0
  Co  Co7  2  0.50000000  0.25233000  0.96158500  1.0
  Ge  Ge8  1  0.00000000  0.50000000  0.11697000  1.0
  Ge  Ge9  1  0.00000000  0.50000000  0.96001500  1.0
  Ge  Ge10  1  0.50000000  0.00000000  0.03899000  1.0
  Ge  Ge11  1  0.50000000  0.00000000  0.87975000  1.0
