data_image0
_chemical_formula_structural       Cu24Sb8CO
_chemical_formula_sum              "Cu24 Sb8 C1 O1"
_cell_length_a       6.30953
_cell_length_b       8.92302
_cell_length_c       26.6923
_cell_angle_alpha    90
_cell_angle_beta     90
_cell_angle_gamma    90

_space_group_name_H-M_alt    "P 1"
_space_group_IT_number       1

loop_
  _space_group_symop_operation_xyz
  'x, y, z'

loop_
  _atom_site_type_symbol
  _atom_site_label
  _atom_site_symmetry_multiplicity
  _atom_site_fract_x
  _atom_site_fract_y
  _atom_site_fract_z
  _atom_site_occupancy
  Cu  Cu1       1.0  0.25000  0.00000  0.95821  1.0000
  Cu  Cu2       1.0  0.75000  0.50000  0.95821  1.0000
  Cu  Cu3       1.0  0.75000  0.00000  0.95821  1.0000
  Cu  Cu4       1.0  0.25000  0.50000  0.95821  1.0000
  Cu  Cu5       1.0  0.75000  0.75000  0.87464  1.0000
  Cu  Cu6       1.0  0.25000  0.25000  0.87464  1.0000
  Cu  Cu7       1.0  0.25000  0.75000  0.87464  1.0000
  Cu  Cu8       1.0  0.75000  0.25000  0.87464  1.0000
  Cu  Cu9       1.0  0.00000  0.75000  0.95821  1.0000
  Cu  Cu10      1.0  0.50000  0.00000  0.87464  1.0000
  Cu  Cu11      1.0  0.00000  0.25000  0.95821  1.0000
  Cu  Cu12      1.0  0.50000  0.50000  0.87464  1.0000
  Cu  Cu13      1.0  0.26668  0.50000  0.12038  1.0000
  Cu  Cu14      1.0  0.71466  0.00001  0.11154  1.0000
  Cu  Cu15      1.0  0.86306  0.50000  0.14048  1.0000
  Cu  Cu16      1.0  0.31575  0.00002  0.12979  1.0000
  Cu  Cu17      1.0  0.73062  0.22294  0.03997  1.0000
  Cu  Cu18      1.0  0.32022  0.72262  0.05332  1.0000
  Cu  Cu19      1.0  0.32022  0.27738  0.05332  1.0000
  Cu  Cu20      1.0  0.73062  0.77707  0.03996  1.0000
  Cu  Cu21      1.0  0.99523  0.24915  0.11056  1.0000
  Cu  Cu22      1.0  0.59525  0.50000  0.05884  1.0000
  Cu  Cu23      1.0  0.99523  0.75085  0.11056  1.0000
  Cu  Cu24      1.0  0.46186  0.00000  0.03777  1.0000
  Sb  Sb1       1.0  0.00000  0.00000  0.87464  1.0000
  Sb  Sb2       1.0  0.50000  0.25000  0.95821  1.0000
  Sb  Sb3       1.0  0.50000  0.75000  0.95821  1.0000
  Sb  Sb4       1.0  0.00000  0.50000  0.87464  1.0000
  Sb  Sb5       1.0  0.01696  0.50000  0.04008  1.0000
  Sb  Sb6       1.0  0.56811  0.72385  0.13757  1.0000
  Sb  Sb7       1.0  0.56811  0.27616  0.13757  1.0000
  Sb  Sb8       1.0  0.04078  0.00000  0.04727  1.0000
  C   C1        1.0  0.20430  0.00000  0.19503  1.0000
  O   O1        1.0  0.16004  0.99999  0.23672  1.0000
