# generated using pymatgen
data_Cu24Sb8CO
_symmetry_space_group_name_H-M   Pm
_cell_length_a   6.30953000
_cell_length_b   8.92302000
_cell_length_c   26.69230000
_cell_angle_alpha   90.00000000
_cell_angle_beta   90.00000000
_cell_angle_gamma   90.00000000
_symmetry_Int_Tables_number   6
_chemical_formula_structural   Cu24Sb8CO
_chemical_formula_sum   'Cu24 Sb8 C1 O1'
_cell_volume   1502.77815508
_cell_formula_units_Z   1
loop_
 _symmetry_equiv_pos_site_id
 _symmetry_equiv_pos_as_xyz
  1  'x, y, z'
  2  'x, -y, z'
loop_
 _atom_site_type_symbol
 _atom_site_label
 _atom_site_symmetry_multiplicity
 _atom_site_fract_x
 _atom_site_fract_y
 _atom_site_fract_z
 _atom_site_occupancy
  Cu  Cu0  2  -0.00000000  0.25000000  0.95821000  1.0
  Cu  Cu1  2  0.01044000  0.24596000  0.11038000  1.0
  Cu  Cu2  2  0.25000000  0.25000000  0.87464000  1.0
  Cu  Cu3  2  0.34402000  0.27215000  0.05828000  1.0
  Cu  Cu4  2  0.74703000  0.22568000  0.03907000  1.0
  Cu  Cu5  2  0.75000000  0.25000000  0.87464000  1.0
  Cu  Cu6  1  0.25000000  0.00000000  0.95821000  1.0
  Cu  Cu7  1  0.25000000  0.50000000  0.95821000  1.0
  Cu  Cu8  1  0.28931000  0.50000000  0.12093000  1.0
  Cu  Cu9  1  0.32988000  0.00000000  0.12748000  1.0
  Cu  Cu10  1  0.48352000  0.00000000  0.03567000  1.0
  Cu  Cu11  1  0.50000000  0.00000000  0.87464000  1.0
  Cu  Cu12  1  0.50000000  0.50000000  0.87464000  1.0
  Cu  Cu13  1  0.61399000  0.50000000  0.05917000  1.0
  Cu  Cu14  1  0.73117000  0.00000000  0.11052000  1.0
  Cu  Cu15  1  0.75000000  0.00000000  0.95821000  1.0
  Cu  Cu16  1  0.75000000  0.50000000  0.95821000  1.0
  Cu  Cu17  1  0.88366000  0.50000000  0.13807000  1.0
  Sb  Sb18  2  0.50000000  0.25000000  0.95821000  1.0
  Sb  Sb19  2  0.59350000  0.27505000  0.14025000  1.0
  Sb  Sb20  1  -0.00000000  0.50000000  0.87464000  1.0
  Sb  Sb21  1  0.00000000  0.00000000  0.87464000  1.0
  Sb  Sb22  1  0.03692000  0.50000000  0.04042000  1.0
  Sb  Sb23  1  0.05472000  0.00000000  0.04674000  1.0
  C  C24  1  0.20876000  0.00000000  0.19172000  1.0
  O  O25  1  0.14707000  0.00000000  0.23221000  1.0
