# generated using pymatgen
data_Li4Ge4Pd4Pt4C
_symmetry_space_group_name_H-M   'P 1'
_cell_length_a   6.12898000
_cell_length_b   6.12898000
_cell_length_c   24.59670000
_cell_angle_alpha   90.00000000
_cell_angle_beta   90.00000000
_cell_angle_gamma   90.00000000
_symmetry_Int_Tables_number   1
_chemical_formula_structural   Li4Ge4Pd4Pt4C
_chemical_formula_sum   'Li4 Ge4 Pd4 Pt4 C1'
_cell_volume   923.96017517
_cell_formula_units_Z   1
loop_
 _symmetry_equiv_pos_site_id
 _symmetry_equiv_pos_as_xyz
  1  'x, y, z'
loop_
 _atom_site_type_symbol
 _atom_site_label
 _atom_site_symmetry_multiplicity
 _atom_site_fract_x
 _atom_site_fract_y
 _atom_site_fract_z
 _atom_site_occupancy
  Li  Li0  1  0.50314000  0.00355000  0.89411000  1
  Li  Li1  1  0.00000000  0.00000000  0.03115000  1
  Li  Li2  1  0.50000000  0.50000000  0.03115000  1
  Li  Li3  1  0.99645000  0.49686000  0.89411000  1
  Ge  Ge4  1  0.01914500  0.98085500  0.89408000  1
  Ge  Ge5  1  0.50000000  1.00000000  0.03115000  1
  Ge  Ge6  1  0.00000000  0.50000000  0.03115000  1
  Ge  Ge7  1  0.47970000  0.52030000  0.89390000  1
  Pd  Pd8  1  0.25020000  0.25032000  0.95967000  1
  Pd  Pd9  1  0.75000000  0.25000000  0.09344000  1
  Pd  Pd10  1  0.25000000  0.75000000  0.09344000  1
  Pd  Pd11  1  0.74968000  0.74980000  0.95967000  1
  Pt  Pt12  1  0.24987000  0.75013000  0.97663000  1
  Pt  Pt13  1  0.75000000  0.75000000  0.09344000  1
  Pt  Pt14  1  0.25000000  0.25000000  0.09344000  1
  Pt  Pt15  1  0.75036000  0.24964000  0.96725000  1
  C  C16  1  0.24935000  0.75065000  0.89146000  1
