# generated using pymatgen
data_Li8Ni16Sn8CO
_symmetry_space_group_name_H-M   'P 1'
_cell_length_a   8.55507000
_cell_length_b   6.04935000
_cell_length_c   26.41630000
_cell_angle_alpha   90.00000000
_cell_angle_beta   90.00000000
_cell_angle_gamma   90.00000000
_symmetry_Int_Tables_number   1
_chemical_formula_structural   Li8Ni16Sn8CO
_chemical_formula_sum   'Li8 Ni16 Sn8 C1 O1'
_cell_volume   1367.11254299
_cell_formula_units_Z   1
loop_
 _symmetry_equiv_pos_site_id
 _symmetry_equiv_pos_as_xyz
  1  'x, y, z'
loop_
 _atom_site_type_symbol
 _atom_site_label
 _atom_site_symmetry_multiplicity
 _atom_site_fract_x
 _atom_site_fract_y
 _atom_site_fract_z
 _atom_site_occupancy
  Li  Li0  1  0.00000000  0.00000000  0.12145000  1.0
  Li  Li1  1  0.24998000  0.50000000  0.04048000  1.0
  Li  Li2  1  0.75002000  0.50000000  0.04048000  1.0
  Li  Li3  1  0.50000000  1.00000000  0.12145000  1.0
  Li  Li4  1  0.50000000  0.99862000  0.96646000  1.0
  Li  Li5  1  0.72918000  0.49737000  0.86911000  1.0
  Li  Li6  1  0.27082000  0.49737000  0.86911000  1.0
  Li  Li7  1  0.00000000  0.99864000  0.95779000  1.0
  Ni  Ni8  1  0.00000000  0.25000000  0.04048000  1.0
  Ni  Ni9  1  0.50000000  0.75000000  0.04048000  1.0
  Ni  Ni10  1  0.00000000  0.75000000  0.04048000  1.0
  Ni  Ni11  1  0.50000000  0.25000000  0.04048000  1.0
  Ni  Ni12  1  0.74998000  0.75000000  0.12145000  1.0
  Ni  Ni13  1  0.24998000  0.25000000  0.12145000  1.0
  Ni  Ni14  1  0.75002000  0.25000000  0.12145000  1.0
  Ni  Ni15  1  0.25002000  0.75000000  0.12145000  1.0
  Ni  Ni16  1  0.50000000  0.20380000  0.88940000  1.0
  Ni  Ni17  1  0.00000000  0.71508000  0.87794000  1.0
  Ni  Ni18  1  0.50000000  0.79111000  0.88939000  1.0
  Ni  Ni19  1  0.00000000  0.27878000  0.87871000  1.0
  Ni  Ni20  1  0.24927000  0.75317000  0.95721000  1.0
  Ni  Ni21  1  0.75100000  0.24352000  0.95698000  1.0
  Ni  Ni22  1  0.24900000  0.24352000  0.95698000  1.0
  Ni  Ni23  1  0.75073000  0.75317000  0.95721000  1.0
  Sn  Sn24  1  0.74998000  1.00000000  0.04048000  1.0
  Sn  Sn25  1  0.00000000  0.50000000  0.12145000  1.0
  Sn  Sn26  1  0.25002000  1.00000000  0.04048000  1.0
  Sn  Sn27  1  0.50000000  0.50000000  0.12145000  1.0
  Sn  Sn28  1  0.23786000  0.99734000  0.87282000  1.0
  Sn  Sn29  1  0.50000000  0.49820000  0.95900000  1.0
  Sn  Sn30  1  0.76214000  0.99734000  0.87282000  1.0
  Sn  Sn31  1  0.00000000  0.49928000  0.96241000  1.0
  C  C32  1  0.00000000  0.49506000  0.82669000  1.0
  O  O33  1  0.00000000  0.49111000  0.78181000  1.0
