# generated using pymatgen
data_Li8Ni16Sn8CO
_symmetry_space_group_name_H-M   Pm
_cell_length_a   6.04935000
_cell_length_b   8.55507000
_cell_length_c   26.41630000
_cell_angle_alpha   90.00000000
_cell_angle_beta   90.00000000
_cell_angle_gamma   90.00000000
_symmetry_Int_Tables_number   6
_chemical_formula_structural   Li8Ni16Sn8CO
_chemical_formula_sum   'Li8 Ni16 Sn8 C1 O1'
_cell_volume   1367.11254299
_cell_formula_units_Z   1
loop_
 _symmetry_equiv_pos_site_id
 _symmetry_equiv_pos_as_xyz
  1  'x, y, z'
  2  'x, -y, z'
loop_
 _atom_site_type_symbol
 _atom_site_label
 _atom_site_symmetry_multiplicity
 _atom_site_fract_x
 _atom_site_fract_y
 _atom_site_fract_z
 _atom_site_occupancy
  Li  Li0  2  0.49737000  0.27082000  0.13089000  1.0
  Li  Li1  2  0.50000000  0.24998000  0.95952000  1.0
  Li  Li2  1  -0.00000000  0.50000000  0.87855000  1.0
  Li  Li3  1  0.00000000  0.00000000  0.87855000  1.0
  Li  Li4  1  0.99862000  0.50000000  0.03354000  1.0
  Li  Li5  1  0.99864000  0.00000000  0.04221000  1.0
  Ni  Ni6  2  0.24352000  0.24900000  0.04302000  1.0
  Ni  Ni7  2  0.25000000  0.24998000  0.87855000  1.0
  Ni  Ni8  2  0.75000000  0.25002000  0.87855000  1.0
  Ni  Ni9  2  0.75317000  0.24927000  0.04279000  1.0
  Ni  Ni10  1  0.20380000  0.50000000  0.11060000  1.0
  Ni  Ni11  1  0.25000000  0.00000000  0.95952000  1.0
  Ni  Ni12  1  0.25000000  0.50000000  0.95952000  1.0
  Ni  Ni13  1  0.27878000  0.00000000  0.12129000  1.0
  Ni  Ni14  1  0.71508000  0.00000000  0.12206000  1.0
  Ni  Ni15  1  0.75000000  0.00000000  0.95952000  1.0
  Ni  Ni16  1  0.75000000  0.50000000  0.95952000  1.0
  Ni  Ni17  1  0.79111000  0.50000000  0.11061000  1.0
  Sn  Sn18  2  -0.00000000  0.25002000  0.95952000  1.0
  Sn  Sn19  2  0.99734000  0.23786000  0.12718000  1.0
  Sn  Sn20  1  0.49820000  0.50000000  0.04100000  1.0
  Sn  Sn21  1  0.49928000  0.00000000  0.03759000  1.0
  Sn  Sn22  1  0.50000000  0.00000000  0.87855000  1.0
  Sn  Sn23  1  0.50000000  0.50000000  0.87855000  1.0
  C  C24  1  0.49506000  0.00000000  0.17331000  1.0
  O  O25  1  0.49111000  0.00000000  0.21819000  1.0
