# generated using pymatgen
data_Li4Y4Sn4Ge4C
_symmetry_space_group_name_H-M   P1
_cell_length_a   6.35836000
_cell_length_b   8.60818000
_cell_length_c   24.74450000
_cell_angle_alpha   90.00000000
_cell_angle_beta   90.00000000
_cell_angle_gamma   90.00000000
_symmetry_Int_Tables_number   1
_chemical_formula_structural   Li4Y4Sn4Ge4C
_chemical_formula_sum   'Li4 Y4 Sn4 Ge4 C1'
_cell_volume   1354.36317128
_cell_formula_units_Z   1
loop_
 _symmetry_equiv_pos_site_id
 _symmetry_equiv_pos_as_xyz
  1  'x, y, z'
loop_
 _atom_site_type_symbol
 _atom_site_label
 _atom_site_symmetry_multiplicity
 _atom_site_fract_x
 _atom_site_fract_y
 _atom_site_fract_z
 _atom_site_occupancy
  Li  Li0  1  0.05034000  0.00000000  0.03196000  1.0
  Li  Li1  1  0.05034000  0.50000000  0.03196000  1.0
  Li  Li2  1  0.39232000  0.00954000  0.89764000  1.0
  Li  Li3  1  0.39236000  0.49042000  0.89763000  1.0
  Y  Y4  1  0.32551000  0.25000000  0.09587000  1.0
  Y  Y5  1  0.32551000  0.75000000  0.09587000  1.0
  Y  Y6  1  0.71710000  0.75002000  0.96776000  1.0
  Y  Y7  1  0.78821000  0.25004000  0.96240000  1.0
  Sn  Sn8  1  0.22001000  0.74998000  0.95594000  1.0
  Sn  Sn9  1  0.29497000  0.25000000  0.97005000  1.0
  Sn  Sn10  1  0.82551000  0.25000000  0.09587000  1.0
  Sn  Sn11  1  0.82551000  0.75000000  0.09587000  1.0
  Ge  Ge12  1  0.55034000  0.00000000  0.03196000  1.0
  Ge  Ge13  1  0.55034000  0.50000000  0.03196000  1.0
  Ge  Ge14  1  0.94793000  0.96907000  0.88892000  1.0
  Ge  Ge15  1  0.94803000  0.53103000  0.88892000  1.0
  C  C16  1  0.91829000  0.75005000  0.88606000  1.0
