# generated using pymatgen
data_Li4Sc4In4Ga4CO
_symmetry_space_group_name_H-M   P1
_cell_length_a   6.04935000
_cell_length_b   8.37318000
_cell_length_c   24.52450000
_cell_angle_alpha   90.00000000
_cell_angle_beta   90.00000000
_cell_angle_gamma   90.00000000
_symmetry_Int_Tables_number   1
_chemical_formula_structural   Li4Sc4In4Ga4CO
_chemical_formula_sum   'Li4 Sc4 In4 Ga4 C1 O1'
_cell_volume   1242.22224387
_cell_formula_units_Z   1
loop_
 _symmetry_equiv_pos_site_id
 _symmetry_equiv_pos_as_xyz
  1  'x, y, z'
loop_
 _atom_site_type_symbol
 _atom_site_label
 _atom_site_symmetry_multiplicity
 _atom_site_fract_x
 _atom_site_fract_y
 _atom_site_fract_z
 _atom_site_occupancy
  Li  Li0  1  0.17486000  0.74981000  0.08859000  1.0
  Li  Li1  1  0.18796000  0.24989000  0.09146000  1.0
  Li  Li2  1  0.73143000  0.25000000  0.96925000  1.0
  Li  Li3  1  0.73143000  0.75000000  0.96925000  1.0
  Sc  Sc4  1  0.23143000  0.25000000  0.96925000  1.0
  Sc  Sc5  1  0.23143000  0.75000000  0.96925000  1.0
  Sc  Sc6  1  0.65788000  0.75070000  0.08345000  1.0
  Sc  Sc7  1  0.66715000  0.24976000  0.08892000  1.0
  In  In8  1  0.50000000  0.00000000  0.90776000  1.0
  In  In9  1  0.50000000  0.50000000  0.90776000  1.0
  In  In10  1  0.94401000  0.00383000  0.03322000  1.0
  In  In11  1  0.94451000  0.49642000  0.03330000  1.0
  Ga  Ga12  1  0.00000000  0.00000000  0.90776000  1.0
  Ga  Ga13  1  0.00000000  0.50000000  0.90776000  1.0
  Ga  Ga14  1  0.43325000  0.00103000  0.03536000  1.0
  Ga  Ga15  1  0.43522000  0.49924000  0.03532000  1.0
  C  C16  1  0.93226000  0.24931000  0.14936000  1.0
  O  O17  1  0.10437000  0.24924000  0.17318000  1.0
