# generated using pymatgen
data_Li8Ga16Rh8C
_symmetry_space_group_name_H-M   'P 1'
_cell_length_a   6.12388000
_cell_length_b   8.66047000
_cell_length_c   26.49540000
_cell_angle_alpha   90.00000000
_cell_angle_beta   90.00000000
_cell_angle_gamma   90.00000000
_symmetry_Int_Tables_number   1
_chemical_formula_structural   Li8Ga16Rh8C
_chemical_formula_sum   'Li8 Ga16 Rh8 C1'
_cell_volume   1405.20153000
_cell_formula_units_Z   1
loop_
 _symmetry_equiv_pos_site_id
 _symmetry_equiv_pos_as_xyz
  1  'x, y, z'
loop_
 _atom_site_type_symbol
 _atom_site_label
 _atom_site_symmetry_multiplicity
 _atom_site_fract_x
 _atom_site_fract_y
 _atom_site_fract_z
 _atom_site_occupancy
  Li  Li0  1  0.00000000  0.00000000  0.87742000  1.0
  Li  Li1  1  0.50000000  0.25000000  0.95914000  1.0
  Li  Li2  1  0.50000000  0.75000000  0.95914000  1.0
  Li  Li3  1  0.00000000  0.50000000  0.87742000  1.0
  Li  Li4  1  0.00000000  0.50000000  0.03610000  1.0
  Li  Li5  1  0.50000000  0.71845000  0.13482000  1.0
  Li  Li6  1  0.50000000  0.28155000  0.13482000  1.0
  Li  Li7  1  0.00000000  0.00000000  0.04527000  1.0
  Ga  Ga8  1  0.25000000  0.00000000  0.95914000  1.0
  Ga  Ga9  1  0.75000000  0.50000000  0.95914000  1.0
  Ga  Ga10  1  0.75000000  0.00000000  0.95914000  1.0
  Ga  Ga11  1  0.25000000  0.50000000  0.95914000  1.0
  Ga  Ga12  1  0.75000000  0.75000000  0.87742000  1.0
  Ga  Ga13  1  0.25000000  0.25000000  0.87742000  1.0
  Ga  Ga14  1  0.25000000  0.75000000  0.87742000  1.0
  Ga  Ga15  1  0.75000000  0.25000000  0.87742000  1.0
  Ga  Ga16  1  0.21186000  0.50000000  0.12267000  1.0
  Ga  Ga17  1  0.69324000  0.00000000  0.12632000  1.0
  Ga  Ga18  1  0.78814000  0.50000000  0.12267000  1.0
  Ga  Ga19  1  0.30676000  0.00000000  0.12632000  1.0
  Ga  Ga20  1  0.74420000  0.25103000  0.04229000  1.0
  Ga  Ga21  1  0.25580000  0.74897000  0.04229000  1.0
  Ga  Ga22  1  0.25580000  0.25103000  0.04229000  1.0
  Ga  Ga23  1  0.74420000  0.74897000  0.04229000  1.0
  Rh  Rh24  1  0.00000000  0.75000000  0.95914000  1.0
  Rh  Rh25  1  0.50000000  0.00000000  0.87742000  1.0
  Rh  Rh26  1  0.00000000  0.25000000  0.95914000  1.0
  Rh  Rh27  1  0.50000000  0.50000000  0.87742000  1.0
  Rh  Rh28  1  0.00000000  0.22893000  0.11812000  1.0
  Rh  Rh29  1  0.50000000  0.50000000  0.04006000  1.0
  Rh  Rh30  1  0.00000000  0.77107000  0.11812000  1.0
  Rh  Rh31  1  0.50000000  0.00000000  0.03521000  1.0
  C  C32  1  0.00000000  0.00000000  0.13951000  1.0
