# generated using pymatgen
data_Y8Sn8Ge8Pd8C
_symmetry_space_group_name_H-M   Pmm2
_cell_length_a   8.11456000
_cell_length_b   8.65102000
_cell_length_c   27.20230000
_cell_angle_alpha   90.00000000
_cell_angle_beta   90.00000000
_cell_angle_gamma   90.00000000
_symmetry_Int_Tables_number   25
_chemical_formula_structural   Y8Sn8Ge8Pd8C
_chemical_formula_sum   'Y8 Sn8 Ge8 Pd8 C1'
_cell_volume   1909.58026536
_cell_formula_units_Z   1
loop_
 _symmetry_equiv_pos_site_id
 _symmetry_equiv_pos_as_xyz
  1  'x, y, z'
  2  '-x, -y, z'
  3  '-x, y, z'
  4  'x, -y, z'
loop_
 _atom_site_type_symbol
 _atom_site_label
 _atom_site_symmetry_multiplicity
 _atom_site_fract_x
 _atom_site_fract_y
 _atom_site_fract_z
 _atom_site_occupancy
  Y  Y0  2  0.00000000  0.25000000  0.13238000  1.0
  Y  Y1  2  0.00000000  0.25000000  0.95587000  1.0
  Y  Y2  2  0.50000000  0.25000000  0.13238000  1.0
  Y  Y3  2  0.50000000  0.25000000  0.95587000  1.0
  Sn  Sn4  1  0.00000000  0.00000000  0.04413000  1.0
  Sn  Sn5  1  0.00000000  0.00000000  0.86762000  1.0
  Sn  Sn6  1  0.00000000  0.50000000  0.04413000  1.0
  Sn  Sn7  1  0.00000000  0.50000000  0.86762000  1.0
  Sn  Sn8  1  0.50000000  0.00000000  0.04413000  1.0
  Sn  Sn9  1  0.50000000  0.00000000  0.86762000  1.0
  Sn  Sn10  1  0.50000000  0.50000000  0.04413000  1.0
  Sn  Sn11  1  0.50000000  0.50000000  0.86762000  1.0
  Ge  Ge12  2  0.25000000  0.00000000  0.13238000  1.0
  Ge  Ge13  2  0.25000000  0.00000000  0.95587000  1.0
  Ge  Ge14  2  0.25000000  0.50000000  0.13238000  1.0
  Ge  Ge15  2  0.25000000  0.50000000  0.95587000  1.0
  Pd  Pd16  4  0.25000000  0.25000000  0.04413000  1.0
  Pd  Pd17  4  0.25000000  0.25000000  0.86762000  1.0
  C  C18  1  0.00000000  0.00000000  0.16179000  1.0
