# generated using pymatgen
data_Ti8Ga8C
_symmetry_space_group_name_H-M   'P 1'
_cell_length_a   5.62342000
_cell_length_b   5.62342000
_cell_length_c   25.99510000
_cell_angle_alpha   90.00000000
_cell_angle_beta   90.00000000
_cell_angle_gamma   90.00000000
_symmetry_Int_Tables_number   1
_chemical_formula_structural   Ti8Ga8C
_chemical_formula_sum   'Ti8 Ga8 C1'
_cell_volume   822.03921293
_cell_formula_units_Z   1
loop_
 _symmetry_equiv_pos_site_id
 _symmetry_equiv_pos_as_xyz
  1  'x, y, z'
loop_
 _atom_site_type_symbol
 _atom_site_label
 _atom_site_symmetry_multiplicity
 _atom_site_fract_x
 _atom_site_fract_y
 _atom_site_fract_z
 _atom_site_occupancy
  Ti  Ti0  1  0.00000000  0.00000000  0.89183000  1.0
  Ti  Ti1  1  0.00000000  0.00000000  0.04558000  1.0
  Ti  Ti2  1  0.00000000  0.50000000  0.89183000  1.0
  Ti  Ti3  1  0.00000000  0.50000000  0.04558000  1.0
  Ti  Ti4  1  0.50000000  0.00000000  0.89183000  1.0
  Ti  Ti5  1  0.50000000  0.00000000  0.04558000  1.0
  Ti  Ti6  1  0.50000000  0.50000000  0.89183000  1.0
  Ti  Ti7  1  0.50000000  0.50000000  0.04558000  1.0
  Ga  Ga8  1  0.25000000  0.25000000  0.96871000  1.0
  Ga  Ga9  1  0.25000000  0.25000000  0.12246000  1.0
  Ga  Ga10  1  0.25000000  0.75000000  0.96871000  1.0
  Ga  Ga11  1  0.25000000  0.75000000  0.12246000  1.0
  Ga  Ga12  1  0.75000000  0.25000000  0.96871000  1.0
  Ga  Ga13  1  0.75000000  0.25000000  0.12246000  1.0
  Ga  Ga14  1  0.75000000  0.75000000  0.96871000  1.0
  Ga  Ga15  1  0.75000000  0.75000000  0.12246000  1.0
  C  C16  1  0.00000000  0.00000000  0.15323000  1.0
