# generated using pymatgen
data_V12Pt4C
_symmetry_space_group_name_H-M   Pmm2
_cell_length_a   5.40744000
_cell_length_b   7.64728000
_cell_length_c   24.05560000
_cell_angle_alpha   90.00000000
_cell_angle_beta   90.00000000
_cell_angle_gamma   90.00000000
_symmetry_Int_Tables_number   25
_chemical_formula_structural   V12Pt4C
_chemical_formula_sum   'V12 Pt4 C1'
_cell_volume   994.75216907
_cell_formula_units_Z   1
loop_
 _symmetry_equiv_pos_site_id
 _symmetry_equiv_pos_as_xyz
  1  'x, y, z'
  2  '-x, -y, z'
  3  '-x, y, z'
  4  'x, -y, z'
loop_
 _atom_site_type_symbol
 _atom_site_label
 _atom_site_symmetry_multiplicity
 _atom_site_fract_x
 _atom_site_fract_y
 _atom_site_fract_z
 _atom_site_occupancy
  V  V0  4  0.25000000  0.25000000  0.02810000  1.0
  V  V1  4  0.25098000  0.19549000  0.91327000  1.0
  V  V2  1  0.00000000  0.00000000  0.97383000  1.0
  V  V3  1  0.00000000  0.50000000  0.96579000  1.0
  V  V4  1  0.50000000  0.00000000  0.08430000  1.0
  V  V5  1  0.50000000  0.50000000  0.08430000  1.0
  Pt  Pt6  1  0.00000000  0.00000000  0.08430000  1.0
  Pt  Pt7  1  0.00000000  0.50000000  0.08430000  1.0
  Pt  Pt8  1  0.50000000  0.00000000  0.98361000  1.0
  Pt  Pt9  1  0.50000000  0.50000000  0.96215000  1.0
  C  C10  1  0.50000000  0.00000000  0.89078000  1.0
