data_image0
_chemical_formula_structural       Mn16Zn16C
_chemical_formula_sum              "Mn16 Zn16 C1"
_cell_length_a       6.05499
_cell_length_b       8.56306
_cell_length_c       26.4223
_cell_angle_alpha    90
_cell_angle_beta     90
_cell_angle_gamma    90

_space_group_name_H-M_alt    "P 1"
_space_group_IT_number       1

loop_
  _space_group_symop_operation_xyz
  'x, y, z'

loop_
  _atom_site_type_symbol
  _atom_site_label
  _atom_site_symmetry_multiplicity
  _atom_site_fract_x
  _atom_site_fract_y
  _atom_site_fract_z
  _atom_site_occupancy
  Mn  Mn1       1.0  0.00000  0.00000  0.87847  1.0000
  Mn  Mn2       1.0  0.00000  0.25000  0.95949  1.0000
  Mn  Mn3       1.0  0.00224  0.49869  0.04267  1.0000
  Mn  Mn4       1.0  0.99469  0.25000  0.11863  1.0000
  Mn  Mn5       1.0  0.00000  0.50000  0.87847  1.0000
  Mn  Mn6       1.0  0.00000  0.75000  0.95949  1.0000
  Mn  Mn7       1.0  0.00224  0.00131  0.04266  1.0000
  Mn  Mn8       1.0  0.01197  0.75000  0.12257  1.0000
  Mn  Mn9       1.0  0.50000  0.00000  0.87847  1.0000
  Mn  Mn10      1.0  0.50000  0.25000  0.95949  1.0000
  Mn  Mn11      1.0  0.49792  0.49876  0.04264  1.0000
  Mn  Mn12      1.0  0.50484  0.25000  0.11881  1.0000
  Mn  Mn13      1.0  0.50000  0.50000  0.87847  1.0000
  Mn  Mn14      1.0  0.50000  0.75000  0.95949  1.0000
  Mn  Mn15      1.0  0.49792  0.00123  0.04263  1.0000
  Mn  Mn16      1.0  0.48787  0.75000  0.12256  1.0000
  Zn  Zn1       1.0  0.25000  0.25000  0.87847  1.0000
  Zn  Zn2       1.0  0.25000  0.50000  0.95949  1.0000
  Zn  Zn3       1.0  0.25026  0.24998  0.03859  1.0000
  Zn  Zn4       1.0  0.25012  0.49595  0.13059  1.0000
  Zn  Zn5       1.0  0.25000  0.75000  0.87847  1.0000
  Zn  Zn6       1.0  0.25000  0.00000  0.95949  1.0000
  Zn  Zn7       1.0  0.25013  0.75002  0.03883  1.0000
  Zn  Zn8       1.0  0.25012  0.00406  0.13057  1.0000
  Zn  Zn9       1.0  0.75000  0.25000  0.87847  1.0000
  Zn  Zn10      1.0  0.75000  0.50000  0.95949  1.0000
  Zn  Zn11      1.0  0.74969  0.24998  0.03791  1.0000
  Zn  Zn12      1.0  0.74979  0.49798  0.12506  1.0000
  Zn  Zn13      1.0  0.75000  0.75000  0.87847  1.0000
  Zn  Zn14      1.0  0.75000  0.00000  0.95949  1.0000
  Zn  Zn15      1.0  0.74993  0.75002  0.04136  1.0000
  Zn  Zn16      1.0  0.74979  0.00202  0.12504  1.0000
  C   C1        1.0  0.24934  0.25000  0.15392  1.0000
