# generated using pymatgen
data_Mn16Zn16C
_symmetry_space_group_name_H-M   'P 1'
_cell_length_a   8.56306000
_cell_length_b   6.05499000
_cell_length_c   26.42230000
_cell_angle_alpha   90.00000000
_cell_angle_beta   90.00000000
_cell_angle_gamma   90.00000000
_symmetry_Int_Tables_number   1
_chemical_formula_structural   Mn16Zn16C
_chemical_formula_sum   'Mn16 Zn16 C1'
_cell_volume   1369.97624458
_cell_formula_units_Z   1
loop_
 _symmetry_equiv_pos_site_id
 _symmetry_equiv_pos_as_xyz
  1  'x, y, z'
loop_
 _atom_site_type_symbol
 _atom_site_label
 _atom_site_symmetry_multiplicity
 _atom_site_fract_x
 _atom_site_fract_y
 _atom_site_fract_z
 _atom_site_occupancy
  Mn  Mn0  1  0.75000000  0.00000000  0.12153000  1.0
  Mn  Mn1  1  0.00000000  1.00000000  0.04051000  1.0
  Mn  Mn2  1  0.24869000  0.00224000  0.95733000  1.0
  Mn  Mn3  1  0.00000000  0.99469000  0.88137000  1.0
  Mn  Mn4  1  0.25000000  0.00000000  0.12153000  1.0
  Mn  Mn5  1  0.50000000  1.00000000  0.04051000  1.0
  Mn  Mn6  1  0.75131000  0.00224000  0.95733000  1.0
  Mn  Mn7  1  0.50000000  0.01197000  0.87743000  1.0
  Mn  Mn8  1  0.75000000  0.50000000  0.12153000  1.0
  Mn  Mn9  1  0.00000000  0.50000000  0.04051000  1.0
  Mn  Mn10  1  0.24876000  0.49792000  0.95736000  1.0
  Mn  Mn11  1  0.00000000  0.50484000  0.88119000  1.0
  Mn  Mn12  1  0.25000000  0.50000000  0.12153000  1.0
  Mn  Mn13  1  0.50000000  0.50000000  0.04051000  1.0
  Mn  Mn14  1  0.75124000  0.49792000  0.95736000  1.0
  Mn  Mn15  1  0.50000000  0.48787000  0.87744000  1.0
  Zn  Zn16  1  0.00000000  0.25000000  0.12153000  1.0
  Zn  Zn17  1  0.25000000  0.25000000  0.04051000  1.0
  Zn  Zn18  1  0.00000000  0.25026000  0.96141000  1.0
  Zn  Zn19  1  0.24595000  0.25012000  0.86941000  1.0
  Zn  Zn20  1  0.50000000  0.25000000  0.12153000  1.0
  Zn  Zn21  1  0.75000000  0.25000000  0.04051000  1.0
  Zn  Zn22  1  0.50000000  0.25013000  0.96117000  1.0
  Zn  Zn23  1  0.75405000  0.25012000  0.86941000  1.0
  Zn  Zn24  1  0.00000000  0.75000000  0.12153000  1.0
  Zn  Zn25  1  0.25000000  0.75000000  0.04051000  1.0
  Zn  Zn26  1  0.00000000  0.74969000  0.96209000  1.0
  Zn  Zn27  1  0.24798000  0.74979000  0.87494000  1.0
  Zn  Zn28  1  0.50000000  0.75000000  0.12153000  1.0
  Zn  Zn29  1  0.75000000  0.75000000  0.04051000  1.0
  Zn  Zn30  1  0.50000000  0.74993000  0.95864000  1.0
  Zn  Zn31  1  0.75202000  0.74979000  0.87494000  1.0
  C  C32  1  0.00000000  0.24934000  0.84608000  1.0
