# generated using pymatgen
data_Mn16Zn16C
_symmetry_space_group_name_H-M   Pm
_cell_length_a   6.05499000
_cell_length_b   8.56306000
_cell_length_c   26.42230000
_cell_angle_alpha   90.00000000
_cell_angle_beta   90.00000000
_cell_angle_gamma   90.00000000
_symmetry_Int_Tables_number   6
_chemical_formula_structural   Mn16Zn16C
_chemical_formula_sum   'Mn16 Zn16 C1'
_cell_volume   1369.97624458
_cell_formula_units_Z   1
loop_
 _symmetry_equiv_pos_site_id
 _symmetry_equiv_pos_as_xyz
  1  'x, y, z'
  2  'x, -y, z'
loop_
 _atom_site_type_symbol
 _atom_site_label
 _atom_site_symmetry_multiplicity
 _atom_site_fract_x
 _atom_site_fract_y
 _atom_site_fract_z
 _atom_site_occupancy
  Mn  Mn0  2  0.00000000  0.25000000  0.87847000  1.0
  Mn  Mn1  2  0.00224000  0.24869000  0.04267000  1.0
  Mn  Mn2  2  0.49792000  0.24876000  0.04264000  1.0
  Mn  Mn3  2  0.50000000  0.25000000  0.87847000  1.0
  Mn  Mn4  1  -0.00000000  0.50000000  0.95949000  1.0
  Mn  Mn5  1  -0.00000000  0.00000000  0.95949000  1.0
  Mn  Mn6  1  0.01197000  0.50000000  0.12257000  1.0
  Mn  Mn7  1  0.48787000  0.50000000  0.12256000  1.0
  Mn  Mn8  1  0.50000000  0.00000000  0.95949000  1.0
  Mn  Mn9  1  0.50000000  0.50000000  0.95949000  1.0
  Mn  Mn10  1  0.50484000  0.00000000  0.11881000  1.0
  Mn  Mn11  1  0.99469000  0.00000000  0.11863000  1.0
  Zn  Zn12  2  0.25000000  0.25000000  0.95949000  1.0
  Zn  Zn13  2  0.25012000  0.24595000  0.13059000  1.0
  Zn  Zn14  2  0.74979000  0.24798000  0.12506000  1.0
  Zn  Zn15  2  0.75000000  0.25000000  0.95949000  1.0
  Zn  Zn16  1  0.25000000  0.00000000  0.87847000  1.0
  Zn  Zn17  1  0.25000000  0.50000000  0.87847000  1.0
  Zn  Zn18  1  0.25013000  0.50000000  0.03883000  1.0
  Zn  Zn19  1  0.25026000  0.00000000  0.03859000  1.0
  Zn  Zn20  1  0.74969000  0.00000000  0.03791000  1.0
  Zn  Zn21  1  0.74993000  0.50000000  0.04136000  1.0
  Zn  Zn22  1  0.75000000  0.00000000  0.87847000  1.0
  Zn  Zn23  1  0.75000000  0.50000000  0.87847000  1.0
  C  C24  1  0.24934000  0.00000000  0.15392000  1.0
