data_image0
_chemical_formula_structural       Li8In8Ag8Pd8CO
_chemical_formula_sum              "Li8 In8 Ag8 Pd8 C1 O1"
_cell_length_a       6.52372
_cell_length_b       9.22594
_cell_length_c       26.9195
_cell_angle_alpha    90
_cell_angle_beta     90
_cell_angle_gamma    90

_space_group_name_H-M_alt    "P 1"
_space_group_IT_number       1

loop_
  _space_group_symop_operation_xyz
  'x, y, z'

loop_
  _atom_site_type_symbol
  _atom_site_label
  _atom_site_symmetry_multiplicity
  _atom_site_fract_x
  _atom_site_fract_y
  _atom_site_fract_z
  _atom_site_occupancy
  Li  Li1       1.0  0.25000  0.00000  0.95716  1.0000
  Li  Li2       1.0  0.25000  0.50000  0.95716  1.0000
  Li  Li3       1.0  0.75000  0.25000  0.87148  1.0000
  Li  Li4       1.0  0.75000  0.75000  0.87148  1.0000
  Li  Li5       1.0  0.24151  0.50029  0.12850  1.0000
  Li  Li6       1.0  0.24151  0.99971  0.12850  1.0000
  Li  Li7       1.0  0.75063  0.75000  0.04149  1.0000
  Li  Li8       1.0  0.74462  0.25000  0.04113  1.0000
  In  In1       1.0  0.75000  0.00000  0.95716  1.0000
  In  In2       1.0  0.75000  0.50000  0.95716  1.0000
  In  In3       1.0  0.25000  0.25000  0.87148  1.0000
  In  In4       1.0  0.25000  0.75000  0.87148  1.0000
  In  In5       1.0  0.76889  0.50362  0.13918  1.0000
  In  In6       1.0  0.76889  0.99638  0.13918  1.0000
  In  In7       1.0  0.25649  0.75000  0.04239  1.0000
  In  In8       1.0  0.25901  0.25000  0.04372  1.0000
  Ag  Ag1       1.0  0.00000  0.00000  0.87148  1.0000
  Ag  Ag2       1.0  0.00000  0.50000  0.87148  1.0000
  Ag  Ag3       1.0  0.50000  0.75000  0.95716  1.0000
  Ag  Ag4       1.0  0.50000  0.25000  0.95716  1.0000
  Ag  Ag5       1.0  0.99550  0.49888  0.04392  1.0000
  Ag  Ag6       1.0  0.99550  0.00112  0.04392  1.0000
  Ag  Ag7       1.0  0.51564  0.25000  0.13021  1.0000
  Ag  Ag8       1.0  0.51017  0.75000  0.12757  1.0000
  Pd  Pd1       1.0  0.00000  0.25000  0.95716  1.0000
  Pd  Pd2       1.0  0.00000  0.75000  0.95716  1.0000
  Pd  Pd3       1.0  0.50000  0.50000  0.87148  1.0000
  Pd  Pd4       1.0  0.50000  0.00000  0.87148  1.0000
  Pd  Pd5       1.0  0.99302  0.75000  0.12086  1.0000
  Pd  Pd6       1.0  0.97727  0.25000  0.11887  1.0000
  Pd  Pd7       1.0  0.50984  0.00090  0.04719  1.0000
  Pd  Pd8       1.0  0.50984  0.49910  0.04719  1.0000
  C   C1        1.0  0.44306  0.25000  0.21612  1.0000
  O   O1        1.0  0.49970  0.25000  0.25633  1.0000
