data_image0
_chemical_formula_structural       Y8Rh8CO
_chemical_formula_sum              "Y8 Rh8 C1 O1"
_cell_length_a       6.8816
_cell_length_b       6.8816
_cell_length_c       25.1612
_cell_angle_alpha    90
_cell_angle_beta     90
_cell_angle_gamma    90

_space_group_name_H-M_alt    "P 1"
_space_group_IT_number       1

loop_
  _space_group_symop_operation_xyz
  'x, y, z'

loop_
  _atom_site_type_symbol
  _atom_site_label
  _atom_site_symmetry_multiplicity
  _atom_site_fract_x
  _atom_site_fract_y
  _atom_site_fract_z
  _atom_site_occupancy
  Y   Y1        1.0  0.00000  0.00000  0.89993  1.0000
  Y   Y2        1.0  0.99786  0.99785  0.03944  1.0000
  Y   Y3        1.0  0.00000  0.50000  0.89993  1.0000
  Y   Y4        1.0  0.99786  0.50214  0.03943  1.0000
  Y   Y5        1.0  0.50000  0.00000  0.89993  1.0000
  Y   Y6        1.0  0.50215  0.99785  0.03944  1.0000
  Y   Y7        1.0  0.50000  0.50000  0.89993  1.0000
  Y   Y8        1.0  0.50214  0.50214  0.03944  1.0000
  Rh  Rh1       1.0  0.25000  0.25000  0.96831  1.0000
  Rh  Rh2       1.0  0.25001  0.24994  0.09400  1.0000
  Rh  Rh3       1.0  0.25000  0.75000  0.96831  1.0000
  Rh  Rh4       1.0  0.25002  0.75004  0.09157  1.0000
  Rh  Rh5       1.0  0.75000  0.25000  0.96831  1.0000
  Rh  Rh6       1.0  0.74999  0.24995  0.09158  1.0000
  Rh  Rh7       1.0  0.75000  0.75000  0.96831  1.0000
  Rh  Rh8       1.0  0.74998  0.75006  0.09284  1.0000
  C   C1        1.0  0.25000  0.25000  0.16889  1.0000
  O   O1        1.0  0.25000  0.25000  0.21476  1.0000
