# generated using pymatgen
data_Li8Y8In8Pd8CO
_symmetry_space_group_name_H-M   'P 1'
_cell_length_a   9.63982000
_cell_length_b   6.81638000
_cell_length_c   27.22990000
_cell_angle_alpha   90.00000000
_cell_angle_beta   90.00000000
_cell_angle_gamma   90.00000000
_symmetry_Int_Tables_number   1
_chemical_formula_structural   Li8Y8In8Pd8CO
_chemical_formula_sum   'Li8 Y8 In8 Pd8 C1 O1'
_cell_volume   1789.24068346
_cell_formula_units_Z   1
loop_
 _symmetry_equiv_pos_site_id
 _symmetry_equiv_pos_as_xyz
  1  'x, y, z'
loop_
 _atom_site_type_symbol
 _atom_site_label
 _atom_site_symmetry_multiplicity
 _atom_site_fract_x
 _atom_site_fract_y
 _atom_site_fract_z
 _atom_site_occupancy
  Li  Li0  1  0.00000000  0.75000000  0.04425000  1.0
  Li  Li1  1  0.50000000  0.75000000  0.04425000  1.0
  Li  Li2  1  0.24998000  0.25000000  0.13276000  1.0
  Li  Li3  1  0.75002000  0.25000000  0.13276000  1.0
  Li  Li4  1  0.50000000  0.52747000  0.81550000  1.0
  Li  Li5  1  0.00000000  0.61092000  0.82417000  1.0
  Li  Li6  1  0.74628000  0.24063000  0.95331000  1.0
  Li  Li7  1  0.25372000  0.24063000  0.95331000  1.0
  Y  Y8  1  0.24998000  0.00000000  0.04425000  1.0
  Y  Y9  1  0.75002000  0.00000000  0.04425000  1.0
  Y  Y10  1  0.50000000  0.50000000  0.13276000  1.0
  Y  Y11  1  0.00000000  0.50000000  0.13276000  1.0
  Y  Y12  1  0.75787000  0.95005000  0.86695000  1.0
  Y  Y13  1  0.24213000  0.95005000  0.86695000  1.0
  Y  Y14  1  0.00000000  0.50932000  0.95048000  1.0
  Y  Y15  1  0.50000000  0.51676000  0.94709000  1.0
  In  In16  1  0.00000000  0.00000000  0.13276000  1.0
  In  In17  1  0.50000000  0.00000000  0.13276000  1.0
  In  In18  1  0.74998000  0.50000000  0.04425000  1.0
  In  In19  1  0.25002000  0.50000000  0.04425000  1.0
  In  In20  1  0.50000000  0.99574000  0.95755000  1.0
  In  In21  1  0.00000000  0.99707000  0.95595000  1.0
  In  In22  1  0.24921000  0.46830000  0.86470000  1.0
  In  In23  1  0.75079000  0.46830000  0.86470000  1.0
  Pd  Pd24  1  0.00000000  0.25000000  0.04425000  1.0
  Pd  Pd25  1  0.50000000  0.25000000  0.04425000  1.0
  Pd  Pd26  1  0.24998000  0.75000000  0.13276000  1.0
  Pd  Pd27  1  0.75002000  0.75000000  0.13276000  1.0
  Pd  Pd28  1  0.50000000  0.22502000  0.87474000  1.0
  Pd  Pd29  1  0.00000000  0.23861000  0.87336000  1.0
  Pd  Pd30  1  0.75372000  0.75069000  0.95783000  1.0
  Pd  Pd31  1  0.24628000  0.75069000  0.95783000  1.0
  C  C32  1  0.00000000  0.90867000  0.80352000  1.0
  O  O33  1  0.00000000  0.01541000  0.76933000  1.0
