# generated using pymatgen
data_Li8Y8In8Pd8CO
_symmetry_space_group_name_H-M   Pm
_cell_length_a   6.81638000
_cell_length_b   9.63982000
_cell_length_c   27.22990000
_cell_angle_alpha   90.00000000
_cell_angle_beta   90.00000000
_cell_angle_gamma   90.00000000
_symmetry_Int_Tables_number   6
_chemical_formula_structural   Li8Y8In8Pd8CO
_chemical_formula_sum   'Li8 Y8 In8 Pd8 C1 O1'
_cell_volume   1789.24068346
_cell_formula_units_Z   1
loop_
 _symmetry_equiv_pos_site_id
 _symmetry_equiv_pos_as_xyz
  1  'x, y, z'
  2  'x, -y, z'
loop_
 _atom_site_type_symbol
 _atom_site_label
 _atom_site_symmetry_multiplicity
 _atom_site_fract_x
 _atom_site_fract_y
 _atom_site_fract_z
 _atom_site_occupancy
  Li  Li0  2  0.24063000  0.25372000  0.04669000  1.0
  Li  Li1  2  0.25000000  0.24998000  0.86724000  1.0
  Li  Li2  1  0.52747000  0.50000000  0.18450000  1.0
  Li  Li3  1  0.61092000  0.00000000  0.17583000  1.0
  Li  Li4  1  0.75000000  0.00000000  0.95575000  1.0
  Li  Li5  1  0.75000000  0.50000000  0.95575000  1.0
  Y  Y6  2  0.00000000  0.24998000  0.95575000  1.0
  Y  Y7  2  0.95005000  0.24213000  0.13305000  1.0
  Y  Y8  1  0.50000000  0.00000000  0.86724000  1.0
  Y  Y9  1  0.50000000  0.50000000  0.86724000  1.0
  Y  Y10  1  0.50932000  0.00000000  0.04952000  1.0
  Y  Y11  1  0.51676000  0.50000000  0.05291000  1.0
  In  In12  2  0.46830000  0.24921000  0.13530000  1.0
  In  In13  2  0.50000000  0.25002000  0.95575000  1.0
  In  In14  1  0.00000000  0.00000000  0.86724000  1.0
  In  In15  1  0.00000000  0.50000000  0.86724000  1.0
  In  In16  1  0.99574000  0.50000000  0.04245000  1.0
  In  In17  1  0.99707000  0.00000000  0.04405000  1.0
  Pd  Pd18  2  0.75000000  0.24998000  0.86724000  1.0
  Pd  Pd19  2  0.75069000  0.24628000  0.04217000  1.0
  Pd  Pd20  1  0.22502000  0.50000000  0.12526000  1.0
  Pd  Pd21  1  0.23861000  0.00000000  0.12664000  1.0
  Pd  Pd22  1  0.25000000  0.00000000  0.95575000  1.0
  Pd  Pd23  1  0.25000000  0.50000000  0.95575000  1.0
  C  C24  1  0.90867000  0.00000000  0.19648000  1.0
  O  O25  1  0.01541000  0.00000000  0.23067000  1.0
