# generated using pymatgen
data_In4Ni12C
_symmetry_space_group_name_H-M   Pm
_cell_length_a   7.54029000
_cell_length_b   5.33179000
_cell_length_c   23.99880000
_cell_angle_alpha   90.00000000
_cell_angle_beta   90.00000000
_cell_angle_gamma   90.00000000
_symmetry_Int_Tables_number   6
_chemical_formula_structural   In4Ni12C
_chemical_formula_sum   'In4 Ni12 C1'
_cell_volume   964.82958377
_cell_formula_units_Z   1
loop_
 _symmetry_equiv_pos_site_id
 _symmetry_equiv_pos_as_xyz
  1  'x, y, z'
  2  'x, -y, z'
loop_
 _atom_site_type_symbol
 _atom_site_label
 _atom_site_symmetry_multiplicity
 _atom_site_fract_x
 _atom_site_fract_y
 _atom_site_fract_z
 _atom_site_occupancy
  In  In0  1  0.00000000  0.00000000  0.91669000  1.0
  In  In1  1  0.50000000  0.00000000  0.91669000  1.0
  In  In2  1  0.50008000  0.50000000  0.04408000  1.0
  In  In3  1  0.99986000  0.50000000  0.02370000  1.0
  Ni  Ni4  2  0.20123000  0.22270000  0.08298000  1.0
  Ni  Ni5  2  0.25000000  0.25000000  0.97223000  1.0
  Ni  Ni6  2  0.75000000  0.25000000  0.97223000  1.0
  Ni  Ni7  2  0.79870000  0.22283000  0.08296000  1.0
  Ni  Ni8  1  0.00000000  0.50000000  0.91669000  1.0
  Ni  Ni9  1  0.50000000  0.50000000  0.91669000  1.0
  Ni  Ni10  1  0.50027000  0.00000000  0.03491000  1.0
  Ni  Ni11  1  0.99991000  0.00000000  0.02028000  1.0
  C  C12  1  0.00003000  0.00000000  0.09777000  1.0
