# generated using pymatgen
data_Sc4Ga4Ge4Pd4C
_symmetry_space_group_name_H-M   'P 1'
_cell_length_a   8.58414000
_cell_length_b   5.63062000
_cell_length_c   24.22090000
_cell_angle_alpha   90.00000000
_cell_angle_beta   90.00000000
_cell_angle_gamma   90.00000000
_symmetry_Int_Tables_number   1
_chemical_formula_structural   Sc4Ga4Ge4Pd4C
_chemical_formula_sum   'Sc4 Ga4 Ge4 Pd4 C1'
_cell_volume   1170.69371611
_cell_formula_units_Z   1
loop_
 _symmetry_equiv_pos_site_id
 _symmetry_equiv_pos_as_xyz
  1  'x, y, z'
loop_
 _atom_site_type_symbol
 _atom_site_label
 _atom_site_symmetry_multiplicity
 _atom_site_fract_x
 _atom_site_fract_y
 _atom_site_fract_z
 _atom_site_occupancy
  Sc  Sc0  1  0.25000000  0.74217000  0.02904000  1.0
  Sc  Sc1  1  0.20396000  0.24119000  0.90872000  1.0
  Sc  Sc2  1  0.75000000  0.74217000  0.02904000  1.0
  Sc  Sc3  1  0.79604000  0.24119000  0.90872000  1.0
  Ga  Ga4  1  0.00000000  0.00000000  0.08713000  1.0
  Ga  Ga5  1  0.00000000  0.49963000  0.97710000  1.0
  Ga  Ga6  1  0.50000000  1.00000000  0.08713000  1.0
  Ga  Ga7  1  0.50000000  0.45471000  0.96827000  1.0
  Ge  Ge8  1  0.25000000  0.24217000  0.02904000  1.0
  Ge  Ge9  1  0.17553000  0.74948000  0.89416000  1.0
  Ge  Ge10  1  0.75000000  0.24217000  0.02904000  1.0
  Ge  Ge11  1  0.82447000  0.74948000  0.89416000  1.0
  Pd  Pd12  1  0.00000000  0.50000000  0.08713000  1.0
  Pd  Pd13  1  0.00000000  0.98297000  0.97778000  1.0
  Pd  Pd14  1  0.50000000  0.50000000  0.08713000  1.0
  Pd  Pd15  1  0.50000000  0.96481000  0.96248000  1.0
  C  C16  1  0.00000000  0.00202000  0.88661000  1.0
