# generated using pymatgen
data_Sc4Ga4Ge4Pd4C
_symmetry_space_group_name_H-M   Pm
_cell_length_a   5.63062000
_cell_length_b   8.58414000
_cell_length_c   24.22090000
_cell_angle_alpha   90.00000000
_cell_angle_beta   90.00000000
_cell_angle_gamma   90.00000000
_symmetry_Int_Tables_number   6
_chemical_formula_structural   Sc4Ga4Ge4Pd4C
_chemical_formula_sum   'Sc4 Ga4 Ge4 Pd4 C1'
_cell_volume   1170.69371611
_cell_formula_units_Z   1
loop_
 _symmetry_equiv_pos_site_id
 _symmetry_equiv_pos_as_xyz
  1  'x, y, z'
  2  'x, -y, z'
loop_
 _atom_site_type_symbol
 _atom_site_label
 _atom_site_symmetry_multiplicity
 _atom_site_fract_x
 _atom_site_fract_y
 _atom_site_fract_z
 _atom_site_occupancy
  Sc  Sc0  2  0.24119000  0.20396000  0.09128000  1.0
  Sc  Sc1  2  0.74217000  0.25000000  0.97096000  1.0
  Ga  Ga2  1  -0.00000000  0.50000000  0.91287000  1.0
  Ga  Ga3  1  0.00000000  0.00000000  0.91287000  1.0
  Ga  Ga4  1  0.45471000  0.50000000  0.03173000  1.0
  Ga  Ga5  1  0.49963000  0.00000000  0.02290000  1.0
  Ge  Ge6  2  0.24217000  0.25000000  0.97096000  1.0
  Ge  Ge7  2  0.74948000  0.17553000  0.10584000  1.0
  Pd  Pd8  1  0.50000000  0.00000000  0.91287000  1.0
  Pd  Pd9  1  0.50000000  0.50000000  0.91287000  1.0
  Pd  Pd10  1  0.96481000  0.50000000  0.03752000  1.0
  Pd  Pd11  1  0.98297000  0.00000000  0.02222000  1.0
  C  C12  1  0.00202000  0.00000000  0.11339000  1.0
