# generated using pymatgen
data_Ti8Fe16Sn8CO
_symmetry_space_group_name_H-M   'P 1'
_cell_length_a   6.02174000
_cell_length_b   8.51603000
_cell_length_c   26.38700000
_cell_angle_alpha   90.00000000
_cell_angle_beta   90.00000000
_cell_angle_gamma   90.00000000
_symmetry_Int_Tables_number   1
_chemical_formula_structural   Ti8Fe16Sn8CO
_chemical_formula_sum   'Ti8 Fe16 Sn8 C1 O1'
_cell_volume   1353.16015105
_cell_formula_units_Z   1
loop_
 _symmetry_equiv_pos_site_id
 _symmetry_equiv_pos_as_xyz
  1  'x, y, z'
loop_
 _atom_site_type_symbol
 _atom_site_label
 _atom_site_symmetry_multiplicity
 _atom_site_fract_x
 _atom_site_fract_y
 _atom_site_fract_z
 _atom_site_occupancy
  Ti  Ti0  1  0.00000000  0.75000000  0.87897000  1.0
  Ti  Ti1  1  0.50000000  0.00000000  0.95966000  1.0
  Ti  Ti2  1  0.50000000  0.50000000  0.95966000  1.0
  Ti  Ti3  1  0.00000000  0.25000000  0.87897000  1.0
  Ti  Ti4  1  0.00000000  0.25055000  0.04290000  1.0
  Ti  Ti5  1  0.50000000  0.50000000  0.12121000  1.0
  Ti  Ti6  1  0.50000000  0.00000000  0.12180000  1.0
  Ti  Ti7  1  0.00000000  0.74945000  0.04290000  1.0
  Fe  Fe8  1  0.25000000  0.75000000  0.95966000  1.0
  Fe  Fe9  1  0.75000000  0.25000000  0.95966000  1.0
  Fe  Fe10  1  0.75000000  0.75000000  0.95966000  1.0
  Fe  Fe11  1  0.25000000  0.25000000  0.95966000  1.0
  Fe  Fe12  1  0.75000000  0.50000000  0.87897000  1.0
  Fe  Fe13  1  0.25000000  0.00000000  0.87897000  1.0
  Fe  Fe14  1  0.25000000  0.50000000  0.87897000  1.0
  Fe  Fe15  1  0.75000000  0.00000000  0.87897000  1.0
  Fe  Fe16  1  0.25664000  0.25227000  0.12337000  1.0
  Fe  Fe17  1  0.74336000  0.74773000  0.12337000  1.0
  Fe  Fe18  1  0.74336000  0.25227000  0.12337000  1.0
  Fe  Fe19  1  0.25664000  0.74773000  0.12337000  1.0
  Fe  Fe20  1  0.75645000  0.00000000  0.04264000  1.0
  Fe  Fe21  1  0.24497000  0.50000000  0.04422000  1.0
  Fe  Fe22  1  0.24355000  0.00000000  0.04264000  1.0
  Fe  Fe23  1  0.75503000  0.50000000  0.04422000  1.0
  Sn  Sn24  1  0.00000000  0.50000000  0.95966000  1.0
  Sn  Sn25  1  0.50000000  0.75000000  0.87897000  1.0
  Sn  Sn26  1  0.00000000  0.00000000  0.95966000  1.0
  Sn  Sn27  1  0.50000000  0.25000000  0.87897000  1.0
  Sn  Sn28  1  0.00000000  0.00000000  0.13083000  1.0
  Sn  Sn29  1  0.50000000  0.24921000  0.04052000  1.0
  Sn  Sn30  1  0.00000000  0.50000000  0.13442000  1.0
  Sn  Sn31  1  0.50000000  0.75079000  0.04052000  1.0
  C  C32  1  0.50000000  0.00000000  0.20252000  1.0
  O  O33  1  0.50000000  0.00000000  0.24628000  1.0
