# generated using pymatgen
data_AlCo
_symmetry_space_group_name_H-M   'P 1'
_cell_length_a   2.85099500
_cell_length_b   2.85099500
_cell_length_c   24.27650000
_cell_angle_alpha   90.00000000
_cell_angle_beta   90.00000000
_cell_angle_gamma   90.00000000
_symmetry_Int_Tables_number   1
_chemical_formula_structural   AlCo
_chemical_formula_sum   'Al2 Co2'
_cell_volume   197.32357945
_cell_formula_units_Z   2
loop_
 _symmetry_equiv_pos_site_id
 _symmetry_equiv_pos_as_xyz
  1  'x, y, z'
loop_
 _atom_site_type_symbol
 _atom_site_label
 _atom_site_symmetry_multiplicity
 _atom_site_fract_x
 _atom_site_fract_y
 _atom_site_fract_z
 _atom_site_occupancy
  Al  Al0  1  0.00000000  0.00000000  0.09900000  1.0
  Al  Al1  1  0.00000000  0.00000000  0.98156000  1.0
  Co  Co2  1  0.50000000  0.50000000  0.04028000  1.0
  Co  Co3  1  0.50000000  0.50000000  0.92284000  1.0
