# generated using pymatgen
data_Y4Sn12C
_symmetry_space_group_name_H-M   Pm
_cell_length_a   6.71861000
_cell_length_b   9.50155000
_cell_length_c   25.03900000
_cell_angle_alpha   90.00000000
_cell_angle_beta   90.00000000
_cell_angle_gamma   90.00000000
_symmetry_Int_Tables_number   6
_chemical_formula_structural   Y4Sn12C
_chemical_formula_sum   'Y4 Sn12 C1'
_cell_volume   1598.41987228
_cell_formula_units_Z   1
loop_
 _symmetry_equiv_pos_site_id
 _symmetry_equiv_pos_as_xyz
  1  'x, y, z'
  2  'x, -y, z'
loop_
 _atom_site_type_symbol
 _atom_site_label
 _atom_site_symmetry_multiplicity
 _atom_site_fract_x
 _atom_site_fract_y
 _atom_site_fract_z
 _atom_site_occupancy
  Y  Y0  2  0.50000000  0.25000000  0.03354000  1.0
  Y  Y1  2  0.98626000  0.25733000  0.90859000  1.0
  Sn  Sn2  2  0.00000000  0.25000000  0.03354000  1.0
  Sn  Sn3  2  0.48960000  0.22630000  0.89331000  1.0
  Sn  Sn4  1  0.25000000  0.00000000  0.10062000  1.0
  Sn  Sn5  1  0.25000000  0.50000000  0.10062000  1.0
  Sn  Sn6  1  0.25257000  0.50000000  0.96760000  1.0
  Sn  Sn7  1  0.25960000  0.00000000  0.96279000  1.0
  Sn  Sn8  1  0.72290000  0.50000000  0.96826000  1.0
  Sn  Sn9  1  0.72581000  0.00000000  0.96273000  1.0
  Sn  Sn10  1  0.75000000  0.00000000  0.10062000  1.0
  Sn  Sn11  1  0.75000000  0.50000000  0.10062000  1.0
  C  C12  1  0.98533000  0.50000000  0.91379000  1.0
