data_image0
_chemical_formula_structural       Li8Al8Pd8Pt8CO
_chemical_formula_sum              "Li8 Al8 Pd8 Pt8 C1 O1"
_cell_length_a       6.06122
_cell_length_b       8.57186
_cell_length_c       26.4289
_cell_angle_alpha    90
_cell_angle_beta     90
_cell_angle_gamma    90

_space_group_name_H-M_alt    "P 1"
_space_group_IT_number       1

loop_
  _space_group_symop_operation_xyz
  'x, y, z'

loop_
  _atom_site_type_symbol
  _atom_site_label
  _atom_site_symmetry_multiplicity
  _atom_site_fract_x
  _atom_site_fract_y
  _atom_site_fract_z
  _atom_site_occupancy
  Li  Li1       1.0  0.00000  0.25000  0.95946  1.0000
  Li  Li2       1.0  0.00000  0.75000  0.95946  1.0000
  Li  Li3       1.0  0.50000  0.50000  0.87837  1.0000
  Li  Li4       1.0  0.50000  0.00000  0.87837  1.0000
  Li  Li5       1.0  0.00176  0.75000  0.13881  1.0000
  Li  Li6       1.0  0.00446  0.25000  0.14293  1.0000
  Li  Li7       1.0  0.49942  0.00015  0.03986  1.0000
  Li  Li8       1.0  0.49942  0.49984  0.03986  1.0000
  Al  Al1       1.0  0.00000  0.00000  0.87837  1.0000
  Al  Al2       1.0  0.00000  0.50000  0.87837  1.0000
  Al  Al3       1.0  0.50000  0.75000  0.95946  1.0000
  Al  Al4       1.0  0.50000  0.25000  0.95946  1.0000
  Al  Al5       1.0  0.99893  0.50013  0.04156  1.0000
  Al  Al6       1.0  0.99893  0.99987  0.04156  1.0000
  Al  Al7       1.0  0.49171  0.25000  0.11975  1.0000
  Al  Al8       1.0  0.49189  0.75000  0.12045  1.0000
  Pd  Pd1       1.0  0.75000  0.00000  0.95946  1.0000
  Pd  Pd2       1.0  0.75000  0.50000  0.95946  1.0000
  Pd  Pd3       1.0  0.25000  0.25000  0.87837  1.0000
  Pd  Pd4       1.0  0.25000  0.75000  0.87837  1.0000
  Pd  Pd5       1.0  0.74053  0.50063  0.11942  1.0000
  Pd  Pd6       1.0  0.74053  0.99937  0.11942  1.0000
  Pd  Pd7       1.0  0.24395  0.75000  0.03931  1.0000
  Pd  Pd8       1.0  0.24294  0.25000  0.03950  1.0000
  Pt  Pt1       1.0  0.25000  0.00000  0.95946  1.0000
  Pt  Pt2       1.0  0.25000  0.50000  0.95946  1.0000
  Pt  Pt3       1.0  0.75000  0.25000  0.87837  1.0000
  Pt  Pt4       1.0  0.75000  0.75000  0.87837  1.0000
  Pt  Pt5       1.0  0.25810  0.50068  0.11804  1.0000
  Pt  Pt6       1.0  0.25810  0.99932  0.11804  1.0000
  Pt  Pt7       1.0  0.75209  0.75000  0.04126  1.0000
  Pt  Pt8       1.0  0.75252  0.25000  0.04147  1.0000
  C   C1        1.0  0.99529  0.25000  0.22393  1.0000
  O   O1        1.0  0.99570  0.25000  0.26696  1.0000
