data_image0
_chemical_formula_structural       In16Ni16C
_chemical_formula_sum              "In16 Ni16 C1"
_cell_length_a       6.37073
_cell_length_b       9.00957
_cell_length_c       26.7572
_cell_angle_alpha    90
_cell_angle_beta     90
_cell_angle_gamma    90

_space_group_name_H-M_alt    "P 1"
_space_group_IT_number       1

loop_
  _space_group_symop_operation_xyz
  'x, y, z'

loop_
  _atom_site_type_symbol
  _atom_site_label
  _atom_site_symmetry_multiplicity
  _atom_site_fract_x
  _atom_site_fract_y
  _atom_site_fract_z
  _atom_site_occupancy
  In  In1       1.0  0.00000  0.00000  0.87373  1.0000
  In  In2       1.0  0.00000  0.25000  0.95791  1.0000
  In  In3       1.0  1.00000  1.00000  0.04418  1.0000
  In  In4       1.0  0.99999  0.26351  0.13644  1.0000
  In  In5       1.0  0.00000  0.50000  0.87373  1.0000
  In  In6       1.0  0.00000  0.75000  0.95791  1.0000
  In  In7       1.0  0.00000  0.50002  0.04044  1.0000
  In  In8       1.0  0.00000  0.73651  0.13645  1.0000
  In  In9       1.0  0.50000  0.00000  0.87373  1.0000
  In  In10      1.0  0.50000  0.25000  0.95791  1.0000
  In  In11      1.0  0.50003  0.99999  0.04184  1.0000
  In  In12      1.0  0.49999  0.25805  0.13532  1.0000
  In  In13      1.0  0.50000  0.50000  0.87373  1.0000
  In  In14      1.0  0.50000  0.75000  0.95791  1.0000
  In  In15      1.0  0.50001  0.50002  0.04071  1.0000
  In  In16      1.0  0.49999  0.74196  0.13533  1.0000
  Ni  Ni1       1.0  0.25000  0.25000  0.87373  1.0000
  Ni  Ni2       1.0  0.25000  0.00000  0.95791  1.0000
  Ni  Ni3       1.0  0.24912  0.25216  0.04248  1.0000
  Ni  Ni4       1.0  0.28079  0.99991  0.12704  1.0000
  Ni  Ni5       1.0  0.25000  0.75000  0.87373  1.0000
  Ni  Ni6       1.0  0.25000  0.50000  0.95791  1.0000
  Ni  Ni7       1.0  0.24915  0.74785  0.04249  1.0000
  Ni  Ni8       1.0  0.25186  0.50001  0.11981  1.0000
  Ni  Ni9       1.0  0.75000  0.25000  0.87373  1.0000
  Ni  Ni10      1.0  0.75000  0.00000  0.95791  1.0000
  Ni  Ni11      1.0  0.75095  0.25219  0.04249  1.0000
  Ni  Ni12      1.0  0.71922  0.00003  0.12703  1.0000
  Ni  Ni13      1.0  0.75000  0.75000  0.87373  1.0000
  Ni  Ni14      1.0  0.75000  0.50000  0.95791  1.0000
  Ni  Ni15      1.0  0.75074  0.74774  0.04252  1.0000
  Ni  Ni16      1.0  0.74823  0.50000  0.11981  1.0000
  C   C1        1.0  0.99997  0.00002  0.13798  1.0000
