# generated using pymatgen
data_In16Ni16C
_symmetry_space_group_name_H-M   P1
_cell_length_a   6.37073000
_cell_length_b   9.00957000
_cell_length_c   26.75720000
_cell_angle_alpha   90.00000000
_cell_angle_beta   90.00000000
_cell_angle_gamma   90.00000000
_symmetry_Int_Tables_number   1
_chemical_formula_structural   In16Ni16C
_chemical_formula_sum   'In16 Ni16 C1'
_cell_volume   1535.79740073
_cell_formula_units_Z   1
loop_
 _symmetry_equiv_pos_site_id
 _symmetry_equiv_pos_as_xyz
  1  'x, y, z'
loop_
 _atom_site_type_symbol
 _atom_site_label
 _atom_site_symmetry_multiplicity
 _atom_site_fract_x
 _atom_site_fract_y
 _atom_site_fract_z
 _atom_site_occupancy
  In  In0  1  -0.00000000  0.25000000  0.95791000  1.0
  In  In1  1  -0.00000000  0.75000000  0.95791000  1.0
  In  In2  1  -0.00000000  0.73651000  0.13645000  1.0
  In  In3  1  -0.00000000  0.50002000  0.04044000  1.0
  In  In4  1  0.00000000  0.00000000  0.04418000  1.0
  In  In5  1  0.00000000  0.00000000  0.87373000  1.0
  In  In6  1  0.00000000  0.50000000  0.87373000  1.0
  In  In7  1  0.49999000  0.25805000  0.13532000  1.0
  In  In8  1  0.49999000  0.74196000  0.13533000  1.0
  In  In9  1  0.50000000  0.00000000  0.87373000  1.0
  In  In10  1  0.50000000  0.25000000  0.95791000  1.0
  In  In11  1  0.50000000  0.50000000  0.87373000  1.0
  In  In12  1  0.50000000  0.75000000  0.95791000  1.0
  In  In13  1  0.50001000  0.50002000  0.04071000  1.0
  In  In14  1  0.50003000  0.99999000  0.04184000  1.0
  In  In15  1  0.99999000  0.26351000  0.13644000  1.0
  Ni  Ni16  1  0.24912000  0.25216000  0.04248000  1.0
  Ni  Ni17  1  0.24915000  0.74785000  0.04249000  1.0
  Ni  Ni18  1  0.25000000  0.00000000  0.95791000  1.0
  Ni  Ni19  1  0.25000000  0.25000000  0.87373000  1.0
  Ni  Ni20  1  0.25000000  0.50000000  0.95791000  1.0
  Ni  Ni21  1  0.25000000  0.75000000  0.87373000  1.0
  Ni  Ni22  1  0.25186000  0.50001000  0.11981000  1.0
  Ni  Ni23  1  0.28079000  0.99991000  0.12704000  1.0
  Ni  Ni24  1  0.71922000  0.00003000  0.12703000  1.0
  Ni  Ni25  1  0.74823000  0.50000000  0.11981000  1.0
  Ni  Ni26  1  0.75000000  0.00000000  0.95791000  1.0
  Ni  Ni27  1  0.75000000  0.25000000  0.87373000  1.0
  Ni  Ni28  1  0.75000000  0.50000000  0.95791000  1.0
  Ni  Ni29  1  0.75000000  0.75000000  0.87373000  1.0
  Ni  Ni30  1  0.75074000  0.74774000  0.04252000  1.0
  Ni  Ni31  1  0.75095000  0.25219000  0.04249000  1.0
  C  C32  1  0.99997000  0.00002000  0.13798000  1.0
