# generated using pymatgen
data_In16Sb16C
_symmetry_space_group_name_H-M   'P 1'
_cell_length_a   7.67805000
_cell_length_b   10.85840000
_cell_length_c   28.14380000
_cell_angle_alpha   90.00000000
_cell_angle_beta   90.00000000
_cell_angle_gamma   90.00000000
_symmetry_Int_Tables_number   1
_chemical_formula_structural   In16Sb16C
_chemical_formula_sum   'In16 Sb16 C1'
_cell_volume   2346.38626578
_cell_formula_units_Z   1
loop_
 _symmetry_equiv_pos_site_id
 _symmetry_equiv_pos_as_xyz
  1  'x, y, z'
loop_
 _atom_site_type_symbol
 _atom_site_label
 _atom_site_symmetry_multiplicity
 _atom_site_fract_x
 _atom_site_fract_y
 _atom_site_fract_z
 _atom_site_occupancy
  In  In0  1  0.00000000  0.00000000  0.85532000  1.0
  In  In1  1  0.00000000  0.25000000  0.95177000  1.0
  In  In2  1  0.00002000  0.04268000  0.06952000  1.0
  In  In3  1  0.99963000  0.31451000  0.15381000  1.0
  In  In4  1  0.00000000  0.50000000  0.85532000  1.0
  In  In5  1  0.00000000  0.75000000  0.95177000  1.0
  In  In6  1  0.99995000  0.47723000  0.04692000  1.0
  In  In7  1  0.00014000  0.75470000  0.12605000  1.0
  In  In8  1  0.50000000  0.00000000  0.85532000  1.0
  In  In9  1  0.50000000  0.25000000  0.95177000  1.0
  In  In10  1  0.50002000  0.00647000  0.09499000  1.0
  In  In11  1  0.49952000  0.29213000  0.16288000  1.0
  In  In12  1  0.50000000  0.50000000  0.85532000  1.0
  In  In13  1  0.50000000  0.75000000  0.95177000  1.0
  In  In14  1  0.49996000  0.53448000  0.05065000  1.0
  In  In15  1  0.50006000  0.78795000  0.18029000  1.0
  Sb  Sb16  1  0.25000000  0.25000000  0.85532000  1.0
  Sb  Sb17  1  0.25000000  0.00000000  0.95177000  1.0
  Sb  Sb18  1  0.29221000  0.23850000  0.05489000  1.0
  Sb  Sb19  1  0.23947000  0.01451000  0.17941000  1.0
  Sb  Sb20  1  0.25000000  0.75000000  0.85532000  1.0
  Sb  Sb21  1  0.25000000  0.50000000  0.95177000  1.0
  Sb  Sb22  1  0.25822000  0.82765000  0.03360000  1.0
  Sb  Sb23  1  0.27167000  0.56770000  0.14256000  1.0
  Sb  Sb24  1  0.75000000  0.25000000  0.85532000  1.0
  Sb  Sb25  1  0.75000000  0.00000000  0.95177000  1.0
  Sb  Sb26  1  0.70752000  0.23834000  0.05487000  1.0
  Sb  Sb27  1  0.76070000  0.01450000  0.17939000  1.0
  Sb  Sb28  1  0.75000000  0.75000000  0.85532000  1.0
  Sb  Sb29  1  0.75000000  0.50000000  0.95177000  1.0
  Sb  Sb30  1  0.74192000  0.82761000  0.03358000  1.0
  Sb  Sb31  1  0.72852000  0.56762000  0.14251000  1.0
  C  C32  1  0.00004000  0.95618000  0.14637000  1.0
