# generated using pymatgen
data_YInSnPd
_symmetry_space_group_name_H-M   'P 1'
_cell_length_a   6.32964000
_cell_length_b   4.53197000
_cell_length_c   24.74170000
_cell_angle_alpha   90.00000000
_cell_angle_beta   90.00000000
_cell_angle_gamma   90.00000000
_symmetry_Int_Tables_number   1
_chemical_formula_structural   YInSnPd
_chemical_formula_sum   'Y2 In2 Sn2 Pd2'
_cell_volume   709.73393849
_cell_formula_units_Z   2
loop_
 _symmetry_equiv_pos_site_id
 _symmetry_equiv_pos_as_xyz
  1  'x, y, z'
loop_
 _atom_site_type_symbol
 _atom_site_label
 _atom_site_symmetry_multiplicity
 _atom_site_fract_x
 _atom_site_fract_y
 _atom_site_fract_z
 _atom_site_occupancy
  Y  Y0  1  0.26363500  0.50000000  0.02705000  1.0
  Y  Y1  1  0.78604000  0.50000000  0.90418000  1.0
  In  In2  1  0.98613500  0.00000000  0.09433000  1.0
  In  In3  1  0.52403000  0.00000000  0.96806000  1.0
  Sn  Sn4  1  0.52507000  0.00000000  0.09164000  1.0
  Sn  Sn5  1  0.02403000  0.00000000  0.96806000  1.0
  Pd  Pd6  1  0.76293000  0.50000000  0.02957000  1.0
  Pd  Pd7  1  0.28604000  0.50000000  0.90418000  1.0
