# generated using pymatgen
data_Y8In8Sn8Pd8C
_symmetry_space_group_name_H-M   Pmm2
_cell_length_a   9.06394000
_cell_length_b   9.16402000
_cell_length_c   26.55030000
_cell_angle_alpha   90.00000000
_cell_angle_beta   90.00000000
_cell_angle_gamma   90.00000000
_symmetry_Int_Tables_number   25
_chemical_formula_structural   Y8In8Sn8Pd8C
_chemical_formula_sum   'Y8 In8 Sn8 Pd8 C1'
_cell_volume   2205.32440214
_cell_formula_units_Z   1
loop_
 _symmetry_equiv_pos_site_id
 _symmetry_equiv_pos_as_xyz
  1  'x, y, z'
  2  '-x, -y, z'
  3  '-x, y, z'
  4  'x, -y, z'
loop_
 _atom_site_type_symbol
 _atom_site_label
 _atom_site_symmetry_multiplicity
 _atom_site_fract_x
 _atom_site_fract_y
 _atom_site_fract_z
 _atom_site_occupancy
  Y  Y0  1  0.00000000  0.00000000  0.04052000  1.0
  Y  Y1  1  0.00000000  0.00000000  0.87664000  1.0
  Y  Y2  1  0.00000000  0.50000000  0.03865000  1.0
  Y  Y3  1  0.00000000  0.50000000  0.87664000  1.0
  Y  Y4  1  0.50000000  0.00000000  0.04943000  1.0
  Y  Y5  1  0.50000000  0.00000000  0.87664000  1.0
  Y  Y6  1  0.50000000  0.50000000  0.04204000  1.0
  Y  Y7  1  0.50000000  0.50000000  0.87664000  1.0
  In  In8  4  0.25000000  0.25000000  0.87664000  1.0
  In  In9  4  0.25064000  0.24928000  0.04698000  1.0
  Sn  Sn10  2  0.22564000  0.50000000  0.13206000  1.0
  Sn  Sn11  2  0.23591000  0.00000000  0.14152000  1.0
  Sn  Sn12  2  0.25000000  0.00000000  0.95888000  1.0
  Sn  Sn13  2  0.25000000  0.50000000  0.95888000  1.0
  Pd  Pd14  2  0.00000000  0.25000000  0.95888000  1.0
  Pd  Pd15  2  0.00000000  0.25427000  0.11584000  1.0
  Pd  Pd16  2  0.50000000  0.25000000  0.95888000  1.0
  Pd  Pd17  2  0.50000000  0.27436000  0.11338000  1.0
  C  C18  1  0.00000000  0.00000000  0.12936000  1.0
