data_image0
_chemical_formula_structural       Mn16Rh16C
_chemical_formula_sum              "Mn16 Rh16 C1"
_cell_length_a       6.11529
_cell_length_b       8.64833
_cell_length_c       26.4862
_cell_angle_alpha    90
_cell_angle_beta     90
_cell_angle_gamma    90

_space_group_name_H-M_alt    "P 1"
_space_group_IT_number       1

loop_
  _space_group_symop_operation_xyz
  'x, y, z'

loop_
  _atom_site_type_symbol
  _atom_site_label
  _atom_site_symmetry_multiplicity
  _atom_site_fract_x
  _atom_site_fract_y
  _atom_site_fract_z
  _atom_site_occupancy
  Mn  Mn1       1.0  0.00000  0.00000  0.87755  1.0000
  Mn  Mn2       1.0  0.00000  0.25000  0.95918  1.0000
  Mn  Mn3       1.0  0.00000  1.00000  0.04132  1.0000
  Mn  Mn4       1.0  1.00000  0.24790  0.12710  1.0000
  Mn  Mn5       1.0  0.00000  0.50000  0.87755  1.0000
  Mn  Mn6       1.0  0.00000  0.75000  0.95918  1.0000
  Mn  Mn7       1.0  1.00000  0.50000  0.04000  1.0000
  Mn  Mn8       1.0  1.00000  0.75210  0.12710  1.0000
  Mn  Mn9       1.0  0.50000  0.00000  0.87755  1.0000
  Mn  Mn10      1.0  0.50000  0.25000  0.95918  1.0000
  Mn  Mn11      1.0  0.50000  1.00000  0.03770  1.0000
  Mn  Mn12      1.0  0.50000  0.25822  0.12549  1.0000
  Mn  Mn13      1.0  0.50000  0.50000  0.87755  1.0000
  Mn  Mn14      1.0  0.50000  0.75000  0.95918  1.0000
  Mn  Mn15      1.0  0.50000  0.50000  0.04092  1.0000
  Mn  Mn16      1.0  0.50000  0.74178  0.12549  1.0000
  Rh  Rh1       1.0  0.25000  0.25000  0.87755  1.0000
  Rh  Rh2       1.0  0.25000  0.00000  0.95918  1.0000
  Rh  Rh3       1.0  0.25080  0.24814  0.04180  1.0000
  Rh  Rh4       1.0  0.26880  0.00000  0.12137  1.0000
  Rh  Rh5       1.0  0.25000  0.75000  0.87755  1.0000
  Rh  Rh6       1.0  0.25000  0.50000  0.95918  1.0000
  Rh  Rh7       1.0  0.25080  0.75186  0.04180  1.0000
  Rh  Rh8       1.0  0.24360  0.50000  0.11825  1.0000
  Rh  Rh9       1.0  0.75000  0.25000  0.87755  1.0000
  Rh  Rh10      1.0  0.75000  0.00000  0.95918  1.0000
  Rh  Rh11      1.0  0.74920  0.24814  0.04180  1.0000
  Rh  Rh12      1.0  0.73120  0.00000  0.12137  1.0000
  Rh  Rh13      1.0  0.75000  0.75000  0.87755  1.0000
  Rh  Rh14      1.0  0.75000  0.50000  0.95918  1.0000
  Rh  Rh15      1.0  0.74920  0.75186  0.04180  1.0000
  Rh  Rh16      1.0  0.75640  0.50000  0.11825  1.0000
  C   C1        1.0  0.00000  0.00000  0.15374  1.0000
