# generated using pymatgen
data_Mn16Rh16C
_symmetry_space_group_name_H-M   'P 1'
_cell_length_a   6.11529000
_cell_length_b   8.64833000
_cell_length_c   26.48620000
_cell_angle_alpha   90.00000000
_cell_angle_beta   90.00000000
_cell_angle_gamma   90.00000000
_symmetry_Int_Tables_number   1
_chemical_formula_structural   Mn16Rh16C
_chemical_formula_sum   'Mn16 Rh16 C1'
_cell_volume   1400.77687686
_cell_formula_units_Z   1
loop_
 _symmetry_equiv_pos_site_id
 _symmetry_equiv_pos_as_xyz
  1  'x, y, z'
loop_
 _atom_site_type_symbol
 _atom_site_label
 _atom_site_symmetry_multiplicity
 _atom_site_fract_x
 _atom_site_fract_y
 _atom_site_fract_z
 _atom_site_occupancy
  Mn  Mn0  1  0.00000000  0.00000000  0.87755000  1.0
  Mn  Mn1  1  0.00000000  0.25000000  0.95918000  1.0
  Mn  Mn2  1  0.00000000  0.00000000  0.04132000  1.0
  Mn  Mn3  1  0.00000000  0.24790000  0.12710000  1.0
  Mn  Mn4  1  0.00000000  0.50000000  0.87755000  1.0
  Mn  Mn5  1  0.00000000  0.75000000  0.95918000  1.0
  Mn  Mn6  1  0.00000000  0.50000000  0.04000000  1.0
  Mn  Mn7  1  0.00000000  0.75210000  0.12710000  1.0
  Mn  Mn8  1  0.50000000  0.00000000  0.87755000  1.0
  Mn  Mn9  1  0.50000000  0.25000000  0.95918000  1.0
  Mn  Mn10  1  0.50000000  0.00000000  0.03770000  1.0
  Mn  Mn11  1  0.50000000  0.25822000  0.12549000  1.0
  Mn  Mn12  1  0.50000000  0.50000000  0.87755000  1.0
  Mn  Mn13  1  0.50000000  0.75000000  0.95918000  1.0
  Mn  Mn14  1  0.50000000  0.50000000  0.04092000  1.0
  Mn  Mn15  1  0.50000000  0.74178000  0.12549000  1.0
  Rh  Rh16  1  0.25000000  0.25000000  0.87755000  1.0
  Rh  Rh17  1  0.25000000  0.00000000  0.95918000  1.0
  Rh  Rh18  1  0.25080000  0.24814000  0.04180000  1.0
  Rh  Rh19  1  0.26880000  0.00000000  0.12137000  1.0
  Rh  Rh20  1  0.25000000  0.75000000  0.87755000  1.0
  Rh  Rh21  1  0.25000000  0.50000000  0.95918000  1.0
  Rh  Rh22  1  0.25080000  0.75186000  0.04180000  1.0
  Rh  Rh23  1  0.24360000  0.50000000  0.11825000  1.0
  Rh  Rh24  1  0.75000000  0.25000000  0.87755000  1.0
  Rh  Rh25  1  0.75000000  0.00000000  0.95918000  1.0
  Rh  Rh26  1  0.74920000  0.24814000  0.04180000  1.0
  Rh  Rh27  1  0.73120000  0.00000000  0.12137000  1.0
  Rh  Rh28  1  0.75000000  0.75000000  0.87755000  1.0
  Rh  Rh29  1  0.75000000  0.50000000  0.95918000  1.0
  Rh  Rh30  1  0.74920000  0.75186000  0.04180000  1.0
  Rh  Rh31  1  0.75640000  0.50000000  0.11825000  1.0
  C  C32  1  0.00000000  0.00000000  0.15374000  1.0
