# generated using pymatgen
data_Li4Sc4Ga4Ge4CO
_symmetry_space_group_name_H-M   Pm
_cell_length_a   5.77599000
_cell_length_b   8.07712000
_cell_length_c   24.32640000
_cell_angle_alpha   90.00000000
_cell_angle_beta   90.00000000
_cell_angle_gamma   90.00000000
_symmetry_Int_Tables_number   6
_chemical_formula_structural   Li4Sc4Ga4Ge4CO
_chemical_formula_sum   'Li4 Sc4 Ga4 Ge4 C1 O1'
_cell_volume   1134.90840249
_cell_formula_units_Z   1
loop_
 _symmetry_equiv_pos_site_id
 _symmetry_equiv_pos_as_xyz
  1  'x, y, z'
  2  'x, -y, z'
loop_
 _atom_site_type_symbol
 _atom_site_label
 _atom_site_symmetry_multiplicity
 _atom_site_fract_x
 _atom_site_fract_y
 _atom_site_fract_z
 _atom_site_occupancy
  Li  Li0  2  0.30446000  0.25071000  0.02794000  1.0
  Li  Li1  2  0.71193000  0.24998000  0.91108000  1.0
  Sc  Sc2  1  0.60047000  0.00000000  0.09443000  1.0
  Sc  Sc3  1  0.61184000  0.50000000  0.09973000  1.0
  Sc  Sc4  1  0.97462000  0.00000000  0.97036000  1.0
  Sc  Sc5  1  0.97462000  0.50000000  0.97036000  1.0
  Ga  Ga6  1  0.09849000  0.00000000  0.09730000  1.0
  Ga  Ga7  1  0.10318000  0.50000000  0.09634000  1.0
  Ga  Ga8  1  0.47462000  0.00000000  0.97036000  1.0
  Ga  Ga9  1  0.47462000  0.50000000  0.97036000  1.0
  Ge  Ge10  2  0.21193000  0.24998000  0.91108000  1.0
  Ge  Ge11  2  0.83203000  0.24936000  0.04681000  1.0
  C  C12  1  0.79559000  0.50000000  0.18277000  1.0
  O  O13  1  0.87973000  0.50000000  0.22606000  1.0
