# generated using pymatgen
data_TiAu
_symmetry_space_group_name_H-M   'P 1'
_cell_length_a   9.30182000
_cell_length_b   6.57738000
_cell_length_c   26.97640000
_cell_angle_alpha   90.00000000
_cell_angle_beta   90.00000000
_cell_angle_gamma   90.00000000
_symmetry_Int_Tables_number   1
_chemical_formula_structural   TiAu
_chemical_formula_sum   'Ti16 Au16'
_cell_volume   1650.45944458
_cell_formula_units_Z   16
loop_
 _symmetry_equiv_pos_site_id
 _symmetry_equiv_pos_as_xyz
  1  'x, y, z'
loop_
 _atom_site_type_symbol
 _atom_site_label
 _atom_site_symmetry_multiplicity
 _atom_site_fract_x
 _atom_site_fract_y
 _atom_site_fract_z
 _atom_site_occupancy
  Ti  Ti0  1  0.25000000  0.50000000  0.12931000  1.0
  Ti  Ti1  1  0.00000000  0.50000000  0.04310000  1.0
  Ti  Ti2  1  0.25001000  0.50000000  0.95376000  1.0
  Ti  Ti3  1  0.50003000  0.50000000  0.87597000  1.0
  Ti  Ti4  1  0.75000000  0.50000000  0.12931000  1.0
  Ti  Ti5  1  0.50000000  0.50000000  0.04310000  1.0
  Ti  Ti6  1  0.74999000  0.50000000  0.95376000  1.0
  Ti  Ti7  1  0.99997000  0.50000000  0.87596000  1.0
  Ti  Ti8  1  0.25000000  0.00000000  0.12931000  1.0
  Ti  Ti9  1  0.00000000  0.00000000  0.04310000  1.0
  Ti  Ti10  1  0.24998000  0.00000000  0.95375000  1.0
  Ti  Ti11  1  0.50003000  0.00000000  0.87591000  1.0
  Ti  Ti12  1  0.75000000  0.00000000  0.12931000  1.0
  Ti  Ti13  1  0.50000000  0.00000000  0.04310000  1.0
  Ti  Ti14  1  0.75001000  0.00000000  0.95374000  1.0
  Ti  Ti15  1  0.99997000  0.00000000  0.87591000  1.0
  Au  Au16  1  0.00000000  0.75000000  0.12931000  1.0
  Au  Au17  1  0.25000000  0.75000000  0.04310000  1.0
  Au  Au18  1  0.00010000  0.75009000  0.96158000  1.0
  Au  Au19  1  0.25009000  0.75001000  0.87051000  1.0
  Au  Au20  1  0.50000000  0.75000000  0.12931000  1.0
  Au  Au21  1  0.75000000  0.75000000  0.04310000  1.0
  Au  Au22  1  0.49989000  0.75015000  0.96158000  1.0
  Au  Au23  1  0.74992000  0.75001000  0.87048000  1.0
  Au  Au24  1  0.00000000  0.25000000  0.12931000  1.0
  Au  Au25  1  0.25000000  0.25000000  0.04310000  1.0
  Au  Au26  1  0.00010000  0.24991000  0.96158000  1.0
  Au  Au27  1  0.25009000  0.24999000  0.87051000  1.0
  Au  Au28  1  0.50000000  0.25000000  0.12931000  1.0
  Au  Au29  1  0.75000000  0.25000000  0.04310000  1.0
  Au  Au30  1  0.49989000  0.24985000  0.96158000  1.0
  Au  Au31  1  0.74992000  0.24999000  0.87048000  1.0
