data_image0
_chemical_formula_structural       Li4Y4Cu4Ge4C
_chemical_formula_sum              "Li4 Y4 Cu4 Ge4 C1"
_cell_length_a       6.66034
_cell_length_b       6.66034
_cell_length_c       24.9953
_cell_angle_alpha    90
_cell_angle_beta     90
_cell_angle_gamma    90

_space_group_name_H-M_alt    "P 1"
_space_group_IT_number       1

loop_
  _space_group_symop_operation_xyz
  'x, y, z'

loop_
  _atom_site_type_symbol
  _atom_site_label
  _atom_site_symmetry_multiplicity
  _atom_site_fract_x
  _atom_site_fract_y
  _atom_site_fract_z
  _atom_site_occupancy
  Li  Li1       1.0  0.75000  0.25000  0.96669  1.0000
  Li  Li2       1.0  0.77002  0.77004  0.09684  1.0000
  Li  Li3       1.0  0.22999  0.22997  0.09685  1.0000
  Li  Li4       1.0  0.25000  0.75000  0.96669  1.0000
  Y   Y1        1.0  0.25000  0.25000  0.96669  1.0000
  Y   Y2        1.0  0.24066  0.75933  0.10638  1.0000
  Y   Y3        1.0  0.75934  0.24067  0.10638  1.0000
  Y   Y4        1.0  0.75000  0.75000  0.96669  1.0000
  Cu  Cu1       1.0  0.00000  0.00000  0.90008  1.0000
  Cu  Cu2       1.0  0.00000  0.50000  0.03377  1.0000
  Cu  Cu3       1.0  0.50000  1.00000  0.03377  1.0000
  Cu  Cu4       1.0  0.50000  0.50000  0.90008  1.0000
  Ge  Ge1       1.0  0.00000  0.50000  0.90008  1.0000
  Ge  Ge2       1.0  0.00000  0.00000  0.03438  1.0000
  Ge  Ge3       1.0  0.50000  0.50000  0.04111  1.0000
  Ge  Ge4       1.0  0.50000  0.00000  0.90008  1.0000
  C   C1        1.0  0.00000  0.00000  0.11549  1.0000
