# generated using pymatgen
data_Fe16Rh16C
_symmetry_space_group_name_H-M   'P 1'
_cell_length_a   8.55299000
_cell_length_b   6.04788000
_cell_length_c   26.41470000
_cell_angle_alpha   90.00000000
_cell_angle_beta   90.00000000
_cell_angle_gamma   90.00000000
_symmetry_Int_Tables_number   1
_chemical_formula_structural   Fe16Rh16C
_chemical_formula_sum   'Fe16 Rh16 C1'
_cell_volume   1366.36526268
_cell_formula_units_Z   1
loop_
 _symmetry_equiv_pos_site_id
 _symmetry_equiv_pos_as_xyz
  1  'x, y, z'
loop_
 _atom_site_type_symbol
 _atom_site_label
 _atom_site_symmetry_multiplicity
 _atom_site_fract_x
 _atom_site_fract_y
 _atom_site_fract_z
 _atom_site_occupancy
  Fe  Fe0  1  0.75000000  0.00000000  0.12142000  1.0
  Fe  Fe1  1  0.00000000  0.00000000  0.04047000  1.0
  Fe  Fe2  1  0.74864000  0.99900000  0.95855000  1.0
  Fe  Fe3  1  0.00000000  0.95192000  0.87486000  1.0
  Fe  Fe4  1  0.25000000  0.00000000  0.12142000  1.0
  Fe  Fe5  1  0.50000000  0.00000000  0.04047000  1.0
  Fe  Fe6  1  0.25136000  0.99900000  0.95855000  1.0
  Fe  Fe7  1  0.50000000  0.00769000  0.87474000  1.0
  Fe  Fe8  1  0.75000000  0.50000000  0.12142000  1.0
  Fe  Fe9  1  0.00000000  0.50000000  0.04047000  1.0
  Fe  Fe10  1  0.74863000  0.50096000  0.95856000  1.0
  Fe  Fe11  1  0.00000000  0.54780000  0.87485000  1.0
  Fe  Fe12  1  0.25000000  0.50000000  0.12142000  1.0
  Fe  Fe13  1  0.50000000  0.50000000  0.04047000  1.0
  Fe  Fe14  1  0.25137000  0.50096000  0.95856000  1.0
  Fe  Fe15  1  0.50000000  0.49218000  0.87476000  1.0
  Rh  Rh16  1  0.00000000  0.25000000  0.12142000  1.0
  Rh  Rh17  1  0.75000000  0.25000000  0.04047000  1.0
  Rh  Rh18  1  0.00000000  0.24999000  0.95797000  1.0
  Rh  Rh19  1  0.23351000  0.24989000  0.88033000  1.0
  Rh  Rh20  1  0.50000000  0.25000000  0.12142000  1.0
  Rh  Rh21  1  0.25000000  0.25000000  0.04047000  1.0
  Rh  Rh22  1  0.50000000  0.24997000  0.95572000  1.0
  Rh  Rh23  1  0.76649000  0.24989000  0.88033000  1.0
  Rh  Rh24  1  0.00000000  0.75000000  0.12142000  1.0
  Rh  Rh25  1  0.75000000  0.75000000  0.04047000  1.0
  Rh  Rh26  1  0.00000000  0.74995000  0.95984000  1.0
  Rh  Rh27  1  0.26370000  0.74992000  0.88197000  1.0
  Rh  Rh28  1  0.50000000  0.75000000  0.12142000  1.0
  Rh  Rh29  1  0.25000000  0.75000000  0.04047000  1.0
  Rh  Rh30  1  0.50000000  0.75002000  0.95871000  1.0
  Rh  Rh31  1  0.73630000  0.74992000  0.88197000  1.0
  C  C32  1  0.00000000  0.24967000  0.86032000  1.0
