# generated using pymatgen
data_Li8Ag4Sb4CO
_symmetry_space_group_name_H-M   P2
_cell_length_a   6.69979000
_cell_length_b   25.02480000
_cell_length_c   6.69979000
_cell_angle_alpha   90.00000000
_cell_angle_beta   90.00000000
_cell_angle_gamma   90.00000000
_symmetry_Int_Tables_number   3
_chemical_formula_structural   Li8Ag4Sb4CO
_chemical_formula_sum   'Li8 Ag4 Sb4 C1 O1'
_cell_volume   1123.29285332
_cell_formula_units_Z   1
loop_
 _symmetry_equiv_pos_site_id
 _symmetry_equiv_pos_as_xyz
  1  'x, y, z'
  2  '-x, y, -z'
loop_
 _atom_site_type_symbol
 _atom_site_label
 _atom_site_symmetry_multiplicity
 _atom_site_fract_x
 _atom_site_fract_y
 _atom_site_fract_z
 _atom_site_occupancy
  Li  Li0  2  0.24769000  0.04062000  0.75161000  1.0
  Li  Li1  2  0.25000000  0.89960000  0.24999000  1.0
  Li  Li2  1  0.00000000  0.11271000  0.00000000  1.0
  Li  Li3  1  0.00000000  0.96653000  0.50000000  1.0
  Li  Li4  1  0.50000000  0.11108000  0.50000000  1.0
  Li  Li5  1  0.50000000  0.96653000  0.00000000  1.0
  Ag  Ag6  2  0.24947000  0.03971000  0.24982000  1.0
  Ag  Ag7  2  0.25000000  0.89960000  0.75001000  1.0
  Sb  Sb8  1  0.00000000  0.10243000  0.50000000  1.0
  Sb  Sb9  1  0.00000000  0.96653000  0.00000000  1.0
  Sb  Sb10  1  0.50000000  0.10251000  0.00000000  1.0
  Sb  Sb11  1  0.50000000  0.96653000  0.50000000  1.0
  C  C12  1  0.50000000  0.19591000  0.50000000  1.0
  O  O13  1  0.50000000  0.24130000  0.50000000  1.0
