# generated using pymatgen
data_Li8Al8Ag8Sn8CO
_symmetry_space_group_name_H-M   Pmm2
_cell_length_a   8.16098000
_cell_length_b   8.56020000
_cell_length_c   26.50010000
_cell_angle_alpha   90.00000000
_cell_angle_beta   90.00000000
_cell_angle_gamma   90.00000000
_symmetry_Int_Tables_number   25
_chemical_formula_structural   Li8Al8Ag8Sn8CO
_chemical_formula_sum   'Li8 Al8 Ag8 Sn8 C1 O1'
_cell_volume   1851.28694236
_cell_formula_units_Z   1
loop_
 _symmetry_equiv_pos_site_id
 _symmetry_equiv_pos_as_xyz
  1  'x, y, z'
  2  '-x, -y, z'
  3  '-x, y, z'
  4  'x, -y, z'
loop_
 _atom_site_type_symbol
 _atom_site_label
 _atom_site_symmetry_multiplicity
 _atom_site_fract_x
 _atom_site_fract_y
 _atom_site_fract_z
 _atom_site_occupancy
  Li  Li0  2  0.00000000  0.25000000  0.87736000  1.0
  Li  Li1  2  0.00000000  0.25317000  0.04096000  1.0
  Li  Li2  2  0.50000000  0.24826000  0.03915000  1.0
  Li  Li3  2  0.50000000  0.25000000  0.87736000  1.0
  Al  Al4  1  0.00000000  0.00000000  0.10894000  1.0
  Al  Al5  1  0.00000000  0.00000000  0.95912000  1.0
  Al  Al6  1  0.00000000  0.50000000  0.11767000  1.0
  Al  Al7  1  0.00000000  0.50000000  0.95912000  1.0
  Al  Al8  1  0.50000000  0.00000000  0.11689000  1.0
  Al  Al9  1  0.50000000  0.00000000  0.95912000  1.0
  Al  Al10  1  0.50000000  0.50000000  0.11006000  1.0
  Al  Al11  1  0.50000000  0.50000000  0.95912000  1.0
  Ag  Ag12  2  0.24466000  0.50000000  0.03843000  1.0
  Ag  Ag13  2  0.25000000  0.00000000  0.87736000  1.0
  Ag  Ag14  2  0.25000000  0.50000000  0.87736000  1.0
  Ag  Ag15  2  0.25259000  0.00000000  0.04086000  1.0
  Sn  Sn16  4  0.25000000  0.25000000  0.95912000  1.0
  Sn  Sn17  4  0.25646000  0.25796000  0.13000000  1.0
  C  C18  1  0.00000000  0.00000000  0.18378000  1.0
  O  O19  1  0.00000000  0.00000000  0.22750000  1.0
