# generated using pymatgen
data_Zn16Rh16CO
_symmetry_space_group_name_H-M   'P 1'
_cell_length_a   8.57934000
_cell_length_b   6.06651000
_cell_length_c   26.43450000
_cell_angle_alpha   90.00000000
_cell_angle_beta   90.00000000
_cell_angle_gamma   90.00000000
_symmetry_Int_Tables_number   1
_chemical_formula_structural   Zn16Rh16CO
_chemical_formula_sum   'Zn16 Rh16 C1 O1'
_cell_volume   1375.82721974
_cell_formula_units_Z   1
loop_
 _symmetry_equiv_pos_site_id
 _symmetry_equiv_pos_as_xyz
  1  'x, y, z'
loop_
 _atom_site_type_symbol
 _atom_site_label
 _atom_site_symmetry_multiplicity
 _atom_site_fract_x
 _atom_site_fract_y
 _atom_site_fract_z
 _atom_site_occupancy
  Zn  Zn0  1  0.75002000  0.25000000  0.12171000  1.0
  Zn  Zn1  1  0.50000000  0.25000000  0.04057000  1.0
  Zn  Zn2  1  0.75053000  0.25010000  0.96028000  1.0
  Zn  Zn3  1  0.50000000  0.25020000  0.87592000  1.0
  Zn  Zn4  1  0.24998000  0.25000000  0.12171000  1.0
  Zn  Zn5  1  0.00000000  0.25000000  0.04057000  1.0
  Zn  Zn6  1  0.24947000  0.25010000  0.96028000  1.0
  Zn  Zn7  1  0.00000000  0.25023000  0.87519000  1.0
  Zn  Zn8  1  0.75002000  0.75000000  0.12171000  1.0
  Zn  Zn9  1  0.50000000  0.75000000  0.04057000  1.0
  Zn  Zn10  1  0.74910000  0.74994000  0.96066000  1.0
  Zn  Zn11  1  0.50000000  0.74976000  0.87677000  1.0
  Zn  Zn12  1  0.24998000  0.75000000  0.12171000  1.0
  Zn  Zn13  1  0.00000000  0.75000000  0.04057000  1.0
  Zn  Zn14  1  0.25090000  0.74994000  0.96066000  1.0
  Zn  Zn15  1  0.00000000  0.74979000  0.87409000  1.0
  Rh  Rh16  1  0.50000000  0.00000000  0.12171000  1.0
  Rh  Rh17  1  0.75002000  0.00000000  0.04057000  1.0
  Rh  Rh18  1  0.50000000  0.00213000  0.95865000  1.0
  Rh  Rh19  1  0.75301000  0.99728000  0.88163000  1.0
  Rh  Rh20  1  0.00000000  0.00000000  0.12171000  1.0
  Rh  Rh21  1  0.24998000  0.00000000  0.04057000  1.0
  Rh  Rh22  1  0.00000000  0.99946000  0.95907000  1.0
  Rh  Rh23  1  0.24699000  0.99728000  0.88163000  1.0
  Rh  Rh24  1  0.50000000  0.50000000  0.12171000  1.0
  Rh  Rh25  1  0.75002000  0.50000000  0.04057000  1.0
  Rh  Rh26  1  0.50000000  0.49790000  0.95871000  1.0
  Rh  Rh27  1  0.75285000  0.50270000  0.88161000  1.0
  Rh  Rh28  1  0.00000000  0.50000000  0.12171000  1.0
  Rh  Rh29  1  0.24998000  0.50000000  0.04057000  1.0
  Rh  Rh30  1  0.00000000  0.50058000  0.95909000  1.0
  Rh  Rh31  1  0.24715000  0.50270000  0.88161000  1.0
  C  C32  1  0.50000000  0.24706000  0.79318000  1.0
  O  O33  1  0.50000000  0.24858000  0.75001000  1.0
