# generated using pymatgen
data_Zn16Rh16CO
_symmetry_space_group_name_H-M   Pm
_cell_length_a   6.06651000
_cell_length_b   8.57934000
_cell_length_c   26.43450000
_cell_angle_alpha   90.00000000
_cell_angle_beta   90.00000000
_cell_angle_gamma   90.00000000
_symmetry_Int_Tables_number   6
_chemical_formula_structural   Zn16Rh16CO
_chemical_formula_sum   'Zn16 Rh16 C1 O1'
_cell_volume   1375.82721974
_cell_formula_units_Z   1
loop_
 _symmetry_equiv_pos_site_id
 _symmetry_equiv_pos_as_xyz
  1  'x, y, z'
  2  'x, -y, z'
loop_
 _atom_site_type_symbol
 _atom_site_label
 _atom_site_symmetry_multiplicity
 _atom_site_fract_x
 _atom_site_fract_y
 _atom_site_fract_z
 _atom_site_occupancy
  Zn  Zn0  2  0.25000000  0.24998000  0.87829000  1.0
  Zn  Zn1  2  0.25010000  0.24947000  0.03972000  1.0
  Zn  Zn2  2  0.74994000  0.25090000  0.03934000  1.0
  Zn  Zn3  2  0.75000000  0.24998000  0.87829000  1.0
  Zn  Zn4  1  0.25000000  0.00000000  0.95943000  1.0
  Zn  Zn5  1  0.25000000  0.50000000  0.95943000  1.0
  Zn  Zn6  1  0.25020000  0.50000000  0.12408000  1.0
  Zn  Zn7  1  0.25023000  0.00000000  0.12481000  1.0
  Zn  Zn8  1  0.74976000  0.50000000  0.12323000  1.0
  Zn  Zn9  1  0.74979000  0.00000000  0.12591000  1.0
  Zn  Zn10  1  0.75000000  0.00000000  0.95943000  1.0
  Zn  Zn11  1  0.75000000  0.50000000  0.95943000  1.0
  Rh  Rh12  2  0.00000000  0.24998000  0.95943000  1.0
  Rh  Rh13  2  0.50000000  0.24998000  0.95943000  1.0
  Rh  Rh14  2  0.50270000  0.24715000  0.11839000  1.0
  Rh  Rh15  2  0.99728000  0.24699000  0.11837000  1.0
  Rh  Rh16  1  0.00000000  0.00000000  0.87829000  1.0
  Rh  Rh17  1  0.00000000  0.50000000  0.87829000  1.0
  Rh  Rh18  1  0.00213000  0.50000000  0.04135000  1.0
  Rh  Rh19  1  0.49790000  0.50000000  0.04129000  1.0
  Rh  Rh20  1  0.50000000  0.00000000  0.87829000  1.0
  Rh  Rh21  1  0.50000000  0.50000000  0.87829000  1.0
  Rh  Rh22  1  0.50058000  0.00000000  0.04091000  1.0
  Rh  Rh23  1  0.99946000  0.00000000  0.04093000  1.0
  C  C24  1  0.24706000  0.50000000  0.20682000  1.0
  O  O25  1  0.24858000  0.50000000  0.24999000  1.0
