# generated using pymatgen
data_Cu8Ni4Sn4C
_symmetry_space_group_name_H-M   'P 1'
_cell_length_a   6.14873000
_cell_length_b   6.14873000
_cell_length_c   24.61150000
_cell_angle_alpha   90.00000000
_cell_angle_beta   90.00000000
_cell_angle_gamma   90.00000000
_symmetry_Int_Tables_number   1
_chemical_formula_structural   Cu8Ni4Sn4C
_chemical_formula_sum   'Cu8 Ni4 Sn4 C1'
_cell_volume   930.48404220
_cell_formula_units_Z   1
loop_
 _symmetry_equiv_pos_site_id
 _symmetry_equiv_pos_as_xyz
  1  'x, y, z'
loop_
 _atom_site_type_symbol
 _atom_site_label
 _atom_site_symmetry_multiplicity
 _atom_site_fract_x
 _atom_site_fract_y
 _atom_site_fract_z
 _atom_site_occupancy
  Cu  Cu0  1  0.25000000  0.25000000  0.96877000  1.0
  Cu  Cu1  1  0.77141000  0.72925000  0.09736000  1.0
  Cu  Cu2  1  0.75000000  0.25000000  0.96877000  1.0
  Cu  Cu3  1  0.22852000  0.72904000  0.09736000  1.0
  Cu  Cu4  1  0.75000000  0.75000000  0.96877000  1.0
  Cu  Cu5  1  0.22861000  0.27091000  0.09737000  1.0
  Cu  Cu6  1  0.25000000  0.75000000  0.96877000  1.0
  Cu  Cu7  1  0.77130000  0.27070000  0.09736000  1.0
  Ni  Ni8  1  0.00000000  0.00000000  0.90631000  1.0
  Ni  Ni9  1  0.50000000  0.50000000  0.90631000  1.0
  Ni  Ni10  1  0.50032000  0.00016000  0.03968000  1.0
  Ni  Ni11  1  0.99983000  0.49989000  0.02661000  1.0
  Sn  Sn12  1  0.99993000  0.00005000  0.03371000  1.0
  Sn  Sn13  1  0.50000000  0.00000000  0.90631000  1.0
  Sn  Sn14  1  0.00000000  0.50000000  0.90631000  1.0
  Sn  Sn15  1  0.50011000  0.49996000  0.03377000  1.0
  C  C16  1  0.99985000  0.49995000  0.10396000  1.0
