# generated using pymatgen
data_Li8Y8In8Sn8CO
_symmetry_space_group_name_H-M   'P 1'
_cell_length_a   8.86856000
_cell_length_b   9.04200000
_cell_length_c   27.02490000
_cell_angle_alpha   90.00000000
_cell_angle_beta   90.00000000
_cell_angle_gamma   90.00000000
_symmetry_Int_Tables_number   1
_chemical_formula_structural   Li8Y8In8Sn8CO
_chemical_formula_sum   'Li8 Y8 In8 Sn8 C1 O1'
_cell_volume   2167.11374608
_cell_formula_units_Z   1
loop_
 _symmetry_equiv_pos_site_id
 _symmetry_equiv_pos_as_xyz
  1  'x, y, z'
loop_
 _atom_site_type_symbol
 _atom_site_label
 _atom_site_symmetry_multiplicity
 _atom_site_fract_x
 _atom_site_fract_y
 _atom_site_fract_z
 _atom_site_occupancy
  Li  Li0  1  0.25000000  0.25000000  0.87003000  1.0
  Li  Li1  1  0.24976000  0.24999000  0.04734000  1.0
  Li  Li2  1  0.25000000  0.75000000  0.87003000  1.0
  Li  Li3  1  0.24980000  0.74998000  0.04735000  1.0
  Li  Li4  1  0.75000000  0.25000000  0.87003000  1.0
  Li  Li5  1  0.74992000  0.24999000  0.04734000  1.0
  Li  Li6  1  0.75000000  0.75000000  0.87003000  1.0
  Li  Li7  1  0.74981000  0.74999000  0.04732000  1.0
  Y  Y8  1  0.25000000  0.00000000  0.95668000  1.0
  Y  Y9  1  0.25005000  0.00010000  0.13491000  1.0
  Y  Y10  1  0.25000000  0.50000000  0.95668000  1.0
  Y  Y11  1  0.25002000  0.49977000  0.13493000  1.0
  Y  Y12  1  0.75000000  0.00000000  0.95668000  1.0
  Y  Y13  1  0.74944000  0.00001000  0.13480000  1.0
  Y  Y14  1  0.75000000  0.50000000  0.95668000  1.0
  Y  Y15  1  0.74946000  0.49987000  0.13481000  1.0
  In  In16  1  0.00000000  0.00000000  0.87003000  1.0
  In  In17  1  0.99988000  0.00010000  0.04783000  1.0
  In  In18  1  0.00000000  0.50000000  0.87003000  1.0
  In  In19  1  0.99989000  0.49986000  0.04782000  1.0
  In  In20  1  0.50000000  0.00000000  0.87003000  1.0
  In  In21  1  0.49978000  0.99986000  0.04787000  1.0
  In  In22  1  0.50000000  0.50000000  0.87003000  1.0
  In  In23  1  0.49977000  0.50007000  0.04788000  1.0
  Sn  Sn24  1  0.00000000  0.25000000  0.95668000  1.0
  Sn  Sn25  1  0.99960000  0.24991000  0.13270000  1.0
  Sn  Sn26  1  0.00000000  0.75000000  0.95668000  1.0
  Sn  Sn27  1  0.99982000  0.74996000  0.13301000  1.0
  Sn  Sn28  1  0.50000000  0.25000000  0.95668000  1.0
  Sn  Sn29  1  0.49983000  0.24995000  0.13324000  1.0
  Sn  Sn30  1  0.50000000  0.75000000  0.95668000  1.0
  Sn  Sn31  1  0.49971000  0.74993000  0.13342000  1.0
  C  C32  1  0.02481000  0.25492000  0.30449000  1.0
  O  O33  1  0.98594000  0.24712000  0.34442000  1.0
