# generated using pymatgen
data_Hf16Ru16CO
_symmetry_space_group_name_H-M   Pmm2
_cell_length_a   6.47981000
_cell_length_b   9.16384000
_cell_length_c   26.87290000
_cell_angle_alpha   90.00000000
_cell_angle_beta   90.00000000
_cell_angle_gamma   90.00000000
_symmetry_Int_Tables_number   25
_chemical_formula_structural   Hf16Ru16CO
_chemical_formula_sum   'Hf16 Ru16 C1 O1'
_cell_volume   1595.71124526
_cell_formula_units_Z   1
loop_
 _symmetry_equiv_pos_site_id
 _symmetry_equiv_pos_as_xyz
  1  'x, y, z'
  2  '-x, -y, z'
  3  '-x, y, z'
  4  'x, -y, z'
loop_
 _atom_site_type_symbol
 _atom_site_label
 _atom_site_symmetry_multiplicity
 _atom_site_fract_x
 _atom_site_fract_y
 _atom_site_fract_z
 _atom_site_occupancy
  Hf  Hf0  2  0.00000000  0.24929000  0.04403000  1.0
  Hf  Hf1  2  0.00000000  0.25000000  0.87212000  1.0
  Hf  Hf2  2  0.50000000  0.24995000  0.04385000  1.0
  Hf  Hf3  2  0.50000000  0.25000000  0.87212000  1.0
  Hf  Hf4  1  0.00000000  0.00000000  0.13040000  1.0
  Hf  Hf5  1  0.00000000  0.00000000  0.95737000  1.0
  Hf  Hf6  1  0.00000000  0.50000000  0.12800000  1.0
  Hf  Hf7  1  0.00000000  0.50000000  0.95737000  1.0
  Hf  Hf8  1  0.50000000  0.00000000  0.12814000  1.0
  Hf  Hf9  1  0.50000000  0.00000000  0.95737000  1.0
  Hf  Hf10  1  0.50000000  0.50000000  0.12826000  1.0
  Hf  Hf11  1  0.50000000  0.50000000  0.95737000  1.0
  Ru  Ru12  4  0.25000000  0.25000000  0.95737000  1.0
  Ru  Ru13  4  0.25124000  0.25195000  0.12238000  1.0
  Ru  Ru14  2  0.25000000  0.00000000  0.87212000  1.0
  Ru  Ru15  2  0.25000000  0.50000000  0.87212000  1.0
  Ru  Ru16  2  0.25001000  0.50000000  0.04251000  1.0
  Ru  Ru17  2  0.25196000  0.00000000  0.04206000  1.0
  C  C18  1  0.00000000  0.00000000  0.21506000  1.0
  O  O19  1  0.00000000  0.00000000  0.25791000  1.0
