# generated using pymatgen
data_Sc16Au16C
_symmetry_space_group_name_H-M   'P 1'
_cell_length_a   6.85145000
_cell_length_b   9.68941000
_cell_length_c   27.26710000
_cell_angle_alpha   90.00000000
_cell_angle_beta   90.00000000
_cell_angle_gamma   90.00000000
_symmetry_Int_Tables_number   1
_chemical_formula_structural   Sc16Au16C
_chemical_formula_sum   'Sc16 Au16 C1'
_cell_volume   1810.16755623
_cell_formula_units_Z   1
loop_
 _symmetry_equiv_pos_site_id
 _symmetry_equiv_pos_as_xyz
  1  'x, y, z'
loop_
 _atom_site_type_symbol
 _atom_site_label
 _atom_site_symmetry_multiplicity
 _atom_site_fract_x
 _atom_site_fract_y
 _atom_site_fract_z
 _atom_site_occupancy
  Sc  Sc0  1  0.25000000  0.75003000  0.86674000  1.0
  Sc  Sc1  1  0.25000000  0.00000000  0.95558000  1.0
  Sc  Sc2  1  0.25102000  0.74995000  0.04564000  1.0
  Sc  Sc3  1  0.28246000  0.50000000  0.13688000  1.0
  Sc  Sc4  1  0.25000000  0.24997000  0.86674000  1.0
  Sc  Sc5  1  0.25000000  0.50000000  0.95558000  1.0
  Sc  Sc6  1  0.25102000  0.25005000  0.04564000  1.0
  Sc  Sc7  1  0.23918000  0.00000000  0.13085000  1.0
  Sc  Sc8  1  0.75000000  0.75003000  0.86674000  1.0
  Sc  Sc9  1  0.75000000  0.00000000  0.95558000  1.0
  Sc  Sc10  1  0.74898000  0.74995000  0.04564000  1.0
  Sc  Sc11  1  0.71754000  0.50000000  0.13688000  1.0
  Sc  Sc12  1  0.75000000  0.24997000  0.86674000  1.0
  Sc  Sc13  1  0.75000000  0.50000000  0.95558000  1.0
  Sc  Sc14  1  0.74898000  0.25005000  0.04564000  1.0
  Sc  Sc15  1  0.76082000  0.00000000  0.13085000  1.0
  Au  Au16  1  0.00000000  0.50000000  0.86674000  1.0
  Au  Au17  1  0.00000000  0.75003000  0.95558000  1.0
  Au  Au18  1  0.00000000  0.50000000  0.03998000  1.0
  Au  Au19  1  0.00000000  0.74241000  0.13249000  1.0
  Au  Au20  1  0.00000000  0.00000000  0.86674000  1.0
  Au  Au21  1  0.00000000  0.24997000  0.95558000  1.0
  Au  Au22  1  0.00000000  0.00000000  0.03843000  1.0
  Au  Au23  1  0.00000000  0.25759000  0.13249000  1.0
  Au  Au24  1  0.50000000  0.50000000  0.86674000  1.0
  Au  Au25  1  0.50000000  0.75003000  0.95558000  1.0
  Au  Au26  1  0.50000000  0.50000000  0.04047000  1.0
  Au  Au27  1  0.50000000  0.76251000  0.12869000  1.0
  Au  Au28  1  0.50000000  0.00000000  0.86674000  1.0
  Au  Au29  1  0.50000000  0.24997000  0.95558000  1.0
  Au  Au30  1  0.50000000  0.00000000  0.04703000  1.0
  Au  Au31  1  0.50000000  0.23749000  0.12869000  1.0
  C  C32  1  0.00000000  0.50000000  0.15525000  1.0
