# generated using pymatgen
data_TiCo2Si
_symmetry_space_group_name_H-M   'P 1'
_cell_length_a   4.07440584
_cell_length_b   4.07440584
_cell_length_c   24.32160000
_cell_angle_alpha   90.00000000
_cell_angle_beta   90.00000000
_cell_angle_gamma   90.00000000
_symmetry_Int_Tables_number   1
_chemical_formula_structural   TiCo2Si
_chemical_formula_sum   'Ti2 Co4 Si2'
_cell_volume   403.75760292
_cell_formula_units_Z   2
loop_
 _symmetry_equiv_pos_site_id
 _symmetry_equiv_pos_as_xyz
  1  'x, y, z'
loop_
 _atom_site_type_symbol
 _atom_site_label
 _atom_site_symmetry_multiplicity
 _atom_site_fract_x
 _atom_site_fract_y
 _atom_site_fract_z
 _atom_site_occupancy
  Ti  Ti0  1  0.00000000  0.00000000  0.08884000  1.0
  Ti  Ti1  1  0.50000000  0.50000000  0.97039000  1.0
  Co  Co2  1  0.50000000  0.00000000  0.02961000  1.0
  Co  Co3  1  0.50000000  0.00000000  0.91116000  1.0
  Co  Co4  1  0.00000000  0.50000000  0.02961000  1.0
  Co  Co5  1  0.00000000  0.50000000  0.91116000  1.0
  Si  Si6  1  0.00000000  0.00000000  0.97039000  1.0
  Si  Si7  1  0.50000000  0.50000000  0.08884000  1.0
