# generated using pymatgen
data_Li8In8Cu8Ge8C
_symmetry_space_group_name_H-M   'P 1'
_cell_length_a   9.18370000
_cell_length_b   6.49386000
_cell_length_c   26.88780000
_cell_angle_alpha   90.00000000
_cell_angle_beta   90.00000000
_cell_angle_gamma   90.00000000
_symmetry_Int_Tables_number   1
_chemical_formula_structural   Li8In8Cu8Ge8C
_chemical_formula_sum   'Li8 In8 Cu8 Ge8 C1'
_cell_volume   1603.52553053
_cell_formula_units_Z   1
loop_
 _symmetry_equiv_pos_site_id
 _symmetry_equiv_pos_as_xyz
  1  'x, y, z'
loop_
 _atom_site_type_symbol
 _atom_site_label
 _atom_site_symmetry_multiplicity
 _atom_site_fract_x
 _atom_site_fract_y
 _atom_site_fract_z
 _atom_site_occupancy
  Li  Li0  1  0.00000000  0.00000000  0.04269000  1.0
  Li  Li1  1  0.50000000  0.00000000  0.04269000  1.0
  Li  Li2  1  0.25000000  0.50000000  0.12808000  1.0
  Li  Li3  1  0.75000000  0.50000000  0.12808000  1.0
  Li  Li4  1  0.50000000  0.00993000  0.86318000  1.0
  Li  Li5  1  0.00000000  0.92950000  0.84203000  1.0
  Li  Li6  1  0.76043000  0.44173000  0.94938000  1.0
  Li  Li7  1  0.23957000  0.44173000  0.94938000  1.0
  In  In8  1  0.75000000  0.25000000  0.04269000  1.0
  In  In9  1  0.25000000  0.25000000  0.04269000  1.0
  In  In10  1  0.00000000  0.75000000  0.12808000  1.0
  In  In11  1  0.50000000  0.75000000  0.12808000  1.0
  In  In12  1  0.24299000  0.28083000  0.83558000  1.0
  In  In13  1  0.75701000  0.28083000  0.83558000  1.0
  In  In14  1  0.50000000  0.73479000  0.95598000  1.0
  In  In15  1  0.00000000  0.74037000  0.95884000  1.0
  Cu  Cu16  1  0.75000000  0.00000000  0.12808000  1.0
  Cu  Cu17  1  0.25000000  0.00000000  0.12808000  1.0
  Cu  Cu18  1  0.50000000  0.50000000  0.04269000  1.0
  Cu  Cu19  1  0.00000000  0.50000000  0.04269000  1.0
  Cu  Cu20  1  0.25454000  0.00786000  0.95717000  1.0
  Cu  Cu21  1  0.74546000  0.00786000  0.95717000  1.0
  Cu  Cu22  1  0.00000000  0.53625000  0.87664000  1.0
  Cu  Cu23  1  0.50000000  0.46179000  0.87939000  1.0
  Ge  Ge24  1  0.75000000  0.75000000  0.04269000  1.0
  Ge  Ge25  1  0.25000000  0.75000000  0.04269000  1.0
  Ge  Ge26  1  0.00000000  0.25000000  0.12808000  1.0
  Ge  Ge27  1  0.50000000  0.25000000  0.12808000  1.0
  Ge  Ge28  1  0.25829000  0.74141000  0.87872000  1.0
  Ge  Ge29  1  0.74171000  0.74141000  0.87872000  1.0
  Ge  Ge30  1  0.50000000  0.21975000  0.95431000  1.0
  Ge  Ge31  1  0.00000000  0.18036000  0.93100000  1.0
  C  C32  1  0.00000000  0.23960000  0.85732000  1.0
