# generated using pymatgen
data_Mn8Au8CO
_symmetry_space_group_name_H-M   'P 1'
_cell_length_a   6.45068000
_cell_length_b   6.45068000
_cell_length_c   25.03480000
_cell_angle_alpha   90.00000000
_cell_angle_beta   90.00000000
_cell_angle_gamma   90.00000000
_symmetry_Int_Tables_number   1
_chemical_formula_structural   Mn8Au8CO
_chemical_formula_sum   'Mn8 Au8 C1 O1'
_cell_volume   1041.72988384
_cell_formula_units_Z   1
loop_
 _symmetry_equiv_pos_site_id
 _symmetry_equiv_pos_as_xyz
  1  'x, y, z'
loop_
 _atom_site_type_symbol
 _atom_site_label
 _atom_site_symmetry_multiplicity
 _atom_site_fract_x
 _atom_site_fract_y
 _atom_site_fract_z
 _atom_site_occupancy
  Mn  Mn0  1  0.75000000  0.75000000  0.91834000  1.0
  Mn  Mn1  1  0.75000000  0.75000000  0.05242000  1.0
  Mn  Mn2  1  0.75000000  0.25000000  0.91834000  1.0
  Mn  Mn3  1  0.75000000  0.25000000  0.05242000  1.0
  Mn  Mn4  1  0.25000000  0.75000000  0.91834000  1.0
  Mn  Mn5  1  0.25000000  0.75000000  0.05242000  1.0
  Mn  Mn6  1  0.25000000  0.25000000  0.91834000  1.0
  Mn  Mn7  1  0.25000000  0.25000000  0.05242000  1.0
  Au  Au8  1  0.00000000  0.00000000  0.98538000  1.0
  Au  Au9  1  0.00000000  0.00000000  0.11945000  1.0
  Au  Au10  1  0.00000000  0.50000000  0.98538000  1.0
  Au  Au11  1  0.00000000  0.50000000  0.11945000  1.0
  Au  Au12  1  0.50000000  0.00000000  0.98538000  1.0
  Au  Au13  1  0.50000000  0.00000000  0.11945000  1.0
  Au  Au14  1  0.50000000  0.50000000  0.98538000  1.0
  Au  Au15  1  0.50000000  0.50000000  0.11945000  1.0
  C  C16  1  0.00000000  0.00000000  0.19535000  1.0
  O  O17  1  0.00000000  0.00000000  0.24129000  1.0
