# generated using pymatgen
data_Ti8In8Cu16C
_symmetry_space_group_name_H-M   'P 1'
_cell_length_a   8.92302000
_cell_length_b   6.30953000
_cell_length_c   26.69230000
_cell_angle_alpha   90.00000000
_cell_angle_beta   90.00000000
_cell_angle_gamma   90.00000000
_symmetry_Int_Tables_number   1
_chemical_formula_structural   Ti8In8Cu16C
_chemical_formula_sum   'Ti8 In8 Cu16 C1'
_cell_volume   1502.77815508
_cell_formula_units_Z   1
loop_
 _symmetry_equiv_pos_site_id
 _symmetry_equiv_pos_as_xyz
  1  'x, y, z'
loop_
 _atom_site_type_symbol
 _atom_site_label
 _atom_site_symmetry_multiplicity
 _atom_site_fract_x
 _atom_site_fract_y
 _atom_site_fract_z
 _atom_site_occupancy
  Ti  Ti0  1  0.75000000  0.00000000  0.12536000  1.0
  Ti  Ti1  1  0.00000000  0.50000000  0.04179000  1.0
  Ti  Ti2  1  0.50000000  0.50000000  0.04179000  1.0
  Ti  Ti3  1  0.25000000  0.00000000  0.12536000  1.0
  Ti  Ti4  1  0.25945000  0.99600000  0.95809000  1.0
  Ti  Ti5  1  0.50000000  0.47963000  0.88079000  1.0
  Ti  Ti6  1  0.00000000  0.52895000  0.88243000  1.0
  Ti  Ti7  1  0.74055000  0.99600000  0.95809000  1.0
  In  In8  1  0.50000000  1.00000000  0.04179000  1.0
  In  In9  1  0.75000000  0.50000000  0.12536000  1.0
  In  In10  1  0.00000000  0.00000000  0.04179000  1.0
  In  In11  1  0.25000000  0.50000000  0.12536000  1.0
  In  In12  1  0.00000000  0.91488000  0.83680000  1.0
  In  In13  1  0.24072000  0.49391000  0.96010000  1.0
  In  In14  1  0.50000000  0.01442000  0.86786000  1.0
  In  In15  1  0.75928000  0.49391000  0.96010000  1.0
  Cu  Cu16  1  0.75000000  0.25000000  0.04179000  1.0
  Cu  Cu17  1  0.25000000  0.75000000  0.04179000  1.0
  Cu  Cu18  1  0.75000000  0.75000000  0.04179000  1.0
  Cu  Cu19  1  0.25000000  0.25000000  0.04179000  1.0
  Cu  Cu20  1  0.50000000  0.75000000  0.12536000  1.0
  Cu  Cu21  1  0.00000000  0.25000000  0.12536000  1.0
  Cu  Cu22  1  0.50000000  0.25000000  0.12536000  1.0
  Cu  Cu23  1  0.00000000  0.75000000  0.12536000  1.0
  Cu  Cu24  1  0.23054000  0.25548000  0.87161000  1.0
  Cu  Cu25  1  0.73725000  0.73457000  0.87611000  1.0
  Cu  Cu26  1  0.26275000  0.73457000  0.87611000  1.0
  Cu  Cu27  1  0.76946000  0.25548000  0.87161000  1.0
  Cu  Cu28  1  0.00000000  0.78099000  0.95798000  1.0
  Cu  Cu29  1  0.50000000  0.25191000  0.96054000  1.0
  Cu  Cu30  1  0.00000000  0.18581000  0.93939000  1.0
  Cu  Cu31  1  0.50000000  0.74143000  0.95684000  1.0
  C  C32  1  0.00000000  0.24370000  0.85988000  1.0
