# generated using pymatgen
data_Ti8In8Cu16C
_symmetry_space_group_name_H-M   Pm
_cell_length_a   6.30953000
_cell_length_b   8.92302000
_cell_length_c   26.69230000
_cell_angle_alpha   90.00000000
_cell_angle_beta   90.00000000
_cell_angle_gamma   90.00000000
_symmetry_Int_Tables_number   6
_chemical_formula_structural   Ti8In8Cu16C
_chemical_formula_sum   'Ti8 In8 Cu16 C1'
_cell_volume   1502.77815508
_cell_formula_units_Z   1
loop_
 _symmetry_equiv_pos_site_id
 _symmetry_equiv_pos_as_xyz
  1  'x, y, z'
  2  'x, -y, z'
loop_
 _atom_site_type_symbol
 _atom_site_label
 _atom_site_symmetry_multiplicity
 _atom_site_fract_x
 _atom_site_fract_y
 _atom_site_fract_z
 _atom_site_occupancy
  Ti  Ti0  2  0.00000000  0.25000000  0.87464000  1.0
  Ti  Ti1  2  0.99600000  0.25945000  0.04191000  1.0
  Ti  Ti2  1  0.47963000  0.50000000  0.11921000  1.0
  Ti  Ti3  1  0.50000000  0.00000000  0.95821000  1.0
  Ti  Ti4  1  0.50000000  0.50000000  0.95821000  1.0
  Ti  Ti5  1  0.52895000  0.00000000  0.11757000  1.0
  In  In6  2  0.49391000  0.24072000  0.03990000  1.0
  In  In7  2  0.50000000  0.25000000  0.87464000  1.0
  In  In8  1  -0.00000000  0.50000000  0.95821000  1.0
  In  In9  1  0.00000000  0.00000000  0.95821000  1.0
  In  In10  1  0.01442000  0.50000000  0.13214000  1.0
  In  In11  1  0.91488000  0.00000000  0.16320000  1.0
  Cu  Cu12  2  0.25000000  0.25000000  0.95821000  1.0
  Cu  Cu13  2  0.25548000  0.23054000  0.12839000  1.0
  Cu  Cu14  2  0.73457000  0.26275000  0.12389000  1.0
  Cu  Cu15  2  0.75000000  0.25000000  0.95821000  1.0
  Cu  Cu16  1  0.18581000  0.00000000  0.06061000  1.0
  Cu  Cu17  1  0.25000000  0.00000000  0.87464000  1.0
  Cu  Cu18  1  0.25000000  0.50000000  0.87464000  1.0
  Cu  Cu19  1  0.25191000  0.50000000  0.03946000  1.0
  Cu  Cu20  1  0.74143000  0.50000000  0.04316000  1.0
  Cu  Cu21  1  0.75000000  0.00000000  0.87464000  1.0
  Cu  Cu22  1  0.75000000  0.50000000  0.87464000  1.0
  Cu  Cu23  1  0.78099000  0.00000000  0.04202000  1.0
  C  C24  1  0.24370000  0.00000000  0.14012000  1.0
