# generated using pymatgen
data_V8Ir24CO
_symmetry_space_group_name_H-M   'P 1'
_cell_length_a   7.70199000
_cell_length_b   7.70199000
_cell_length_c   25.77650000
_cell_angle_alpha   90.00000000
_cell_angle_beta   90.00000000
_cell_angle_gamma   90.00000000
_symmetry_Int_Tables_number   1
_chemical_formula_structural   V8Ir24CO
_chemical_formula_sum   'V8 Ir24 C1 O1'
_cell_volume   1529.07873370
_cell_formula_units_Z   1
loop_
 _symmetry_equiv_pos_site_id
 _symmetry_equiv_pos_as_xyz
  1  'x, y, z'
loop_
 _atom_site_type_symbol
 _atom_site_label
 _atom_site_symmetry_multiplicity
 _atom_site_fract_x
 _atom_site_fract_y
 _atom_site_fract_z
 _atom_site_occupancy
  V  V0  1  0.00000000  0.00000000  0.11205000  1.0
  V  V1  1  0.00000000  0.00000000  0.96265000  1.0
  V  V2  1  0.00000000  0.50000000  0.11205000  1.0
  V  V3  1  0.00000000  0.50000000  0.96265000  1.0
  V  V4  1  0.50000000  0.00000000  0.11205000  1.0
  V  V5  1  0.50000000  0.00000000  0.96265000  1.0
  V  V6  1  0.50000000  0.50000000  0.11205000  1.0
  V  V7  1  0.50000000  0.50000000  0.96265000  1.0
  Ir  Ir8  1  0.00000000  0.25000000  0.03735000  1.0
  Ir  Ir9  1  0.25000000  0.00000000  0.03735000  1.0
  Ir  Ir10  1  0.25000000  0.25000000  0.11205000  1.0
  Ir  Ir11  1  0.00000000  0.25000000  0.88795000  1.0
  Ir  Ir12  1  0.25000000  0.00000000  0.88795000  1.0
  Ir  Ir13  1  0.25000000  0.25000000  0.96265000  1.0
  Ir  Ir14  1  0.00000000  0.75000000  0.03735000  1.0
  Ir  Ir15  1  0.25000000  0.50000000  0.03735000  1.0
  Ir  Ir16  1  0.25000000  0.75000000  0.11205000  1.0
  Ir  Ir17  1  0.00000000  0.75000000  0.88795000  1.0
  Ir  Ir18  1  0.25000000  0.50000000  0.88795000  1.0
  Ir  Ir19  1  0.25000000  0.75000000  0.96265000  1.0
  Ir  Ir20  1  0.50000000  0.25000000  0.03735000  1.0
  Ir  Ir21  1  0.75000000  0.00000000  0.03735000  1.0
  Ir  Ir22  1  0.75000000  0.25000000  0.11205000  1.0
  Ir  Ir23  1  0.50000000  0.25000000  0.88795000  1.0
  Ir  Ir24  1  0.75000000  0.00000000  0.88795000  1.0
  Ir  Ir25  1  0.75000000  0.25000000  0.96265000  1.0
  Ir  Ir26  1  0.50000000  0.75000000  0.03735000  1.0
  Ir  Ir27  1  0.75000000  0.50000000  0.03735000  1.0
  Ir  Ir28  1  0.75000000  0.75000000  0.11205000  1.0
  Ir  Ir29  1  0.50000000  0.75000000  0.88795000  1.0
  Ir  Ir30  1  0.75000000  0.50000000  0.88795000  1.0
  Ir  Ir31  1  0.75000000  0.75000000  0.96265000  1.0
  C  C32  1  0.00000000  0.00000000  0.18576000  1.0
  O  O33  1  0.00000000  0.00000000  0.23037000  1.0
