# generated using pymatgen
data_Y8Al24CO
_symmetry_space_group_name_H-M   'P 1'
_cell_length_a   8.49845000
_cell_length_b   8.49845000
_cell_length_c   26.37380000
_cell_angle_alpha   90.00000000
_cell_angle_beta   90.00000000
_cell_angle_gamma   90.00000000
_symmetry_Int_Tables_number   1
_chemical_formula_structural   Y8Al24CO
_chemical_formula_sum   'Y8 Al24 C1 O1'
_cell_volume   1904.81216373
_cell_formula_units_Z   1
loop_
 _symmetry_equiv_pos_site_id
 _symmetry_equiv_pos_as_xyz
  1  'x, y, z'
loop_
 _atom_site_type_symbol
 _atom_site_label
 _atom_site_symmetry_multiplicity
 _atom_site_fract_x
 _atom_site_fract_y
 _atom_site_fract_z
 _atom_site_occupancy
  Y  Y0  1  0.75000000  0.00000000  0.87916000  1.0
  Y  Y1  1  0.75000000  0.00000000  0.04028000  1.0
  Y  Y2  1  0.75000000  0.50000000  0.87916000  1.0
  Y  Y3  1  0.75000000  0.50000000  0.04028000  1.0
  Y  Y4  1  0.25000000  0.00000000  0.87916000  1.0
  Y  Y5  1  0.25000000  0.00000000  0.04028000  1.0
  Y  Y6  1  0.25000000  0.50000000  0.87916000  1.0
  Y  Y7  1  0.25000000  0.50000000  0.04028000  1.0
  Al  Al8  1  0.75000000  0.25000000  0.95972000  1.0
  Al  Al9  1  0.00000000  0.00000000  0.95972000  1.0
  Al  Al10  1  0.00000000  0.25000000  0.87916000  1.0
  Al  Al11  1  0.75000000  0.25000000  0.12084000  1.0
  Al  Al12  1  0.00000000  0.00000000  0.12084000  1.0
  Al  Al13  1  0.00000000  0.25000000  0.04028000  1.0
  Al  Al14  1  0.75000000  0.75000000  0.95972000  1.0
  Al  Al15  1  0.00000000  0.50000000  0.95972000  1.0
  Al  Al16  1  0.00000000  0.75000000  0.87916000  1.0
  Al  Al17  1  0.75000000  0.75000000  0.12084000  1.0
  Al  Al18  1  0.00000000  0.50000000  0.12084000  1.0
  Al  Al19  1  0.00000000  0.75000000  0.04028000  1.0
  Al  Al20  1  0.25000000  0.25000000  0.95972000  1.0
  Al  Al21  1  0.50000000  0.00000000  0.95972000  1.0
  Al  Al22  1  0.50000000  0.25000000  0.87916000  1.0
  Al  Al23  1  0.25000000  0.25000000  0.12084000  1.0
  Al  Al24  1  0.50000000  0.00000000  0.12084000  1.0
  Al  Al25  1  0.50000000  0.25000000  0.04028000  1.0
  Al  Al26  1  0.25000000  0.75000000  0.95972000  1.0
  Al  Al27  1  0.50000000  0.50000000  0.95972000  1.0
  Al  Al28  1  0.50000000  0.75000000  0.87916000  1.0
  Al  Al29  1  0.25000000  0.75000000  0.12084000  1.0
  Al  Al30  1  0.50000000  0.50000000  0.12084000  1.0
  Al  Al31  1  0.50000000  0.75000000  0.04028000  1.0
  C  C32  1  0.00000000  0.00000000  0.19288000  1.0
  O  O33  1  0.00000000  0.00000000  0.23648000  1.0
