# generated using pymatgen
data_Sn4Pd12CO
_symmetry_space_group_name_H-M   'P 1'
_cell_length_a   8.16408000
_cell_length_b   5.77288000
_cell_length_c   24.32970000
_cell_angle_alpha   90.00000000
_cell_angle_beta   90.00000000
_cell_angle_gamma   90.00000000
_symmetry_Int_Tables_number   1
_chemical_formula_structural   Sn4Pd12CO
_chemical_formula_sum   'Sn4 Pd12 C1 O1'
_cell_volume   1146.66494440
_cell_formula_units_Z   1
loop_
 _symmetry_equiv_pos_site_id
 _symmetry_equiv_pos_as_xyz
  1  'x, y, z'
loop_
 _atom_site_type_symbol
 _atom_site_label
 _atom_site_symmetry_multiplicity
 _atom_site_fract_x
 _atom_site_fract_y
 _atom_site_fract_z
 _atom_site_occupancy
  Sn  Sn0  1  0.75000000  0.00000000  0.91102000  1.0
  Sn  Sn1  1  0.75358000  0.49953000  0.03186000  1.0
  Sn  Sn2  1  0.25000000  0.00000000  0.91102000  1.0
  Sn  Sn3  1  0.24642000  0.49953000  0.03186000  1.0
  Pd  Pd4  1  0.75000000  0.50000000  0.91102000  1.0
  Pd  Pd5  1  0.50000000  0.25000000  0.97034000  1.0
  Pd  Pd6  1  0.50000000  0.75000000  0.97034000  1.0
  Pd  Pd7  1  0.74959000  0.00153000  0.02846000  1.0
  Pd  Pd8  1  0.50000000  0.76814000  0.08614000  1.0
  Pd  Pd9  1  0.50000000  0.26704000  0.08353000  1.0
  Pd  Pd10  1  0.25000000  0.50000000  0.91102000  1.0
  Pd  Pd11  1  0.00000000  0.25000000  0.97034000  1.0
  Pd  Pd12  1  0.00000000  0.75000000  0.97034000  1.0
  Pd  Pd13  1  0.25041000  0.00153000  0.02846000  1.0
  Pd  Pd14  1  0.00000000  0.75072000  0.08411000  1.0
  Pd  Pd15  1  0.00000000  0.24785000  0.08426000  1.0
  C  C16  1  0.50000000  0.75167000  0.16504000  1.0
  O  O17  1  0.50000000  0.74514000  0.21227000  1.0
