# generated using pymatgen
data_Li4Mg4Ag4Sn4CO
_symmetry_space_group_name_H-M   'P 1'
_cell_length_a   6.75899000
_cell_length_b   6.75899000
_cell_length_c   25.06920000
_cell_angle_alpha   90.00000000
_cell_angle_beta   90.00000000
_cell_angle_gamma   90.00000000
_symmetry_Int_Tables_number   1
_chemical_formula_structural   Li4Mg4Ag4Sn4CO
_chemical_formula_sum   'Li4 Mg4 Ag4 Sn4 C1 O1'
_cell_volume   1145.25997455
_cell_formula_units_Z   1
loop_
 _symmetry_equiv_pos_site_id
 _symmetry_equiv_pos_as_xyz
  1  'x, y, z'
loop_
 _atom_site_type_symbol
 _atom_site_label
 _atom_site_symmetry_multiplicity
 _atom_site_fract_x
 _atom_site_fract_y
 _atom_site_fract_z
 _atom_site_occupancy
  Li  Li0  1  0.74724000  0.24579000  0.03799000  1.0
  Li  Li1  1  0.75000000  0.75000000  0.89890000  1.0
  Li  Li2  1  0.25000000  0.25000000  0.89890000  1.0
  Li  Li3  1  0.25271000  0.75417000  0.03796000  1.0
  Mg  Mg4  1  0.25314000  0.24651000  0.03929000  1.0
  Mg  Mg5  1  0.25000000  0.75000000  0.89890000  1.0
  Mg  Mg6  1  0.75000000  0.25000000  0.89890000  1.0
  Mg  Mg7  1  0.74680000  0.75355000  0.03928000  1.0
  Ag  Ag8  1  0.00006000  0.99984000  0.10935000  1.0
  Ag  Ag9  1  0.00000000  0.50000000  0.96630000  1.0
  Ag  Ag10  1  0.50000000  0.00000000  0.96630000  1.0
  Ag  Ag11  1  0.49998000  0.50008000  0.10713000  1.0
  Sn  Sn12  1  0.00004000  0.50010000  0.11536000  1.0
  Sn  Sn13  1  0.00000000  0.00000000  0.96630000  1.0
  Sn  Sn14  1  0.50000000  0.50000000  0.96630000  1.0
  Sn  Sn15  1  0.49989000  0.99993000  0.11976000  1.0
  C  C16  1  0.99985000  0.49996000  0.28369000  1.0
  O  O17  1  0.00006000  0.50005000  0.32897000  1.0
