# generated using pymatgen
data_Li4Sc4In4Pd4CO
_symmetry_space_group_name_H-M   'P 1'
_cell_length_a   6.59012000
_cell_length_b   6.59012000
_cell_length_c   24.94260000
_cell_angle_alpha   90.00000000
_cell_angle_beta   90.00000000
_cell_angle_gamma   90.00000000
_symmetry_Int_Tables_number   1
_chemical_formula_structural   Li4Sc4In4Pd4CO
_chemical_formula_sum   'Li4 Sc4 In4 Pd4 C1 O1'
_cell_volume   1083.24917664
_cell_formula_units_Z   1
loop_
 _symmetry_equiv_pos_site_id
 _symmetry_equiv_pos_as_xyz
  1  'x, y, z'
loop_
 _atom_site_type_symbol
 _atom_site_label
 _atom_site_symmetry_multiplicity
 _atom_site_fract_x
 _atom_site_fract_y
 _atom_site_fract_z
 _atom_site_occupancy
  Li  Li0  1  0.75213500  0.24786500  0.03372000  1
  Li  Li1  1  0.25000000  0.25000000  0.90092000  1
  Li  Li2  1  0.75000000  0.75000000  0.90092000  1
  Li  Li3  1  0.24786500  0.75213500  0.03372000  1
  Sc  Sc4  1  0.50000000  0.50000000  0.09955000  1
  Sc  Sc5  1  0.00000000  0.50000000  0.96697000  1
  Sc  Sc6  1  0.50000000  0.00000000  0.96697000  1
  Sc  Sc7  1  0.00000000  0.00000000  0.09921000  1
  In  In8  1  1.00000000  0.50000000  0.10145000  1
  In  In9  1  0.50000000  0.50000000  0.96697000  1
  In  In10  1  0.00000000  0.00000000  0.96697000  1
  In  In11  1  0.50000000  0.00000000  0.10145000  1
  Pd  Pd12  1  0.75250500  0.75250500  0.03314000  1
  Pd  Pd13  1  0.25000000  0.75000000  0.90092000  1
  Pd  Pd14  1  0.75000000  0.25000000  0.90092000  1
  Pd  Pd15  1  0.24749500  0.24749500  0.03314000  1
  C  C16  1  0.50000000  0.50000000  0.19198000  1
  O  O17  1  0.50000000  0.50000000  0.23805000  1
