# generated using pymatgen
data_YInCuSn
_symmetry_space_group_name_H-M   P1
_cell_length_a   4.57306000
_cell_length_b   6.24938000
_cell_length_c   24.68700000
_cell_angle_alpha   90.00000000
_cell_angle_beta   90.00000000
_cell_angle_gamma   90.00000000
_symmetry_Int_Tables_number   1
_chemical_formula_structural   YInCuSn
_chemical_formula_sum   'Y2 In2 Cu2 Sn2'
_cell_volume   705.52458139
_cell_formula_units_Z   2
loop_
 _symmetry_equiv_pos_site_id
 _symmetry_equiv_pos_as_xyz
  1  'x, y, z'
loop_
 _atom_site_type_symbol
 _atom_site_label
 _atom_site_symmetry_multiplicity
 _atom_site_fract_x
 _atom_site_fract_y
 _atom_site_fract_z
 _atom_site_occupancy
  Y  Y0  1  0.49992000  0.72691000  0.96708000  1.0
  Y  Y1  1  0.50000000  0.25160000  0.09493000  1.0
  In  In2  1  -0.00000000  0.00107000  0.03164000  1.0
  In  In3  1  0.99995000  0.49123000  0.90203500  1.0
  Cu  Cu4  1  -0.00000000  0.50107000  0.03164000  1.0
  Cu  Cu5  1  0.99975000  0.97374500  0.92218000  1.0
  Sn  Sn6  1  0.49993000  0.22221000  0.94706500  1.0
  Sn  Sn7  1  0.50000000  0.75160000  0.09493000  1.0
