data_image0
_chemical_formula_structural       Li8Sc8Ga8Pd8C
_chemical_formula_sum              "Li8 Sc8 Ga8 Pd8 C1"
_cell_length_a       6.35289
_cell_length_b       8.98434
_cell_length_c       26.7383
_cell_angle_alpha    90
_cell_angle_beta     90
_cell_angle_gamma    90

_space_group_name_H-M_alt    "P 1"
_space_group_IT_number       1

loop_
  _space_group_symop_operation_xyz
  'x, y, z'

loop_
  _atom_site_type_symbol
  _atom_site_label
  _atom_site_symmetry_multiplicity
  _atom_site_fract_x
  _atom_site_fract_y
  _atom_site_fract_z
  _atom_site_occupancy
  Li  Li1       1.0  0.75000  0.00000  0.95800  1.0000
  Li  Li2       1.0  0.75000  0.50000  0.95800  1.0000
  Li  Li3       1.0  0.25000  0.25000  0.87400  1.0000
  Li  Li4       1.0  0.25000  0.75000  0.87400  1.0000
  Li  Li5       1.0  0.63675  0.49995  0.16875  1.0000
  Li  Li6       1.0  0.63272  0.99999  0.17644  1.0000
  Li  Li7       1.0  0.27145  0.76350  0.04289  1.0000
  Li  Li8       1.0  0.27139  0.23646  0.04287  1.0000
  Sc  Sc1       1.0  0.00000  0.25000  0.95800  1.0000
  Sc  Sc2       1.0  0.00000  0.75000  0.95800  1.0000
  Sc  Sc3       1.0  0.50000  0.50000  0.87400  1.0000
  Sc  Sc4       1.0  0.50000  0.00000  0.87400  1.0000
  Sc  Sc5       1.0  0.94475  0.76694  0.12408  1.0000
  Sc  Sc6       1.0  0.94475  0.23301  0.12408  1.0000
  Sc  Sc7       1.0  0.59524  0.99998  0.07115  1.0000
  Sc  Sc8       1.0  0.50699  0.49998  0.05200  1.0000
  Ga  Ga1       1.0  0.00000  0.00000  0.87400  1.0000
  Ga  Ga2       1.0  0.00000  0.50000  0.87400  1.0000
  Ga  Ga3       1.0  0.50000  0.75000  0.95800  1.0000
  Ga  Ga4       1.0  0.50000  0.25000  0.95800  1.0000
  Ga  Ga5       1.0  0.00784  0.50000  0.04130  1.0000
  Ga  Ga6       1.0  0.01302  0.99997  0.04138  1.0000
  Ga  Ga7       1.0  0.45418  0.25565  0.13306  1.0000
  Ga  Ga8       1.0  0.45428  0.74433  0.13306  1.0000
  Pd  Pd1       1.0  0.25000  0.00000  0.95800  1.0000
  Pd  Pd2       1.0  0.25000  0.50000  0.95800  1.0000
  Pd  Pd3       1.0  0.75000  0.25000  0.87400  1.0000
  Pd  Pd4       1.0  0.75000  0.75000  0.87400  1.0000
  Pd  Pd5       1.0  0.22430  0.49998  0.12281  1.0000
  Pd  Pd6       1.0  0.24439  0.99995  0.12407  1.0000
  Pd  Pd7       1.0  0.74721  0.73916  0.03494  1.0000
  Pd  Pd8       1.0  0.74726  0.26083  0.03495  1.0000
  C   C1        1.0  0.87502  0.99998  0.12065  1.0000
