data_image0
_chemical_formula_structural       Zr8Ga8Ni16CO
_chemical_formula_sum              "Zr8 Ga8 Ni16 C1 O1"
_cell_length_a       6.14888
_cell_length_b       8.69583
_cell_length_c       26.5219
_cell_angle_alpha    90
_cell_angle_beta     90
_cell_angle_gamma    90

_space_group_name_H-M_alt    "P 1"
_space_group_IT_number       1

loop_
  _space_group_symop_operation_xyz
  'x, y, z'

loop_
  _atom_site_type_symbol
  _atom_site_label
  _atom_site_symmetry_multiplicity
  _atom_site_fract_x
  _atom_site_fract_y
  _atom_site_fract_z
  _atom_site_occupancy
  Zr  Zr1       1.0  0.00000  0.00000  0.87705  1.0000
  Zr  Zr2       1.0  0.50000  0.25000  0.95902  1.0000
  Zr  Zr3       1.0  0.50000  0.75000  0.95902  1.0000
  Zr  Zr4       1.0  0.00000  0.50000  0.87705  1.0000
  Zr  Zr5       1.0  0.00027  0.49996  0.03933  1.0000
  Zr  Zr6       1.0  0.50156  0.75106  0.12719  1.0000
  Zr  Zr7       1.0  0.50160  0.24897  0.12715  1.0000
  Zr  Zr8       1.0  0.00333  0.00003  0.04077  1.0000
  Ga  Ga1       1.0  0.00000  0.75000  0.95902  1.0000
  Ga  Ga2       1.0  0.50000  0.00000  0.87705  1.0000
  Ga  Ga3       1.0  0.00000  0.25000  0.95902  1.0000
  Ga  Ga4       1.0  0.50000  0.50000  0.87705  1.0000
  Ga  Ga5       1.0  0.99803  0.25433  0.12076  1.0000
  Ga  Ga6       1.0  0.50127  0.50007  0.04220  1.0000
  Ga  Ga7       1.0  0.99799  0.74573  0.12071  1.0000
  Ga  Ga8       1.0  0.49827  0.99993  0.04440  1.0000
  Ni  Ni1       1.0  0.25000  0.00000  0.95902  1.0000
  Ni  Ni2       1.0  0.75000  0.50000  0.95902  1.0000
  Ni  Ni3       1.0  0.75000  0.00000  0.95902  1.0000
  Ni  Ni4       1.0  0.25000  0.50000  0.95902  1.0000
  Ni  Ni5       1.0  0.75000  0.75000  0.87705  1.0000
  Ni  Ni6       1.0  0.25000  0.25000  0.87705  1.0000
  Ni  Ni7       1.0  0.25000  0.75000  0.87705  1.0000
  Ni  Ni8       1.0  0.75000  0.25000  0.87705  1.0000
  Ni  Ni9       1.0  0.24301  0.50004  0.11776  1.0000
  Ni  Ni10      1.0  0.77081  0.00000  0.11798  1.0000
  Ni  Ni11      1.0  0.75830  0.50003  0.11843  1.0000
  Ni  Ni12      1.0  0.22751  0.99999  0.13082  1.0000
  Ni  Ni13      1.0  0.73084  0.24904  0.04425  1.0000
  Ni  Ni14      1.0  0.27270  0.75036  0.04551  1.0000
  Ni  Ni15      1.0  0.27272  0.24959  0.04550  1.0000
  Ni  Ni16      1.0  0.73075  0.75092  0.04427  1.0000
  C   C1        1.0  0.31533  0.99999  0.19405  1.0000
  O   O1        1.0  0.35156  0.00003  0.23732  1.0000
