# generated using pymatgen
data_Zr8Ga8Ni16CO
_symmetry_space_group_name_H-M   'P 1'
_cell_length_a   6.14888000
_cell_length_b   8.69583000
_cell_length_c   26.52190000
_cell_angle_alpha   90.00000000
_cell_angle_beta   90.00000000
_cell_angle_gamma   90.00000000
_symmetry_Int_Tables_number   1
_chemical_formula_structural   Zr8Ga8Ni16CO
_chemical_formula_sum   'Zr8 Ga8 Ni16 C1 O1'
_cell_volume   1418.11578659
_cell_formula_units_Z   1
loop_
 _symmetry_equiv_pos_site_id
 _symmetry_equiv_pos_as_xyz
  1  'x, y, z'
loop_
 _atom_site_type_symbol
 _atom_site_label
 _atom_site_symmetry_multiplicity
 _atom_site_fract_x
 _atom_site_fract_y
 _atom_site_fract_z
 _atom_site_occupancy
  Zr  Zr0  1  0.00000000  0.00000000  0.87705000  1.0
  Zr  Zr1  1  0.50000000  0.25000000  0.95902000  1.0
  Zr  Zr2  1  0.50000000  0.75000000  0.95902000  1.0
  Zr  Zr3  1  1.00000000  0.50000000  0.87705000  1.0
  Zr  Zr4  1  0.00027000  0.49996000  0.03933000  1.0
  Zr  Zr5  1  0.50156000  0.75106000  0.12719000  1.0
  Zr  Zr6  1  0.50160000  0.24897000  0.12715000  1.0
  Zr  Zr7  1  0.00333000  0.00003000  0.04077000  1.0
  Ga  Ga8  1  1.00000000  0.75000000  0.95902000  1.0
  Ga  Ga9  1  0.50000000  0.00000000  0.87705000  1.0
  Ga  Ga10  1  1.00000000  0.25000000  0.95902000  1.0
  Ga  Ga11  1  0.50000000  0.50000000  0.87705000  1.0
  Ga  Ga12  1  0.99803000  0.25433000  0.12076000  1.0
  Ga  Ga13  1  0.50127000  0.50007000  0.04220000  1.0
  Ga  Ga14  1  0.99799000  0.74573000  0.12071000  1.0
  Ga  Ga15  1  0.49827000  0.99993000  0.04440000  1.0
  Ni  Ni16  1  0.25000000  0.00000000  0.95902000  1.0
  Ni  Ni17  1  0.75000000  0.50000000  0.95902000  1.0
  Ni  Ni18  1  0.75000000  0.00000000  0.95902000  1.0
  Ni  Ni19  1  0.25000000  0.50000000  0.95902000  1.0
  Ni  Ni20  1  0.75000000  0.75000000  0.87705000  1.0
  Ni  Ni21  1  0.25000000  0.25000000  0.87705000  1.0
  Ni  Ni22  1  0.25000000  0.75000000  0.87705000  1.0
  Ni  Ni23  1  0.75000000  0.25000000  0.87705000  1.0
  Ni  Ni24  1  0.24301000  0.50004000  0.11776000  1.0
  Ni  Ni25  1  0.77081000  0.00000000  0.11798000  1.0
  Ni  Ni26  1  0.75830000  0.50003000  0.11843000  1.0
  Ni  Ni27  1  0.22751000  0.99999000  0.13082000  1.0
  Ni  Ni28  1  0.73084000  0.24904000  0.04425000  1.0
  Ni  Ni29  1  0.27270000  0.75036000  0.04551000  1.0
  Ni  Ni30  1  0.27272000  0.24959000  0.04550000  1.0
  Ni  Ni31  1  0.73075000  0.75092000  0.04427000  1.0
  C  C32  1  0.31533000  0.99999000  0.19405000  1.0
  O  O33  1  0.35156000  0.00003000  0.23732000  1.0
