data_image0
_chemical_formula_structural       Li8Bi4Au4CO
_chemical_formula_sum              "Li8 Bi4 Au4 C1 O1"
_cell_length_a       6.87958
_cell_length_b       6.87958
_cell_length_c       25.1597
_cell_angle_alpha    90
_cell_angle_beta     90
_cell_angle_gamma    90

_space_group_name_H-M_alt    "P 1"
_space_group_IT_number       1

loop_
  _space_group_symop_operation_xyz
  'x, y, z'

loop_
  _atom_site_type_symbol
  _atom_site_label
  _atom_site_symmetry_multiplicity
  _atom_site_fract_x
  _atom_site_fract_y
  _atom_site_fract_z
  _atom_site_occupancy
  Li  Li1       1.0  0.00000  0.00000  0.96582  1.0000
  Li  Li2       1.0  0.50000  1.00000  0.10251  1.0000
  Li  Li3       1.0  1.00000  0.50000  0.10251  1.0000
  Li  Li4       1.0  0.50000  0.50000  0.96582  1.0000
  Li  Li5       1.0  0.25000  0.25000  0.89746  1.0000
  Li  Li6       1.0  0.25525  0.74475  0.04023  1.0000
  Li  Li7       1.0  0.75000  0.75000  0.89746  1.0000
  Li  Li8       1.0  0.74475  0.25525  0.04023  1.0000
  Bi  Bi1       1.0  1.00000  1.00000  0.10251  1.0000
  Bi  Bi2       1.0  0.50000  0.50000  0.10769  1.0000
  Bi  Bi3       1.0  0.50000  0.00000  0.96582  1.0000
  Bi  Bi4       1.0  0.00000  0.50000  0.96582  1.0000
  Au  Au1       1.0  0.25604  0.25605  0.04060  1.0000
  Au  Au2       1.0  0.25000  0.75000  0.89746  1.0000
  Au  Au3       1.0  0.74395  0.74393  0.04060  1.0000
  Au  Au4       1.0  0.75000  0.25000  0.89746  1.0000
  C   C1        1.0  0.00014  0.00015  0.28418  1.0000
  O   O1        1.0  0.99993  0.99991  0.32929  1.0000
