# generated using pymatgen
data_Li16Mg8Pb8CO
_symmetry_space_group_name_H-M   Pm
_cell_length_a   9.73748000
_cell_length_b   6.88544000
_cell_length_c   27.30310000
_cell_angle_alpha   90.00000000
_cell_angle_beta   90.00000000
_cell_angle_gamma   90.00000000
_symmetry_Int_Tables_number   6
_chemical_formula_structural   Li16Mg8Pb8CO
_chemical_formula_sum   'Li16 Mg8 Pb8 C1 O1'
_cell_volume   1830.58642134
_cell_formula_units_Z   1
loop_
 _symmetry_equiv_pos_site_id
 _symmetry_equiv_pos_as_xyz
  1  'x, y, z'
  2  'x, -y, z'
loop_
 _atom_site_type_symbol
 _atom_site_label
 _atom_site_symmetry_multiplicity
 _atom_site_fract_x
 _atom_site_fract_y
 _atom_site_fract_z
 _atom_site_occupancy
  Li  Li0  2  0.00000000  0.25001000  0.95542000  1.0
  Li  Li1  2  0.00025000  0.23267000  0.13947000  1.0
  Li  Li2  2  0.24999000  0.24506000  0.04188000  1.0
  Li  Li3  2  0.25000000  0.25001000  0.86626000  1.0
  Li  Li4  2  0.49974000  0.23269000  0.13948000  1.0
  Li  Li5  2  0.50000000  0.24999000  0.95542000  1.0
  Li  Li6  2  0.74999000  0.24574000  0.04214000  1.0
  Li  Li7  2  0.75000000  0.24999000  0.86626000  1.0
  Mg  Mg8  1  0.00000000  0.00000000  0.86626000  1.0
  Mg  Mg9  1  0.24999000  0.50000000  0.12965000  1.0
  Mg  Mg10  1  0.25000000  0.50000000  0.95542000  1.0
  Mg  Mg11  1  0.50000000  0.00000000  0.86626000  1.0
  Mg  Mg12  1  0.50074000  0.00000000  0.04962000  1.0
  Mg  Mg13  1  0.74999000  0.50000000  0.13011000  1.0
  Mg  Mg14  1  0.75000000  0.50000000  0.95542000  1.0
  Mg  Mg15  1  0.99922000  0.00000000  0.04962000  1.0
  Pb  Pb16  1  0.00000000  0.50000000  0.86626000  1.0
  Pb  Pb17  1  0.00017000  0.50000000  0.04868000  1.0
  Pb  Pb18  1  0.24999000  0.00000000  0.13283000  1.0
  Pb  Pb19  1  0.25000000  0.00000000  0.95542000  1.0
  Pb  Pb20  1  0.49982000  0.50000000  0.04868000  1.0
  Pb  Pb21  1  0.50000000  0.50000000  0.86626000  1.0
  Pb  Pb22  1  0.75000000  0.00000000  0.13321000  1.0
  Pb  Pb23  1  0.75000000  0.00000000  0.95542000  1.0
  C  C24  1  0.25016000  0.00000000  0.29532000  1.0
  O  O25  1  0.24998000  0.00000000  0.33686000  1.0
