# generated using pymatgen
data_ScGaGePd
_symmetry_space_group_name_H-M   P1
_cell_length_a   5.81182000
_cell_length_b   8.08666000
_cell_length_c   24.34090000
_cell_angle_alpha   90.00000000
_cell_angle_beta   90.00000000
_cell_angle_gamma   90.00000000
_symmetry_Int_Tables_number   1
_chemical_formula_structural   ScGaGePd
_chemical_formula_sum   'Sc4 Ga4 Ge4 Pd4'
_cell_volume   1143.97878629
_cell_formula_units_Z   4
loop_
 _symmetry_equiv_pos_site_id
 _symmetry_equiv_pos_as_xyz
  1  'x, y, z'
loop_
 _atom_site_type_symbol
 _atom_site_label
 _atom_site_symmetry_multiplicity
 _atom_site_fract_x
 _atom_site_fract_y
 _atom_site_fract_z
 _atom_site_occupancy
  Sc  Sc0  1  0.16449000  0.24981000  0.08472000  1.0
  Sc  Sc1  1  0.16453000  0.75024000  0.08462000  1.0
  Sc  Sc2  1  0.72730000  0.25000000  0.97028000  1.0
  Sc  Sc3  1  0.72730000  0.75000000  0.97028000  1.0
  Ga  Ga4  1  0.00000000  0.00000000  0.91083000  1.0
  Ga  Ga5  1  0.00000000  0.50000000  0.91083000  1.0
  Ga  Ga6  1  0.43480000  0.00011000  0.02718000  1.0
  Ga  Ga7  1  0.43493000  0.49994000  0.02728000  1.0
  Ge  Ge8  1  0.50000000  0.00000000  0.91083000  1.0
  Ge  Ge9  1  0.50000000  0.50000000  0.91083000  1.0
  Ge  Ge10  1  0.93692000  0.00001000  0.03531000  1.0
  Ge  Ge11  1  0.93704000  0.50003000  0.03539000  1.0
  Pd  Pd12  1  0.22730000  0.25000000  0.97028000  1.0
  Pd  Pd13  1  0.22730000  0.75000000  0.97028000  1.0
  Pd  Pd14  1  0.65020000  0.75020000  0.07753000  1.0
  Pd  Pd15  1  0.65094000  0.24993000  0.07763000  1.0
