# generated using pymatgen
data_Y4Ga4Sn4Pd4CO
_symmetry_space_group_name_H-M   Pm
_cell_length_a   6.16320000
_cell_length_b   8.82498000
_cell_length_c   24.61890000
_cell_angle_alpha   90.00000000
_cell_angle_beta   90.00000000
_cell_angle_gamma   90.00000000
_symmetry_Int_Tables_number   6
_chemical_formula_structural   Y4Ga4Sn4Pd4CO
_chemical_formula_sum   'Y4 Ga4 Sn4 Pd4 C1 O1'
_cell_volume   1339.02484491
_cell_formula_units_Z   1
loop_
 _symmetry_equiv_pos_site_id
 _symmetry_equiv_pos_as_xyz
  1  'x, y, z'
  2  'x, -y, z'
loop_
 _atom_site_type_symbol
 _atom_site_label
 _atom_site_symmetry_multiplicity
 _atom_site_fract_x
 _atom_site_fract_y
 _atom_site_fract_z
 _atom_site_occupancy
  Y  Y0  2  0.50000000  0.25000000  0.90619000  1.0
  Y  Y1  2  0.98062000  0.25000000  0.03127000  1.0
  Ga  Ga2  2  0.00000000  0.25000000  0.90619000  1.0
  Ga  Ga3  2  0.48062000  0.25000000  0.03127000  1.0
  Sn  Sn4  1  0.24031000  0.00000000  0.96873000  1.0
  Sn  Sn5  1  0.24031000  0.50000000  0.96873000  1.0
  Sn  Sn6  1  0.72093000  0.00000000  0.09381000  1.0
  Sn  Sn7  1  0.72093000  0.50000000  0.09381000  1.0
  Pd  Pd8  1  0.22093000  0.00000000  0.09381000  1.0
  Pd  Pd9  1  0.22093000  0.50000000  0.09381000  1.0
  Pd  Pd10  1  0.74031000  0.00000000  0.96873000  1.0
  Pd  Pd11  1  0.74031000  0.50000000  0.96873000  1.0
  C  C12  1  0.22093000  0.00000000  0.17098000  1.0
  O  O13  1  0.22093000  0.00000000  0.21770000  1.0
