# generated using pymatgen
data_Y16In16C
_symmetry_space_group_name_H-M   Pmm2
_cell_length_a   7.55034000
_cell_length_b   10.67780000
_cell_length_c   28.00830000
_cell_angle_alpha   90.00000000
_cell_angle_beta   90.00000000
_cell_angle_gamma   90.00000000
_symmetry_Int_Tables_number   25
_chemical_formula_structural   Y16In16C
_chemical_formula_sum   'Y16 In16 C1'
_cell_volume   2258.05772713
_cell_formula_units_Z   1
loop_
 _symmetry_equiv_pos_site_id
 _symmetry_equiv_pos_as_xyz
  1  'x, y, z'
  2  '-x, -y, z'
  3  '-x, y, z'
  4  'x, -y, z'
loop_
 _atom_site_type_symbol
 _atom_site_label
 _atom_site_symmetry_multiplicity
 _atom_site_fract_x
 _atom_site_fract_y
 _atom_site_fract_z
 _atom_site_occupancy
  Y  Y0  4  0.24612000  0.25129000  0.04710000  1.0
  Y  Y1  4  0.25000000  0.24999000  0.85704000  1.0
  Y  Y2  2  0.23489000  0.00000000  0.14395000  1.0
  Y  Y3  2  0.25000000  0.00000000  0.95235000  1.0
  Y  Y4  2  0.25000000  0.50000000  0.95235000  1.0
  Y  Y5  2  0.26003000  0.50000000  0.14748000  1.0
  In  In6  2  0.00000000  0.24999000  0.95235000  1.0
  In  In7  2  0.00000000  0.25833000  0.15282000  1.0
  In  In8  2  0.50000000  0.23884000  0.14229000  1.0
  In  In9  2  0.50000000  0.24999000  0.95235000  1.0
  In  In10  1  0.00000000  0.00000000  0.04931000  1.0
  In  In11  1  0.00000000  0.00000000  0.85704000  1.0
  In  In12  1  0.00000000  0.50000000  0.05292000  1.0
  In  In13  1  0.00000000  0.50000000  0.85704000  1.0
  In  In14  1  0.50000000  0.00000000  0.04971000  1.0
  In  In15  1  0.50000000  0.00000000  0.85704000  1.0
  In  In16  1  0.50000000  0.50000000  0.04852000  1.0
  In  In17  1  0.50000000  0.50000000  0.85704000  1.0
  C  C18  1  0.00000000  0.50000000  0.18042000  1.0
