# generated using pymatgen
data_Li8Ca8Ge8Pd8C
_symmetry_space_group_name_H-M   P1
_cell_length_a   6.62107000
_cell_length_b   9.36360000
_cell_length_c   27.02270000
_cell_angle_alpha   90.00000000
_cell_angle_beta   90.00000000
_cell_angle_gamma   90.00000000
_symmetry_Int_Tables_number   1
_chemical_formula_structural   Li8Ca8Ge8Pd8C
_chemical_formula_sum   'Li8 Ca8 Ge8 Pd8 C1'
_cell_volume   1675.32771146
_cell_formula_units_Z   1
loop_
 _symmetry_equiv_pos_site_id
 _symmetry_equiv_pos_as_xyz
  1  'x, y, z'
loop_
 _atom_site_type_symbol
 _atom_site_label
 _atom_site_symmetry_multiplicity
 _atom_site_fract_x
 _atom_site_fract_y
 _atom_site_fract_z
 _atom_site_occupancy
  Li  Li0  1  0.25000000  0.25000000  0.87006000  1.0
  Li  Li1  1  0.25000000  0.75000000  0.87006000  1.0
  Li  Li2  1  0.28089000  0.74929000  0.05826000  1.0
  Li  Li3  1  0.28096000  0.25069000  0.05827000  1.0
  Li  Li4  1  0.71205000  0.99999000  0.12252000  1.0
  Li  Li5  1  0.75000000  0.00000000  0.95669000  1.0
  Li  Li6  1  0.75000000  0.50000000  0.95669000  1.0
  Li  Li7  1  0.99954000  0.50001000  0.18300000  1.0
  Ca  Ca8  1  0.00000000  0.00000000  0.87006000  1.0
  Ca  Ca9  1  0.00000000  0.50000000  0.87006000  1.0
  Ca  Ca10  1  0.50000000  0.25000000  0.95669000  1.0
  Ca  Ca11  1  0.50000000  0.75000000  0.95669000  1.0
  Ca  Ca12  1  0.50660000  0.72636000  0.15873000  1.0
  Ca  Ca13  1  0.50661000  0.27340000  0.15880000  1.0
  Ca  Ca14  1  0.96319000  0.49999000  0.05057000  1.0
  Ca  Ca15  1  0.98964000  0.00003000  0.04166000  1.0
  Ge  Ge16  1  0.00000000  0.25000000  0.95669000  1.0
  Ge  Ge17  1  0.00000000  0.75000000  0.95669000  1.0
  Ge  Ge18  1  0.49447000  0.50004000  0.04066000  1.0
  Ge  Ge19  1  0.50000000  0.00000000  0.87006000  1.0
  Ge  Ge20  1  0.50000000  0.50000000  0.87006000  1.0
  Ge  Ge21  1  0.50182000  0.00000000  0.03724000  1.0
  Ge  Ge22  1  0.97663000  0.20991000  0.13517000  1.0
  Ge  Ge23  1  0.97667000  0.79022000  0.13518000  1.0
  Pd  Pd24  1  0.25000000  0.00000000  0.95669000  1.0
  Pd  Pd25  1  0.25000000  0.50000000  0.95669000  1.0
  Pd  Pd26  1  0.28583000  0.49975000  0.12004000  1.0
  Pd  Pd27  1  0.31142000  0.99988000  0.12004000  1.0
  Pd  Pd28  1  0.69387000  0.24323000  0.05868000  1.0
  Pd  Pd29  1  0.69394000  0.75682000  0.05866000  1.0
  Pd  Pd30  1  0.75000000  0.25000000  0.87006000  1.0
  Pd  Pd31  1  0.75000000  0.75000000  0.87006000  1.0
  C  C32  1  0.01739000  0.00007000  0.14233000  1.0
