# generated using pymatgen
data_Ca4Pb12C
_symmetry_space_group_name_H-M   'P 1'
_cell_length_a   7.10117000
_cell_length_b   10.04260000
_cell_length_c   25.32590000
_cell_angle_alpha   90.00000000
_cell_angle_beta   90.00000000
_cell_angle_gamma   90.00000000
_symmetry_Int_Tables_number   1
_chemical_formula_structural   Ca4Pb12C
_chemical_formula_sum   'Ca4 Pb12 C1'
_cell_volume   1806.09654704
_cell_formula_units_Z   1
loop_
 _symmetry_equiv_pos_site_id
 _symmetry_equiv_pos_as_xyz
  1  'x, y, z'
loop_
 _atom_site_type_symbol
 _atom_site_label
 _atom_site_symmetry_multiplicity
 _atom_site_fract_x
 _atom_site_fract_y
 _atom_site_fract_z
 _atom_site_occupancy
  Ca  Ca0  1  0.50000000  0.50000000  0.10515000  1.0
  Ca  Ca1  1  0.00000000  0.50000000  0.98308000  1.0
  Ca  Ca2  1  0.50000000  0.00000000  0.10515000  1.0
  Ca  Ca3  1  0.00000000  0.00000000  0.96089000  1.0
  Pb  Pb4  1  0.00000000  0.50000000  0.10515000  1.0
  Pb  Pb5  1  0.25001000  0.75001000  0.03505000  1.0
  Pb  Pb6  1  0.74999000  0.75001000  0.03505000  1.0
  Pb  Pb7  1  0.50000000  0.50000000  0.96759000  1.0
  Pb  Pb8  1  0.76813000  0.68620000  0.88940000  1.0
  Pb  Pb9  1  0.23187000  0.68620000  0.88940000  1.0
  Pb  Pb10  1  0.00000000  0.00000000  0.10515000  1.0
  Pb  Pb11  1  0.25001000  0.24999000  0.03505000  1.0
  Pb  Pb12  1  0.74999000  0.24999000  0.03505000  1.0
  Pb  Pb13  1  0.50000000  0.00000000  0.96120000  1.0
  Pb  Pb14  1  0.76813000  0.31380000  0.88940000  1.0
  Pb  Pb15  1  0.23187000  0.31380000  0.88940000  1.0
  C  C16  1  0.00000000  0.50000000  0.88948000  1.0
