# generated using pymatgen
data_Li8Cu8Ag8Sn8CO
_symmetry_space_group_name_H-M   Pm
_cell_length_a   6.43603000
_cell_length_b   9.10192000
_cell_length_c   26.82640000
_cell_angle_alpha   90.00000000
_cell_angle_beta   90.00000000
_cell_angle_gamma   90.00000000
_symmetry_Int_Tables_number   6
_chemical_formula_structural   Li8Cu8Ag8Sn8CO
_chemical_formula_sum   'Li8 Cu8 Ag8 Sn8 C1 O1'
_cell_volume   1571.49668684
_cell_formula_units_Z   1
loop_
 _symmetry_equiv_pos_site_id
 _symmetry_equiv_pos_as_xyz
  1  'x, y, z'
  2  'x, -y, z'
loop_
 _atom_site_type_symbol
 _atom_site_label
 _atom_site_symmetry_multiplicity
 _atom_site_fract_x
 _atom_site_fract_y
 _atom_site_fract_z
 _atom_site_occupancy
  Li  Li0  2  0.24793000  0.25119000  0.14045000  1.0
  Li  Li1  2  0.25000000  0.25000000  0.95759000  1.0
  Li  Li2  1  0.75000000  0.00000000  0.87277000  1.0
  Li  Li3  1  0.75000000  0.50000000  0.87277000  1.0
  Li  Li4  1  0.75241000  0.00000000  0.04463000  1.0
  Li  Li5  1  0.76067000  0.50000000  0.04447000  1.0
  Cu  Cu6  2  0.75000000  0.25000000  0.95759000  1.0
  Cu  Cu7  2  0.76627000  0.24893000  0.12423000  1.0
  Cu  Cu8  1  0.23857000  0.50000000  0.04516000  1.0
  Cu  Cu9  1  0.24434000  0.00000000  0.04416000  1.0
  Cu  Cu10  1  0.25000000  0.00000000  0.87277000  1.0
  Cu  Cu11  1  0.25000000  0.50000000  0.87277000  1.0
  Ag  Ag12  2  0.00000000  0.25000000  0.87277000  1.0
  Ag  Ag13  2  0.00805000  0.24818000  0.04297000  1.0
  Ag  Ag14  1  0.50000000  0.00000000  0.95759000  1.0
  Ag  Ag15  1  0.50000000  0.50000000  0.95759000  1.0
  Ag  Ag16  1  0.50590000  0.00000000  0.12774000  1.0
  Ag  Ag17  1  0.51116000  0.50000000  0.12666000  1.0
  Sn  Sn18  2  0.49123000  0.25138000  0.04670000  1.0
  Sn  Sn19  2  0.50000000  0.25000000  0.87277000  1.0
  Sn  Sn20  1  0.00000000  0.00000000  0.95759000  1.0
  Sn  Sn21  1  0.00000000  0.50000000  0.95759000  1.0
  Sn  Sn22  1  0.98803000  0.50000000  0.13707000  1.0
  Sn  Sn23  1  0.99146000  0.00000000  0.13600000  1.0
  C  C24  1  0.91894000  0.00000000  0.28261000  1.0
  O  O25  1  0.04931000  0.00000000  0.31115000  1.0
