# generated using pymatgen
data_Ti4Ni8Sb4CO
_symmetry_space_group_name_H-M   Cmm2
_cell_length_a   8.69561736
_cell_length_b   8.69561736
_cell_length_c   24.61150000
_cell_angle_alpha   90.00000000
_cell_angle_beta   90.00000000
_cell_angle_gamma   90.00000000
_symmetry_Int_Tables_number   35
_chemical_formula_structural   Ti4Ni8Sb4CO
_chemical_formula_sum   'Ti8 Ni16 Sb8 C2 O2'
_cell_volume   1860.96808441
_cell_formula_units_Z   2
loop_
 _symmetry_equiv_pos_site_id
 _symmetry_equiv_pos_as_xyz
  1  'x, y, z'
  2  '-x, -y, z'
  3  '-x, y, z'
  4  'x, -y, z'
  5  'x+1/2, y+1/2, z'
  6  '-x+1/2, -y+1/2, z'
  7  '-x+1/2, y+1/2, z'
  8  'x+1/2, -y+1/2, z'
loop_
 _atom_site_type_symbol
 _atom_site_label
 _atom_site_symmetry_multiplicity
 _atom_site_fract_x
 _atom_site_fract_y
 _atom_site_fract_z
 _atom_site_occupancy
  Ti  Ti0  4  0.00000000  0.25000000  0.90631000  1.0
  Ti  Ti1  4  0.25000000  0.00000000  0.03123000  1.0
  Ni  Ni2  4  0.25000000  0.25000000  0.09369000  1.0
  Ni  Ni3  4  0.25000000  0.25000000  0.96877000  1.0
  Ni  Ni4  2  0.00000000  0.00000000  0.09369000  1.0
  Ni  Ni5  2  0.00000000  0.00000000  0.96877000  1.0
  Ni  Ni6  2  0.00000000  0.50000000  0.09369000  1.0
  Ni  Ni7  2  0.00000000  0.50000000  0.96877000  1.0
  Sb  Sb8  4  0.00000000  0.25000000  0.03123000  1.0
  Sb  Sb9  4  0.25000000  0.00000000  0.90631000  1.0
  C  C10  2  0.00000000  0.50000000  0.17089000  1.0
  O  O11  2  0.00000000  0.50000000  0.21761000  1.0
