# generated using pymatgen
data_Y4Sn4Ge4Pd4CO
_symmetry_space_group_name_H-M   'P 1'
_cell_length_a   9.60308000
_cell_length_b   5.93056000
_cell_length_c   24.43880000
_cell_angle_alpha   90.00000000
_cell_angle_beta   90.00000000
_cell_angle_gamma   90.00000000
_symmetry_Int_Tables_number   1
_chemical_formula_structural   Y4Sn4Ge4Pd4CO
_chemical_formula_sum   'Y4 Sn4 Ge4 Pd4 C1 O1'
_cell_volume   1391.82979156
_cell_formula_units_Z   1
loop_
 _symmetry_equiv_pos_site_id
 _symmetry_equiv_pos_as_xyz
  1  'x, y, z'
loop_
 _atom_site_type_symbol
 _atom_site_label
 _atom_site_symmetry_multiplicity
 _atom_site_fract_x
 _atom_site_fract_y
 _atom_site_fract_z
 _atom_site_occupancy
  Y  Y0  1  0.74998000  0.50000000  0.09081000  1.0
  Y  Y1  1  0.75305000  0.95790000  0.96651000  1.0
  Y  Y2  1  0.25002000  0.50000000  0.09081000  1.0
  Y  Y3  1  0.24695000  0.95790000  0.96651000  1.0
  Sn  Sn4  1  0.00000000  0.23402000  0.03027000  1.0
  Sn  Sn5  1  0.00000000  0.61686000  0.91657000  1.0
  Sn  Sn6  1  0.50000000  0.23402000  0.03027000  1.0
  Sn  Sn7  1  0.50000000  0.70084000  0.90469000  1.0
  Ge  Ge8  1  0.74998000  0.00000000  0.09081000  1.0
  Ge  Ge9  1  0.71656000  0.46447000  0.95865000  1.0
  Ge  Ge10  1  0.25002000  0.00000000  0.09081000  1.0
  Ge  Ge11  1  0.28344000  0.46447000  0.95865000  1.0
  Pd  Pd12  1  0.00000000  0.73402000  0.03027000  1.0
  Pd  Pd13  1  0.00000000  0.13984000  0.92031000  1.0
  Pd  Pd14  1  0.50000000  0.73402000  0.03027000  1.0
  Pd  Pd15  1  0.50000000  0.19362000  0.92001000  1.0
  C  C16  1  0.00000000  0.61099000  0.75823000  1.0
  O  O17  1  0.00000000  0.75221000  0.72686000  1.0
