# generated using pymatgen
data_Y4Sn4Ge4Pd4CO
_symmetry_space_group_name_H-M   Pm
_cell_length_a   5.93056000
_cell_length_b   9.60308000
_cell_length_c   24.43880000
_cell_angle_alpha   90.00000000
_cell_angle_beta   90.00000000
_cell_angle_gamma   90.00000000
_symmetry_Int_Tables_number   6
_chemical_formula_structural   Y4Sn4Ge4Pd4CO
_chemical_formula_sum   'Y4 Sn4 Ge4 Pd4 C1 O1'
_cell_volume   1391.82979156
_cell_formula_units_Z   1
loop_
 _symmetry_equiv_pos_site_id
 _symmetry_equiv_pos_as_xyz
  1  'x, y, z'
  2  'x, -y, z'
loop_
 _atom_site_type_symbol
 _atom_site_label
 _atom_site_symmetry_multiplicity
 _atom_site_fract_x
 _atom_site_fract_y
 _atom_site_fract_z
 _atom_site_occupancy
  Y  Y0  2  0.50000000  0.25002000  0.90919000  1.0
  Y  Y1  2  0.95790000  0.24695000  0.03349000  1.0
  Sn  Sn2  1  0.23402000  0.00000000  0.96973000  1.0
  Sn  Sn3  1  0.23402000  0.50000000  0.96973000  1.0
  Sn  Sn4  1  0.61686000  0.00000000  0.08343000  1.0
  Sn  Sn5  1  0.70084000  0.50000000  0.09531000  1.0
  Ge  Ge6  2  0.00000000  0.25002000  0.90919000  1.0
  Ge  Ge7  2  0.46447000  0.28344000  0.04135000  1.0
  Pd  Pd8  1  0.13984000  0.00000000  0.07969000  1.0
  Pd  Pd9  1  0.19362000  0.50000000  0.07999000  1.0
  Pd  Pd10  1  0.73402000  0.00000000  0.96973000  1.0
  Pd  Pd11  1  0.73402000  0.50000000  0.96973000  1.0
  C  C12  1  0.61099000  0.00000000  0.24177000  1.0
  O  O13  1  0.75221000  0.00000000  0.27314000  1.0
