# generated using pymatgen
data_Li8Ag8Ge8Pd8C
_symmetry_space_group_name_H-M   'P 1'
_cell_length_a   8.88488000
_cell_length_b   6.28256000
_cell_length_c   26.66370000
_cell_angle_alpha   90.00000000
_cell_angle_beta   90.00000000
_cell_angle_gamma   90.00000000
_symmetry_Int_Tables_number   1
_chemical_formula_structural   Li8Ag8Ge8Pd8C
_chemical_formula_sum   'Li8 Ag8 Ge8 Pd8 C1'
_cell_volume   1488.36217976
_cell_formula_units_Z   1
loop_
 _symmetry_equiv_pos_site_id
 _symmetry_equiv_pos_as_xyz
  1  'x, y, z'
loop_
 _atom_site_type_symbol
 _atom_site_label
 _atom_site_symmetry_multiplicity
 _atom_site_fract_x
 _atom_site_fract_y
 _atom_site_fract_z
 _atom_site_occupancy
  Li  Li0  1  0.00000000  0.25000000  0.04165000  1.0
  Li  Li1  1  0.50000000  0.25000000  0.04165000  1.0
  Li  Li2  1  0.25000000  0.75000000  0.12496000  1.0
  Li  Li3  1  0.75000000  0.75000000  0.12496000  1.0
  Li  Li4  1  0.50000000  0.23311000  0.85933000  1.0
  Li  Li5  1  0.00000000  0.24677000  0.86092000  1.0
  Li  Li6  1  0.74479000  0.73985000  0.95973000  1.0
  Li  Li7  1  0.25521000  0.73985000  0.95973000  1.0
  Ag  Ag8  1  0.00000000  0.00000000  0.12496000  1.0
  Ag  Ag9  1  0.50000000  0.00000000  0.12496000  1.0
  Ag  Ag10  1  0.75000000  0.50000000  0.04165000  1.0
  Ag  Ag11  1  0.25000000  0.50000000  0.04165000  1.0
  Ag  Ag12  1  0.50000000  0.98861000  0.95633000  1.0
  Ag  Ag13  1  0.00000000  0.99759000  0.95545000  1.0
  Ag  Ag14  1  0.25160000  0.51787000  0.87249000  1.0
  Ag  Ag15  1  0.74840000  0.51787000  0.87249000  1.0
  Ge  Ge16  1  0.00000000  0.75000000  0.04165000  1.0
  Ge  Ge17  1  0.50000000  0.75000000  0.04165000  1.0
  Ge  Ge18  1  0.25000000  0.25000000  0.12496000  1.0
  Ge  Ge19  1  0.75000000  0.25000000  0.12496000  1.0
  Ge  Ge20  1  0.50000000  0.76376000  0.86554000  1.0
  Ge  Ge21  1  0.00000000  0.84469000  0.85381000  1.0
  Ge  Ge22  1  0.74721000  0.25278000  0.95854000  1.0
  Ge  Ge23  1  0.25279000  0.25278000  0.95854000  1.0
  Pd  Pd24  1  0.25000000  0.00000000  0.04165000  1.0
  Pd  Pd25  1  0.75000000  0.00000000  0.04165000  1.0
  Pd  Pd26  1  0.50000000  0.50000000  0.12496000  1.0
  Pd  Pd27  1  0.00000000  0.50000000  0.12496000  1.0
  Pd  Pd28  1  0.74226000  0.99633000  0.88298000  1.0
  Pd  Pd29  1  0.25774000  0.99633000  0.88298000  1.0
  Pd  Pd30  1  0.00000000  0.51617000  0.95525000  1.0
  Pd  Pd31  1  0.50000000  0.47953000  0.94354000  1.0
  C  C32  1  0.00000000  0.56113000  0.87481000  1.0
