data_image0
_chemical_formula_structural       Nb4Co8Sn4CO
_chemical_formula_sum              "Nb4 Co8 Sn4 C1 O1"
_cell_length_a       6.19479
_cell_length_b       6.19479
_cell_length_c       24.6461
_cell_angle_alpha    90
_cell_angle_beta     90
_cell_angle_gamma    90

_space_group_name_H-M_alt    "P 1"
_space_group_IT_number       1

loop_
  _space_group_symop_operation_xyz
  'x, y, z'

loop_
  _atom_site_type_symbol
  _atom_site_label
  _atom_site_symmetry_multiplicity
  _atom_site_fract_x
  _atom_site_fract_y
  _atom_site_fract_z
  _atom_site_occupancy
  Nb  Nb1       1.0  0.00002  1.00000  0.09010  1.0000
  Nb  Nb2       1.0  0.49999  0.49998  0.09009  1.0000
  Nb  Nb3       1.0  0.50000  0.00000  0.96858  1.0000
  Nb  Nb4       1.0  0.00000  0.50000  0.96858  1.0000
  Co  Co1       1.0  0.25073  0.24924  0.03493  1.0000
  Co  Co2       1.0  0.75000  0.75000  0.90574  1.0000
  Co  Co3       1.0  0.74929  0.24922  0.03495  1.0000
  Co  Co4       1.0  0.25000  0.75000  0.90574  1.0000
  Co  Co5       1.0  0.74927  0.75079  0.03495  1.0000
  Co  Co6       1.0  0.25000  0.25000  0.90574  1.0000
  Co  Co7       1.0  0.25074  0.75076  0.03494  1.0000
  Co  Co8       1.0  0.75000  0.25000  0.90574  1.0000
  Sn  Sn1       1.0  0.00000  0.00000  0.96858  1.0000
  Sn  Sn2       1.0  0.49998  0.00000  0.10538  1.0000
  Sn  Sn3       1.0  0.00001  0.49999  0.10401  1.0000
  Sn  Sn4       1.0  0.50000  0.50000  0.96858  1.0000
  C   C1        1.0  0.99968  0.50001  0.25886  1.0000
  O   O1        1.0  0.00023  0.49990  0.30489  1.0000
