# generated using pymatgen
data_Nb4Co8Sn4CO
_symmetry_space_group_name_H-M   'P 1'
_cell_length_a   6.19479000
_cell_length_b   6.19479000
_cell_length_c   24.64610000
_cell_angle_alpha   90.00000000
_cell_angle_beta   90.00000000
_cell_angle_gamma   90.00000000
_symmetry_Int_Tables_number   1
_chemical_formula_structural   Nb4Co8Sn4CO
_chemical_formula_sum   'Nb4 Co8 Sn4 C1 O1'
_cell_volume   945.80451635
_cell_formula_units_Z   1
loop_
 _symmetry_equiv_pos_site_id
 _symmetry_equiv_pos_as_xyz
  1  'x, y, z'
loop_
 _atom_site_type_symbol
 _atom_site_label
 _atom_site_symmetry_multiplicity
 _atom_site_fract_x
 _atom_site_fract_y
 _atom_site_fract_z
 _atom_site_occupancy
  Nb  Nb0  1  0.00002000  0.00000000  0.09010000  1.0
  Nb  Nb1  1  0.49999000  0.49998000  0.09009000  1.0
  Nb  Nb2  1  0.50000000  0.00000000  0.96858000  1.0
  Nb  Nb3  1  0.00000000  0.50000000  0.96858000  1.0
  Co  Co4  1  0.25073000  0.24924000  0.03493000  1.0
  Co  Co5  1  0.75000000  0.75000000  0.90574000  1.0
  Co  Co6  1  0.74929000  0.24922000  0.03495000  1.0
  Co  Co7  1  0.25000000  0.75000000  0.90574000  1.0
  Co  Co8  1  0.74927000  0.75079000  0.03495000  1.0
  Co  Co9  1  0.25000000  0.25000000  0.90574000  1.0
  Co  Co10  1  0.25074000  0.75076000  0.03494000  1.0
  Co  Co11  1  0.75000000  0.25000000  0.90574000  1.0
  Sn  Sn12  1  0.00000000  0.00000000  0.96858000  1.0
  Sn  Sn13  1  0.49998000  0.00000000  0.10538000  1.0
  Sn  Sn14  1  0.00001000  0.49999000  0.10401000  1.0
  Sn  Sn15  1  0.50000000  0.50000000  0.96858000  1.0
  C  C16  1  0.99968000  0.50001000  0.25886000  1.0
  O  O17  1  0.00023000  0.49990000  0.30489000  1.0
