# generated using pymatgen
data_Sc4Ga4Ni8CO
_symmetry_space_group_name_H-M   P1
_cell_length_a   6.08368000
_cell_length_b   6.08368000
_cell_length_c   24.56280000
_cell_angle_alpha   90.00000000
_cell_angle_beta   90.00000000
_cell_angle_gamma   90.00000000
_symmetry_Int_Tables_number   1
_chemical_formula_structural   Sc4Ga4Ni8CO
_chemical_formula_sum   'Sc4 Ga4 Ni8 C1 O1'
_cell_volume   909.09777838
_cell_formula_units_Z   1
loop_
 _symmetry_equiv_pos_site_id
 _symmetry_equiv_pos_as_xyz
  1  'x, y, z'
loop_
 _atom_site_type_symbol
 _atom_site_label
 _atom_site_symmetry_multiplicity
 _atom_site_fract_x
 _atom_site_fract_y
 _atom_site_fract_z
 _atom_site_occupancy
  Sc  Sc0  1  -0.00000000  0.50000000  0.96904000  1.0
  Sc  Sc1  1  0.00039000  0.00020000  0.09619000  1.0
  Sc  Sc2  1  0.49949000  0.49951000  0.10038000  1.0
  Sc  Sc3  1  0.50000000  0.00000000  0.96904000  1.0
  Ga  Ga4  1  0.00000000  0.00000000  0.96904000  1.0
  Ga  Ga5  1  0.00015000  0.50026000  0.08986000  1.0
  Ga  Ga6  1  0.50000000  0.50000000  0.96904000  1.0
  Ga  Ga7  1  0.50031000  0.99984000  0.08994000  1.0
  Ni  Ni8  1  0.25000000  0.25000000  0.90712000  1.0
  Ni  Ni9  1  0.25000000  0.75000000  0.90712000  1.0
  Ni  Ni10  1  0.25888000  0.25890000  0.03579000  1.0
  Ni  Ni11  1  0.25927000  0.74124000  0.03585000  1.0
  Ni  Ni12  1  0.74102000  0.74098000  0.03605000  1.0
  Ni  Ni13  1  0.74134000  0.25907000  0.03610000  1.0
  Ni  Ni14  1  0.75000000  0.25000000  0.90712000  1.0
  Ni  Ni15  1  0.75000000  0.75000000  0.90712000  1.0
  C  C16  1  0.99955000  0.00012000  0.19161000  1.0
  O  O17  1  0.99932000  0.99987000  0.23839000  1.0
