# generated using pymatgen
data_Zr8Ni16Sb8CO
_symmetry_space_group_name_H-M   'P 1'
_cell_length_a   8.96645000
_cell_length_b   6.34024000
_cell_length_c   26.72480000
_cell_angle_alpha   90.00000000
_cell_angle_beta   90.00000000
_cell_angle_gamma   90.00000000
_symmetry_Int_Tables_number   1
_chemical_formula_structural   Zr8Ni16Sb8CO
_chemical_formula_sum   'Zr8 Ni16 Sb8 C1 O1'
_cell_volume   1519.29004635
_cell_formula_units_Z   1
loop_
 _symmetry_equiv_pos_site_id
 _symmetry_equiv_pos_as_xyz
  1  'x, y, z'
loop_
 _atom_site_type_symbol
 _atom_site_label
 _atom_site_symmetry_multiplicity
 _atom_site_fract_x
 _atom_site_fract_y
 _atom_site_fract_z
 _atom_site_occupancy
  Zr  Zr0  1  0.00000000  0.00000000  0.12582000  1.0
  Zr  Zr1  1  0.25000000  0.50000000  0.04194000  1.0
  Zr  Zr2  1  0.75000000  0.50000000  0.04194000  1.0
  Zr  Zr3  1  0.50000000  0.00000000  0.12582000  1.0
  Zr  Zr4  1  0.50593000  0.00000000  0.95787000  1.0
  Zr  Zr5  1  0.75000000  0.50000000  0.87117000  1.0
  Zr  Zr6  1  0.25003000  0.50000000  0.87543000  1.0
  Zr  Zr7  1  0.99405000  0.00000000  0.95785000  1.0
  Ni  Ni8  1  0.00000000  0.75000000  0.04194000  1.0
  Ni  Ni9  1  0.50000000  0.25000000  0.04194000  1.0
  Ni  Ni10  1  0.00000000  0.25000000  0.04194000  1.0
  Ni  Ni11  1  0.50000000  0.75000000  0.04194000  1.0
  Ni  Ni12  1  0.75000000  0.25000000  0.12582000  1.0
  Ni  Ni13  1  0.25000000  0.75000000  0.12582000  1.0
  Ni  Ni14  1  0.75000000  0.75000000  0.12582000  1.0
  Ni  Ni15  1  0.25000000  0.25000000  0.12582000  1.0
  Ni  Ni16  1  0.50269000  0.73052000  0.88174000  1.0
  Ni  Ni17  1  0.99738000  0.26952000  0.88170000  1.0
  Ni  Ni18  1  0.50269000  0.26948000  0.88174000  1.0
  Ni  Ni19  1  0.99738000  0.73048000  0.88170000  1.0
  Ni  Ni20  1  0.24994000  0.22416000  0.95710000  1.0
  Ni  Ni21  1  0.75000000  0.73358000  0.95256000  1.0
  Ni  Ni22  1  0.24994000  0.77584000  0.95710000  1.0
  Ni  Ni23  1  0.75000000  0.26642000  0.95256000  1.0
  Sb  Sb24  1  0.75000000  0.00000000  0.04194000  1.0
  Sb  Sb25  1  0.00000000  0.50000000  0.12582000  1.0
  Sb  Sb26  1  0.25000000  0.00000000  0.04194000  1.0
  Sb  Sb27  1  0.50000000  0.50000000  0.12582000  1.0
  Sb  Sb28  1  0.25002000  0.00000000  0.86799000  1.0
  Sb  Sb29  1  0.49513000  0.50000000  0.96079000  1.0
  Sb  Sb30  1  0.75000000  0.00000000  0.86777000  1.0
  Sb  Sb31  1  0.00483000  0.50000000  0.96078000  1.0
  C  C32  1  0.25001000  0.50000000  0.78997000  1.0
  O  O33  1  0.25000000  0.50000000  0.74694000  1.0
