# generated using pymatgen
data_Zr8Ni16Sb8CO
_symmetry_space_group_name_H-M   Pm
_cell_length_a   8.96645000
_cell_length_b   6.34024000
_cell_length_c   26.72480000
_cell_angle_alpha   90.00000000
_cell_angle_beta   90.00000000
_cell_angle_gamma   90.00000000
_symmetry_Int_Tables_number   6
_chemical_formula_structural   Zr8Ni16Sb8CO
_chemical_formula_sum   'Zr8 Ni16 Sb8 C1 O1'
_cell_volume   1519.29004635
_cell_formula_units_Z   1
loop_
 _symmetry_equiv_pos_site_id
 _symmetry_equiv_pos_as_xyz
  1  'x, y, z'
  2  'x, -y, z'
loop_
 _atom_site_type_symbol
 _atom_site_label
 _atom_site_symmetry_multiplicity
 _atom_site_fract_x
 _atom_site_fract_y
 _atom_site_fract_z
 _atom_site_occupancy
  Zr  Zr0  1  0.00000000  0.00000000  0.87418000  1.0
  Zr  Zr1  1  0.25000000  0.50000000  0.95806000  1.0
  Zr  Zr2  1  0.25003000  0.50000000  0.12457000  1.0
  Zr  Zr3  1  0.50000000  0.00000000  0.87418000  1.0
  Zr  Zr4  1  0.50593000  0.00000000  0.04213000  1.0
  Zr  Zr5  1  0.75000000  0.50000000  0.12883000  1.0
  Zr  Zr6  1  0.75000000  0.50000000  0.95806000  1.0
  Zr  Zr7  1  0.99405000  0.00000000  0.04215000  1.0
  Ni  Ni8  2  0.00000000  0.25000000  0.95806000  1.0
  Ni  Ni9  2  0.24994000  0.22416000  0.04290000  1.0
  Ni  Ni10  2  0.25000000  0.25000000  0.87418000  1.0
  Ni  Ni11  2  0.50000000  0.25000000  0.95806000  1.0
  Ni  Ni12  2  0.50269000  0.26948000  0.11826000  1.0
  Ni  Ni13  2  0.75000000  0.25000000  0.87418000  1.0
  Ni  Ni14  2  0.75000000  0.26642000  0.04744000  1.0
  Ni  Ni15  2  0.99738000  0.26952000  0.11830000  1.0
  Sb  Sb16  1  0.00000000  0.50000000  0.87418000  1.0
  Sb  Sb17  1  0.00483000  0.50000000  0.03922000  1.0
  Sb  Sb18  1  0.25000000  0.00000000  0.95806000  1.0
  Sb  Sb19  1  0.25002000  0.00000000  0.13201000  1.0
  Sb  Sb20  1  0.49513000  0.50000000  0.03921000  1.0
  Sb  Sb21  1  0.50000000  0.50000000  0.87418000  1.0
  Sb  Sb22  1  0.75000000  0.00000000  0.13223000  1.0
  Sb  Sb23  1  0.75000000  0.00000000  0.95806000  1.0
  C  C24  1  0.25001000  0.50000000  0.21003000  1.0
  O  O25  1  0.25000000  0.50000000  0.25306000  1.0
