# generated using pymatgen
data_Li8Ag8Ge8Pd8CO
_symmetry_space_group_name_H-M   'P 1'
_cell_length_a   8.88488000
_cell_length_b   6.28256000
_cell_length_c   26.66370000
_cell_angle_alpha   90.00000000
_cell_angle_beta   90.00000000
_cell_angle_gamma   90.00000000
_symmetry_Int_Tables_number   1
_chemical_formula_structural   Li8Ag8Ge8Pd8CO
_chemical_formula_sum   'Li8 Ag8 Ge8 Pd8 C1 O1'
_cell_volume   1488.36217976
_cell_formula_units_Z   1
loop_
 _symmetry_equiv_pos_site_id
 _symmetry_equiv_pos_as_xyz
  1  'x, y, z'
loop_
 _atom_site_type_symbol
 _atom_site_label
 _atom_site_symmetry_multiplicity
 _atom_site_fract_x
 _atom_site_fract_y
 _atom_site_fract_z
 _atom_site_occupancy
  Li  Li0  1  0.00000000  0.25000000  0.04165000  1.0
  Li  Li1  1  0.50000000  0.25000000  0.04165000  1.0
  Li  Li2  1  0.24999000  0.75000000  0.12496000  1.0
  Li  Li3  1  0.75001000  0.75000000  0.12496000  1.0
  Li  Li4  1  0.50000000  0.23335000  0.86703000  1.0
  Li  Li5  1  0.00000000  0.23448000  0.86357000  1.0
  Li  Li6  1  0.75126000  0.74184000  0.96125000  1.0
  Li  Li7  1  0.24874000  0.74184000  0.96125000  1.0
  Ag  Ag8  1  0.00000000  0.00000000  0.12496000  1.0
  Ag  Ag9  1  0.50000000  0.00000000  0.12496000  1.0
  Ag  Ag10  1  0.74999000  0.50000000  0.04165000  1.0
  Ag  Ag11  1  0.25001000  0.50000000  0.04165000  1.0
  Ag  Ag12  1  0.50000000  0.99672000  0.95791000  1.0
  Ag  Ag13  1  0.00000000  0.00112000  0.95754000  1.0
  Ag  Ag14  1  0.25290000  0.51732000  0.87356000  1.0
  Ag  Ag15  1  0.74710000  0.51732000  0.87356000  1.0
  Ge  Ge16  1  0.00000000  0.75000000  0.04165000  1.0
  Ge  Ge17  1  0.50000000  0.75000000  0.04165000  1.0
  Ge  Ge18  1  0.24999000  0.25000000  0.12496000  1.0
  Ge  Ge19  1  0.75001000  0.25000000  0.12496000  1.0
  Ge  Ge20  1  0.50000000  0.77139000  0.86899000  1.0
  Ge  Ge21  1  0.00000000  0.76663000  0.87133000  1.0
  Ge  Ge22  1  0.74985000  0.25561000  0.95653000  1.0
  Ge  Ge23  1  0.25015000  0.25561000  0.95653000  1.0
  Pd  Pd24  1  0.24999000  0.00000000  0.04165000  1.0
  Pd  Pd25  1  0.75001000  0.00000000  0.04165000  1.0
  Pd  Pd26  1  0.50000000  0.50000000  0.12496000  1.0
  Pd  Pd27  1  0.00000000  0.50000000  0.12496000  1.0
  Pd  Pd28  1  0.74887000  0.98248000  0.88366000  1.0
  Pd  Pd29  1  0.25113000  0.98248000  0.88366000  1.0
  Pd  Pd30  1  0.00000000  0.49169000  0.94949000  1.0
  Pd  Pd31  1  0.50000000  0.49582000  0.95186000  1.0
  C  C32  1  0.00000000  0.24586000  0.78418000  1.0
  O  O33  1  0.00000000  0.24295000  0.74149000  1.0
