# generated using pymatgen
data_Li8Al8Cu8Ag8C
_symmetry_space_group_name_H-M   'P 1'
_cell_length_a   8.70076000
_cell_length_b   6.15237000
_cell_length_c   26.52560000
_cell_angle_alpha   90.00000000
_cell_angle_beta   90.00000000
_cell_angle_gamma   90.00000000
_symmetry_Int_Tables_number   1
_chemical_formula_structural   Li8Al8Cu8Ag8C
_chemical_formula_sum   'Li8 Al8 Cu8 Ag8 C1'
_cell_volume   1419.92318778
_cell_formula_units_Z   1
loop_
 _symmetry_equiv_pos_site_id
 _symmetry_equiv_pos_as_xyz
  1  'x, y, z'
loop_
 _atom_site_type_symbol
 _atom_site_label
 _atom_site_symmetry_multiplicity
 _atom_site_fract_x
 _atom_site_fract_y
 _atom_site_fract_z
 _atom_site_occupancy
  Li  Li0  1  0.75000000  0.75000000  0.04100000  1.0
  Li  Li1  1  0.25000000  0.75000000  0.04100000  1.0
  Li  Li2  1  0.00000000  0.25000000  0.12301000  1.0
  Li  Li3  1  0.50000000  0.25000000  0.12301000  1.0
  Li  Li4  1  0.26944000  0.75445000  0.86795000  1.0
  Li  Li5  1  0.73056000  0.75445000  0.86795000  1.0
  Li  Li6  1  0.50000000  0.25713000  0.96267000  1.0
  Li  Li7  1  0.00000000  0.25406000  0.95779000  1.0
  Al  Al8  1  0.75000000  0.25000000  0.04100000  1.0
  Al  Al9  1  0.25000000  0.25000000  0.04100000  1.0
  Al  Al10  1  0.00000000  0.75000000  0.12301000  1.0
  Al  Al11  1  0.50000000  0.75000000  0.12301000  1.0
  Al  Al12  1  0.22570000  0.24070000  0.87031000  1.0
  Al  Al13  1  0.77430000  0.24070000  0.87031000  1.0
  Al  Al14  1  0.50000000  0.74046000  0.95473000  1.0
  Al  Al15  1  0.00000000  0.75377000  0.96558000  1.0
  Cu  Cu16  1  0.00000000  1.00000000  0.04100000  1.0
  Cu  Cu17  1  0.50000000  1.00000000  0.04100000  1.0
  Cu  Cu18  1  0.25000000  0.50000000  0.12301000  1.0
  Cu  Cu19  1  0.75000000  0.50000000  0.12301000  1.0
  Cu  Cu20  1  0.50000000  0.02616000  0.88127000  1.0
  Cu  Cu21  1  0.00000000  0.96113000  0.88720000  1.0
  Cu  Cu22  1  0.74687000  0.50148000  0.95704000  1.0
  Cu  Cu23  1  0.25313000  0.50148000  0.95704000  1.0
  Ag  Ag24  1  0.75000000  0.00000000  0.12301000  1.0
  Ag  Ag25  1  0.25000000  0.00000000  0.12301000  1.0
  Ag  Ag26  1  0.50000000  0.50000000  0.04100000  1.0
  Ag  Ag27  1  0.00000000  0.50000000  0.04100000  1.0
  Ag  Ag28  1  0.25660000  0.00246000  0.95708000  1.0
  Ag  Ag29  1  0.74340000  0.00246000  0.95708000  1.0
  Ag  Ag30  1  0.00000000  0.55509000  0.88103000  1.0
  Ag  Ag31  1  0.50000000  0.46009000  0.87383000  1.0
  C  C32  1  0.00000000  0.22964000  0.85426000  1.0
