# generated using pymatgen
data_Y8Mn8In8Pd8C
_symmetry_space_group_name_H-M   'P 1'
_cell_length_a   9.69972000
_cell_length_b   6.85874000
_cell_length_c   27.27480000
_cell_angle_alpha   90.00000000
_cell_angle_beta   90.00000000
_cell_angle_gamma   90.00000000
_symmetry_Int_Tables_number   1
_chemical_formula_structural   Y8Mn8In8Pd8C
_chemical_formula_sum   'Y8 Mn8 In8 Pd8 C1'
_cell_volume   1814.53400918
_cell_formula_units_Z   1
loop_
 _symmetry_equiv_pos_site_id
 _symmetry_equiv_pos_as_xyz
  1  'x, y, z'
loop_
 _atom_site_type_symbol
 _atom_site_label
 _atom_site_symmetry_multiplicity
 _atom_site_fract_x
 _atom_site_fract_y
 _atom_site_fract_z
 _atom_site_occupancy
  Y  Y0  1  0.00000000  0.00000000  0.04445000  1.0
  Y  Y1  1  0.50000000  1.00000000  0.04445000  1.0
  Y  Y2  1  0.25000000  0.50000000  0.13336000  1.0
  Y  Y3  1  0.75000000  0.50000000  0.13336000  1.0
  Y  Y4  1  0.50000000  0.94876000  0.86352000  1.0
  Y  Y5  1  0.00000000  0.94703000  0.86825000  1.0
  Y  Y6  1  0.74355000  0.51230000  0.94974000  1.0
  Y  Y7  1  0.25645000  0.51230000  0.94974000  1.0
  Mn  Mn8  1  0.75000000  0.75000000  0.04445000  1.0
  Mn  Mn9  1  0.25000000  0.75000000  0.04445000  1.0
  Mn  Mn10  1  0.00000000  0.25000000  0.13336000  1.0
  Mn  Mn11  1  0.50000000  0.25000000  0.13336000  1.0
  Mn  Mn12  1  0.20328000  0.61709000  0.82061000  1.0
  Mn  Mn13  1  0.79672000  0.61709000  0.82061000  1.0
  Mn  Mn14  1  0.50000000  0.23136000  0.94441000  1.0
  Mn  Mn15  1  0.00000000  0.24272000  0.95890000  1.0
  In  In16  1  0.75000000  0.00000000  0.13336000  1.0
  In  In17  1  0.25000000  0.00000000  0.13336000  1.0
  In  In18  1  0.50000000  0.50000000  0.04445000  1.0
  In  In19  1  0.00000000  0.50000000  0.04445000  1.0
  In  In20  1  0.24864000  0.99552000  0.95579000  1.0
  In  In21  1  0.75136000  0.99552000  0.95579000  1.0
  In  In22  1  0.00000000  0.42555000  0.87271000  1.0
  In  In23  1  0.50000000  0.48598000  0.85564000  1.0
  Pd  Pd24  1  0.75000000  0.25000000  0.04445000  1.0
  Pd  Pd25  1  0.25000000  0.25000000  0.04445000  1.0
  Pd  Pd26  1  0.00000000  0.75000000  0.13336000  1.0
  Pd  Pd27  1  0.50000000  0.75000000  0.13336000  1.0
  Pd  Pd28  1  0.26348000  0.24027000  0.87292000  1.0
  Pd  Pd29  1  0.73652000  0.24027000  0.87292000  1.0
  Pd  Pd30  1  0.50000000  0.75972000  0.95722000  1.0
  Pd  Pd31  1  0.00000000  0.74737000  0.96123000  1.0
  C  C32  1  0.00000000  0.67442000  0.81802000  1.0
