# generated using pymatgen
data_Y8Mn8In8Pd8C
_symmetry_space_group_name_H-M   Pm
_cell_length_a   6.85874000
_cell_length_b   9.69972000
_cell_length_c   27.27480000
_cell_angle_alpha   90.00000000
_cell_angle_beta   90.00000000
_cell_angle_gamma   90.00000000
_symmetry_Int_Tables_number   6
_chemical_formula_structural   Y8Mn8In8Pd8C
_chemical_formula_sum   'Y8 Mn8 In8 Pd8 C1'
_cell_volume   1814.53400918
_cell_formula_units_Z   1
loop_
 _symmetry_equiv_pos_site_id
 _symmetry_equiv_pos_as_xyz
  1  'x, y, z'
  2  'x, -y, z'
loop_
 _atom_site_type_symbol
 _atom_site_label
 _atom_site_symmetry_multiplicity
 _atom_site_fract_x
 _atom_site_fract_y
 _atom_site_fract_z
 _atom_site_occupancy
  Y  Y0  2  0.50000000  0.25000000  0.86664000  1.0
  Y  Y1  2  0.51230000  0.25645000  0.05026000  1.0
  Y  Y2  1  -0.00000000  0.50000000  0.95555000  1.0
  Y  Y3  1  0.00000000  0.00000000  0.95555000  1.0
  Y  Y4  1  0.94703000  0.00000000  0.13175000  1.0
  Y  Y5  1  0.94876000  0.50000000  0.13648000  1.0
  Mn  Mn6  2  0.61709000  0.20328000  0.17939000  1.0
  Mn  Mn7  2  0.75000000  0.25000000  0.95555000  1.0
  Mn  Mn8  1  0.23136000  0.50000000  0.05559000  1.0
  Mn  Mn9  1  0.24272000  0.00000000  0.04110000  1.0
  Mn  Mn10  1  0.25000000  0.00000000  0.86664000  1.0
  Mn  Mn11  1  0.25000000  0.50000000  0.86664000  1.0
  In  In12  2  0.00000000  0.25000000  0.86664000  1.0
  In  In13  2  0.99552000  0.24864000  0.04421000  1.0
  In  In14  1  0.42555000  0.00000000  0.12729000  1.0
  In  In15  1  0.48598000  0.50000000  0.14436000  1.0
  In  In16  1  0.50000000  0.00000000  0.95555000  1.0
  In  In17  1  0.50000000  0.50000000  0.95555000  1.0
  Pd  Pd18  2  0.24027000  0.26348000  0.12708000  1.0
  Pd  Pd19  2  0.25000000  0.25000000  0.95555000  1.0
  Pd  Pd20  1  0.74737000  0.00000000  0.03877000  1.0
  Pd  Pd21  1  0.75000000  0.00000000  0.86664000  1.0
  Pd  Pd22  1  0.75000000  0.50000000  0.86664000  1.0
  Pd  Pd23  1  0.75972000  0.50000000  0.04278000  1.0
  C  C24  1  0.67442000  0.00000000  0.18198000  1.0
