data_image0
_chemical_formula_structural       Zn16Ni16C
_chemical_formula_sum              "Zn16 Ni16 C1"
_cell_length_a       5.79956
_cell_length_b       8.20182
_cell_length_c       26.1514
_cell_angle_alpha    90
_cell_angle_beta     90
_cell_angle_gamma    90

_space_group_name_H-M_alt    "P 1"
_space_group_IT_number       1

loop_
  _space_group_symop_operation_xyz
  'x, y, z'

loop_
  _atom_site_type_symbol
  _atom_site_label
  _atom_site_symmetry_multiplicity
  _atom_site_fract_x
  _atom_site_fract_y
  _atom_site_fract_z
  _atom_site_occupancy
  Zn  Zn1       1.0  0.25000  0.25000  0.88239  1.0000
  Zn  Zn2       1.0  0.25000  0.00000  0.96080  1.0000
  Zn  Zn3       1.0  0.24441  0.24942  0.03932  1.0000
  Zn  Zn4       1.0  0.30087  0.99999  0.11955  1.0000
  Zn  Zn5       1.0  0.25000  0.75000  0.88239  1.0000
  Zn  Zn6       1.0  0.25000  0.50000  0.96080  1.0000
  Zn  Zn7       1.0  0.24441  0.75059  0.03932  1.0000
  Zn  Zn8       1.0  0.23004  0.50000  0.12464  1.0000
  Zn  Zn9       1.0  0.75000  0.25000  0.88239  1.0000
  Zn  Zn10      1.0  0.75000  0.00000  0.96080  1.0000
  Zn  Zn11      1.0  0.75559  0.24942  0.03932  1.0000
  Zn  Zn12      1.0  0.69913  0.99999  0.11955  1.0000
  Zn  Zn13      1.0  0.75000  0.75000  0.88239  1.0000
  Zn  Zn14      1.0  0.75000  0.50000  0.96080  1.0000
  Zn  Zn15      1.0  0.75559  0.75059  0.03932  1.0000
  Zn  Zn16      1.0  0.76996  0.50000  0.12464  1.0000
  Ni  Ni1       1.0  0.00000  0.00000  0.88239  1.0000
  Ni  Ni2       1.0  0.00000  0.25000  0.96080  1.0000
  Ni  Ni3       1.0  1.00000  0.99998  0.03942  1.0000
  Ni  Ni4       1.0  0.00000  0.21821  0.12189  1.0000
  Ni  Ni5       1.0  0.00000  0.50000  0.88239  1.0000
  Ni  Ni6       1.0  0.00000  0.75000  0.96080  1.0000
  Ni  Ni7       1.0  1.00000  0.50003  0.04122  1.0000
  Ni  Ni8       1.0  1.00000  0.78177  0.12190  1.0000
  Ni  Ni9       1.0  0.50000  0.00000  0.88239  1.0000
  Ni  Ni10      1.0  0.50000  0.25000  0.96080  1.0000
  Ni  Ni11      1.0  0.50000  1.00000  0.03646  1.0000
  Ni  Ni12      1.0  0.50000  0.26911  0.11301  1.0000
  Ni  Ni13      1.0  0.50000  0.50000  0.88239  1.0000
  Ni  Ni14      1.0  0.50000  0.75000  0.96080  1.0000
  Ni  Ni15      1.0  0.50000  0.50005  0.04256  1.0000
  Ni  Ni16      1.0  0.50000  0.73085  0.11302  1.0000
  C   C1        1.0  0.00000  0.00000  0.14785  1.0000
