# generated using pymatgen
data_Li8Ga16Ru8C
_symmetry_space_group_name_H-M   'P 1'
_cell_length_a   6.09317000
_cell_length_b   8.61704000
_cell_length_c   26.46280000
_cell_angle_alpha   90.00000000
_cell_angle_beta   90.00000000
_cell_angle_gamma   90.00000000
_symmetry_Int_Tables_number   1
_chemical_formula_structural   Li8Ga16Ru8C
_chemical_formula_sum   'Li8 Ga16 Ru8 C1'
_cell_volume   1389.43168551
_cell_formula_units_Z   1
loop_
 _symmetry_equiv_pos_site_id
 _symmetry_equiv_pos_as_xyz
  1  'x, y, z'
loop_
 _atom_site_type_symbol
 _atom_site_label
 _atom_site_symmetry_multiplicity
 _atom_site_fract_x
 _atom_site_fract_y
 _atom_site_fract_z
 _atom_site_occupancy
  Li  Li0  1  0.00000000  0.00000000  0.87789000  1.0
  Li  Li1  1  0.50000000  0.25000000  0.95930000  1.0
  Li  Li2  1  0.50000000  0.75000000  0.95930000  1.0
  Li  Li3  1  0.00000000  0.50000000  0.87789000  1.0
  Li  Li4  1  0.00502000  0.49464000  0.04092000  1.0
  Li  Li5  1  0.50115000  0.74995000  0.12878000  1.0
  Li  Li6  1  0.56265000  0.24991000  0.16778000  1.0
  Li  Li7  1  0.00498000  0.00534000  0.04092000  1.0
  Ga  Ga8  1  0.25000000  0.00000000  0.95930000  1.0
  Ga  Ga9  1  0.75000000  0.50000000  0.95930000  1.0
  Ga  Ga10  1  0.75000000  0.00000000  0.95930000  1.0
  Ga  Ga11  1  0.25000000  0.50000000  0.95930000  1.0
  Ga  Ga12  1  0.75000000  0.75000000  0.87789000  1.0
  Ga  Ga13  1  0.25000000  0.25000000  0.87789000  1.0
  Ga  Ga14  1  0.25000000  0.75000000  0.87789000  1.0
  Ga  Ga15  1  0.75000000  0.25000000  0.87789000  1.0
  Ga  Ga16  1  0.25899000  0.49221000  0.12829000  1.0
  Ga  Ga17  1  0.78018000  0.98968000  0.12557000  1.0
  Ga  Ga18  1  0.78018000  0.51018000  0.12556000  1.0
  Ga  Ga19  1  0.25901000  0.00768000  0.12829000  1.0
  Ga  Ga20  1  0.73128000  0.25004000  0.03674000  1.0
  Ga  Ga21  1  0.25602000  0.75002000  0.03767000  1.0
  Ga  Ga22  1  0.25639000  0.24999000  0.04238000  1.0
  Ga  Ga23  1  0.75816000  0.74999000  0.04222000  1.0
  Ru  Ru24  1  0.00000000  0.75000000  0.95930000  1.0
  Ru  Ru25  1  0.50000000  0.00000000  0.87789000  1.0
  Ru  Ru26  1  0.00000000  0.25000000  0.95930000  1.0
  Ru  Ru27  1  0.50000000  0.50000000  0.87789000  1.0
  Ru  Ru28  1  0.97042000  0.24991000  0.11938000  1.0
  Ru  Ru29  1  0.50125000  0.50244000  0.04175000  1.0
  Ru  Ru30  1  0.02583000  0.74994000  0.11641000  1.0
  Ru  Ru31  1  0.50135000  0.99759000  0.04175000  1.0
  C  C32  1  0.22616000  0.24996000  0.15454000  1.0
