data_image0
_chemical_formula_structural       Sc4Rh12CO
_chemical_formula_sum              "Sc4 Rh12 C1 O1"
_cell_length_a       7.89001
_cell_length_b       5.57908
_cell_length_c       24.1843
_cell_angle_alpha    90
_cell_angle_beta     90
_cell_angle_gamma    90

_space_group_name_H-M_alt    "P 1"
_space_group_IT_number       1

loop_
  _space_group_symop_operation_xyz
  'x, y, z'

loop_
  _atom_site_type_symbol
  _atom_site_label
  _atom_site_symmetry_multiplicity
  _atom_site_fract_x
  _atom_site_fract_y
  _atom_site_fract_z
  _atom_site_occupancy
  Sc  Sc1       1.0  0.00000  0.00000  0.91349  1.0000
  Sc  Sc2       1.0  0.00101  0.49743  0.02848  1.0000
  Sc  Sc3       1.0  0.50000  0.00000  0.91349  1.0000
  Sc  Sc4       1.0  0.49905  0.49751  0.02846  1.0000
  Rh  Rh1       1.0  0.00000  0.50000  0.91349  1.0000
  Rh  Rh2       1.0  0.25000  0.75000  0.97116  1.0000
  Rh  Rh3       1.0  0.25000  0.25000  0.97116  1.0000
  Rh  Rh4       1.0  0.99950  0.99488  0.02631  1.0000
  Rh  Rh5       1.0  0.25002  0.24707  0.08369  1.0000
  Rh  Rh6       1.0  0.25000  0.75562  0.08155  1.0000
  Rh  Rh7       1.0  0.50000  0.50000  0.91349  1.0000
  Rh  Rh8       1.0  0.75000  0.75000  0.97116  1.0000
  Rh  Rh9       1.0  0.75000  0.25000  0.97116  1.0000
  Rh  Rh10      1.0  0.50050  0.99487  0.02631  1.0000
  Rh  Rh11      1.0  0.74999  0.23342  0.08008  1.0000
  Rh  Rh12      1.0  0.75000  0.74284  0.08089  1.0000
  C   C1        1.0  0.24997  0.28211  0.15990  1.0000
  O   O1        1.0  0.24996  0.29626  0.20776  1.0000
