# generated using pymatgen
data_Sc4Rh12CO
_symmetry_space_group_name_H-M   P1
_cell_length_a   5.57908000
_cell_length_b   7.89001000
_cell_length_c   24.18430000
_cell_angle_alpha   90.00000000
_cell_angle_beta   90.00000000
_cell_angle_gamma   90.00000000
_symmetry_Int_Tables_number   1
_chemical_formula_structural   Sc4Rh12CO
_chemical_formula_sum   'Sc4 Rh12 C1 O1'
_cell_volume   1064.56862892
_cell_formula_units_Z   1
loop_
 _symmetry_equiv_pos_site_id
 _symmetry_equiv_pos_as_xyz
  1  'x, y, z'
loop_
 _atom_site_type_symbol
 _atom_site_label
 _atom_site_symmetry_multiplicity
 _atom_site_fract_x
 _atom_site_fract_y
 _atom_site_fract_z
 _atom_site_occupancy
  Sc  Sc0  1  0.00000000  0.00000000  0.08651000  1.0
  Sc  Sc1  1  0.00000000  0.50000000  0.08651000  1.0
  Sc  Sc2  1  0.50249000  0.50095000  0.97154000  1.0
  Sc  Sc3  1  0.50257000  0.99899000  0.97152000  1.0
  Rh  Rh4  1  0.00512000  0.00050000  0.97369000  1.0
  Rh  Rh5  1  0.00513000  0.49950000  0.97369000  1.0
  Rh  Rh6  1  0.24438000  0.75000000  0.91845000  1.0
  Rh  Rh7  1  0.25000000  0.25000000  0.02884000  1.0
  Rh  Rh8  1  0.25000000  0.75000000  0.02884000  1.0
  Rh  Rh9  1  0.25716000  0.25000000  0.91911000  1.0
  Rh  Rh10  1  0.50000000  0.00000000  0.08651000  1.0
  Rh  Rh11  1  0.50000000  0.50000000  0.08651000  1.0
  Rh  Rh12  1  0.75000000  0.25000000  0.02884000  1.0
  Rh  Rh13  1  0.75000000  0.75000000  0.02884000  1.0
  Rh  Rh14  1  0.75293000  0.74998000  0.91631000  1.0
  Rh  Rh15  1  0.76658000  0.25001000  0.91992000  1.0
  C  C16  1  0.71789000  0.75003000  0.84010000  1.0
  O  O17  1  0.70374000  0.75004000  0.79224000  1.0
