# generated using pymatgen
data_Li8Al8Fe8Pd8CO
_symmetry_space_group_name_H-M   'P 1'
_cell_length_a   8.60712000
_cell_length_b   8.84236000
_cell_length_c   24.25770000
_cell_angle_alpha   90.00000000
_cell_angle_beta   90.00000000
_cell_angle_gamma   90.00000000
_symmetry_Int_Tables_number   1
_chemical_formula_structural   Li8Al8Fe8Pd8CO
_chemical_formula_sum   'Li8 Al8 Fe8 Pd8 C1 O1'
_cell_volume   1846.18692573
_cell_formula_units_Z   1
loop_
 _symmetry_equiv_pos_site_id
 _symmetry_equiv_pos_as_xyz
  1  'x, y, z'
loop_
 _atom_site_type_symbol
 _atom_site_label
 _atom_site_symmetry_multiplicity
 _atom_site_fract_x
 _atom_site_fract_y
 _atom_site_fract_z
 _atom_site_occupancy
  Li  Li0  1  0.25000000  0.00000000  0.91224000  1.0
  Li  Li1  1  0.25202000  0.00000000  0.02547000  1.0
  Li  Li2  1  0.25000000  0.50000000  0.91224000  1.0
  Li  Li3  1  0.25068000  0.50000000  0.02793000  1.0
  Li  Li4  1  0.75000000  0.00000000  0.91224000  1.0
  Li  Li5  1  0.74798000  0.00000000  0.02547000  1.0
  Li  Li6  1  0.75000000  0.50000000  0.91224000  1.0
  Li  Li7  1  0.74932000  0.50000000  0.02793000  1.0
  Al  Al8  1  0.00000000  0.74999000  0.91224000  1.0
  Al  Al9  1  0.00000000  0.74780000  0.02709000  1.0
  Al  Al10  1  0.00000000  0.25001000  0.91224000  1.0
  Al  Al11  1  0.00000000  0.25220000  0.02709000  1.0
  Al  Al12  1  0.50000000  0.74999000  0.91224000  1.0
  Al  Al13  1  0.50000000  0.74861000  0.02832000  1.0
  Al  Al14  1  0.50000000  0.25001000  0.91224000  1.0
  Al  Al15  1  0.50000000  0.25139000  0.02832000  1.0
  Fe  Fe16  1  0.25000000  0.74999000  0.97075000  1.0
  Fe  Fe17  1  0.24845000  0.75328000  0.06458000  1.0
  Fe  Fe18  1  0.25000000  0.25001000  0.97075000  1.0
  Fe  Fe19  1  0.24845000  0.24672000  0.06458000  1.0
  Fe  Fe20  1  0.75000000  0.74999000  0.97075000  1.0
  Fe  Fe21  1  0.75155000  0.75328000  0.06458000  1.0
  Fe  Fe22  1  0.75000000  0.25001000  0.97075000  1.0
  Fe  Fe23  1  0.75155000  0.24672000  0.06458000  1.0
  Pd  Pd24  1  0.00000000  0.00000000  0.97075000  1.0
  Pd  Pd25  1  0.00000000  0.00000000  0.08815000  1.0
  Pd  Pd26  1  0.00000000  0.50000000  0.97075000  1.0
  Pd  Pd27  1  0.00000000  0.50000000  0.08586000  1.0
  Pd  Pd28  1  0.50000000  0.00000000  0.97075000  1.0
  Pd  Pd29  1  0.50000000  0.00000000  0.08561000  1.0
  Pd  Pd30  1  0.50000000  0.50000000  0.97075000  1.0
  Pd  Pd31  1  0.50000000  0.50000000  0.08651000  1.0
  C  C32  1  0.00000000  0.00000000  0.16877000  1.0
  O  O33  1  0.00000000  0.00000000  0.21619000  1.0
