# generated using pymatgen
data_LiMgCuPd
_symmetry_space_group_name_H-M   'P 1'
_cell_length_a   3.78388000
_cell_length_b   3.94531000
_cell_length_c   25.96820000
_cell_angle_alpha   90.00000000
_cell_angle_beta   90.00000000
_cell_angle_gamma   90.00000000
_symmetry_Int_Tables_number   1
_chemical_formula_structural   LiMgCuPd
_chemical_formula_sum   'Li2 Mg2 Cu2 Pd2'
_cell_volume   387.66834084
_cell_formula_units_Z   2
loop_
 _symmetry_equiv_pos_site_id
 _symmetry_equiv_pos_as_xyz
  1  'x, y, z'
loop_
 _atom_site_type_symbol
 _atom_site_label
 _atom_site_symmetry_multiplicity
 _atom_site_fract_x
 _atom_site_fract_y
 _atom_site_fract_z
 _atom_site_occupancy
  Li  Li0  1  0.50000000  0.50000000  0.88509000  1.0
  Li  Li1  1  0.50000000  0.50000000  0.03830000  1.0
  Mg  Mg2  1  0.50000000  0.00000000  0.96170000  1.0
  Mg  Mg3  1  0.50000000  0.00000000  0.11491000  1.0
  Cu  Cu4  1  0.00000000  0.00000000  0.88509000  1.0
  Cu  Cu5  1  0.00000000  0.00000000  0.03830000  1.0
  Pd  Pd6  1  0.00000000  0.50000000  0.96170000  1.0
  Pd  Pd7  1  0.00000000  0.50000000  0.11491000  1.0
