# generated using pymatgen
data_Li8Ga8Ni8Pd8CO
_symmetry_space_group_name_H-M   'P 1'
_cell_length_a   8.38940000
_cell_length_b   5.93220000
_cell_length_c   26.29200000
_cell_angle_alpha   90.00000000
_cell_angle_beta   90.00000000
_cell_angle_gamma   90.00000000
_symmetry_Int_Tables_number   1
_chemical_formula_structural   Li8Ga8Ni8Pd8CO
_chemical_formula_sum   'Li8 Ga8 Ni8 Pd8 C1 O1'
_cell_volume   1308.48970449
_cell_formula_units_Z   1
loop_
 _symmetry_equiv_pos_site_id
 _symmetry_equiv_pos_as_xyz
  1  'x, y, z'
loop_
 _atom_site_type_symbol
 _atom_site_label
 _atom_site_symmetry_multiplicity
 _atom_site_fract_x
 _atom_site_fract_y
 _atom_site_fract_z
 _atom_site_occupancy
  Li  Li0  1  0.00000000  0.00000000  0.03989000  1.0
  Li  Li1  1  0.50000000  0.00000000  0.03989000  1.0
  Li  Li2  1  0.25000000  0.50000000  0.11966000  1.0
  Li  Li3  1  0.75000000  0.50000000  0.11966000  1.0
  Li  Li4  1  0.50000000  0.00700000  0.86535000  1.0
  Li  Li5  1  0.00000000  0.00735000  0.86248000  1.0
  Li  Li6  1  0.75042000  0.50445000  0.96288000  1.0
  Li  Li7  1  0.24958000  0.50445000  0.96288000  1.0
  Ga  Ga8  1  0.75000000  0.00000000  0.11966000  1.0
  Ga  Ga9  1  0.25000000  0.00000000  0.11966000  1.0
  Ga  Ga10  1  0.50000000  0.50000000  0.03989000  1.0
  Ga  Ga11  1  0.00000000  0.50000000  0.03989000  1.0
  Ga  Ga12  1  0.25030000  0.99839000  0.96033000  1.0
  Ga  Ga13  1  0.74970000  0.99839000  0.96033000  1.0
  Ga  Ga14  1  0.00000000  0.49161000  0.87780000  1.0
  Ga  Ga15  1  0.50000000  0.48968000  0.87661000  1.0
  Ni  Ni16  1  0.75000000  0.25000000  0.03989000  1.0
  Ni  Ni17  1  0.25000000  0.25000000  0.03989000  1.0
  Ni  Ni18  1  0.00000000  0.75000000  0.11966000  1.0
  Ni  Ni19  1  0.50000000  0.75000000  0.11966000  1.0
  Ni  Ni20  1  0.25083000  0.26954000  0.88829000  1.0
  Ni  Ni21  1  0.74917000  0.26954000  0.88829000  1.0
  Ni  Ni22  1  0.50000000  0.75350000  0.95859000  1.0
  Ni  Ni23  1  0.00000000  0.75511000  0.95855000  1.0
  Pd  Pd24  1  0.75000000  0.75000000  0.03989000  1.0
  Pd  Pd25  1  0.25000000  0.75000000  0.03989000  1.0
  Pd  Pd26  1  0.00000000  0.25000000  0.11966000  1.0
  Pd  Pd27  1  0.50000000  0.25000000  0.11966000  1.0
  Pd  Pd28  1  0.25130000  0.73756000  0.88382000  1.0
  Pd  Pd29  1  0.74870000  0.73756000  0.88382000  1.0
  Pd  Pd30  1  0.50000000  0.24688000  0.95969000  1.0
  Pd  Pd31  1  0.00000000  0.24508000  0.95952000  1.0
  C  C32  1  0.00000000  0.00858000  0.78182000  1.0
  O  O33  1  0.00000000  0.00995000  0.73852000  1.0
