# generated using pymatgen
data_Li8Al8In8Cu8CO
_symmetry_space_group_name_H-M   'P 1'
_cell_length_a   9.01514000
_cell_length_b   6.37467000
_cell_length_c   26.76140000
_cell_angle_alpha   90.00000000
_cell_angle_beta   90.00000000
_cell_angle_gamma   90.00000000
_symmetry_Int_Tables_number   1
_chemical_formula_structural   Li8Al8In8Cu8CO
_chemical_formula_sum   'Li8 Al8 In8 Cu8 C1 O1'
_cell_volume   1537.93865336
_cell_formula_units_Z   1
loop_
 _symmetry_equiv_pos_site_id
 _symmetry_equiv_pos_as_xyz
  1  'x, y, z'
loop_
 _atom_site_type_symbol
 _atom_site_label
 _atom_site_symmetry_multiplicity
 _atom_site_fract_x
 _atom_site_fract_y
 _atom_site_fract_z
 _atom_site_occupancy
  Li  Li0  1  0.75002000  0.75000000  0.04211000  1.0
  Li  Li1  1  0.24998000  0.75000000  0.04211000  1.0
  Li  Li2  1  0.00000000  0.25000000  0.12633000  1.0
  Li  Li3  1  0.50000000  0.25000000  0.12633000  1.0
  Li  Li4  1  0.25005000  0.69646000  0.84204000  1.0
  Li  Li5  1  0.74995000  0.69646000  0.84204000  1.0
  Li  Li6  1  0.50000000  0.22658000  0.95556000  1.0
  Li  Li7  1  0.00000000  0.22513000  0.95529000  1.0
  Al  Al8  1  0.75002000  0.00000000  0.12633000  1.0
  Al  Al9  1  0.24998000  0.00000000  0.12633000  1.0
  Al  Al10  1  0.50000000  0.50000000  0.04211000  1.0
  Al  Al11  1  0.00000000  0.50000000  0.04211000  1.0
  Al  Al12  1  0.25094000  0.97162000  0.94824000  1.0
  Al  Al13  1  0.74906000  0.97162000  0.94824000  1.0
  Al  Al14  1  0.00000000  0.46506000  0.87067000  1.0
  Al  Al15  1  0.50000000  0.46668000  0.87106000  1.0
  In  In16  1  0.00000000  0.00000000  0.04211000  1.0
  In  In17  1  0.50000000  1.00000000  0.04211000  1.0
  In  In18  1  0.25002000  0.50000000  0.12633000  1.0
  In  In19  1  0.74998000  0.50000000  0.12633000  1.0
  In  In20  1  0.50000000  0.97467000  0.86304000  1.0
  In  In21  1  0.00000000  0.97505000  0.86284000  1.0
  In  In22  1  0.75026000  0.50255000  0.95424000  1.0
  In  In23  1  0.24974000  0.50255000  0.95424000  1.0
  Cu  Cu24  1  0.75002000  0.25000000  0.04211000  1.0
  Cu  Cu25  1  0.24998000  0.25000000  0.04211000  1.0
  Cu  Cu26  1  0.00000000  0.75000000  0.12633000  1.0
  Cu  Cu27  1  0.50000000  0.75000000  0.12633000  1.0
  Cu  Cu28  1  0.25021000  0.24302000  0.87703000  1.0
  Cu  Cu29  1  0.74979000  0.24302000  0.87703000  1.0
  Cu  Cu30  1  0.50000000  0.74993000  0.96030000  1.0
  Cu  Cu31  1  0.00000000  0.75232000  0.96022000  1.0
  C  C32  1  0.00000000  0.09657000  0.72238000  1.0
  O  O33  1  0.00000000  0.96401000  0.69397000  1.0
