# generated using pymatgen
data_Li8Al8In8Cu8CO
_symmetry_space_group_name_H-M   Pm
_cell_length_a   6.37467000
_cell_length_b   9.01514000
_cell_length_c   26.76140000
_cell_angle_alpha   90.00000000
_cell_angle_beta   90.00000000
_cell_angle_gamma   90.00000000
_symmetry_Int_Tables_number   6
_chemical_formula_structural   Li8Al8In8Cu8CO
_chemical_formula_sum   'Li8 Al8 In8 Cu8 C1 O1'
_cell_volume   1537.93865336
_cell_formula_units_Z   1
loop_
 _symmetry_equiv_pos_site_id
 _symmetry_equiv_pos_as_xyz
  1  'x, y, z'
  2  'x, -y, z'
loop_
 _atom_site_type_symbol
 _atom_site_label
 _atom_site_symmetry_multiplicity
 _atom_site_fract_x
 _atom_site_fract_y
 _atom_site_fract_z
 _atom_site_occupancy
  Li  Li0  2  0.69646000  0.25005000  0.15796000  1.0
  Li  Li1  2  0.75000000  0.24998000  0.95789000  1.0
  Li  Li2  1  0.22513000  0.00000000  0.04471000  1.0
  Li  Li3  1  0.22658000  0.50000000  0.04444000  1.0
  Li  Li4  1  0.25000000  0.00000000  0.87367000  1.0
  Li  Li5  1  0.25000000  0.50000000  0.87367000  1.0
  Al  Al6  2  0.00000000  0.24998000  0.87367000  1.0
  Al  Al7  2  0.97162000  0.25094000  0.05176000  1.0
  Al  Al8  1  0.46506000  0.00000000  0.12933000  1.0
  Al  Al9  1  0.46668000  0.50000000  0.12894000  1.0
  Al  Al10  1  0.50000000  0.00000000  0.95789000  1.0
  Al  Al11  1  0.50000000  0.50000000  0.95789000  1.0
  In  In12  2  0.50000000  0.25002000  0.87367000  1.0
  In  In13  2  0.50255000  0.24974000  0.04576000  1.0
  In  In14  1  -0.00000000  0.50000000  0.95789000  1.0
  In  In15  1  0.00000000  0.00000000  0.95789000  1.0
  In  In16  1  0.97467000  0.50000000  0.13696000  1.0
  In  In17  1  0.97505000  0.00000000  0.13716000  1.0
  Cu  Cu18  2  0.24302000  0.25021000  0.12297000  1.0
  Cu  Cu19  2  0.25000000  0.24998000  0.95789000  1.0
  Cu  Cu20  1  0.74993000  0.50000000  0.03970000  1.0
  Cu  Cu21  1  0.75000000  0.00000000  0.87367000  1.0
  Cu  Cu22  1  0.75000000  0.50000000  0.87367000  1.0
  Cu  Cu23  1  0.75232000  0.00000000  0.03978000  1.0
  C  C24  1  0.09657000  0.00000000  0.27762000  1.0
  O  O25  1  0.96401000  0.00000000  0.30603000  1.0
