data_image0
_chemical_formula_structural       Sc8Ga8Ge8Pd8CO
_chemical_formula_sum              "Sc8 Ga8 Ge8 Pd8 C1 O1"
_cell_length_a       8.58414
_cell_length_b       7.83718
_cell_length_c       26.065
_cell_angle_alpha    90
_cell_angle_beta     90
_cell_angle_gamma    90

_space_group_name_H-M_alt    "P 1"
_space_group_IT_number       1

loop_
  _space_group_symop_operation_xyz
  'x, y, z'

loop_
  _atom_site_type_symbol
  _atom_site_label
  _atom_site_symmetry_multiplicity
  _atom_site_fract_x
  _atom_site_fract_y
  _atom_site_fract_z
  _atom_site_occupancy
  Sc  Sc1       1.0  0.25000  0.00000  0.96122  1.0000
  Sc  Sc2       1.0  0.25668  0.99006  0.11918  1.0000
  Sc  Sc3       1.0  0.25000  0.50000  0.96122  1.0000
  Sc  Sc4       1.0  0.25667  0.50994  0.11918  1.0000
  Sc  Sc5       1.0  0.75000  0.00000  0.96122  1.0000
  Sc  Sc6       1.0  0.74332  0.99006  0.11918  1.0000
  Sc  Sc7       1.0  0.75000  0.50000  0.96122  1.0000
  Sc  Sc8       1.0  0.74333  0.50994  0.11918  1.0000
  Ga  Ga1       1.0  0.00000  0.00000  0.88366  1.0000
  Ga  Ga2       1.0  1.00000  0.00488  0.03959  1.0000
  Ga  Ga3       1.0  0.00000  0.50000  0.88366  1.0000
  Ga  Ga4       1.0  0.00000  0.49512  0.03959  1.0000
  Ga  Ga5       1.0  0.50000  0.00000  0.88366  1.0000
  Ga  Ga6       1.0  0.50000  0.00236  0.03791  1.0000
  Ga  Ga7       1.0  0.50000  0.50000  0.88366  1.0000
  Ga  Ga8       1.0  0.50000  0.49764  0.03791  1.0000
  Ge  Ge1       1.0  0.25000  0.25000  0.88366  1.0000
  Ge  Ge2       1.0  0.23931  0.24999  0.04190  1.0000
  Ge  Ge3       1.0  0.25000  0.75000  0.88366  1.0000
  Ge  Ge4       1.0  0.25201  0.75000  0.03859  1.0000
  Ge  Ge5       1.0  0.75000  0.25000  0.88366  1.0000
  Ge  Ge6       1.0  0.76070  0.25000  0.04190  1.0000
  Ge  Ge7       1.0  0.75000  0.75000  0.88366  1.0000
  Ge  Ge8       1.0  0.74799  0.75000  0.03859  1.0000
  Pd  Pd1       1.0  0.00000  0.25000  0.96122  1.0000
  Pd  Pd2       1.0  1.00000  0.25000  0.12017  1.0000
  Pd  Pd3       1.0  0.00000  0.75000  0.96122  1.0000
  Pd  Pd4       1.0  0.00000  0.75000  0.10803  1.0000
  Pd  Pd5       1.0  0.50000  0.25000  0.96122  1.0000
  Pd  Pd6       1.0  0.50000  0.25000  0.10810  1.0000
  Pd  Pd7       1.0  0.50000  0.75000  0.96122  1.0000
  Pd  Pd8       1.0  0.50000  0.75000  0.11146  1.0000
  C   C1        1.0  1.00000  0.25000  0.19352  1.0000
  O   O1        1.0  0.00000  0.25000  0.23807  1.0000
