# generated using pymatgen
data_Sc8Ga8Ge8Pd8CO
_symmetry_space_group_name_H-M   Pmm2
_cell_length_a   7.83718000
_cell_length_b   8.58414000
_cell_length_c   26.06500000
_cell_angle_alpha   90.00000000
_cell_angle_beta   90.00000000
_cell_angle_gamma   90.00000000
_symmetry_Int_Tables_number   25
_chemical_formula_structural   Sc8Ga8Ge8Pd8CO
_chemical_formula_sum   'Sc8 Ga8 Ge8 Pd8 C1 O1'
_cell_volume   1753.53461273
_cell_formula_units_Z   1
loop_
 _symmetry_equiv_pos_site_id
 _symmetry_equiv_pos_as_xyz
  1  'x, y, z'
  2  '-x, -y, z'
  3  '-x, y, z'
  4  'x, -y, z'
loop_
 _atom_site_type_symbol
 _atom_site_label
 _atom_site_symmetry_multiplicity
 _atom_site_fract_x
 _atom_site_fract_y
 _atom_site_fract_z
 _atom_site_occupancy
  Sc  Sc0  4  0.25000000  0.25000000  0.03878000  1.0
  Sc  Sc1  4  0.25994000  0.25668000  0.88082000  1.0
  Ga  Ga2  2  0.24512000  0.00000000  0.96041000  1.0
  Ga  Ga3  2  0.24764000  0.50000000  0.96209000  1.0
  Ga  Ga4  2  0.25000000  0.00000000  0.11634000  1.0
  Ga  Ga5  2  0.25000000  0.50000000  0.11634000  1.0
  Ge  Ge6  2  0.00000000  0.23931000  0.95810000  1.0
  Ge  Ge7  2  0.00000000  0.25000000  0.11634000  1.0
  Ge  Ge8  2  0.50000000  0.25000000  0.11634000  1.0
  Ge  Ge9  2  0.50000000  0.25201000  0.96141000  1.0
  Pd  Pd10  1  0.00000000  0.00000000  0.03878000  1.0
  Pd  Pd11  1  0.00000000  0.00000000  0.87983000  1.0
  Pd  Pd12  1  0.00000000  0.50000000  0.03878000  1.0
  Pd  Pd13  1  0.00000000  0.50000000  0.89190000  1.0
  Pd  Pd14  1  0.50000000  0.00000000  0.03878000  1.0
  Pd  Pd15  1  0.50000000  0.00000000  0.89197000  1.0
  Pd  Pd16  1  0.50000000  0.50000000  0.03878000  1.0
  Pd  Pd17  1  0.50000000  0.50000000  0.88854000  1.0
  C  C18  1  0.00000000  0.00000000  0.80648000  1.0
  O  O19  1  0.00000000  0.00000000  0.76193000  1.0
