# generated using pymatgen
data_Li8Mg8Al8Cu8CO
_symmetry_space_group_name_H-M   Pm
_cell_length_a   6.19386000
_cell_length_b   8.75944000
_cell_length_c   26.56960000
_cell_angle_alpha   90.00000000
_cell_angle_beta   90.00000000
_cell_angle_gamma   90.00000000
_symmetry_Int_Tables_number   6
_chemical_formula_structural   Li8Mg8Al8Cu8CO
_chemical_formula_sum   'Li8 Mg8 Al8 Cu8 C1 O1'
_cell_volume   1441.52687377
_cell_formula_units_Z   1
loop_
 _symmetry_equiv_pos_site_id
 _symmetry_equiv_pos_as_xyz
  1  'x, y, z'
  2  'x, -y, z'
loop_
 _atom_site_type_symbol
 _atom_site_label
 _atom_site_symmetry_multiplicity
 _atom_site_fract_x
 _atom_site_fract_y
 _atom_site_fract_z
 _atom_site_occupancy
  Li  Li0  2  0.25000000  0.25000000  0.95879000  1.0
  Li  Li1  2  0.31469000  0.24902000  0.15986000  1.0
  Li  Li2  1  0.75000000  0.00000000  0.87637000  1.0
  Li  Li3  1  0.75000000  0.50000000  0.87637000  1.0
  Li  Li4  1  0.76057000  0.50000000  0.04243000  1.0
  Li  Li5  1  0.76168000  0.00000000  0.04181000  1.0
  Mg  Mg6  2  0.49010000  0.25030000  0.04389000  1.0
  Mg  Mg7  2  0.50000000  0.25000000  0.87637000  1.0
  Mg  Mg8  1  -0.00000000  0.50000000  0.95879000  1.0
  Mg  Mg9  1  -0.00000000  0.00000000  0.95879000  1.0
  Mg  Mg10  1  0.01343000  0.00000000  0.12652000  1.0
  Mg  Mg11  1  0.02026000  0.50000000  0.12847000  1.0
  Al  Al12  2  0.00000000  0.25000000  0.87637000  1.0
  Al  Al13  2  0.01454000  0.25102000  0.04729000  1.0
  Al  Al14  1  0.50000000  0.00000000  0.95879000  1.0
  Al  Al15  1  0.50000000  0.50000000  0.95879000  1.0
  Al  Al16  1  0.51390000  0.50000000  0.12396000  1.0
  Al  Al17  1  0.51817000  0.00000000  0.12233000  1.0
  Cu  Cu18  2  0.74328000  0.25221000  0.11969000  1.0
  Cu  Cu19  2  0.75000000  0.25000000  0.95879000  1.0
  Cu  Cu20  1  0.25000000  0.00000000  0.87637000  1.0
  Cu  Cu21  1  0.25000000  0.50000000  0.87637000  1.0
  Cu  Cu22  1  0.25030000  0.50000000  0.03818000  1.0
  Cu  Cu23  1  0.25188000  0.00000000  0.03996000  1.0
  C  C24  1  0.02090000  0.00000000  0.20940000  1.0
  O  O25  1  0.02611000  0.00000000  0.25280000  1.0
