# generated using pymatgen
data_LiCu2Ge
_symmetry_space_group_name_H-M   'P 1'
_cell_length_a   4.20311500
_cell_length_b   5.94410000
_cell_length_c   26.30470000
_cell_angle_alpha   90.00000000
_cell_angle_beta   90.00000000
_cell_angle_gamma   90.00000000
_symmetry_Int_Tables_number   1
_chemical_formula_structural   LiCu2Ge
_chemical_formula_sum   'Li4 Cu8 Ge4'
_cell_volume   657.18967698
_cell_formula_units_Z   4
loop_
 _symmetry_equiv_pos_site_id
 _symmetry_equiv_pos_as_xyz
  1  'x, y, z'
loop_
 _atom_site_type_symbol
 _atom_site_label
 _atom_site_symmetry_multiplicity
 _atom_site_fract_x
 _atom_site_fract_y
 _atom_site_fract_z
 _atom_site_occupancy
  Li  Li0  1  0.00000000  0.00000000  0.11984000  1.0
  Li  Li1  1  0.50000000  0.50000000  0.03995000  1.0
  Li  Li2  1  0.00000000  0.00000000  0.96613500  1.0
  Li  Li3  1  0.50000000  0.50000000  0.86962000  1.0
  Cu  Cu4  1  0.00000000  0.75000000  0.03995000  1.0
  Cu  Cu5  1  0.00000000  0.25000000  0.03995000  1.0
  Cu  Cu6  1  0.50000000  0.25000000  0.11984000  1.0
  Cu  Cu7  1  0.50000000  0.75000000  0.11984000  1.0
  Cu  Cu8  1  0.00000000  0.77723000  0.88729000  1.0
  Cu  Cu9  1  0.00000000  0.22277000  0.88729000  1.0
  Cu  Cu10  1  0.50000000  0.24583000  0.95470000  1.0
  Cu  Cu11  1  0.50000000  0.75417000  0.95470000  1.0
  Ge  Ge12  1  0.50000000  0.00000000  0.03995000  1.0
  Ge  Ge13  1  0.00000000  0.50000000  0.11984000  1.0
  Ge  Ge14  1  0.50000000  0.00000000  0.87311000  1.0
  Ge  Ge15  1  0.00000000  0.50000000  0.95853000  1.0
