# generated using pymatgen
data_Li8Al16Ir8CO
_symmetry_space_group_name_H-M   'P 1'
_cell_length_a   8.54677000
_cell_length_b   6.04348000
_cell_length_c   26.41010000
_cell_angle_alpha   90.00000000
_cell_angle_beta   90.00000000
_cell_angle_gamma   90.00000000
_symmetry_Int_Tables_number   1
_chemical_formula_structural   Li8Al16Ir8CO
_chemical_formula_sum   'Li8 Al16 Ir8 C1 O1'
_cell_volume   1364.14065353
_cell_formula_units_Z   1
loop_
 _symmetry_equiv_pos_site_id
 _symmetry_equiv_pos_as_xyz
  1  'x, y, z'
loop_
 _atom_site_type_symbol
 _atom_site_label
 _atom_site_symmetry_multiplicity
 _atom_site_fract_x
 _atom_site_fract_y
 _atom_site_fract_z
 _atom_site_occupancy
  Li  Li0  1  0.00000000  0.00000000  0.12136000  1.0
  Li  Li1  1  0.25000000  0.50000000  0.04045000  1.0
  Li  Li2  1  0.75000000  0.50000000  0.04045000  1.0
  Li  Li3  1  0.50000000  0.00000000  0.12136000  1.0
  Li  Li4  1  0.50000000  0.00196000  0.96233000  1.0
  Li  Li5  1  0.75033000  0.50076000  0.86375000  1.0
  Li  Li6  1  0.24967000  0.50076000  0.86375000  1.0
  Li  Li7  1  0.00000000  0.00222000  0.96345000  1.0
  Al  Al8  1  0.00000000  0.25000000  0.04045000  1.0
  Al  Al9  1  0.50000000  0.75000000  0.04045000  1.0
  Al  Al10  1  0.00000000  0.75000000  0.04045000  1.0
  Al  Al11  1  0.50000000  0.25000000  0.04045000  1.0
  Al  Al12  1  0.75000000  0.75000000  0.12136000  1.0
  Al  Al13  1  0.25000000  0.25000000  0.12136000  1.0
  Al  Al14  1  0.75000000  0.25000000  0.12136000  1.0
  Al  Al15  1  0.25000000  0.75000000  0.12136000  1.0
  Al  Al16  1  0.50000000  0.23235000  0.88023000  1.0
  Al  Al17  1  0.00000000  0.77040000  0.88254000  1.0
  Al  Al18  1  0.50000000  0.76573000  0.88133000  1.0
  Al  Al19  1  0.00000000  0.23030000  0.88001000  1.0
  Al  Al20  1  0.24969000  0.74816000  0.95861000  1.0
  Al  Al21  1  0.75065000  0.25232000  0.95803000  1.0
  Al  Al22  1  0.24935000  0.25232000  0.95803000  1.0
  Al  Al23  1  0.75031000  0.74816000  0.95861000  1.0
  Ir  Ir24  1  0.75000000  0.00000000  0.04045000  1.0
  Ir  Ir25  1  0.00000000  0.50000000  0.12136000  1.0
  Ir  Ir26  1  0.25000000  0.00000000  0.04045000  1.0
  Ir  Ir27  1  0.50000000  0.50000000  0.12136000  1.0
  Ir  Ir28  1  0.25208000  0.99786000  0.88335000  1.0
  Ir  Ir29  1  0.50000000  0.49771000  0.96069000  1.0
  Ir  Ir30  1  0.74792000  0.99786000  0.88335000  1.0
  Ir  Ir31  1  0.00000000  0.49768000  0.95874000  1.0
  C  C32  1  0.00000000  0.36379000  0.81009000  1.0
  O  O33  1  0.00000000  0.39115000  0.76649000  1.0
