# generated using pymatgen
data_Li8Al16Ir8CO
_symmetry_space_group_name_H-M   Pm
_cell_length_a   6.04348000
_cell_length_b   8.54677000
_cell_length_c   26.41010000
_cell_angle_alpha   90.00000000
_cell_angle_beta   90.00000000
_cell_angle_gamma   90.00000000
_symmetry_Int_Tables_number   6
_chemical_formula_structural   Li8Al16Ir8CO
_chemical_formula_sum   'Li8 Al16 Ir8 C1 O1'
_cell_volume   1364.14065353
_cell_formula_units_Z   1
loop_
 _symmetry_equiv_pos_site_id
 _symmetry_equiv_pos_as_xyz
  1  'x, y, z'
  2  'x, -y, z'
loop_
 _atom_site_type_symbol
 _atom_site_label
 _atom_site_symmetry_multiplicity
 _atom_site_fract_x
 _atom_site_fract_y
 _atom_site_fract_z
 _atom_site_occupancy
  Li  Li0  2  0.50000000  0.25000000  0.95955000  1.0
  Li  Li1  2  0.50076000  0.24967000  0.13625000  1.0
  Li  Li2  1  0.00000000  0.00000000  0.87864000  1.0
  Li  Li3  1  0.00000000  0.50000000  0.87864000  1.0
  Li  Li4  1  0.00196000  0.50000000  0.03767000  1.0
  Li  Li5  1  0.00222000  0.00000000  0.03655000  1.0
  Al  Al6  2  0.25000000  0.25000000  0.87864000  1.0
  Al  Al7  2  0.25232000  0.24935000  0.04197000  1.0
  Al  Al8  2  0.74816000  0.24969000  0.04139000  1.0
  Al  Al9  2  0.75000000  0.25000000  0.87864000  1.0
  Al  Al10  1  0.23030000  0.00000000  0.11999000  1.0
  Al  Al11  1  0.23235000  0.50000000  0.11977000  1.0
  Al  Al12  1  0.25000000  0.00000000  0.95955000  1.0
  Al  Al13  1  0.25000000  0.50000000  0.95955000  1.0
  Al  Al14  1  0.75000000  0.00000000  0.95955000  1.0
  Al  Al15  1  0.75000000  0.50000000  0.95955000  1.0
  Al  Al16  1  0.76573000  0.50000000  0.11867000  1.0
  Al  Al17  1  0.77040000  0.00000000  0.11746000  1.0
  Ir  Ir18  2  0.00000000  0.25000000  0.95955000  1.0
  Ir  Ir19  2  0.99786000  0.25208000  0.11665000  1.0
  Ir  Ir20  1  0.49768000  0.00000000  0.04126000  1.0
  Ir  Ir21  1  0.49771000  0.50000000  0.03931000  1.0
  Ir  Ir22  1  0.50000000  0.00000000  0.87864000  1.0
  Ir  Ir23  1  0.50000000  0.50000000  0.87864000  1.0
  C  C24  1  0.36379000  0.00000000  0.18991000  1.0
  O  O25  1  0.39115000  0.00000000  0.23351000  1.0
