# generated using pymatgen
data_Li8Bi4Au4CO
_symmetry_space_group_name_H-M   'P 1'
_cell_length_a   6.87958000
_cell_length_b   6.87958000
_cell_length_c   25.15970000
_cell_angle_alpha   90.00000000
_cell_angle_beta   90.00000000
_cell_angle_gamma   90.00000000
_symmetry_Int_Tables_number   1
_chemical_formula_structural   Li8Bi4Au4CO
_chemical_formula_sum   'Li8 Bi4 Au4 C1 O1'
_cell_volume   1190.77390518
_cell_formula_units_Z   1
loop_
 _symmetry_equiv_pos_site_id
 _symmetry_equiv_pos_as_xyz
  1  'x, y, z'
loop_
 _atom_site_type_symbol
 _atom_site_label
 _atom_site_symmetry_multiplicity
 _atom_site_fract_x
 _atom_site_fract_y
 _atom_site_fract_z
 _atom_site_occupancy
  Li  Li0  1  0.74739000  0.74739000  0.02617000  1
  Li  Li1  1  0.74999500  0.25000500  0.89746000  1
  Li  Li2  1  0.25000500  0.74999500  0.89746000  1
  Li  Li3  1  0.25261000  0.25261000  0.02617000  1
  Li  Li4  1  0.50000000  0.00000000  0.10829000  1
  Li  Li5  1  0.00000000  0.00000000  0.96582000  1
  Li  Li6  1  1.00000000  0.50000000  0.10829000  1
  Li  Li7  1  0.50000000  0.50000000  0.96582000  1
  Bi  Bi8  1  0.75002500  0.75002500  0.89746000  1
  Bi  Bi9  1  0.24997500  0.24997500  0.89746000  1
  Bi  Bi10  1  0.72586500  0.27413500  0.04532000  1
  Bi  Bi11  1  0.27413500  0.72586500  0.04532000  1
  Au  Au12  1  0.50000000  0.00000000  0.96582000  1
  Au  Au13  1  0.00000000  0.00000000  0.08177000  1
  Au  Au14  1  1.00000000  0.50000000  0.96582000  1
  Au  Au15  1  0.50000000  0.50000000  0.11954000  1
  C  C16  1  0.50000000  0.50000000  0.19986000  1
  O  O17  1  0.50000000  0.50000000  0.24574000  1
