data_image0
_chemical_formula_structural       Sc16Ir16CO
_chemical_formula_sum              "Sc16 Ir16 C1 O1"
_cell_length_a       6.4683
_cell_length_b       9.14755
_cell_length_c       26.8607
_cell_angle_alpha    90
_cell_angle_beta     90
_cell_angle_gamma    90

_space_group_name_H-M_alt    "P 1"
_space_group_IT_number       1

loop_
  _space_group_symop_operation_xyz
  'x, y, z'

loop_
  _atom_site_type_symbol
  _atom_site_label
  _atom_site_symmetry_multiplicity
  _atom_site_fract_x
  _atom_site_fract_y
  _atom_site_fract_z
  _atom_site_occupancy
  Sc  Sc1       1.0  0.25000  0.25000  0.87229  1.0000
  Sc  Sc2       1.0  0.25000  0.00000  0.95743  1.0000
  Sc  Sc3       1.0  0.25000  0.24982  0.04458  1.0000
  Sc  Sc4       1.0  0.25000  1.00000  0.13212  1.0000
  Sc  Sc5       1.0  0.25000  0.75000  0.87229  1.0000
  Sc  Sc6       1.0  0.25000  0.50000  0.95743  1.0000
  Sc  Sc7       1.0  0.25000  0.75018  0.04458  1.0000
  Sc  Sc8       1.0  0.25000  0.50000  0.13140  1.0000
  Sc  Sc9       1.0  0.75000  0.25000  0.87229  1.0000
  Sc  Sc10      1.0  0.75000  0.00000  0.95743  1.0000
  Sc  Sc11      1.0  0.75000  0.25022  0.04441  1.0000
  Sc  Sc12      1.0  0.75000  1.00000  0.13101  1.0000
  Sc  Sc13      1.0  0.75000  0.75000  0.87229  1.0000
  Sc  Sc14      1.0  0.75000  0.50000  0.95743  1.0000
  Sc  Sc15      1.0  0.75000  0.74978  0.04441  1.0000
  Sc  Sc16      1.0  0.75000  0.50000  0.13167  1.0000
  Ir  Ir1       1.0  0.00000  0.00000  0.87229  1.0000
  Ir  Ir2       1.0  0.00000  0.25000  0.95743  1.0000
  Ir  Ir3       1.0  0.99920  1.00000  0.04404  1.0000
  Ir  Ir4       1.0  0.99888  0.25176  0.12441  1.0000
  Ir  Ir5       1.0  0.00000  0.50000  0.87229  1.0000
  Ir  Ir6       1.0  0.00000  0.75000  0.95743  1.0000
  Ir  Ir7       1.0  0.00005  0.50000  0.04431  1.0000
  Ir  Ir8       1.0  0.99888  0.74824  0.12441  1.0000
  Ir  Ir9       1.0  0.50000  0.00000  0.87229  1.0000
  Ir  Ir10      1.0  0.50000  0.25000  0.95743  1.0000
  Ir  Ir11      1.0  0.50080  1.00000  0.04404  1.0000
  Ir  Ir12      1.0  0.50112  0.25176  0.12441  1.0000
  Ir  Ir13      1.0  0.50000  0.50000  0.87229  1.0000
  Ir  Ir14      1.0  0.50000  0.75000  0.95743  1.0000
  Ir  Ir15      1.0  0.49995  0.50000  0.04431  1.0000
  Ir  Ir16      1.0  0.50112  0.74824  0.12441  1.0000
  C   C1        1.0  0.25000  1.00000  0.21964  1.0000
  O   O1        1.0  0.25000  0.00000  0.26226  1.0000
