# generated using pymatgen
data_Ti8Ga8Ni16C
_symmetry_space_group_name_H-M   Pm
_cell_length_a   5.91339000
_cell_length_b   8.36280000
_cell_length_c   26.27210000
_cell_angle_alpha   90.00000000
_cell_angle_beta   90.00000000
_cell_angle_gamma   90.00000000
_symmetry_Int_Tables_number   6
_chemical_formula_structural   Ti8Ga8Ni16C
_chemical_formula_sum   'Ti8 Ga8 Ni16 C1'
_cell_volume   1299.22096987
_cell_formula_units_Z   1
loop_
 _symmetry_equiv_pos_site_id
 _symmetry_equiv_pos_as_xyz
  1  'x, y, z'
  2  'x, -y, z'
loop_
 _atom_site_type_symbol
 _atom_site_label
 _atom_site_symmetry_multiplicity
 _atom_site_fract_x
 _atom_site_fract_y
 _atom_site_fract_z
 _atom_site_occupancy
  Ti  Ti0  2  0.00000000  0.25002000  0.88063000  1.0
  Ti  Ti1  2  0.99358000  0.25618000  0.03954000  1.0
  Ti  Ti2  1  0.48849000  0.50000000  0.12028000  1.0
  Ti  Ti3  1  0.50000000  0.00000000  0.96021000  1.0
  Ti  Ti4  1  0.50000000  0.50000000  0.96021000  1.0
  Ti  Ti5  1  0.54072000  0.00000000  0.11672000  1.0
  Ga  Ga6  2  0.49433000  0.24437000  0.04092000  1.0
  Ga  Ga7  2  0.50000000  0.25002000  0.88063000  1.0
  Ga  Ga8  1  0.00000000  0.00000000  0.96021000  1.0
  Ga  Ga9  1  0.00000000  0.50000000  0.96021000  1.0
  Ga  Ga10  1  0.01021000  0.50000000  0.12088000  1.0
  Ga  Ga11  1  0.92374000  0.00000000  0.15653000  1.0
  Ni  Ni12  2  0.21479000  0.23460000  0.11719000  1.0
  Ni  Ni13  2  0.25000000  0.25002000  0.96021000  1.0
  Ni  Ni14  2  0.75000000  0.24998000  0.96021000  1.0
  Ni  Ni15  2  0.75465000  0.26096000  0.11648000  1.0
  Ni  Ni16  1  0.22109000  0.00000000  0.04774000  1.0
  Ni  Ni17  1  0.25000000  0.00000000  0.88063000  1.0
  Ni  Ni18  1  0.25000000  0.50000000  0.88063000  1.0
  Ni  Ni19  1  0.27074000  0.50000000  0.03910000  1.0
  Ni  Ni20  1  0.72986000  0.50000000  0.04297000  1.0
  Ni  Ni21  1  0.75000000  0.00000000  0.88063000  1.0
  Ni  Ni22  1  0.75000000  0.50000000  0.88063000  1.0
  Ni  Ni23  1  0.75529000  0.00000000  0.03719000  1.0
  C  C24  1  0.22483000  0.00000000  0.12853000  1.0
