# generated using pymatgen
data_Li8Cu8Sn8Ge8CO
_symmetry_space_group_name_H-M   'P 1'
_cell_length_a   6.57410000
_cell_length_b   9.29718000
_cell_length_c   26.97290000
_cell_angle_alpha   90.00000000
_cell_angle_beta   90.00000000
_cell_angle_gamma   90.00000000
_symmetry_Int_Tables_number   1
_chemical_formula_structural   Li8Cu8Sn8Ge8CO
_chemical_formula_sum   'Li8 Cu8 Sn8 Ge8 C1 O1'
_cell_volume   1648.59959001
_cell_formula_units_Z   1
loop_
 _symmetry_equiv_pos_site_id
 _symmetry_equiv_pos_as_xyz
  1  'x, y, z'
loop_
 _atom_site_type_symbol
 _atom_site_label
 _atom_site_symmetry_multiplicity
 _atom_site_fract_x
 _atom_site_fract_y
 _atom_site_fract_z
 _atom_site_occupancy
  Li  Li0  1  0.00000000  0.25000000  0.95691000  1.0
  Li  Li1  1  0.00000000  0.75000000  0.95691000  1.0
  Li  Li2  1  0.50000000  0.50000000  0.87074000  1.0
  Li  Li3  1  0.50000000  0.00000000  0.87074000  1.0
  Li  Li4  1  0.17387000  0.73964000  0.15035000  1.0
  Li  Li5  1  0.17403000  0.26040000  0.15037000  1.0
  Li  Li6  1  0.56845000  0.99995000  0.05316000  1.0
  Li  Li7  1  0.58171000  0.49998000  0.05297000  1.0
  Cu  Cu8  1  0.00000000  0.00000000  0.87074000  1.0
  Cu  Cu9  1  0.00000000  0.50000000  0.87074000  1.0
  Cu  Cu10  1  0.50000000  0.75000000  0.95691000  1.0
  Cu  Cu11  1  0.50000000  0.25000000  0.95691000  1.0
  Cu  Cu12  1  0.01695000  0.49996000  0.03844000  1.0
  Cu  Cu13  1  0.02671000  0.99996000  0.03629000  1.0
  Cu  Cu14  1  0.56538000  0.25656000  0.12306000  1.0
  Cu  Cu15  1  0.56536000  0.74338000  0.12307000  1.0
  Sn  Sn16  1  0.75000000  0.00000000  0.95691000  1.0
  Sn  Sn17  1  0.75000000  0.50000000  0.95691000  1.0
  Sn  Sn18  1  0.25000000  0.25000000  0.87074000  1.0
  Sn  Sn19  1  0.25000000  0.75000000  0.87074000  1.0
  Sn  Sn20  1  0.85833000  0.49995000  0.14025000  1.0
  Sn  Sn21  1  0.87129000  0.00009000  0.13839000  1.0
  Sn  Sn22  1  0.29160000  0.74115000  0.04469000  1.0
  Sn  Sn23  1  0.29154000  0.25873000  0.04470000  1.0
  Ge  Ge24  1  0.25000000  0.00000000  0.95691000  1.0
  Ge  Ge25  1  0.25000000  0.50000000  0.95691000  1.0
  Ge  Ge26  1  0.75000000  0.25000000  0.87074000  1.0
  Ge  Ge27  1  0.75000000  0.75000000  0.87074000  1.0
  Ge  Ge28  1  0.43461000  0.50001000  0.15241000  1.0
  Ge  Ge29  1  0.41968000  0.99995000  0.15163000  1.0
  Ge  Ge30  1  0.84705000  0.75466000  0.05812000  1.0
  Ge  Ge31  1  0.84696000  0.24526000  0.05808000  1.0
  C  C32  1  0.52261000  0.00001000  0.22012000  1.0
  O  O33  1  0.55444000  0.00006000  0.26244000  1.0
