# generated using pymatgen
data_Li8Mg8In8Pb8CO
_symmetry_space_group_name_H-M   'P 1'
_cell_length_a   7.11424000
_cell_length_b   10.06110000
_cell_length_c   27.54580000
_cell_angle_alpha   90.00000000
_cell_angle_beta   90.00000000
_cell_angle_gamma   90.00000000
_symmetry_Int_Tables_number   1
_chemical_formula_structural   Li8Mg8In8Pb8CO
_chemical_formula_sum   'Li8 Mg8 In8 Pb8 C1 O1'
_cell_volume   1971.64793203
_cell_formula_units_Z   1
loop_
 _symmetry_equiv_pos_site_id
 _symmetry_equiv_pos_as_xyz
  1  'x, y, z'
loop_
 _atom_site_type_symbol
 _atom_site_label
 _atom_site_symmetry_multiplicity
 _atom_site_fract_x
 _atom_site_fract_y
 _atom_site_fract_z
 _atom_site_occupancy
  Li  Li0  1  0.75000000  0.00000000  0.95434000  1.0
  Li  Li1  1  0.75000000  0.50000000  0.95434000  1.0
  Li  Li2  1  0.25000000  0.25000000  0.86303000  1.0
  Li  Li3  1  0.25000000  0.75000000  0.86303000  1.0
  Li  Li4  1  0.74701000  0.49727000  0.14141000  1.0
  Li  Li5  1  0.74690000  0.99904000  0.14140000  1.0
  Li  Li6  1  0.24390000  0.75075000  0.05136000  1.0
  Li  Li7  1  0.24479000  0.25075000  0.04996000  1.0
  Mg  Mg8  1  0.25000000  0.00000000  0.95434000  1.0
  Mg  Mg9  1  0.25000000  0.50000000  0.95434000  1.0
  Mg  Mg10  1  0.75000000  0.25000000  0.86303000  1.0
  Mg  Mg11  1  0.75000000  0.75000000  0.86303000  1.0
  Mg  Mg12  1  0.24687000  0.49959000  0.14790000  1.0
  Mg  Mg13  1  0.24729000  0.99685000  0.14772000  1.0
  Mg  Mg14  1  0.75229000  0.74967000  0.05256000  1.0
  Mg  Mg15  1  0.75202000  0.25100000  0.05145000  1.0
  In  In16  1  0.00000000  0.00000000  0.86303000  1.0
  In  In17  1  0.00000000  0.50000000  0.86303000  1.0
  In  In18  1  0.50000000  0.75000000  0.95434000  1.0
  In  In19  1  0.50000000  0.25000000  0.95434000  1.0
  In  In20  1  0.00614000  0.50032000  0.05233000  1.0
  In  In21  1  0.00542000  0.00053000  0.05229000  1.0
  In  In22  1  0.49996000  0.24818000  0.14996000  1.0
  In  In23  1  0.50399000  0.74823000  0.15193000  1.0
  Pb  Pb24  1  0.00000000  0.25000000  0.95434000  1.0
  Pb  Pb25  1  0.00000000  0.75000000  0.95434000  1.0
  Pb  Pb26  1  0.50000000  0.50000000  0.86303000  1.0
  Pb  Pb27  1  0.50000000  0.00000000  0.86303000  1.0
  Pb  Pb28  1  0.98858000  0.74829000  0.15248000  1.0
  Pb  Pb29  1  0.99306000  0.24806000  0.15121000  1.0
  Pb  Pb30  1  0.49478000  0.00019000  0.05116000  1.0
  Pb  Pb31  1  0.49377000  0.50050000  0.05122000  1.0
  C  C32  1  0.58340000  0.26096000  0.28199000  1.0
  O  O33  1  0.46073000  0.24615000  0.30786000  1.0
