data_image0
_chemical_formula_structural       Li8In8Cu8Ag8C
_chemical_formula_sum              "Li8 In8 Cu8 Ag8 C1"
_cell_length_a       6.40797
_cell_length_b       9.06224
_cell_length_c       26.7967
_cell_angle_alpha    90
_cell_angle_beta     90
_cell_angle_gamma    90

_space_group_name_H-M_alt    "P 1"
_space_group_IT_number       1

loop_
  _space_group_symop_operation_xyz
  'x, y, z'

loop_
  _atom_site_type_symbol
  _atom_site_label
  _atom_site_symmetry_multiplicity
  _atom_site_fract_x
  _atom_site_fract_y
  _atom_site_fract_z
  _atom_site_occupancy
  Li  Li1       1.0  0.75000  0.00000  0.95773  1.0000
  Li  Li2       1.0  0.75000  0.50000  0.95773  1.0000
  Li  Li3       1.0  0.25000  0.25000  0.87318  1.0000
  Li  Li4       1.0  0.25000  0.75000  0.87318  1.0000
  Li  Li5       1.0  0.72809  0.52327  0.14062  1.0000
  Li  Li6       1.0  0.72809  0.97673  0.14061  1.0000
  Li  Li7       1.0  0.23673  0.75000  0.04183  1.0000
  Li  Li8       1.0  0.24942  0.25000  0.04778  1.0000
  In  In1       1.0  0.00000  0.25000  0.95773  1.0000
  In  In2       1.0  0.00000  0.75000  0.95773  1.0000
  In  In3       1.0  0.50000  0.50000  0.87318  1.0000
  In  In4       1.0  0.50000  0.00000  0.87318  1.0000
  In  In5       1.0  0.03090  0.75000  0.13985  1.0000
  In  In6       1.0  0.94786  0.25000  0.12938  1.0000
  In  In7       1.0  0.50417  0.99591  0.04422  1.0000
  In  In8       1.0  0.50417  0.50409  0.04422  1.0000
  Cu  Cu1       1.0  0.25000  0.00000  0.95773  1.0000
  Cu  Cu2       1.0  0.25000  0.50000  0.95773  1.0000
  Cu  Cu3       1.0  0.75000  0.25000  0.87318  1.0000
  Cu  Cu4       1.0  0.75000  0.75000  0.87318  1.0000
  Cu  Cu5       1.0  0.25142  0.46363  0.13157  1.0000
  Cu  Cu6       1.0  0.25142  0.03637  0.13157  1.0000
  Cu  Cu7       1.0  0.76160  0.75000  0.04722  1.0000
  Cu  Cu8       1.0  0.75541  0.25000  0.03702  1.0000
  Ag  Ag1       1.0  0.00000  0.00000  0.87318  1.0000
  Ag  Ag2       1.0  0.00000  0.50000  0.87318  1.0000
  Ag  Ag3       1.0  0.50000  0.75000  0.95773  1.0000
  Ag  Ag4       1.0  0.50000  0.25000  0.95773  1.0000
  Ag  Ag5       1.0  0.00132  0.50297  0.04551  1.0000
  Ag  Ag6       1.0  0.00133  0.99703  0.04551  1.0000
  Ag  Ag7       1.0  0.55035  0.25000  0.12309  1.0000
  Ag  Ag8       1.0  0.46783  0.75000  0.12362  1.0000
  C   C1        1.0  0.25843  0.25000  0.15265  1.0000
