# generated using pymatgen
data_Li8In8Cu8Ag8C
_symmetry_space_group_name_H-M   'P 1'
_cell_length_a   9.06224000
_cell_length_b   6.40797000
_cell_length_c   26.79670000
_cell_angle_alpha   90.00000000
_cell_angle_beta   90.00000000
_cell_angle_gamma   90.00000000
_symmetry_Int_Tables_number   1
_chemical_formula_structural   Li8In8Cu8Ag8C
_chemical_formula_sum   'Li8 In8 Cu8 Ag8 C1'
_cell_volume   1556.09943016
_cell_formula_units_Z   1
loop_
 _symmetry_equiv_pos_site_id
 _symmetry_equiv_pos_as_xyz
  1  'x, y, z'
loop_
 _atom_site_type_symbol
 _atom_site_label
 _atom_site_symmetry_multiplicity
 _atom_site_fract_x
 _atom_site_fract_y
 _atom_site_fract_z
 _atom_site_occupancy
  Li  Li0  1  0.75000000  0.75000000  0.04227000  1.0
  Li  Li1  1  0.25000000  0.75000000  0.04227000  1.0
  Li  Li2  1  0.00000000  0.25000000  0.12682000  1.0
  Li  Li3  1  0.50000000  0.25000000  0.12682000  1.0
  Li  Li4  1  0.27327000  0.72809000  0.85938000  1.0
  Li  Li5  1  0.72673000  0.72809000  0.85938000  1.0
  Li  Li6  1  0.50000000  0.23673000  0.95817000  1.0
  Li  Li7  1  0.00000000  0.24942000  0.95222000  1.0
  In  In8  1  0.00000000  0.00000000  0.04227000  1.0
  In  In9  1  0.50000000  1.00000000  0.04227000  1.0
  In  In10  1  0.25000000  0.50000000  0.12682000  1.0
  In  In11  1  0.75000000  0.50000000  0.12682000  1.0
  In  In12  1  0.50000000  0.03090000  0.86015000  1.0
  In  In13  1  0.00000000  0.94786000  0.87062000  1.0
  In  In14  1  0.74591000  0.50417000  0.95578000  1.0
  In  In15  1  0.25409000  0.50417000  0.95578000  1.0
  Cu  Cu16  1  0.75000000  0.25000000  0.04227000  1.0
  Cu  Cu17  1  0.25000000  0.25000000  0.04227000  1.0
  Cu  Cu18  1  0.00000000  0.75000000  0.12682000  1.0
  Cu  Cu19  1  0.50000000  0.75000000  0.12682000  1.0
  Cu  Cu20  1  0.21363000  0.25142000  0.86843000  1.0
  Cu  Cu21  1  0.78637000  0.25142000  0.86843000  1.0
  Cu  Cu22  1  0.50000000  0.76160000  0.95278000  1.0
  Cu  Cu23  1  0.00000000  0.75541000  0.96298000  1.0
  Ag  Ag24  1  0.75000000  0.00000000  0.12682000  1.0
  Ag  Ag25  1  0.25000000  0.00000000  0.12682000  1.0
  Ag  Ag26  1  0.50000000  0.50000000  0.04227000  1.0
  Ag  Ag27  1  0.00000000  0.50000000  0.04227000  1.0
  Ag  Ag28  1  0.25297000  0.00132000  0.95449000  1.0
  Ag  Ag29  1  0.74703000  0.00132000  0.95449000  1.0
  Ag  Ag30  1  0.00000000  0.55035000  0.87691000  1.0
  Ag  Ag31  1  0.50000000  0.46783000  0.87638000  1.0
  C  C32  1  0.00000000  0.25843000  0.84735000  1.0
