data_image0
_chemical_formula_structural       Li8Mg8Ag8Pd8CO
_chemical_formula_sum              "Li8 Mg8 Ag8 Pd8 C1 O1"
_cell_length_a       6.38329
_cell_length_b       9.02734
_cell_length_c       26.7705
_cell_angle_alpha    90
_cell_angle_beta     90
_cell_angle_gamma    90

_space_group_name_H-M_alt    "P 1"
_space_group_IT_number       1

loop_
  _space_group_symop_operation_xyz
  'x, y, z'

loop_
  _atom_site_type_symbol
  _atom_site_label
  _atom_site_symmetry_multiplicity
  _atom_site_fract_x
  _atom_site_fract_y
  _atom_site_fract_z
  _atom_site_occupancy
  Li  Li1       1.0  0.75000  0.00000  0.95785  1.0000
  Li  Li2       1.0  0.75000  0.50000  0.95785  1.0000
  Li  Li3       1.0  0.25000  0.25000  0.87355  1.0000
  Li  Li4       1.0  0.25000  0.75000  0.87355  1.0000
  Li  Li5       1.0  0.75840  0.50014  0.13210  1.0000
  Li  Li6       1.0  0.75839  0.99986  0.13210  1.0000
  Li  Li7       1.0  0.24957  0.75000  0.04239  1.0000
  Li  Li8       1.0  0.25410  0.25000  0.04318  1.0000
  Mg  Mg1       1.0  0.25000  0.00000  0.95785  1.0000
  Mg  Mg2       1.0  0.25000  0.50000  0.95785  1.0000
  Mg  Mg3       1.0  0.75000  0.25000  0.87355  1.0000
  Mg  Mg4       1.0  0.75000  0.75000  0.87355  1.0000
  Mg  Mg5       1.0  0.23460  0.50409  0.13130  1.0000
  Mg  Mg6       1.0  0.23460  0.99591  0.13130  1.0000
  Mg  Mg7       1.0  0.74479  0.75000  0.04173  1.0000
  Mg  Mg8       1.0  0.74241  0.25000  0.04276  1.0000
  Ag  Ag1       1.0  0.00000  0.00000  0.87355  1.0000
  Ag  Ag2       1.0  0.00000  0.50000  0.87355  1.0000
  Ag  Ag3       1.0  0.50000  0.75000  0.95785  1.0000
  Ag  Ag4       1.0  0.50000  0.25000  0.95785  1.0000
  Ag  Ag5       1.0  0.99805  0.49918  0.04268  1.0000
  Ag  Ag6       1.0  0.99805  0.00082  0.04268  1.0000
  Ag  Ag7       1.0  0.49399  0.25000  0.12923  1.0000
  Ag  Ag8       1.0  0.50339  0.75000  0.12766  1.0000
  Pd  Pd1       1.0  0.00000  0.25000  0.95785  1.0000
  Pd  Pd2       1.0  0.00000  0.75000  0.95785  1.0000
  Pd  Pd3       1.0  0.50000  0.50000  0.87355  1.0000
  Pd  Pd4       1.0  0.50000  0.00000  0.87355  1.0000
  Pd  Pd5       1.0  0.99626  0.75000  0.12145  1.0000
  Pd  Pd6       1.0  0.00695  0.25000  0.12056  1.0000
  Pd  Pd7       1.0  0.49661  0.00120  0.04699  1.0000
  Pd  Pd8       1.0  0.49661  0.49880  0.04699  1.0000
  C   C1        1.0  0.52738  0.25001  0.21342  1.0000
  O   O1        1.0  0.50144  0.25000  0.25579  1.0000
