# generated using pymatgen
data_Mg3In
_symmetry_space_group_name_H-M   Pmm2
_cell_length_a   6.39187000
_cell_length_b   9.03947000
_cell_length_c   24.79390000
_cell_angle_alpha   90.00000000
_cell_angle_beta   90.00000000
_cell_angle_gamma   90.00000000
_symmetry_Int_Tables_number   25
_chemical_formula_structural   Mg3In
_chemical_formula_sum   'Mg12 In4'
_cell_volume   1432.56965169
_cell_formula_units_Z   4
loop_
 _symmetry_equiv_pos_site_id
 _symmetry_equiv_pos_as_xyz
  1  'x, y, z'
  2  '-x, -y, z'
  3  '-x, y, z'
  4  'x, -y, z'
loop_
 _atom_site_type_symbol
 _atom_site_label
 _atom_site_symmetry_multiplicity
 _atom_site_fract_x
 _atom_site_fract_y
 _atom_site_fract_z
 _atom_site_occupancy
  Mg  Mg0  2  0.00000000  0.25000000  0.03223000  1.0
  Mg  Mg1  2  0.24999000  0.00000000  0.09668000  1.0
  Mg  Mg2  2  0.24999000  0.50000000  0.09668000  1.0
  Mg  Mg3  2  0.25024000  0.00000000  0.96436000  1.0
  Mg  Mg4  2  0.25026000  0.50000000  0.96436000  1.0
  Mg  Mg5  2  0.50000000  0.25001000  0.90302000  1.0
  In  In6  2  0.00000000  0.25004000  0.90231000  1.0
  In  In7  2  0.50000000  0.25000000  0.03223000  1.0
