data_image0
_chemical_formula_structural       Mg16Ag16CO
_chemical_formula_sum              "Mg16 Ag16 C1 O1"
_cell_length_a       6.75388
_cell_length_b       9.55143
_cell_length_c       27.1636
_cell_angle_alpha    90
_cell_angle_beta     90
_cell_angle_gamma    90

_space_group_name_H-M_alt    "P 1"
_space_group_IT_number       1

loop_
  _space_group_symop_operation_xyz
  'x, y, z'

loop_
  _atom_site_type_symbol
  _atom_site_label
  _atom_site_symmetry_multiplicity
  _atom_site_fract_x
  _atom_site_fract_y
  _atom_site_fract_z
  _atom_site_occupancy
  Mg  Mg1       1.0  0.25000  0.25000  0.86814  1.0000
  Mg  Mg2       1.0  0.25000  0.00000  0.95605  1.0000
  Mg  Mg3       1.0  0.24683  0.25000  0.04417  1.0000
  Mg  Mg4       1.0  0.25450  0.50308  0.13107  1.0000
  Mg  Mg5       1.0  0.25000  0.75000  0.86814  1.0000
  Mg  Mg6       1.0  0.25000  0.50000  0.95605  1.0000
  Mg  Mg7       1.0  0.25020  0.75000  0.04327  1.0000
  Mg  Mg8       1.0  0.25450  0.99692  0.13107  1.0000
  Mg  Mg9       1.0  0.75000  0.25000  0.86814  1.0000
  Mg  Mg10      1.0  0.75000  0.00000  0.95605  1.0000
  Mg  Mg11      1.0  0.75317  0.25000  0.04417  1.0000
  Mg  Mg12      1.0  0.74550  0.50308  0.13107  1.0000
  Mg  Mg13      1.0  0.75000  0.75000  0.86814  1.0000
  Mg  Mg14      1.0  0.75000  0.50000  0.95605  1.0000
  Mg  Mg15      1.0  0.74980  0.75000  0.04327  1.0000
  Mg  Mg16      1.0  0.74550  0.99692  0.13107  1.0000
  Ag  Ag1       1.0  0.00000  0.00000  0.86814  1.0000
  Ag  Ag2       1.0  0.00000  0.25000  0.95605  1.0000
  Ag  Ag3       1.0  0.00000  0.00051  0.04381  1.0000
  Ag  Ag4       1.0  0.00000  0.25000  0.13261  1.0000
  Ag  Ag5       1.0  0.00000  0.50000  0.86814  1.0000
  Ag  Ag6       1.0  0.00000  0.75000  0.95605  1.0000
  Ag  Ag7       1.0  0.00000  0.49949  0.04381  1.0000
  Ag  Ag8       1.0  1.00000  0.75000  0.12969  1.0000
  Ag  Ag9       1.0  0.50000  0.00000  0.86814  1.0000
  Ag  Ag10      1.0  0.50000  0.25000  0.95605  1.0000
  Ag  Ag11      1.0  0.50000  0.00009  0.04171  1.0000
  Ag  Ag12      1.0  0.50000  0.25000  0.12856  1.0000
  Ag  Ag13      1.0  0.50000  0.50000  0.86814  1.0000
  Ag  Ag14      1.0  0.50000  0.75000  0.95605  1.0000
  Ag  Ag15      1.0  0.50000  0.49991  0.04171  1.0000
  Ag  Ag16      1.0  0.50000  0.75000  0.12993  1.0000
  C   C1        1.0  0.00000  0.25000  0.21536  1.0000
  O   O1        1.0  1.00000  0.25000  0.25756  1.0000
