# generated using pymatgen
data_Mg16Ag16CO
_symmetry_space_group_name_H-M   'P 1'
_cell_length_a   6.75388000
_cell_length_b   9.55143000
_cell_length_c   27.16360000
_cell_angle_alpha   90.00000000
_cell_angle_beta   90.00000000
_cell_angle_gamma   90.00000000
_symmetry_Int_Tables_number   1
_chemical_formula_structural   Mg16Ag16CO
_chemical_formula_sum   'Mg16 Ag16 C1 O1'
_cell_volume   1752.30243240
_cell_formula_units_Z   1
loop_
 _symmetry_equiv_pos_site_id
 _symmetry_equiv_pos_as_xyz
  1  'x, y, z'
loop_
 _atom_site_type_symbol
 _atom_site_label
 _atom_site_symmetry_multiplicity
 _atom_site_fract_x
 _atom_site_fract_y
 _atom_site_fract_z
 _atom_site_occupancy
  Mg  Mg0  1  0.25000000  0.00000000  0.86814000  1.0
  Mg  Mg1  1  0.25000000  0.75000000  0.95605000  1.0
  Mg  Mg2  1  0.24683000  0.00000000  0.04417000  1.0
  Mg  Mg3  1  0.25450000  0.25308000  0.13107000  1.0
  Mg  Mg4  1  0.25000000  0.50000000  0.86814000  1.0
  Mg  Mg5  1  0.25000000  0.25000000  0.95605000  1.0
  Mg  Mg6  1  0.25020000  0.50000000  0.04327000  1.0
  Mg  Mg7  1  0.25450000  0.74692000  0.13107000  1.0
  Mg  Mg8  1  0.75000000  0.00000000  0.86814000  1.0
  Mg  Mg9  1  0.75000000  0.75000000  0.95605000  1.0
  Mg  Mg10  1  0.75317000  0.00000000  0.04417000  1.0
  Mg  Mg11  1  0.74550000  0.25308000  0.13107000  1.0
  Mg  Mg12  1  0.75000000  0.50000000  0.86814000  1.0
  Mg  Mg13  1  0.75000000  0.25000000  0.95605000  1.0
  Mg  Mg14  1  0.74980000  0.50000000  0.04327000  1.0
  Mg  Mg15  1  0.74550000  0.74692000  0.13107000  1.0
  Ag  Ag16  1  0.00000000  0.75000000  0.86814000  1.0
  Ag  Ag17  1  0.00000000  0.00000000  0.95605000  1.0
  Ag  Ag18  1  0.00000000  0.75051000  0.04381000  1.0
  Ag  Ag19  1  0.00000000  0.00000000  0.13261000  1.0
  Ag  Ag20  1  0.00000000  0.25000000  0.86814000  1.0
  Ag  Ag21  1  0.00000000  0.50000000  0.95605000  1.0
  Ag  Ag22  1  0.00000000  0.24949000  0.04381000  1.0
  Ag  Ag23  1  0.00000000  0.50000000  0.12969000  1.0
  Ag  Ag24  1  0.50000000  0.75000000  0.86814000  1.0
  Ag  Ag25  1  0.50000000  0.00000000  0.95605000  1.0
  Ag  Ag26  1  0.50000000  0.75009000  0.04171000  1.0
  Ag  Ag27  1  0.50000000  0.00000000  0.12856000  1.0
  Ag  Ag28  1  0.50000000  0.25000000  0.86814000  1.0
  Ag  Ag29  1  0.50000000  0.50000000  0.95605000  1.0
  Ag  Ag30  1  0.50000000  0.24991000  0.04171000  1.0
  Ag  Ag31  1  0.50000000  0.50000000  0.12993000  1.0
  C  C32  1  0.00000000  0.00000000  0.21536000  1.0
  O  O33  1  0.00000000  0.00000000  0.25756000  1.0
