# generated using pymatgen
data_Li8Zn8Ge8Pd8CO
_symmetry_space_group_name_H-M   'P 1'
_cell_length_a   8.74708000
_cell_length_b   6.18512000
_cell_length_c   26.56030000
_cell_angle_alpha   90.00000000
_cell_angle_beta   90.00000000
_cell_angle_gamma   90.00000000
_symmetry_Int_Tables_number   1
_chemical_formula_structural   Li8Zn8Ge8Pd8CO
_chemical_formula_sum   'Li8 Zn8 Ge8 Pd8 C1 O1'
_cell_volume   1436.95843030
_cell_formula_units_Z   1
loop_
 _symmetry_equiv_pos_site_id
 _symmetry_equiv_pos_as_xyz
  1  'x, y, z'
loop_
 _atom_site_type_symbol
 _atom_site_label
 _atom_site_symmetry_multiplicity
 _atom_site_fract_x
 _atom_site_fract_y
 _atom_site_fract_z
 _atom_site_occupancy
  Li  Li0  1  0.00000000  0.75000000  0.04117000  1.0
  Li  Li1  1  0.50000000  0.75000000  0.04117000  1.0
  Li  Li2  1  0.25000000  0.25000000  0.12350000  1.0
  Li  Li3  1  0.75000000  0.25000000  0.12350000  1.0
  Li  Li4  1  0.50000000  0.72731000  0.86338000  1.0
  Li  Li5  1  0.00000000  0.72217000  0.84479000  1.0
  Li  Li6  1  0.75383000  0.25232000  0.95796000  1.0
  Li  Li7  1  0.24617000  0.25232000  0.95796000  1.0
  Zn  Zn8  1  0.25000000  0.00000000  0.04117000  1.0
  Zn  Zn9  1  0.75000000  0.00000000  0.04117000  1.0
  Zn  Zn10  1  0.50000000  0.50000000  0.12350000  1.0
  Zn  Zn11  1  0.00000000  0.50000000  0.12350000  1.0
  Zn  Zn12  1  0.75112000  0.99609000  0.87551000  1.0
  Zn  Zn13  1  0.24888000  0.99609000  0.87551000  1.0
  Zn  Zn14  1  0.00000000  0.51583000  0.95348000  1.0
  Zn  Zn15  1  0.50000000  0.50168000  0.95669000  1.0
  Ge  Ge16  1  0.00000000  0.00000000  0.12350000  1.0
  Ge  Ge17  1  0.50000000  0.00000000  0.12350000  1.0
  Ge  Ge18  1  0.75000000  0.50000000  0.04117000  1.0
  Ge  Ge19  1  0.25000000  0.50000000  0.04117000  1.0
  Ge  Ge20  1  0.50000000  0.99192000  0.95523000  1.0
  Ge  Ge21  1  0.00000000  0.98011000  0.95184000  1.0
  Ge  Ge22  1  0.24888000  0.48468000  0.86926000  1.0
  Ge  Ge23  1  0.75112000  0.48468000  0.86926000  1.0
  Pd  Pd24  1  0.00000000  0.25000000  0.04117000  1.0
  Pd  Pd25  1  0.50000000  0.25000000  0.04117000  1.0
  Pd  Pd26  1  0.25000000  0.75000000  0.12350000  1.0
  Pd  Pd27  1  0.75000000  0.75000000  0.12350000  1.0
  Pd  Pd28  1  0.50000000  0.24972000  0.87957000  1.0
  Pd  Pd29  1  0.00000000  0.25118000  0.87886000  1.0
  Pd  Pd30  1  0.74580000  0.74280000  0.96036000  1.0
  Pd  Pd31  1  0.25420000  0.74280000  0.96036000  1.0
  C  C32  1  0.00000000  0.75268000  0.76455000  1.0
  O  O33  1  0.00000000  0.76523000  0.72185000  1.0
