data_image0
_chemical_formula_structural       Zn16Cu16
_chemical_formula_sum              "Zn16 Cu16"
_cell_length_a       5.98486
_cell_length_b       8.46387
_cell_length_c       26.3479
_cell_angle_alpha    90
_cell_angle_beta     90
_cell_angle_gamma    90

_space_group_name_H-M_alt    "P 1"
_space_group_IT_number       1

loop_
  _space_group_symop_operation_xyz
  'x, y, z'

loop_
  _atom_site_type_symbol
  _atom_site_label
  _atom_site_symmetry_multiplicity
  _atom_site_fract_x
  _atom_site_fract_y
  _atom_site_fract_z
  _atom_site_occupancy
  Zn  Zn1       1.0  0.25000  0.25000  0.87954  1.0000
  Zn  Zn2       1.0  0.25000  0.00000  0.95985  1.0000
  Zn  Zn3       1.0  0.25000  0.25000  0.04015  1.0000
  Zn  Zn4       1.0  0.25000  0.00000  0.12046  1.0000
  Zn  Zn5       1.0  0.25000  0.75000  0.87954  1.0000
  Zn  Zn6       1.0  0.25000  0.50000  0.95985  1.0000
  Zn  Zn7       1.0  0.25000  0.75000  0.04015  1.0000
  Zn  Zn8       1.0  0.25000  0.50000  0.12046  1.0000
  Zn  Zn9       1.0  0.75000  0.25000  0.87954  1.0000
  Zn  Zn10      1.0  0.75000  0.00000  0.95985  1.0000
  Zn  Zn11      1.0  0.75000  0.25000  0.04015  1.0000
  Zn  Zn12      1.0  0.75000  0.00000  0.12046  1.0000
  Zn  Zn13      1.0  0.75000  0.75000  0.87954  1.0000
  Zn  Zn14      1.0  0.75000  0.50000  0.95985  1.0000
  Zn  Zn15      1.0  0.75000  0.75000  0.04015  1.0000
  Zn  Zn16      1.0  0.75000  0.50000  0.12046  1.0000
  Cu  Cu1       1.0  0.00000  0.00000  0.87954  1.0000
  Cu  Cu2       1.0  0.00000  0.25000  0.95985  1.0000
  Cu  Cu3       1.0  0.00000  0.00000  0.04015  1.0000
  Cu  Cu4       1.0  0.00000  0.25000  0.12046  1.0000
  Cu  Cu5       1.0  0.00000  0.50000  0.87954  1.0000
  Cu  Cu6       1.0  0.00000  0.75000  0.95985  1.0000
  Cu  Cu7       1.0  0.00000  0.50000  0.04015  1.0000
  Cu  Cu8       1.0  0.00000  0.75000  0.12046  1.0000
  Cu  Cu9       1.0  0.50000  0.00000  0.87954  1.0000
  Cu  Cu10      1.0  0.50000  0.25000  0.95985  1.0000
  Cu  Cu11      1.0  0.50000  0.00000  0.04015  1.0000
  Cu  Cu12      1.0  0.50000  0.25000  0.12046  1.0000
  Cu  Cu13      1.0  0.50000  0.50000  0.87954  1.0000
  Cu  Cu14      1.0  0.50000  0.75000  0.95985  1.0000
  Cu  Cu15      1.0  0.50000  0.50000  0.04015  1.0000
  Cu  Cu16      1.0  0.50000  0.75000  0.12046  1.0000
