# generated using pymatgen
data_ZnCu
_symmetry_space_group_name_H-M   'P 1'
_cell_length_a   4.23193500
_cell_length_b   5.98486000
_cell_length_c   26.34790000
_cell_angle_alpha   90.00000000
_cell_angle_beta   90.00000000
_cell_angle_gamma   90.00000000
_symmetry_Int_Tables_number   1
_chemical_formula_structural   ZnCu
_chemical_formula_sum   'Zn8 Cu8'
_cell_volume   667.32745175
_cell_formula_units_Z   8
loop_
 _symmetry_equiv_pos_site_id
 _symmetry_equiv_pos_as_xyz
  1  'x, y, z'
loop_
 _atom_site_type_symbol
 _atom_site_label
 _atom_site_symmetry_multiplicity
 _atom_site_fract_x
 _atom_site_fract_y
 _atom_site_fract_z
 _atom_site_occupancy
  Zn  Zn0  1  0.50000000  0.75000000  0.12046000  1.0
  Zn  Zn1  1  0.00000000  0.75000000  0.04015000  1.0
  Zn  Zn2  1  0.50000000  0.74977000  0.96064000  1.0
  Zn  Zn3  1  0.00000000  0.74965000  0.87633000  1.0
  Zn  Zn4  1  0.50000000  0.25000000  0.12046000  1.0
  Zn  Zn5  1  0.00000000  0.25000000  0.04015000  1.0
  Zn  Zn6  1  0.50000000  0.25023000  0.96064000  1.0
  Zn  Zn7  1  0.00000000  0.25035000  0.87633000  1.0
  Cu  Cu8  1  0.00000000  0.00000000  0.12046000  1.0
  Cu  Cu9  1  0.50000000  0.00000000  0.04015000  1.0
  Cu  Cu10  1  0.00000000  0.00000000  0.95992000  1.0
  Cu  Cu11  1  0.50000000  0.00000000  0.88264000  1.0
  Cu  Cu12  1  0.00000000  0.50000000  0.12046000  1.0
  Cu  Cu13  1  0.50000000  0.50000000  0.04015000  1.0
  Cu  Cu14  1  0.00000000  0.50000000  0.96001000  1.0
  Cu  Cu15  1  0.50000000  0.50000000  0.88253000  1.0
