# generated using pymatgen
data_Mn24Sb8CO
_symmetry_space_group_name_H-M   'P 1'
_cell_length_a   7.64649000
_cell_length_b   7.64649000
_cell_length_c   25.73490000
_cell_angle_alpha   90.00000000
_cell_angle_beta   90.00000000
_cell_angle_gamma   90.00000000
_symmetry_Int_Tables_number   1
_chemical_formula_structural   Mn24Sb8CO
_chemical_formula_sum   'Mn24 Sb8 C1 O1'
_cell_volume   1504.68896097
_cell_formula_units_Z   1
loop_
 _symmetry_equiv_pos_site_id
 _symmetry_equiv_pos_as_xyz
  1  'x, y, z'
loop_
 _atom_site_type_symbol
 _atom_site_label
 _atom_site_symmetry_multiplicity
 _atom_site_fract_x
 _atom_site_fract_y
 _atom_site_fract_z
 _atom_site_occupancy
  Mn  Mn0  1  0.75000000  0.25000000  0.96286000  1.0
  Mn  Mn1  1  0.00000000  0.00000000  0.96286000  1.0
  Mn  Mn2  1  0.00000000  0.25000000  0.88858000  1.0
  Mn  Mn3  1  0.75000000  0.25000000  0.11142000  1.0
  Mn  Mn4  1  0.00000000  0.00000000  0.11142000  1.0
  Mn  Mn5  1  0.00000000  0.25000000  0.03714000  1.0
  Mn  Mn6  1  0.75000000  0.75000000  0.96286000  1.0
  Mn  Mn7  1  0.00000000  0.50000000  0.96286000  1.0
  Mn  Mn8  1  0.00000000  0.75000000  0.88858000  1.0
  Mn  Mn9  1  0.75000000  0.75000000  0.11142000  1.0
  Mn  Mn10  1  0.00000000  0.50000000  0.11142000  1.0
  Mn  Mn11  1  0.00000000  0.75000000  0.03714000  1.0
  Mn  Mn12  1  0.25000000  0.25000000  0.96286000  1.0
  Mn  Mn13  1  0.50000000  0.00000000  0.96286000  1.0
  Mn  Mn14  1  0.50000000  0.25000000  0.88858000  1.0
  Mn  Mn15  1  0.25000000  0.25000000  0.11142000  1.0
  Mn  Mn16  1  0.50000000  0.00000000  0.11142000  1.0
  Mn  Mn17  1  0.50000000  0.25000000  0.03714000  1.0
  Mn  Mn18  1  0.25000000  0.75000000  0.96286000  1.0
  Mn  Mn19  1  0.50000000  0.50000000  0.96286000  1.0
  Mn  Mn20  1  0.50000000  0.75000000  0.88858000  1.0
  Mn  Mn21  1  0.25000000  0.75000000  0.11142000  1.0
  Mn  Mn22  1  0.50000000  0.50000000  0.11142000  1.0
  Mn  Mn23  1  0.50000000  0.75000000  0.03714000  1.0
  Sb  Sb24  1  0.75000000  0.00000000  0.88858000  1.0
  Sb  Sb25  1  0.75000000  0.00000000  0.03714000  1.0
  Sb  Sb26  1  0.75000000  0.50000000  0.88858000  1.0
  Sb  Sb27  1  0.75000000  0.50000000  0.03714000  1.0
  Sb  Sb28  1  0.25000000  0.00000000  0.88858000  1.0
  Sb  Sb29  1  0.25000000  0.00000000  0.03714000  1.0
  Sb  Sb30  1  0.25000000  0.50000000  0.88858000  1.0
  Sb  Sb31  1  0.25000000  0.50000000  0.03714000  1.0
  C  C32  1  0.00000000  0.00000000  0.18525000  1.0
  O  O33  1  0.00000000  0.00000000  0.22994000  1.0
