# generated using pymatgen
data_Sc4Ni8Sn4CO
_symmetry_space_group_name_H-M   'P 1'
_cell_length_a   6.29417000
_cell_length_b   6.29417000
_cell_length_c   24.72060000
_cell_angle_alpha   90.00000000
_cell_angle_beta   90.00000000
_cell_angle_gamma   90.00000000
_symmetry_Int_Tables_number   1
_chemical_formula_structural   Sc4Ni8Sn4CO
_chemical_formula_sum   'Sc4 Ni8 Sn4 C1 O1'
_cell_volume   979.34552839
_cell_formula_units_Z   1
loop_
 _symmetry_equiv_pos_site_id
 _symmetry_equiv_pos_as_xyz
  1  'x, y, z'
loop_
 _atom_site_type_symbol
 _atom_site_label
 _atom_site_symmetry_multiplicity
 _atom_site_fract_x
 _atom_site_fract_y
 _atom_site_fract_z
 _atom_site_occupancy
  Sc  Sc0  1  0.00000000  0.00000000  0.09548000  1
  Sc  Sc1  1  0.50000000  0.50000000  0.09548000  1
  Sc  Sc2  1  0.99649000  0.49629000  0.96638000  1
  Sc  Sc3  1  0.50371000  0.00351000  0.96638000  1
  Ni  Ni4  1  0.25000000  0.75000000  0.03183000  1
  Ni  Ni5  1  0.74963500  0.25036500  0.91037000  1
  Ni  Ni6  1  0.25000000  0.25000000  0.03183000  1
  Ni  Ni7  1  0.74979000  0.74956000  0.91039000  1
  Ni  Ni8  1  0.75000000  0.25000000  0.03183000  1
  Ni  Ni9  1  0.25028500  0.74971500  0.90533000  1
  Ni  Ni10  1  0.75000000  0.75000000  0.03183000  1
  Ni  Ni11  1  0.25044000  0.25021000  0.91039000  1
  Sn  Sn12  1  0.00105500  0.99894500  0.96573000  1
  Sn  Sn13  1  0.00000000  0.50000000  0.09548000  1
  Sn  Sn14  1  0.50000000  1.00000000  0.09548000  1
  Sn  Sn15  1  0.49881500  0.50118500  0.96593000  1
  C  C16  1  0.24878000  0.75122000  0.83340000  1
  O  O17  1  0.24815000  0.75185000  0.78678000  1
