# generated using pymatgen
data_Sc4Ni8Sn4CO
_symmetry_space_group_name_H-M   Cm
_cell_length_a   8.90130058
_cell_length_b   8.90130058
_cell_length_c   24.72060000
_cell_angle_alpha   90.00000000
_cell_angle_beta   90.00000000
_cell_angle_gamma   90.00000000
_symmetry_Int_Tables_number   8
_chemical_formula_structural   Sc4Ni8Sn4CO
_chemical_formula_sum   'Sc8 Ni16 Sn8 C2 O2'
_cell_volume   1958.69105678
_cell_formula_units_Z   2
loop_
 _symmetry_equiv_pos_site_id
 _symmetry_equiv_pos_as_xyz
  1  'x, y, z'
  2  'x, -y, z'
  3  'x+1/2, y+1/2, z'
  4  'x+1/2, -y+1/2, z'
loop_
 _atom_site_type_symbol
 _atom_site_label
 _atom_site_symmetry_multiplicity
 _atom_site_fract_x
 _atom_site_fract_y
 _atom_site_fract_z
 _atom_site_occupancy
  Sc  Sc0  4  0.25010000  0.25361000  0.03362000  1.0
  Sc  Sc1  2  0.00000000  0.00000000  0.90452000  1.0
  Sc  Sc2  2  0.00000000  0.50000000  0.90452000  1.0
  Ni  Ni3  4  0.00000000  0.25000000  0.96817000  1.0
  Ni  Ni4  4  0.00011500  0.25032500  0.08961000  1.0
  Ni  Ni5  2  0.24963500  0.50000000  0.08963000  1.0
  Ni  Ni6  2  0.25000000  0.00000000  0.96817000  1.0
  Ni  Ni7  2  0.25000000  0.50000000  0.96817000  1.0
  Ni  Ni8  2  0.25028500  0.00000000  0.09467000  1.0
  Sn  Sn9  4  0.25000000  0.25000000  0.90452000  1.0
  Sn  Sn10  2  0.00105500  0.00000000  0.03427000  1.0
  Sn  Sn11  2  0.49881500  0.00000000  0.03407000  1.0
  C  C12  2  0.24878000  0.00000000  0.16660000  1.0
  O  O13  2  0.24815000  0.00000000  0.21322000  1.0
