# generated using pymatgen
data_Li8Mg8Al8Cu8CO
_symmetry_space_group_name_H-M   'P 1'
_cell_length_a   8.75944000
_cell_length_b   6.19386000
_cell_length_c   26.56960000
_cell_angle_alpha   90.00000000
_cell_angle_beta   90.00000000
_cell_angle_gamma   90.00000000
_symmetry_Int_Tables_number   1
_chemical_formula_structural   Li8Mg8Al8Cu8CO
_chemical_formula_sum   'Li8 Mg8 Al8 Cu8 C1 O1'
_cell_volume   1441.52687377
_cell_formula_units_Z   1
loop_
 _symmetry_equiv_pos_site_id
 _symmetry_equiv_pos_as_xyz
  1  'x, y, z'
loop_
 _atom_site_type_symbol
 _atom_site_label
 _atom_site_symmetry_multiplicity
 _atom_site_fract_x
 _atom_site_fract_y
 _atom_site_fract_z
 _atom_site_occupancy
  Li  Li0  1  0.00000000  0.25000000  0.04121000  1.0
  Li  Li1  1  0.50000000  0.25000000  0.04121000  1.0
  Li  Li2  1  0.25000000  0.75000000  0.12363000  1.0
  Li  Li3  1  0.75000000  0.75000000  0.12363000  1.0
  Li  Li4  1  0.50000000  0.35876000  0.82375000  1.0
  Li  Li5  1  0.00000000  0.30807000  0.84223000  1.0
  Li  Li6  1  0.75187000  0.76654000  0.95563000  1.0
  Li  Li7  1  0.24813000  0.76654000  0.95563000  1.0
  Mg  Mg8  1  0.25000000  1.00000000  0.04121000  1.0
  Mg  Mg9  1  0.75000000  1.00000000  0.04121000  1.0
  Mg  Mg10  1  0.50000000  0.50000000  0.12363000  1.0
  Mg  Mg11  1  0.00000000  0.50000000  0.12363000  1.0
  Mg  Mg12  1  0.73154000  0.03338000  0.87138000  1.0
  Mg  Mg13  1  0.26846000  0.03338000  0.87138000  1.0
  Mg  Mg14  1  0.00000000  0.49702000  0.95314000  1.0
  Mg  Mg15  1  0.50000000  0.48794000  0.95643000  1.0
  Al  Al16  1  0.00000000  0.00000000  0.12363000  1.0
  Al  Al17  1  0.50000000  1.00000000  0.12363000  1.0
  Al  Al18  1  0.75000000  0.50000000  0.04121000  1.0
  Al  Al19  1  0.25000000  0.50000000  0.04121000  1.0
  Al  Al20  1  0.50000000  0.01189000  0.95587000  1.0
  Al  Al21  1  0.00000000  0.02116000  0.95179000  1.0
  Al  Al22  1  0.25663000  0.50994000  0.87706000  1.0
  Al  Al23  1  0.74337000  0.50994000  0.87706000  1.0
  Cu  Cu24  1  0.00000000  0.75000000  0.04121000  1.0
  Cu  Cu25  1  0.50000000  0.75000000  0.04121000  1.0
  Cu  Cu26  1  0.25000000  0.25000000  0.12363000  1.0
  Cu  Cu27  1  0.75000000  0.25000000  0.12363000  1.0
  Cu  Cu28  1  0.50000000  0.74422000  0.88097000  1.0
  Cu  Cu29  1  0.00000000  0.76228000  0.87577000  1.0
  Cu  Cu30  1  0.75168000  0.25243000  0.96200000  1.0
  Cu  Cu31  1  0.24832000  0.25243000  0.96200000  1.0
  C  C32  1  0.00000000  0.80770000  0.80647000  1.0
  O  O33  1  0.00000000  0.80751000  0.76264000  1.0
