# generated using pymatgen
data_Li8Mg8Al8Cu8CO
_symmetry_space_group_name_H-M   Pm
_cell_length_a   6.19386000
_cell_length_b   8.75944000
_cell_length_c   26.56960000
_cell_angle_alpha   90.00000000
_cell_angle_beta   90.00000000
_cell_angle_gamma   90.00000000
_symmetry_Int_Tables_number   6
_chemical_formula_structural   Li8Mg8Al8Cu8CO
_chemical_formula_sum   'Li8 Mg8 Al8 Cu8 C1 O1'
_cell_volume   1441.52687377
_cell_formula_units_Z   1
loop_
 _symmetry_equiv_pos_site_id
 _symmetry_equiv_pos_as_xyz
  1  'x, y, z'
  2  'x, -y, z'
loop_
 _atom_site_type_symbol
 _atom_site_label
 _atom_site_symmetry_multiplicity
 _atom_site_fract_x
 _atom_site_fract_y
 _atom_site_fract_z
 _atom_site_occupancy
  Li  Li0  2  0.75000000  0.25000000  0.87637000  1.0
  Li  Li1  2  0.76654000  0.24813000  0.04437000  1.0
  Li  Li2  1  0.25000000  0.00000000  0.95879000  1.0
  Li  Li3  1  0.25000000  0.50000000  0.95879000  1.0
  Li  Li4  1  0.30807000  0.00000000  0.15777000  1.0
  Li  Li5  1  0.35876000  0.50000000  0.17625000  1.0
  Mg  Mg6  2  -0.00000000  0.25000000  0.95879000  1.0
  Mg  Mg7  2  0.03338000  0.26846000  0.12862000  1.0
  Mg  Mg8  1  0.48794000  0.50000000  0.04357000  1.0
  Mg  Mg9  1  0.49702000  0.00000000  0.04686000  1.0
  Mg  Mg10  1  0.50000000  0.00000000  0.87637000  1.0
  Mg  Mg11  1  0.50000000  0.50000000  0.87637000  1.0
  Al  Al12  2  0.50000000  0.25000000  0.95879000  1.0
  Al  Al13  2  0.50994000  0.25663000  0.12294000  1.0
  Al  Al14  1  -0.00000000  0.50000000  0.87637000  1.0
  Al  Al15  1  0.00000000  0.00000000  0.87637000  1.0
  Al  Al16  1  0.01189000  0.50000000  0.04413000  1.0
  Al  Al17  1  0.02116000  0.00000000  0.04821000  1.0
  Cu  Cu18  2  0.25000000  0.25000000  0.87637000  1.0
  Cu  Cu19  2  0.25243000  0.24832000  0.03800000  1.0
  Cu  Cu20  1  0.74422000  0.50000000  0.11903000  1.0
  Cu  Cu21  1  0.75000000  0.00000000  0.95879000  1.0
  Cu  Cu22  1  0.75000000  0.50000000  0.95879000  1.0
  Cu  Cu23  1  0.76228000  0.00000000  0.12423000  1.0
  C  C24  1  0.80770000  0.00000000  0.19353000  1.0
  O  O25  1  0.80751000  0.00000000  0.23736000  1.0
