# generated using pymatgen
data_V8Ni16Sn8CO
_symmetry_space_group_name_H-M   P1
_cell_length_a   6.08368000
_cell_length_b   8.60362000
_cell_length_c   26.45270000
_cell_angle_alpha   90.00000000
_cell_angle_beta   90.00000000
_cell_angle_gamma   90.00000000
_symmetry_Int_Tables_number   1
_chemical_formula_structural   V8Ni16Sn8CO
_chemical_formula_sum   'V8 Ni16 Sn8 C1 O1'
_cell_volume   1384.57851839
_cell_formula_units_Z   1
loop_
 _symmetry_equiv_pos_site_id
 _symmetry_equiv_pos_as_xyz
  1  'x, y, z'
loop_
 _atom_site_type_symbol
 _atom_site_label
 _atom_site_symmetry_multiplicity
 _atom_site_fract_x
 _atom_site_fract_y
 _atom_site_fract_z
 _atom_site_occupancy
  V  V0  1  0.00000000  0.00000000  0.87803000  1.0
  V  V1  1  0.00000000  0.50000000  0.87803000  1.0
  V  V2  1  0.49516000  0.25462000  0.11606000  1.0
  V  V3  1  0.49518000  0.74538000  0.11604000  1.0
  V  V4  1  0.50000000  0.25000000  0.95934000  1.0
  V  V5  1  0.50000000  0.75000000  0.95934000  1.0
  V  V6  1  0.99275000  0.50006000  0.04144000  1.0
  V  V7  1  0.99503000  0.99997000  0.04241000  1.0
  Ni  Ni8  1  0.21267000  0.74941000  0.04982000  1.0
  Ni  Ni9  1  0.21282000  0.25063000  0.04977000  1.0
  Ni  Ni10  1  0.25000000  0.00000000  0.95934000  1.0
  Ni  Ni11  1  0.25000000  0.25000000  0.87803000  1.0
  Ni  Ni12  1  0.25000000  0.50000000  0.95934000  1.0
  Ni  Ni13  1  0.25000000  0.75000000  0.87803000  1.0
  Ni  Ni14  1  0.26462000  0.49995000  0.11628000  1.0
  Ni  Ni15  1  0.26585000  0.00005000  0.12796000  1.0
  Ni  Ni16  1  0.70467000  0.49992000  0.11946000  1.0
  Ni  Ni17  1  0.73607000  0.00005000  0.11434000  1.0
  Ni  Ni18  1  0.75000000  0.00000000  0.95934000  1.0
  Ni  Ni19  1  0.75000000  0.25000000  0.87803000  1.0
  Ni  Ni20  1  0.75000000  0.50000000  0.95934000  1.0
  Ni  Ni21  1  0.75000000  0.75000000  0.87803000  1.0
  Ni  Ni22  1  0.76305000  0.24816000  0.04587000  1.0
  Ni  Ni23  1  0.76329000  0.75185000  0.04593000  1.0
  Sn  Sn24  1  0.00000000  0.25000000  0.95934000  1.0
  Sn  Sn25  1  0.00000000  0.75000000  0.95934000  1.0
  Sn  Sn26  1  0.48349000  0.00001000  0.03856000  1.0
  Sn  Sn27  1  0.49533000  0.50001000  0.03632000  1.0
  Sn  Sn28  1  0.50000000  0.00000000  0.87803000  1.0
  Sn  Sn29  1  0.50000000  0.50000000  0.87803000  1.0
  Sn  Sn30  1  0.98415000  0.74289000  0.13729000  1.0
  Sn  Sn31  1  0.98416000  0.25709000  0.13720000  1.0
  C  C32  1  0.39376000  0.00002000  0.18760000  1.0
  O  O33  1  0.45849000  0.99998000  0.22892000  1.0
