# generated using pymatgen
data_Y4Sn4Ge4Pd4CO
_symmetry_space_group_name_H-M   'P 1'
_cell_length_a   5.93056000
_cell_length_b   9.60308000
_cell_length_c   24.43880000
_cell_angle_alpha   90.00000000
_cell_angle_beta   90.00000000
_cell_angle_gamma   90.00000000
_symmetry_Int_Tables_number   1
_chemical_formula_structural   Y4Sn4Ge4Pd4CO
_chemical_formula_sum   'Y4 Sn4 Ge4 Pd4 C1 O1'
_cell_volume   1391.82979156
_cell_formula_units_Z   1
loop_
 _symmetry_equiv_pos_site_id
 _symmetry_equiv_pos_as_xyz
  1  'x, y, z'
loop_
 _atom_site_type_symbol
 _atom_site_label
 _atom_site_symmetry_multiplicity
 _atom_site_fract_x
 _atom_site_fract_y
 _atom_site_fract_z
 _atom_site_occupancy
  Y  Y0  1  0.50000000  0.00000000  0.90919000  1.0
  Y  Y1  1  0.03665000  0.00447000  0.03327000  1.0
  Y  Y2  1  0.50000000  0.50000000  0.90919000  1.0
  Y  Y3  1  0.03630000  0.49552000  0.03330000  1.0
  Sn  Sn4  1  0.76598000  0.75000000  0.96973000  1.0
  Sn  Sn5  1  0.31627000  0.75000000  0.09382000  1.0
  Sn  Sn6  1  0.76598000  0.25000000  0.96973000  1.0
  Sn  Sn7  1  0.36688000  0.25003000  0.08607000  1.0
  Ge  Ge8  1  0.00000000  0.00000000  0.90919000  1.0
  Ge  Ge9  1  0.52780000  0.97679000  0.03732000  1.0
  Ge  Ge10  1  0.00000000  0.50000000  0.90919000  1.0
  Ge  Ge11  1  0.52741000  0.52326000  0.03726000  1.0
  Pd  Pd12  1  0.26598000  0.75000000  0.96973000  1.0
  Pd  Pd13  1  0.80366000  0.75003000  0.08334000  1.0
  Pd  Pd14  1  0.26598000  0.25000000  0.96973000  1.0
  Pd  Pd15  1  0.84598000  0.24996000  0.08034000  1.0
  C  C16  1  0.83566000  0.74994000  0.16447000  1.0
  O  O17  1  0.86260000  0.74992000  0.21106000  1.0
