# generated using pymatgen
data_Y4Sn4Ge4Pd4CO
_symmetry_space_group_name_H-M   P1
_cell_length_a   5.93056000
_cell_length_b   9.60308000
_cell_length_c   24.43880000
_cell_angle_alpha   90.00000000
_cell_angle_beta   90.00000000
_cell_angle_gamma   90.00000000
_symmetry_Int_Tables_number   1
_chemical_formula_structural   Y4Sn4Ge4Pd4CO
_chemical_formula_sum   'Y4 Sn4 Ge4 Pd4 C1 O1'
_cell_volume   1391.82979156
_cell_formula_units_Z   1
loop_
 _symmetry_equiv_pos_site_id
 _symmetry_equiv_pos_as_xyz
  1  'x, y, z'
loop_
 _atom_site_type_symbol
 _atom_site_label
 _atom_site_symmetry_multiplicity
 _atom_site_fract_x
 _atom_site_fract_y
 _atom_site_fract_z
 _atom_site_occupancy
  Y  Y0  1  0.50000000  0.00000000  0.90919000  1.0
  Y  Y1  1  0.50000000  0.50000000  0.90919000  1.0
  Y  Y2  1  0.96335000  0.99553000  0.03327000  1.0
  Y  Y3  1  0.96370000  0.50448000  0.03330000  1.0
  Sn  Sn4  1  0.23402000  0.25000000  0.96973000  1.0
  Sn  Sn5  1  0.23402000  0.75000000  0.96973000  1.0
  Sn  Sn6  1  0.63312000  0.74997000  0.08607000  1.0
  Sn  Sn7  1  0.68373000  0.25000000  0.09382000  1.0
  Ge  Ge8  1  0.00000000  0.00000000  0.90919000  1.0
  Ge  Ge9  1  0.00000000  0.50000000  0.90919000  1.0
  Ge  Ge10  1  0.47220000  0.02321000  0.03732000  1.0
  Ge  Ge11  1  0.47259000  0.47674000  0.03726000  1.0
  Pd  Pd12  1  0.15402000  0.75004000  0.08034000  1.0
  Pd  Pd13  1  0.19634000  0.24997000  0.08334000  1.0
  Pd  Pd14  1  0.73402000  0.25000000  0.96973000  1.0
  Pd  Pd15  1  0.73402000  0.75000000  0.96973000  1.0
  C  C16  1  0.16434000  0.25006000  0.16447000  1.0
  O  O17  1  0.13740000  0.25008000  0.21106000  1.0
