# generated using pymatgen
data_Ta8Rh24C
_symmetry_space_group_name_H-M   'P 1'
_cell_length_a   7.79956000
_cell_length_b   7.79956000
_cell_length_c   25.84970000
_cell_angle_alpha   90.00000000
_cell_angle_beta   90.00000000
_cell_angle_gamma   90.00000000
_symmetry_Int_Tables_number   1
_chemical_formula_structural   Ta8Rh24C
_chemical_formula_sum   'Ta8 Rh24 C1'
_cell_volume   1572.51832066
_cell_formula_units_Z   1
loop_
 _symmetry_equiv_pos_site_id
 _symmetry_equiv_pos_as_xyz
  1  'x, y, z'
loop_
 _atom_site_type_symbol
 _atom_site_label
 _atom_site_symmetry_multiplicity
 _atom_site_fract_x
 _atom_site_fract_y
 _atom_site_fract_z
 _atom_site_occupancy
  Ta  Ta0  1  0.75000000  0.75000000  0.88685000  1.0
  Ta  Ta1  1  0.75000000  0.75000000  0.03772000  1.0
  Ta  Ta2  1  0.75000000  0.25000000  0.88685000  1.0
  Ta  Ta3  1  0.75000000  0.25000000  0.03772000  1.0
  Ta  Ta4  1  0.25000000  0.75000000  0.88685000  1.0
  Ta  Ta5  1  0.25000000  0.75000000  0.03772000  1.0
  Ta  Ta6  1  0.25000000  0.25000000  0.88685000  1.0
  Ta  Ta7  1  0.25000000  0.25000000  0.03772000  1.0
  Rh  Rh8  1  0.75000000  0.00000000  0.96228000  1.0
  Rh  Rh9  1  0.00000000  0.75000000  0.96228000  1.0
  Rh  Rh10  1  0.00000000  0.00000000  0.88685000  1.0
  Rh  Rh11  1  0.75000000  0.00000000  0.11315000  1.0
  Rh  Rh12  1  0.00000000  0.75000000  0.11315000  1.0
  Rh  Rh13  1  0.00000000  0.00000000  0.03772000  1.0
  Rh  Rh14  1  0.75000000  0.50000000  0.96228000  1.0
  Rh  Rh15  1  0.00000000  0.25000000  0.96228000  1.0
  Rh  Rh16  1  0.00000000  0.50000000  0.88685000  1.0
  Rh  Rh17  1  0.75000000  0.50000000  0.11315000  1.0
  Rh  Rh18  1  0.00000000  0.25000000  0.11315000  1.0
  Rh  Rh19  1  0.00000000  0.50000000  0.03772000  1.0
  Rh  Rh20  1  0.25000000  0.00000000  0.96228000  1.0
  Rh  Rh21  1  0.50000000  0.75000000  0.96228000  1.0
  Rh  Rh22  1  0.50000000  0.00000000  0.88685000  1.0
  Rh  Rh23  1  0.25000000  0.00000000  0.11315000  1.0
  Rh  Rh24  1  0.50000000  0.75000000  0.11315000  1.0
  Rh  Rh25  1  0.50000000  0.00000000  0.03772000  1.0
  Rh  Rh26  1  0.25000000  0.50000000  0.96228000  1.0
  Rh  Rh27  1  0.50000000  0.25000000  0.96228000  1.0
  Rh  Rh28  1  0.50000000  0.50000000  0.88685000  1.0
  Rh  Rh29  1  0.25000000  0.50000000  0.11315000  1.0
  Rh  Rh30  1  0.50000000  0.25000000  0.11315000  1.0
  Rh  Rh31  1  0.50000000  0.50000000  0.03772000  1.0
  C  C32  1  0.00000000  0.00000000  0.14410000  1.0
