# generated using pymatgen
data_Al8V8Ni16C
_symmetry_space_group_name_H-M   'P 1'
_cell_length_a   8.22738000
_cell_length_b   5.81764000
_cell_length_c   26.17050000
_cell_angle_alpha   90.00000000
_cell_angle_beta   90.00000000
_cell_angle_gamma   90.00000000
_symmetry_Int_Tables_number   1
_chemical_formula_structural   Al8V8Ni16C
_chemical_formula_sum   'Al8 V8 Ni16 C1'
_cell_volume   1252.62311048
_cell_formula_units_Z   1
loop_
 _symmetry_equiv_pos_site_id
 _symmetry_equiv_pos_as_xyz
  1  'x, y, z'
loop_
 _atom_site_type_symbol
 _atom_site_label
 _atom_site_symmetry_multiplicity
 _atom_site_fract_x
 _atom_site_fract_y
 _atom_site_fract_z
 _atom_site_occupancy
  Al  Al0  1  0.00000000  0.00000000  0.11789000  1.0
  Al  Al1  1  0.25000000  0.50000000  0.03930000  1.0
  Al  Al2  1  0.75000000  0.50000000  0.03930000  1.0
  Al  Al3  1  0.50000000  0.00000000  0.11789000  1.0
  Al  Al4  1  0.49999000  0.00000000  0.96229000  1.0
  Al  Al5  1  0.74880000  0.50000000  0.87830000  1.0
  Al  Al6  1  0.25122000  0.50000000  0.87830000  1.0
  Al  Al7  1  0.00001000  0.00000000  0.96091000  1.0
  V  V8  1  0.75000000  0.00000000  0.03930000  1.0
  V  V9  1  0.00000000  0.50000000  0.11789000  1.0
  V  V10  1  0.25000000  0.00000000  0.03930000  1.0
  V  V11  1  0.50000000  0.50000000  0.11789000  1.0
  V  V12  1  0.25623000  0.00000000  0.88472000  1.0
  V  V13  1  0.50000000  0.50000000  0.95979000  1.0
  V  V14  1  0.74373000  0.00000000  0.88470000  1.0
  V  V15  1  0.00002000  0.50000000  0.95450000  1.0
  Ni  Ni16  1  0.00000000  0.75000000  0.03930000  1.0
  Ni  Ni17  1  0.50000000  0.25000000  0.03930000  1.0
  Ni  Ni18  1  0.00000000  0.25000000  0.03930000  1.0
  Ni  Ni19  1  0.50000000  0.75000000  0.03930000  1.0
  Ni  Ni20  1  0.75000000  0.25000000  0.11789000  1.0
  Ni  Ni21  1  0.25000000  0.75000000  0.11789000  1.0
  Ni  Ni22  1  0.75000000  0.75000000  0.11789000  1.0
  Ni  Ni23  1  0.25000000  0.25000000  0.11789000  1.0
  Ni  Ni24  1  0.50004000  0.75076000  0.88637000  1.0
  Ni  Ni25  1  0.99992000  0.19882000  0.87785000  1.0
  Ni  Ni26  1  0.50004000  0.24924000  0.88637000  1.0
  Ni  Ni27  1  0.99992000  0.80118000  0.87785000  1.0
  Ni  Ni28  1  0.25449000  0.25282000  0.96126000  1.0
  Ni  Ni29  1  0.74554000  0.74718000  0.96125000  1.0
  Ni  Ni30  1  0.25449000  0.74718000  0.96126000  1.0
  Ni  Ni31  1  0.74554000  0.25282000  0.96125000  1.0
  C  C32  1  0.00002000  0.50000000  0.87375000  1.0
