# generated using pymatgen
data_Al8V8Ni16C
_symmetry_space_group_name_H-M   Pm
_cell_length_a   8.22738000
_cell_length_b   5.81764000
_cell_length_c   26.17050000
_cell_angle_alpha   90.00000000
_cell_angle_beta   90.00000000
_cell_angle_gamma   90.00000000
_symmetry_Int_Tables_number   6
_chemical_formula_structural   Al8V8Ni16C
_chemical_formula_sum   'Al8 V8 Ni16 C1'
_cell_volume   1252.62311048
_cell_formula_units_Z   1
loop_
 _symmetry_equiv_pos_site_id
 _symmetry_equiv_pos_as_xyz
  1  'x, y, z'
  2  'x, -y, z'
loop_
 _atom_site_type_symbol
 _atom_site_label
 _atom_site_symmetry_multiplicity
 _atom_site_fract_x
 _atom_site_fract_y
 _atom_site_fract_z
 _atom_site_occupancy
  Al  Al0  1  0.00000000  0.00000000  0.88211000  1.0
  Al  Al1  1  0.00001000  0.00000000  0.03909000  1.0
  Al  Al2  1  0.25000000  0.50000000  0.96070000  1.0
  Al  Al3  1  0.25122000  0.50000000  0.12170000  1.0
  Al  Al4  1  0.49999000  0.00000000  0.03771000  1.0
  Al  Al5  1  0.50000000  0.00000000  0.88211000  1.0
  Al  Al6  1  0.74880000  0.50000000  0.12170000  1.0
  Al  Al7  1  0.75000000  0.50000000  0.96070000  1.0
  V  V8  1  0.00000000  0.50000000  0.88211000  1.0
  V  V9  1  0.00002000  0.50000000  0.04550000  1.0
  V  V10  1  0.25000000  0.00000000  0.96070000  1.0
  V  V11  1  0.25623000  0.00000000  0.11528000  1.0
  V  V12  1  0.50000000  0.50000000  0.04021000  1.0
  V  V13  1  0.50000000  0.50000000  0.88211000  1.0
  V  V14  1  0.74373000  0.00000000  0.11530000  1.0
  V  V15  1  0.75000000  0.00000000  0.96070000  1.0
  Ni  Ni16  2  0.00000000  0.25000000  0.96070000  1.0
  Ni  Ni17  2  0.25000000  0.25000000  0.88211000  1.0
  Ni  Ni18  2  0.25449000  0.25282000  0.03874000  1.0
  Ni  Ni19  2  0.50000000  0.25000000  0.96070000  1.0
  Ni  Ni20  2  0.50004000  0.24924000  0.11363000  1.0
  Ni  Ni21  2  0.74554000  0.25282000  0.03875000  1.0
  Ni  Ni22  2  0.75000000  0.25000000  0.88211000  1.0
  Ni  Ni23  2  0.99992000  0.19882000  0.12215000  1.0
  C  C24  1  0.00002000  0.50000000  0.12625000  1.0
