# generated using pymatgen
data_Li8Mg8Cu8Ge8C
_symmetry_space_group_name_H-M   'P 1'
_cell_length_a   6.17522000
_cell_length_b   8.73308000
_cell_length_c   26.54980000
_cell_angle_alpha   90.00000000
_cell_angle_beta   90.00000000
_cell_angle_gamma   90.00000000
_symmetry_Int_Tables_number   1
_chemical_formula_structural   Li8Mg8Cu8Ge8C
_chemical_formula_sum   'Li8 Mg8 Cu8 Ge8 C1'
_cell_volume   1431.79594113
_cell_formula_units_Z   1
loop_
 _symmetry_equiv_pos_site_id
 _symmetry_equiv_pos_as_xyz
  1  'x, y, z'
loop_
 _atom_site_type_symbol
 _atom_site_label
 _atom_site_symmetry_multiplicity
 _atom_site_fract_x
 _atom_site_fract_y
 _atom_site_fract_z
 _atom_site_occupancy
  Li  Li0  1  0.00000000  0.75000000  0.95888000  1.0
  Li  Li1  1  0.00000000  0.25000000  0.95888000  1.0
  Li  Li2  1  0.50000000  0.50000000  0.87665000  1.0
  Li  Li3  1  0.50000000  0.00000000  0.87665000  1.0
  Li  Li4  1  0.86429000  0.28929000  0.17879000  1.0
  Li  Li5  1  0.83425000  0.71300000  0.18357000  1.0
  Li  Li6  1  0.48079000  0.00243000  0.06170000  1.0
  Li  Li7  1  0.48235000  0.49929000  0.04259000  1.0
  Mg  Mg8  1  0.25000000  0.00000000  0.95888000  1.0
  Mg  Mg9  1  0.25000000  0.50000000  0.95888000  1.0
  Mg  Mg10  1  0.75000000  0.75000000  0.87665000  1.0
  Mg  Mg11  1  0.75000000  0.25000000  0.87665000  1.0
  Mg  Mg12  1  0.18459000  0.51051000  0.12771000  1.0
  Mg  Mg13  1  0.09263000  0.98064000  0.12364000  1.0
  Mg  Mg14  1  0.76753000  0.25301000  0.05665000  1.0
  Mg  Mg15  1  0.76607000  0.74793000  0.05487000  1.0
  Cu  Cu16  1  0.00000000  0.00000000  0.87665000  1.0
  Cu  Cu17  1  0.00000000  0.50000000  0.87665000  1.0
  Cu  Cu18  1  0.50000000  0.25000000  0.95888000  1.0
  Cu  Cu19  1  0.50000000  0.75000000  0.95888000  1.0
  Cu  Cu20  1  0.00097000  0.50018000  0.03585000  1.0
  Cu  Cu21  1  0.98771000  0.00171000  0.03246000  1.0
  Cu  Cu22  1  0.45400000  0.77366000  0.12800000  1.0
  Cu  Cu23  1  0.44627000  0.23163000  0.12783000  1.0
  Ge  Ge24  1  0.75000000  0.00000000  0.95888000  1.0
  Ge  Ge25  1  0.75000000  0.50000000  0.95888000  1.0
  Ge  Ge26  1  0.25000000  0.75000000  0.87665000  1.0
  Ge  Ge27  1  0.25000000  0.25000000  0.87665000  1.0
  Ge  Ge28  1  0.67527000  0.50211000  0.12981000  1.0
  Ge  Ge29  1  0.69913000  0.00720000  0.16651000  1.0
  Ge  Ge30  1  0.23131000  0.25003000  0.04431000  1.0
  Ge  Ge31  1  0.23515000  0.75134000  0.04309000  1.0
  C  C32  1  0.40945000  0.00308000  0.14799000  1.0
