# generated using pymatgen
data_Li8Mg8Cu8Ge8C
_symmetry_space_group_name_H-M   P1
_cell_length_a   6.17522000
_cell_length_b   8.73308000
_cell_length_c   26.54980000
_cell_angle_alpha   90.00000000
_cell_angle_beta   90.00000000
_cell_angle_gamma   90.00000000
_symmetry_Int_Tables_number   1
_chemical_formula_structural   Li8Mg8Cu8Ge8C
_chemical_formula_sum   'Li8 Mg8 Cu8 Ge8 C1'
_cell_volume   1431.79594113
_cell_formula_units_Z   1
loop_
 _symmetry_equiv_pos_site_id
 _symmetry_equiv_pos_as_xyz
  1  'x, y, z'
loop_
 _atom_site_type_symbol
 _atom_site_label
 _atom_site_symmetry_multiplicity
 _atom_site_fract_x
 _atom_site_fract_y
 _atom_site_fract_z
 _atom_site_occupancy
  Li  Li0  1  -0.00000000  0.25000000  0.95888000  1.0
  Li  Li1  1  -0.00000000  0.75000000  0.95888000  1.0
  Li  Li2  1  0.13571000  0.71071000  0.17879000  1.0
  Li  Li3  1  0.16575000  0.28700000  0.18357000  1.0
  Li  Li4  1  0.50000000  0.00000000  0.87665000  1.0
  Li  Li5  1  0.50000000  0.50000000  0.87665000  1.0
  Li  Li6  1  0.51765000  0.50071000  0.04259000  1.0
  Li  Li7  1  0.51921000  0.99757000  0.06170000  1.0
  Mg  Mg8  1  0.23247000  0.74699000  0.05665000  1.0
  Mg  Mg9  1  0.23393000  0.25207000  0.05487000  1.0
  Mg  Mg10  1  0.25000000  0.25000000  0.87665000  1.0
  Mg  Mg11  1  0.25000000  0.75000000  0.87665000  1.0
  Mg  Mg12  1  0.75000000  0.00000000  0.95888000  1.0
  Mg  Mg13  1  0.75000000  0.50000000  0.95888000  1.0
  Mg  Mg14  1  0.81541000  0.48949000  0.12771000  1.0
  Mg  Mg15  1  0.90737000  0.01936000  0.12364000  1.0
  Cu  Cu16  1  0.00000000  0.00000000  0.87665000  1.0
  Cu  Cu17  1  0.00000000  0.50000000  0.87665000  1.0
  Cu  Cu18  1  0.01229000  0.99829000  0.03246000  1.0
  Cu  Cu19  1  0.50000000  0.25000000  0.95888000  1.0
  Cu  Cu20  1  0.50000000  0.75000000  0.95888000  1.0
  Cu  Cu21  1  0.54600000  0.22634000  0.12800000  1.0
  Cu  Cu22  1  0.55373000  0.76837000  0.12783000  1.0
  Cu  Cu23  1  0.99903000  0.49982000  0.03585000  1.0
  Ge  Ge24  1  0.25000000  0.00000000  0.95888000  1.0
  Ge  Ge25  1  0.25000000  0.50000000  0.95888000  1.0
  Ge  Ge26  1  0.30087000  0.99280000  0.16651000  1.0
  Ge  Ge27  1  0.32473000  0.49789000  0.12981000  1.0
  Ge  Ge28  1  0.75000000  0.25000000  0.87665000  1.0
  Ge  Ge29  1  0.75000000  0.75000000  0.87665000  1.0
  Ge  Ge30  1  0.76485000  0.24866000  0.04309000  1.0
  Ge  Ge31  1  0.76869000  0.74997000  0.04431000  1.0
  C  C32  1  0.59055000  0.99692000  0.14799000  1.0
