# generated using pymatgen
data_LiIn2Ru
_symmetry_space_group_name_H-M   'P 1'
_cell_length_a   4.64548500
_cell_length_b   6.56971000
_cell_length_c   26.96820000
_cell_angle_alpha   90.00000000
_cell_angle_beta   90.00000000
_cell_angle_gamma   90.00000000
_symmetry_Int_Tables_number   1
_chemical_formula_structural   LiIn2Ru
_chemical_formula_sum   'Li4 In8 Ru4'
_cell_volume   823.05569024
_cell_formula_units_Z   4
loop_
 _symmetry_equiv_pos_site_id
 _symmetry_equiv_pos_as_xyz
  1  'x, y, z'
loop_
 _atom_site_type_symbol
 _atom_site_label
 _atom_site_symmetry_multiplicity
 _atom_site_fract_x
 _atom_site_fract_y
 _atom_site_fract_z
 _atom_site_occupancy
  Li  Li0  1  0.00000000  0.00000000  0.12919000  1.0
  Li  Li1  1  0.50000000  0.50000000  0.04306000  1.0
  Li  Li2  1  0.00000000  0.00000000  0.95785000  1.0
  Li  Li3  1  0.50000000  0.50000000  0.86885000  1.0
  In  In4  1  0.00000000  0.75000000  0.04306000  1.0
  In  In5  1  0.00000000  0.25000000  0.04306000  1.0
  In  In6  1  0.50000000  0.25000000  0.12919000  1.0
  In  In7  1  0.50000000  0.75000000  0.12919000  1.0
  In  In8  1  0.00000000  0.76500000  0.86677000  1.0
  In  In9  1  0.00000000  0.23500000  0.86677000  1.0
  In  In10  1  0.50000000  0.25140000  0.95784000  1.0
  In  In11  1  0.50000000  0.74860000  0.95784000  1.0
  Ru  Ru12  1  0.50000000  0.00000000  0.04306000  1.0
  Ru  Ru13  1  0.00000000  0.50000000  0.12919000  1.0
  Ru  Ru14  1  0.50000000  0.00000000  0.87749500  1.0
  Ru  Ru15  1  0.00000000  0.50000000  0.95518000  1.0
