# generated using pymatgen
data_Li24Sb8CO
_symmetry_space_group_name_H-M   'P 1'
_cell_length_a   6.56971000
_cell_length_b   9.29097000
_cell_length_c   26.96820000
_cell_angle_alpha   90.00000000
_cell_angle_beta   90.00000000
_cell_angle_gamma   90.00000000
_symmetry_Int_Tables_number   1
_chemical_formula_structural   Li24Sb8CO
_chemical_formula_sum   'Li24 Sb8 C1 O1'
_cell_volume   1646.11138049
_cell_formula_units_Z   1
loop_
 _symmetry_equiv_pos_site_id
 _symmetry_equiv_pos_as_xyz
  1  'x, y, z'
loop_
 _atom_site_type_symbol
 _atom_site_label
 _atom_site_symmetry_multiplicity
 _atom_site_fract_x
 _atom_site_fract_y
 _atom_site_fract_z
 _atom_site_occupancy
  Li  Li0  1  0.25000000  0.00000000  0.95694000  1.0
  Li  Li1  1  0.75000000  0.50000000  0.95694000  1.0
  Li  Li2  1  0.75000000  0.00000000  0.95694000  1.0
  Li  Li3  1  0.25000000  0.50000000  0.95694000  1.0
  Li  Li4  1  0.75000000  0.75000000  0.87081000  1.0
  Li  Li5  1  0.25000000  0.25000000  0.87081000  1.0
  Li  Li6  1  0.25000000  0.75000000  0.87081000  1.0
  Li  Li7  1  0.75000000  0.25000000  0.87081000  1.0
  Li  Li8  1  0.00000000  0.75000000  0.95694000  1.0
  Li  Li9  1  0.50000000  0.00000000  0.87081000  1.0
  Li  Li10  1  0.00000000  0.25000000  0.95694000  1.0
  Li  Li11  1  0.50000000  0.50000000  0.87081000  1.0
  Li  Li12  1  0.28257000  0.50010000  0.13050000  1.0
  Li  Li13  1  0.71726000  0.99992000  0.13050000  1.0
  Li  Li14  1  0.71725000  0.50009000  0.13051000  1.0
  Li  Li15  1  0.28256000  0.99991000  0.13050000  1.0
  Li  Li16  1  0.74378000  0.25000000  0.04186000  1.0
  Li  Li17  1  0.25597000  0.75000000  0.04176000  1.0
  Li  Li18  1  0.25608000  0.25001000  0.04186000  1.0
  Li  Li19  1  0.74389000  0.75000000  0.04176000  1.0
  Li  Li20  1  0.99991000  0.25000000  0.11931000  1.0
  Li  Li21  1  0.49991000  0.49977000  0.04432000  1.0
  Li  Li22  1  0.99986000  0.75000000  0.11790000  1.0
  Li  Li23  1  0.49991000  0.00024000  0.04432000  1.0
  Sb  Sb24  1  0.00000000  0.00000000  0.87081000  1.0
  Sb  Sb25  1  0.50000000  0.25000000  0.95694000  1.0
  Sb  Sb26  1  0.50000000  0.75000000  0.95694000  1.0
  Sb  Sb27  1  0.00000000  0.50000000  0.87081000  1.0
  Sb  Sb28  1  0.99991000  0.49952000  0.04788000  1.0
  Sb  Sb29  1  0.49992000  0.75000000  0.12737000  1.0
  Sb  Sb30  1  0.49988000  0.25000000  0.12775000  1.0
  Sb  Sb31  1  0.99992000  0.00048000  0.04788000  1.0
  C  C32  1  0.50450000  0.24978000  0.30002000  1.0
  O  O33  1  0.49939000  0.25011000  0.34209000  1.0
