# generated using pymatgen
data_Li8Al8Sn8Pd8CO
_symmetry_space_group_name_H-M   'P 1'
_cell_length_a   9.17742000
_cell_length_b   6.48942000
_cell_length_c   26.88310000
_cell_angle_alpha   90.00000000
_cell_angle_beta   90.00000000
_cell_angle_gamma   90.00000000
_symmetry_Int_Tables_number   1
_chemical_formula_structural   Li8Al8Sn8Pd8CO
_chemical_formula_sum   'Li8 Al8 Sn8 Pd8 C1 O1'
_cell_volume   1601.05347627
_cell_formula_units_Z   1
loop_
 _symmetry_equiv_pos_site_id
 _symmetry_equiv_pos_as_xyz
  1  'x, y, z'
loop_
 _atom_site_type_symbol
 _atom_site_label
 _atom_site_symmetry_multiplicity
 _atom_site_fract_x
 _atom_site_fract_y
 _atom_site_fract_z
 _atom_site_occupancy
  Li  Li0  1  0.75000000  0.75000000  0.04267000  1.0
  Li  Li1  1  0.25000000  0.75000000  0.04267000  1.0
  Li  Li2  1  0.00000000  0.25000000  0.12802000  1.0
  Li  Li3  1  0.50000000  0.25000000  0.12802000  1.0
  Li  Li4  1  0.24993000  0.69280000  0.84560000  1.0
  Li  Li5  1  0.75007000  0.69280000  0.84560000  1.0
  Li  Li6  1  0.50000000  0.22375000  0.95591000  1.0
  Li  Li7  1  0.00000000  0.22523000  0.95645000  1.0
  Al  Al8  1  0.75000000  0.00000000  0.12802000  1.0
  Al  Al9  1  0.25000000  0.00000000  0.12802000  1.0
  Al  Al10  1  0.50000000  0.50000000  0.04267000  1.0
  Al  Al11  1  0.00000000  0.50000000  0.04267000  1.0
  Al  Al12  1  0.24996000  0.96470000  0.94934000  1.0
  Al  Al13  1  0.75004000  0.96470000  0.94934000  1.0
  Al  Al14  1  0.00000000  0.45532000  0.87096000  1.0
  Al  Al15  1  0.50000000  0.45537000  0.87064000  1.0
  Sn  Sn16  1  0.00000000  0.00000000  0.04267000  1.0
  Sn  Sn17  1  0.50000000  1.00000000  0.04267000  1.0
  Sn  Sn18  1  0.25000000  0.50000000  0.12802000  1.0
  Sn  Sn19  1  0.75000000  0.50000000  0.12802000  1.0
  Sn  Sn20  1  0.50000000  0.96430000  0.86594000  1.0
  Sn  Sn21  1  0.00000000  0.96477000  0.86628000  1.0
  Sn  Sn22  1  0.74977000  0.49971000  0.95528000  1.0
  Sn  Sn23  1  0.25023000  0.49971000  0.95528000  1.0
  Pd  Pd24  1  0.75000000  0.25000000  0.04267000  1.0
  Pd  Pd25  1  0.25000000  0.25000000  0.04267000  1.0
  Pd  Pd26  1  0.00000000  0.75000000  0.12802000  1.0
  Pd  Pd27  1  0.50000000  0.75000000  0.12802000  1.0
  Pd  Pd28  1  0.24982000  0.23210000  0.87920000  1.0
  Pd  Pd29  1  0.75018000  0.23210000  0.87920000  1.0
  Pd  Pd30  1  0.50000000  0.74802000  0.96239000  1.0
  Pd  Pd31  1  0.00000000  0.74672000  0.96238000  1.0
  C  C32  1  0.00000000  0.10660000  0.72249000  1.0
  O  O33  1  0.00000000  0.96239000  0.69852000  1.0
