# generated using pymatgen
data_Li8Al8Sn8Pd8CO
_symmetry_space_group_name_H-M   Pm
_cell_length_a   6.48942000
_cell_length_b   9.17742000
_cell_length_c   26.88310000
_cell_angle_alpha   90.00000000
_cell_angle_beta   90.00000000
_cell_angle_gamma   90.00000000
_symmetry_Int_Tables_number   6
_chemical_formula_structural   Li8Al8Sn8Pd8CO
_chemical_formula_sum   'Li8 Al8 Sn8 Pd8 C1 O1'
_cell_volume   1601.05347627
_cell_formula_units_Z   1
loop_
 _symmetry_equiv_pos_site_id
 _symmetry_equiv_pos_as_xyz
  1  'x, y, z'
  2  'x, -y, z'
loop_
 _atom_site_type_symbol
 _atom_site_label
 _atom_site_symmetry_multiplicity
 _atom_site_fract_x
 _atom_site_fract_y
 _atom_site_fract_z
 _atom_site_occupancy
  Li  Li0  2  0.69280000  0.24993000  0.15440000  1.0
  Li  Li1  2  0.75000000  0.25000000  0.95733000  1.0
  Li  Li2  1  0.22375000  0.50000000  0.04409000  1.0
  Li  Li3  1  0.22523000  0.00000000  0.04355000  1.0
  Li  Li4  1  0.25000000  0.00000000  0.87198000  1.0
  Li  Li5  1  0.25000000  0.50000000  0.87198000  1.0
  Al  Al6  2  0.00000000  0.25000000  0.87198000  1.0
  Al  Al7  2  0.96470000  0.24996000  0.05066000  1.0
  Al  Al8  1  0.45532000  0.00000000  0.12904000  1.0
  Al  Al9  1  0.45537000  0.50000000  0.12936000  1.0
  Al  Al10  1  0.50000000  0.00000000  0.95733000  1.0
  Al  Al11  1  0.50000000  0.50000000  0.95733000  1.0
  Sn  Sn12  2  0.49971000  0.25023000  0.04472000  1.0
  Sn  Sn13  2  0.50000000  0.25000000  0.87198000  1.0
  Sn  Sn14  1  -0.00000000  0.50000000  0.95733000  1.0
  Sn  Sn15  1  0.00000000  0.00000000  0.95733000  1.0
  Sn  Sn16  1  0.96430000  0.50000000  0.13406000  1.0
  Sn  Sn17  1  0.96477000  0.00000000  0.13372000  1.0
  Pd  Pd18  2  0.23210000  0.24982000  0.12080000  1.0
  Pd  Pd19  2  0.25000000  0.25000000  0.95733000  1.0
  Pd  Pd20  1  0.74672000  0.00000000  0.03762000  1.0
  Pd  Pd21  1  0.74802000  0.50000000  0.03761000  1.0
  Pd  Pd22  1  0.75000000  0.00000000  0.87198000  1.0
  Pd  Pd23  1  0.75000000  0.50000000  0.87198000  1.0
  C  C24  1  0.10660000  0.00000000  0.27751000  1.0
  O  O25  1  0.96239000  0.00000000  0.30148000  1.0
