data_image0
_chemical_formula_structural       Ca8Pb24C
_chemical_formula_sum              "Ca8 Pb24 C1"
_cell_length_a       10.0426
_cell_length_b       10.0426
_cell_length_c       27.5319
_cell_angle_alpha    90
_cell_angle_beta     90
_cell_angle_gamma    90

_space_group_name_H-M_alt    "P 1"
_space_group_IT_number       1

loop_
  _space_group_symop_operation_xyz
  'x, y, z'

loop_
  _atom_site_type_symbol
  _atom_site_label
  _atom_site_symmetry_multiplicity
  _atom_site_fract_x
  _atom_site_fract_y
  _atom_site_fract_z
  _atom_site_occupancy
  Ca  Ca1       1.0  0.00000  0.00000  0.86321  1.0000
  Ca  Ca2       1.0  0.00312  0.00312  0.04323  1.0000
  Ca  Ca3       1.0  0.00000  0.50000  0.86321  1.0000
  Ca  Ca4       1.0  0.00283  0.49655  0.04313  1.0000
  Ca  Ca5       1.0  0.50000  0.00000  0.86321  1.0000
  Ca  Ca6       1.0  0.49655  0.00285  0.04314  1.0000
  Ca  Ca7       1.0  0.50000  0.50000  0.86321  1.0000
  Ca  Ca8       1.0  0.49685  0.49684  0.04307  1.0000
  Pb  Pb1       1.0  0.00000  0.25000  0.95440  1.0000
  Pb  Pb2       1.0  0.25000  0.00000  0.95440  1.0000
  Pb  Pb3       1.0  0.25000  0.25000  0.86321  1.0000
  Pb  Pb4       1.0  0.00893  0.25017  0.14646  1.0000
  Pb  Pb5       1.0  0.25020  0.00892  0.14644  1.0000
  Pb  Pb6       1.0  0.25021  0.25021  0.06155  1.0000
  Pb  Pb7       1.0  0.00000  0.75000  0.95440  1.0000
  Pb  Pb8       1.0  0.25000  0.50000  0.95440  1.0000
  Pb  Pb9       1.0  0.25000  0.75000  0.86321  1.0000
  Pb  Pb10      1.0  0.99190  0.74966  0.13407  1.0000
  Pb  Pb11      1.0  0.25010  0.49373  0.14692  1.0000
  Pb  Pb12      1.0  0.24980  0.74934  0.05133  1.0000
  Pb  Pb13      1.0  0.50000  0.25000  0.95440  1.0000
  Pb  Pb14      1.0  0.75000  0.00000  0.95440  1.0000
  Pb  Pb15      1.0  0.75000  0.25000  0.86321  1.0000
  Pb  Pb16      1.0  0.49372  0.25013  0.14693  1.0000
  Pb  Pb17      1.0  0.74966  0.99189  0.13408  1.0000
  Pb  Pb18      1.0  0.74935  0.24981  0.05134  1.0000
  Pb  Pb19      1.0  0.50000  0.75000  0.95440  1.0000
  Pb  Pb20      1.0  0.75000  0.50000  0.95440  1.0000
  Pb  Pb21      1.0  0.75000  0.75000  0.86321  1.0000
  Pb  Pb22      1.0  0.50814  0.74966  0.13408  1.0000
  Pb  Pb23      1.0  0.74968  0.50816  0.13408  1.0000
  Pb  Pb24      1.0  0.74992  0.74992  0.05019  1.0000
  C   C1        1.0  0.25209  0.25208  0.15908  1.0000
