# generated using pymatgen
data_Ca8Pb24C
_symmetry_space_group_name_H-M   'P 1'
_cell_length_a   10.04260000
_cell_length_b   10.04260000
_cell_length_c   27.53190000
_cell_angle_alpha   90.00000000
_cell_angle_beta   90.00000000
_cell_angle_gamma   90.00000000
_symmetry_Int_Tables_number   1
_chemical_formula_structural   Ca8Pb24C
_chemical_formula_sum   'Ca8 Pb24 C1'
_cell_volume   2776.69714259
_cell_formula_units_Z   1
loop_
 _symmetry_equiv_pos_site_id
 _symmetry_equiv_pos_as_xyz
  1  'x, y, z'
loop_
 _atom_site_type_symbol
 _atom_site_label
 _atom_site_symmetry_multiplicity
 _atom_site_fract_x
 _atom_site_fract_y
 _atom_site_fract_z
 _atom_site_occupancy
  Ca  Ca0  1  0.99999500  0.00000500  0.13679000  1
  Ca  Ca1  1  0.00311500  0.99688500  0.95677000  1
  Ca  Ca2  1  0.50000000  0.00001000  0.13679000  1
  Ca  Ca3  1  0.49655000  0.99718000  0.95687000  1
  Ca  Ca4  1  0.99999000  0.50000000  0.13679000  1
  Ca  Ca5  1  0.00282000  0.50345000  0.95687000  1
  Ca  Ca6  1  0.49999500  0.50000500  0.13679000  1
  Ca  Ca7  1  0.49684000  0.50316000  0.95693000  1
  Pb  Pb8  1  0.25000000  0.00001000  0.04560000  1
  Pb  Pb9  1  0.99999000  0.75000000  0.04560000  1
  Pb  Pb10  1  0.24999500  0.75000500  0.13679000  1
  Pb  Pb11  1  0.25017000  0.99108000  0.85354000  1
  Pb  Pb12  1  0.00892000  0.74983000  0.85354000  1
  Pb  Pb13  1  0.25020500  0.74979500  0.93845000  1
  Pb  Pb14  1  0.75000000  0.00001000  0.04560000  1
  Pb  Pb15  1  0.50000000  0.75001000  0.04560000  1
  Pb  Pb16  1  0.75000000  0.75001000  0.13679000  1
  Pb  Pb17  1  0.74966000  0.00811000  0.86593000  1
  Pb  Pb18  1  0.49373000  0.74991000  0.85308000  1
  Pb  Pb19  1  0.74934000  0.75021000  0.94867000  1
  Pb  Pb20  1  0.24999000  0.50000000  0.04560000  1
  Pb  Pb21  1  0.99999000  0.25000000  0.04560000  1
  Pb  Pb22  1  0.24999000  0.25000000  0.13679000  1
  Pb  Pb23  1  0.25009000  0.50627000  0.85308000  1
  Pb  Pb24  1  0.99189000  0.25034000  0.86593000  1
  Pb  Pb25  1  0.24979000  0.25066000  0.94867000  1
  Pb  Pb26  1  0.75000000  0.50001000  0.04560000  1
  Pb  Pb27  1  0.49999000  0.25000000  0.04560000  1
  Pb  Pb28  1  0.74999500  0.25000500  0.13679000  1
  Pb  Pb29  1  0.74966000  0.49187000  0.86592000  1
  Pb  Pb30  1  0.50813000  0.25034000  0.86592000  1
  Pb  Pb31  1  0.74991500  0.25008500  0.94981000  1
  C  C32  1  0.25208000  0.74792000  0.84092000  1
