# generated using pymatgen
data_Li4Mg4In4Ag4C
_symmetry_space_group_name_H-M   'P 1'
_cell_length_a   6.69019000
_cell_length_b   6.69019000
_cell_length_c   25.01760000
_cell_angle_alpha   90.00000000
_cell_angle_beta   90.00000000
_cell_angle_gamma   90.00000000
_symmetry_Int_Tables_number   1
_chemical_formula_structural   Li4Mg4In4Ag4C
_chemical_formula_sum   'Li4 Mg4 In4 Ag4 C1'
_cell_volume   1119.75380801
_cell_formula_units_Z   1
loop_
 _symmetry_equiv_pos_site_id
 _symmetry_equiv_pos_as_xyz
  1  'x, y, z'
loop_
 _atom_site_type_symbol
 _atom_site_label
 _atom_site_symmetry_multiplicity
 _atom_site_fract_x
 _atom_site_fract_y
 _atom_site_fract_z
 _atom_site_occupancy
  Li  Li0  1  0.96894000  0.53147000  0.87143000  1
  Li  Li1  1  0.00000500  0.00000500  0.03343000  1
  Li  Li2  1  0.50000500  0.50000500  0.03343000  1
  Li  Li3  1  0.53147000  0.96894000  0.87143000  1
  Mg  Mg4  1  0.74899500  0.74899500  0.96667000  1
  Mg  Mg5  1  0.75000000  0.25001000  0.10028000  1
  Mg  Mg6  1  0.25001000  0.75000000  0.10028000  1
  Mg  Mg7  1  0.25039500  0.25039500  0.95200000  1
  In  In8  1  0.25004000  0.75010000  0.95967000  1
  In  In9  1  0.25000500  0.25000500  0.10028000  1
  In  In10  1  0.75000500  0.75000500  0.10028000  1
  In  In11  1  0.75010000  0.25004000  0.95967000  1
  Ag  Ag12  1  0.97946500  0.97946500  0.89334000  1
  Ag  Ag13  1  0.00000000  0.50001000  0.03343000  1
  Ag  Ag14  1  0.50001000  0.00000000  0.03343000  1
  Ag  Ag15  1  0.51920500  0.51920500  0.89294000  1
  C  C16  1  0.74886000  0.74886000  0.87912000  1
