data_image0
_chemical_formula_structural       K32C
_chemical_formula_sum              "K32 C1"
_cell_length_a       13.4226
_cell_length_b       13.4226
_cell_length_c       30.067
_cell_angle_alpha    90
_cell_angle_beta     90
_cell_angle_gamma    90

_space_group_name_H-M_alt    "P 1"
_space_group_IT_number       1

loop_
  _space_group_symop_operation_xyz
  'x, y, z'

loop_
  _atom_site_type_symbol
  _atom_site_label
  _atom_site_symmetry_multiplicity
  _atom_site_fract_x
  _atom_site_fract_y
  _atom_site_fract_z
  _atom_site_occupancy
  K   K1        1.0  0.00000  0.00000  0.83259  1.0000
  K   K2        1.0  0.25000  0.25000  0.83259  1.0000
  K   K3        1.0  0.25000  0.00000  0.94420  1.0000
  K   K4        1.0  0.00000  0.25000  0.94420  1.0000
  K   K5        1.0  0.00000  0.00000  0.05580  1.0000
  K   K6        1.0  0.25000  0.25000  0.05580  1.0000
  K   K7        1.0  0.25000  0.00000  0.16741  1.0000
  K   K8        1.0  0.00000  0.25000  0.16741  1.0000
  K   K9        1.0  0.00000  0.50000  0.83259  1.0000
  K   K10       1.0  0.25000  0.75000  0.83259  1.0000
  K   K11       1.0  0.25000  0.50000  0.94420  1.0000
  K   K12       1.0  0.00000  0.75000  0.94420  1.0000
  K   K13       1.0  0.00000  0.50000  0.05580  1.0000
  K   K14       1.0  0.25000  0.75000  0.05580  1.0000
  K   K15       1.0  0.25000  0.50000  0.16741  1.0000
  K   K16       1.0  0.00000  0.75000  0.16741  1.0000
  K   K17       1.0  0.50000  0.00000  0.83259  1.0000
  K   K18       1.0  0.75000  0.25000  0.83259  1.0000
  K   K19       1.0  0.75000  0.00000  0.94420  1.0000
  K   K20       1.0  0.50000  0.25000  0.94420  1.0000
  K   K21       1.0  0.50000  0.00000  0.05580  1.0000
  K   K22       1.0  0.75000  0.25000  0.05580  1.0000
  K   K23       1.0  0.75000  0.00000  0.16741  1.0000
  K   K24       1.0  0.50000  0.25000  0.16741  1.0000
  K   K25       1.0  0.50000  0.50000  0.83259  1.0000
  K   K26       1.0  0.75000  0.75000  0.83259  1.0000
  K   K27       1.0  0.75000  0.50000  0.94420  1.0000
  K   K28       1.0  0.50000  0.75000  0.94420  1.0000
  K   K29       1.0  0.50000  0.50000  0.05580  1.0000
  K   K30       1.0  0.75000  0.75000  0.05580  1.0000
  K   K31       1.0  0.75000  0.50000  0.16741  1.0000
  K   K32       1.0  0.50000  0.75000  0.16741  1.0000
  C   C1        1.0  0.00000  0.00000  0.19402  1.0000
