# generated using pymatgen
data_K32C
_symmetry_space_group_name_H-M   P4mm
_cell_length_a   13.42260000
_cell_length_b   13.42260000
_cell_length_c   30.06700000
_cell_angle_alpha   90.00000000
_cell_angle_beta   90.00000000
_cell_angle_gamma   90.00000000
_symmetry_Int_Tables_number   99
_chemical_formula_structural   K32C
_chemical_formula_sum   'K32 C1'
_cell_volume   5417.05685758
_cell_formula_units_Z   1
loop_
 _symmetry_equiv_pos_site_id
 _symmetry_equiv_pos_as_xyz
  1  'x, y, z'
  2  '-y, x, z'
  3  '-x, -y, z'
  4  'y, -x, z'
  5  '-x, y, z'
  6  'y, x, z'
  7  'x, -y, z'
  8  '-y, -x, z'
loop_
 _atom_site_type_symbol
 _atom_site_label
 _atom_site_symmetry_multiplicity
 _atom_site_fract_x
 _atom_site_fract_y
 _atom_site_fract_z
 _atom_site_occupancy
  K  K0  4  0.00000000  0.25000000  0.16741000  1.0
  K  K1  4  0.00000000  0.25000000  0.94420000  1.0
  K  K2  4  0.25000000  0.25000000  0.05580000  1.0
  K  K3  4  0.25000000  0.25000000  0.83259000  1.0
  K  K4  4  0.25000000  0.50000000  0.16741000  1.0
  K  K5  4  0.25000000  0.50000000  0.94420000  1.0
  K  K6  2  0.00000000  0.50000000  0.05580000  1.0
  K  K7  2  0.00000000  0.50000000  0.83259000  1.0
  K  K8  1  0.00000000  0.00000000  0.05580000  1.0
  K  K9  1  0.00000000  0.00000000  0.83259000  1.0
  K  K10  1  0.50000000  0.50000000  0.05580000  1.0
  K  K11  1  0.50000000  0.50000000  0.83259000  1.0
  C  C12  1  0.00000000  0.00000000  0.19402000  1.0
