# generated using pymatgen
data_Ti8Ga8Ni16CO
_symmetry_space_group_name_H-M   P1
_cell_length_a   5.91339000
_cell_length_b   8.36280000
_cell_length_c   26.27210000
_cell_angle_alpha   90.00000000
_cell_angle_beta   90.00000000
_cell_angle_gamma   90.00000000
_symmetry_Int_Tables_number   1
_chemical_formula_structural   Ti8Ga8Ni16CO
_chemical_formula_sum   'Ti8 Ga8 Ni16 C1 O1'
_cell_volume   1299.22096987
_cell_formula_units_Z   1
loop_
 _symmetry_equiv_pos_site_id
 _symmetry_equiv_pos_as_xyz
  1  'x, y, z'
loop_
 _atom_site_type_symbol
 _atom_site_label
 _atom_site_symmetry_multiplicity
 _atom_site_fract_x
 _atom_site_fract_y
 _atom_site_fract_z
 _atom_site_occupancy
  Ti  Ti0  1  0.00000000  0.00000000  0.88063000  1.0
  Ti  Ti1  1  0.00000000  0.50000000  0.88063000  1.0
  Ti  Ti2  1  0.00006000  0.99979000  0.03995000  1.0
  Ti  Ti3  1  0.00007000  0.50008000  0.03986000  1.0
  Ti  Ti4  1  0.50000000  0.25000000  0.96021000  1.0
  Ti  Ti5  1  0.50000000  0.75000000  0.96021000  1.0
  Ti  Ti6  1  0.50008000  0.74992000  0.12031000  1.0
  Ti  Ti7  1  0.50010000  0.25010000  0.12026000  1.0
  Ga  Ga8  1  0.00000000  0.25000000  0.96021000  1.0
  Ga  Ga9  1  0.00000000  0.75000000  0.96021000  1.0
  Ga  Ga10  1  0.00008000  0.75002000  0.12139000  1.0
  Ga  Ga11  1  0.00015000  0.24990000  0.12042000  1.0
  Ga  Ga12  1  0.50000000  0.00000000  0.88063000  1.0
  Ga  Ga13  1  0.50000000  0.50000000  0.88063000  1.0
  Ga  Ga14  1  0.50006000  0.50006000  0.03951000  1.0
  Ga  Ga15  1  0.50006000  0.99981000  0.03944000  1.0
  Ni  Ni16  1  0.24555000  0.50025000  0.11501000  1.0
  Ni  Ni17  1  0.24655000  0.99980000  0.11509000  1.0
  Ni  Ni18  1  0.25000000  0.00000000  0.96021000  1.0
  Ni  Ni19  1  0.25000000  0.25000000  0.88063000  1.0
  Ni  Ni20  1  0.25000000  0.50000000  0.96021000  1.0
  Ni  Ni21  1  0.25000000  0.75000000  0.88063000  1.0
  Ni  Ni22  1  0.25956000  0.74988000  0.04107000  1.0
  Ni  Ni23  1  0.26041000  0.25000000  0.04080000  1.0
  Ni  Ni24  1  0.73972000  0.25000000  0.04080000  1.0
  Ni  Ni25  1  0.74056000  0.74987000  0.04106000  1.0
  Ni  Ni26  1  0.75000000  0.00000000  0.96021000  1.0
  Ni  Ni27  1  0.75000000  0.25000000  0.88063000  1.0
  Ni  Ni28  1  0.75000000  0.50000000  0.96021000  1.0
  Ni  Ni29  1  0.75000000  0.75000000  0.88063000  1.0
  Ni  Ni30  1  0.75362000  0.99981000  0.11508000  1.0
  Ni  Ni31  1  0.75467000  0.50026000  0.11500000  1.0
  C  C32  1  0.99445000  0.25045000  0.27211000  1.0
  O  O33  1  0.00123000  0.24970000  0.31528000  1.0
