data_image0
_chemical_formula_structural       Li16Ag8Pb8CO
_chemical_formula_sum              "Li16 Ag8 Pb8 C1 O1"
_cell_length_a       6.84524
_cell_length_b       9.68063
_cell_length_c       27.2605
_cell_angle_alpha    90
_cell_angle_beta     90
_cell_angle_gamma    90

_space_group_name_H-M_alt    "P 1"
_space_group_IT_number       1

loop_
  _space_group_symop_operation_xyz
  'x, y, z'

loop_
  _atom_site_type_symbol
  _atom_site_label
  _atom_site_symmetry_multiplicity
  _atom_site_fract_x
  _atom_site_fract_y
  _atom_site_fract_z
  _atom_site_occupancy
  Li  Li1       1.0  0.00000  0.75000  0.95561  1.0000
  Li  Li2       1.0  0.50000  0.00000  0.86683  1.0000
  Li  Li3       1.0  0.00000  0.25000  0.95561  1.0000
  Li  Li4       1.0  0.50000  0.50000  0.86683  1.0000
  Li  Li5       1.0  0.25000  0.25000  0.86683  1.0000
  Li  Li6       1.0  0.25000  0.75000  0.86683  1.0000
  Li  Li7       1.0  0.75000  0.50000  0.95561  1.0000
  Li  Li8       1.0  0.75000  0.00000  0.95561  1.0000
  Li  Li9       1.0  0.02231  0.25142  0.12792  1.0000
  Li  Li10      1.0  0.50667  0.49991  0.03870  1.0000
  Li  Li11      1.0  0.02223  0.74794  0.12782  1.0000
  Li  Li12      1.0  0.51032  0.00002  0.03892  1.0000
  Li  Li13      1.0  0.27735  0.75117  0.04989  1.0000
  Li  Li14      1.0  0.27722  0.24863  0.04988  1.0000
  Li  Li15      1.0  0.72114  0.00005  0.13117  1.0000
  Li  Li16      1.0  0.72394  0.49987  0.12714  1.0000
  Ag  Ag1       1.0  0.25000  0.00000  0.95561  1.0000
  Ag  Ag2       1.0  0.25000  0.50000  0.95561  1.0000
  Ag  Ag3       1.0  0.75000  0.75000  0.86683  1.0000
  Ag  Ag4       1.0  0.75000  0.25000  0.86683  1.0000
  Ag  Ag5       1.0  0.28000  0.50008  0.12169  1.0000
  Ag  Ag6       1.0  0.29046  0.99974  0.12057  1.0000
  Ag  Ag7       1.0  0.72483  0.25037  0.05392  1.0000
  Ag  Ag8       1.0  0.72463  0.74949  0.05391  1.0000
  Pb  Pb1       1.0  0.00000  0.00000  0.86683  1.0000
  Pb  Pb2       1.0  0.50000  0.25000  0.95561  1.0000
  Pb  Pb3       1.0  0.50000  0.75000  0.95561  1.0000
  Pb  Pb4       1.0  0.00000  0.50000  0.86683  1.0000
  Pb  Pb5       1.0  0.99345  0.49995  0.04333  1.0000
  Pb  Pb6       1.0  0.50329  0.74749  0.14999  1.0000
  Pb  Pb7       1.0  0.50264  0.25226  0.14980  1.0000
  Pb  Pb8       1.0  0.98946  0.99990  0.04386  1.0000
  C   C1        1.0  0.05182  0.00431  0.22211  1.0000
  O   O1        1.0  0.14617  0.99939  0.25647  1.0000
