# generated using pymatgen
data_Li16Ag8Pb8CO
_symmetry_space_group_name_H-M   P1
_cell_length_a   6.84524000
_cell_length_b   9.68063000
_cell_length_c   27.26050000
_cell_angle_alpha   90.00000000
_cell_angle_beta   90.00000000
_cell_angle_gamma   90.00000000
_symmetry_Int_Tables_number   1
_chemical_formula_structural   Li16Ag8Pb8CO
_chemical_formula_sum   'Li16 Ag8 Pb8 C1 O1'
_cell_volume   1806.45071833
_cell_formula_units_Z   1
loop_
 _symmetry_equiv_pos_site_id
 _symmetry_equiv_pos_as_xyz
  1  'x, y, z'
loop_
 _atom_site_type_symbol
 _atom_site_label
 _atom_site_symmetry_multiplicity
 _atom_site_fract_x
 _atom_site_fract_y
 _atom_site_fract_z
 _atom_site_occupancy
  Li  Li0  1  0.00000000  0.25000000  0.95561000  1.0
  Li  Li1  1  0.00000000  0.75000000  0.95561000  1.0
  Li  Li2  1  0.01724000  0.74366000  0.12877000  1.0
  Li  Li3  1  0.01774000  0.24429000  0.12863000  1.0
  Li  Li4  1  0.25000000  0.25000000  0.86683000  1.0
  Li  Li5  1  0.25000000  0.75000000  0.86683000  1.0
  Li  Li6  1  0.27712000  0.75039000  0.05028000  1.0
  Li  Li7  1  0.27900000  0.24115000  0.05021000  1.0
  Li  Li8  1  0.49709000  0.49786000  0.03889000  1.0
  Li  Li9  1  0.50000000  0.00000000  0.86683000  1.0
  Li  Li10  1  0.50000000  0.50000000  0.86683000  1.0
  Li  Li11  1  0.52309000  0.99529000  0.04157000  1.0
  Li  Li12  1  0.71209000  0.49188000  0.12947000  1.0
  Li  Li13  1  0.73459000  0.99392000  0.13334000  1.0
  Li  Li14  1  0.75000000  0.00000000  0.95561000  1.0
  Li  Li15  1  0.75000000  0.50000000  0.95561000  1.0
  Ag  Ag16  1  0.25000000  0.00000000  0.95561000  1.0
  Ag  Ag17  1  0.25000000  0.50000000  0.95561000  1.0
  Ag  Ag18  1  0.28437000  0.49330000  0.12578000  1.0
  Ag  Ag19  1  0.28479000  0.99137000  0.11855000  1.0
  Ag  Ag20  1  0.72128000  0.25148000  0.05550000  1.0
  Ag  Ag21  1  0.72819000  0.74037000  0.05307000  1.0
  Ag  Ag22  1  0.75000000  0.25000000  0.86683000  1.0
  Ag  Ag23  1  0.75000000  0.75000000  0.86683000  1.0
  Pb  Pb24  1  0.00000000  0.00000000  0.86683000  1.0
  Pb  Pb25  1  0.00000000  0.50000000  0.86683000  1.0
  Pb  Pb26  1  0.49854000  0.23781000  0.15256000  1.0
  Pb  Pb27  1  0.50000000  0.25000000  0.95561000  1.0
  Pb  Pb28  1  0.50000000  0.75000000  0.95561000  1.0
  Pb  Pb29  1  0.50963000  0.74673000  0.15020000  1.0
  Pb  Pb30  1  0.98726000  0.99805000  0.04304000  1.0
  Pb  Pb31  1  0.99900000  0.49351000  0.04560000  1.0
  C  C32  1  0.89401000  0.00478000  0.19799000  1.0
  O  O33  1  0.96851000  0.00776000  0.23558000  1.0
