# generated using pymatgen
data_Fe16Pd16C
_symmetry_space_group_name_H-M   Pmm2
_cell_length_a   7.58384000
_cell_length_b   7.76638000
_cell_length_c   25.82480000
_cell_angle_alpha   90.00000000
_cell_angle_beta   90.00000000
_cell_angle_gamma   90.00000000
_symmetry_Int_Tables_number   25
_chemical_formula_structural   Fe16Pd16C
_chemical_formula_sum   'Fe16 Pd16 C1'
_cell_volume   1521.05446391
_cell_formula_units_Z   1
loop_
 _symmetry_equiv_pos_site_id
 _symmetry_equiv_pos_as_xyz
  1  'x, y, z'
  2  '-x, -y, z'
  3  '-x, y, z'
  4  'x, -y, z'
loop_
 _atom_site_type_symbol
 _atom_site_label
 _atom_site_symmetry_multiplicity
 _atom_site_fract_x
 _atom_site_fract_y
 _atom_site_fract_z
 _atom_site_occupancy
  Fe  Fe0  4  0.25000000  0.25000000  0.11278000  1.0
  Fe  Fe1  4  0.25000000  0.25000000  0.96241000  1.0
  Fe  Fe2  2  0.25000000  0.00000000  0.03759000  1.0
  Fe  Fe3  2  0.25000000  0.00000000  0.88722000  1.0
  Fe  Fe4  2  0.25000000  0.50000000  0.03759000  1.0
  Fe  Fe5  2  0.25000000  0.50000000  0.88722000  1.0
  Pd  Pd6  2  0.00000000  0.25000000  0.03759000  1.0
  Pd  Pd7  2  0.00000000  0.25000000  0.88722000  1.0
  Pd  Pd8  2  0.50000000  0.25000000  0.03759000  1.0
  Pd  Pd9  2  0.50000000  0.25000000  0.88722000  1.0
  Pd  Pd10  1  0.00000000  0.00000000  0.11278000  1.0
  Pd  Pd11  1  0.00000000  0.00000000  0.96241000  1.0
  Pd  Pd12  1  0.00000000  0.50000000  0.11278000  1.0
  Pd  Pd13  1  0.00000000  0.50000000  0.96241000  1.0
  Pd  Pd14  1  0.50000000  0.00000000  0.11278000  1.0
  Pd  Pd15  1  0.50000000  0.00000000  0.96241000  1.0
  Pd  Pd16  1  0.50000000  0.50000000  0.11278000  1.0
  Pd  Pd17  1  0.50000000  0.50000000  0.96241000  1.0
  C  C18  1  0.00000000  0.00000000  0.85625000  1.0
