# generated using pymatgen
data_Sc8Co16Sn8C
_symmetry_space_group_name_H-M   Pmm2
_cell_length_a   6.22913000
_cell_length_b   8.80931000
_cell_length_c   26.60700000
_cell_angle_alpha   90.00000000
_cell_angle_beta   90.00000000
_cell_angle_gamma   90.00000000
_symmetry_Int_Tables_number   25
_chemical_formula_structural   Sc8Co16Sn8C
_chemical_formula_sum   'Sc8 Co16 Sn8 C1'
_cell_volume   1460.04148989
_cell_formula_units_Z   1
loop_
 _symmetry_equiv_pos_site_id
 _symmetry_equiv_pos_as_xyz
  1  'x, y, z'
  2  '-x, -y, z'
  3  '-x, y, z'
  4  'x, -y, z'
loop_
 _atom_site_type_symbol
 _atom_site_label
 _atom_site_symmetry_multiplicity
 _atom_site_fract_x
 _atom_site_fract_y
 _atom_site_fract_z
 _atom_site_occupancy
  Sc  Sc0  2  0.50000000  0.25000000  0.95861000  1.0
  Sc  Sc1  2  0.50000000  0.25937000  0.12652000  1.0
  Sc  Sc2  1  0.00000000  0.00000000  0.04406000  1.0
  Sc  Sc3  1  0.00000000  0.00000000  0.87584000  1.0
  Sc  Sc4  1  0.00000000  0.50000000  0.03985000  1.0
  Sc  Sc5  1  0.00000000  0.50000000  0.87584000  1.0
  Co  Co6  4  0.25000000  0.25000000  0.87584000  1.0
  Co  Co7  4  0.25136000  0.24986000  0.04398000  1.0
  Co  Co8  2  0.23411000  0.50000000  0.11742000  1.0
  Co  Co9  2  0.25000000  0.00000000  0.95861000  1.0
  Co  Co10  2  0.25000000  0.50000000  0.95861000  1.0
  Co  Co11  2  0.27299000  0.00000000  0.12229000  1.0
  Sn  Sn12  2  0.00000000  0.25000000  0.95861000  1.0
  Sn  Sn13  2  0.00000000  0.26210000  0.13014000  1.0
  Sn  Sn14  1  0.50000000  0.00000000  0.03988000  1.0
  Sn  Sn15  1  0.50000000  0.00000000  0.87584000  1.0
  Sn  Sn16  1  0.50000000  0.50000000  0.04120000  1.0
  Sn  Sn17  1  0.50000000  0.50000000  0.87584000  1.0
  C  C18  1  0.00000000  0.00000000  0.13722000  1.0
