# generated using pymatgen
data_Li4Y4Ag4Pb4CO
_symmetry_space_group_name_H-M   'P 1'
_cell_length_a   7.20907000
_cell_length_b   7.20907000
_cell_length_c   25.40680000
_cell_angle_alpha   90.00000000
_cell_angle_beta   90.00000000
_cell_angle_gamma   90.00000000
_symmetry_Int_Tables_number   1
_chemical_formula_structural   Li4Y4Ag4Pb4CO
_chemical_formula_sum   'Li4 Y4 Ag4 Pb4 C1 O1'
_cell_volume   1320.40893342
_cell_formula_units_Z   1
loop_
 _symmetry_equiv_pos_site_id
 _symmetry_equiv_pos_as_xyz
  1  'x, y, z'
loop_
 _atom_site_type_symbol
 _atom_site_label
 _atom_site_symmetry_multiplicity
 _atom_site_fract_x
 _atom_site_fract_y
 _atom_site_fract_z
 _atom_site_occupancy
  Li  Li0  1  0.75290500  0.24709500  0.03560000  1
  Li  Li1  1  0.25000500  0.25000500  0.89360000  1
  Li  Li2  1  0.74999500  0.74999500  0.89360000  1
  Li  Li3  1  0.24709500  0.75290500  0.03560000  1
  Y  Y4  1  0.75062500  0.75062500  0.03833000  1
  Y  Y5  1  0.24999500  0.75000500  0.89360000  1
  Y  Y6  1  0.75000500  0.24999500  0.89360000  1
  Y  Y7  1  0.24937500  0.24937500  0.03833000  1
  Ag  Ag8  1  0.00000000  0.00000000  0.11023000  1
  Ag  Ag9  1  0.50000000  0.00000000  0.96453000  1
  Ag  Ag10  1  0.00000000  0.50000000  0.96453000  1
  Ag  Ag11  1  0.50000000  0.50000000  0.10661000  1
  Pb  Pb12  1  0.50000000  0.00000000  0.11228000  1
  Pb  Pb13  1  0.00000000  0.00000000  0.96453000  1
  Pb  Pb14  1  0.50000000  0.50000000  0.96453000  1
  Pb  Pb15  1  0.00000000  0.50000000  0.11228000  1
  C  C16  1  0.00000000  0.00000000  0.20776000  1
  O  O17  1  0.00000000  0.00000000  0.25254000  1
