# generated using pymatgen
data_Li4Y4Ag4Pb4CO
_symmetry_space_group_name_H-M   Cmm2
_cell_length_a   10.19516457
_cell_length_b   10.19516457
_cell_length_c   25.40680000
_cell_angle_alpha   90.00000000
_cell_angle_beta   90.00000000
_cell_angle_gamma   90.00000000
_symmetry_Int_Tables_number   35
_chemical_formula_structural   Li4Y4Ag4Pb4CO
_chemical_formula_sum   'Li8 Y8 Ag8 Pb8 C2 O2'
_cell_volume   2640.81786684
_cell_formula_units_Z   2
loop_
 _symmetry_equiv_pos_site_id
 _symmetry_equiv_pos_as_xyz
  1  'x, y, z'
  2  '-x, -y, z'
  3  '-x, y, z'
  4  'x, -y, z'
  5  'x+1/2, y+1/2, z'
  6  '-x+1/2, -y+1/2, z'
  7  '-x+1/2, y+1/2, z'
  8  'x+1/2, -y+1/2, z'
loop_
 _atom_site_type_symbol
 _atom_site_label
 _atom_site_symmetry_multiplicity
 _atom_site_fract_x
 _atom_site_fract_y
 _atom_site_fract_z
 _atom_site_occupancy
  Li  Li0  4  0.00000000  0.24709500  0.03560000  1.0
  Li  Li1  4  0.24999500  0.50000000  0.89360000  1.0
  Y  Y2  4  0.00000000  0.24999500  0.89360000  1.0
  Y  Y3  4  0.24937500  0.00000000  0.03833000  1.0
  Ag  Ag4  4  0.25000000  0.25000000  0.96453000  1.0
  Ag  Ag5  2  0.00000000  0.00000000  0.11023000  1.0
  Ag  Ag6  2  0.00000000  0.50000000  0.10661000  1.0
  Pb  Pb7  4  0.25000000  0.25000000  0.11228000  1.0
  Pb  Pb8  2  0.00000000  0.00000000  0.96453000  1.0
  Pb  Pb9  2  0.00000000  0.50000000  0.96453000  1.0
  C  C10  2  0.00000000  0.00000000  0.20776000  1.0
  O  O11  2  0.00000000  0.00000000  0.25254000  1.0
