# generated using pymatgen
data_SnPt3
_symmetry_space_group_name_H-M   'P 1'
_cell_length_a   4.09135500
_cell_length_b   5.78605000
_cell_length_c   24.33950000
_cell_angle_alpha   90.00000000
_cell_angle_beta   90.00000000
_cell_angle_gamma   90.00000000
_symmetry_Int_Tables_number   1
_chemical_formula_structural   SnPt3
_chemical_formula_sum   'Sn2 Pt6'
_cell_volume   576.18374072
_cell_formula_units_Z   2
loop_
 _symmetry_equiv_pos_site_id
 _symmetry_equiv_pos_as_xyz
  1  'x, y, z'
loop_
 _atom_site_type_symbol
 _atom_site_label
 _atom_site_symmetry_multiplicity
 _atom_site_fract_x
 _atom_site_fract_y
 _atom_site_fract_z
 _atom_site_occupancy
  Sn  Sn0  1  0.00000000  0.00000000  0.91085000  1.0
  Sn  Sn1  1  0.00000000  0.50000000  0.03894500  1.0
  Pt  Pt2  1  0.00000000  0.50000000  0.91085000  1.0
  Pt  Pt3  1  0.50000000  0.75000000  0.97028000  1.0
  Pt  Pt4  1  0.50000000  0.25000000  0.97028000  1.0
  Pt  Pt5  1  0.00000000  0.00000000  0.03044000  1.0
  Pt  Pt6  1  0.50000000  0.24363000  0.08508000  1.0
  Pt  Pt7  1  0.50000000  0.75637000  0.08508000  1.0
