data_image0
_chemical_formula_structural       V8Fe16Sn8C
_chemical_formula_sum              "V8 Fe16 Sn8 C1"
_cell_length_a       6.09904
_cell_length_b       8.62534
_cell_length_c       26.469
_cell_angle_alpha    90
_cell_angle_beta     90
_cell_angle_gamma    90

_space_group_name_H-M_alt    "P 1"
_space_group_IT_number       1

loop_
  _space_group_symop_operation_xyz
  'x, y, z'

loop_
  _atom_site_type_symbol
  _atom_site_label
  _atom_site_symmetry_multiplicity
  _atom_site_fract_x
  _atom_site_fract_y
  _atom_site_fract_z
  _atom_site_occupancy
  V   V1        1.0  0.00000  0.00000  0.87780  1.0000
  V   V2        1.0  0.50000  0.25000  0.95927  1.0000
  V   V3        1.0  0.50000  0.75000  0.95927  1.0000
  V   V4        1.0  0.00000  0.50000  0.87780  1.0000
  V   V5        1.0  1.00000  0.50000  0.04045  1.0000
  V   V6        1.0  0.50000  0.76394  0.11679  1.0000
  V   V7        1.0  0.50000  0.23606  0.11678  1.0000
  V   V8        1.0  0.00000  0.00000  0.03794  1.0000
  Fe  Fe1       1.0  0.25000  0.00000  0.95927  1.0000
  Fe  Fe2       1.0  0.75000  0.50000  0.95927  1.0000
  Fe  Fe3       1.0  0.75000  0.00000  0.95927  1.0000
  Fe  Fe4       1.0  0.25000  0.50000  0.95927  1.0000
  Fe  Fe5       1.0  0.75000  0.75000  0.87780  1.0000
  Fe  Fe6       1.0  0.25000  0.25000  0.87780  1.0000
  Fe  Fe7       1.0  0.25000  0.75000  0.87780  1.0000
  Fe  Fe8       1.0  0.75000  0.25000  0.87780  1.0000
  Fe  Fe9       1.0  0.29707  0.50000  0.12547  1.0000
  Fe  Fe10      1.0  0.73588  1.00000  0.12136  1.0000
  Fe  Fe11      1.0  0.70293  0.50000  0.12547  1.0000
  Fe  Fe12      1.0  0.26412  1.00000  0.12136  1.0000
  Fe  Fe13      1.0  0.77549  0.25029  0.04898  1.0000
  Fe  Fe14      1.0  0.22452  0.74972  0.04898  1.0000
  Fe  Fe15      1.0  0.22451  0.25029  0.04898  1.0000
  Fe  Fe16      1.0  0.77548  0.74972  0.04898  1.0000
  Sn  Sn1       1.0  0.00000  0.75000  0.95927  1.0000
  Sn  Sn2       1.0  0.50000  0.00000  0.87780  1.0000
  Sn  Sn3       1.0  0.00000  0.25000  0.95927  1.0000
  Sn  Sn4       1.0  0.50000  0.50000  0.87780  1.0000
  Sn  Sn5       1.0  1.00000  0.26838  0.14277  1.0000
  Sn  Sn6       1.0  0.50000  0.50000  0.03811  1.0000
  Sn  Sn7       1.0  1.00000  0.73162  0.14277  1.0000
  Sn  Sn8       1.0  0.50000  1.00000  0.03796  1.0000
  C   C1        1.0  0.00000  0.00000  0.15179  1.0000
