# generated using pymatgen
data_NbRh
_symmetry_space_group_name_H-M   'P 1'
_cell_length_a   3.86076000
_cell_length_b   4.08105500
_cell_length_c   26.12160000
_cell_angle_alpha   90.00000000
_cell_angle_beta   90.00000000
_cell_angle_gamma   90.00000000
_symmetry_Int_Tables_number   1
_chemical_formula_structural   NbRh
_chemical_formula_sum   'Nb4 Rh4'
_cell_volume   411.57124787
_cell_formula_units_Z   4
loop_
 _symmetry_equiv_pos_site_id
 _symmetry_equiv_pos_as_xyz
  1  'x, y, z'
loop_
 _atom_site_type_symbol
 _atom_site_label
 _atom_site_symmetry_multiplicity
 _atom_site_fract_x
 _atom_site_fract_y
 _atom_site_fract_z
 _atom_site_occupancy
  Nb  Nb0  1  0.00000000  0.75000000  0.88283000  1.0
  Nb  Nb1  1  0.00000000  0.25000000  0.96094000  1.0
  Nb  Nb2  1  0.00000000  0.75000000  0.03906000  1.0
  Nb  Nb3  1  0.00000000  0.25000000  0.11717000  1.0
  Rh  Rh4  1  0.50000000  0.25000000  0.88283000  1.0
  Rh  Rh5  1  0.50000000  0.75000000  0.96094000  1.0
  Rh  Rh6  1  0.50000000  0.25000000  0.03906000  1.0
  Rh  Rh7  1  0.50000000  0.75000000  0.11717000  1.0
