# generated using pymatgen
data_Li4In4Ge4Au4CO
_symmetry_space_group_name_H-M   Pm
_cell_length_a   6.02588000
_cell_length_b   8.39470000
_cell_length_c   24.51900000
_cell_angle_alpha   90.00000000
_cell_angle_beta   90.00000000
_cell_angle_gamma   90.00000000
_symmetry_Int_Tables_number   6
_chemical_formula_structural   Li4In4Ge4Au4CO
_chemical_formula_sum   'Li4 In4 Ge4 Au4 C1 O1'
_cell_volume   1240.30476712
_cell_formula_units_Z   1
loop_
 _symmetry_equiv_pos_site_id
 _symmetry_equiv_pos_as_xyz
  1  'x, y, z'
  2  'x, -y, z'
loop_
 _atom_site_type_symbol
 _atom_site_label
 _atom_site_symmetry_multiplicity
 _atom_site_fract_x
 _atom_site_fract_y
 _atom_site_fract_z
 _atom_site_occupancy
  Li  Li0  2  0.25990000  0.25001000  0.09215000  1.0
  Li  Li1  2  0.73827000  0.24746000  0.96893000  1.0
  In  In2  2  0.25113000  0.23007000  0.95874000  1.0
  In  In3  2  0.75990000  0.25001000  0.09215000  1.0
  Ge  Ge4  1  0.00660000  0.00000000  0.03072000  1.0
  Ge  Ge5  1  0.00660000  0.50000000  0.03072000  1.0
  Ge  Ge6  1  0.47609000  0.00000000  0.89326000  1.0
  Ge  Ge7  1  0.50332000  0.50000000  0.92010000  1.0
  Au  Au8  1  0.50660000  0.00000000  0.03072000  1.0
  Au  Au9  1  0.50660000  0.50000000  0.03072000  1.0
  Au  Au10  1  0.89047000  0.00000000  0.91691000  1.0
  Au  Au11  1  0.96934000  0.50000000  0.92284000  1.0
  C  C12  1  0.98734000  0.50000000  0.83692000  1.0
  O  O13  1  0.96989000  0.50000000  0.79041000  1.0
