# generated using pymatgen
data_Li4Sc4Ga4Ge4C
_symmetry_space_group_name_H-M   'P 1'
_cell_length_a   8.37322000
_cell_length_b   5.66960000
_cell_length_c   24.25170000
_cell_angle_alpha   90.00000000
_cell_angle_beta   90.00000000
_cell_angle_gamma   90.00000000
_symmetry_Int_Tables_number   1
_chemical_formula_structural   Li4Sc4Ga4Ge4C
_chemical_formula_sum   'Li4 Sc4 Ga4 Ge4 C1'
_cell_volume   1151.29630049
_cell_formula_units_Z   1
loop_
 _symmetry_equiv_pos_site_id
 _symmetry_equiv_pos_as_xyz
  1  'x, y, z'
loop_
 _atom_site_type_symbol
 _atom_site_label
 _atom_site_symmetry_multiplicity
 _atom_site_fract_x
 _atom_site_fract_y
 _atom_site_fract_z
 _atom_site_occupancy
  Li  Li0  1  0.76406000  0.60487000  0.90613000  1.0
  Li  Li1  1  0.75001000  0.99260000  0.02922000  1.0
  Li  Li2  1  0.23594000  0.60487000  0.90613000  1.0
  Li  Li3  1  0.24999000  0.99260000  0.02922000  1.0
  Sc  Sc4  1  0.00000000  0.25882000  0.97412000  1.0
  Sc  Sc5  1  0.00000000  0.73890000  0.08766000  1.0
  Sc  Sc6  1  0.50000000  0.25022000  0.96114000  1.0
  Sc  Sc7  1  0.50000000  0.73890000  0.08766000  1.0
  Ga  Ga8  1  0.77136000  0.09927000  0.89506000  1.0
  Ga  Ga9  1  0.75001000  0.49260000  0.02922000  1.0
  Ga  Ga10  1  0.22864000  0.09927000  0.89506000  1.0
  Ga  Ga11  1  0.24999000  0.49260000  0.02922000  1.0
  Ge  Ge12  1  0.00000000  0.74561000  0.97254000  1.0
  Ge  Ge13  1  0.00000000  0.23890000  0.08766000  1.0
  Ge  Ge14  1  0.50000000  0.75969000  0.96429000  1.0
  Ge  Ge15  1  0.50000000  0.23890000  0.08766000  1.0
  C  C16  1  0.00000000  0.97425000  0.90716000  1.0
