# generated using pymatgen
data_Li4Sc4Ga4Ge4C
_symmetry_space_group_name_H-M   Pm
_cell_length_a   5.66960000
_cell_length_b   8.37322000
_cell_length_c   24.25170000
_cell_angle_alpha   90.00000000
_cell_angle_beta   90.00000000
_cell_angle_gamma   90.00000000
_symmetry_Int_Tables_number   6
_chemical_formula_structural   Li4Sc4Ga4Ge4C
_chemical_formula_sum   'Li4 Sc4 Ga4 Ge4 C1'
_cell_volume   1151.29630049
_cell_formula_units_Z   1
loop_
 _symmetry_equiv_pos_site_id
 _symmetry_equiv_pos_as_xyz
  1  'x, y, z'
  2  'x, -y, z'
loop_
 _atom_site_type_symbol
 _atom_site_label
 _atom_site_symmetry_multiplicity
 _atom_site_fract_x
 _atom_site_fract_y
 _atom_site_fract_z
 _atom_site_occupancy
  Li  Li0  2  0.60487000  0.23594000  0.09387000  1.0
  Li  Li1  2  0.99260000  0.24999000  0.97078000  1.0
  Sc  Sc2  1  0.25022000  0.50000000  0.03886000  1.0
  Sc  Sc3  1  0.25882000  0.00000000  0.02588000  1.0
  Sc  Sc4  1  0.73890000  0.00000000  0.91234000  1.0
  Sc  Sc5  1  0.73890000  0.50000000  0.91234000  1.0
  Ga  Ga6  2  0.09927000  0.22864000  0.10494000  1.0
  Ga  Ga7  2  0.49260000  0.24999000  0.97078000  1.0
  Ge  Ge8  1  0.23890000  0.00000000  0.91234000  1.0
  Ge  Ge9  1  0.23890000  0.50000000  0.91234000  1.0
  Ge  Ge10  1  0.74561000  0.00000000  0.02746000  1.0
  Ge  Ge11  1  0.75969000  0.50000000  0.03571000  1.0
  C  C12  1  0.97425000  0.00000000  0.09284000  1.0
