data_image0
_chemical_formula_structural       In4Ag12CO
_chemical_formula_sum              "In4 Ag12 C1 O1"
_cell_length_a       8.59601
_cell_length_b       6.0783
_cell_length_c       24.5587
_cell_angle_alpha    90
_cell_angle_beta     90
_cell_angle_gamma    90

_space_group_name_H-M_alt    "P 1"
_space_group_IT_number       1

loop_
  _space_group_symop_operation_xyz
  'x, y, z'

loop_
  _atom_site_type_symbol
  _atom_site_label
  _atom_site_symmetry_multiplicity
  _atom_site_fract_x
  _atom_site_fract_y
  _atom_site_fract_z
  _atom_site_occupancy
  In  In1       1.0  0.00000  0.00000  0.90719  1.0000
  In  In2       1.0  0.00104  0.50625  0.03687  1.0000
  In  In3       1.0  0.50000  0.00000  0.90719  1.0000
  In  In4       1.0  0.49896  0.50625  0.03687  1.0000
  Ag  Ag1       1.0  0.00000  0.50000  0.90719  1.0000
  Ag  Ag2       1.0  0.25000  0.75000  0.96906  1.0000
  Ag  Ag3       1.0  0.25000  0.25000  0.96906  1.0000
  Ag  Ag4       1.0  0.00099  0.00639  0.03717  1.0000
  Ag  Ag5       1.0  0.25000  0.25170  0.09387  1.0000
  Ag  Ag6       1.0  0.25000  0.76606  0.09065  1.0000
  Ag  Ag7       1.0  0.50000  0.50000  0.90719  1.0000
  Ag  Ag8       1.0  0.75000  0.75000  0.96906  1.0000
  Ag  Ag9       1.0  0.75000  0.25000  0.96906  1.0000
  Ag  Ag10      1.0  0.49901  0.00639  0.03718  1.0000
  Ag  Ag11      1.0  0.75000  0.24986  0.09108  1.0000
  Ag  Ag12      1.0  0.75000  0.76180  0.09078  1.0000
  C   C1        1.0  0.25000  0.27303  0.18634  1.0000
  O   O1        1.0  0.25000  0.22875  0.23148  1.0000
