# generated using pymatgen
data_In4Ag12CO
_symmetry_space_group_name_H-M   'P 1'
_cell_length_a   8.59601000
_cell_length_b   6.07830000
_cell_length_c   24.55870000
_cell_angle_alpha   90.00000000
_cell_angle_beta   90.00000000
_cell_angle_gamma   90.00000000
_symmetry_Int_Tables_number   1
_chemical_formula_structural   In4Ag12CO
_chemical_formula_sum   'In4 Ag12 C1 O1'
_cell_volume   1283.17064957
_cell_formula_units_Z   1
loop_
 _symmetry_equiv_pos_site_id
 _symmetry_equiv_pos_as_xyz
  1  'x, y, z'
loop_
 _atom_site_type_symbol
 _atom_site_label
 _atom_site_symmetry_multiplicity
 _atom_site_fract_x
 _atom_site_fract_y
 _atom_site_fract_z
 _atom_site_occupancy
  In  In0  1  0.75000000  0.00000000  0.90719000  1.0
  In  In1  1  0.74896000  0.49375000  0.03687000  1.0
  In  In2  1  0.25000000  0.00000000  0.90719000  1.0
  In  In3  1  0.25104000  0.49375000  0.03687000  1.0
  Ag  Ag4  1  0.75000000  0.50000000  0.90719000  1.0
  Ag  Ag5  1  0.50000000  0.25000000  0.96906000  1.0
  Ag  Ag6  1  0.50000000  0.75000000  0.96906000  1.0
  Ag  Ag7  1  0.74901000  0.99361000  0.03717000  1.0
  Ag  Ag8  1  0.50000000  0.74830000  0.09387000  1.0
  Ag  Ag9  1  0.50000000  0.23394000  0.09065000  1.0
  Ag  Ag10  1  0.25000000  0.50000000  0.90719000  1.0
  Ag  Ag11  1  0.00000000  0.25000000  0.96906000  1.0
  Ag  Ag12  1  0.00000000  0.75000000  0.96906000  1.0
  Ag  Ag13  1  0.25099000  0.99361000  0.03717000  1.0
  Ag  Ag14  1  0.00000000  0.75014000  0.09108000  1.0
  Ag  Ag15  1  0.00000000  0.23820000  0.09078000  1.0
  C  C16  1  0.50000000  0.72697000  0.18634000  1.0
  O  O17  1  0.50000000  0.77125000  0.23148000  1.0
