# generated using pymatgen
data_Li8Y8In8Cu8C
_symmetry_space_group_name_H-M   'P 1'
_cell_length_a   9.45282000
_cell_length_b   6.68415000
_cell_length_c   27.08960000
_cell_angle_alpha   90.00000000
_cell_angle_beta   90.00000000
_cell_angle_gamma   90.00000000
_symmetry_Int_Tables_number   1
_chemical_formula_structural   Li8Y8In8Cu8C
_chemical_formula_sum   'Li8 Y8 In8 Cu8 C1'
_cell_volume   1711.63109607
_cell_formula_units_Z   1
loop_
 _symmetry_equiv_pos_site_id
 _symmetry_equiv_pos_as_xyz
  1  'x, y, z'
loop_
 _atom_site_type_symbol
 _atom_site_label
 _atom_site_symmetry_multiplicity
 _atom_site_fract_x
 _atom_site_fract_y
 _atom_site_fract_z
 _atom_site_occupancy
  Li  Li0  1  0.25000000  0.00000000  0.04362000  1.0
  Li  Li1  1  0.75000000  0.00000000  0.04362000  1.0
  Li  Li2  1  0.50000000  0.50000000  0.13085000  1.0
  Li  Li3  1  0.00000000  0.50000000  0.13085000  1.0
  Li  Li4  1  0.78571000  0.13697000  0.80836000  1.0
  Li  Li5  1  0.21429000  0.13697000  0.80836000  1.0
  Li  Li6  1  0.00000000  0.51473000  0.95179000  1.0
  Li  Li7  1  0.50000000  0.50376000  0.95201000  1.0
  Y  Y8  1  0.00000000  0.75000000  0.04362000  1.0
  Y  Y9  1  0.50000000  0.75000000  0.04362000  1.0
  Y  Y10  1  0.25000000  0.25000000  0.13085000  1.0
  Y  Y11  1  0.75000000  0.25000000  0.13085000  1.0
  Y  Y12  1  0.50000000  0.79724000  0.86863000  1.0
  Y  Y13  1  0.00000000  0.80589000  0.86595000  1.0
  Y  Y14  1  0.74963000  0.23746000  0.95001000  1.0
  Y  Y15  1  0.25037000  0.23746000  0.95001000  1.0
  In  In16  1  0.00000000  0.25000000  0.04362000  1.0
  In  In17  1  0.50000000  0.25000000  0.04362000  1.0
  In  In18  1  0.25000000  0.75000000  0.13085000  1.0
  In  In19  1  0.75000000  0.75000000  0.13085000  1.0
  In  In20  1  0.50000000  0.27444000  0.86139000  1.0
  In  In21  1  0.00000000  0.30781000  0.86564000  1.0
  In  In22  1  0.74866000  0.75469000  0.95631000  1.0
  In  In23  1  0.25134000  0.75469000  0.95631000  1.0
  Cu  Cu24  1  0.00000000  0.00000000  0.13085000  1.0
  Cu  Cu25  1  0.50000000  0.00000000  0.13085000  1.0
  Cu  Cu26  1  0.75000000  0.50000000  0.04362000  1.0
  Cu  Cu27  1  0.25000000  0.50000000  0.04362000  1.0
  Cu  Cu28  1  0.50000000  0.00211000  0.95864000  1.0
  Cu  Cu29  1  0.00000000  0.00212000  0.96118000  1.0
  Cu  Cu30  1  0.25974000  0.51764000  0.87344000  1.0
  Cu  Cu31  1  0.74026000  0.51764000  0.87344000  1.0
  C  C32  1  0.00000000  0.05806000  0.81523000  1.0
