# generated using pymatgen
data_Li8Y8In8Cu8C
_symmetry_space_group_name_H-M   Pm
_cell_length_a   6.68415000
_cell_length_b   9.45282000
_cell_length_c   27.08960000
_cell_angle_alpha   90.00000000
_cell_angle_beta   90.00000000
_cell_angle_gamma   90.00000000
_symmetry_Int_Tables_number   6
_chemical_formula_structural   Li8Y8In8Cu8C
_chemical_formula_sum   'Li8 Y8 In8 Cu8 C1'
_cell_volume   1711.63109607
_cell_formula_units_Z   1
loop_
 _symmetry_equiv_pos_site_id
 _symmetry_equiv_pos_as_xyz
  1  'x, y, z'
  2  'x, -y, z'
loop_
 _atom_site_type_symbol
 _atom_site_label
 _atom_site_symmetry_multiplicity
 _atom_site_fract_x
 _atom_site_fract_y
 _atom_site_fract_z
 _atom_site_occupancy
  Li  Li0  2  0.00000000  0.25000000  0.95638000  1.0
  Li  Li1  2  0.13697000  0.21429000  0.19164000  1.0
  Li  Li2  1  0.50000000  0.00000000  0.86915000  1.0
  Li  Li3  1  0.50000000  0.50000000  0.86915000  1.0
  Li  Li4  1  0.50376000  0.50000000  0.04799000  1.0
  Li  Li5  1  0.51473000  0.00000000  0.04821000  1.0
  Y  Y6  2  0.23746000  0.25037000  0.04999000  1.0
  Y  Y7  2  0.25000000  0.25000000  0.86915000  1.0
  Y  Y8  1  0.75000000  0.00000000  0.95638000  1.0
  Y  Y9  1  0.75000000  0.50000000  0.95638000  1.0
  Y  Y10  1  0.79724000  0.50000000  0.13137000  1.0
  Y  Y11  1  0.80589000  0.00000000  0.13405000  1.0
  In  In12  2  0.75000000  0.25000000  0.86915000  1.0
  In  In13  2  0.75469000  0.25134000  0.04369000  1.0
  In  In14  1  0.25000000  0.00000000  0.95638000  1.0
  In  In15  1  0.25000000  0.50000000  0.95638000  1.0
  In  In16  1  0.27444000  0.50000000  0.13861000  1.0
  In  In17  1  0.30781000  0.00000000  0.13436000  1.0
  Cu  Cu18  2  0.50000000  0.25000000  0.95638000  1.0
  Cu  Cu19  2  0.51764000  0.25974000  0.12656000  1.0
  Cu  Cu20  1  0.00000000  0.00000000  0.86915000  1.0
  Cu  Cu21  1  0.00000000  0.50000000  0.86915000  1.0
  Cu  Cu22  1  0.00211000  0.50000000  0.04136000  1.0
  Cu  Cu23  1  0.00212000  0.00000000  0.03882000  1.0
  C  C24  1  0.05806000  0.00000000  0.18477000  1.0
