# generated using pymatgen
data_Nb8Ga8Ni16CO
_symmetry_space_group_name_H-M   Pmm2
_cell_length_a   6.01786000
_cell_length_b   8.51054000
_cell_length_c   26.38290000
_cell_angle_alpha   90.00000000
_cell_angle_beta   90.00000000
_cell_angle_gamma   90.00000000
_symmetry_Int_Tables_number   25
_chemical_formula_structural   Nb8Ga8Ni16CO
_chemical_formula_sum   'Nb8 Ga8 Ni16 C1 O1'
_cell_volume   1351.20650908
_cell_formula_units_Z   1
loop_
 _symmetry_equiv_pos_site_id
 _symmetry_equiv_pos_as_xyz
  1  'x, y, z'
  2  '-x, -y, z'
  3  '-x, y, z'
  4  'x, -y, z'
loop_
 _atom_site_type_symbol
 _atom_site_label
 _atom_site_symmetry_multiplicity
 _atom_site_fract_x
 _atom_site_fract_y
 _atom_site_fract_z
 _atom_site_occupancy
  Nb  Nb0  2  0.00000000  0.25001000  0.87903000  1.0
  Nb  Nb1  2  0.00000000  0.25423000  0.04081000  1.0
  Nb  Nb2  1  0.50000000  0.00000000  0.11786000  1.0
  Nb  Nb3  1  0.50000000  0.00000000  0.95968000  1.0
  Nb  Nb4  1  0.50000000  0.50000000  0.12316000  1.0
  Nb  Nb5  1  0.50000000  0.50000000  0.95968000  1.0
  Ga  Ga6  2  0.50000000  0.24626000  0.03795000  1.0
  Ga  Ga7  2  0.50000000  0.25001000  0.87903000  1.0
  Ga  Ga8  1  0.00000000  0.00000000  0.12305000  1.0
  Ga  Ga9  1  0.00000000  0.00000000  0.95968000  1.0
  Ga  Ga10  1  0.00000000  0.50000000  0.12252000  1.0
  Ga  Ga11  1  0.00000000  0.50000000  0.95968000  1.0
  Ni  Ni12  4  0.24998000  0.25001000  0.95968000  1.0
  Ni  Ni13  4  0.26251000  0.25155000  0.11527000  1.0
  Ni  Ni14  2  0.24000000  0.00000000  0.04184000  1.0
  Ni  Ni15  2  0.24998000  0.00000000  0.87903000  1.0
  Ni  Ni16  2  0.25002000  0.50000000  0.87903000  1.0
  Ni  Ni17  2  0.26675000  0.50000000  0.04314000  1.0
  C  C18  1  0.00000000  0.00000000  0.20157000  1.0
  O  O19  1  0.00000000  0.00000000  0.24517000  1.0
