# generated using pymatgen
data_Mg8In24C
_symmetry_space_group_name_H-M   P4mm
_cell_length_a   9.42262000
_cell_length_b   9.42262000
_cell_length_c   27.06700000
_cell_angle_alpha   90.00000000
_cell_angle_beta   90.00000000
_cell_angle_gamma   90.00000000
_symmetry_Int_Tables_number   99
_chemical_formula_structural   Mg8In24C
_chemical_formula_sum   'Mg8 In24 C1'
_cell_volume   2403.16437337
_cell_formula_units_Z   1
loop_
 _symmetry_equiv_pos_site_id
 _symmetry_equiv_pos_as_xyz
  1  'x, y, z'
  2  '-y, x, z'
  3  '-x, -y, z'
  4  'y, -x, z'
  5  '-x, y, z'
  6  'y, x, z'
  7  'x, -y, z'
  8  '-y, -x, z'
loop_
 _atom_site_type_symbol
 _atom_site_label
 _atom_site_symmetry_multiplicity
 _atom_site_fract_x
 _atom_site_fract_y
 _atom_site_fract_z
 _atom_site_occupancy
  Mg  Mg0  4  0.25000000  0.25000000  0.86945000  1.0
  Mg  Mg1  4  0.25693000  0.25693000  0.04421000  1.0
  In  In2  4  0.00000000  0.25000000  0.95648000  1.0
  In  In3  4  0.00000000  0.25372000  0.13535000  1.0
  In  In4  4  0.24910000  0.50000000  0.14005000  1.0
  In  In5  4  0.25000000  0.50000000  0.95648000  1.0
  In  In6  2  0.00000000  0.50000000  0.04368000  1.0
  In  In7  2  0.00000000  0.50000000  0.86945000  1.0
  In  In8  1  0.00000000  0.00000000  0.04089000  1.0
  In  In9  1  0.00000000  0.00000000  0.86945000  1.0
  In  In10  1  0.50000000  0.50000000  0.04831000  1.0
  In  In11  1  0.50000000  0.50000000  0.86945000  1.0
  C  C12  1  0.00000000  0.00000000  0.12774000  1.0
