# generated using pymatgen
data_Li16Al8Pd8C
_symmetry_space_group_name_H-M   'P 1'
_cell_length_a   8.67390000
_cell_length_b   6.13337000
_cell_length_c   26.50540000
_cell_angle_alpha   90.00000000
_cell_angle_beta   90.00000000
_cell_angle_gamma   90.00000000
_symmetry_Int_Tables_number   1
_chemical_formula_structural   Li16Al8Pd8C
_chemical_formula_sum   'Li16 Al8 Pd8 C1'
_cell_volume   1410.09358942
_cell_formula_units_Z   1
loop_
 _symmetry_equiv_pos_site_id
 _symmetry_equiv_pos_as_xyz
  1  'x, y, z'
loop_
 _atom_site_type_symbol
 _atom_site_label
 _atom_site_symmetry_multiplicity
 _atom_site_fract_x
 _atom_site_fract_y
 _atom_site_fract_z
 _atom_site_occupancy
  Li  Li0  1  0.75000000  0.00000000  0.04091000  1.0
  Li  Li1  1  0.00000000  0.50000000  0.12272000  1.0
  Li  Li2  1  0.25000000  0.00000000  0.04091000  1.0
  Li  Li3  1  0.50000000  0.50000000  0.12272000  1.0
  Li  Li4  1  0.00000000  0.25000000  0.04091000  1.0
  Li  Li5  1  0.50000000  0.25000000  0.04091000  1.0
  Li  Li6  1  0.75000000  0.75000000  0.12272000  1.0
  Li  Li7  1  0.25000000  0.75000000  0.12272000  1.0
  Li  Li8  1  0.27436000  0.96990000  0.87105000  1.0
  Li  Li9  1  0.50000000  0.49440000  0.96393000  1.0
  Li  Li10  1  0.72564000  0.96990000  0.87105000  1.0
  Li  Li11  1  0.00000000  0.48652000  0.95606000  1.0
  Li  Li12  1  0.50000000  0.27234000  0.87752000  1.0
  Li  Li13  1  0.00000000  0.18576000  0.86057000  1.0
  Li  Li14  1  0.24421000  0.75374000  0.95904000  1.0
  Li  Li15  1  0.75579000  0.75374000  0.95904000  1.0
  Al  Al16  1  0.00000000  0.00000000  0.12272000  1.0
  Al  Al17  1  0.25000000  0.50000000  0.04091000  1.0
  Al  Al18  1  0.75000000  0.50000000  0.04091000  1.0
  Al  Al19  1  0.50000000  0.00000000  0.12272000  1.0
  Al  Al20  1  0.50000000  0.98926000  0.95741000  1.0
  Al  Al21  1  0.77638000  0.49388000  0.87548000  1.0
  Al  Al22  1  0.22362000  0.49388000  0.87548000  1.0
  Al  Al23  1  0.00000000  0.02439000  0.96499000  1.0
  Pd  Pd24  1  0.25000000  0.25000000  0.12272000  1.0
  Pd  Pd25  1  0.75000000  0.25000000  0.12272000  1.0
  Pd  Pd26  1  0.50000000  0.75000000  0.04091000  1.0
  Pd  Pd27  1  0.00000000  0.75000000  0.04091000  1.0
  Pd  Pd28  1  0.74342000  0.24174000  0.95766000  1.0
  Pd  Pd29  1  0.25658000  0.24174000  0.95766000  1.0
  Pd  Pd30  1  0.00000000  0.80951000  0.88897000  1.0
  Pd  Pd31  1  0.50000000  0.69590000  0.88483000  1.0
  C  C32  1  0.00000000  0.49813000  0.86434000  1.0
