# generated using pymatgen
data_Li16Al8Pd8C
_symmetry_space_group_name_H-M   Pm
_cell_length_a   6.13337000
_cell_length_b   8.67390000
_cell_length_c   26.50540000
_cell_angle_alpha   90.00000000
_cell_angle_beta   90.00000000
_cell_angle_gamma   90.00000000
_symmetry_Int_Tables_number   6
_chemical_formula_structural   Li16Al8Pd8C
_chemical_formula_sum   'Li16 Al8 Pd8 C1'
_cell_volume   1410.09358942
_cell_formula_units_Z   1
loop_
 _symmetry_equiv_pos_site_id
 _symmetry_equiv_pos_as_xyz
  1  'x, y, z'
  2  'x, -y, z'
loop_
 _atom_site_type_symbol
 _atom_site_label
 _atom_site_symmetry_multiplicity
 _atom_site_fract_x
 _atom_site_fract_y
 _atom_site_fract_z
 _atom_site_occupancy
  Li  Li0  2  0.00000000  0.25000000  0.95909000  1.0
  Li  Li1  2  0.75000000  0.25000000  0.87728000  1.0
  Li  Li2  2  0.75374000  0.24421000  0.04096000  1.0
  Li  Li3  2  0.96990000  0.27436000  0.12895000  1.0
  Li  Li4  1  0.18576000  0.00000000  0.13943000  1.0
  Li  Li5  1  0.25000000  0.00000000  0.95909000  1.0
  Li  Li6  1  0.25000000  0.50000000  0.95909000  1.0
  Li  Li7  1  0.27234000  0.50000000  0.12248000  1.0
  Li  Li8  1  0.48652000  0.00000000  0.04394000  1.0
  Li  Li9  1  0.49440000  0.50000000  0.03607000  1.0
  Li  Li10  1  0.50000000  0.00000000  0.87728000  1.0
  Li  Li11  1  0.50000000  0.50000000  0.87728000  1.0
  Al  Al12  2  0.49388000  0.22362000  0.12452000  1.0
  Al  Al13  2  0.50000000  0.25000000  0.95909000  1.0
  Al  Al14  1  0.00000000  0.00000000  0.87728000  1.0
  Al  Al15  1  0.00000000  0.50000000  0.87728000  1.0
  Al  Al16  1  0.02439000  0.00000000  0.03501000  1.0
  Al  Al17  1  0.98926000  0.50000000  0.04259000  1.0
  Pd  Pd18  2  0.24174000  0.25658000  0.04234000  1.0
  Pd  Pd19  2  0.25000000  0.25000000  0.87728000  1.0
  Pd  Pd20  1  0.69590000  0.50000000  0.11517000  1.0
  Pd  Pd21  1  0.75000000  0.00000000  0.95909000  1.0
  Pd  Pd22  1  0.75000000  0.50000000  0.95909000  1.0
  Pd  Pd23  1  0.80951000  0.00000000  0.11103000  1.0
  C  C24  1  0.49813000  0.00000000  0.13566000  1.0
