# generated using pymatgen
data_Li4Al4Fe4Pd4C
_symmetry_space_group_name_H-M   'P 1'
_cell_length_a   8.60712000
_cell_length_b   5.25393000
_cell_length_c   23.58290000
_cell_angle_alpha   90.00000000
_cell_angle_beta   90.00000000
_cell_angle_gamma   90.00000000
_symmetry_Int_Tables_number   1
_chemical_formula_structural   Li4Al4Fe4Pd4C
_chemical_formula_sum   'Li4 Al4 Fe4 Pd4 C1'
_cell_volume   1066.44717854
_cell_formula_units_Z   1
loop_
 _symmetry_equiv_pos_site_id
 _symmetry_equiv_pos_as_xyz
  1  'x, y, z'
loop_
 _atom_site_type_symbol
 _atom_site_label
 _atom_site_symmetry_multiplicity
 _atom_site_fract_x
 _atom_site_fract_y
 _atom_site_fract_z
 _atom_site_occupancy
  Li  Li0  1  0.00000000  0.67037000  0.99130000  1.0
  Li  Li1  1  0.00000000  0.93782000  0.07596000  1.0
  Li  Li2  1  0.50000000  0.67089000  0.95681000  1.0
  Li  Li3  1  0.50000000  0.93782000  0.07596000  1.0
  Al  Al4  1  0.81505000  0.98126000  0.92717000  1.0
  Al  Al5  1  0.75000000  0.29188000  0.02532000  1.0
  Al  Al6  1  0.18495000  0.98126000  0.92717000  1.0
  Al  Al7  1  0.25000000  0.29188000  0.02532000  1.0
  Fe  Fe8  1  0.00000000  0.18997000  0.99493000  1.0
  Fe  Fe9  1  0.00000000  0.43782000  0.07596000  1.0
  Fe  Fe10  1  0.50000000  0.21105000  0.99517000  1.0
  Fe  Fe11  1  0.50000000  0.43782000  0.07596000  1.0
  Pd  Pd12  1  0.82789000  0.46956000  0.92156000  1.0
  Pd  Pd13  1  0.75000000  0.79188000  0.02532000  1.0
  Pd  Pd14  1  0.17211000  0.46956000  0.92156000  1.0
  Pd  Pd15  1  0.25000000  0.79188000  0.02532000  1.0
  C  C16  1  0.00000000  0.76507000  0.90511000  1.0
