data_image0
_chemical_formula_structural       Li8Ag4Sb4CO
_chemical_formula_sum              "Li8 Ag4 Sb4 C1 O1"
_cell_length_a       6.69979
_cell_length_b       6.69979
_cell_length_c       25.0248
_cell_angle_alpha    90
_cell_angle_beta     90
_cell_angle_gamma    90

_space_group_name_H-M_alt    "P 1"
_space_group_IT_number       1

loop_
  _space_group_symop_operation_xyz
  'x, y, z'

loop_
  _atom_site_type_symbol
  _atom_site_label
  _atom_site_symmetry_multiplicity
  _atom_site_fract_x
  _atom_site_fract_y
  _atom_site_fract_z
  _atom_site_occupancy
  Li  Li1       1.0  0.00067  0.99933  0.02642  1.0000
  Li  Li2       1.0  0.50000  0.00000  0.89960  1.0000
  Li  Li3       1.0  0.00000  0.50000  0.89960  1.0000
  Li  Li4       1.0  0.49875  0.50125  0.02629  1.0000
  Li  Li5       1.0  0.25000  0.25000  0.96653  1.0000
  Li  Li6       1.0  0.25076  0.74924  0.10540  1.0000
  Li  Li7       1.0  0.75000  0.75000  0.96653  1.0000
  Li  Li8       1.0  0.74966  0.25034  0.10469  1.0000
  Ag  Ag1       1.0  0.25006  0.25050  0.09676  1.0000
  Ag  Ag2       1.0  0.25000  0.75000  0.96653  1.0000
  Ag  Ag3       1.0  0.74951  0.74995  0.09676  1.0000
  Ag  Ag4       1.0  0.75000  0.25000  0.96653  1.0000
  Sb  Sb1       1.0  0.00000  0.00000  0.89960  1.0000
  Sb  Sb2       1.0  0.50000  0.50000  0.89960  1.0000
  Sb  Sb3       1.0  0.49730  0.99776  0.04416  1.0000
  Sb  Sb4       1.0  0.00226  0.50269  0.04416  1.0000
  C   C1        1.0  0.74865  0.25135  0.18793  1.0000
  O   O1        1.0  0.74872  0.25127  0.23358  1.0000
