# generated using pymatgen
data_Li8Ag4Sb4CO
_symmetry_space_group_name_H-M   Cm
_cell_length_a   9.47493388
_cell_length_b   9.47493388
_cell_length_c   25.02480000
_cell_angle_alpha   90.00000000
_cell_angle_beta   90.00000000
_cell_angle_gamma   90.00000000
_symmetry_Int_Tables_number   8
_chemical_formula_structural   Li8Ag4Sb4CO
_chemical_formula_sum   'Li16 Ag8 Sb8 C2 O2'
_cell_volume   2246.58570663
_cell_formula_units_Z   2
loop_
 _symmetry_equiv_pos_site_id
 _symmetry_equiv_pos_as_xyz
  1  'x, y, z'
  2  'x, -y, z'
  3  'x+1/2, y+1/2, z'
  4  'x+1/2, -y+1/2, z'
loop_
 _atom_site_type_symbol
 _atom_site_label
 _atom_site_symmetry_multiplicity
 _atom_site_fract_x
 _atom_site_fract_y
 _atom_site_fract_z
 _atom_site_occupancy
  Li  Li0  4  0.00000000  0.25000000  0.96653000  1.0
  Li  Li1  4  0.25000000  0.25000000  0.89960000  1.0
  Li  Li2  2  0.00067000  0.00000000  0.02642000  1.0
  Li  Li3  2  0.24966000  0.50000000  0.10469000  1.0
  Li  Li4  2  0.25076000  0.00000000  0.10540000  1.0
  Li  Li5  2  0.49875000  0.00000000  0.02629000  1.0
  Ag  Ag6  4  0.49978000  0.24972000  0.09676000  1.0
  Ag  Ag7  2  0.25000000  0.00000000  0.96653000  1.0
  Ag  Ag8  2  0.25000000  0.50000000  0.96653000  1.0
  Sb  Sb9  4  0.24977000  0.24753000  0.04416000  1.0
  Sb  Sb10  2  0.00000000  0.00000000  0.89960000  1.0
  Sb  Sb11  2  0.00000000  0.50000000  0.89960000  1.0
  C  C12  2  0.24865000  0.50000000  0.18793000  1.0
  O  O13  2  0.24872500  0.50000000  0.23358000  1.0
