# generated using pymatgen
data_Y8Sc8Ga8Pd8CO
_symmetry_space_group_name_H-M   Pm
_cell_length_a   9.85606000
_cell_length_b   7.06732000
_cell_length_c   27.11150000
_cell_angle_alpha   90.00000000
_cell_angle_beta   90.00000000
_cell_angle_gamma   90.00000000
_symmetry_Int_Tables_number   6
_chemical_formula_structural   Y8Sc8Ga8Pd8CO
_chemical_formula_sum   'Y8 Sc8 Ga8 Pd8 C1 O1'
_cell_volume   1888.47674509
_cell_formula_units_Z   1
loop_
 _symmetry_equiv_pos_site_id
 _symmetry_equiv_pos_as_xyz
  1  'x, y, z'
  2  'x, -y, z'
loop_
 _atom_site_type_symbol
 _atom_site_label
 _atom_site_symmetry_multiplicity
 _atom_site_fract_x
 _atom_site_fract_y
 _atom_site_fract_z
 _atom_site_occupancy
  Y  Y0  2  0.25000000  0.25000000  0.95628000  1.0
  Y  Y1  2  0.25339000  0.25127000  0.13522000  1.0
  Y  Y2  2  0.74662000  0.25127000  0.13523000  1.0
  Y  Y3  2  0.75000000  0.25000000  0.95628000  1.0
  Sc  Sc4  2  -0.00000000  0.25000000  0.86885000  1.0
  Sc  Sc5  2  0.50000000  0.25000000  0.86885000  1.0
  Sc  Sc6  2  0.50000000  0.26007000  0.04326000  1.0
  Sc  Sc7  2  0.99999000  0.24664000  0.04301000  1.0
  Ga  Ga8  1  0.00000000  0.00000000  0.95628000  1.0
  Ga  Ga9  1  0.00000000  0.50000000  0.12972000  1.0
  Ga  Ga10  1  0.00000000  0.50000000  0.95628000  1.0
  Ga  Ga11  1  0.00003000  0.00000000  0.12621000  1.0
  Ga  Ga12  1  0.50000000  0.00000000  0.95628000  1.0
  Ga  Ga13  1  0.50000000  0.50000000  0.95628000  1.0
  Ga  Ga14  1  0.50001000  0.00000000  0.12868000  1.0
  Ga  Ga15  1  0.50001000  0.50000000  0.13516000  1.0
  Pd  Pd16  1  0.21898000  0.50000000  0.04843000  1.0
  Pd  Pd17  1  0.25000000  0.00000000  0.86885000  1.0
  Pd  Pd18  1  0.25000000  0.50000000  0.86885000  1.0
  Pd  Pd19  1  0.28598000  0.00000000  0.04552000  1.0
  Pd  Pd20  1  0.71402000  0.00000000  0.04552000  1.0
  Pd  Pd21  1  0.75000000  0.00000000  0.86885000  1.0
  Pd  Pd22  1  0.75000000  0.50000000  0.86885000  1.0
  Pd  Pd23  1  0.78101000  0.50000000  0.04843000  1.0
  C  C24  1  0.99991000  0.00000000  0.19808000  1.0
  O  O25  1  0.99997000  0.00000000  0.24153000  1.0
