# generated using pymatgen
data_Y8In8Pd8Pt8CO
_symmetry_space_group_name_H-M   'P 1'
_cell_length_a   9.65478000
_cell_length_b   6.82696000
_cell_length_c   27.24110000
_cell_angle_alpha   90.00000000
_cell_angle_beta   90.00000000
_cell_angle_gamma   90.00000000
_symmetry_Int_Tables_number   1
_chemical_formula_structural   Y8In8Pd8Pt8CO
_chemical_formula_sum   'Y8 In8 Pd8 Pt8 C1 O1'
_cell_volume   1795.53709078
_cell_formula_units_Z   1
loop_
 _symmetry_equiv_pos_site_id
 _symmetry_equiv_pos_as_xyz
  1  'x, y, z'
loop_
 _atom_site_type_symbol
 _atom_site_label
 _atom_site_symmetry_multiplicity
 _atom_site_fract_x
 _atom_site_fract_y
 _atom_site_fract_z
 _atom_site_occupancy
  Y  Y0  1  0.25000000  1.00000000  0.04430000  1.0
  Y  Y1  1  0.75000000  1.00000000  0.04430000  1.0
  Y  Y2  1  0.50000000  0.50000000  0.13291000  1.0
  Y  Y3  1  0.00000000  0.50000000  0.13291000  1.0
  Y  Y4  1  0.74326000  0.99034000  0.86449000  1.0
  Y  Y5  1  0.25674000  0.99034000  0.86449000  1.0
  Y  Y6  1  0.00000000  0.49685000  0.95551000  1.0
  Y  Y7  1  0.50000000  0.49721000  0.95671000  1.0
  In  In8  1  0.00000000  0.00000000  0.13291000  1.0
  In  In9  1  0.50000000  0.00000000  0.13291000  1.0
  In  In10  1  0.75000000  0.50000000  0.04430000  1.0
  In  In11  1  0.25000000  0.50000000  0.04430000  1.0
  In  In12  1  0.50000000  0.99555000  0.95356000  1.0
  In  In13  1  0.00000000  0.00027000  0.95226000  1.0
  In  In14  1  0.24824000  0.49394000  0.86499000  1.0
  In  In15  1  0.75176000  0.49394000  0.86499000  1.0
  Pd  Pd16  1  0.00000000  0.75000000  0.04430000  1.0
  Pd  Pd17  1  0.50000000  0.75000000  0.04430000  1.0
  Pd  Pd18  1  0.25000000  0.25000000  0.13291000  1.0
  Pd  Pd19  1  0.75000000  0.25000000  0.13291000  1.0
  Pd  Pd20  1  0.50000000  0.71721000  0.86904000  1.0
  Pd  Pd21  1  0.00000000  0.72932000  0.87059000  1.0
  Pd  Pd22  1  0.75432000  0.23621000  0.95080000  1.0
  Pd  Pd23  1  0.24568000  0.23621000  0.95080000  1.0
  Pt  Pt24  1  0.00000000  0.25000000  0.04430000  1.0
  Pt  Pt25  1  0.50000000  0.25000000  0.04430000  1.0
  Pt  Pt26  1  0.25000000  0.75000000  0.13291000  1.0
  Pt  Pt27  1  0.75000000  0.75000000  0.13291000  1.0
  Pt  Pt28  1  0.50000000  0.25699000  0.87255000  1.0
  Pt  Pt29  1  0.00000000  0.24204000  0.86021000  1.0
  Pt  Pt30  1  0.75016000  0.75737000  0.95344000  1.0
  Pt  Pt31  1  0.24984000  0.75737000  0.95344000  1.0
  C  C32  1  0.00000000  0.18596000  0.79151000  1.0
  O  O33  1  0.00000000  0.17631000  0.74886000  1.0
