# generated using pymatgen
data_Y8In8Pd8Pt8CO
_symmetry_space_group_name_H-M   Pm
_cell_length_a   6.82696000
_cell_length_b   9.65478000
_cell_length_c   27.24110000
_cell_angle_alpha   90.00000000
_cell_angle_beta   90.00000000
_cell_angle_gamma   90.00000000
_symmetry_Int_Tables_number   6
_chemical_formula_structural   Y8In8Pd8Pt8CO
_chemical_formula_sum   'Y8 In8 Pd8 Pt8 C1 O1'
_cell_volume   1795.53709078
_cell_formula_units_Z   1
loop_
 _symmetry_equiv_pos_site_id
 _symmetry_equiv_pos_as_xyz
  1  'x, y, z'
  2  'x, -y, z'
loop_
 _atom_site_type_symbol
 _atom_site_label
 _atom_site_symmetry_multiplicity
 _atom_site_fract_x
 _atom_site_fract_y
 _atom_site_fract_z
 _atom_site_occupancy
  Y  Y0  2  -0.00000000  0.25000000  0.95570000  1.0
  Y  Y1  2  0.99034000  0.25674000  0.13551000  1.0
  Y  Y2  1  0.49685000  0.00000000  0.04449000  1.0
  Y  Y3  1  0.49721000  0.50000000  0.04329000  1.0
  Y  Y4  1  0.50000000  0.00000000  0.86709000  1.0
  Y  Y5  1  0.50000000  0.50000000  0.86709000  1.0
  In  In6  2  0.49394000  0.24824000  0.13501000  1.0
  In  In7  2  0.50000000  0.25000000  0.95570000  1.0
  In  In8  1  0.00000000  0.00000000  0.86709000  1.0
  In  In9  1  0.00000000  0.50000000  0.86709000  1.0
  In  In10  1  0.00027000  0.00000000  0.04774000  1.0
  In  In11  1  0.99555000  0.50000000  0.04644000  1.0
  Pd  Pd12  2  0.23621000  0.24568000  0.04920000  1.0
  Pd  Pd13  2  0.25000000  0.25000000  0.86709000  1.0
  Pd  Pd14  1  0.71721000  0.50000000  0.13096000  1.0
  Pd  Pd15  1  0.72932000  0.00000000  0.12941000  1.0
  Pd  Pd16  1  0.75000000  0.00000000  0.95570000  1.0
  Pd  Pd17  1  0.75000000  0.50000000  0.95570000  1.0
  Pt  Pt18  2  0.75000000  0.25000000  0.86709000  1.0
  Pt  Pt19  2  0.75737000  0.24984000  0.04656000  1.0
  Pt  Pt20  1  0.24204000  0.00000000  0.13979000  1.0
  Pt  Pt21  1  0.25000000  0.00000000  0.95570000  1.0
  Pt  Pt22  1  0.25000000  0.50000000  0.95570000  1.0
  Pt  Pt23  1  0.25699000  0.50000000  0.12745000  1.0
  C  C24  1  0.18596000  0.00000000  0.20849000  1.0
  O  O25  1  0.17631000  0.00000000  0.25114000  1.0
