# generated using pymatgen
data_Hf8In8Cu16CO
_symmetry_space_group_name_H-M   'P 1'
_cell_length_a   6.35005000
_cell_length_b   8.98033000
_cell_length_c   26.73520000
_cell_angle_alpha   90.00000000
_cell_angle_beta   90.00000000
_cell_angle_gamma   90.00000000
_symmetry_Int_Tables_number   1
_chemical_formula_structural   Hf8In8Cu16CO
_chemical_formula_sum   'Hf8 In8 Cu16 C1 O1'
_cell_volume   1524.58933776
_cell_formula_units_Z   1
loop_
 _symmetry_equiv_pos_site_id
 _symmetry_equiv_pos_as_xyz
  1  'x, y, z'
loop_
 _atom_site_type_symbol
 _atom_site_label
 _atom_site_symmetry_multiplicity
 _atom_site_fract_x
 _atom_site_fract_y
 _atom_site_fract_z
 _atom_site_occupancy
  Hf  Hf0  1  0.00000000  0.74999000  0.87404000  1.0
  Hf  Hf1  1  0.50000000  0.00000000  0.95801000  1.0
  Hf  Hf2  1  0.50000000  0.50000000  0.95801000  1.0
  Hf  Hf3  1  0.00000000  0.25001000  0.87404000  1.0
  Hf  Hf4  1  0.00000000  0.24827000  0.04615000  1.0
  Hf  Hf5  1  0.50000000  0.50000000  0.12669000  1.0
  Hf  Hf6  1  0.50000000  0.00000000  0.12632000  1.0
  Hf  Hf7  1  0.00000000  0.75173000  0.04615000  1.0
  In  In8  1  0.00000000  0.50000000  0.95801000  1.0
  In  In9  1  0.50000000  0.74999000  0.87404000  1.0
  In  In10  1  0.00000000  0.00000000  0.95801000  1.0
  In  In11  1  0.50000000  0.25001000  0.87404000  1.0
  In  In12  1  0.00000000  0.00000000  0.13864000  1.0
  In  In13  1  0.50000000  0.25184000  0.04278000  1.0
  In  In14  1  0.00000000  0.50000000  0.14140000  1.0
  In  In15  1  0.50000000  0.74816000  0.04278000  1.0
  Cu  Cu16  1  0.24998000  0.74999000  0.95801000  1.0
  Cu  Cu17  1  0.75002000  0.25001000  0.95801000  1.0
  Cu  Cu18  1  0.75002000  0.74999000  0.95801000  1.0
  Cu  Cu19  1  0.24998000  0.25001000  0.95801000  1.0
  Cu  Cu20  1  0.74998000  0.50000000  0.87404000  1.0
  Cu  Cu21  1  0.24998000  0.00000000  0.87404000  1.0
  Cu  Cu22  1  0.25002000  0.50000000  0.87404000  1.0
  Cu  Cu23  1  0.75002000  0.00000000  0.87404000  1.0
  Cu  Cu24  1  0.26571000  0.24989000  0.13187000  1.0
  Cu  Cu25  1  0.73429000  0.75011000  0.13187000  1.0
  Cu  Cu26  1  0.73429000  0.24989000  0.13187000  1.0
  Cu  Cu27  1  0.26571000  0.75011000  0.13187000  1.0
  Cu  Cu28  1  0.75403000  0.00000000  0.04490000  1.0
  Cu  Cu29  1  0.23766000  0.50000000  0.04570000  1.0
  Cu  Cu30  1  0.24597000  0.00000000  0.04490000  1.0
  Cu  Cu31  1  0.76234000  0.50000000  0.04570000  1.0
  C  C32  1  0.00000000  0.00000000  0.29329000  1.0
  O  O33  1  0.00000000  0.00000000  0.33573000  1.0
