# generated using pymatgen
data_Sc16Al16C
_symmetry_space_group_name_H-M   'P 1'
_cell_length_a   9.55143000
_cell_length_b   6.75388000
_cell_length_c   27.16360000
_cell_angle_alpha   90.00000000
_cell_angle_beta   90.00000000
_cell_angle_gamma   90.00000000
_symmetry_Int_Tables_number   1
_chemical_formula_structural   Sc16Al16C
_chemical_formula_sum   'Sc16 Al16 C1'
_cell_volume   1752.30243240
_cell_formula_units_Z   1
loop_
 _symmetry_equiv_pos_site_id
 _symmetry_equiv_pos_as_xyz
  1  'x, y, z'
loop_
 _atom_site_type_symbol
 _atom_site_label
 _atom_site_symmetry_multiplicity
 _atom_site_fract_x
 _atom_site_fract_y
 _atom_site_fract_z
 _atom_site_occupancy
  Sc  Sc0  1  0.25000000  0.25000000  0.13186000  1.0
  Sc  Sc1  1  0.00000000  0.25000000  0.04395000  1.0
  Sc  Sc2  1  0.24812000  0.24667000  0.95779000  1.0
  Sc  Sc3  1  0.50000000  0.22269000  0.86572000  1.0
  Sc  Sc4  1  0.75000000  0.25000000  0.13186000  1.0
  Sc  Sc5  1  0.50000000  0.25000000  0.04395000  1.0
  Sc  Sc6  1  0.75188000  0.24667000  0.95779000  1.0
  Sc  Sc7  1  0.00000000  0.29899000  0.86227000  1.0
  Sc  Sc8  1  0.25000000  0.75000000  0.13186000  1.0
  Sc  Sc9  1  0.00000000  0.75000000  0.04395000  1.0
  Sc  Sc10  1  0.24809000  0.75335000  0.95779000  1.0
  Sc  Sc11  1  0.50000000  0.77743000  0.86576000  1.0
  Sc  Sc12  1  0.75000000  0.75000000  0.13186000  1.0
  Sc  Sc13  1  0.50000000  0.75000000  0.04395000  1.0
  Sc  Sc14  1  0.75191000  0.75335000  0.95779000  1.0
  Sc  Sc15  1  0.00000000  0.70098000  0.86229000  1.0
  Al  Al16  1  0.00000000  0.00000000  0.13186000  1.0
  Al  Al17  1  0.25000000  0.00000000  0.04395000  1.0
  Al  Al18  1  0.00000000  0.00001000  0.94107000  1.0
  Al  Al19  1  0.22102000  0.99998000  0.86841000  1.0
  Al  Al20  1  0.50000000  0.00000000  0.13186000  1.0
  Al  Al21  1  0.75000000  0.00000000  0.04395000  1.0
  Al  Al22  1  0.50000000  0.00005000  0.95647000  1.0
  Al  Al23  1  0.77898000  0.99998000  0.86841000  1.0
  Al  Al24  1  0.00000000  0.50000000  0.13186000  1.0
  Al  Al25  1  0.25000000  0.50000000  0.04395000  1.0
  Al  Al26  1  0.00000000  0.49998000  0.95643000  1.0
  Al  Al27  1  0.26858000  0.50005000  0.87056000  1.0
  Al  Al28  1  0.50000000  0.50000000  0.13186000  1.0
  Al  Al29  1  0.75000000  0.50000000  0.04395000  1.0
  Al  Al30  1  0.50000000  0.49999000  0.95182000  1.0
  Al  Al31  1  0.73142000  0.50005000  0.87056000  1.0
  C  C32  1  0.00000000  0.99999000  0.85932000  1.0
