# generated using pymatgen
data_Sc16Al16C
_symmetry_space_group_name_H-M   Pm
_cell_length_a   6.75388000
_cell_length_b   9.55143000
_cell_length_c   27.16360000
_cell_angle_alpha   90.00000000
_cell_angle_beta   90.00000000
_cell_angle_gamma   90.00000000
_symmetry_Int_Tables_number   6
_chemical_formula_structural   Sc16Al16C
_chemical_formula_sum   'Sc16 Al16 C1'
_cell_volume   1752.30243240
_cell_formula_units_Z   1
loop_
 _symmetry_equiv_pos_site_id
 _symmetry_equiv_pos_as_xyz
  1  'x, y, z'
  2  'x, -y, z'
loop_
 _atom_site_type_symbol
 _atom_site_label
 _atom_site_symmetry_multiplicity
 _atom_site_fract_x
 _atom_site_fract_y
 _atom_site_fract_z
 _atom_site_occupancy
  Sc  Sc0  2  0.24667000  0.24812000  0.04221000  1.0
  Sc  Sc1  2  0.25000000  0.25000000  0.86814000  1.0
  Sc  Sc2  2  0.75000000  0.25000000  0.86814000  1.0
  Sc  Sc3  2  0.75335000  0.24809000  0.04221000  1.0
  Sc  Sc4  1  0.22269000  0.50000000  0.13428000  1.0
  Sc  Sc5  1  0.25000000  0.00000000  0.95605000  1.0
  Sc  Sc6  1  0.25000000  0.50000000  0.95605000  1.0
  Sc  Sc7  1  0.29899000  0.00000000  0.13773000  1.0
  Sc  Sc8  1  0.70098000  0.00000000  0.13771000  1.0
  Sc  Sc9  1  0.75000000  0.00000000  0.95605000  1.0
  Sc  Sc10  1  0.75000000  0.50000000  0.95605000  1.0
  Sc  Sc11  1  0.77743000  0.50000000  0.13424000  1.0
  Al  Al12  2  0.00000000  0.25000000  0.95605000  1.0
  Al  Al13  2  0.50000000  0.25000000  0.95605000  1.0
  Al  Al14  2  0.50005000  0.26858000  0.12944000  1.0
  Al  Al15  2  0.99998000  0.22102000  0.13159000  1.0
  Al  Al16  1  0.00000000  0.00000000  0.86814000  1.0
  Al  Al17  1  0.00000000  0.50000000  0.86814000  1.0
  Al  Al18  1  0.00001000  0.00000000  0.05893000  1.0
  Al  Al19  1  0.00005000  0.50000000  0.04353000  1.0
  Al  Al20  1  0.49998000  0.00000000  0.04357000  1.0
  Al  Al21  1  0.49999000  0.50000000  0.04818000  1.0
  Al  Al22  1  0.50000000  0.00000000  0.86814000  1.0
  Al  Al23  1  0.50000000  0.50000000  0.86814000  1.0
  C  C24  1  0.99999000  0.00000000  0.14068000  1.0
