# generated using pymatgen
data_LiMgAgSn
_symmetry_space_group_name_H-M   Pm
_cell_length_a   6.75899000
_cell_length_b   4.77933000
_cell_length_c   27.16900000
_cell_angle_alpha   90.00000000
_cell_angle_beta   90.00000000
_cell_angle_gamma   90.00000000
_symmetry_Int_Tables_number   6
_chemical_formula_structural   LiMgAgSn
_chemical_formula_sum   'Li4 Mg4 Ag4 Sn4'
_cell_volume   877.65226125
_cell_formula_units_Z   4
loop_
 _symmetry_equiv_pos_site_id
 _symmetry_equiv_pos_as_xyz
  1  'x, y, z'
  2  'x, -y, z'
loop_
 _atom_site_type_symbol
 _atom_site_label
 _atom_site_symmetry_multiplicity
 _atom_site_fract_x
 _atom_site_fract_y
 _atom_site_fract_z
 _atom_site_occupancy
  Li  Li0  1  0.24298000  0.00000000  0.86361000  1.0
  Li  Li1  1  0.25000000  0.00000000  0.04398000  1.0
  Li  Li2  1  0.75000000  0.50000000  0.13193000  1.0
  Li  Li3  1  0.75865000  0.50000000  0.95482500  1.0
  Mg  Mg4  1  0.23932000  0.50000000  0.95315000  1.0
  Mg  Mg5  1  0.25000000  0.50000000  0.13193000  1.0
  Mg  Mg6  1  0.75000000  0.00000000  0.04398000  1.0
  Mg  Mg7  1  0.75854000  0.00000000  0.85978000  1.0
  Ag  Ag8  1  0.00000000  0.00000000  0.13193000  1.0
  Ag  Ag9  1  0.50000000  0.50000000  0.04398000  1.0
  Ag  Ag10  1  0.50858000  0.50000000  0.87092500  1.0
  Ag  Ag11  1  0.99137500  0.00000000  0.95061500  1.0
  Sn  Sn12  1  0.00000000  0.50000000  0.04398000  1.0
  Sn  Sn13  1  0.00947500  0.50000000  0.85735000  1.0
  Sn  Sn14  1  0.50000000  0.00000000  0.13193000  1.0
  Sn  Sn15  1  0.50414000  0.00000000  0.95011000  1.0
