data_image0
_chemical_formula_structural       In16Rh16CO
_chemical_formula_sum              "In16 Rh16 C1 O1"
_cell_length_a       6.51708
_cell_length_b       9.21654
_cell_length_c       26.9124
_cell_angle_alpha    90
_cell_angle_beta     90
_cell_angle_gamma    90

_space_group_name_H-M_alt    "P 1"
_space_group_IT_number       1

loop_
  _space_group_symop_operation_xyz
  'x, y, z'

loop_
  _atom_site_type_symbol
  _atom_site_label
  _atom_site_symmetry_multiplicity
  _atom_site_fract_x
  _atom_site_fract_y
  _atom_site_fract_z
  _atom_site_occupancy
  In  In1       1.0  0.00000  0.00000  0.87158  1.0000
  In  In2       1.0  0.00000  0.25000  0.95719  1.0000
  In  In3       1.0  1.00000  0.99946  0.04253  1.0000
  In  In4       1.0  1.00000  0.25000  0.13565  1.0000
  In  In5       1.0  0.00000  0.50000  0.87158  1.0000
  In  In6       1.0  0.00000  0.75000  0.95719  1.0000
  In  In7       1.0  0.00000  0.50054  0.04253  1.0000
  In  In8       1.0  1.00000  0.75000  0.13599  1.0000
  In  In9       1.0  0.50000  0.00000  0.87158  1.0000
  In  In10      1.0  0.50000  0.25000  0.95719  1.0000
  In  In11      1.0  0.50000  0.00008  0.04259  1.0000
  In  In12      1.0  0.50000  0.25000  0.13607  1.0000
  In  In13      1.0  0.50000  0.50000  0.87158  1.0000
  In  In14      1.0  0.50000  0.75000  0.95719  1.0000
  In  In15      1.0  0.50000  0.49992  0.04259  1.0000
  In  In16      1.0  0.50000  0.75000  0.13594  1.0000
  Rh  Rh1       1.0  0.25000  0.25000  0.87158  1.0000
  Rh  Rh2       1.0  0.25000  0.00000  0.95719  1.0000
  Rh  Rh3       1.0  0.24976  0.25000  0.04137  1.0000
  Rh  Rh4       1.0  0.24985  0.00002  0.12340  1.0000
  Rh  Rh5       1.0  0.25000  0.75000  0.87158  1.0000
  Rh  Rh6       1.0  0.25000  0.50000  0.95719  1.0000
  Rh  Rh7       1.0  0.25012  0.75000  0.04134  1.0000
  Rh  Rh8       1.0  0.24985  0.49999  0.12340  1.0000
  Rh  Rh9       1.0  0.75000  0.25000  0.87158  1.0000
  Rh  Rh10      1.0  0.75000  0.00000  0.95719  1.0000
  Rh  Rh11      1.0  0.75024  0.25000  0.04137  1.0000
  Rh  Rh12      1.0  0.75015  0.00001  0.12340  1.0000
  Rh  Rh13      1.0  0.75000  0.75000  0.87158  1.0000
  Rh  Rh14      1.0  0.75000  0.50000  0.95719  1.0000
  Rh  Rh15      1.0  0.74988  0.75000  0.04134  1.0000
  Rh  Rh16      1.0  0.75015  0.49999  0.12340  1.0000
  C   C1        1.0  0.99999  0.25000  0.27781  1.0000
  O   O1        1.0  0.00000  0.25000  0.31997  1.0000
