# generated using pymatgen
data_In16Rh16CO
_symmetry_space_group_name_H-M   Pmm2
_cell_length_a   6.51708000
_cell_length_b   9.21654000
_cell_length_c   26.91240000
_cell_angle_alpha   90.00000000
_cell_angle_beta   90.00000000
_cell_angle_gamma   90.00000000
_symmetry_Int_Tables_number   25
_chemical_formula_structural   In16Rh16CO
_chemical_formula_sum   'In16 Rh16 C1 O1'
_cell_volume   1616.49138185
_cell_formula_units_Z   1
loop_
 _symmetry_equiv_pos_site_id
 _symmetry_equiv_pos_as_xyz
  1  'x, y, z'
  2  '-x, -y, z'
  3  '-x, y, z'
  4  'x, -y, z'
loop_
 _atom_site_type_symbol
 _atom_site_label
 _atom_site_symmetry_multiplicity
 _atom_site_fract_x
 _atom_site_fract_y
 _atom_site_fract_z
 _atom_site_occupancy
  In  In0  2  0.00000000  0.24992000  0.04259000  1.0
  In  In1  2  0.00000000  0.25000000  0.87158000  1.0
  In  In2  2  0.50000000  0.25000000  0.87158000  1.0
  In  In3  2  0.50000000  0.25054000  0.04253000  1.0
  In  In4  1  0.00000000  0.00000000  0.13607000  1.0
  In  In5  1  0.00000000  0.00000000  0.95719000  1.0
  In  In6  1  0.00000000  0.50000000  0.13594000  1.0
  In  In7  1  0.00000000  0.50000000  0.95719000  1.0
  In  In8  1  0.50000000  0.00000000  0.13565000  1.0
  In  In9  1  0.50000000  0.00000000  0.95719000  1.0
  In  In10  1  0.50000000  0.50000000  0.13599000  1.0
  In  In11  1  0.50000000  0.50000000  0.95719000  1.0
  Rh  Rh12  4  0.24999000  0.25000000  0.95719000  1.0
  Rh  Rh13  4  0.25014000  0.24998000  0.12340000  1.0
  Rh  Rh14  2  0.24987000  0.50000000  0.04134000  1.0
  Rh  Rh15  2  0.24999000  0.00000000  0.87158000  1.0
  Rh  Rh16  2  0.24999000  0.50000000  0.87158000  1.0
  Rh  Rh17  2  0.25023000  0.00000000  0.04137000  1.0
  C  C18  1  0.50000000  0.00000000  0.27781000  1.0
  O  O19  1  0.50000000  0.00000000  0.31997000  1.0
