# generated using pymatgen
data_Li16Sn8Au8CO
_symmetry_space_group_name_H-M   P1
_cell_length_a   6.60404000
_cell_length_b   9.33952000
_cell_length_c   27.00460000
_cell_angle_alpha   90.00000000
_cell_angle_beta   90.00000000
_cell_angle_gamma   90.00000000
_symmetry_Int_Tables_number   1
_chemical_formula_structural   Li16Sn8Au8CO
_chemical_formula_sum   'Li16 Sn8 Au8 C1 O1'
_cell_volume   1665.60494023
_cell_formula_units_Z   1
loop_
 _symmetry_equiv_pos_site_id
 _symmetry_equiv_pos_as_xyz
  1  'x, y, z'
loop_
 _atom_site_type_symbol
 _atom_site_label
 _atom_site_symmetry_multiplicity
 _atom_site_fract_x
 _atom_site_fract_y
 _atom_site_fract_z
 _atom_site_occupancy
  Li  Li0  1  0.00000000  0.25000000  0.95677000  1.0
  Li  Li1  1  0.00000000  0.75000000  0.95677000  1.0
  Li  Li2  1  0.02364000  0.25685000  0.12766000  1.0
  Li  Li3  1  0.02365000  0.74324000  0.12763000  1.0
  Li  Li4  1  0.25000000  0.25000000  0.87031000  1.0
  Li  Li5  1  0.25000000  0.75000000  0.87031000  1.0
  Li  Li6  1  0.27692000  0.24641000  0.04832000  1.0
  Li  Li7  1  0.27692000  0.75362000  0.04830000  1.0
  Li  Li8  1  0.50000000  0.00000000  0.87031000  1.0
  Li  Li9  1  0.50000000  0.50000000  0.87031000  1.0
  Li  Li10  1  0.50366000  0.50000000  0.03576000  1.0
  Li  Li11  1  0.52351000  0.99999000  0.03927000  1.0
  Li  Li12  1  0.71203000  0.50001000  0.12237000  1.0
  Li  Li13  1  0.74838000  0.00000000  0.13559000  1.0
  Li  Li14  1  0.75000000  0.00000000  0.95677000  1.0
  Li  Li15  1  0.75000000  0.50000000  0.95677000  1.0
  Sn  Sn16  1  0.00000000  0.00000000  0.87031000  1.0
  Sn  Sn17  1  0.00000000  0.50000000  0.87031000  1.0
  Sn  Sn18  1  0.50000000  0.25000000  0.95677000  1.0
  Sn  Sn19  1  0.50000000  0.75000000  0.95677000  1.0
  Sn  Sn20  1  0.50453000  0.24673000  0.14353000  1.0
  Sn  Sn21  1  0.50454000  0.75336000  0.14350000  1.0
  Sn  Sn22  1  0.99005000  0.00001000  0.04411000  1.0
  Sn  Sn23  1  0.99836000  0.50000000  0.04359000  1.0
  Au  Au24  1  0.25000000  0.00000000  0.95677000  1.0
  Au  Au25  1  0.25000000  0.50000000  0.95677000  1.0
  Au  Au26  1  0.28768000  0.00006000  0.11689000  1.0
  Au  Au27  1  0.29188000  0.50004000  0.11899000  1.0
  Au  Au28  1  0.73601000  0.25282000  0.05021000  1.0
  Au  Au29  1  0.73603000  0.74718000  0.05018000  1.0
  Au  Au30  1  0.75000000  0.25000000  0.87031000  1.0
  Au  Au31  1  0.75000000  0.75000000  0.87031000  1.0
  C  C32  1  0.89025000  0.00000000  0.20425000  1.0
  O  O33  1  0.95182000  0.99999000  0.24389000  1.0
