# generated using pymatgen
data_Cu24Sb8CO
_symmetry_space_group_name_H-M   'P 1'
_cell_length_a   6.30953000
_cell_length_b   8.92302000
_cell_length_c   26.69230000
_cell_angle_alpha   90.00000000
_cell_angle_beta   90.00000000
_cell_angle_gamma   90.00000000
_symmetry_Int_Tables_number   1
_chemical_formula_structural   Cu24Sb8CO
_chemical_formula_sum   'Cu24 Sb8 C1 O1'
_cell_volume   1502.77815508
_cell_formula_units_Z   1
loop_
 _symmetry_equiv_pos_site_id
 _symmetry_equiv_pos_as_xyz
  1  'x, y, z'
loop_
 _atom_site_type_symbol
 _atom_site_label
 _atom_site_symmetry_multiplicity
 _atom_site_fract_x
 _atom_site_fract_y
 _atom_site_fract_z
 _atom_site_occupancy
  Cu  Cu0  1  0.24998000  0.75000000  0.95821000  1.0
  Cu  Cu1  1  0.75002000  0.25000000  0.95821000  1.0
  Cu  Cu2  1  0.75002000  0.75000000  0.95821000  1.0
  Cu  Cu3  1  0.24998000  0.25000000  0.95821000  1.0
  Cu  Cu4  1  0.74998000  0.50000000  0.87464000  1.0
  Cu  Cu5  1  0.24998000  0.00000000  0.87464000  1.0
  Cu  Cu6  1  0.25002000  0.50000000  0.87464000  1.0
  Cu  Cu7  1  0.75002000  0.00000000  0.87464000  1.0
  Cu  Cu8  1  0.00000000  0.50000000  0.95821000  1.0
  Cu  Cu9  1  0.50000000  0.75000000  0.87464000  1.0
  Cu  Cu10  1  0.00000000  0.00000000  0.95821000  1.0
  Cu  Cu11  1  0.50000000  0.25000000  0.87464000  1.0
  Cu  Cu12  1  0.29181000  0.25782000  0.11330000  1.0
  Cu  Cu13  1  0.70819000  0.74218000  0.11330000  1.0
  Cu  Cu14  1  0.70819000  0.25782000  0.11330000  1.0
  Cu  Cu15  1  0.29181000  0.74218000  0.11330000  1.0
  Cu  Cu16  1  0.72877000  0.00000000  0.05123000  1.0
  Cu  Cu17  1  0.29894000  0.50000000  0.05200000  1.0
  Cu  Cu18  1  0.27123000  0.00000000  0.05123000  1.0
  Cu  Cu19  1  0.70106000  0.50000000  0.05200000  1.0
  Cu  Cu20  1  0.00000000  0.00000000  0.12350000  1.0
  Cu  Cu21  1  0.50000000  0.24308000  0.03159000  1.0
  Cu  Cu22  1  0.00000000  0.50000000  0.11509000  1.0
  Cu  Cu23  1  0.50000000  0.75692000  0.03159000  1.0
  Sb  Sb24  1  0.00000000  0.75000000  0.87464000  1.0
  Sb  Sb25  1  0.50000000  0.00000000  0.95821000  1.0
  Sb  Sb26  1  0.50000000  0.50000000  0.95821000  1.0
  Sb  Sb27  1  0.00000000  0.25000000  0.87464000  1.0
  Sb  Sb28  1  0.00000000  0.25552000  0.04300000  1.0
  Sb  Sb29  1  0.50000000  0.50000000  0.14797000  1.0
  Sb  Sb30  1  0.50000000  0.00000000  0.13857000  1.0
  Sb  Sb31  1  0.00000000  0.74448000  0.04300000  1.0
  C  C32  1  0.00000000  0.00000000  0.19404000  1.0
  O  O33  1  0.00000000  0.00000000  0.23701000  1.0
