# generated using pymatgen
data_Li16Al8Pt8C
_symmetry_space_group_name_H-M   Pm
_cell_length_a   6.07419000
_cell_length_b   8.59020000
_cell_length_c   26.44270000
_cell_angle_alpha   90.00000000
_cell_angle_beta   90.00000000
_cell_angle_gamma   90.00000000
_symmetry_Int_Tables_number   6
_chemical_formula_structural   Li16Al8Pt8C
_chemical_formula_sum   'Li16 Al8 Pt8 C1'
_cell_volume   1379.74060541
_cell_formula_units_Z   1
loop_
 _symmetry_equiv_pos_site_id
 _symmetry_equiv_pos_as_xyz
  1  'x, y, z'
  2  'x, -y, z'
loop_
 _atom_site_type_symbol
 _atom_site_label
 _atom_site_symmetry_multiplicity
 _atom_site_fract_x
 _atom_site_fract_y
 _atom_site_fract_z
 _atom_site_occupancy
  Li  Li0  2  0.25000000  0.25000000  0.95939000  1.0
  Li  Li1  2  0.25364000  0.27426000  0.12991000  1.0
  Li  Li2  2  0.50000000  0.25000000  0.87818000  1.0
  Li  Li3  2  0.50120000  0.24977000  0.04047000  1.0
  Li  Li4  1  0.00000000  0.00000000  0.95939000  1.0
  Li  Li5  1  0.00000000  0.50000000  0.95939000  1.0
  Li  Li6  1  0.04315000  0.00000000  0.12694000  1.0
  Li  Li7  1  0.75000000  0.00000000  0.87818000  1.0
  Li  Li8  1  0.75000000  0.50000000  0.87818000  1.0
  Li  Li9  1  0.75907000  0.00000000  0.04244000  1.0
  Li  Li10  1  0.76367000  0.50000000  0.03529000  1.0
  Li  Li11  1  0.97131000  0.50000000  0.12340000  1.0
  Al  Al12  2  0.00000000  0.25000000  0.87818000  1.0
  Al  Al13  2  0.00199000  0.25467000  0.04255000  1.0
  Al  Al14  1  0.44906000  0.00000000  0.11471000  1.0
  Al  Al15  1  0.50000000  0.00000000  0.95939000  1.0
  Al  Al16  1  0.50000000  0.50000000  0.95939000  1.0
  Al  Al17  1  0.55100000  0.50000000  0.11508000  1.0
  Pt  Pt18  2  0.74538000  0.22927000  0.11828000  1.0
  Pt  Pt19  2  0.75000000  0.25000000  0.95939000  1.0
  Pt  Pt20  1  0.24008000  0.00000000  0.03648000  1.0
  Pt  Pt21  1  0.25000000  0.00000000  0.87818000  1.0
  Pt  Pt22  1  0.25000000  0.50000000  0.87818000  1.0
  Pt  Pt23  1  0.25489000  0.50000000  0.04333000  1.0
  C  C24  1  0.73962000  0.00000000  0.14231000  1.0
