# generated using pymatgen
data_Sn16C
_symmetry_space_group_name_H-M   P4mm
_cell_length_a   7.64519000
_cell_length_b   7.64519000
_cell_length_c   25.73390000
_cell_angle_alpha   90.00000000
_cell_angle_beta   90.00000000
_cell_angle_gamma   90.00000000
_symmetry_Int_Tables_number   99
_chemical_formula_structural   Sn16C
_chemical_formula_sum   'Sn16 C1'
_cell_volume   1504.11892323
_cell_formula_units_Z   1
loop_
 _symmetry_equiv_pos_site_id
 _symmetry_equiv_pos_as_xyz
  1  'x, y, z'
  2  '-y, x, z'
  3  '-x, -y, z'
  4  'y, -x, z'
  5  '-x, y, z'
  6  'y, x, z'
  7  'x, -y, z'
  8  '-y, -x, z'
loop_
 _atom_site_type_symbol
 _atom_site_label
 _atom_site_symmetry_multiplicity
 _atom_site_fract_x
 _atom_site_fract_y
 _atom_site_fract_z
 _atom_site_occupancy
  Sn  Sn0  4  0.25000000  0.25000000  0.11141000  1.0
  Sn  Sn1  4  0.25000000  0.25000000  0.96286000  1.0
  Sn  Sn2  2  0.00000000  0.50000000  0.03714000  1.0
  Sn  Sn3  2  0.00000000  0.50000000  0.88859000  1.0
  Sn  Sn4  1  0.00000000  0.00000000  0.03714000  1.0
  Sn  Sn5  1  0.00000000  0.00000000  0.88859000  1.0
  Sn  Sn6  1  0.50000000  0.50000000  0.03714000  1.0
  Sn  Sn7  1  0.50000000  0.50000000  0.88859000  1.0
  C  C8  1  0.00000000  0.00000000  0.14249000  1.0
