# generated using pymatgen
data_Li8Y8Ge8Pb8CO
_symmetry_space_group_name_H-M   'P 1'
_cell_length_a   9.86128000
_cell_length_b   8.65500000
_cell_length_c   26.41550000
_cell_angle_alpha   90.00000000
_cell_angle_beta   90.00000000
_cell_angle_gamma   90.00000000
_symmetry_Int_Tables_number   1
_chemical_formula_structural   Li8Y8Ge8Pb8CO
_chemical_formula_sum   'Li8 Y8 Ge8 Pb8 C1 O1'
_cell_volume   2254.54650513
_cell_formula_units_Z   1
loop_
 _symmetry_equiv_pos_site_id
 _symmetry_equiv_pos_as_xyz
  1  'x, y, z'
loop_
 _atom_site_type_symbol
 _atom_site_label
 _atom_site_symmetry_multiplicity
 _atom_site_fract_x
 _atom_site_fract_y
 _atom_site_fract_z
 _atom_site_occupancy
  Li  Li0  1  0.25324000  0.00000000  0.94082000  1.0
  Li  Li1  1  0.25000000  0.00000000  0.12144000  1.0
  Li  Li2  1  0.74681000  0.00000000  0.94085000  1.0
  Li  Li3  1  0.75000000  0.00000000  0.12144000  1.0
  Li  Li4  1  0.25423000  0.50000000  0.94745000  1.0
  Li  Li5  1  0.25000000  0.50000000  0.12144000  1.0
  Li  Li6  1  0.74580000  0.50000000  0.94743000  1.0
  Li  Li7  1  0.75000000  0.50000000  0.12144000  1.0
  Y  Y8  1  0.00001000  0.74244000  0.96059000  1.0
  Y  Y9  1  0.00000000  0.75000000  0.12144000  1.0
  Y  Y10  1  0.49999000  0.75490000  0.96335000  1.0
  Y  Y11  1  0.50000000  0.75000000  0.12144000  1.0
  Y  Y12  1  0.00001000  0.25756000  0.96059000  1.0
  Y  Y13  1  0.00000000  0.25000000  0.12144000  1.0
  Y  Y14  1  0.49999000  0.24510000  0.96335000  1.0
  Y  Y15  1  0.50000000  0.25000000  0.12144000  1.0
  Ge  Ge16  1  0.00004000  0.00000000  0.89137000  1.0
  Ge  Ge17  1  0.00000000  0.00000000  0.04048000  1.0
  Ge  Ge18  1  0.50023000  0.00000000  0.88536000  1.0
  Ge  Ge19  1  0.50000000  0.00000000  0.04048000  1.0
  Ge  Ge20  1  0.00013000  0.50000000  0.88490000  1.0
  Ge  Ge21  1  0.00000000  0.50000000  0.04048000  1.0
  Ge  Ge22  1  0.50000000  0.50000000  0.88927000  1.0
  Ge  Ge23  1  0.50000000  0.50000000  0.04048000  1.0
  Pb  Pb24  1  0.28323000  0.73364000  0.85581000  1.0
  Pb  Pb25  1  0.25000000  0.75000000  0.04048000  1.0
  Pb  Pb26  1  0.71650000  0.73382000  0.85579000  1.0
  Pb  Pb27  1  0.75000000  0.75000000  0.04048000  1.0
  Pb  Pb28  1  0.28323000  0.26636000  0.85581000  1.0
  Pb  Pb29  1  0.25000000  0.25000000  0.04048000  1.0
  Pb  Pb30  1  0.71650000  0.26618000  0.85579000  1.0
  Pb  Pb31  1  0.75000000  0.25000000  0.04048000  1.0
  C  C32  1  0.00003000  0.00000000  0.81977000  1.0
  O  O33  1  0.99999000  0.00000000  0.77572000  1.0
