# generated using pymatgen
data_Li8Y8Ge8Pb8CO
_symmetry_space_group_name_H-M   Pm
_cell_length_a   9.86128000
_cell_length_b   8.65500000
_cell_length_c   26.41550000
_cell_angle_alpha   90.00000000
_cell_angle_beta   90.00000000
_cell_angle_gamma   90.00000000
_symmetry_Int_Tables_number   6
_chemical_formula_structural   Li8Y8Ge8Pb8CO
_chemical_formula_sum   'Li8 Y8 Ge8 Pb8 C1 O1'
_cell_volume   2254.54650513
_cell_formula_units_Z   1
loop_
 _symmetry_equiv_pos_site_id
 _symmetry_equiv_pos_as_xyz
  1  'x, y, z'
  2  'x, -y, z'
loop_
 _atom_site_type_symbol
 _atom_site_label
 _atom_site_symmetry_multiplicity
 _atom_site_fract_x
 _atom_site_fract_y
 _atom_site_fract_z
 _atom_site_occupancy
  Li  Li0  1  0.25000000  0.00000000  0.87856000  1.0
  Li  Li1  1  0.25000000  0.50000000  0.87856000  1.0
  Li  Li2  1  0.25324000  0.00000000  0.05918000  1.0
  Li  Li3  1  0.25423000  0.50000000  0.05255000  1.0
  Li  Li4  1  0.74580000  0.50000000  0.05257000  1.0
  Li  Li5  1  0.74681000  0.00000000  0.05915000  1.0
  Li  Li6  1  0.75000000  0.00000000  0.87856000  1.0
  Li  Li7  1  0.75000000  0.50000000  0.87856000  1.0
  Y  Y8  2  0.00000000  0.25000000  0.87856000  1.0
  Y  Y9  2  0.00001000  0.25756000  0.03941000  1.0
  Y  Y10  2  0.49999000  0.24510000  0.03665000  1.0
  Y  Y11  2  0.50000000  0.25000000  0.87856000  1.0
  Ge  Ge12  1  0.00000000  0.00000000  0.95952000  1.0
  Ge  Ge13  1  0.00000000  0.50000000  0.95952000  1.0
  Ge  Ge14  1  0.00004000  0.00000000  0.10863000  1.0
  Ge  Ge15  1  0.00013000  0.50000000  0.11510000  1.0
  Ge  Ge16  1  0.50000000  0.00000000  0.95952000  1.0
  Ge  Ge17  1  0.50000000  0.50000000  0.11073000  1.0
  Ge  Ge18  1  0.50000000  0.50000000  0.95952000  1.0
  Ge  Ge19  1  0.50023000  0.00000000  0.11464000  1.0
  Pb  Pb20  2  0.25000000  0.25000000  0.95952000  1.0
  Pb  Pb21  2  0.28323000  0.26636000  0.14419000  1.0
  Pb  Pb22  2  0.71650000  0.26618000  0.14421000  1.0
  Pb  Pb23  2  0.75000000  0.25000000  0.95952000  1.0
  C  C24  1  0.00003000  0.00000000  0.18023000  1.0
  O  O25  1  0.99999000  0.00000000  0.22428000  1.0
