# generated using pymatgen
data_Li16Ag8Pb8CO
_symmetry_space_group_name_H-M   P1
_cell_length_a   6.84524000
_cell_length_b   9.68063000
_cell_length_c   27.26050000
_cell_angle_alpha   90.00000000
_cell_angle_beta   90.00000000
_cell_angle_gamma   90.00000000
_symmetry_Int_Tables_number   1
_chemical_formula_structural   Li16Ag8Pb8CO
_chemical_formula_sum   'Li16 Ag8 Pb8 C1 O1'
_cell_volume   1806.45071833
_cell_formula_units_Z   1
loop_
 _symmetry_equiv_pos_site_id
 _symmetry_equiv_pos_as_xyz
  1  'x, y, z'
loop_
 _atom_site_type_symbol
 _atom_site_label
 _atom_site_symmetry_multiplicity
 _atom_site_fract_x
 _atom_site_fract_y
 _atom_site_fract_z
 _atom_site_occupancy
  Li  Li0  1  0.00000000  0.25000000  0.95561000  1.0
  Li  Li1  1  0.00000000  0.75000000  0.95561000  1.0
  Li  Li2  1  0.01114000  0.24841000  0.12809000  1.0
  Li  Li3  1  0.01115000  0.75164000  0.12811000  1.0
  Li  Li4  1  0.25000000  0.25000000  0.86683000  1.0
  Li  Li5  1  0.25000000  0.75000000  0.86683000  1.0
  Li  Li6  1  0.26833000  0.75079000  0.04940000  1.0
  Li  Li7  1  0.26839000  0.24923000  0.04942000  1.0
  Li  Li8  1  0.50000000  0.00000000  0.86683000  1.0
  Li  Li9  1  0.50000000  0.50000000  0.86683000  1.0
  Li  Li10  1  0.50101000  0.50002000  0.03864000  1.0
  Li  Li11  1  0.50657000  0.99985000  0.03828000  1.0
  Li  Li12  1  0.71333000  0.49998000  0.12764000  1.0
  Li  Li13  1  0.72164000  0.00006000  0.12767000  1.0
  Li  Li14  1  0.75000000  0.00000000  0.95561000  1.0
  Li  Li15  1  0.75000000  0.50000000  0.95561000  1.0
  Ag  Ag16  1  0.25000000  0.00000000  0.95561000  1.0
  Ag  Ag17  1  0.25000000  0.50000000  0.95561000  1.0
  Ag  Ag18  1  0.27251000  0.49997000  0.12209000  1.0
  Ag  Ag19  1  0.28478000  0.00011000  0.11930000  1.0
  Ag  Ag20  1  0.71897000  0.24906000  0.05403000  1.0
  Ag  Ag21  1  0.71916000  0.75098000  0.05397000  1.0
  Ag  Ag22  1  0.75000000  0.25000000  0.86683000  1.0
  Ag  Ag23  1  0.75000000  0.75000000  0.86683000  1.0
  Pb  Pb24  1  0.00000000  0.00000000  0.86683000  1.0
  Pb  Pb25  1  0.00000000  0.50000000  0.86683000  1.0
  Pb  Pb26  1  0.49374000  0.25052000  0.14984000  1.0
  Pb  Pb27  1  0.49376000  0.74956000  0.14973000  1.0
  Pb  Pb28  1  0.50000000  0.25000000  0.95561000  1.0
  Pb  Pb29  1  0.50000000  0.75000000  0.95561000  1.0
  Pb  Pb30  1  0.98722000  0.50001000  0.04321000  1.0
  Pb  Pb31  1  0.98859000  0.00009000  0.04235000  1.0
  C  C32  1  0.84242000  0.99998000  0.19698000  1.0
  O  O33  1  0.89203000  0.99993000  0.23723000  1.0
