data_image0
_chemical_formula_structural       Al4Ni12C
_chemical_formula_sum              "Al4 Ni12 C1"
_cell_length_a       7.20976
_cell_length_b       5.09807
_cell_length_c       23.8236
_cell_angle_alpha    90
_cell_angle_beta     90
_cell_angle_gamma    90

_space_group_name_H-M_alt    "P 1"
_space_group_IT_number       1

loop_
  _space_group_symop_operation_xyz
  'x, y, z'

loop_
  _atom_site_type_symbol
  _atom_site_label
  _atom_site_symmetry_multiplicity
  _atom_site_fract_x
  _atom_site_fract_y
  _atom_site_fract_z
  _atom_site_occupancy
  Al  Al1       1.0  0.97900  0.99957  0.07498  1.0000
  Al  Al2       1.0  0.00000  0.50000  0.97325  1.0000
  Al  Al3       1.0  0.52098  0.99973  0.07495  1.0000
  Al  Al4       1.0  0.50000  0.50000  0.97325  1.0000
  Ni  Ni1       1.0  0.99874  0.49943  0.08081  1.0000
  Ni  Ni2       1.0  0.24996  0.75766  0.03004  1.0000
  Ni  Ni3       1.0  0.24998  0.24349  0.02973  1.0000
  Ni  Ni4       1.0  0.00000  0.00000  0.97325  1.0000
  Ni  Ni5       1.0  0.25000  0.25000  0.91975  1.0000
  Ni  Ni6       1.0  0.25000  0.75000  0.91975  1.0000
  Ni  Ni7       1.0  0.50124  0.49963  0.08077  1.0000
  Ni  Ni8       1.0  0.75004  0.74505  0.02624  1.0000
  Ni  Ni9       1.0  0.75003  0.25273  0.02617  1.0000
  Ni  Ni10      1.0  0.50000  0.00000  0.97325  1.0000
  Ni  Ni11      1.0  0.75000  0.25000  0.91975  1.0000
  Ni  Ni12      1.0  0.75000  0.75000  0.91975  1.0000
  C   C1        1.0  0.24999  0.49976  0.08528  1.0000
