data_image0
_chemical_formula_structural       Li16Ag8Bi8CO
_chemical_formula_sum              "Li16 Ag8 Bi8 C1 O1"
_cell_length_a       6.92564
_cell_length_b       9.79433
_cell_length_c       27.3458
_cell_angle_alpha    90
_cell_angle_beta     90
_cell_angle_gamma    90

_space_group_name_H-M_alt    "P 1"
_space_group_IT_number       1

loop_
  _space_group_symop_operation_xyz
  'x, y, z'

loop_
  _atom_site_type_symbol
  _atom_site_label
  _atom_site_symmetry_multiplicity
  _atom_site_fract_x
  _atom_site_fract_y
  _atom_site_fract_z
  _atom_site_occupancy
  Li  Li1       1.0  0.00000  0.75000  0.95523  1.0000
  Li  Li2       1.0  0.50000  0.00000  0.86569  1.0000
  Li  Li3       1.0  0.00000  0.25000  0.95523  1.0000
  Li  Li4       1.0  0.50000  0.50000  0.86569  1.0000
  Li  Li5       1.0  0.25000  0.00000  0.95523  1.0000
  Li  Li6       1.0  0.25000  0.50000  0.95523  1.0000
  Li  Li7       1.0  0.75000  0.75000  0.86569  1.0000
  Li  Li8       1.0  0.75000  0.25000  0.86569  1.0000
  Li  Li9       1.0  0.96986  0.25000  0.12579  1.0000
  Li  Li10      1.0  0.48994  0.48820  0.03857  1.0000
  Li  Li11      1.0  0.96576  0.75000  0.12610  1.0000
  Li  Li12      1.0  0.48994  0.01180  0.03857  1.0000
  Li  Li13      1.0  0.29338  0.50513  0.12844  1.0000
  Li  Li14      1.0  0.29337  0.99487  0.12844  1.0000
  Li  Li15      1.0  0.74513  0.25000  0.04474  1.0000
  Li  Li16      1.0  0.71517  0.75000  0.04876  1.0000
  Ag  Ag1       1.0  0.25000  0.25000  0.86569  1.0000
  Ag  Ag2       1.0  0.25000  0.75000  0.86569  1.0000
  Ag  Ag3       1.0  0.75000  0.50000  0.95523  1.0000
  Ag  Ag4       1.0  0.75000  0.00000  0.95523  1.0000
  Ag  Ag5       1.0  0.29337  0.75000  0.05765  1.0000
  Ag  Ag6       1.0  0.24935  0.25000  0.04863  1.0000
  Ag  Ag7       1.0  0.71630  0.99754  0.12068  1.0000
  Ag  Ag8       1.0  0.71630  0.50246  0.12068  1.0000
  Bi  Bi1       1.0  0.00000  0.00000  0.86569  1.0000
  Bi  Bi2       1.0  0.50000  0.25000  0.95523  1.0000
  Bi  Bi3       1.0  0.50000  0.75000  0.95523  1.0000
  Bi  Bi4       1.0  0.00000  0.50000  0.86569  1.0000
  Bi  Bi5       1.0  0.01357  0.50911  0.04606  1.0000
  Bi  Bi6       1.0  0.51544  0.75000  0.15130  1.0000
  Bi  Bi7       1.0  0.50068  0.25000  0.13855  1.0000
  Bi  Bi8       1.0  0.01356  0.99088  0.04606  1.0000
  C   C1        1.0  0.60900  0.25001  0.27754  1.0000
  O   O1        1.0  0.46505  0.25000  0.29747  1.0000
