# generated using pymatgen
data_Li16Ag8Bi8CO
_symmetry_space_group_name_H-M   Pm
_cell_length_a   6.92564000
_cell_length_b   9.79433000
_cell_length_c   27.34580000
_cell_angle_alpha   90.00000000
_cell_angle_beta   90.00000000
_cell_angle_gamma   90.00000000
_symmetry_Int_Tables_number   6
_chemical_formula_structural   Li16Ag8Bi8CO
_chemical_formula_sum   'Li16 Ag8 Bi8 C1 O1'
_cell_volume   1854.92040462
_cell_formula_units_Z   1
loop_
 _symmetry_equiv_pos_site_id
 _symmetry_equiv_pos_as_xyz
  1  'x, y, z'
  2  'x, -y, z'
loop_
 _atom_site_type_symbol
 _atom_site_label
 _atom_site_symmetry_multiplicity
 _atom_site_fract_x
 _atom_site_fract_y
 _atom_site_fract_z
 _atom_site_occupancy
  Li  Li0  2  0.25000000  0.25001000  0.95523000  1.0
  Li  Li1  2  0.29338000  0.25513000  0.12845000  1.0
  Li  Li2  2  0.48994000  0.23817000  0.03857000  1.0
  Li  Li3  2  0.50000000  0.25001000  0.86569000  1.0
  Li  Li4  1  -0.00000000  0.50000000  0.95523000  1.0
  Li  Li5  1  -0.00000000  0.00000000  0.95523000  1.0
  Li  Li6  1  0.71525000  0.50000000  0.04875000  1.0
  Li  Li7  1  0.74512000  0.00000000  0.04474000  1.0
  Li  Li8  1  0.75000000  0.00000000  0.86569000  1.0
  Li  Li9  1  0.75000000  0.50000000  0.86569000  1.0
  Li  Li10  1  0.96577000  0.50000000  0.12611000  1.0
  Li  Li11  1  0.96985000  0.00000000  0.12578000  1.0
  Ag  Ag12  2  0.71632000  0.25246000  0.12070000  1.0
  Ag  Ag13  2  0.75000000  0.24999000  0.95523000  1.0
  Ag  Ag14  1  0.24943000  0.00000000  0.04863000  1.0
  Ag  Ag15  1  0.25000000  0.00000000  0.86569000  1.0
  Ag  Ag16  1  0.25000000  0.50000000  0.86569000  1.0
  Ag  Ag17  1  0.29335000  0.50000000  0.05763000  1.0
  Bi  Bi18  2  0.00000000  0.25001000  0.86569000  1.0
  Bi  Bi19  2  0.01363000  0.25909000  0.04605000  1.0
  Bi  Bi20  1  0.50000000  0.00000000  0.95523000  1.0
  Bi  Bi21  1  0.50000000  0.50000000  0.95523000  1.0
  Bi  Bi22  1  0.50067000  0.00000000  0.13857000  1.0
  Bi  Bi23  1  0.51541000  0.50000000  0.15130000  1.0
  C  C24  1  0.60904000  0.00000000  0.27755000  1.0
  O  O25  1  0.46504000  0.00000000  0.29746000  1.0
