# generated using pymatgen
data_Y4Mg4In4Pd4C
_symmetry_space_group_name_H-M   'P 1'
_cell_length_a   6.99626000
_cell_length_b   6.99626000
_cell_length_c   25.24720000
_cell_angle_alpha   90.00000000
_cell_angle_beta   90.00000000
_cell_angle_gamma   90.00000000
_symmetry_Int_Tables_number   1
_chemical_formula_structural   Y4Mg4In4Pd4C
_chemical_formula_sum   'Y4 Mg4 In4 Pd4 C1'
_cell_volume   1235.79120976
_cell_formula_units_Z   1
loop_
 _symmetry_equiv_pos_site_id
 _symmetry_equiv_pos_as_xyz
  1  'x, y, z'
loop_
 _atom_site_type_symbol
 _atom_site_label
 _atom_site_symmetry_multiplicity
 _atom_site_fract_x
 _atom_site_fract_y
 _atom_site_fract_z
 _atom_site_occupancy
  Y  Y0  1  0.50000000  0.50000000  0.03033000  1
  Y  Y1  1  0.00000000  0.50000000  0.89608000  1
  Y  Y2  1  0.50000000  0.00000000  0.89608000  1
  Y  Y3  1  1.00000000  0.00000000  0.05022000  1
  Mg  Mg4  1  0.50000000  0.00000000  0.03677000  1
  Mg  Mg5  1  1.00000000  0.00000000  0.89608000  1
  Mg  Mg6  1  0.50000000  0.50000000  0.89608000  1
  Mg  Mg7  1  0.00000000  0.50000000  0.03677000  1
  In  In8  1  0.72631000  0.72631000  0.12968000  1
  In  In9  1  0.25000000  0.75000000  0.96536000  1
  In  In10  1  0.75000000  0.25000000  0.96536000  1
  In  In11  1  0.27369000  0.27369000  0.12968000  1
  Pd  Pd12  1  0.27230500  0.72769500  0.09065000  1
  Pd  Pd13  1  0.75000000  0.75000000  0.96536000  1
  Pd  Pd14  1  0.25000000  0.25000000  0.96536000  1
  Pd  Pd15  1  0.72769500  0.27230500  0.09065000  1
  C  C16  1  0.50000000  0.50000000  0.12317000  1
