data_image0
_chemical_formula_structural       Y16Al16CO
_chemical_formula_sum              "Y16 Al16 C1 O1"
_cell_length_a       7.18582
_cell_length_b       10.1623
_cell_length_c       27.6217
_cell_angle_alpha    90
_cell_angle_beta     90
_cell_angle_gamma    90

_space_group_name_H-M_alt    "P 1"
_space_group_IT_number       1

loop_
  _space_group_symop_operation_xyz
  'x, y, z'

loop_
  _atom_site_type_symbol
  _atom_site_label
  _atom_site_symmetry_multiplicity
  _atom_site_fract_x
  _atom_site_fract_y
  _atom_site_fract_z
  _atom_site_occupancy
  Y   Y1        1.0  0.25000  0.25000  0.86203  1.0000
  Y   Y2        1.0  0.25000  0.00000  0.95401  1.0000
  Y   Y3        1.0  0.24514  0.24998  0.04617  1.0000
  Y   Y4        1.0  0.25028  0.99884  0.14245  1.0000
  Y   Y5        1.0  0.25000  0.75000  0.86203  1.0000
  Y   Y6        1.0  0.25000  0.50000  0.95401  1.0000
  Y   Y7        1.0  0.25430  0.74996  0.04405  1.0000
  Y   Y8        1.0  0.25019  0.50104  0.14251  1.0000
  Y   Y9        1.0  0.75000  0.25000  0.86203  1.0000
  Y   Y10       1.0  0.75000  0.00000  0.95401  1.0000
  Y   Y11       1.0  0.75486  0.24998  0.04617  1.0000
  Y   Y12       1.0  0.74972  0.99884  0.14245  1.0000
  Y   Y13       1.0  0.75000  0.75000  0.86203  1.0000
  Y   Y14       1.0  0.75000  0.50000  0.95401  1.0000
  Y   Y15       1.0  0.74570  0.74996  0.04406  1.0000
  Y   Y16       1.0  0.74981  0.50104  0.14251  1.0000
  Al  Al1       1.0  0.00000  0.00000  0.86203  1.0000
  Al  Al2       1.0  0.00000  0.25000  0.95401  1.0000
  Al  Al3       1.0  1.00000  0.50279  0.04949  1.0000
  Al  Al4       1.0  0.00000  0.24941  0.13517  1.0000
  Al  Al5       1.0  0.00000  0.50000  0.86203  1.0000
  Al  Al6       1.0  0.00000  0.75000  0.95401  1.0000
  Al  Al7       1.0  0.00000  0.99725  0.04948  1.0000
  Al  Al8       1.0  1.00000  0.74985  0.13419  1.0000
  Al  Al9       1.0  0.50000  0.00000  0.86203  1.0000
  Al  Al10      1.0  0.50000  0.25000  0.95401  1.0000
  Al  Al11      1.0  0.50000  0.49677  0.04961  1.0000
  Al  Al12      1.0  0.50000  0.24995  0.13912  1.0000
  Al  Al13      1.0  0.50000  0.50000  0.86203  1.0000
  Al  Al14      1.0  0.50000  0.75000  0.95401  1.0000
  Al  Al15      1.0  0.50000  0.00307  0.04958  1.0000
  Al  Al16      1.0  0.50000  0.74985  0.13775  1.0000
  C   C1        1.0  1.00000  0.25163  0.20502  1.0000
  O   O1        1.0  1.00000  0.25137  0.24772  1.0000
