# generated using pymatgen
data_Y16Al16CO
_symmetry_space_group_name_H-M   'P 1'
_cell_length_a   10.16230000
_cell_length_b   7.18582000
_cell_length_c   27.62170000
_cell_angle_alpha   90.00000000
_cell_angle_beta   90.00000000
_cell_angle_gamma   90.00000000
_symmetry_Int_Tables_number   1
_chemical_formula_structural   Y16Al16CO
_chemical_formula_sum   'Y16 Al16 C1 O1'
_cell_volume   2017.05968772
_cell_formula_units_Z   1
loop_
 _symmetry_equiv_pos_site_id
 _symmetry_equiv_pos_as_xyz
  1  'x, y, z'
loop_
 _atom_site_type_symbol
 _atom_site_label
 _atom_site_symmetry_multiplicity
 _atom_site_fract_x
 _atom_site_fract_y
 _atom_site_fract_z
 _atom_site_occupancy
  Y  Y0  1  0.25000000  0.75000000  0.13797000  1.0
  Y  Y1  1  0.00000000  0.75000000  0.04599000  1.0
  Y  Y2  1  0.24998000  0.75486000  0.95383000  1.0
  Y  Y3  1  0.99884000  0.74972000  0.85755000  1.0
  Y  Y4  1  0.75000000  0.75000000  0.13797000  1.0
  Y  Y5  1  0.50000000  0.75000000  0.04599000  1.0
  Y  Y6  1  0.74996000  0.74570000  0.95595000  1.0
  Y  Y7  1  0.50104000  0.74981000  0.85749000  1.0
  Y  Y8  1  0.25000000  0.25000000  0.13797000  1.0
  Y  Y9  1  0.00000000  0.25000000  0.04599000  1.0
  Y  Y10  1  0.24998000  0.24514000  0.95383000  1.0
  Y  Y11  1  0.99884000  0.25028000  0.85755000  1.0
  Y  Y12  1  0.75000000  0.25000000  0.13797000  1.0
  Y  Y13  1  0.50000000  0.25000000  0.04599000  1.0
  Y  Y14  1  0.74996000  0.25430000  0.95595000  1.0
  Y  Y15  1  0.50104000  0.25019000  0.85749000  1.0
  Al  Al16  1  0.00000000  0.00000000  0.13797000  1.0
  Al  Al17  1  0.25000000  0.00000000  0.04599000  1.0
  Al  Al18  1  0.50279000  0.00000000  0.95051000  1.0
  Al  Al19  1  0.24941000  0.00000000  0.86483000  1.0
  Al  Al20  1  0.50000000  0.00000000  0.13797000  1.0
  Al  Al21  1  0.75000000  0.00000000  0.04599000  1.0
  Al  Al22  1  0.99725000  0.00000000  0.95052000  1.0
  Al  Al23  1  0.74985000  0.00000000  0.86581000  1.0
  Al  Al24  1  0.00000000  0.50000000  0.13797000  1.0
  Al  Al25  1  0.25000000  0.50000000  0.04599000  1.0
  Al  Al26  1  0.49677000  0.50000000  0.95039000  1.0
  Al  Al27  1  0.24995000  0.50000000  0.86088000  1.0
  Al  Al28  1  0.50000000  0.50000000  0.13797000  1.0
  Al  Al29  1  0.75000000  0.50000000  0.04599000  1.0
  Al  Al30  1  0.00307000  0.50000000  0.95042000  1.0
  Al  Al31  1  0.74985000  0.50000000  0.86225000  1.0
  C  C32  1  0.25163000  0.00000000  0.79498000  1.0
  O  O33  1  0.25137000  0.00000000  0.75228000  1.0
