data_image0
_chemical_formula_structural       Y8Mn8In8Pd8CO
_chemical_formula_sum              "Y8 Mn8 In8 Pd8 C1 O1"
_cell_length_a       6.85874
_cell_length_b       9.69972
_cell_length_c       27.2748
_cell_angle_alpha    90
_cell_angle_beta     90
_cell_angle_gamma    90

_space_group_name_H-M_alt    "P 1"
_space_group_IT_number       1

loop_
  _space_group_symop_operation_xyz
  'x, y, z'

loop_
  _atom_site_type_symbol
  _atom_site_label
  _atom_site_symmetry_multiplicity
  _atom_site_fract_x
  _atom_site_fract_y
  _atom_site_fract_z
  _atom_site_occupancy
  Y   Y1        1.0  0.00000  0.25000  0.95555  1.0000
  Y   Y2        1.0  0.00000  0.75000  0.95555  1.0000
  Y   Y3        1.0  0.50000  0.50000  0.86664  1.0000
  Y   Y4        1.0  0.50000  0.00000  0.86664  1.0000
  Y   Y5        1.0  0.94696  0.70927  0.13731  1.0000
  Y   Y6        1.0  0.94696  0.29074  0.13731  1.0000
  Y   Y7        1.0  0.48610  0.00000  0.04559  1.0000
  Y   Y8        1.0  0.51931  0.49999  0.04826  1.0000
  Mn  Mn1       1.0  0.75000  0.00000  0.95555  1.0000
  Mn  Mn2       1.0  0.75000  0.50000  0.95555  1.0000
  Mn  Mn3       1.0  0.25000  0.25000  0.86664  1.0000
  Mn  Mn4       1.0  0.25000  0.75000  0.86664  1.0000
  Mn  Mn5       1.0  0.59464  0.50001  0.16832  1.0000
  Mn  Mn6       1.0  0.76068  0.00001  0.13419  1.0000
  Mn  Mn7       1.0  0.22670  0.74522  0.05313  1.0000
  Mn  Mn8       1.0  0.22669  0.25477  0.05314  1.0000
  In  In1       1.0  0.00000  0.00000  0.86664  1.0000
  In  In2       1.0  0.00000  0.50000  0.86664  1.0000
  In  In3       1.0  0.50000  0.75000  0.95555  1.0000
  In  In4       1.0  0.50000  0.25000  0.95555  1.0000
  In  In5       1.0  0.99251  0.50000  0.04083  1.0000
  In  In6       1.0  0.99662  0.99999  0.04332  1.0000
  In  In7       1.0  0.48001  0.23028  0.13555  1.0000
  In  In8       1.0  0.48001  0.76973  0.13555  1.0000
  Pd  Pd1       1.0  0.25000  0.00000  0.95555  1.0000
  Pd  Pd2       1.0  0.25000  0.50000  0.95555  1.0000
  Pd  Pd3       1.0  0.75000  0.25000  0.86664  1.0000
  Pd  Pd4       1.0  0.75000  0.75000  0.86664  1.0000
  Pd  Pd5       1.0  0.24827  0.50001  0.12351  1.0000
  Pd  Pd6       1.0  0.17851  0.00001  0.13606  1.0000
  Pd  Pd7       1.0  0.75292  0.75705  0.04325  1.0000
  Pd  Pd8       1.0  0.75293  0.24295  0.04325  1.0000
  C   C1        1.0  0.16499  0.99999  0.20714  1.0000
  O   O1        1.0  0.17165  0.99999  0.24961  1.0000
