# generated using pymatgen
data_Y8Mn8In8Pd8CO
_symmetry_space_group_name_H-M   P1
_cell_length_a   6.85874000
_cell_length_b   9.69972000
_cell_length_c   27.27480000
_cell_angle_alpha   90.00000000
_cell_angle_beta   90.00000000
_cell_angle_gamma   90.00000000
_symmetry_Int_Tables_number   1
_chemical_formula_structural   Y8Mn8In8Pd8CO
_chemical_formula_sum   'Y8 Mn8 In8 Pd8 C1 O1'
_cell_volume   1814.53400918
_cell_formula_units_Z   1
loop_
 _symmetry_equiv_pos_site_id
 _symmetry_equiv_pos_as_xyz
  1  'x, y, z'
loop_
 _atom_site_type_symbol
 _atom_site_label
 _atom_site_symmetry_multiplicity
 _atom_site_fract_x
 _atom_site_fract_y
 _atom_site_fract_z
 _atom_site_occupancy
  Y  Y0  1  0.00000000  0.25000000  0.95555000  1.0
  Y  Y1  1  0.00000000  0.75000000  0.95555000  1.0
  Y  Y2  1  0.48605000  0.99993000  0.04533000  1.0
  Y  Y3  1  0.50000000  0.00000000  0.86664000  1.0
  Y  Y4  1  0.50000000  0.50000000  0.86664000  1.0
  Y  Y5  1  0.51886000  0.49995000  0.04824000  1.0
  Y  Y6  1  0.94600000  0.29223000  0.13775000  1.0
  Y  Y7  1  0.94610000  0.70795000  0.13771000  1.0
  Mn  Mn8  1  0.22467000  0.25337000  0.05375000  1.0
  Mn  Mn9  1  0.22471000  0.74661000  0.05370000  1.0
  Mn  Mn10  1  0.25000000  0.25000000  0.86664000  1.0
  Mn  Mn11  1  0.25000000  0.75000000  0.86664000  1.0
  Mn  Mn12  1  0.59279000  0.50003000  0.16894000  1.0
  Mn  Mn13  1  0.75000000  0.00000000  0.95555000  1.0
  Mn  Mn14  1  0.75000000  0.50000000  0.95555000  1.0
  Mn  Mn15  1  0.76120000  0.00008000  0.13356000  1.0
  In  In16  1  0.00000000  0.00000000  0.86664000  1.0
  In  In17  1  0.00000000  0.50000000  0.86664000  1.0
  In  In18  1  0.48080000  0.23031000  0.13551000  1.0
  In  In19  1  0.48085000  0.76975000  0.13553000  1.0
  In  In20  1  0.50000000  0.25000000  0.95555000  1.0
  In  In21  1  0.50000000  0.75000000  0.95555000  1.0
  In  In22  1  0.99203000  0.50002000  0.04067000  1.0
  In  In23  1  0.99500000  0.99997000  0.04289000  1.0
  Pd  Pd24  1  0.17888000  0.00003000  0.13525000  1.0
  Pd  Pd25  1  0.24821000  0.50000000  0.12377000  1.0
  Pd  Pd26  1  0.25000000  0.00000000  0.95555000  1.0
  Pd  Pd27  1  0.25000000  0.50000000  0.95555000  1.0
  Pd  Pd28  1  0.75000000  0.25000000  0.86664000  1.0
  Pd  Pd29  1  0.75000000  0.75000000  0.86664000  1.0
  Pd  Pd30  1  0.75338000  0.75642000  0.04355000  1.0
  Pd  Pd31  1  0.75363000  0.24356000  0.04356000  1.0
  C  C32  1  0.15013000  0.99997000  0.20597000  1.0
  O  O33  1  0.14484000  0.99997000  0.24847000  1.0
