# generated using pymatgen
data_NbAlNi2
_symmetry_space_group_name_H-M   Pmm2
_cell_length_a   4.25527000
_cell_length_b   6.01786000
_cell_length_c   26.38290000
_cell_angle_alpha   90.00000000
_cell_angle_beta   90.00000000
_cell_angle_gamma   90.00000000
_symmetry_Int_Tables_number   25
_chemical_formula_structural   NbAlNi2
_chemical_formula_sum   'Nb4 Al4 Ni8'
_cell_volume   675.60325454
_cell_formula_units_Z   4
loop_
 _symmetry_equiv_pos_site_id
 _symmetry_equiv_pos_as_xyz
  1  'x, y, z'
  2  '-x, -y, z'
  3  '-x, y, z'
  4  'x, -y, z'
loop_
 _atom_site_type_symbol
 _atom_site_label
 _atom_site_symmetry_multiplicity
 _atom_site_fract_x
 _atom_site_fract_y
 _atom_site_fract_z
 _atom_site_occupancy
  Nb  Nb0  1  0.00000000  0.00000000  0.12097000  1.0
  Nb  Nb1  1  0.00000000  0.00000000  0.96037000  1.0
  Nb  Nb2  1  0.50000000  0.50000000  0.04032000  1.0
  Nb  Nb3  1  0.50000000  0.50000000  0.87781000  1.0
  Al  Al4  1  0.00000000  0.50000000  0.12097000  1.0
  Al  Al5  1  0.00000000  0.50000000  0.95999500  1.0
  Al  Al6  1  0.50000000  0.00000000  0.04032000  1.0
  Al  Al7  1  0.50000000  0.00000000  0.87963000  1.0
  Ni  Ni8  2  0.00000000  0.25000000  0.04032000  1.0
  Ni  Ni9  2  0.00000000  0.25211500  0.88391500  1.0
  Ni  Ni10  2  0.50000000  0.25000000  0.12097000  1.0
  Ni  Ni11  2  0.50000000  0.25879000  0.95669000  1.0
