# generated using pymatgen
data_Sc4Ga4Ge4Pd4C
_symmetry_space_group_name_H-M   'P 1'
_cell_length_a   5.63062000
_cell_length_b   8.58414000
_cell_length_c   24.22090000
_cell_angle_alpha   90.00000000
_cell_angle_beta   90.00000000
_cell_angle_gamma   90.00000000
_symmetry_Int_Tables_number   1
_chemical_formula_structural   Sc4Ga4Ge4Pd4C
_chemical_formula_sum   'Sc4 Ga4 Ge4 Pd4 C1'
_cell_volume   1170.69371611
_cell_formula_units_Z   1
loop_
 _symmetry_equiv_pos_site_id
 _symmetry_equiv_pos_as_xyz
  1  'x, y, z'
loop_
 _atom_site_type_symbol
 _atom_site_label
 _atom_site_symmetry_multiplicity
 _atom_site_fract_x
 _atom_site_fract_y
 _atom_site_fract_z
 _atom_site_occupancy
  Sc  Sc0  1  0.71007000  0.24988000  0.03648000  1.0
  Sc  Sc1  1  0.22651000  0.25000000  0.91287000  1.0
  Sc  Sc2  1  0.76461000  0.75011000  0.03889000  1.0
  Sc  Sc3  1  0.22651000  0.75000000  0.91287000  1.0
  Ga  Ga4  1  0.94230000  0.01319000  0.11359000  1.0
  Ga  Ga5  1  0.48434000  0.00000000  0.97096000  1.0
  Ga  Ga6  1  0.94215000  0.48707000  0.11343000  1.0
  Ga  Ga7  1  0.48434000  0.50000000  0.97096000  1.0
  Ge  Ge8  1  0.22086000  0.24993000  0.04466000  1.0
  Ge  Ge9  1  0.72651000  0.25000000  0.91287000  1.0
  Ge  Ge10  1  0.24246000  0.74960000  0.03801000  1.0
  Ge  Ge11  1  0.72651000  0.75000000  0.91287000  1.0
  Pd  Pd12  1  0.48001000  0.98905000  0.08172000  1.0
  Pd  Pd13  1  0.98434000  0.00000000  0.97096000  1.0
  Pd  Pd14  1  0.48083000  0.51085000  0.08177000  1.0
  Pd  Pd15  1  0.98434000  0.50000000  0.97096000  1.0
  C  C16  1  0.96640000  0.25011000  0.10052000  1.0
