data_image0
_chemical_formula_structural       Ta4Rh12C
_chemical_formula_sum              "Ta4 Rh12 C1"
_cell_length_a       7.79956
_cell_length_b       5.51512
_cell_length_c       24.1363
_cell_angle_alpha    90
_cell_angle_beta     90
_cell_angle_gamma    90

_space_group_name_H-M_alt    "P 1"
_space_group_IT_number       1

loop_
  _space_group_symop_operation_xyz
  'x, y, z'

loop_
  _atom_site_type_symbol
  _atom_site_label
  _atom_site_symmetry_multiplicity
  _atom_site_fract_x
  _atom_site_fract_y
  _atom_site_fract_z
  _atom_site_occupancy
  Ta  Ta1       1.0  0.00000  0.00000  0.91431  1.0000
  Ta  Ta2       1.0  0.99998  0.50000  0.01795  1.0000
  Ta  Ta3       1.0  0.50000  0.00000  0.91431  1.0000
  Ta  Ta4       1.0  0.50001  0.50000  0.03449  1.0000
  Rh  Rh1       1.0  0.00000  0.50000  0.91431  1.0000
  Rh  Rh2       1.0  0.25000  0.75000  0.97144  1.0000
  Rh  Rh3       1.0  0.25000  0.25000  0.97144  1.0000
  Rh  Rh4       1.0  0.99999  0.00000  0.01837  1.0000
  Rh  Rh5       1.0  0.20453  0.25497  0.08613  1.0000
  Rh  Rh6       1.0  0.20453  0.74503  0.08613  1.0000
  Rh  Rh7       1.0  0.50000  0.50000  0.91431  1.0000
  Rh  Rh8       1.0  0.75000  0.75000  0.97144  1.0000
  Rh  Rh9       1.0  0.75000  0.25000  0.97144  1.0000
  Rh  Rh10      1.0  0.50000  0.00000  0.02622  1.0000
  Rh  Rh11      1.0  0.79545  0.25498  0.08612  1.0000
  Rh  Rh12      1.0  0.79545  0.74502  0.08612  1.0000
  C   C1        1.0  0.00010  0.50000  0.10912  1.0000
