# generated using pymatgen
data_Cu24Sb8CO
_symmetry_space_group_name_H-M   'P 1'
_cell_length_a   8.92302000
_cell_length_b   6.30953000
_cell_length_c   26.69230000
_cell_angle_alpha   90.00000000
_cell_angle_beta   90.00000000
_cell_angle_gamma   90.00000000
_symmetry_Int_Tables_number   1
_chemical_formula_structural   Cu24Sb8CO
_chemical_formula_sum   'Cu24 Sb8 C1 O1'
_cell_volume   1502.77815508
_cell_formula_units_Z   1
loop_
 _symmetry_equiv_pos_site_id
 _symmetry_equiv_pos_as_xyz
  1  'x, y, z'
loop_
 _atom_site_type_symbol
 _atom_site_label
 _atom_site_symmetry_multiplicity
 _atom_site_fract_x
 _atom_site_fract_y
 _atom_site_fract_z
 _atom_site_occupancy
  Cu  Cu0  1  0.74999000  0.25000000  0.04179000  1.0
  Cu  Cu1  1  0.24999000  0.75000000  0.04179000  1.0
  Cu  Cu2  1  0.75001000  0.75000000  0.04179000  1.0
  Cu  Cu3  1  0.25001000  0.25000000  0.04179000  1.0
  Cu  Cu4  1  0.50000000  0.75000000  0.12536000  1.0
  Cu  Cu5  1  0.00000000  0.25000000  0.12536000  1.0
  Cu  Cu6  1  0.50000000  0.25000000  0.12536000  1.0
  Cu  Cu7  1  0.00000000  0.75000000  0.12536000  1.0
  Cu  Cu8  1  0.50000000  1.00000000  0.04179000  1.0
  Cu  Cu9  1  0.74999000  0.50000000  0.12536000  1.0
  Cu  Cu10  1  0.00000000  0.00000000  0.04179000  1.0
  Cu  Cu11  1  0.25001000  0.50000000  0.12536000  1.0
  Cu  Cu12  1  0.25122000  0.28907000  0.88518000  1.0
  Cu  Cu13  1  0.74875000  0.71089000  0.88517000  1.0
  Cu  Cu14  1  0.25125000  0.71089000  0.88517000  1.0
  Cu  Cu15  1  0.74878000  0.28907000  0.88518000  1.0
  Cu  Cu16  1  0.00000000  0.70887000  0.94991000  1.0
  Cu  Cu17  1  0.50000000  0.29442000  0.94678000  1.0
  Cu  Cu18  1  0.00000000  0.29114000  0.94992000  1.0
  Cu  Cu19  1  0.50000000  0.70559000  0.94678000  1.0
  Cu  Cu20  1  0.00000000  0.99999000  0.88636000  1.0
  Cu  Cu21  1  0.25033000  0.50003000  0.96725000  1.0
  Cu  Cu22  1  0.50000000  0.99999000  0.88359000  1.0
  Cu  Cu23  1  0.74967000  0.50003000  0.96725000  1.0
  Sb  Sb24  1  0.74999000  0.00000000  0.12536000  1.0
  Sb  Sb25  1  0.00000000  0.50000000  0.04179000  1.0
  Sb  Sb26  1  0.50000000  0.50000000  0.04179000  1.0
  Sb  Sb27  1  0.25001000  0.00000000  0.12536000  1.0
  Sb  Sb28  1  0.25259000  0.00003000  0.95660000  1.0
  Sb  Sb29  1  0.50000000  0.50003000  0.85392000  1.0
  Sb  Sb30  1  0.00000000  0.49999000  0.85714000  1.0
  Sb  Sb31  1  0.74741000  0.00003000  0.95660000  1.0
  C  C32  1  0.00000000  0.50001000  0.71316000  1.0
  O  O33  1  0.00000000  0.49990000  0.67066000  1.0
