data_image0
_chemical_formula_structural       Li8Ga8Ge8Pd8C
_chemical_formula_sum              "Li8 Ga8 Ge8 Pd8 C1"
_cell_length_a       6.27488
_cell_length_b       8.87402
_cell_length_c       26.6555
_cell_angle_alpha    90
_cell_angle_beta     90
_cell_angle_gamma    90

_space_group_name_H-M_alt    "P 1"
_space_group_IT_number       1

loop_
  _space_group_symop_operation_xyz
  'x, y, z'

loop_
  _atom_site_type_symbol
  _atom_site_label
  _atom_site_symmetry_multiplicity
  _atom_site_fract_x
  _atom_site_fract_y
  _atom_site_fract_z
  _atom_site_occupancy
  Li  Li1       1.0  0.75000  0.00000  0.95839  1.0000
  Li  Li2       1.0  0.75000  0.50000  0.95839  1.0000
  Li  Li3       1.0  0.25000  0.25000  0.87516  1.0000
  Li  Li4       1.0  0.25000  0.75000  0.87516  1.0000
  Li  Li5       1.0  0.72805  0.50000  0.13796  1.0000
  Li  Li6       1.0  0.84652  0.00000  0.16786  1.0000
  Li  Li7       1.0  0.28791  0.76877  0.04548  1.0000
  Li  Li8       1.0  0.28791  0.23124  0.04548  1.0000
  Ga  Ga1       1.0  0.00000  0.00000  0.87516  1.0000
  Ga  Ga2       1.0  0.00000  0.50000  0.87516  1.0000
  Ga  Ga3       1.0  0.50000  0.75000  0.95839  1.0000
  Ga  Ga4       1.0  0.50000  0.25000  0.95839  1.0000
  Ga  Ga5       1.0  0.01896  0.50000  0.04783  1.0000
  Ga  Ga6       1.0  0.99620  0.00000  0.03856  1.0000
  Ga  Ga7       1.0  0.49413  0.23072  0.15106  1.0000
  Ga  Ga8       1.0  0.49415  0.76928  0.15106  1.0000
  Ge  Ge1       1.0  0.00000  0.25000  0.95839  1.0000
  Ge  Ge2       1.0  0.00000  0.75000  0.95839  1.0000
  Ge  Ge3       1.0  0.50000  0.50000  0.87516  1.0000
  Ge  Ge4       1.0  0.50000  0.00000  0.87516  1.0000
  Ge  Ge5       1.0  0.00822  0.73530  0.12403  1.0000
  Ge  Ge6       1.0  0.00821  0.26470  0.12403  1.0000
  Ge  Ge7       1.0  0.58567  0.00000  0.06837  1.0000
  Ge  Ge8       1.0  0.50171  0.50000  0.04268  1.0000
  Pd  Pd1       1.0  0.25000  0.00000  0.95839  1.0000
  Pd  Pd2       1.0  0.25000  0.50000  0.95839  1.0000
  Pd  Pd3       1.0  0.75000  0.25000  0.87516  1.0000
  Pd  Pd4       1.0  0.75000  0.75000  0.87516  1.0000
  Pd  Pd5       1.0  0.28883  0.50000  0.12617  1.0000
  Pd  Pd6       1.0  0.20596  0.00000  0.11662  1.0000
  Pd  Pd7       1.0  0.75024  0.73778  0.03761  1.0000
  Pd  Pd8       1.0  0.75024  0.26222  0.03761  1.0000
  C   C1        1.0  0.53917  0.00000  0.14310  1.0000
