# generated using pymatgen
data_Li8Ga8Ge8Pd8C
_symmetry_space_group_name_H-M   'P 1'
_cell_length_a   8.87402000
_cell_length_b   6.27488000
_cell_length_c   26.65550000
_cell_angle_alpha   90.00000000
_cell_angle_beta   90.00000000
_cell_angle_gamma   90.00000000
_symmetry_Int_Tables_number   1
_chemical_formula_structural   Li8Ga8Ge8Pd8C
_chemical_formula_sum   'Li8 Ga8 Ge8 Pd8 C1'
_cell_volume   1484.26915172
_cell_formula_units_Z   1
loop_
 _symmetry_equiv_pos_site_id
 _symmetry_equiv_pos_as_xyz
  1  'x, y, z'
loop_
 _atom_site_type_symbol
 _atom_site_label
 _atom_site_symmetry_multiplicity
 _atom_site_fract_x
 _atom_site_fract_y
 _atom_site_fract_z
 _atom_site_occupancy
  Li  Li0  1  0.00000000  0.75000000  0.04161000  1.0
  Li  Li1  1  0.50000000  0.75000000  0.04161000  1.0
  Li  Li2  1  0.25000000  0.25000000  0.12484000  1.0
  Li  Li3  1  0.75000000  0.25000000  0.12484000  1.0
  Li  Li4  1  0.50000000  0.72805000  0.86204000  1.0
  Li  Li5  1  0.00000000  0.84652000  0.83214000  1.0
  Li  Li6  1  0.76877000  0.28791000  0.95452000  1.0
  Li  Li7  1  0.23123000  0.28791000  0.95452000  1.0
  Ga  Ga8  1  0.00000000  0.00000000  0.12484000  1.0
  Ga  Ga9  1  0.50000000  0.00000000  0.12484000  1.0
  Ga  Ga10  1  0.75000000  0.50000000  0.04161000  1.0
  Ga  Ga11  1  0.25000000  0.50000000  0.04161000  1.0
  Ga  Ga12  1  0.50000000  0.01896000  0.95217000  1.0
  Ga  Ga13  1  0.00000000  0.99620000  0.96144000  1.0
  Ga  Ga14  1  0.23072000  0.49413000  0.84894000  1.0
  Ga  Ga15  1  0.76928000  0.49413000  0.84894000  1.0
  Ge  Ge16  1  0.25000000  0.00000000  0.04161000  1.0
  Ge  Ge17  1  0.75000000  0.00000000  0.04161000  1.0
  Ge  Ge18  1  0.50000000  0.50000000  0.12484000  1.0
  Ge  Ge19  1  0.00000000  0.50000000  0.12484000  1.0
  Ge  Ge20  1  0.73530000  0.00822000  0.87597000  1.0
  Ge  Ge21  1  0.26470000  0.00822000  0.87597000  1.0
  Ge  Ge22  1  0.00000000  0.58567000  0.93163000  1.0
  Ge  Ge23  1  0.50000000  0.50171000  0.95732000  1.0
  Pd  Pd24  1  0.00000000  0.25000000  0.04161000  1.0
  Pd  Pd25  1  0.50000000  0.25000000  0.04161000  1.0
  Pd  Pd26  1  0.25000000  0.75000000  0.12484000  1.0
  Pd  Pd27  1  0.75000000  0.75000000  0.12484000  1.0
  Pd  Pd28  1  0.50000000  0.28883000  0.87383000  1.0
  Pd  Pd29  1  0.00000000  0.20596000  0.88338000  1.0
  Pd  Pd30  1  0.73778000  0.75024000  0.96239000  1.0
  Pd  Pd31  1  0.26222000  0.75024000  0.96239000  1.0
  C  C32  1  0.00000000  0.53917000  0.85690000  1.0
