# generated using pymatgen
data_Li8Ga8Ge8Pd8C
_symmetry_space_group_name_H-M   Pm
_cell_length_a   6.27488000
_cell_length_b   8.87402000
_cell_length_c   26.65550000
_cell_angle_alpha   90.00000000
_cell_angle_beta   90.00000000
_cell_angle_gamma   90.00000000
_symmetry_Int_Tables_number   6
_chemical_formula_structural   Li8Ga8Ge8Pd8C
_chemical_formula_sum   'Li8 Ga8 Ge8 Pd8 C1'
_cell_volume   1484.26915172
_cell_formula_units_Z   1
loop_
 _symmetry_equiv_pos_site_id
 _symmetry_equiv_pos_as_xyz
  1  'x, y, z'
  2  'x, -y, z'
loop_
 _atom_site_type_symbol
 _atom_site_label
 _atom_site_symmetry_multiplicity
 _atom_site_fract_x
 _atom_site_fract_y
 _atom_site_fract_z
 _atom_site_occupancy
  Li  Li0  2  0.25000000  0.25000000  0.87516000  1.0
  Li  Li1  2  0.28791000  0.23123000  0.04548000  1.0
  Li  Li2  1  0.72805000  0.50000000  0.13796000  1.0
  Li  Li3  1  0.75000000  0.00000000  0.95839000  1.0
  Li  Li4  1  0.75000000  0.50000000  0.95839000  1.0
  Li  Li5  1  0.84652000  0.00000000  0.16786000  1.0
  Ga  Ga6  2  0.49413000  0.23072000  0.15106000  1.0
  Ga  Ga7  2  0.50000000  0.25000000  0.95839000  1.0
  Ga  Ga8  1  0.00000000  0.00000000  0.87516000  1.0
  Ga  Ga9  1  0.00000000  0.50000000  0.87516000  1.0
  Ga  Ga10  1  0.01896000  0.50000000  0.04783000  1.0
  Ga  Ga11  1  0.99620000  0.00000000  0.03856000  1.0
  Ge  Ge12  2  0.00000000  0.25000000  0.95839000  1.0
  Ge  Ge13  2  0.00822000  0.26470000  0.12403000  1.0
  Ge  Ge14  1  0.50000000  0.00000000  0.87516000  1.0
  Ge  Ge15  1  0.50000000  0.50000000  0.87516000  1.0
  Ge  Ge16  1  0.50171000  0.50000000  0.04268000  1.0
  Ge  Ge17  1  0.58567000  0.00000000  0.06837000  1.0
  Pd  Pd18  2  0.75000000  0.25000000  0.87516000  1.0
  Pd  Pd19  2  0.75024000  0.26222000  0.03761000  1.0
  Pd  Pd20  1  0.20596000  0.00000000  0.11662000  1.0
  Pd  Pd21  1  0.25000000  0.00000000  0.95839000  1.0
  Pd  Pd22  1  0.25000000  0.50000000  0.95839000  1.0
  Pd  Pd23  1  0.28883000  0.50000000  0.12617000  1.0
  C  C24  1  0.53917000  0.00000000  0.14310000  1.0
