# generated using pymatgen
data_Y4In4Ge4Pd4CO
_symmetry_space_group_name_H-M   Pm
_cell_length_a   6.48113000
_cell_length_b   7.93684000
_cell_length_c   24.85120000
_cell_angle_alpha   90.00000000
_cell_angle_beta   90.00000000
_cell_angle_gamma   90.00000000
_symmetry_Int_Tables_number   6
_chemical_formula_structural   Y4In4Ge4Pd4CO
_chemical_formula_sum   'Y4 In4 Ge4 Pd4 C1 O1'
_cell_volume   1278.33806959
_cell_formula_units_Z   1
loop_
 _symmetry_equiv_pos_site_id
 _symmetry_equiv_pos_as_xyz
  1  'x, y, z'
  2  'x, -y, z'
loop_
 _atom_site_type_symbol
 _atom_site_label
 _atom_site_symmetry_multiplicity
 _atom_site_fract_x
 _atom_site_fract_y
 _atom_site_fract_z
 _atom_site_occupancy
  Y  Y0  1  0.29729000  0.00000000  0.90240000  1.0
  Y  Y1  1  0.29729000  0.50000000  0.90240000  1.0
  Y  Y2  1  0.76576000  0.00000000  0.03253000  1.0
  Y  Y3  1  0.76576000  0.50000000  0.03253000  1.0
  In  In4  1  0.26576000  0.00000000  0.03253000  1.0
  In  In5  1  0.26576000  0.50000000  0.03253000  1.0
  In  In6  1  0.79729000  0.00000000  0.90240000  1.0
  In  In7  1  0.79729000  0.50000000  0.90240000  1.0
  Ge  Ge8  2  0.00000000  0.25000000  0.09760000  1.0
  Ge  Ge9  2  0.53153000  0.25000000  0.96747000  1.0
  Pd  Pd10  2  0.03153000  0.25000000  0.96747000  1.0
  Pd  Pd11  2  0.50000000  0.25000000  0.09760000  1.0
  C  C12  1  0.29729000  0.50000000  0.82594000  1.0
  O  O13  1  0.29729000  0.50000000  0.77966000  1.0
