# generated using pymatgen
data_Co32CO
_symmetry_space_group_name_H-M   P4mm
_cell_length_a   7.08058000
_cell_length_b   7.08058000
_cell_length_c   25.31040000
_cell_angle_alpha   90.00000000
_cell_angle_beta   90.00000000
_cell_angle_gamma   90.00000000
_symmetry_Int_Tables_number   99
_chemical_formula_structural   Co32CO
_chemical_formula_sum   'Co32 C1 O1'
_cell_volume   1268.92711233
_cell_formula_units_Z   1
loop_
 _symmetry_equiv_pos_site_id
 _symmetry_equiv_pos_as_xyz
  1  'x, y, z'
  2  '-y, x, z'
  3  '-x, -y, z'
  4  'y, -x, z'
  5  '-x, y, z'
  6  'y, x, z'
  7  'x, -y, z'
  8  '-y, -x, z'
loop_
 _atom_site_type_symbol
 _atom_site_label
 _atom_site_symmetry_multiplicity
 _atom_site_fract_x
 _atom_site_fract_y
 _atom_site_fract_z
 _atom_site_occupancy
  Co  Co0  4  0.00000000  0.25000000  0.03497000  1.0
  Co  Co1  4  0.00000000  0.25000000  0.89509000  1.0
  Co  Co2  4  0.25000000  0.25000000  0.10491000  1.0
  Co  Co3  4  0.25000000  0.25000000  0.96503000  1.0
  Co  Co4  4  0.25000000  0.50000000  0.03497000  1.0
  Co  Co5  4  0.25000000  0.50000000  0.89509000  1.0
  Co  Co6  2  0.00000000  0.50000000  0.10491000  1.0
  Co  Co7  2  0.00000000  0.50000000  0.96503000  1.0
  Co  Co8  1  0.00000000  0.00000000  0.10491000  1.0
  Co  Co9  1  0.00000000  0.00000000  0.96503000  1.0
  Co  Co10  1  0.50000000  0.50000000  0.10491000  1.0
  Co  Co11  1  0.50000000  0.50000000  0.96503000  1.0
  C  C12  1  0.50000000  0.50000000  0.17997000  1.0
  O  O13  1  0.50000000  0.50000000  0.22541000  1.0
