# generated using pymatgen
data_Li4In4Ge4Au4C
_symmetry_space_group_name_H-M   Pm
_cell_length_a   5.96101000
_cell_length_b   8.57796000
_cell_length_c   24.47060000
_cell_angle_alpha   90.00000000
_cell_angle_beta   90.00000000
_cell_angle_gamma   90.00000000
_symmetry_Int_Tables_number   6
_chemical_formula_structural   Li4In4Ge4Au4C
_chemical_formula_sum   'Li4 In4 Ge4 Au4 C1'
_cell_volume   1251.26266164
_cell_formula_units_Z   1
loop_
 _symmetry_equiv_pos_site_id
 _symmetry_equiv_pos_as_xyz
  1  'x, y, z'
  2  'x, -y, z'
loop_
 _atom_site_type_symbol
 _atom_site_label
 _atom_site_symmetry_multiplicity
 _atom_site_fract_x
 _atom_site_fract_y
 _atom_site_fract_z
 _atom_site_occupancy
  Li  Li0  2  0.57134000  0.21163000  0.09525000  1.0
  Li  Li1  2  0.99580000  0.25000000  0.96955000  1.0
  In  In2  1  0.24434000  0.00000000  0.02787000  1.0
  In  In3  1  0.26953000  0.50000000  0.04954000  1.0
  In  In4  1  0.74371000  0.00000000  0.90865000  1.0
  In  In5  1  0.74371000  0.50000000  0.90865000  1.0
  Ge  Ge6  1  0.24371000  0.00000000  0.90865000  1.0
  Ge  Ge7  1  0.24371000  0.50000000  0.90865000  1.0
  Ge  Ge8  1  0.71620000  0.00000000  0.02065000  1.0
  Ge  Ge9  1  0.76106000  0.50000000  0.03823000  1.0
  Au  Au10  2  0.01921000  0.23508000  0.08599000  1.0
  Au  Au11  2  0.49580000  0.25000000  0.96955000  1.0
  C  C12  1  0.85011000  0.00000000  0.09338000  1.0
