data_image0
_chemical_formula_structural       Mn8Fe16Si8CO
_chemical_formula_sum              "Mn8 Fe16 Si8 C1 O1"
_cell_length_a       5.59397
_cell_length_b       7.91107
_cell_length_c       25.9333
_cell_angle_alpha    90
_cell_angle_beta     90
_cell_angle_gamma    90

_space_group_name_H-M_alt    "P 1"
_space_group_IT_number       1

loop_
  _space_group_symop_operation_xyz
  'x, y, z'

loop_
  _atom_site_type_symbol
  _atom_site_label
  _atom_site_symmetry_multiplicity
  _atom_site_fract_x
  _atom_site_fract_y
  _atom_site_fract_z
  _atom_site_occupancy
  Mn  Mn1       1.0  0.00000  0.00000  0.88560  1.0000
  Mn  Mn2       1.0  0.50000  0.25000  0.96187  1.0000
  Mn  Mn3       1.0  0.50000  0.75000  0.96187  1.0000
  Mn  Mn4       1.0  0.00000  0.50000  0.88560  1.0000
  Mn  Mn5       1.0  0.99834  0.50000  0.03804  1.0000
  Mn  Mn6       1.0  0.50420  0.74819  0.11960  1.0000
  Mn  Mn7       1.0  0.50421  0.25181  0.11960  1.0000
  Mn  Mn8       1.0  0.99968  0.00000  0.03845  1.0000
  Fe  Fe1       1.0  0.25000  0.00000  0.96187  1.0000
  Fe  Fe2       1.0  0.75000  0.50000  0.96187  1.0000
  Fe  Fe3       1.0  0.75000  0.00000  0.96187  1.0000
  Fe  Fe4       1.0  0.25000  0.50000  0.96187  1.0000
  Fe  Fe5       1.0  0.75000  0.75000  0.88560  1.0000
  Fe  Fe6       1.0  0.25000  0.25000  0.88560  1.0000
  Fe  Fe7       1.0  0.25000  0.75000  0.88560  1.0000
  Fe  Fe8       1.0  0.75000  0.25000  0.88560  1.0000
  Fe  Fe9       1.0  0.23975  0.49999  0.11314  1.0000
  Fe  Fe10      1.0  0.76370  0.00001  0.11304  1.0000
  Fe  Fe11      1.0  0.76401  0.49999  0.11340  1.0000
  Fe  Fe12      1.0  0.25416  0.00001  0.11403  1.0000
  Fe  Fe13      1.0  0.74731  0.24904  0.03706  1.0000
  Fe  Fe14      1.0  0.25250  0.75049  0.03694  1.0000
  Fe  Fe15      1.0  0.25250  0.24951  0.03694  1.0000
  Fe  Fe16      1.0  0.74731  0.75096  0.03706  1.0000
  Si  Si1       1.0  0.00000  0.75000  0.96187  1.0000
  Si  Si2       1.0  0.50000  0.00000  0.88560  1.0000
  Si  Si3       1.0  0.00000  0.25000  0.96187  1.0000
  Si  Si4       1.0  0.50000  0.50000  0.88560  1.0000
  Si  Si5       1.0  0.00190  0.24738  0.11314  1.0000
  Si  Si6       1.0  0.50204  0.50000  0.03949  1.0000
  Si  Si7       1.0  0.00190  0.75262  0.11314  1.0000
  Si  Si8       1.0  0.50160  1.00000  0.03840  1.0000
  C   C1        1.0  0.37704  0.00002  0.17744  1.0000
  O   O1        1.0  0.43513  0.00003  0.22099  1.0000
