# generated using pymatgen
data_Mn8Fe16Si8CO
_symmetry_space_group_name_H-M   'P 1'
_cell_length_a   7.91107000
_cell_length_b   5.59397000
_cell_length_c   25.93330000
_cell_angle_alpha   90.00000000
_cell_angle_beta   90.00000000
_cell_angle_gamma   90.00000000
_symmetry_Int_Tables_number   1
_chemical_formula_structural   Mn8Fe16Si8CO
_chemical_formula_sum   'Mn8 Fe16 Si8 C1 O1'
_cell_volume   1147.65973342
_cell_formula_units_Z   1
loop_
 _symmetry_equiv_pos_site_id
 _symmetry_equiv_pos_as_xyz
  1  'x, y, z'
loop_
 _atom_site_type_symbol
 _atom_site_label
 _atom_site_symmetry_multiplicity
 _atom_site_fract_x
 _atom_site_fract_y
 _atom_site_fract_z
 _atom_site_occupancy
  Mn  Mn0  1  0.00000000  0.00000000  0.11440000  1.0
  Mn  Mn1  1  0.24998000  0.50000000  0.03813000  1.0
  Mn  Mn2  1  0.75002000  0.50000000  0.03813000  1.0
  Mn  Mn3  1  0.50000000  1.00000000  0.11440000  1.0
  Mn  Mn4  1  0.50000000  0.99834000  0.96196000  1.0
  Mn  Mn5  1  0.74817000  0.50420000  0.88040000  1.0
  Mn  Mn6  1  0.25183000  0.50420000  0.88040000  1.0
  Mn  Mn7  1  0.00000000  0.99968000  0.96155000  1.0
  Fe  Fe8  1  0.00000000  0.25000000  0.03813000  1.0
  Fe  Fe9  1  0.50000000  0.75000000  0.03813000  1.0
  Fe  Fe10  1  0.00000000  0.75000000  0.03813000  1.0
  Fe  Fe11  1  0.50000000  0.25000000  0.03813000  1.0
  Fe  Fe12  1  0.74998000  0.75000000  0.11440000  1.0
  Fe  Fe13  1  0.24998000  0.25000000  0.11440000  1.0
  Fe  Fe14  1  0.75002000  0.25000000  0.11440000  1.0
  Fe  Fe15  1  0.25002000  0.75000000  0.11440000  1.0
  Fe  Fe16  1  0.50000000  0.23975000  0.88686000  1.0
  Fe  Fe17  1  0.00000000  0.76370000  0.88696000  1.0
  Fe  Fe18  1  0.50000000  0.76401000  0.88660000  1.0
  Fe  Fe19  1  0.00000000  0.25416000  0.88597000  1.0
  Fe  Fe20  1  0.24902000  0.74731000  0.96294000  1.0
  Fe  Fe21  1  0.75047000  0.25250000  0.96306000  1.0
  Fe  Fe22  1  0.24953000  0.25250000  0.96306000  1.0
  Fe  Fe23  1  0.75098000  0.74731000  0.96294000  1.0
  Si  Si24  1  0.74998000  1.00000000  0.03813000  1.0
  Si  Si25  1  0.00000000  0.50000000  0.11440000  1.0
  Si  Si26  1  0.25002000  1.00000000  0.03813000  1.0
  Si  Si27  1  0.50000000  0.50000000  0.11440000  1.0
  Si  Si28  1  0.24736000  0.00190000  0.88686000  1.0
  Si  Si29  1  0.50000000  0.50204000  0.96051000  1.0
  Si  Si30  1  0.75264000  0.00190000  0.88686000  1.0
  Si  Si31  1  0.00000000  0.50160000  0.96160000  1.0
  C  C32  1  0.00000000  0.37704000  0.82256000  1.0
  O  O33  1  0.00000000  0.43513000  0.77901000  1.0
