# generated using pymatgen
data_Mn8Fe16Si8CO
_symmetry_space_group_name_H-M   Pm
_cell_length_a   5.59397000
_cell_length_b   7.91107000
_cell_length_c   25.93330000
_cell_angle_alpha   90.00000000
_cell_angle_beta   90.00000000
_cell_angle_gamma   90.00000000
_symmetry_Int_Tables_number   6
_chemical_formula_structural   Mn8Fe16Si8CO
_chemical_formula_sum   'Mn8 Fe16 Si8 C1 O1'
_cell_volume   1147.65973342
_cell_formula_units_Z   1
loop_
 _symmetry_equiv_pos_site_id
 _symmetry_equiv_pos_as_xyz
  1  'x, y, z'
  2  'x, -y, z'
loop_
 _atom_site_type_symbol
 _atom_site_label
 _atom_site_symmetry_multiplicity
 _atom_site_fract_x
 _atom_site_fract_y
 _atom_site_fract_z
 _atom_site_occupancy
  Mn  Mn0  2  0.50000000  0.24998000  0.96187000  1.0
  Mn  Mn1  2  0.50420000  0.25183000  0.11960000  1.0
  Mn  Mn2  1  -0.00000000  0.50000000  0.88560000  1.0
  Mn  Mn3  1  0.00000000  0.00000000  0.88560000  1.0
  Mn  Mn4  1  0.99834000  0.50000000  0.03804000  1.0
  Mn  Mn5  1  0.99968000  0.00000000  0.03845000  1.0
  Fe  Fe6  2  0.25000000  0.24998000  0.88560000  1.0
  Fe  Fe7  2  0.25250000  0.24953000  0.03694000  1.0
  Fe  Fe8  2  0.74731000  0.24902000  0.03706000  1.0
  Fe  Fe9  2  0.75000000  0.25002000  0.88560000  1.0
  Fe  Fe10  1  0.23975000  0.50000000  0.11314000  1.0
  Fe  Fe11  1  0.25000000  0.00000000  0.96187000  1.0
  Fe  Fe12  1  0.25000000  0.50000000  0.96187000  1.0
  Fe  Fe13  1  0.25416000  0.00000000  0.11403000  1.0
  Fe  Fe14  1  0.75000000  0.00000000  0.96187000  1.0
  Fe  Fe15  1  0.75000000  0.50000000  0.96187000  1.0
  Fe  Fe16  1  0.76370000  0.00000000  0.11304000  1.0
  Fe  Fe17  1  0.76401000  0.50000000  0.11340000  1.0
  Si  Si18  2  -0.00000000  0.25002000  0.96187000  1.0
  Si  Si19  2  0.00190000  0.24736000  0.11314000  1.0
  Si  Si20  1  0.50000000  0.00000000  0.88560000  1.0
  Si  Si21  1  0.50000000  0.50000000  0.88560000  1.0
  Si  Si22  1  0.50160000  0.00000000  0.03840000  1.0
  Si  Si23  1  0.50204000  0.50000000  0.03949000  1.0
  C  C24  1  0.37704000  0.00000000  0.17744000  1.0
  O  O25  1  0.43513000  0.00000000  0.22099000  1.0
