# generated using pymatgen
data_Nb4Rh12CO
_symmetry_space_group_name_H-M   Pmm2
_cell_length_a   5.52830000
_cell_length_b   7.81819000
_cell_length_c   24.14620000
_cell_angle_alpha   90.00000000
_cell_angle_beta   90.00000000
_cell_angle_gamma   90.00000000
_symmetry_Int_Tables_number   25
_chemical_formula_structural   Nb4Rh12CO
_chemical_formula_sum   'Nb4 Rh12 C1 O1'
_cell_volume   1043.63014868
_cell_formula_units_Z   1
loop_
 _symmetry_equiv_pos_site_id
 _symmetry_equiv_pos_as_xyz
  1  'x, y, z'
  2  '-x, -y, z'
  3  '-x, y, z'
  4  'x, -y, z'
loop_
 _atom_site_type_symbol
 _atom_site_label
 _atom_site_symmetry_multiplicity
 _atom_site_fract_x
 _atom_site_fract_y
 _atom_site_fract_z
 _atom_site_occupancy
  Nb  Nb0  1  0.00000000  0.00000000  0.92128000  1.0
  Nb  Nb1  1  0.00000000  0.50000000  0.92659000  1.0
  Nb  Nb2  1  0.50000000  0.00000000  0.02862000  1.0
  Nb  Nb3  1  0.50000000  0.50000000  0.02862000  1.0
  Rh  Rh4  4  0.24858000  0.24674000  0.96781000  1.0
  Rh  Rh5  4  0.25000000  0.25000000  0.08586000  1.0
  Rh  Rh6  1  0.00000000  0.00000000  0.02862000  1.0
  Rh  Rh7  1  0.00000000  0.50000000  0.02862000  1.0
  Rh  Rh8  1  0.50000000  0.00000000  0.91724000  1.0
  Rh  Rh9  1  0.50000000  0.50000000  0.92009000  1.0
  C  C10  1  0.00000000  0.00000000  0.82847000  1.0
  O  O11  1  0.00000000  0.00000000  0.78089000  1.0
