# generated using pymatgen
data_Mn2SnW
_symmetry_space_group_name_H-M   Pmm2
_cell_length_a   4.31681500
_cell_length_b   6.10490000
_cell_length_c   26.47520000
_cell_angle_alpha   90.00000000
_cell_angle_beta   90.00000000
_cell_angle_gamma   90.00000000
_symmetry_Int_Tables_number   25
_chemical_formula_structural   Mn2SnW
_chemical_formula_sum   'Mn8 Sn4 W4'
_cell_volume   697.72011083
_cell_formula_units_Z   4
loop_
 _symmetry_equiv_pos_site_id
 _symmetry_equiv_pos_as_xyz
  1  'x, y, z'
  2  '-x, -y, z'
  3  '-x, y, z'
  4  'x, -y, z'
loop_
 _atom_site_type_symbol
 _atom_site_label
 _atom_site_symmetry_multiplicity
 _atom_site_fract_x
 _atom_site_fract_y
 _atom_site_fract_z
 _atom_site_occupancy
  Mn  Mn0  2  0.00000000  0.22970500  0.87312000  1.0
  Mn  Mn1  2  0.00000000  0.25000000  0.04076000  1.0
  Mn  Mn2  2  0.50000000  0.25000000  0.12229000  1.0
  Mn  Mn3  2  0.50000000  0.25656000  0.95677000  1.0
  Sn  Sn4  1  0.00000000  0.00000000  0.12229000  1.0
  Sn  Sn5  1  0.00000000  0.00000000  0.95984000  1.0
  Sn  Sn6  1  0.50000000  0.50000000  0.04076000  1.0
  Sn  Sn7  1  0.50000000  0.50000000  0.86358500  1.0
  W  W8  1  0.00000000  0.50000000  0.12229000  1.0
  W  W9  1  0.00000000  0.50000000  0.95686000  1.0
  W  W10  1  0.50000000  0.00000000  0.04076000  1.0
  W  W11  1  0.50000000  0.00000000  0.88313000  1.0
