# generated using pymatgen
data_Li16Ge8Au8CO
_symmetry_space_group_name_H-M   Pm
_cell_length_a   6.30953000
_cell_length_b   8.92302000
_cell_length_c   26.69230000
_cell_angle_alpha   90.00000000
_cell_angle_beta   90.00000000
_cell_angle_gamma   90.00000000
_symmetry_Int_Tables_number   6
_chemical_formula_structural   Li16Ge8Au8CO
_chemical_formula_sum   'Li16 Ge8 Au8 C1 O1'
_cell_volume   1502.77815508
_cell_formula_units_Z   1
loop_
 _symmetry_equiv_pos_site_id
 _symmetry_equiv_pos_as_xyz
  1  'x, y, z'
  2  'x, -y, z'
loop_
 _atom_site_type_symbol
 _atom_site_label
 _atom_site_symmetry_multiplicity
 _atom_site_fract_x
 _atom_site_fract_y
 _atom_site_fract_z
 _atom_site_occupancy
  Li  Li0  2  -0.00000000  0.25000000  0.95821000  1.0
  Li  Li1  2  0.02414000  0.24554000  0.12706000  1.0
  Li  Li2  2  0.25000000  0.25000000  0.87464000  1.0
  Li  Li3  2  0.25799000  0.25014000  0.04257000  1.0
  Li  Li4  1  0.50000000  0.00000000  0.87464000  1.0
  Li  Li5  1  0.50000000  0.50000000  0.87464000  1.0
  Li  Li6  1  0.51314000  0.50000000  0.03713000  1.0
  Li  Li7  1  0.51771000  0.00000000  0.03523000  1.0
  Li  Li8  1  0.72198000  0.50000000  0.12813000  1.0
  Li  Li9  1  0.72720000  0.00000000  0.12563000  1.0
  Li  Li10  1  0.75000000  0.00000000  0.95821000  1.0
  Li  Li11  1  0.75000000  0.50000000  0.95821000  1.0
  Ge  Ge12  2  0.49418000  0.25105000  0.13264000  1.0
  Ge  Ge13  2  0.50000000  0.25000000  0.95821000  1.0
  Ge  Ge14  1  -0.00000000  0.50000000  0.87464000  1.0
  Ge  Ge15  1  0.00000000  0.00000000  0.87464000  1.0
  Ge  Ge16  1  0.99264000  0.50000000  0.04399000  1.0
  Ge  Ge17  1  0.99546000  0.00000000  0.04314000  1.0
  Au  Au18  2  0.74475000  0.24908000  0.04832000  1.0
  Au  Au19  2  0.75000000  0.25000000  0.87464000  1.0
  Au  Au20  1  0.25000000  0.00000000  0.95821000  1.0
  Au  Au21  1  0.25000000  0.50000000  0.95821000  1.0
  Au  Au22  1  0.27228000  0.50000000  0.11625000  1.0
  Au  Au23  1  0.28834000  0.00000000  0.11366000  1.0
  C  C24  1  0.78377000  0.00000000  0.20215000  1.0
  O  O25  1  0.77978000  0.00000000  0.24501000  1.0
