# generated using pymatgen
data_Li4Al4Cu4Ge4C
_symmetry_space_group_name_H-M   Pm
_cell_length_a   5.44580000
_cell_length_b   7.77412000
_cell_length_c   24.08340000
_cell_angle_alpha   90.00000000
_cell_angle_beta   90.00000000
_cell_angle_gamma   90.00000000
_symmetry_Int_Tables_number   6
_chemical_formula_structural   Li4Al4Cu4Ge4C
_chemical_formula_sum   'Li4 Al4 Cu4 Ge4 C1'
_cell_volume   1019.60211235
_cell_formula_units_Z   1
loop_
 _symmetry_equiv_pos_site_id
 _symmetry_equiv_pos_as_xyz
  1  'x, y, z'
  2  'x, -y, z'
loop_
 _atom_site_type_symbol
 _atom_site_label
 _atom_site_symmetry_multiplicity
 _atom_site_fract_x
 _atom_site_fract_y
 _atom_site_fract_z
 _atom_site_occupancy
  Li  Li0  2  0.26464000  0.19846000  0.10825000  1.0
  Li  Li1  2  0.74450000  0.25000000  0.97174000  1.0
  Al  Al2  1  0.00000000  0.00000000  0.91522000  1.0
  Al  Al3  1  0.00000000  0.50000000  0.91522000  1.0
  Al  Al4  1  0.46264000  0.50000000  0.03158000  1.0
  Al  Al5  1  0.49596000  0.00000000  0.02395000  1.0
  Cu  Cu6  1  0.01320000  0.00000000  0.02467000  1.0
  Cu  Cu7  1  0.50000000  0.00000000  0.91522000  1.0
  Cu  Cu8  1  0.50000000  0.50000000  0.91522000  1.0
  Cu  Cu9  1  0.96721000  0.50000000  0.03795000  1.0
  Ge  Ge10  2  0.24450000  0.25000000  0.97174000  1.0
  Ge  Ge11  2  0.76683000  0.18625000  0.09816000  1.0
  C  C12  1  0.01315000  0.00000000  0.11170000  1.0
