data_image0
_chemical_formula_structural       Li4Y4In4Ag4CO
_chemical_formula_sum              "Li4 Y4 In4 Ag4 C1 O1"
_cell_length_a       6.90709
_cell_length_b       6.90709
_cell_length_c       25.1803
_cell_angle_alpha    90
_cell_angle_beta     90
_cell_angle_gamma    90

_space_group_name_H-M_alt    "P 1"
_space_group_IT_number       1

loop_
  _space_group_symop_operation_xyz
  'x, y, z'

loop_
  _atom_site_type_symbol
  _atom_site_label
  _atom_site_symmetry_multiplicity
  _atom_site_fract_x
  _atom_site_fract_y
  _atom_site_fract_z
  _atom_site_occupancy
  Li  Li1       1.0  0.00000  0.50000  0.89714  1.0000
  Li  Li2       1.0  0.99952  0.99952  0.03820  1.0000
  Li  Li3       1.0  0.50048  0.50048  0.03820  1.0000
  Li  Li4       1.0  0.50000  0.00000  0.89714  1.0000
  Y   Y1        1.0  0.75000  0.25000  0.96571  1.0000
  Y   Y2        1.0  0.75000  0.75002  0.11197  1.0000
  Y   Y3        1.0  0.25000  0.24999  0.11257  1.0000
  Y   Y4        1.0  0.25000  0.75000  0.96571  1.0000
  In  In1       1.0  0.25000  0.25000  0.96571  1.0000
  In  In2       1.0  0.25000  0.74999  0.10726  1.0000
  In  In3       1.0  0.75001  0.25001  0.10728  1.0000
  In  In4       1.0  0.75000  0.75000  0.96571  1.0000
  Ag  Ag1       1.0  0.00000  0.00000  0.89714  1.0000
  Ag  Ag2       1.0  0.99883  0.50118  0.03702  1.0000
  Ag  Ag3       1.0  0.50117  0.99883  0.03702  1.0000
  Ag  Ag4       1.0  0.50000  0.50000  0.89714  1.0000
  C   C1        1.0  0.24999  0.24998  0.21125  1.0000
  O   O1        1.0  0.24998  0.24998  0.25685  1.0000
