# generated using pymatgen
data_Li4Mg4Pd4Pb4CO
_symmetry_space_group_name_H-M   'P 1'
_cell_length_a   6.68280000
_cell_length_b   6.68280000
_cell_length_c   25.01210000
_cell_angle_alpha   90.00000000
_cell_angle_beta   90.00000000
_cell_angle_gamma   90.00000000
_symmetry_Int_Tables_number   1
_chemical_formula_structural   Li4Mg4Pd4Pb4CO
_chemical_formula_sum   'Li4 Mg4 Pd4 Pb4 C1 O1'
_cell_volume   1117.03577977
_cell_formula_units_Z   1
loop_
 _symmetry_equiv_pos_site_id
 _symmetry_equiv_pos_as_xyz
  1  'x, y, z'
loop_
 _atom_site_type_symbol
 _atom_site_label
 _atom_site_symmetry_multiplicity
 _atom_site_fract_x
 _atom_site_fract_y
 _atom_site_fract_z
 _atom_site_occupancy
  Li  Li0  1  0.00000000  0.00000000  0.10019000  1
  Li  Li1  1  0.49753000  0.99661000  0.96532000  1
  Li  Li2  1  0.00339000  0.50247000  0.96532000  1
  Li  Li3  1  0.50000000  0.50000000  0.10019000  1
  Mg  Mg4  1  0.25000000  0.25000000  0.03340000  1
  Mg  Mg5  1  0.74853000  0.25147000  0.90412000  1
  Mg  Mg6  1  0.25114500  0.74885500  0.90049000  1
  Mg  Mg7  1  0.75000000  0.75000000  0.03340000  1
  Pd  Pd8  1  0.50000000  1.00000000  0.10019000  1
  Pd  Pd9  1  0.00189500  0.99810500  0.96383000  1
  Pd  Pd10  1  0.49789500  0.50210500  0.96409000  1
  Pd  Pd11  1  1.00000000  0.50000000  0.10019000  1
  Pb  Pb12  1  0.25000000  0.75000000  0.03340000  1
  Pb  Pb13  1  0.75033000  0.75045000  0.88901000  1
  Pb  Pb14  1  0.24955000  0.24967000  0.88901000  1
  Pb  Pb15  1  0.75000000  0.25000000  0.03340000  1
  C  C16  1  0.25120000  0.74880000  0.80998000  1
  O  O17  1  0.25093000  0.74907000  0.76422000  1
