# generated using pymatgen
data_Li4Au12C
_symmetry_space_group_name_H-M   Pm
_cell_length_a   5.82869000
_cell_length_b   8.24301000
_cell_length_c   24.37150000
_cell_angle_alpha   90.00000000
_cell_angle_beta   90.00000000
_cell_angle_gamma   90.00000000
_symmetry_Int_Tables_number   6
_chemical_formula_structural   Li4Au12C
_chemical_formula_sum   'Li4 Au12 C1'
_cell_volume   1170.95186937
_cell_formula_units_Z   1
loop_
 _symmetry_equiv_pos_site_id
 _symmetry_equiv_pos_as_xyz
  1  'x, y, z'
  2  'x, -y, z'
loop_
 _atom_site_type_symbol
 _atom_site_label
 _atom_site_symmetry_multiplicity
 _atom_site_fract_x
 _atom_site_fract_y
 _atom_site_fract_z
 _atom_site_occupancy
  Li  Li0  2  0.50000000  0.24999000  0.02989000  1.0
  Li  Li1  2  0.99454000  0.25293000  0.91109000  1.0
  Au  Au2  2  0.00000000  0.24999000  0.02989000  1.0
  Au  Au3  2  0.49363000  0.24634000  0.90279000  1.0
  Au  Au4  1  0.24015000  0.00000000  0.95810000  1.0
  Au  Au5  1  0.24185000  0.50000000  0.96818000  1.0
  Au  Au6  1  0.25000000  0.00000000  0.08968000  1.0
  Au  Au7  1  0.25000000  0.50000000  0.08968000  1.0
  Au  Au8  1  0.74999000  0.00000000  0.95878000  1.0
  Au  Au9  1  0.75000000  0.00000000  0.08968000  1.0
  Au  Au10  1  0.75000000  0.50000000  0.08968000  1.0
  Au  Au11  1  0.76025000  0.50000000  0.96774000  1.0
  C  C12  1  0.50138000  0.50000000  0.90758000  1.0
