data_image0
_chemical_formula_structural       Zr8Al8Ni16C
_chemical_formula_sum              "Zr8 Al8 Ni16 C1"
_cell_length_a       6.14873
_cell_length_b       8.69561
_cell_length_c       26.5217
_cell_angle_alpha    90
_cell_angle_beta     90
_cell_angle_gamma    90

_space_group_name_H-M_alt    "P 1"
_space_group_IT_number       1

loop_
  _space_group_symop_operation_xyz
  'x, y, z'

loop_
  _atom_site_type_symbol
  _atom_site_label
  _atom_site_symmetry_multiplicity
  _atom_site_fract_x
  _atom_site_fract_y
  _atom_site_fract_z
  _atom_site_occupancy
  Zr  Zr1       1.0  0.00000  0.00000  0.87705  1.0000
  Zr  Zr2       1.0  0.50000  0.25000  0.95902  1.0000
  Zr  Zr3       1.0  0.50000  0.75000  0.95902  1.0000
  Zr  Zr4       1.0  0.00000  0.50000  0.87705  1.0000
  Zr  Zr5       1.0  0.00000  0.50000  0.03938  1.0000
  Zr  Zr6       1.0  0.50000  0.73834  0.12682  1.0000
  Zr  Zr7       1.0  0.50000  0.26165  0.12682  1.0000
  Zr  Zr8       1.0  0.00000  0.00001  0.04076  1.0000
  Al  Al1       1.0  0.00000  0.75000  0.95902  1.0000
  Al  Al2       1.0  0.50000  0.00000  0.87705  1.0000
  Al  Al3       1.0  0.00000  0.25000  0.95902  1.0000
  Al  Al4       1.0  0.50000  0.50000  0.87705  1.0000
  Al  Al5       1.0  0.00000  0.24281  0.12113  1.0000
  Al  Al6       1.0  0.50000  0.50000  0.04281  1.0000
  Al  Al7       1.0  0.00000  0.75721  0.12113  1.0000
  Al  Al8       1.0  0.50000  0.00000  0.04121  1.0000
  Ni  Ni1       1.0  0.25000  0.00000  0.95902  1.0000
  Ni  Ni2       1.0  0.75000  0.50000  0.95902  1.0000
  Ni  Ni3       1.0  0.75000  0.00000  0.95902  1.0000
  Ni  Ni4       1.0  0.25000  0.50000  0.95902  1.0000
  Ni  Ni5       1.0  0.75000  0.75000  0.87705  1.0000
  Ni  Ni6       1.0  0.25000  0.25000  0.87705  1.0000
  Ni  Ni7       1.0  0.25000  0.75000  0.87705  1.0000
  Ni  Ni8       1.0  0.75000  0.25000  0.87705  1.0000
  Ni  Ni9       1.0  0.22168  0.50003  0.11935  1.0000
  Ni  Ni10      1.0  0.70989  0.99998  0.12209  1.0000
  Ni  Ni11      1.0  0.77832  0.50003  0.11935  1.0000
  Ni  Ni12      1.0  0.29011  0.99998  0.12209  1.0000
  Ni  Ni13      1.0  0.73192  0.25212  0.04365  1.0000
  Ni  Ni14      1.0  0.26809  0.74789  0.04366  1.0000
  Ni  Ni15      1.0  0.26808  0.25212  0.04365  1.0000
  Ni  Ni16      1.0  0.73191  0.74789  0.04366  1.0000
  C   C1        1.0  0.00000  0.00000  0.13270  1.0000
