# generated using pymatgen
data_Zr8Al8Ni16C
_symmetry_space_group_name_H-M   Pmm2
_cell_length_a   6.14873000
_cell_length_b   8.69561000
_cell_length_c   26.52170000
_cell_angle_alpha   90.00000000
_cell_angle_beta   90.00000000
_cell_angle_gamma   90.00000000
_symmetry_Int_Tables_number   25
_chemical_formula_structural   Zr8Al8Ni16C
_chemical_formula_sum   'Zr8 Al8 Ni16 C1'
_cell_volume   1418.03462199
_cell_formula_units_Z   1
loop_
 _symmetry_equiv_pos_site_id
 _symmetry_equiv_pos_as_xyz
  1  'x, y, z'
  2  '-x, -y, z'
  3  '-x, y, z'
  4  'x, -y, z'
loop_
 _atom_site_type_symbol
 _atom_site_label
 _atom_site_symmetry_multiplicity
 _atom_site_fract_x
 _atom_site_fract_y
 _atom_site_fract_z
 _atom_site_occupancy
  Zr  Zr0  2  0.50000000  0.25000000  0.95902000  1.0
  Zr  Zr1  2  0.50000000  0.26166000  0.12682000  1.0
  Zr  Zr2  1  0.00000000  0.00000000  0.04076000  1.0
  Zr  Zr3  1  0.00000000  0.00000000  0.87705000  1.0
  Zr  Zr4  1  0.00000000  0.50000000  0.03938000  1.0
  Zr  Zr5  1  0.00000000  0.50000000  0.87705000  1.0
  Al  Al6  2  0.00000000  0.24281000  0.12113000  1.0
  Al  Al7  2  0.00000000  0.25000000  0.95902000  1.0
  Al  Al8  1  0.50000000  0.00000000  0.04121000  1.0
  Al  Al9  1  0.50000000  0.00000000  0.87705000  1.0
  Al  Al10  1  0.50000000  0.50000000  0.04281000  1.0
  Al  Al11  1  0.50000000  0.50000000  0.87705000  1.0
  Ni  Ni12  4  0.25000000  0.25000000  0.87705000  1.0
  Ni  Ni13  4  0.26808000  0.25212000  0.04365000  1.0
  Ni  Ni14  2  0.22168000  0.50000000  0.11935000  1.0
  Ni  Ni15  2  0.25000000  0.00000000  0.95902000  1.0
  Ni  Ni16  2  0.25000000  0.50000000  0.95902000  1.0
  Ni  Ni17  2  0.29011000  0.00000000  0.12209000  1.0
  C  C18  1  0.00000000  0.00000000  0.13270000  1.0
