# generated using pymatgen
data_Ti4Ir12CO
_symmetry_space_group_name_H-M   'P 1'
_cell_length_a   7.78093000
_cell_length_b   5.50195000
_cell_length_c   24.12650000
_cell_angle_alpha   90.00000000
_cell_angle_beta   90.00000000
_cell_angle_gamma   90.00000000
_symmetry_Int_Tables_number   1
_chemical_formula_structural   Ti4Ir12CO
_chemical_formula_sum   'Ti4 Ir12 C1 O1'
_cell_volume   1032.86240893
_cell_formula_units_Z   1
loop_
 _symmetry_equiv_pos_site_id
 _symmetry_equiv_pos_as_xyz
  1  'x, y, z'
loop_
 _atom_site_type_symbol
 _atom_site_label
 _atom_site_symmetry_multiplicity
 _atom_site_fract_x
 _atom_site_fract_y
 _atom_site_fract_z
 _atom_site_occupancy
  Ti  Ti0  1  0.75000000  0.00000000  0.91448000  1.0
  Ti  Ti1  1  0.75028000  0.50003000  0.02728000  1.0
  Ti  Ti2  1  0.25000000  0.00000000  0.91448000  1.0
  Ti  Ti3  1  0.24972000  0.50003000  0.02728000  1.0
  Ir  Ir4  1  0.75000000  0.50000000  0.91448000  1.0
  Ir  Ir5  1  0.50000000  0.25000000  0.97149000  1.0
  Ir  Ir6  1  0.50000000  0.75000000  0.97149000  1.0
  Ir  Ir7  1  0.75025000  0.00328000  0.02566000  1.0
  Ir  Ir8  1  0.50000000  0.75095000  0.08413000  1.0
  Ir  Ir9  1  0.50000000  0.26135000  0.08020000  1.0
  Ir  Ir10  1  0.25000000  0.50000000  0.91448000  1.0
  Ir  Ir11  1  0.00000000  0.25000000  0.97149000  1.0
  Ir  Ir12  1  0.00000000  0.75000000  0.97149000  1.0
  Ir  Ir13  1  0.24975000  0.00328000  0.02566000  1.0
  Ir  Ir14  1  0.00000000  0.74469000  0.08030000  1.0
  Ir  Ir15  1  0.00000000  0.26047000  0.08055000  1.0
  C  C16  1  0.50000000  0.74912000  0.16197000  1.0
  O  O17  1  0.50000000  0.74892000  0.21008000  1.0
