# generated using pymatgen
data_Li8Y8In8Ag8C
_symmetry_space_group_name_H-M   'P 1'
_cell_length_a   9.76810000
_cell_length_b   6.90709000
_cell_length_c   27.32610000
_cell_angle_alpha   90.00000000
_cell_angle_beta   90.00000000
_cell_angle_gamma   90.00000000
_symmetry_Int_Tables_number   1
_chemical_formula_structural   Li8Y8In8Ag8C
_chemical_formula_sum   'Li8 Y8 In8 Ag8 C1'
_cell_volume   1843.66862584
_cell_formula_units_Z   1
loop_
 _symmetry_equiv_pos_site_id
 _symmetry_equiv_pos_as_xyz
  1  'x, y, z'
loop_
 _atom_site_type_symbol
 _atom_site_label
 _atom_site_symmetry_multiplicity
 _atom_site_fract_x
 _atom_site_fract_y
 _atom_site_fract_z
 _atom_site_occupancy
  Li  Li0  1  0.25000000  0.00000000  0.04468000  1.0
  Li  Li1  1  0.75000000  0.00000000  0.04468000  1.0
  Li  Li2  1  0.50000000  0.50000000  0.13405000  1.0
  Li  Li3  1  0.00000000  0.50000000  0.13405000  1.0
  Li  Li4  1  0.79158000  0.11755000  0.80855000  1.0
  Li  Li5  1  0.20842000  0.11755000  0.80855000  1.0
  Li  Li6  1  0.00000000  0.51554000  0.95069000  1.0
  Li  Li7  1  0.50000000  0.50757000  0.95007000  1.0
  Y  Y8  1  0.00000000  0.75000000  0.04468000  1.0
  Y  Y9  1  0.50000000  0.75000000  0.04468000  1.0
  Y  Y10  1  0.25000000  0.25000000  0.13405000  1.0
  Y  Y11  1  0.75000000  0.25000000  0.13405000  1.0
  Y  Y12  1  0.50000000  0.79516000  0.86515000  1.0
  Y  Y13  1  0.00000000  0.79153000  0.86101000  1.0
  Y  Y14  1  0.74930000  0.24334000  0.94930000  1.0
  Y  Y15  1  0.25070000  0.24334000  0.94930000  1.0
  In  In16  1  0.00000000  0.25000000  0.04468000  1.0
  In  In17  1  0.50000000  0.25000000  0.04468000  1.0
  In  In18  1  0.25000000  0.75000000  0.13405000  1.0
  In  In19  1  0.75000000  0.75000000  0.13405000  1.0
  In  In20  1  0.50000000  0.25303000  0.86018000  1.0
  In  In21  1  0.00000000  0.28693000  0.86635000  1.0
  In  In22  1  0.74838000  0.75366000  0.95411000  1.0
  In  In23  1  0.25162000  0.75366000  0.95411000  1.0
  Ag  Ag24  1  0.00000000  0.00000000  0.13405000  1.0
  Ag  Ag25  1  0.50000000  0.00000000  0.13405000  1.0
  Ag  Ag26  1  0.75000000  0.50000000  0.04468000  1.0
  Ag  Ag27  1  0.25000000  0.50000000  0.04468000  1.0
  Ag  Ag28  1  0.50000000  0.00282000  0.95744000  1.0
  Ag  Ag29  1  0.00000000  0.99862000  0.95813000  1.0
  Ag  Ag30  1  0.26121000  0.51185000  0.86421000  1.0
  Ag  Ag31  1  0.73879000  0.51185000  0.86421000  1.0
  C  C32  1  0.00000000  0.04723000  0.81554000  1.0
