# generated using pymatgen
data_Li4Y4Ge4Pb4CO
_symmetry_space_group_name_H-M   'P 1'
_cell_length_a   9.86128000
_cell_length_b   6.08443000
_cell_length_c   24.56300000
_cell_angle_alpha   90.00000000
_cell_angle_beta   90.00000000
_cell_angle_gamma   90.00000000
_symmetry_Int_Tables_number   1
_chemical_formula_structural   Li4Y4Ge4Pb4CO
_chemical_formula_sum   'Li4 Y4 Ge4 Pb4 C1 O1'
_cell_volume   1473.78657970
_cell_formula_units_Z   1
loop_
 _symmetry_equiv_pos_site_id
 _symmetry_equiv_pos_as_xyz
  1  'x, y, z'
loop_
 _atom_site_type_symbol
 _atom_site_label
 _atom_site_symmetry_multiplicity
 _atom_site_fract_x
 _atom_site_fract_y
 _atom_site_fract_z
 _atom_site_occupancy
  Li  Li0  1  0.25003000  0.26697000  0.97186000  1.0
  Li  Li1  1  0.25000000  0.74120000  0.09288000  1.0
  Li  Li2  1  0.74997000  0.26697000  0.97186000  1.0
  Li  Li3  1  0.75000000  0.74120000  0.09288000  1.0
  Y  Y4  1  0.00000000  0.49921000  0.90814000  1.0
  Y  Y5  1  0.00000000  0.99413000  0.03096000  1.0
  Y  Y6  1  0.50000000  0.49702000  0.90900000  1.0
  Y  Y7  1  0.50000000  0.99413000  0.03096000  1.0
  Ge  Ge8  1  0.00000000  0.99747000  0.90343000  1.0
  Ge  Ge9  1  0.00000000  0.49413000  0.03096000  1.0
  Ge  Ge10  1  0.50000000  0.99868000  0.90529000  1.0
  Ge  Ge11  1  0.50000000  0.49413000  0.03096000  1.0
  Pb  Pb12  1  0.24998000  0.77665000  0.95595000  1.0
  Pb  Pb13  1  0.25000000  0.24120000  0.09288000  1.0
  Pb  Pb14  1  0.75002000  0.77665000  0.95595000  1.0
  Pb  Pb15  1  0.75000000  0.24120000  0.09288000  1.0
  C  C16  1  0.00000000  0.51480000  0.80537000  1.0
  O  O17  1  0.00000000  0.52168000  0.75881000  1.0
