# generated using pymatgen
data_Li4Y4Ge4Pb4CO
_symmetry_space_group_name_H-M   Pm
_cell_length_a   6.08443000
_cell_length_b   9.86128000
_cell_length_c   24.56300000
_cell_angle_alpha   90.00000000
_cell_angle_beta   90.00000000
_cell_angle_gamma   90.00000000
_symmetry_Int_Tables_number   6
_chemical_formula_structural   Li4Y4Ge4Pb4CO
_chemical_formula_sum   'Li4 Y4 Ge4 Pb4 C1 O1'
_cell_volume   1473.78657970
_cell_formula_units_Z   1
loop_
 _symmetry_equiv_pos_site_id
 _symmetry_equiv_pos_as_xyz
  1  'x, y, z'
  2  'x, -y, z'
loop_
 _atom_site_type_symbol
 _atom_site_label
 _atom_site_symmetry_multiplicity
 _atom_site_fract_x
 _atom_site_fract_y
 _atom_site_fract_z
 _atom_site_occupancy
  Li  Li0  2  0.26697000  0.25003000  0.02814000  1.0
  Li  Li1  2  0.74120000  0.25000000  0.90712000  1.0
  Y  Y2  1  0.49702000  0.50000000  0.09100000  1.0
  Y  Y3  1  0.49921000  0.00000000  0.09186000  1.0
  Y  Y4  1  0.99413000  0.00000000  0.96904000  1.0
  Y  Y5  1  0.99413000  0.50000000  0.96904000  1.0
  Ge  Ge6  1  0.49413000  0.00000000  0.96904000  1.0
  Ge  Ge7  1  0.49413000  0.50000000  0.96904000  1.0
  Ge  Ge8  1  0.99747000  0.00000000  0.09657000  1.0
  Ge  Ge9  1  0.99868000  0.50000000  0.09471000  1.0
  Pb  Pb10  2  0.24120000  0.25000000  0.90712000  1.0
  Pb  Pb11  2  0.77665000  0.24998000  0.04405000  1.0
  C  C12  1  0.51480000  0.00000000  0.19463000  1.0
  O  O13  1  0.52168000  0.00000000  0.24119000  1.0
