data_image0
_chemical_formula_structural       Li8In8Pd8Ru8CO
_chemical_formula_sum              "Li8 In8 Pd8 Ru8 C1 O1"
_cell_length_a       6.32045
_cell_length_b       8.93846
_cell_length_c       26.7038
_cell_angle_alpha    90
_cell_angle_beta     90
_cell_angle_gamma    90

_space_group_name_H-M_alt    "P 1"
_space_group_IT_number       1

loop_
  _space_group_symop_operation_xyz
  'x, y, z'

loop_
  _atom_site_type_symbol
  _atom_site_label
  _atom_site_symmetry_multiplicity
  _atom_site_fract_x
  _atom_site_fract_y
  _atom_site_fract_z
  _atom_site_occupancy
  Li  Li1       1.0  0.00000  0.25000  0.95816  1.0000
  Li  Li2       1.0  0.00000  0.75000  0.95816  1.0000
  Li  Li3       1.0  0.50000  0.50000  0.87448  1.0000
  Li  Li4       1.0  0.50000  0.00000  0.87448  1.0000
  Li  Li5       1.0  0.99234  0.73453  0.13040  1.0000
  Li  Li6       1.0  0.99236  0.26544  0.13041  1.0000
  Li  Li7       1.0  0.49624  0.99999  0.04310  1.0000
  Li  Li8       1.0  0.49753  0.49998  0.03664  1.0000
  In  In1       1.0  0.00000  0.00000  0.87448  1.0000
  In  In2       1.0  0.00000  0.50000  0.87448  1.0000
  In  In3       1.0  0.50000  0.75000  0.95816  1.0000
  In  In4       1.0  0.50000  0.25000  0.95816  1.0000
  In  In5       1.0  0.00238  0.50003  0.04007  1.0000
  In  In6       1.0  0.99362  0.99994  0.04093  1.0000
  In  In7       1.0  0.48762  0.23607  0.13133  1.0000
  In  In8       1.0  0.48764  0.76394  0.13132  1.0000
  Pd  Pd1       1.0  0.75000  0.00000  0.95816  1.0000
  Pd  Pd2       1.0  0.75000  0.50000  0.95816  1.0000
  Pd  Pd3       1.0  0.25000  0.25000  0.87448  1.0000
  Pd  Pd4       1.0  0.25000  0.75000  0.87448  1.0000
  Pd  Pd5       1.0  0.72095  0.50001  0.11697  1.0000
  Pd  Pd6       1.0  0.77245  0.00000  0.13122  1.0000
  Pd  Pd7       1.0  0.24986  0.75198  0.04222  1.0000
  Pd  Pd8       1.0  0.24986  0.24800  0.04223  1.0000
  Ru  Ru1       1.0  0.25000  0.00000  0.95816  1.0000
  Ru  Ru2       1.0  0.25000  0.50000  0.95816  1.0000
  Ru  Ru3       1.0  0.75000  0.25000  0.87448  1.0000
  Ru  Ru4       1.0  0.75000  0.75000  0.87448  1.0000
  Ru  Ru5       1.0  0.27702  0.49999  0.11777  1.0000
  Ru  Ru6       1.0  0.23074  0.00001  0.12355  1.0000
  Ru  Ru7       1.0  0.74375  0.74951  0.04497  1.0000
  Ru  Ru8       1.0  0.74380  0.25045  0.04497  1.0000
  C   C1        1.0  0.85867  0.00001  0.20131  1.0000
  O   O1        1.0  0.88490  0.00003  0.24416  1.0000
