data_image0
_chemical_formula_structural       Ti8Fe8CO
_chemical_formula_sum              "Ti8 Fe8 C1 O1"
_cell_length_a       5.92728
_cell_length_b       5.92728
_cell_length_c       24.4455
_cell_angle_alpha    90
_cell_angle_beta     90
_cell_angle_gamma    90

_space_group_name_H-M_alt    "P 1"
_space_group_IT_number       1

loop_
  _space_group_symop_operation_xyz
  'x, y, z'

loop_
  _atom_site_type_symbol
  _atom_site_label
  _atom_site_symmetry_multiplicity
  _atom_site_fract_x
  _atom_site_fract_y
  _atom_site_fract_z
  _atom_site_occupancy
  Ti  Ti1       1.0  0.00000  0.00000  0.90674  1.0000
  Ti  Ti2       1.0  0.00071  0.00013  0.03176  1.0000
  Ti  Ti3       1.0  0.00000  0.50000  0.90674  1.0000
  Ti  Ti4       1.0  0.00013  0.50202  0.03083  1.0000
  Ti  Ti5       1.0  0.50000  0.00000  0.90674  1.0000
  Ti  Ti6       1.0  0.50259  0.99986  0.03078  1.0000
  Ti  Ti7       1.0  0.50000  0.50000  0.90674  1.0000
  Ti  Ti8       1.0  0.49727  0.49687  0.02909  1.0000
  Fe  Fe1       1.0  0.25000  0.25000  0.96736  1.0000
  Fe  Fe2       1.0  0.23955  0.24114  0.08518  1.0000
  Fe  Fe3       1.0  0.25000  0.75000  0.96736  1.0000
  Fe  Fe4       1.0  0.28495  0.75006  0.09438  1.0000
  Fe  Fe5       1.0  0.75000  0.25000  0.96736  1.0000
  Fe  Fe6       1.0  0.75131  0.28463  0.09448  1.0000
  Fe  Fe7       1.0  0.75000  0.75000  0.96736  1.0000
  Fe  Fe8       1.0  0.72846  0.72690  0.09638  1.0000
  C   C1        1.0  0.20724  0.21271  0.15780  1.0000
  O   O1        1.0  0.18611  0.19537  0.20497  1.0000
