# generated using pymatgen
data_Ti8Fe8CO
_symmetry_space_group_name_H-M   'P 1'
_cell_length_a   5.92728000
_cell_length_b   5.92728000
_cell_length_c   24.44550000
_cell_angle_alpha   90.00000000
_cell_angle_beta   90.00000000
_cell_angle_gamma   90.00000000
_symmetry_Int_Tables_number   1
_chemical_formula_structural   Ti8Fe8CO
_chemical_formula_sum   'Ti8 Fe8 C1 O1'
_cell_volume   858.83515153
_cell_formula_units_Z   1
loop_
 _symmetry_equiv_pos_site_id
 _symmetry_equiv_pos_as_xyz
  1  'x, y, z'
loop_
 _atom_site_type_symbol
 _atom_site_label
 _atom_site_symmetry_multiplicity
 _atom_site_fract_x
 _atom_site_fract_y
 _atom_site_fract_z
 _atom_site_occupancy
  Ti  Ti0  1  0.00000000  0.00000000  0.90674000  1.0
  Ti  Ti1  1  0.00071000  0.00013000  0.03176000  1.0
  Ti  Ti2  1  1.00000000  0.50000000  0.90674000  1.0
  Ti  Ti3  1  0.00013000  0.50202000  0.03083000  1.0
  Ti  Ti4  1  0.50000000  0.00000000  0.90674000  1.0
  Ti  Ti5  1  0.50259000  0.99986000  0.03078000  1.0
  Ti  Ti6  1  0.50000000  0.50000000  0.90674000  1.0
  Ti  Ti7  1  0.49727000  0.49687000  0.02909000  1.0
  Fe  Fe8  1  0.25000000  0.25000000  0.96736000  1.0
  Fe  Fe9  1  0.23955000  0.24114000  0.08518000  1.0
  Fe  Fe10  1  0.25000000  0.75000000  0.96736000  1.0
  Fe  Fe11  1  0.28495000  0.75006000  0.09438000  1.0
  Fe  Fe12  1  0.75000000  0.25000000  0.96736000  1.0
  Fe  Fe13  1  0.75131000  0.28463000  0.09448000  1.0
  Fe  Fe14  1  0.75000000  0.75000000  0.96736000  1.0
  Fe  Fe15  1  0.72846000  0.72690000  0.09638000  1.0
  C  C16  1  0.20724000  0.21271000  0.15780000  1.0
  O  O17  1  0.18611000  0.19537000  0.20497000  1.0
