data_image0
_chemical_formula_structural       Li8Mg8In8Ag8C
_chemical_formula_sum              "Li8 Mg8 In8 Ag8 C1"
_cell_length_a       6.69019
_cell_length_b       9.46136
_cell_length_c       27.096
_cell_angle_alpha    90
_cell_angle_beta     90
_cell_angle_gamma    90

_space_group_name_H-M_alt    "P 1"
_space_group_IT_number       1

loop_
  _space_group_symop_operation_xyz
  'x, y, z'

loop_
  _atom_site_type_symbol
  _atom_site_label
  _atom_site_symmetry_multiplicity
  _atom_site_fract_x
  _atom_site_fract_y
  _atom_site_fract_z
  _atom_site_occupancy
  Li  Li1       1.0  0.00000  0.25000  0.95635  1.0000
  Li  Li2       1.0  0.00000  0.75000  0.95635  1.0000
  Li  Li3       1.0  0.50000  0.50000  0.86906  1.0000
  Li  Li4       1.0  0.50000  0.00000  0.86906  1.0000
  Li  Li5       1.0  0.01665  0.77700  0.14389  1.0000
  Li  Li6       1.0  0.01664  0.22302  0.14389  1.0000
  Li  Li7       1.0  0.48479  1.00000  0.04518  1.0000
  Li  Li8       1.0  0.50115  0.50000  0.05013  1.0000
  Mg  Mg1       1.0  0.75000  0.00000  0.95635  1.0000
  Mg  Mg2       1.0  0.75000  0.50000  0.95635  1.0000
  Mg  Mg3       1.0  0.25000  0.25000  0.86906  1.0000
  Mg  Mg4       1.0  0.25000  0.75000  0.86906  1.0000
  Mg  Mg5       1.0  0.76269  0.50001  0.13714  1.0000
  Mg  Mg6       1.0  0.71471  0.00001  0.13597  1.0000
  Mg  Mg7       1.0  0.24169  0.74148  0.04510  1.0000
  Mg  Mg8       1.0  0.24169  0.25851  0.04511  1.0000
  In  In1       1.0  0.25000  0.00000  0.95635  1.0000
  In  In2       1.0  0.25000  0.50000  0.95635  1.0000
  In  In3       1.0  0.75000  0.25000  0.86906  1.0000
  In  In4       1.0  0.75000  0.75000  0.86906  1.0000
  In  In5       1.0  0.21788  0.50000  0.14560  1.0000
  In  In6       1.0  0.31489  0.00001  0.16595  1.0000
  In  In7       1.0  0.75035  0.75698  0.04639  1.0000
  In  In8       1.0  0.75035  0.24302  0.04639  1.0000
  Ag  Ag1       1.0  0.00000  0.00000  0.86906  1.0000
  Ag  Ag2       1.0  0.00000  0.50000  0.86906  1.0000
  Ag  Ag3       1.0  0.50000  0.75000  0.95635  1.0000
  Ag  Ag4       1.0  0.50000  0.25000  0.95635  1.0000
  Ag  Ag5       1.0  0.99103  0.50000  0.04392  1.0000
  Ag  Ag6       1.0  0.02620  1.00000  0.05310  1.0000
  Ag  Ag7       1.0  0.48938  0.26809  0.13078  1.0000
  Ag  Ag8       1.0  0.48938  0.73192  0.13078  1.0000
  C   C1        1.0  0.01984  0.00001  0.14053  1.0000
