data_image0
_chemical_formula_structural       Li8Y8In8Au8C
_chemical_formula_sum              "Li8 Y8 In8 Au8 C1"
_cell_length_a       6.8938
_cell_length_b       9.7493
_cell_length_c       27.312
_cell_angle_alpha    90
_cell_angle_beta     90
_cell_angle_gamma    90

_space_group_name_H-M_alt    "P 1"
_space_group_IT_number       1

loop_
  _space_group_symop_operation_xyz
  'x, y, z'

loop_
  _atom_site_type_symbol
  _atom_site_label
  _atom_site_symmetry_multiplicity
  _atom_site_fract_x
  _atom_site_fract_y
  _atom_site_fract_z
  _atom_site_occupancy
  Li  Li1       1.0  0.00000  0.25000  0.95538  1.0000
  Li  Li2       1.0  0.00000  0.75000  0.95538  1.0000
  Li  Li3       1.0  0.50000  0.50000  0.86614  1.0000
  Li  Li4       1.0  0.50000  0.00000  0.86614  1.0000
  Li  Li5       1.0  0.20116  0.75000  0.19102  1.0000
  Li  Li6       1.0  0.02912  0.25000  0.17538  1.0000
  Li  Li7       1.0  0.50067  0.99638  0.04733  1.0000
  Li  Li8       1.0  0.50066  0.50362  0.04733  1.0000
  Y   Y1        1.0  0.75000  0.00000  0.95538  1.0000
  Y   Y2        1.0  0.75000  0.50000  0.95538  1.0000
  Y   Y3        1.0  0.25000  0.25000  0.86614  1.0000
  Y   Y4        1.0  0.25000  0.75000  0.86614  1.0000
  Y   Y5        1.0  0.78997  0.51728  0.13476  1.0000
  Y   Y6        1.0  0.78997  0.98272  0.13476  1.0000
  Y   Y7        1.0  0.23879  0.75000  0.05161  1.0000
  Y   Y8        1.0  0.23840  0.25000  0.05337  1.0000
  In  In1       1.0  0.25000  0.00000  0.95538  1.0000
  In  In2       1.0  0.25000  0.50000  0.95538  1.0000
  In  In3       1.0  0.75000  0.25000  0.86614  1.0000
  In  In4       1.0  0.75000  0.75000  0.86614  1.0000
  In  In5       1.0  0.25488  0.48906  0.14299  1.0000
  In  In6       1.0  0.25488  0.01094  0.14299  1.0000
  In  In7       1.0  0.74989  0.75000  0.04294  1.0000
  In  In8       1.0  0.75109  0.25000  0.04438  1.0000
  Au  Au1       1.0  0.00000  0.00000  0.86614  1.0000
  Au  Au2       1.0  0.00000  0.50000  0.86614  1.0000
  Au  Au3       1.0  0.50000  0.75000  0.95538  1.0000
  Au  Au4       1.0  0.50000  0.25000  0.95538  1.0000
  Au  Au5       1.0  0.00089  0.50161  0.04287  1.0000
  Au  Au6       1.0  0.00089  0.99840  0.04287  1.0000
  Au  Au7       1.0  0.60081  0.25000  0.14549  1.0000
  Au  Au8       1.0  0.52161  0.75000  0.13591  1.0000
  C   C1        1.0  0.29395  0.25000  0.13671  1.0000
