# generated using pymatgen
data_Li8Y8In8Au8C
_symmetry_space_group_name_H-M   'P 1'
_cell_length_a   9.74930000
_cell_length_b   6.89380000
_cell_length_c   27.31200000
_cell_angle_alpha   90.00000000
_cell_angle_beta   90.00000000
_cell_angle_gamma   90.00000000
_symmetry_Int_Tables_number   1
_chemical_formula_structural   Li8Y8In8Au8C
_chemical_formula_sum   'Li8 Y8 In8 Au8 C1'
_cell_volume   1835.63199117
_cell_formula_units_Z   1
loop_
 _symmetry_equiv_pos_site_id
 _symmetry_equiv_pos_as_xyz
  1  'x, y, z'
loop_
 _atom_site_type_symbol
 _atom_site_label
 _atom_site_symmetry_multiplicity
 _atom_site_fract_x
 _atom_site_fract_y
 _atom_site_fract_z
 _atom_site_occupancy
  Li  Li0  1  0.00000000  0.00000000  0.04462000  1.0
  Li  Li1  1  0.50000000  0.00000000  0.04462000  1.0
  Li  Li2  1  0.25000000  0.50000000  0.13386000  1.0
  Li  Li3  1  0.75000000  0.50000000  0.13386000  1.0
  Li  Li4  1  0.50000000  0.20117000  0.80899000  1.0
  Li  Li5  1  0.00000000  0.02921000  0.82463000  1.0
  Li  Li6  1  0.74637000  0.50065000  0.95266000  1.0
  Li  Li7  1  0.25363000  0.50065000  0.95266000  1.0
  Y  Y8  1  0.75000000  0.75000000  0.04462000  1.0
  Y  Y9  1  0.25000000  0.75000000  0.04462000  1.0
  Y  Y10  1  0.00000000  0.25000000  0.13386000  1.0
  Y  Y11  1  0.50000000  0.25000000  0.13386000  1.0
  Y  Y12  1  0.26733000  0.78998000  0.86523000  1.0
  Y  Y13  1  0.73267000  0.78998000  0.86523000  1.0
  Y  Y14  1  0.50000000  0.23884000  0.94838000  1.0
  Y  Y15  1  0.00000000  0.23836000  0.94662000  1.0
  In  In16  1  0.75000000  0.25000000  0.04462000  1.0
  In  In17  1  0.25000000  0.25000000  0.04462000  1.0
  In  In18  1  0.00000000  0.75000000  0.13386000  1.0
  In  In19  1  0.50000000  0.75000000  0.13386000  1.0
  In  In20  1  0.23909000  0.25502000  0.85704000  1.0
  In  In21  1  0.76091000  0.25502000  0.85704000  1.0
  In  In22  1  0.50000000  0.74978000  0.95706000  1.0
  In  In23  1  0.00000000  0.75104000  0.95561000  1.0
  Au  Au24  1  0.75000000  0.00000000  0.13386000  1.0
  Au  Au25  1  0.25000000  0.00000000  0.13386000  1.0
  Au  Au26  1  0.50000000  0.50000000  0.04462000  1.0
  Au  Au27  1  0.00000000  0.50000000  0.04462000  1.0
  Au  Au28  1  0.25157000  0.00097000  0.95713000  1.0
  Au  Au29  1  0.74843000  0.00097000  0.95713000  1.0
  Au  Au30  1  0.00000000  0.60100000  0.85452000  1.0
  Au  Au31  1  0.50000000  0.52151000  0.86414000  1.0
  C  C32  1  0.00000000  0.29405000  0.86330000  1.0
