# generated using pymatgen
data_Li8Y8In8Au8C
_symmetry_space_group_name_H-M   Pm
_cell_length_a   6.89380000
_cell_length_b   9.74930000
_cell_length_c   27.31200000
_cell_angle_alpha   90.00000000
_cell_angle_beta   90.00000000
_cell_angle_gamma   90.00000000
_symmetry_Int_Tables_number   6
_chemical_formula_structural   Li8Y8In8Au8C
_chemical_formula_sum   'Li8 Y8 In8 Au8 C1'
_cell_volume   1835.63199117
_cell_formula_units_Z   1
loop_
 _symmetry_equiv_pos_site_id
 _symmetry_equiv_pos_as_xyz
  1  'x, y, z'
  2  'x, -y, z'
loop_
 _atom_site_type_symbol
 _atom_site_label
 _atom_site_symmetry_multiplicity
 _atom_site_fract_x
 _atom_site_fract_y
 _atom_site_fract_z
 _atom_site_occupancy
  Li  Li0  2  0.50000000  0.25000000  0.86614000  1.0
  Li  Li1  2  0.50065000  0.25363000  0.04734000  1.0
  Li  Li2  1  0.00000000  0.00000000  0.95538000  1.0
  Li  Li3  1  0.00000000  0.50000000  0.95538000  1.0
  Li  Li4  1  0.02921000  0.00000000  0.17537000  1.0
  Li  Li5  1  0.20117000  0.50000000  0.19101000  1.0
  Y  Y6  2  0.75000000  0.25000000  0.95538000  1.0
  Y  Y7  2  0.78998000  0.26733000  0.13477000  1.0
  Y  Y8  1  0.23836000  0.00000000  0.05338000  1.0
  Y  Y9  1  0.23884000  0.50000000  0.05162000  1.0
  Y  Y10  1  0.25000000  0.00000000  0.86614000  1.0
  Y  Y11  1  0.25000000  0.50000000  0.86614000  1.0
  In  In12  2  0.25000000  0.25000000  0.95538000  1.0
  In  In13  2  0.25502000  0.23909000  0.14296000  1.0
  In  In14  1  0.74978000  0.50000000  0.04294000  1.0
  In  In15  1  0.75000000  0.00000000  0.86614000  1.0
  In  In16  1  0.75000000  0.50000000  0.86614000  1.0
  In  In17  1  0.75104000  0.00000000  0.04439000  1.0
  Au  Au18  2  0.00000000  0.25000000  0.86614000  1.0
  Au  Au19  2  0.00097000  0.25157000  0.04287000  1.0
  Au  Au20  1  0.50000000  0.00000000  0.95538000  1.0
  Au  Au21  1  0.50000000  0.50000000  0.95538000  1.0
  Au  Au22  1  0.52151000  0.50000000  0.13586000  1.0
  Au  Au23  1  0.60100000  0.00000000  0.14548000  1.0
  C  C24  1  0.29405000  0.00000000  0.13670000  1.0
