data_image0
_chemical_formula_structural       Li8Ge8Pd8Au8CO
_chemical_formula_sum              "Li8 Ge8 Pd8 Au8 C1 O1"
_cell_length_a       6.30991
_cell_length_b       8.92356
_cell_length_c       26.6927
_cell_angle_alpha    90
_cell_angle_beta     90
_cell_angle_gamma    90

_space_group_name_H-M_alt    "P 1"
_space_group_IT_number       1

loop_
  _space_group_symop_operation_xyz
  'x, y, z'

loop_
  _atom_site_type_symbol
  _atom_site_label
  _atom_site_symmetry_multiplicity
  _atom_site_fract_x
  _atom_site_fract_y
  _atom_site_fract_z
  _atom_site_occupancy
  Li  Li1       1.0  0.25000  0.00000  0.95821  1.0000
  Li  Li2       1.0  0.25000  0.50000  0.95821  1.0000
  Li  Li3       1.0  0.75000  0.25000  0.87463  1.0000
  Li  Li4       1.0  0.75000  0.75000  0.87463  1.0000
  Li  Li5       1.0  0.24808  0.49999  0.13261  1.0000
  Li  Li6       1.0  0.25666  0.99999  0.13345  1.0000
  Li  Li7       1.0  0.74710  0.74972  0.03869  1.0000
  Li  Li8       1.0  0.74710  0.25025  0.03869  1.0000
  Ge  Ge1       1.0  0.75000  0.00000  0.95821  1.0000
  Ge  Ge2       1.0  0.75000  0.50000  0.95821  1.0000
  Ge  Ge3       1.0  0.25000  0.25000  0.87463  1.0000
  Ge  Ge4       1.0  0.25000  0.75000  0.87463  1.0000
  Ge  Ge5       1.0  0.76571  0.49999  0.13105  1.0000
  Ge  Ge6       1.0  0.76216  0.99999  0.12919  1.0000
  Ge  Ge7       1.0  0.25424  0.74986  0.04279  1.0000
  Ge  Ge8       1.0  0.25424  0.25012  0.04278  1.0000
  Pd  Pd1       1.0  0.00000  0.25000  0.95821  1.0000
  Pd  Pd2       1.0  0.00000  0.75000  0.95821  1.0000
  Pd  Pd3       1.0  0.50000  0.50000  0.87463  1.0000
  Pd  Pd4       1.0  0.50000  0.00000  0.87463  1.0000
  Pd  Pd5       1.0  0.98874  0.75063  0.11761  1.0000
  Pd  Pd6       1.0  0.98873  0.24933  0.11761  1.0000
  Pd  Pd7       1.0  0.49745  0.99999  0.04501  1.0000
  Pd  Pd8       1.0  0.49762  0.49999  0.04572  1.0000
  Au  Au1       1.0  0.00000  0.00000  0.87463  1.0000
  Au  Au2       1.0  0.00000  0.50000  0.87463  1.0000
  Au  Au3       1.0  0.50000  0.75000  0.95821  1.0000
  Au  Au4       1.0  0.50000  0.25000  0.95821  1.0000
  Au  Au5       1.0  0.99443  0.49999  0.04359  1.0000
  Au  Au6       1.0  0.99746  0.99999  0.04332  1.0000
  Au  Au7       1.0  0.52043  0.25121  0.12333  1.0000
  Au  Au8       1.0  0.52043  0.74877  0.12334  1.0000
  C   C1        1.0  0.63658  0.00045  0.26723  1.0000
  O   O1        1.0  0.80030  0.00001  0.28490  1.0000
