# generated using pymatgen
data_Li8Ge8Pd8Au8CO
_symmetry_space_group_name_H-M   P1
_cell_length_a   6.30991000
_cell_length_b   8.92356000
_cell_length_c   26.69270000
_cell_angle_alpha   90.00000000
_cell_angle_beta   90.00000000
_cell_angle_gamma   90.00000000
_symmetry_Int_Tables_number   1
_chemical_formula_structural   Li8Ge8Pd8Au8CO
_chemical_formula_sum   'Li8 Ge8 Pd8 Au8 C1 O1'
_cell_volume   1502.98213472
_cell_formula_units_Z   1
loop_
 _symmetry_equiv_pos_site_id
 _symmetry_equiv_pos_as_xyz
  1  'x, y, z'
loop_
 _atom_site_type_symbol
 _atom_site_label
 _atom_site_symmetry_multiplicity
 _atom_site_fract_x
 _atom_site_fract_y
 _atom_site_fract_z
 _atom_site_occupancy
  Li  Li0  1  0.24808000  0.49999000  0.13261000  1.0
  Li  Li1  1  0.25000000  0.00000000  0.95821000  1.0
  Li  Li2  1  0.25000000  0.50000000  0.95821000  1.0
  Li  Li3  1  0.25666000  0.99999000  0.13345000  1.0
  Li  Li4  1  0.74710000  0.25025000  0.03869000  1.0
  Li  Li5  1  0.74710000  0.74972000  0.03869000  1.0
  Li  Li6  1  0.75000000  0.25000000  0.87463000  1.0
  Li  Li7  1  0.75000000  0.75000000  0.87463000  1.0
  Ge  Ge8  1  0.25000000  0.25000000  0.87463000  1.0
  Ge  Ge9  1  0.25000000  0.75000000  0.87463000  1.0
  Ge  Ge10  1  0.25424000  0.25012000  0.04278000  1.0
  Ge  Ge11  1  0.25424000  0.74986000  0.04279000  1.0
  Ge  Ge12  1  0.75000000  0.00000000  0.95821000  1.0
  Ge  Ge13  1  0.75000000  0.50000000  0.95821000  1.0
  Ge  Ge14  1  0.76216000  0.99999000  0.12919000  1.0
  Ge  Ge15  1  0.76571000  0.49999000  0.13105000  1.0
  Pd  Pd16  1  0.00000000  0.25000000  0.95821000  1.0
  Pd  Pd17  1  0.00000000  0.75000000  0.95821000  1.0
  Pd  Pd18  1  0.49745000  0.99999000  0.04501000  1.0
  Pd  Pd19  1  0.49762000  0.49999000  0.04572000  1.0
  Pd  Pd20  1  0.50000000  0.00000000  0.87463000  1.0
  Pd  Pd21  1  0.50000000  0.50000000  0.87463000  1.0
  Pd  Pd22  1  0.98873000  0.24933000  0.11761000  1.0
  Pd  Pd23  1  0.98874000  0.75063000  0.11761000  1.0
  Au  Au24  1  0.00000000  0.00000000  0.87463000  1.0
  Au  Au25  1  0.00000000  0.50000000  0.87463000  1.0
  Au  Au26  1  0.50000000  0.25000000  0.95821000  1.0
  Au  Au27  1  0.50000000  0.75000000  0.95821000  1.0
  Au  Au28  1  0.52043000  0.25121000  0.12333000  1.0
  Au  Au29  1  0.52043000  0.74877000  0.12334000  1.0
  Au  Au30  1  0.99443000  0.49999000  0.04359000  1.0
  Au  Au31  1  0.99746000  0.99999000  0.04332000  1.0
  C  C32  1  0.63658000  0.00045000  0.26723000  1.0
  O  O33  1  0.80030000  0.00001000  0.28490000  1.0
