# generated using pymatgen
data_Zn16Ag16CO
_symmetry_space_group_name_H-M   'P 1'
_cell_length_a   6.41951000
_cell_length_b   9.07856000
_cell_length_c   26.80890000
_cell_angle_alpha   90.00000000
_cell_angle_beta   90.00000000
_cell_angle_gamma   90.00000000
_symmetry_Int_Tables_number   1
_chemical_formula_structural   Zn16Ag16CO
_chemical_formula_sum   'Zn16 Ag16 C1 O1'
_cell_volume   1562.42019088
_cell_formula_units_Z   1
loop_
 _symmetry_equiv_pos_site_id
 _symmetry_equiv_pos_as_xyz
  1  'x, y, z'
loop_
 _atom_site_type_symbol
 _atom_site_label
 _atom_site_symmetry_multiplicity
 _atom_site_fract_x
 _atom_site_fract_y
 _atom_site_fract_z
 _atom_site_occupancy
  Zn  Zn0  1  0.25000000  0.00000000  0.87301000  1.0
  Zn  Zn1  1  0.25000000  0.75000000  0.95767000  1.0
  Zn  Zn2  1  0.24597000  0.00000000  0.04666000  1.0
  Zn  Zn3  1  0.26139000  0.74706000  0.13196000  1.0
  Zn  Zn4  1  0.25000000  0.50000000  0.87301000  1.0
  Zn  Zn5  1  0.25000000  0.25000000  0.95767000  1.0
  Zn  Zn6  1  0.25076000  0.50000000  0.04612000  1.0
  Zn  Zn7  1  0.26139000  0.25294000  0.13196000  1.0
  Zn  Zn8  1  0.75000000  0.00000000  0.87301000  1.0
  Zn  Zn9  1  0.75000000  0.75000000  0.95767000  1.0
  Zn  Zn10  1  0.75403000  0.00000000  0.04666000  1.0
  Zn  Zn11  1  0.73861000  0.74706000  0.13196000  1.0
  Zn  Zn12  1  0.75000000  0.50000000  0.87301000  1.0
  Zn  Zn13  1  0.75000000  0.25000000  0.95767000  1.0
  Zn  Zn14  1  0.74924000  0.50000000  0.04612000  1.0
  Zn  Zn15  1  0.73861000  0.25294000  0.13196000  1.0
  Ag  Ag16  1  0.00000000  0.75000000  0.87301000  1.0
  Ag  Ag17  1  0.00000000  0.00000000  0.95767000  1.0
  Ag  Ag18  1  0.00000000  0.74990000  0.04429000  1.0
  Ag  Ag19  1  0.00000000  0.00000000  0.13468000  1.0
  Ag  Ag20  1  0.00000000  0.25000000  0.87301000  1.0
  Ag  Ag21  1  0.00000000  0.50000000  0.95767000  1.0
  Ag  Ag22  1  0.00000000  0.25010000  0.04429000  1.0
  Ag  Ag23  1  0.00000000  0.50000000  0.13262000  1.0
  Ag  Ag24  1  0.50000000  0.75000000  0.87301000  1.0
  Ag  Ag25  1  0.50000000  0.00000000  0.95767000  1.0
  Ag  Ag26  1  0.50000000  0.75085000  0.04016000  1.0
  Ag  Ag27  1  0.50000000  0.00000000  0.13067000  1.0
  Ag  Ag28  1  0.50000000  0.25000000  0.87301000  1.0
  Ag  Ag29  1  0.50000000  0.50000000  0.95767000  1.0
  Ag  Ag30  1  0.50000000  0.24915000  0.04016000  1.0
  Ag  Ag31  1  0.50000000  0.50000000  0.13324000  1.0
  C  C32  1  0.00000000  0.00000000  0.22486000  1.0
  O  O33  1  0.00000000  0.00000000  0.26733000  1.0
