# generated using pymatgen
data_Zn16Ag16CO
_symmetry_space_group_name_H-M   Pmm2
_cell_length_a   6.41951000
_cell_length_b   9.07856000
_cell_length_c   26.80890000
_cell_angle_alpha   90.00000000
_cell_angle_beta   90.00000000
_cell_angle_gamma   90.00000000
_symmetry_Int_Tables_number   25
_chemical_formula_structural   Zn16Ag16CO
_chemical_formula_sum   'Zn16 Ag16 C1 O1'
_cell_volume   1562.42019088
_cell_formula_units_Z   1
loop_
 _symmetry_equiv_pos_site_id
 _symmetry_equiv_pos_as_xyz
  1  'x, y, z'
  2  '-x, -y, z'
  3  '-x, y, z'
  4  'x, -y, z'
loop_
 _atom_site_type_symbol
 _atom_site_label
 _atom_site_symmetry_multiplicity
 _atom_site_fract_x
 _atom_site_fract_y
 _atom_site_fract_z
 _atom_site_occupancy
  Zn  Zn0  4  0.25000000  0.25000000  0.95767000  1.0
  Zn  Zn1  4  0.26139000  0.25294000  0.13196000  1.0
  Zn  Zn2  2  0.24597000  0.00000000  0.04666000  1.0
  Zn  Zn3  2  0.25000000  0.00000000  0.87301000  1.0
  Zn  Zn4  2  0.25000000  0.50000000  0.87301000  1.0
  Zn  Zn5  2  0.25076000  0.50000000  0.04612000  1.0
  Ag  Ag6  2  0.00000000  0.25000000  0.87301000  1.0
  Ag  Ag7  2  0.00000000  0.25010000  0.04429000  1.0
  Ag  Ag8  2  0.50000000  0.24915000  0.04016000  1.0
  Ag  Ag9  2  0.50000000  0.25000000  0.87301000  1.0
  Ag  Ag10  1  0.00000000  0.00000000  0.13468000  1.0
  Ag  Ag11  1  0.00000000  0.00000000  0.95767000  1.0
  Ag  Ag12  1  0.00000000  0.50000000  0.13262000  1.0
  Ag  Ag13  1  0.00000000  0.50000000  0.95767000  1.0
  Ag  Ag14  1  0.50000000  0.00000000  0.13067000  1.0
  Ag  Ag15  1  0.50000000  0.00000000  0.95767000  1.0
  Ag  Ag16  1  0.50000000  0.50000000  0.13324000  1.0
  Ag  Ag17  1  0.50000000  0.50000000  0.95767000  1.0
  C  C18  1  0.00000000  0.00000000  0.22486000  1.0
  O  O19  1  0.00000000  0.00000000  0.26733000  1.0
