# generated using pymatgen
data_Si16Rh16CO
_symmetry_space_group_name_H-M   Pmm2
_cell_length_a   5.95743000
_cell_length_b   8.42507000
_cell_length_c   26.31880000
_cell_angle_alpha   90.00000000
_cell_angle_beta   90.00000000
_cell_angle_gamma   90.00000000
_symmetry_Int_Tables_number   25
_chemical_formula_structural   Si16Rh16CO
_chemical_formula_sum   'Si16 Rh16 C1 O1'
_cell_volume   1320.98701863
_cell_formula_units_Z   1
loop_
 _symmetry_equiv_pos_site_id
 _symmetry_equiv_pos_as_xyz
  1  'x, y, z'
  2  '-x, -y, z'
  3  '-x, y, z'
  4  'x, -y, z'
loop_
 _atom_site_type_symbol
 _atom_site_label
 _atom_site_symmetry_multiplicity
 _atom_site_fract_x
 _atom_site_fract_y
 _atom_site_fract_z
 _atom_site_occupancy
  Si  Si0  2  0.00000000  0.25000000  0.87996000  1.0
  Si  Si1  2  0.00000000  0.25124000  0.04225000  1.0
  Si  Si2  2  0.50000000  0.24917000  0.04202000  1.0
  Si  Si3  2  0.50000000  0.25000000  0.87996000  1.0
  Si  Si4  1  0.00000000  0.00000000  0.12957000  1.0
  Si  Si5  1  0.00000000  0.00000000  0.95999000  1.0
  Si  Si6  1  0.00000000  0.50000000  0.12402000  1.0
  Si  Si7  1  0.00000000  0.50000000  0.95999000  1.0
  Si  Si8  1  0.50000000  0.00000000  0.12318000  1.0
  Si  Si9  1  0.50000000  0.00000000  0.95999000  1.0
  Si  Si10  1  0.50000000  0.50000000  0.12099000  1.0
  Si  Si11  1  0.50000000  0.50000000  0.95999000  1.0
  Rh  Rh12  4  0.24957000  0.24659000  0.11405000  1.0
  Rh  Rh13  4  0.24999000  0.25000000  0.95999000  1.0
  Rh  Rh14  2  0.24999000  0.00000000  0.87996000  1.0
  Rh  Rh15  2  0.24999000  0.50000000  0.87996000  1.0
  Rh  Rh16  2  0.25032000  0.50000000  0.03807000  1.0
  Rh  Rh17  2  0.25157000  0.00000000  0.03633000  1.0
  C  C18  1  0.00000000  0.00000000  0.20094000  1.0
  O  O19  1  0.00000000  0.00000000  0.24474000  1.0
