# generated using pymatgen
data_Al4V4Ni8C
_symmetry_space_group_name_H-M   'P 1'
_cell_length_a   5.81624000
_cell_length_b   5.81624000
_cell_length_c   24.36220000
_cell_angle_alpha   90.00000000
_cell_angle_beta   90.00000000
_cell_angle_gamma   90.00000000
_symmetry_Int_Tables_number   1
_chemical_formula_structural   Al4V4Ni8C
_chemical_formula_sum   'Al4 V4 Ni8 C1'
_cell_volume   824.14028191
_cell_formula_units_Z   1
loop_
 _symmetry_equiv_pos_site_id
 _symmetry_equiv_pos_as_xyz
  1  'x, y, z'
loop_
 _atom_site_type_symbol
 _atom_site_label
 _atom_site_symmetry_multiplicity
 _atom_site_fract_x
 _atom_site_fract_y
 _atom_site_fract_z
 _atom_site_occupancy
  Al  Al0  1  0.75000000  0.25000000  0.08953000  1
  Al  Al1  1  0.25000000  0.75000000  0.08953000  1
  Al  Al2  1  0.75000000  0.75000000  0.97016000  1
  Al  Al3  1  0.25000000  0.25000000  0.97016000  1
  V  V4  1  0.75000000  0.25000000  0.97016000  1
  V  V5  1  0.75000000  0.75000000  0.08953000  1
  V  V6  1  0.25000000  0.25000000  0.08953000  1
  V  V7  1  0.25000000  0.75000000  0.97016000  1
  Ni  Ni8  1  0.50000000  0.50000000  0.02984000  1
  Ni  Ni9  1  0.00000000  0.00000000  0.91047000  1
  Ni  Ni10  1  0.50000000  0.00000000  0.02984000  1
  Ni  Ni11  1  0.00000000  0.50000000  0.91047000  1
  Ni  Ni12  1  0.00000000  0.00000000  0.02984000  1
  Ni  Ni13  1  0.50000000  0.50000000  0.91047000  1
  Ni  Ni14  1  0.00000000  0.50000000  0.02984000  1
  Ni  Ni15  1  0.50000000  0.00000000  0.91047000  1
  C  C16  1  0.50000000  0.50000000  0.12237000  1
