# generated using pymatgen
data_Li8Y8Mg8In8CO
_symmetry_space_group_name_H-M   'P 1'
_cell_length_a   10.02180000
_cell_length_b   7.08651000
_cell_length_c   27.51640000
_cell_angle_alpha   90.00000000
_cell_angle_beta   90.00000000
_cell_angle_gamma   90.00000000
_symmetry_Int_Tables_number   1
_chemical_formula_structural   Li8Y8Mg8In8CO
_chemical_formula_sum   'Li8 Y8 Mg8 In8 C1 O1'
_cell_volume   1954.20333395
_cell_formula_units_Z   1
loop_
 _symmetry_equiv_pos_site_id
 _symmetry_equiv_pos_as_xyz
  1  'x, y, z'
loop_
 _atom_site_type_symbol
 _atom_site_label
 _atom_site_symmetry_multiplicity
 _atom_site_fract_x
 _atom_site_fract_y
 _atom_site_fract_z
 _atom_site_occupancy
  Li  Li0  1  0.75001000  0.00000000  0.04553000  1.0
  Li  Li1  1  0.24999000  0.00000000  0.04553000  1.0
  Li  Li2  1  0.00000000  0.50000000  0.13658000  1.0
  Li  Li3  1  0.50000000  0.50000000  0.13658000  1.0
  Li  Li4  1  0.25981000  0.91695000  0.82226000  1.0
  Li  Li5  1  0.74019000  0.91695000  0.82226000  1.0
  Li  Li6  1  0.50000000  0.47342000  0.94953000  1.0
  Li  Li7  1  0.00000000  0.48496000  0.94712000  1.0
  Y  Y8  1  0.50000000  0.25000000  0.04553000  1.0
  Y  Y9  1  0.00000000  0.25000000  0.04553000  1.0
  Y  Y10  1  0.75001000  0.75000000  0.13658000  1.0
  Y  Y11  1  0.24999000  0.75000000  0.13658000  1.0
  Y  Y12  1  0.00000000  0.20786000  0.85828000  1.0
  Y  Y13  1  0.50000000  0.20490000  0.85765000  1.0
  Y  Y14  1  0.25074000  0.74512000  0.94652000  1.0
  Y  Y15  1  0.74926000  0.74512000  0.94652000  1.0
  Mg  Mg16  1  0.50000000  0.75000000  0.04553000  1.0
  Mg  Mg17  1  0.00000000  0.75000000  0.04553000  1.0
  Mg  Mg18  1  0.75001000  0.25000000  0.13658000  1.0
  Mg  Mg19  1  0.24999000  0.25000000  0.13658000  1.0
  Mg  Mg20  1  0.00000000  0.73246000  0.85783000  1.0
  Mg  Mg21  1  0.50000000  0.72678000  0.86600000  1.0
  Mg  Mg22  1  0.24902000  0.24357000  0.95176000  1.0
  Mg  Mg23  1  0.75098000  0.24357000  0.95176000  1.0
  In  In24  1  0.50000000  0.00000000  0.13658000  1.0
  In  In25  1  0.00000000  0.00000000  0.13658000  1.0
  In  In26  1  0.25001000  0.50000000  0.04553000  1.0
  In  In27  1  0.74999000  0.50000000  0.04553000  1.0
  In  In28  1  0.00000000  0.99178000  0.95578000  1.0
  In  In29  1  0.50000000  0.99414000  0.95729000  1.0
  In  In30  1  0.75134000  0.47298000  0.85492000  1.0
  In  In31  1  0.24866000  0.47298000  0.85492000  1.0
  C  C32  1  0.50000000  0.96587000  0.79892000  1.0
  O  O33  1  0.50000000  0.87940000  0.76119000  1.0
