# generated using pymatgen
data_Y8In8Pd8Pt8CO
_symmetry_space_group_name_H-M   Pm
_cell_length_a   6.82696000
_cell_length_b   9.65478000
_cell_length_c   27.24110000
_cell_angle_alpha   90.00000000
_cell_angle_beta   90.00000000
_cell_angle_gamma   90.00000000
_symmetry_Int_Tables_number   6
_chemical_formula_structural   Y8In8Pd8Pt8CO
_chemical_formula_sum   'Y8 In8 Pd8 Pt8 C1 O1'
_cell_volume   1795.53709078
_cell_formula_units_Z   1
loop_
 _symmetry_equiv_pos_site_id
 _symmetry_equiv_pos_as_xyz
  1  'x, y, z'
  2  'x, -y, z'
loop_
 _atom_site_type_symbol
 _atom_site_label
 _atom_site_symmetry_multiplicity
 _atom_site_fract_x
 _atom_site_fract_y
 _atom_site_fract_z
 _atom_site_occupancy
  Y  Y0  2  0.50000000  0.25000000  0.86709000  1.0
  Y  Y1  2  0.50181000  0.25190000  0.04435000  1.0
  Y  Y2  1  -0.00000000  0.00000000  0.95570000  1.0
  Y  Y3  1  0.00000000  0.50000000  0.95570000  1.0
  Y  Y4  1  0.00177000  0.50000000  0.13500000  1.0
  Y  Y5  1  0.00289000  0.00000000  0.13469000  1.0
  In  In6  2  0.00000000  0.25000000  0.86709000  1.0
  In  In7  2  0.99943000  0.24845000  0.04683000  1.0
  In  In8  1  0.49728000  0.50000000  0.13711000  1.0
  In  In9  1  0.49774000  0.00000000  0.13707000  1.0
  In  In10  1  0.50000000  0.00000000  0.95570000  1.0
  In  In11  1  0.50000000  0.50000000  0.95570000  1.0
  Pd  Pd12  2  0.73172000  0.25086000  0.13078000  1.0
  Pd  Pd13  2  0.75000000  0.25000000  0.95570000  1.0
  Pd  Pd14  1  0.24190000  0.50000000  0.04673000  1.0
  Pd  Pd15  1  0.25000000  0.00000000  0.86709000  1.0
  Pd  Pd16  1  0.25000000  0.50000000  0.86709000  1.0
  Pd  Pd17  1  0.25100000  0.00000000  0.04544000  1.0
  Pt  Pt18  2  0.25000000  0.25000000  0.95570000  1.0
  Pt  Pt19  2  0.26064000  0.25092000  0.12817000  1.0
  Pt  Pt20  1  0.75000000  0.00000000  0.86709000  1.0
  Pt  Pt21  1  0.75000000  0.50000000  0.86709000  1.0
  Pt  Pt22  1  0.75350000  0.00000000  0.04579000  1.0
  Pt  Pt23  1  0.76260000  0.50000000  0.04743000  1.0
  C  C24  1  0.99543000  0.00000000  0.22961000  1.0
  O  O25  1  0.99567000  0.00000000  0.27150000  1.0
