# generated using pymatgen
data_Be16Ni16C
_symmetry_space_group_name_H-M   'P 1'
_cell_length_a   5.23991000
_cell_length_b   7.41035000
_cell_length_c   25.55780000
_cell_angle_alpha   90.00000000
_cell_angle_beta   90.00000000
_cell_angle_gamma   90.00000000
_symmetry_Int_Tables_number   1
_chemical_formula_structural   Be16Ni16C
_chemical_formula_sum   'Be16 Ni16 C1'
_cell_volume   992.39830922
_cell_formula_units_Z   1
loop_
 _symmetry_equiv_pos_site_id
 _symmetry_equiv_pos_as_xyz
  1  'x, y, z'
loop_
 _atom_site_type_symbol
 _atom_site_label
 _atom_site_symmetry_multiplicity
 _atom_site_fract_x
 _atom_site_fract_y
 _atom_site_fract_z
 _atom_site_occupancy
  Be  Be0  1  0.75000000  0.75001000  0.89127000  1.0
  Be  Be1  1  0.75000000  0.00000000  0.96376000  1.0
  Be  Be2  1  0.75132000  0.75068000  0.03669000  1.0
  Be  Be3  1  0.70590000  0.00000000  0.11087000  1.0
  Be  Be4  1  0.75000000  0.24999000  0.89127000  1.0
  Be  Be5  1  0.75000000  0.50000000  0.96376000  1.0
  Be  Be6  1  0.75132000  0.24932000  0.03669000  1.0
  Be  Be7  1  0.76603000  0.50000000  0.10940000  1.0
  Be  Be8  1  0.25000000  0.75001000  0.89127000  1.0
  Be  Be9  1  0.25000000  0.00000000  0.96376000  1.0
  Be  Be10  1  0.24868000  0.75068000  0.03669000  1.0
  Be  Be11  1  0.29410000  0.00000000  0.11087000  1.0
  Be  Be12  1  0.25000000  0.24999000  0.89127000  1.0
  Be  Be13  1  0.25000000  0.50000000  0.96376000  1.0
  Be  Be14  1  0.24868000  0.24932000  0.03669000  1.0
  Be  Be15  1  0.23397000  0.50000000  0.10940000  1.0
  Ni  Ni16  1  0.00000000  0.00000000  0.89127000  1.0
  Ni  Ni17  1  0.00000000  0.75001000  0.96376000  1.0
  Ni  Ni18  1  0.00000000  0.00000000  0.03618000  1.0
  Ni  Ni19  1  0.00000000  0.24168000  0.10893000  1.0
  Ni  Ni20  1  0.00000000  0.50000000  0.89127000  1.0
  Ni  Ni21  1  0.00000000  0.24999000  0.96376000  1.0
  Ni  Ni22  1  0.00000000  0.50000000  0.03693000  1.0
  Ni  Ni23  1  0.00000000  0.75832000  0.10893000  1.0
  Ni  Ni24  1  0.50000000  0.00000000  0.89127000  1.0
  Ni  Ni25  1  0.50000000  0.75001000  0.96376000  1.0
  Ni  Ni26  1  0.50000000  0.00000000  0.03545000  1.0
  Ni  Ni27  1  0.50000000  0.26558000  0.10645000  1.0
  Ni  Ni28  1  0.50000000  0.50000000  0.89127000  1.0
  Ni  Ni29  1  0.50000000  0.24999000  0.96376000  1.0
  Ni  Ni30  1  0.50000000  0.50000000  0.03562000  1.0
  Ni  Ni31  1  0.50000000  0.73442000  0.10645000  1.0
  C  C32  1  0.00000000  0.00000000  0.13335000  1.0
