# generated using pymatgen
data_Li8In8Pd8Rh8C
_symmetry_space_group_name_H-M   Pm
_cell_length_a   6.29773000
_cell_length_b   8.90634000
_cell_length_c   26.67980000
_cell_angle_alpha   90.00000000
_cell_angle_beta   90.00000000
_cell_angle_gamma   90.00000000
_symmetry_Int_Tables_number   6
_chemical_formula_structural   Li8In8Pd8Rh8C
_chemical_formula_sum   'Li8 In8 Pd8 Rh8 C1'
_cell_volume   1496.46263460
_cell_formula_units_Z   1
loop_
 _symmetry_equiv_pos_site_id
 _symmetry_equiv_pos_as_xyz
  1  'x, y, z'
  2  'x, -y, z'
loop_
 _atom_site_type_symbol
 _atom_site_label
 _atom_site_symmetry_multiplicity
 _atom_site_fract_x
 _atom_site_fract_y
 _atom_site_fract_z
 _atom_site_occupancy
  Li  Li0  2  0.49715000  0.25052000  0.04330000  1.0
  Li  Li1  2  0.50000000  0.25002000  0.87482000  1.0
  Li  Li2  1  0.00000000  0.00000000  0.95827000  1.0
  Li  Li3  1  0.00000000  0.50000000  0.95827000  1.0
  Li  Li4  1  0.95564000  0.00000000  0.11548000  1.0
  Li  Li5  1  0.99642000  0.50000000  0.13245000  1.0
  In  In6  2  0.00000000  0.24998000  0.87482000  1.0
  In  In7  2  0.00053000  0.24728000  0.04137000  1.0
  In  In8  1  0.46917000  0.50000000  0.13212000  1.0
  In  In9  1  0.50000000  0.00000000  0.95827000  1.0
  In  In10  1  0.50000000  0.50000000  0.95827000  1.0
  In  In11  1  0.58845000  0.00000000  0.14999000  1.0
  Pd  Pd12  2  0.74146000  0.26488000  0.12189000  1.0
  Pd  Pd13  2  0.75000000  0.24998000  0.95827000  1.0
  Pd  Pd14  1  0.24581000  0.50000000  0.04306000  1.0
  Pd  Pd15  1  0.25000000  0.00000000  0.87482000  1.0
  Pd  Pd16  1  0.25000000  0.50000000  0.87482000  1.0
  Pd  Pd17  1  0.26180000  0.00000000  0.04445000  1.0
  Rh  Rh18  2  0.24399000  0.19915000  0.12947000  1.0
  Rh  Rh19  2  0.25000000  0.24998000  0.95827000  1.0
  Rh  Rh20  1  0.74121000  0.00000000  0.04100000  1.0
  Rh  Rh21  1  0.74658000  0.50000000  0.04376000  1.0
  Rh  Rh22  1  0.75000000  0.00000000  0.87482000  1.0
  Rh  Rh23  1  0.75000000  0.50000000  0.87482000  1.0
  C  C24  1  0.22773000  0.00000000  0.15012000  1.0
