# generated using pymatgen
data_InSb
_symmetry_space_group_name_H-M   'P 1'
_cell_length_a   7.67805000
_cell_length_b   10.85840000
_cell_length_c   28.14380000
_cell_angle_alpha   90.00000000
_cell_angle_beta   90.00000000
_cell_angle_gamma   90.00000000
_symmetry_Int_Tables_number   1
_chemical_formula_structural   InSb
_chemical_formula_sum   'In16 Sb16'
_cell_volume   2346.38626578
_cell_formula_units_Z   16
loop_
 _symmetry_equiv_pos_site_id
 _symmetry_equiv_pos_as_xyz
  1  'x, y, z'
loop_
 _atom_site_type_symbol
 _atom_site_label
 _atom_site_symmetry_multiplicity
 _atom_site_fract_x
 _atom_site_fract_y
 _atom_site_fract_z
 _atom_site_occupancy
  In  In0  1  0.00000000  0.00000000  0.85532000  1.0
  In  In1  1  0.00000000  0.25000000  0.95177000  1.0
  In  In2  1  0.99997000  0.00002000  0.05126000  1.0
  In  In3  1  0.00004000  0.24996000  0.14638000  1.0
  In  In4  1  0.00000000  0.50000000  0.85532000  1.0
  In  In5  1  0.00000000  0.75000000  0.95177000  1.0
  In  In6  1  0.99998000  0.50004000  0.05126000  1.0
  In  In7  1  0.99996000  0.75005000  0.14635000  1.0
  In  In8  1  0.50000000  0.00000000  0.85532000  1.0
  In  In9  1  0.50000000  0.25000000  0.95177000  1.0
  In  In10  1  0.50000000  0.00006000  0.05128000  1.0
  In  In11  1  0.49994000  0.24990000  0.14642000  1.0
  In  In12  1  0.50000000  0.50000000  0.85532000  1.0
  In  In13  1  0.50000000  0.75000000  0.95177000  1.0
  In  In14  1  0.50011000  0.50003000  0.05129000  1.0
  In  In15  1  0.50008000  0.75009000  0.14640000  1.0
  Sb  Sb16  1  0.25000000  0.25000000  0.85532000  1.0
  Sb  Sb17  1  0.25000000  0.00000000  0.95177000  1.0
  Sb  Sb18  1  0.25000000  0.25007000  0.04226000  1.0
  Sb  Sb19  1  0.24997000  0.99998000  0.14094000  1.0
  Sb  Sb20  1  0.25000000  0.75000000  0.85532000  1.0
  Sb  Sb21  1  0.25000000  0.50000000  0.95177000  1.0
  Sb  Sb22  1  0.25003000  0.74998000  0.04226000  1.0
  Sb  Sb23  1  0.25001000  0.50001000  0.14091000  1.0
  Sb  Sb24  1  0.75000000  0.25000000  0.85532000  1.0
  Sb  Sb25  1  0.75000000  0.00000000  0.95177000  1.0
  Sb  Sb26  1  0.75000000  0.25003000  0.04227000  1.0
  Sb  Sb27  1  0.75002000  0.00002000  0.14095000  1.0
  Sb  Sb28  1  0.75000000  0.75000000  0.85532000  1.0
  Sb  Sb29  1  0.75000000  0.50000000  0.95177000  1.0
  Sb  Sb30  1  0.74998000  0.75002000  0.04225000  1.0
  Sb  Sb31  1  0.75002000  0.49996000  0.14094000  1.0
