# generated using pymatgen
data_Y4Sc4Ga4Pd4CO
_symmetry_space_group_name_H-M   'P 1'
_cell_length_a   7.06732000
_cell_length_b   6.83834000
_cell_length_c   25.12490000
_cell_angle_alpha   90.00000000
_cell_angle_beta   90.00000000
_cell_angle_gamma   90.00000000
_symmetry_Int_Tables_number   1
_chemical_formula_structural   Y4Sc4Ga4Pd4CO
_chemical_formula_sum   'Y4 Sc4 Ga4 Pd4 C1 O1'
_cell_volume   1214.25468548
_cell_formula_units_Z   1
loop_
 _symmetry_equiv_pos_site_id
 _symmetry_equiv_pos_as_xyz
  1  'x, y, z'
loop_
 _atom_site_type_symbol
 _atom_site_label
 _atom_site_symmetry_multiplicity
 _atom_site_fract_x
 _atom_site_fract_y
 _atom_site_fract_z
 _atom_site_occupancy
  Y  Y0  1  0.50000000  0.25967000  0.96600000  1.0
  Y  Y1  1  0.50000000  0.78800000  0.10846000  1.0
  Y  Y2  1  0.00000000  0.25967000  0.96600000  1.0
  Y  Y3  1  0.00000000  0.78250000  0.10494000  1.0
  Sc  Sc4  1  0.50000000  0.75967000  0.96600000  1.0
  Sc  Sc5  1  0.50000000  0.27286000  0.09511000  1.0
  Sc  Sc6  1  0.00000000  0.75967000  0.96600000  1.0
  Sc  Sc7  1  0.00000000  0.26823000  0.09269000  1.0
  Ga  Ga8  1  0.75000000  0.00000000  0.89801000  1.0
  Ga  Ga9  1  0.74839000  0.53440000  0.04107000  1.0
  Ga  Ga10  1  0.25000000  0.00000000  0.89801000  1.0
  Ga  Ga11  1  0.25161000  0.53440000  0.04107000  1.0
  Pd  Pd12  1  0.75000000  0.50000000  0.89801000  1.0
  Pd  Pd13  1  0.74872000  0.97851000  0.03447000  1.0
  Pd  Pd14  1  0.25000000  0.50000000  0.89801000  1.0
  Pd  Pd15  1  0.25128000  0.97851000  0.03447000  1.0
  C  C16  1  0.50000000  0.27629000  0.18439000  1.0
  O  O17  1  0.50000000  0.28077000  0.23076000  1.0
