# generated using pymatgen
data_Li4Al4Ge4Pd4C
_symmetry_space_group_name_H-M   Pm
_cell_length_a   5.46300000
_cell_length_b   8.09626000
_cell_length_c   24.08560000
_cell_angle_alpha   90.00000000
_cell_angle_beta   90.00000000
_cell_angle_gamma   90.00000000
_symmetry_Int_Tables_number   6
_chemical_formula_structural   Li4Al4Ge4Pd4C
_chemical_formula_sum   'Li4 Al4 Ge4 Pd4 C1'
_cell_volume   1065.30291785
_cell_formula_units_Z   1
loop_
 _symmetry_equiv_pos_site_id
 _symmetry_equiv_pos_as_xyz
  1  'x, y, z'
  2  'x, -y, z'
loop_
 _atom_site_type_symbol
 _atom_site_label
 _atom_site_symmetry_multiplicity
 _atom_site_fract_x
 _atom_site_fract_y
 _atom_site_fract_z
 _atom_site_occupancy
  Li  Li0  2  0.31612000  0.20176000  0.09469000  1.0
  Li  Li1  2  0.73119000  0.24999000  0.97173000  1.0
  Al  Al2  1  0.00000000  0.00000000  0.91519000  1.0
  Al  Al3  1  0.00000000  0.50000000  0.91519000  1.0
  Al  Al4  1  0.45052000  0.00000000  0.01431000  1.0
  Al  Al5  1  0.45976000  0.50000000  0.02401000  1.0
  Ge  Ge6  2  0.23119000  0.24999000  0.97173000  1.0
  Ge  Ge7  2  0.82529000  0.20439000  0.10107000  1.0
  Pd  Pd8  1  0.50000000  0.00000000  0.91519000  1.0
  Pd  Pd9  1  0.50000000  0.50000000  0.91519000  1.0
  Pd  Pd10  1  0.92591000  0.50000000  0.03658000  1.0
  Pd  Pd11  1  0.97592000  0.00000000  0.02684000  1.0
  C  C12  1  0.61830000  0.00000000  0.08602000  1.0
