# generated using pymatgen
data_Li16Zn8Ge8C
_symmetry_space_group_name_H-M   'P 1'
_cell_length_a   8.75246000
_cell_length_b   6.18893000
_cell_length_c   26.56430000
_cell_angle_alpha   90.00000000
_cell_angle_beta   90.00000000
_cell_angle_gamma   90.00000000
_symmetry_Int_Tables_number   1
_chemical_formula_structural   Li16Zn8Ge8C
_chemical_formula_sum   'Li16 Zn8 Ge8 C1'
_cell_volume   1438.94462579
_cell_formula_units_Z   1
loop_
 _symmetry_equiv_pos_site_id
 _symmetry_equiv_pos_as_xyz
  1  'x, y, z'
loop_
 _atom_site_type_symbol
 _atom_site_label
 _atom_site_symmetry_multiplicity
 _atom_site_fract_x
 _atom_site_fract_y
 _atom_site_fract_z
 _atom_site_occupancy
  Li  Li0  1  0.75000000  0.00000000  0.12356000  1.0
  Li  Li1  1  0.00000000  0.50000000  0.04119000  1.0
  Li  Li2  1  0.50000000  0.50000000  0.04119000  1.0
  Li  Li3  1  0.25000000  0.00000000  0.12356000  1.0
  Li  Li4  1  0.00000000  0.25000000  0.12356000  1.0
  Li  Li5  1  0.50000000  0.25000000  0.12356000  1.0
  Li  Li6  1  0.25000000  0.75000000  0.04119000  1.0
  Li  Li7  1  0.75000000  0.75000000  0.04119000  1.0
  Li  Li8  1  0.25050000  0.98765000  0.95448000  1.0
  Li  Li9  1  0.50000000  0.46005000  0.87828000  1.0
  Li  Li10  1  0.00000000  0.53767000  0.86556000  1.0
  Li  Li11  1  0.74950000  0.98765000  0.95448000  1.0
  Li  Li12  1  0.50000000  0.24266000  0.96107000  1.0
  Li  Li13  1  0.00000000  0.25699000  0.94855000  1.0
  Li  Li14  1  0.72137000  0.75063000  0.86070000  1.0
  Li  Li15  1  0.27863000  0.75063000  0.86070000  1.0
  Zn  Zn16  1  0.75000000  0.25000000  0.04119000  1.0
  Zn  Zn17  1  0.25000000  0.25000000  0.04119000  1.0
  Zn  Zn18  1  0.50000000  0.75000000  0.12356000  1.0
  Zn  Zn19  1  0.00000000  0.75000000  0.12356000  1.0
  Zn  Zn20  1  0.23597000  0.26005000  0.87165000  1.0
  Zn  Zn21  1  0.76403000  0.26005000  0.87165000  1.0
  Zn  Zn22  1  0.00000000  0.74231000  0.96076000  1.0
  Zn  Zn23  1  0.50000000  0.75482000  0.95562000  1.0
  Ge  Ge24  1  0.50000000  1.00000000  0.04119000  1.0
  Ge  Ge25  1  0.75000000  0.50000000  0.12356000  1.0
  Ge  Ge26  1  0.00000000  1.00000000  0.04119000  1.0
  Ge  Ge27  1  0.25000000  0.50000000  0.12356000  1.0
  Ge  Ge28  1  0.00000000  0.92739000  0.86825000  1.0
  Ge  Ge29  1  0.25438000  0.51004000  0.95539000  1.0
  Ge  Ge30  1  0.50000000  0.01694000  0.87243000  1.0
  Ge  Ge31  1  0.74562000  0.51004000  0.95539000  1.0
  C  C32  1  0.00000000  0.22872000  0.86479000  1.0
