# generated using pymatgen
data_Li16Zn8Ge8C
_symmetry_space_group_name_H-M   Pm
_cell_length_a   6.18893000
_cell_length_b   8.75246000
_cell_length_c   26.56430000
_cell_angle_alpha   90.00000000
_cell_angle_beta   90.00000000
_cell_angle_gamma   90.00000000
_symmetry_Int_Tables_number   6
_chemical_formula_structural   Li16Zn8Ge8C
_chemical_formula_sum   'Li16 Zn8 Ge8 C1'
_cell_volume   1438.94462579
_cell_formula_units_Z   1
loop_
 _symmetry_equiv_pos_site_id
 _symmetry_equiv_pos_as_xyz
  1  'x, y, z'
  2  'x, -y, z'
loop_
 _atom_site_type_symbol
 _atom_site_label
 _atom_site_symmetry_multiplicity
 _atom_site_fract_x
 _atom_site_fract_y
 _atom_site_fract_z
 _atom_site_occupancy
  Li  Li0  2  0.00000000  0.25000000  0.87644000  1.0
  Li  Li1  2  0.75000000  0.25000000  0.95881000  1.0
  Li  Li2  2  0.75063000  0.27863000  0.13930000  1.0
  Li  Li3  2  0.98765000  0.25050000  0.04552000  1.0
  Li  Li4  1  0.24266000  0.50000000  0.03893000  1.0
  Li  Li5  1  0.25000000  0.00000000  0.87644000  1.0
  Li  Li6  1  0.25000000  0.50000000  0.87644000  1.0
  Li  Li7  1  0.25699000  0.00000000  0.05145000  1.0
  Li  Li8  1  0.46005000  0.50000000  0.12172000  1.0
  Li  Li9  1  0.50000000  0.00000000  0.95881000  1.0
  Li  Li10  1  0.50000000  0.50000000  0.95881000  1.0
  Li  Li11  1  0.53767000  0.00000000  0.13444000  1.0
  Zn  Zn12  2  0.25000000  0.25000000  0.95881000  1.0
  Zn  Zn13  2  0.26005000  0.23597000  0.12835000  1.0
  Zn  Zn14  1  0.74231000  0.00000000  0.03924000  1.0
  Zn  Zn15  1  0.75000000  0.00000000  0.87644000  1.0
  Zn  Zn16  1  0.75000000  0.50000000  0.87644000  1.0
  Zn  Zn17  1  0.75482000  0.50000000  0.04438000  1.0
  Ge  Ge18  2  0.50000000  0.25000000  0.87644000  1.0
  Ge  Ge19  2  0.51004000  0.25438000  0.04461000  1.0
  Ge  Ge20  1  -0.00000000  0.50000000  0.95881000  1.0
  Ge  Ge21  1  -0.00000000  0.00000000  0.95881000  1.0
  Ge  Ge22  1  0.01694000  0.50000000  0.12757000  1.0
  Ge  Ge23  1  0.92739000  0.00000000  0.13175000  1.0
  C  C24  1  0.22872000  0.00000000  0.13521000  1.0
