# generated using pymatgen
data_Co8Pt24C
_symmetry_space_group_name_H-M   Pmm2
_cell_length_a   7.83592000
_cell_length_b   7.83592000
_cell_length_c   25.87690000
_cell_angle_alpha   90.00000000
_cell_angle_beta   90.00000000
_cell_angle_gamma   90.00000000
_symmetry_Int_Tables_number   25
_chemical_formula_structural   Co8Pt24C
_chemical_formula_sum   'Co8 Pt24 C1'
_cell_volume   1588.88415625
_cell_formula_units_Z   1
loop_
 _symmetry_equiv_pos_site_id
 _symmetry_equiv_pos_as_xyz
  1  'x, y, z'
  2  '-x, -y, z'
  3  '-x, y, z'
  4  'x, -y, z'
loop_
 _atom_site_type_symbol
 _atom_site_label
 _atom_site_symmetry_multiplicity
 _atom_site_fract_x
 _atom_site_fract_y
 _atom_site_fract_z
 _atom_site_occupancy
  Co  Co0  2  0.25000000  0.00000000  0.11356000  1.0
  Co  Co1  2  0.25000000  0.00000000  0.96215000  1.0
  Co  Co2  2  0.25000000  0.50000000  0.11356000  1.0
  Co  Co3  2  0.25000000  0.50000000  0.96215000  1.0
  Pt  Pt4  4  0.25000000  0.25000000  0.03785000  1.0
  Pt  Pt5  4  0.25000000  0.25000000  0.88644000  1.0
  Pt  Pt6  2  0.00000000  0.25000000  0.11356000  1.0
  Pt  Pt7  2  0.00000000  0.25000000  0.96215000  1.0
  Pt  Pt8  2  0.50000000  0.25000000  0.11356000  1.0
  Pt  Pt9  2  0.50000000  0.25000000  0.96215000  1.0
  Pt  Pt10  1  0.00000000  0.00000000  0.03785000  1.0
  Pt  Pt11  1  0.00000000  0.00000000  0.88644000  1.0
  Pt  Pt12  1  0.00000000  0.50000000  0.03785000  1.0
  Pt  Pt13  1  0.00000000  0.50000000  0.88644000  1.0
  Pt  Pt14  1  0.50000000  0.00000000  0.03785000  1.0
  Pt  Pt15  1  0.50000000  0.00000000  0.88644000  1.0
  Pt  Pt16  1  0.50000000  0.50000000  0.03785000  1.0
  Pt  Pt17  1  0.50000000  0.50000000  0.88644000  1.0
  C  C18  1  0.00000000  0.00000000  0.14447000  1.0
