# generated using pymatgen
data_Li8Ag8Sn8Pd8CO
_symmetry_space_group_name_H-M   'P 1'
_cell_length_a   9.26558000
_cell_length_b   6.55175000
_cell_length_c   26.94920000
_cell_angle_alpha   90.00000000
_cell_angle_beta   90.00000000
_cell_angle_gamma   90.00000000
_symmetry_Int_Tables_number   1
_chemical_formula_structural   Li8Ag8Sn8Pd8CO
_chemical_formula_sum   'Li8 Ag8 Sn8 Pd8 C1 O1'
_cell_volume   1635.97176886
_cell_formula_units_Z   1
loop_
 _symmetry_equiv_pos_site_id
 _symmetry_equiv_pos_as_xyz
  1  'x, y, z'
loop_
 _atom_site_type_symbol
 _atom_site_label
 _atom_site_symmetry_multiplicity
 _atom_site_fract_x
 _atom_site_fract_y
 _atom_site_fract_z
 _atom_site_occupancy
  Li  Li0  1  0.00000000  0.25000000  0.04298000  1.0
  Li  Li1  1  0.50000000  0.25000000  0.04298000  1.0
  Li  Li2  1  0.25000000  0.75000000  0.12893000  1.0
  Li  Li3  1  0.75000000  0.75000000  0.12893000  1.0
  Li  Li4  1  0.50000000  0.24250000  0.86952000  1.0
  Li  Li5  1  0.00000000  0.24275000  0.86977000  1.0
  Li  Li6  1  0.75016000  0.74695000  0.96105000  1.0
  Li  Li7  1  0.24984000  0.74695000  0.96105000  1.0
  Ag  Ag8  1  0.00000000  0.00000000  0.12893000  1.0
  Ag  Ag9  1  0.50000000  0.00000000  0.12893000  1.0
  Ag  Ag10  1  0.75000000  0.50000000  0.04298000  1.0
  Ag  Ag11  1  0.25000000  0.50000000  0.04298000  1.0
  Ag  Ag12  1  0.50000000  0.98839000  0.95376000  1.0
  Ag  Ag13  1  0.00000000  0.99012000  0.95446000  1.0
  Ag  Ag14  1  0.24940000  0.52043000  0.87449000  1.0
  Ag  Ag15  1  0.75060000  0.52043000  0.87449000  1.0
  Sn  Sn16  1  0.00000000  0.75000000  0.04298000  1.0
  Sn  Sn17  1  0.50000000  0.75000000  0.04298000  1.0
  Sn  Sn18  1  0.25000000  0.25000000  0.12893000  1.0
  Sn  Sn19  1  0.75000000  0.25000000  0.12893000  1.0
  Sn  Sn20  1  0.50000000  0.76500000  0.85957000  1.0
  Sn  Sn21  1  0.00000000  0.76716000  0.86028000  1.0
  Sn  Sn22  1  0.74967000  0.25210000  0.95732000  1.0
  Sn  Sn23  1  0.25033000  0.25210000  0.95732000  1.0
  Pd  Pd24  1  0.25000000  0.00000000  0.04298000  1.0
  Pd  Pd25  1  0.75000000  0.00000000  0.04298000  1.0
  Pd  Pd26  1  0.50000000  0.50000000  0.12893000  1.0
  Pd  Pd27  1  0.00000000  0.50000000  0.12893000  1.0
  Pd  Pd28  1  0.74951000  0.97858000  0.88097000  1.0
  Pd  Pd29  1  0.25049000  0.97858000  0.88097000  1.0
  Pd  Pd30  1  0.00000000  0.50610000  0.95179000  1.0
  Pd  Pd31  1  0.50000000  0.50593000  0.95138000  1.0
  C  C32  1  0.00000000  0.69477000  0.71377000  1.0
  O  O33  1  0.00000000  0.79269000  0.67898000  1.0
