data_image0
_chemical_formula_structural       Mn8Co16Ge8CO
_chemical_formula_sum              "Mn8 Co16 Ge8 C1 O1"
_cell_length_a       5.75846
_cell_length_b       8.14369
_cell_length_c       26.1078
_cell_angle_alpha    90
_cell_angle_beta     90
_cell_angle_gamma    90

_space_group_name_H-M_alt    "P 1"
_space_group_IT_number       1

loop_
  _space_group_symop_operation_xyz
  'x, y, z'

loop_
  _atom_site_type_symbol
  _atom_site_label
  _atom_site_symmetry_multiplicity
  _atom_site_fract_x
  _atom_site_fract_y
  _atom_site_fract_z
  _atom_site_occupancy
  Mn  Mn1       1.0  0.00000  0.00000  0.88303  1.0000
  Mn  Mn2       1.0  0.50000  0.25000  0.96101  1.0000
  Mn  Mn3       1.0  0.50000  0.75000  0.96101  1.0000
  Mn  Mn4       1.0  0.00000  0.50000  0.88303  1.0000
  Mn  Mn5       1.0  0.00000  0.49993  0.03793  1.0000
  Mn  Mn6       1.0  0.50000  0.74999  0.11990  1.0000
  Mn  Mn7       1.0  0.50000  0.24999  0.11989  1.0000
  Mn  Mn8       1.0  0.00000  0.00005  0.03792  1.0000
  Co  Co1       1.0  0.25000  0.00000  0.96101  1.0000
  Co  Co2       1.0  0.75000  0.50000  0.96101  1.0000
  Co  Co3       1.0  0.75000  0.00000  0.96101  1.0000
  Co  Co4       1.0  0.25000  0.50000  0.96101  1.0000
  Co  Co5       1.0  0.75000  0.75000  0.88303  1.0000
  Co  Co6       1.0  0.25000  0.25000  0.88303  1.0000
  Co  Co7       1.0  0.25000  0.75000  0.88303  1.0000
  Co  Co8       1.0  0.75000  0.25000  0.88303  1.0000
  Co  Co9       1.0  0.23922  0.49995  0.11356  1.0000
  Co  Co10      1.0  0.76080  0.00003  0.11356  1.0000
  Co  Co11      1.0  0.76078  0.49995  0.11356  1.0000
  Co  Co12      1.0  0.23920  0.00003  0.11356  1.0000
  Co  Co13      1.0  0.74963  0.25000  0.03893  1.0000
  Co  Co14      1.0  0.25031  0.74998  0.03900  1.0000
  Co  Co15      1.0  0.25037  0.25000  0.03893  1.0000
  Co  Co16      1.0  0.74969  0.74999  0.03900  1.0000
  Ge  Ge1       1.0  0.00000  0.75000  0.96101  1.0000
  Ge  Ge2       1.0  0.50000  0.00000  0.88303  1.0000
  Ge  Ge3       1.0  0.00000  0.25000  0.96101  1.0000
  Ge  Ge4       1.0  0.50000  0.50000  0.88303  1.0000
  Ge  Ge5       1.0  0.00000  0.25001  0.11856  1.0000
  Ge  Ge6       1.0  0.49999  0.50014  0.03923  1.0000
  Ge  Ge7       1.0  1.00000  0.74997  0.11881  1.0000
  Ge  Ge8       1.0  0.50000  0.99983  0.03922  1.0000
  C   C1        1.0  0.99985  0.25049  0.27153  1.0000
  O   O1        1.0  0.00002  0.24989  0.31500  1.0000
