# generated using pymatgen
data_Ca16Ni16C
_symmetry_space_group_name_H-M   'P 1'
_cell_length_a   9.80104000
_cell_length_b   6.93038000
_cell_length_c   27.35080000
_cell_angle_alpha   90.00000000
_cell_angle_beta   90.00000000
_cell_angle_gamma   90.00000000
_symmetry_Int_Tables_number   1
_chemical_formula_structural   Ca16Ni16C
_chemical_formula_sum   'Ca16 Ni16 C1'
_cell_volume   1857.80121907
_cell_formula_units_Z   1
loop_
 _symmetry_equiv_pos_site_id
 _symmetry_equiv_pos_as_xyz
  1  'x, y, z'
loop_
 _atom_site_type_symbol
 _atom_site_label
 _atom_site_symmetry_multiplicity
 _atom_site_fract_x
 _atom_site_fract_y
 _atom_site_fract_z
 _atom_site_occupancy
  Ca  Ca0  1  0.00000000  0.00000000  0.13438000  1.0
  Ca  Ca1  1  0.25000000  1.00000000  0.04479000  1.0
  Ca  Ca2  1  0.00000000  0.00000000  0.95474000  1.0
  Ca  Ca3  1  0.26427000  0.99999000  0.86045000  1.0
  Ca  Ca4  1  0.50000000  0.00000000  0.13438000  1.0
  Ca  Ca5  1  0.75000000  1.00000000  0.04479000  1.0
  Ca  Ca6  1  0.50000000  1.00000000  0.95793000  1.0
  Ca  Ca7  1  0.73573000  0.99999000  0.86045000  1.0
  Ca  Ca8  1  0.00000000  0.50000000  0.13438000  1.0
  Ca  Ca9  1  0.25000000  0.50000000  0.04479000  1.0
  Ca  Ca10  1  0.00000000  0.50001000  0.95746000  1.0
  Ca  Ca11  1  0.25865000  0.49998000  0.85980000  1.0
  Ca  Ca12  1  0.50000000  0.50000000  0.13438000  1.0
  Ca  Ca13  1  0.75000000  0.50000000  0.04479000  1.0
  Ca  Ca14  1  0.50000000  0.49999000  0.95915000  1.0
  Ca  Ca15  1  0.74135000  0.49998000  0.85980000  1.0
  Ni  Ni16  1  0.25000000  0.25000000  0.13438000  1.0
  Ni  Ni17  1  0.00000000  0.25000000  0.04479000  1.0
  Ni  Ni18  1  0.25300000  0.25688000  0.94668000  1.0
  Ni  Ni19  1  0.00000000  0.25033000  0.87048000  1.0
  Ni  Ni20  1  0.75000000  0.25000000  0.13438000  1.0
  Ni  Ni21  1  0.50000000  0.25000000  0.04479000  1.0
  Ni  Ni22  1  0.74700000  0.25688000  0.94668000  1.0
  Ni  Ni23  1  0.50000000  0.25897000  0.87896000  1.0
  Ni  Ni24  1  0.25000000  0.75000000  0.13438000  1.0
  Ni  Ni25  1  0.00000000  0.75000000  0.04479000  1.0
  Ni  Ni26  1  0.25306000  0.74306000  0.94667000  1.0
  Ni  Ni27  1  0.00000000  0.74969000  0.87046000  1.0
  Ni  Ni28  1  0.75000000  0.75000000  0.13438000  1.0
  Ni  Ni29  1  0.50000000  0.75000000  0.04479000  1.0
  Ni  Ni30  1  0.74694000  0.74306000  0.94667000  1.0
  Ni  Ni31  1  0.50000000  0.74100000  0.87896000  1.0
  C  C32  1  0.00000000  0.00003000  0.85917000  1.0
