# generated using pymatgen
data_Li8Mg8In8Au8CO
_symmetry_space_group_name_H-M   'P 1'
_cell_length_a   9.40140000
_cell_length_b   6.64779000
_cell_length_c   27.05110000
_cell_angle_alpha   90.00000000
_cell_angle_beta   90.00000000
_cell_angle_gamma   90.00000000
_symmetry_Int_Tables_number   1
_chemical_formula_structural   Li8Mg8In8Au8CO
_chemical_formula_sum   'Li8 Mg8 In8 Au8 C1 O1'
_cell_volume   1690.65406349
_cell_formula_units_Z   1
loop_
 _symmetry_equiv_pos_site_id
 _symmetry_equiv_pos_as_xyz
  1  'x, y, z'
loop_
 _atom_site_type_symbol
 _atom_site_label
 _atom_site_symmetry_multiplicity
 _atom_site_fract_x
 _atom_site_fract_y
 _atom_site_fract_z
 _atom_site_occupancy
  Li  Li0  1  0.00000000  0.00000000  0.04344000  1.0
  Li  Li1  1  0.50000000  0.00000000  0.04344000  1.0
  Li  Li2  1  0.24998000  0.50000000  0.13033000  1.0
  Li  Li3  1  0.75002000  0.50000000  0.13033000  1.0
  Li  Li4  1  0.50000000  0.98204000  0.84140000  1.0
  Li  Li5  1  0.00000000  0.04609000  0.83283000  1.0
  Li  Li6  1  0.75068000  0.48661000  0.95246000  1.0
  Li  Li7  1  0.24932000  0.48661000  0.95246000  1.0
  Mg  Mg8  1  0.74998000  0.75000000  0.04344000  1.0
  Mg  Mg9  1  0.25002000  0.75000000  0.04344000  1.0
  Mg  Mg10  1  0.00000000  0.25000000  0.13033000  1.0
  Mg  Mg11  1  0.50000000  0.25000000  0.13033000  1.0
  Mg  Mg12  1  0.24176000  0.74454000  0.86539000  1.0
  Mg  Mg13  1  0.75824000  0.74454000  0.86539000  1.0
  Mg  Mg14  1  0.50000000  0.23838000  0.94793000  1.0
  Mg  Mg15  1  0.00000000  0.23036000  0.94953000  1.0
  In  In16  1  0.74998000  0.25000000  0.04344000  1.0
  In  In17  1  0.25002000  0.25000000  0.04344000  1.0
  In  In18  1  0.00000000  0.75000000  0.13033000  1.0
  In  In19  1  0.50000000  0.75000000  0.13033000  1.0
  In  In20  1  0.25885000  0.23954000  0.85618000  1.0
  In  In21  1  0.74115000  0.23954000  0.85618000  1.0
  In  In22  1  0.50000000  0.75278000  0.95292000  1.0
  In  In23  1  0.00000000  0.75072000  0.95114000  1.0
  Au  Au24  1  0.74998000  0.00000000  0.13033000  1.0
  Au  Au25  1  0.25002000  0.00000000  0.13033000  1.0
  Au  Au26  1  0.50000000  0.50000000  0.04344000  1.0
  Au  Au27  1  0.00000000  0.50000000  0.04344000  1.0
  Au  Au28  1  0.25101000  0.00466000  0.95677000  1.0
  Au  Au29  1  0.74899000  0.00466000  0.95677000  1.0
  Au  Au30  1  0.00000000  0.47924000  0.86912000  1.0
  Au  Au31  1  0.50000000  0.51131000  0.86798000  1.0
  C  C32  1  0.00000000  0.93521000  0.76082000  1.0
  O  O33  1  0.00000000  0.87128000  0.72168000  1.0
