# generated using pymatgen
data_Li8Al8In8Cu8C
_symmetry_space_group_name_H-M   'P 1'
_cell_length_a   9.01514000
_cell_length_b   6.37467000
_cell_length_c   26.76140000
_cell_angle_alpha   90.00000000
_cell_angle_beta   90.00000000
_cell_angle_gamma   90.00000000
_symmetry_Int_Tables_number   1
_chemical_formula_structural   Li8Al8In8Cu8C
_chemical_formula_sum   'Li8 Al8 In8 Cu8 C1'
_cell_volume   1537.93865336
_cell_formula_units_Z   1
loop_
 _symmetry_equiv_pos_site_id
 _symmetry_equiv_pos_as_xyz
  1  'x, y, z'
loop_
 _atom_site_type_symbol
 _atom_site_label
 _atom_site_symmetry_multiplicity
 _atom_site_fract_x
 _atom_site_fract_y
 _atom_site_fract_z
 _atom_site_occupancy
  Li  Li0  1  0.00000000  0.75000000  0.04211000  1.0
  Li  Li1  1  0.50000000  0.75000000  0.04211000  1.0
  Li  Li2  1  0.25000000  0.25000000  0.12633000  1.0
  Li  Li3  1  0.75000000  0.25000000  0.12633000  1.0
  Li  Li4  1  0.50000000  0.70070000  0.83999000  1.0
  Li  Li5  1  0.00000000  0.68538000  0.83541000  1.0
  Li  Li6  1  0.75197000  0.21902000  0.95437000  1.0
  Li  Li7  1  0.24803000  0.21902000  0.95437000  1.0
  Al  Al8  1  0.00000000  0.00000000  0.12633000  1.0
  Al  Al9  1  0.50000000  1.00000000  0.12633000  1.0
  Al  Al10  1  0.75000000  0.50000000  0.04211000  1.0
  Al  Al11  1  0.25000000  0.50000000  0.04211000  1.0
  Al  Al12  1  0.50000000  0.97674000  0.95246000  1.0
  Al  Al13  1  0.00000000  0.93326000  0.93820000  1.0
  Al  Al14  1  0.25520000  0.48864000  0.87450000  1.0
  Al  Al15  1  0.74480000  0.48864000  0.87450000  1.0
  In  In16  1  0.25000000  0.00000000  0.04211000  1.0
  In  In17  1  0.75000000  0.00000000  0.04211000  1.0
  In  In18  1  0.50000000  0.50000000  0.12633000  1.0
  In  In19  1  0.00000000  0.50000000  0.12633000  1.0
  In  In20  1  0.74376000  0.97933000  0.85529000  1.0
  In  In21  1  0.25624000  0.97933000  0.85529000  1.0
  In  In22  1  0.00000000  0.49126000  0.95667000  1.0
  In  In23  1  0.50000000  0.50390000  0.95436000  1.0
  Cu  Cu24  1  0.00000000  0.25000000  0.04211000  1.0
  Cu  Cu25  1  0.50000000  0.25000000  0.04211000  1.0
  Cu  Cu26  1  0.25000000  0.75000000  0.12633000  1.0
  Cu  Cu27  1  0.75000000  0.75000000  0.12633000  1.0
  Cu  Cu28  1  0.50000000  0.24440000  0.87646000  1.0
  Cu  Cu29  1  0.00000000  0.28783000  0.87063000  1.0
  Cu  Cu30  1  0.74626000  0.75173000  0.96033000  1.0
  Cu  Cu31  1  0.25374000  0.75173000  0.96033000  1.0
  C  C32  1  0.00000000  0.98298000  0.86539000  1.0
