# generated using pymatgen
data_Li8Al8In8Cu8C
_symmetry_space_group_name_H-M   Pm
_cell_length_a   6.37467000
_cell_length_b   9.01514000
_cell_length_c   26.76140000
_cell_angle_alpha   90.00000000
_cell_angle_beta   90.00000000
_cell_angle_gamma   90.00000000
_symmetry_Int_Tables_number   6
_chemical_formula_structural   Li8Al8In8Cu8C
_chemical_formula_sum   'Li8 Al8 In8 Cu8 C1'
_cell_volume   1537.93865336
_cell_formula_units_Z   1
loop_
 _symmetry_equiv_pos_site_id
 _symmetry_equiv_pos_as_xyz
  1  'x, y, z'
  2  'x, -y, z'
loop_
 _atom_site_type_symbol
 _atom_site_label
 _atom_site_symmetry_multiplicity
 _atom_site_fract_x
 _atom_site_fract_y
 _atom_site_fract_z
 _atom_site_occupancy
  Li  Li0  2  0.21902000  0.24803000  0.04563000  1.0
  Li  Li1  2  0.25000000  0.25000000  0.87367000  1.0
  Li  Li2  1  0.68538000  0.00000000  0.16459000  1.0
  Li  Li3  1  0.70070000  0.50000000  0.16001000  1.0
  Li  Li4  1  0.75000000  0.00000000  0.95789000  1.0
  Li  Li5  1  0.75000000  0.50000000  0.95789000  1.0
  Al  Al6  2  0.48864000  0.25520000  0.12550000  1.0
  Al  Al7  2  0.50000000  0.25000000  0.95789000  1.0
  Al  Al8  1  -0.00000000  0.50000000  0.87367000  1.0
  Al  Al9  1  0.00000000  0.00000000  0.87367000  1.0
  Al  Al10  1  0.93326000  0.00000000  0.06180000  1.0
  Al  Al11  1  0.97674000  0.50000000  0.04754000  1.0
  In  In12  2  0.00000000  0.25000000  0.95789000  1.0
  In  In13  2  0.97933000  0.25624000  0.14471000  1.0
  In  In14  1  0.49126000  0.00000000  0.04333000  1.0
  In  In15  1  0.50000000  0.00000000  0.87367000  1.0
  In  In16  1  0.50000000  0.50000000  0.87367000  1.0
  In  In17  1  0.50390000  0.50000000  0.04564000  1.0
  Cu  Cu18  2  0.75000000  0.25000000  0.87367000  1.0
  Cu  Cu19  2  0.75173000  0.25374000  0.03967000  1.0
  Cu  Cu20  1  0.24440000  0.50000000  0.12354000  1.0
  Cu  Cu21  1  0.25000000  0.00000000  0.95789000  1.0
  Cu  Cu22  1  0.25000000  0.50000000  0.95789000  1.0
  Cu  Cu23  1  0.28783000  0.00000000  0.12937000  1.0
  C  C24  1  0.98298000  0.00000000  0.13461000  1.0
