# generated using pymatgen
data_Li4Al4Ag4Ge4CO
_symmetry_space_group_name_H-M   'P 1'
_cell_length_a   7.71364000
_cell_length_b   5.86609000
_cell_length_c   24.39060000
_cell_angle_alpha   90.00000000
_cell_angle_beta   90.00000000
_cell_angle_gamma   90.00000000
_symmetry_Int_Tables_number   1
_chemical_formula_structural   Li4Al4Ag4Ge4CO
_chemical_formula_sum   'Li4 Al4 Ag4 Ge4 C1 O1'
_cell_volume   1103.64797809
_cell_formula_units_Z   1
loop_
 _symmetry_equiv_pos_site_id
 _symmetry_equiv_pos_as_xyz
  1  'x, y, z'
loop_
 _atom_site_type_symbol
 _atom_site_label
 _atom_site_symmetry_multiplicity
 _atom_site_fract_x
 _atom_site_fract_y
 _atom_site_fract_z
 _atom_site_occupancy
  Li  Li0  1  0.25153000  0.76313000  0.03434000  1.0
  Li  Li1  1  0.25002000  0.29777000  0.90999000  1.0
  Li  Li2  1  0.74847000  0.76313000  0.03434000  1.0
  Li  Li3  1  0.74998000  0.29777000  0.90999000  1.0
  Al  Al4  1  0.24386000  0.27116000  0.03344000  1.0
  Al  Al5  1  0.25002000  0.79777000  0.90999000  1.0
  Al  Al6  1  0.75614000  0.27116000  0.03344000  1.0
  Al  Al7  1  0.74998000  0.79777000  0.90999000  1.0
  Ag  Ag8  1  0.50000000  0.02215000  0.09514000  1.0
  Ag  Ag9  1  0.50000000  0.53185000  0.97000000  1.0
  Ag  Ag10  1  0.00000000  0.99403000  0.09229000  1.0
  Ag  Ag11  1  0.00000000  0.53185000  0.97000000  1.0
  Ge  Ge12  1  0.50000000  0.49471000  0.08584000  1.0
  Ge  Ge13  1  0.50000000  0.03185000  0.97000000  1.0
  Ge  Ge14  1  0.00000000  0.49302000  0.09285000  1.0
  Ge  Ge15  1  0.00000000  0.03185000  0.97000000  1.0
  C  C16  1  0.50000000  0.97890000  0.18956000  1.0
  O  O17  1  0.50000000  0.01227000  0.23555000  1.0
