# generated using pymatgen
data_Li4Al4Ag4Ge4CO
_symmetry_space_group_name_H-M   Pm
_cell_length_a   5.86609000
_cell_length_b   7.71364000
_cell_length_c   24.39060000
_cell_angle_alpha   90.00000000
_cell_angle_beta   90.00000000
_cell_angle_gamma   90.00000000
_symmetry_Int_Tables_number   6
_chemical_formula_structural   Li4Al4Ag4Ge4CO
_chemical_formula_sum   'Li4 Al4 Ag4 Ge4 C1 O1'
_cell_volume   1103.64797809
_cell_formula_units_Z   1
loop_
 _symmetry_equiv_pos_site_id
 _symmetry_equiv_pos_as_xyz
  1  'x, y, z'
  2  'x, -y, z'
loop_
 _atom_site_type_symbol
 _atom_site_label
 _atom_site_symmetry_multiplicity
 _atom_site_fract_x
 _atom_site_fract_y
 _atom_site_fract_z
 _atom_site_occupancy
  Li  Li0  2  0.29777000  0.25002000  0.09001000  1.0
  Li  Li1  2  0.76313000  0.25153000  0.96566000  1.0
  Al  Al2  2  0.27116000  0.24386000  0.96656000  1.0
  Al  Al3  2  0.79777000  0.25002000  0.09001000  1.0
  Ag  Ag4  1  0.02215000  0.50000000  0.90486000  1.0
  Ag  Ag5  1  0.53185000  0.00000000  0.03000000  1.0
  Ag  Ag6  1  0.53185000  0.50000000  0.03000000  1.0
  Ag  Ag7  1  0.99403000  0.00000000  0.90771000  1.0
  Ge  Ge8  1  0.03185000  0.00000000  0.03000000  1.0
  Ge  Ge9  1  0.03185000  0.50000000  0.03000000  1.0
  Ge  Ge10  1  0.49302000  0.00000000  0.90715000  1.0
  Ge  Ge11  1  0.49471000  0.50000000  0.91416000  1.0
  C  C12  1  0.97890000  0.50000000  0.81044000  1.0
  O  O13  1  0.01227000  0.50000000  0.76445000  1.0
