# generated using pymatgen
data_Mn24Pt8CO
_symmetry_space_group_name_H-M   Pm
_cell_length_a   8.81047000
_cell_length_b   8.81047000
_cell_length_c   26.60790000
_cell_angle_alpha   90.00000000
_cell_angle_beta   90.00000000
_cell_angle_gamma   90.00000000
_symmetry_Int_Tables_number   6
_chemical_formula_structural   Mn24Pt8CO
_chemical_formula_sum   'Mn24 Pt8 C1 O1'
_cell_volume   2065.42178373
_cell_formula_units_Z   1
loop_
 _symmetry_equiv_pos_site_id
 _symmetry_equiv_pos_as_xyz
  1  'x, y, z'
  2  'x, -y, z'
loop_
 _atom_site_type_symbol
 _atom_site_label
 _atom_site_symmetry_multiplicity
 _atom_site_fract_x
 _atom_site_fract_y
 _atom_site_fract_z
 _atom_site_occupancy
  Mn  Mn0  2  0.25000000  0.24901000  0.02249000  1.0
  Mn  Mn1  2  0.25000000  0.25001000  0.87583000  1.0
  Mn  Mn2  2  0.75000000  0.24888000  0.02220000  1.0
  Mn  Mn3  2  0.75000000  0.25001000  0.87583000  1.0
  Mn  Mn4  1  -0.00000000  0.50000000  0.87583000  1.0
  Mn  Mn5  1  -0.00000000  0.00000000  0.87583000  1.0
  Mn  Mn6  1  0.00099000  0.00000000  0.02248000  1.0
  Mn  Mn7  1  0.00113000  0.50000000  0.02221000  1.0
  Mn  Mn8  1  0.24991000  0.00000000  0.09091000  1.0
  Mn  Mn9  1  0.25000000  0.00000000  0.95861000  1.0
  Mn  Mn10  1  0.25000000  0.50000000  0.95861000  1.0
  Mn  Mn11  1  0.25001000  0.50000000  0.09037000  1.0
  Mn  Mn12  1  0.49887000  0.50000000  0.02220000  1.0
  Mn  Mn13  1  0.49899000  0.00000000  0.02250000  1.0
  Mn  Mn14  1  0.50000000  0.00000000  0.87583000  1.0
  Mn  Mn15  1  0.50000000  0.50000000  0.87583000  1.0
  Mn  Mn16  1  0.74997000  0.50000000  0.08106000  1.0
  Mn  Mn17  1  0.75000000  0.00000000  0.95861000  1.0
  Mn  Mn18  1  0.75000000  0.50000000  0.95861000  1.0
  Mn  Mn19  1  0.75003000  0.00000000  0.09036000  1.0
  Pt  Pt20  2  0.00000000  0.25001000  0.95861000  1.0
  Pt  Pt21  2  0.50000000  0.25001000  0.95861000  1.0
  Pt  Pt22  2  0.50068000  0.25070000  0.07827000  1.0
  Pt  Pt23  2  0.99934000  0.25064000  0.07826000  1.0
  C  C24  1  0.24994000  0.00000000  0.16951000  1.0
  O  O25  1  0.24998000  0.00000000  0.21248000  1.0
