# generated using pymatgen
data_Cu12Sb4CO
_symmetry_space_group_name_H-M   Cm
_cell_length_a   8.92302290
_cell_length_b   8.92302290
_cell_length_c   24.73210000
_cell_angle_alpha   90.00000000
_cell_angle_beta   90.00000000
_cell_angle_gamma   90.00000000
_symmetry_Int_Tables_number   8
_chemical_formula_structural   Cu12Sb4CO
_chemical_formula_sum   'Cu24 Sb8 C2 O2'
_cell_volume   1969.17815259
_cell_formula_units_Z   2
loop_
 _symmetry_equiv_pos_site_id
 _symmetry_equiv_pos_as_xyz
  1  'x, y, z'
  2  'x, -y, z'
  3  'x+1/2, y+1/2, z'
  4  'x+1/2, -y+1/2, z'
loop_
 _atom_site_type_symbol
 _atom_site_label
 _atom_site_symmetry_multiplicity
 _atom_site_fract_x
 _atom_site_fract_y
 _atom_site_fract_z
 _atom_site_occupancy
  Cu  Cu0  4  -0.00000000  0.25000000  0.96811000  1.0
  Cu  Cu1  4  0.00020500  0.24901500  0.08638000  1.0
  Cu  Cu2  4  0.25000000  0.25000000  0.90433000  1.0
  Cu  Cu3  2  0.00869000  0.00000000  0.02883000  1.0
  Cu  Cu4  2  0.24658500  0.00000000  0.10173000  1.0
  Cu  Cu5  2  0.25000000  0.50000000  0.96811000  1.0
  Cu  Cu6  2  0.25000000  0.00000000  0.96811000  1.0
  Cu  Cu7  2  0.25100000  0.50000000  0.08190000  1.0
  Cu  Cu8  2  0.49121000  0.00000000  0.02940000  1.0
  Sb  Sb9  4  0.25022000  0.24066000  0.03732000  1.0
  Sb  Sb10  2  -0.00000000  0.50000000  0.90433000  1.0
  Sb  Sb11  2  0.00000000  0.00000000  0.90433000  1.0
  C  C12  2  0.24841000  0.00000000  0.17694000  1.0
  O  O13  2  0.24835500  0.00000000  0.22334000  1.0
