# generated using pymatgen
data_Mn16Rh16C
_symmetry_space_group_name_H-M   'P 1'
_cell_length_a   8.64833000
_cell_length_b   6.11529000
_cell_length_c   26.48620000
_cell_angle_alpha   90.00000000
_cell_angle_beta   90.00000000
_cell_angle_gamma   90.00000000
_symmetry_Int_Tables_number   1
_chemical_formula_structural   Mn16Rh16C
_chemical_formula_sum   'Mn16 Rh16 C1'
_cell_volume   1400.77687686
_cell_formula_units_Z   1
loop_
 _symmetry_equiv_pos_site_id
 _symmetry_equiv_pos_as_xyz
  1  'x, y, z'
loop_
 _atom_site_type_symbol
 _atom_site_label
 _atom_site_symmetry_multiplicity
 _atom_site_fract_x
 _atom_site_fract_y
 _atom_site_fract_z
 _atom_site_occupancy
  Mn  Mn0  1  0.75000000  0.00000000  0.12245000  1.0
  Mn  Mn1  1  0.00000000  0.00000000  0.04082000  1.0
  Mn  Mn2  1  0.74872000  0.00008000  0.95932000  1.0
  Mn  Mn3  1  0.00000000  0.95923000  0.87515000  1.0
  Mn  Mn4  1  0.25000000  0.00000000  0.12245000  1.0
  Mn  Mn5  1  0.50000000  0.00000000  0.04082000  1.0
  Mn  Mn6  1  0.25128000  0.00008000  0.95932000  1.0
  Mn  Mn7  1  0.50000000  0.00913000  0.87423000  1.0
  Mn  Mn8  1  0.75000000  0.50000000  0.12245000  1.0
  Mn  Mn9  1  0.00000000  0.50000000  0.04082000  1.0
  Mn  Mn10  1  0.74872000  0.49985000  0.95932000  1.0
  Mn  Mn11  1  0.00000000  0.54038000  0.87511000  1.0
  Mn  Mn12  1  0.25000000  0.50000000  0.12245000  1.0
  Mn  Mn13  1  0.50000000  0.50000000  0.04082000  1.0
  Mn  Mn14  1  0.25128000  0.49985000  0.95932000  1.0
  Mn  Mn15  1  0.50000000  0.49061000  0.87423000  1.0
  Rh  Rh16  1  0.00000000  0.25000000  0.12245000  1.0
  Rh  Rh17  1  0.75000000  0.25000000  0.04082000  1.0
  Rh  Rh18  1  0.00000000  0.24999000  0.95914000  1.0
  Rh  Rh19  1  0.76745000  0.24989000  0.88074000  1.0
  Rh  Rh20  1  0.50000000  0.25000000  0.12245000  1.0
  Rh  Rh21  1  0.25000000  0.25000000  0.04082000  1.0
  Rh  Rh22  1  0.50000000  0.24998000  0.95774000  1.0
  Rh  Rh23  1  0.23255000  0.24989000  0.88074000  1.0
  Rh  Rh24  1  0.00000000  0.75000000  0.12245000  1.0
  Rh  Rh25  1  0.75000000  0.75000000  0.04082000  1.0
  Rh  Rh26  1  0.00000000  0.74994000  0.96069000  1.0
  Rh  Rh27  1  0.74588000  0.74991000  0.88211000  1.0
  Rh  Rh28  1  0.50000000  0.75000000  0.12245000  1.0
  Rh  Rh29  1  0.25000000  0.75000000  0.04082000  1.0
  Rh  Rh30  1  0.50000000  0.74998000  0.95870000  1.0
  Rh  Rh31  1  0.25412000  0.74991000  0.88211000  1.0
  C  C32  1  0.00000000  0.24969000  0.85882000  1.0
