# generated using pymatgen
data_Zr16Zn16C
_symmetry_space_group_name_H-M   'P 1'
_cell_length_a   9.43980000
_cell_length_b   6.67495000
_cell_length_c   27.07990000
_cell_angle_alpha   90.00000000
_cell_angle_beta   90.00000000
_cell_angle_gamma   90.00000000
_symmetry_Int_Tables_number   1
_chemical_formula_structural   Zr16Zn16C
_chemical_formula_sum   'Zr16 Zn16 C1'
_cell_volume   1706.30972569
_cell_formula_units_Z   1
loop_
 _symmetry_equiv_pos_site_id
 _symmetry_equiv_pos_as_xyz
  1  'x, y, z'
loop_
 _atom_site_type_symbol
 _atom_site_label
 _atom_site_symmetry_multiplicity
 _atom_site_fract_x
 _atom_site_fract_y
 _atom_site_fract_z
 _atom_site_occupancy
  Zr  Zr0  1  0.00000000  0.25000000  0.13072000  1.0
  Zr  Zr1  1  0.24999000  0.25000000  0.04357000  1.0
  Zr  Zr2  1  0.00000000  0.25017000  0.95099000  1.0
  Zr  Zr3  1  0.77184000  0.25050000  0.86416000  1.0
  Zr  Zr4  1  0.50000000  0.25000000  0.13072000  1.0
  Zr  Zr5  1  0.75001000  0.25000000  0.04357000  1.0
  Zr  Zr6  1  0.50000000  0.24999000  0.95378000  1.0
  Zr  Zr7  1  0.22816000  0.25050000  0.86416000  1.0
  Zr  Zr8  1  0.00000000  0.75000000  0.13072000  1.0
  Zr  Zr9  1  0.24999000  0.75000000  0.04357000  1.0
  Zr  Zr10  1  0.00000000  0.75008000  0.95838000  1.0
  Zr  Zr11  1  0.72412000  0.75014000  0.87507000  1.0
  Zr  Zr12  1  0.50000000  0.75000000  0.13072000  1.0
  Zr  Zr13  1  0.75001000  0.75000000  0.04357000  1.0
  Zr  Zr14  1  0.50000000  0.75001000  0.95843000  1.0
  Zr  Zr15  1  0.27588000  0.75014000  0.87507000  1.0
  Zn  Zn16  1  0.74999000  0.00000000  0.13072000  1.0
  Zn  Zn17  1  0.00000000  0.00000000  0.04357000  1.0
  Zn  Zn18  1  0.75000000  0.00863000  0.95587000  1.0
  Zn  Zn19  1  0.00000000  0.94295000  0.86188000  1.0
  Zn  Zn20  1  0.25001000  0.00000000  0.13072000  1.0
  Zn  Zn21  1  0.50000000  0.00000000  0.04357000  1.0
  Zn  Zn22  1  0.25000000  0.00863000  0.95587000  1.0
  Zn  Zn23  1  0.50000000  0.02835000  0.86287000  1.0
  Zn  Zn24  1  0.74999000  0.50000000  0.13072000  1.0
  Zn  Zn25  1  0.00000000  0.50000000  0.04357000  1.0
  Zn  Zn26  1  0.74995000  0.49132000  0.95589000  1.0
  Zn  Zn27  1  0.00000000  0.55858000  0.86175000  1.0
  Zn  Zn28  1  0.25001000  0.50000000  0.13072000  1.0
  Zn  Zn29  1  0.50000000  0.50000000  0.04357000  1.0
  Zn  Zn30  1  0.25005000  0.49132000  0.95589000  1.0
  Zn  Zn31  1  0.50000000  0.47195000  0.86282000  1.0
  C  C32  1  0.00000000  0.25087000  0.86266000  1.0
