# generated using pymatgen
data_Zr16Zn16C
_symmetry_space_group_name_H-M   Pm
_cell_length_a   6.67495000
_cell_length_b   9.43980000
_cell_length_c   27.07990000
_cell_angle_alpha   90.00000000
_cell_angle_beta   90.00000000
_cell_angle_gamma   90.00000000
_symmetry_Int_Tables_number   6
_chemical_formula_structural   Zr16Zn16C
_chemical_formula_sum   'Zr16 Zn16 C1'
_cell_volume   1706.30972569
_cell_formula_units_Z   1
loop_
 _symmetry_equiv_pos_site_id
 _symmetry_equiv_pos_as_xyz
  1  'x, y, z'
  2  'x, -y, z'
loop_
 _atom_site_type_symbol
 _atom_site_label
 _atom_site_symmetry_multiplicity
 _atom_site_fract_x
 _atom_site_fract_y
 _atom_site_fract_z
 _atom_site_occupancy
  Zr  Zr0  2  0.25000000  0.24999000  0.95643000  1.0
  Zr  Zr1  2  0.25050000  0.22816000  0.13584000  1.0
  Zr  Zr2  2  0.75000000  0.24999000  0.95643000  1.0
  Zr  Zr3  2  0.75014000  0.27588000  0.12493000  1.0
  Zr  Zr4  1  0.24999000  0.50000000  0.04622000  1.0
  Zr  Zr5  1  0.25000000  0.00000000  0.86928000  1.0
  Zr  Zr6  1  0.25000000  0.50000000  0.86928000  1.0
  Zr  Zr7  1  0.25017000  0.00000000  0.04901000  1.0
  Zr  Zr8  1  0.75000000  0.00000000  0.86928000  1.0
  Zr  Zr9  1  0.75000000  0.50000000  0.86928000  1.0
  Zr  Zr10  1  0.75001000  0.50000000  0.04157000  1.0
  Zr  Zr11  1  0.75008000  0.00000000  0.04162000  1.0
  Zn  Zn12  2  0.00000000  0.25001000  0.86928000  1.0
  Zn  Zn13  2  0.00863000  0.25000000  0.04413000  1.0
  Zn  Zn14  2  0.49132000  0.25005000  0.04411000  1.0
  Zn  Zn15  2  0.50000000  0.25001000  0.86928000  1.0
  Zn  Zn16  1  0.00000000  0.00000000  0.95643000  1.0
  Zn  Zn17  1  0.00000000  0.50000000  0.95643000  1.0
  Zn  Zn18  1  0.02835000  0.50000000  0.13713000  1.0
  Zn  Zn19  1  0.47195000  0.50000000  0.13718000  1.0
  Zn  Zn20  1  0.50000000  0.00000000  0.95643000  1.0
  Zn  Zn21  1  0.50000000  0.50000000  0.95643000  1.0
  Zn  Zn22  1  0.55858000  0.00000000  0.13825000  1.0
  Zn  Zn23  1  0.94295000  0.00000000  0.13812000  1.0
  C  C24  1  0.25087000  0.00000000  0.13734000  1.0
