# generated using pymatgen
data_Li8Y8In8Pd8C
_symmetry_space_group_name_H-M   'P 1'
_cell_length_a   9.63982000
_cell_length_b   6.81638000
_cell_length_c   27.22990000
_cell_angle_alpha   90.00000000
_cell_angle_beta   90.00000000
_cell_angle_gamma   90.00000000
_symmetry_Int_Tables_number   1
_chemical_formula_structural   Li8Y8In8Pd8C
_chemical_formula_sum   'Li8 Y8 In8 Pd8 C1'
_cell_volume   1789.24068346
_cell_formula_units_Z   1
loop_
 _symmetry_equiv_pos_site_id
 _symmetry_equiv_pos_as_xyz
  1  'x, y, z'
loop_
 _atom_site_type_symbol
 _atom_site_label
 _atom_site_symmetry_multiplicity
 _atom_site_fract_x
 _atom_site_fract_y
 _atom_site_fract_z
 _atom_site_occupancy
  Li  Li0  1  0.75000000  0.75000000  0.04425000  1.0
  Li  Li1  1  0.25000000  0.75000000  0.04425000  1.0
  Li  Li2  1  0.00000000  0.25000000  0.13276000  1.0
  Li  Li3  1  0.50000000  0.25000000  0.13276000  1.0
  Li  Li4  1  0.28426000  0.56594000  0.81087000  1.0
  Li  Li5  1  0.71574000  0.56594000  0.81087000  1.0
  Li  Li6  1  0.50000000  0.25088000  0.95613000  1.0
  Li  Li7  1  0.00000000  0.19844000  0.93787000  1.0
  Y  Y8  1  0.00000000  0.00000000  0.04425000  1.0
  Y  Y9  1  0.50000000  0.00000000  0.04425000  1.0
  Y  Y10  1  0.25000000  0.50000000  0.13276000  1.0
  Y  Y11  1  0.75000000  0.50000000  0.13276000  1.0
  Y  Y12  1  0.50000000  0.96168000  0.87121000  1.0
  Y  Y13  1  0.00000000  0.87091000  0.86630000  1.0
  Y  Y14  1  0.75555000  0.50588000  0.94952000  1.0
  Y  Y15  1  0.24445000  0.50588000  0.94952000  1.0
  In  In16  1  0.75000000  0.00000000  0.13276000  1.0
  In  In17  1  0.25000000  0.00000000  0.13276000  1.0
  In  In18  1  0.50000000  0.50000000  0.04425000  1.0
  In  In19  1  0.00000000  0.50000000  0.04425000  1.0
  In  In20  1  0.25524000  0.99260000  0.95556000  1.0
  In  In21  1  0.74476000  0.99260000  0.95556000  1.0
  In  In22  1  0.00000000  0.45773000  0.81338000  1.0
  In  In23  1  0.50000000  0.46152000  0.86938000  1.0
  Pd  Pd24  1  0.75000000  0.25000000  0.04425000  1.0
  Pd  Pd25  1  0.25000000  0.25000000  0.04425000  1.0
  Pd  Pd26  1  0.00000000  0.75000000  0.13276000  1.0
  Pd  Pd27  1  0.50000000  0.75000000  0.13276000  1.0
  Pd  Pd28  1  0.21822000  0.24901000  0.87119000  1.0
  Pd  Pd29  1  0.78178000  0.24901000  0.87119000  1.0
  Pd  Pd30  1  0.50000000  0.74069000  0.95801000  1.0
  Pd  Pd31  1  0.00000000  0.76125000  0.96370000  1.0
  C  C32  1  0.00000000  0.19557000  0.85930000  1.0
