# generated using pymatgen
data_Li8Y8In8Pd8C
_symmetry_space_group_name_H-M   Pm
_cell_length_a   6.81638000
_cell_length_b   9.63982000
_cell_length_c   27.22990000
_cell_angle_alpha   90.00000000
_cell_angle_beta   90.00000000
_cell_angle_gamma   90.00000000
_symmetry_Int_Tables_number   6
_chemical_formula_structural   Li8Y8In8Pd8C
_chemical_formula_sum   'Li8 Y8 In8 Pd8 C1'
_cell_volume   1789.24068346
_cell_formula_units_Z   1
loop_
 _symmetry_equiv_pos_site_id
 _symmetry_equiv_pos_as_xyz
  1  'x, y, z'
  2  'x, -y, z'
loop_
 _atom_site_type_symbol
 _atom_site_label
 _atom_site_symmetry_multiplicity
 _atom_site_fract_x
 _atom_site_fract_y
 _atom_site_fract_z
 _atom_site_occupancy
  Li  Li0  2  0.56594000  0.28426000  0.18913000  1.0
  Li  Li1  2  0.75000000  0.25000000  0.95575000  1.0
  Li  Li2  1  0.19844000  0.00000000  0.06213000  1.0
  Li  Li3  1  0.25000000  0.00000000  0.86724000  1.0
  Li  Li4  1  0.25000000  0.50000000  0.86724000  1.0
  Li  Li5  1  0.25088000  0.50000000  0.04387000  1.0
  Y  Y6  2  0.50000000  0.25000000  0.86724000  1.0
  Y  Y7  2  0.50588000  0.24445000  0.05048000  1.0
  Y  Y8  1  0.00000000  0.00000000  0.95575000  1.0
  Y  Y9  1  0.00000000  0.50000000  0.95575000  1.0
  Y  Y10  1  0.87091000  0.00000000  0.13370000  1.0
  Y  Y11  1  0.96168000  0.50000000  0.12879000  1.0
  In  In12  2  0.00000000  0.25000000  0.86724000  1.0
  In  In13  2  0.99260000  0.25524000  0.04444000  1.0
  In  In14  1  0.45773000  0.00000000  0.18662000  1.0
  In  In15  1  0.46152000  0.50000000  0.13062000  1.0
  In  In16  1  0.50000000  0.00000000  0.95575000  1.0
  In  In17  1  0.50000000  0.50000000  0.95575000  1.0
  Pd  Pd18  2  0.24901000  0.21822000  0.12881000  1.0
  Pd  Pd19  2  0.25000000  0.25000000  0.95575000  1.0
  Pd  Pd20  1  0.74069000  0.50000000  0.04199000  1.0
  Pd  Pd21  1  0.75000000  0.00000000  0.86724000  1.0
  Pd  Pd22  1  0.75000000  0.50000000  0.86724000  1.0
  Pd  Pd23  1  0.76125000  0.00000000  0.03630000  1.0
  C  C24  1  0.19557000  0.00000000  0.14070000  1.0
