data_image0
_chemical_formula_structural       Sc32C
_chemical_formula_sum              "Sc32 C1"
_cell_length_a       9.21507
_cell_length_b       9.21507
_cell_length_c       26.9113
_cell_angle_alpha    90
_cell_angle_beta     90
_cell_angle_gamma    90

_space_group_name_H-M_alt    "P 1"
_space_group_IT_number       1

loop_
  _space_group_symop_operation_xyz
  'x, y, z'

loop_
  _atom_site_type_symbol
  _atom_site_label
  _atom_site_symmetry_multiplicity
  _atom_site_fract_x
  _atom_site_fract_y
  _atom_site_fract_z
  _atom_site_occupancy
  Sc  Sc1       1.0  0.00000  0.00000  0.87159  1.0000
  Sc  Sc2       1.0  0.25000  0.25000  0.87159  1.0000
  Sc  Sc3       1.0  0.25000  0.00000  0.95720  1.0000
  Sc  Sc4       1.0  0.00000  0.25000  0.95720  1.0000
  Sc  Sc5       1.0  0.00003  0.99999  0.04580  1.0000
  Sc  Sc6       1.0  0.25542  0.25536  0.04382  1.0000
  Sc  Sc7       1.0  0.24096  1.00000  0.12899  1.0000
  Sc  Sc8       1.0  0.00001  0.24095  0.12899  1.0000
  Sc  Sc9       1.0  0.00000  0.50000  0.87159  1.0000
  Sc  Sc10      1.0  0.25000  0.75000  0.87159  1.0000
  Sc  Sc11      1.0  0.25000  0.50000  0.95720  1.0000
  Sc  Sc12      1.0  0.00000  0.75000  0.95720  1.0000
  Sc  Sc13      1.0  0.99998  0.49998  0.04570  1.0000
  Sc  Sc14      1.0  0.25541  0.74462  0.04383  1.0000
  Sc  Sc15      1.0  0.25467  0.50000  0.12443  1.0000
  Sc  Sc16      1.0  0.00000  0.75905  0.12899  1.0000
  Sc  Sc17      1.0  0.50000  0.00000  0.87159  1.0000
  Sc  Sc18      1.0  0.75000  0.25000  0.87159  1.0000
  Sc  Sc19      1.0  0.75000  0.00000  0.95720  1.0000
  Sc  Sc20      1.0  0.50000  0.25000  0.95720  1.0000
  Sc  Sc21      1.0  0.50001  0.00001  0.04572  1.0000
  Sc  Sc22      1.0  0.74460  0.25537  0.04382  1.0000
  Sc  Sc23      1.0  0.75904  0.99999  0.12899  1.0000
  Sc  Sc24      1.0  0.50000  0.25471  0.12444  1.0000
  Sc  Sc25      1.0  0.50000  0.50000  0.87159  1.0000
  Sc  Sc26      1.0  0.75000  0.75000  0.87159  1.0000
  Sc  Sc27      1.0  0.75000  0.50000  0.95720  1.0000
  Sc  Sc28      1.0  0.50000  0.75000  0.95720  1.0000
  Sc  Sc29      1.0  0.49990  0.50008  0.04460  1.0000
  Sc  Sc30      1.0  0.74459  0.74463  0.04382  1.0000
  Sc  Sc31      1.0  0.74534  0.50000  0.12443  1.0000
  Sc  Sc32      1.0  0.50001  0.74528  0.12443  1.0000
  C   C1        1.0  0.00000  1.00000  0.12693  1.0000
