# generated using pymatgen
data_Sc32C
_symmetry_space_group_name_H-M   'P 1'
_cell_length_a   9.21507000
_cell_length_b   9.21507000
_cell_length_c   26.91130000
_cell_angle_alpha   90.00000000
_cell_angle_beta   90.00000000
_cell_angle_gamma   90.00000000
_symmetry_Int_Tables_number   1
_chemical_formula_structural   Sc32C
_chemical_formula_sum   'Sc32 C1'
_cell_volume   2285.24072424
_cell_formula_units_Z   1
loop_
 _symmetry_equiv_pos_site_id
 _symmetry_equiv_pos_as_xyz
  1  'x, y, z'
loop_
 _atom_site_type_symbol
 _atom_site_label
 _atom_site_symmetry_multiplicity
 _atom_site_fract_x
 _atom_site_fract_y
 _atom_site_fract_z
 _atom_site_occupancy
  Sc  Sc0  1  0.00000000  0.00000000  0.12841000  1
  Sc  Sc1  1  0.25000000  0.75000000  0.12841000  1
  Sc  Sc2  1  0.25000000  1.00000000  0.04280000  1
  Sc  Sc3  1  0.00000000  0.75000000  0.04280000  1
  Sc  Sc4  1  0.00002000  0.00002000  0.95420000  1
  Sc  Sc5  1  0.25542000  0.74464000  0.95618000  1
  Sc  Sc6  1  0.24096000  1.00000000  0.87101000  1
  Sc  Sc7  1  0.00001000  0.75905000  0.87101000  1
  Sc  Sc8  1  1.00000000  0.50000000  0.12841000  1
  Sc  Sc9  1  0.25000000  0.25000000  0.12841000  1
  Sc  Sc10  1  0.25000000  0.50000000  0.04280000  1
  Sc  Sc11  1  0.00000000  0.25000000  0.04280000  1
  Sc  Sc12  1  0.99998000  0.50002000  0.95430000  1
  Sc  Sc13  1  0.25539500  0.25539500  0.95617000  1
  Sc  Sc14  1  0.25467000  0.50000000  0.87557000  1
  Sc  Sc15  1  1.00000000  0.24096000  0.87101000  1
  Sc  Sc16  1  0.50000000  1.00000000  0.12841000  1
  Sc  Sc17  1  0.75000000  0.75000000  0.12841000  1
  Sc  Sc18  1  0.75000000  1.00000000  0.04280000  1
  Sc  Sc19  1  0.50000000  0.75000000  0.04280000  1
  Sc  Sc20  1  0.50002000  0.99998000  0.95430000  1
  Sc  Sc21  1  0.74461500  0.74461500  0.95618000  1
  Sc  Sc22  1  0.75905000  0.00001000  0.87101000  1
  Sc  Sc23  1  0.50000000  0.74529000  0.87556000  1
  Sc  Sc24  1  0.50000000  0.50000000  0.12841000  1
  Sc  Sc25  1  0.75000000  0.25000000  0.12841000  1
  Sc  Sc26  1  0.75000000  0.50000000  0.04280000  1
  Sc  Sc27  1  0.50000000  0.25000000  0.04280000  1
  Sc  Sc28  1  0.49991000  0.49991000  0.95540000  1
  Sc  Sc29  1  0.74464000  0.25542000  0.95618000  1
  Sc  Sc30  1  0.74529000  0.50000000  0.87556000  1
  Sc  Sc31  1  0.50000000  0.25467000  0.87557000  1
  C  C32  1  0.00000000  0.00000000  0.87307000  1
