# generated using pymatgen
data_Sc32C
_symmetry_space_group_name_H-M   Cm
_cell_length_a   13.03207697
_cell_length_b   13.03207697
_cell_length_c   26.91130000
_cell_angle_alpha   90.00000000
_cell_angle_beta   90.00000000
_cell_angle_gamma   90.00000000
_symmetry_Int_Tables_number   8
_chemical_formula_structural   Sc32C
_chemical_formula_sum   'Sc64 C2'
_cell_volume   4570.48144848
_cell_formula_units_Z   2
loop_
 _symmetry_equiv_pos_site_id
 _symmetry_equiv_pos_as_xyz
  1  'x, y, z'
  2  'x, -y, z'
  3  'x+1/2, y+1/2, z'
  4  'x+1/2, -y+1/2, z'
loop_
 _atom_site_type_symbol
 _atom_site_label
 _atom_site_symmetry_multiplicity
 _atom_site_fract_x
 _atom_site_fract_y
 _atom_site_fract_z
 _atom_site_occupancy
  Sc  Sc0  4  0.00000000  0.25000000  0.87159000  1.0
  Sc  Sc1  4  0.00003000  0.25539000  0.04382000  1.0
  Sc  Sc2  4  0.12048000  0.87952000  0.12899000  1.0
  Sc  Sc3  4  0.12264500  0.37735500  0.12444000  1.0
  Sc  Sc4  4  0.12500000  0.12500000  0.95720000  1.0
  Sc  Sc5  4  0.12500000  0.37500000  0.95720000  1.0
  Sc  Sc6  4  0.25000000  0.25000000  0.87159000  1.0
  Sc  Sc7  4  0.25000000  0.25002000  0.04570000  1.0
  Sc  Sc8  4  0.37500000  0.12500000  0.95720000  1.0
  Sc  Sc9  4  0.37500000  0.37500000  0.95720000  1.0
  Sc  Sc10  4  0.37733500  0.12266500  0.12443000  1.0
  Sc  Sc11  4  0.37953000  0.37952000  0.12899000  1.0
  Sc  Sc12  2  0.00000000  0.00000000  0.87159000  1.0
  Sc  Sc13  2  0.00000000  0.50000000  0.87159000  1.0
  Sc  Sc14  2  0.00002000  0.00000000  0.04580000  1.0
  Sc  Sc15  2  0.24461500  0.50000000  0.04382000  1.0
  Sc  Sc16  2  0.25000000  0.50000000  0.87159000  1.0
  Sc  Sc17  2  0.25000000  0.00000000  0.87159000  1.0
  Sc  Sc18  2  0.25539500  0.00000000  0.04383000  1.0
  Sc  Sc19  2  0.49991000  0.00000000  0.04460000  1.0
  C  C20  2  0.00000000  0.00000000  0.12693000  1.0
