# generated using pymatgen
data_LiMgInAg
_symmetry_space_group_name_H-M   P1
_cell_length_a   6.69019000
_cell_length_b   6.69019000
_cell_length_c   25.01760000
_cell_angle_alpha   90.00000000
_cell_angle_beta   90.00000000
_cell_angle_gamma   90.00000000
_symmetry_Int_Tables_number   1
_chemical_formula_structural   LiMgInAg
_chemical_formula_sum   'Li4 Mg4 In4 Ag4'
_cell_volume   1119.75380801
_cell_formula_units_Z   4
loop_
 _symmetry_equiv_pos_site_id
 _symmetry_equiv_pos_as_xyz
  1  'x, y, z'
loop_
 _atom_site_type_symbol
 _atom_site_label
 _atom_site_symmetry_multiplicity
 _atom_site_fract_x
 _atom_site_fract_y
 _atom_site_fract_z
 _atom_site_occupancy
  Li  Li0  1  -0.00000000  0.50000000  0.89972000  1.0
  Li  Li1  1  0.50000000  0.00000000  0.89972000  1.0
  Li  Li2  1  0.50002000  0.50000000  0.04053000  1.0
  Li  Li3  1  0.99981000  0.00000000  0.04122000  1.0
  Mg  Mg4  1  0.25000000  0.75000000  0.96657000  1.0
  Mg  Mg5  1  0.25133000  0.25143000  0.10733000  1.0
  Mg  Mg6  1  0.74869000  0.74860000  0.10732000  1.0
  Mg  Mg7  1  0.75000000  0.25000000  0.96657000  1.0
  In  In8  1  0.24898000  0.75126000  0.11662000  1.0
  In  In9  1  0.25000000  0.25000000  0.96657000  1.0
  In  In10  1  0.75000000  0.75000000  0.96657000  1.0
  In  In11  1  0.75103000  0.24874000  0.11663000  1.0
  Ag  Ag12  1  -0.00000000  0.50000000  0.03828000  1.0
  Ag  Ag13  1  0.00000000  0.00000000  0.89972000  1.0
  Ag  Ag14  1  0.50000000  0.50000000  0.89972000  1.0
  Ag  Ag15  1  0.50003000  0.00002000  0.03835000  1.0
