# generated using pymatgen
data_Sc8In8Ag8Pd8CO
_symmetry_space_group_name_H-M   Pm
_cell_length_a   6.71273000
_cell_length_b   9.49324000
_cell_length_c   27.11990000
_cell_angle_alpha   90.00000000
_cell_angle_beta   90.00000000
_cell_angle_gamma   90.00000000
_symmetry_Int_Tables_number   6
_chemical_formula_structural   Sc8In8Ag8Pd8CO
_chemical_formula_sum   'Sc8 In8 Ag8 Pd8 C1 O1'
_cell_volume   1728.23073180
_cell_formula_units_Z   1
loop_
 _symmetry_equiv_pos_site_id
 _symmetry_equiv_pos_as_xyz
  1  'x, y, z'
  2  'x, -y, z'
loop_
 _atom_site_type_symbol
 _atom_site_label
 _atom_site_symmetry_multiplicity
 _atom_site_fract_x
 _atom_site_fract_y
 _atom_site_fract_z
 _atom_site_occupancy
  Sc  Sc0  2  0.25000000  0.25000000  0.86873000  1.0
  Sc  Sc1  2  0.25791000  0.25006000  0.04837000  1.0
  Sc  Sc2  1  0.74422000  0.00000000  0.12761000  1.0
  Sc  Sc3  1  0.74500000  0.50000000  0.12769000  1.0
  Sc  Sc4  1  0.75000000  0.00000000  0.95624000  1.0
  Sc  Sc5  1  0.75000000  0.50000000  0.95624000  1.0
  In  In6  2  0.74486000  0.25007000  0.04438000  1.0
  In  In7  2  0.75000000  0.25000000  0.86873000  1.0
  In  In8  1  0.23676000  0.00000000  0.13757000  1.0
  In  In9  1  0.23739000  0.50000000  0.13764000  1.0
  In  In10  1  0.25000000  0.00000000  0.95624000  1.0
  In  In11  1  0.25000000  0.50000000  0.95624000  1.0
  Ag  Ag12  2  0.49027000  0.25017000  0.14261000  1.0
  Ag  Ag13  2  0.50000000  0.25000000  0.95624000  1.0
  Ag  Ag14  1  0.00000000  0.00000000  0.86873000  1.0
  Ag  Ag15  1  0.00000000  0.50000000  0.86873000  1.0
  Ag  Ag16  1  0.00568000  0.00000000  0.04365000  1.0
  Ag  Ag17  1  0.00576000  0.50000000  0.04363000  1.0
  Pd  Pd18  2  0.00000000  0.25000000  0.95624000  1.0
  Pd  Pd19  2  0.99358000  0.25006000  0.12621000  1.0
  Pd  Pd20  1  0.49996000  0.00000000  0.04389000  1.0
  Pd  Pd21  1  0.50000000  0.00000000  0.86873000  1.0
  Pd  Pd22  1  0.50000000  0.50000000  0.86873000  1.0
  Pd  Pd23  1  0.50026000  0.50000000  0.04395000  1.0
  C  C24  1  0.29224000  0.00000000  0.28347000  1.0
  O  O25  1  0.21255000  0.00000000  0.32039000  1.0
