# generated using pymatgen
data_Ti8Ga8Ni16C
_symmetry_space_group_name_H-M   Pmm2
_cell_length_a   5.94410000
_cell_length_b   8.40623000
_cell_length_c   26.30470000
_cell_angle_alpha   90.00000000
_cell_angle_beta   90.00000000
_cell_angle_gamma   90.00000000
_symmetry_Int_Tables_number   25
_chemical_formula_structural   Ti8Ga8Ni16C
_chemical_formula_sum   'Ti8 Ga8 Ni16 C1'
_cell_volume   1314.37935396
_cell_formula_units_Z   1
loop_
 _symmetry_equiv_pos_site_id
 _symmetry_equiv_pos_as_xyz
  1  'x, y, z'
  2  '-x, -y, z'
  3  '-x, y, z'
  4  'x, -y, z'
loop_
 _atom_site_type_symbol
 _atom_site_label
 _atom_site_symmetry_multiplicity
 _atom_site_fract_x
 _atom_site_fract_y
 _atom_site_fract_z
 _atom_site_occupancy
  Ti  Ti0  2  0.50000000  0.23734000  0.12235000  1.0
  Ti  Ti1  2  0.50000000  0.25000000  0.96005000  1.0
  Ti  Ti2  1  0.00000000  0.00000000  0.03924000  1.0
  Ti  Ti3  1  0.00000000  0.00000000  0.88016000  1.0
  Ti  Ti4  1  0.00000000  0.50000000  0.03995000  1.0
  Ti  Ti5  1  0.00000000  0.50000000  0.88016000  1.0
  Ga  Ga6  2  0.00000000  0.25000000  0.96005000  1.0
  Ga  Ga7  2  0.00000000  0.25597000  0.12001000  1.0
  Ga  Ga8  1  0.50000000  0.00000000  0.04079000  1.0
  Ga  Ga9  1  0.50000000  0.00000000  0.88016000  1.0
  Ga  Ga10  1  0.50000000  0.50000000  0.04075000  1.0
  Ga  Ga11  1  0.50000000  0.50000000  0.88016000  1.0
  Ni  Ni12  4  0.25000000  0.25000000  0.88016000  1.0
  Ni  Ni13  4  0.26302000  0.25046000  0.04031000  1.0
  Ni  Ni14  2  0.20471000  0.00000000  0.11841000  1.0
  Ni  Ni15  2  0.24133000  0.50000000  0.11513000  1.0
  Ni  Ni16  2  0.25000000  0.00000000  0.96005000  1.0
  Ni  Ni17  2  0.25000000  0.50000000  0.96005000  1.0
  C  C18  1  0.50000000  0.00000000  0.14203000  1.0
