# generated using pymatgen
data_Li2AlRh
_symmetry_space_group_name_H-M   'P 1'
_cell_length_a   6.01864000
_cell_length_b   6.01864000
_cell_length_c   24.51400000
_cell_angle_alpha   90.00000000
_cell_angle_beta   90.00000000
_cell_angle_gamma   90.00000000
_symmetry_Int_Tables_number   1
_chemical_formula_structural   Li2AlRh
_chemical_formula_sum   'Li8 Al4 Rh4'
_cell_volume   887.99580890
_cell_formula_units_Z   4
loop_
 _symmetry_equiv_pos_site_id
 _symmetry_equiv_pos_as_xyz
  1  'x, y, z'
loop_
 _atom_site_type_symbol
 _atom_site_label
 _atom_site_symmetry_multiplicity
 _atom_site_fract_x
 _atom_site_fract_y
 _atom_site_fract_z
 _atom_site_occupancy
  Li  Li0  1  0.00000000  0.00000000  0.03321000  1
  Li  Li1  1  0.00000000  0.50000000  0.90793000  1
  Li  Li2  1  0.50000000  1.00000000  0.90793000  1
  Li  Li3  1  0.50000000  0.50000000  0.03351000  1
  Li  Li4  1  0.75102000  0.24898000  0.10676000  1
  Li  Li5  1  0.25000000  0.25000000  0.96931000  1
  Li  Li6  1  0.24898000  0.75102000  0.10676000  1
  Li  Li7  1  0.75000000  0.75000000  0.96931000  1
  Al  Al8  1  0.00000000  0.00000000  0.90793000  1
  Al  Al9  1  0.50000000  0.50000000  0.90793000  1
  Al  Al10  1  0.00000000  0.50000000  0.03128000  1
  Al  Al11  1  0.50000000  1.00000000  0.03128000  1
  Rh  Rh12  1  0.75000000  0.25000000  0.96931000  1
  Rh  Rh13  1  0.24951000  0.24951000  0.08317000  1
  Rh  Rh14  1  0.25000000  0.75000000  0.96931000  1
  Rh  Rh15  1  0.75049000  0.75049000  0.08317000  1
