data_image0
_chemical_formula_structural       Li8Ge8Rh16CO
_chemical_formula_sum              "Li8 Ge8 Rh16 C1 O1"
_cell_length_a       5.9441
_cell_length_b       8.40623
_cell_length_c       26.3047
_cell_angle_alpha    90
_cell_angle_beta     90
_cell_angle_gamma    90

_space_group_name_H-M_alt    "P 1"
_space_group_IT_number       1

loop_
  _space_group_symop_operation_xyz
  'x, y, z'

loop_
  _atom_site_type_symbol
  _atom_site_label
  _atom_site_symmetry_multiplicity
  _atom_site_fract_x
  _atom_site_fract_y
  _atom_site_fract_z
  _atom_site_occupancy
  Li  Li1       1.0  0.00000  0.00000  0.88016  1.0000
  Li  Li2       1.0  0.50000  0.25000  0.96005  1.0000
  Li  Li3       1.0  0.50000  0.75000  0.96005  1.0000
  Li  Li4       1.0  0.00000  0.50000  0.88016  1.0000
  Li  Li5       1.0  0.00016  0.50001  0.03864  1.0000
  Li  Li6       1.0  0.49648  0.74726  0.14085  1.0000
  Li  Li7       1.0  0.49646  0.25274  0.14084  1.0000
  Li  Li8       1.0  0.99958  0.99999  0.03957  1.0000
  Ge  Ge1       1.0  0.00000  0.75000  0.96005  1.0000
  Ge  Ge2       1.0  0.50000  0.00000  0.88016  1.0000
  Ge  Ge3       1.0  0.00000  0.25000  0.96005  1.0000
  Ge  Ge4       1.0  0.50000  0.50000  0.88016  1.0000
  Ge  Ge5       1.0  0.99772  0.25297  0.11847  1.0000
  Ge  Ge6       1.0  0.49770  0.50001  0.03892  1.0000
  Ge  Ge7       1.0  0.99772  0.74704  0.11846  1.0000
  Ge  Ge8       1.0  0.50117  0.99999  0.04059  1.0000
  Rh  Rh1       1.0  0.25000  0.00000  0.96005  1.0000
  Rh  Rh2       1.0  0.75000  0.50000  0.96005  1.0000
  Rh  Rh3       1.0  0.75000  0.00000  0.96005  1.0000
  Rh  Rh4       1.0  0.25000  0.50000  0.96005  1.0000
  Rh  Rh5       1.0  0.75000  0.75000  0.88016  1.0000
  Rh  Rh6       1.0  0.25000  0.25000  0.88016  1.0000
  Rh  Rh7       1.0  0.25000  0.75000  0.88016  1.0000
  Rh  Rh8       1.0  0.75000  0.25000  0.88016  1.0000
  Rh  Rh9       1.0  0.24396  0.50000  0.11448  1.0000
  Rh  Rh10      1.0  0.75967  0.00000  0.11678  1.0000
  Rh  Rh11      1.0  0.75175  0.50000  0.11480  1.0000
  Rh  Rh12      1.0  0.25354  0.00001  0.12431  1.0000
  Rh  Rh13      1.0  0.74531  0.24864  0.03962  1.0000
  Rh  Rh14      1.0  0.25213  0.75464  0.04009  1.0000
  Rh  Rh15      1.0  0.25214  0.24535  0.04008  1.0000
  Rh  Rh16      1.0  0.74532  0.75135  0.03962  1.0000
  C   C1        1.0  0.31530  1.00000  0.19384  1.0000
  O   O1        1.0  0.34799  0.00000  0.23751  1.0000
