# generated using pymatgen
data_Li8Ge8Rh16CO
_symmetry_space_group_name_H-M   'P 1'
_cell_length_a   8.40623000
_cell_length_b   5.94410000
_cell_length_c   26.30470000
_cell_angle_alpha   90.00000000
_cell_angle_beta   90.00000000
_cell_angle_gamma   90.00000000
_symmetry_Int_Tables_number   1
_chemical_formula_structural   Li8Ge8Rh16CO
_chemical_formula_sum   'Li8 Ge8 Rh16 C1 O1'
_cell_volume   1314.37935396
_cell_formula_units_Z   1
loop_
 _symmetry_equiv_pos_site_id
 _symmetry_equiv_pos_as_xyz
  1  'x, y, z'
loop_
 _atom_site_type_symbol
 _atom_site_label
 _atom_site_symmetry_multiplicity
 _atom_site_fract_x
 _atom_site_fract_y
 _atom_site_fract_z
 _atom_site_occupancy
  Li  Li0  1  0.00000000  0.00000000  0.11984000  1.0
  Li  Li1  1  0.25000000  0.50000000  0.03995000  1.0
  Li  Li2  1  0.75000000  0.50000000  0.03995000  1.0
  Li  Li3  1  0.50000000  1.00000000  0.11984000  1.0
  Li  Li4  1  0.50000000  0.00016000  0.96136000  1.0
  Li  Li5  1  0.74726000  0.49648000  0.85915000  1.0
  Li  Li6  1  0.25274000  0.49648000  0.85915000  1.0
  Li  Li7  1  0.00000000  0.99958000  0.96043000  1.0
  Ge  Ge8  1  0.75000000  1.00000000  0.03995000  1.0
  Ge  Ge9  1  0.00000000  0.50000000  0.11984000  1.0
  Ge  Ge10  1  0.25000000  1.00000000  0.03995000  1.0
  Ge  Ge11  1  0.50000000  0.50000000  0.11984000  1.0
  Ge  Ge12  1  0.25297000  0.99772000  0.88153000  1.0
  Ge  Ge13  1  0.50000000  0.49770000  0.96108000  1.0
  Ge  Ge14  1  0.74703000  0.99772000  0.88153000  1.0
  Ge  Ge15  1  0.00000000  0.50117000  0.95941000  1.0
  Rh  Rh16  1  0.00000000  0.25000000  0.03995000  1.0
  Rh  Rh17  1  0.50000000  0.75000000  0.03995000  1.0
  Rh  Rh18  1  0.00000000  0.75000000  0.03995000  1.0
  Rh  Rh19  1  0.50000000  0.25000000  0.03995000  1.0
  Rh  Rh20  1  0.75000000  0.75000000  0.11984000  1.0
  Rh  Rh21  1  0.25000000  0.25000000  0.11984000  1.0
  Rh  Rh22  1  0.75000000  0.25000000  0.11984000  1.0
  Rh  Rh23  1  0.25000000  0.75000000  0.11984000  1.0
  Rh  Rh24  1  0.50000000  0.24396000  0.88552000  1.0
  Rh  Rh25  1  0.00000000  0.75967000  0.88322000  1.0
  Rh  Rh26  1  0.50000000  0.75175000  0.88520000  1.0
  Rh  Rh27  1  0.00000000  0.25354000  0.87569000  1.0
  Rh  Rh28  1  0.24864000  0.74531000  0.96038000  1.0
  Rh  Rh29  1  0.75464000  0.25213000  0.95991000  1.0
  Rh  Rh30  1  0.24536000  0.25213000  0.95991000  1.0
  Rh  Rh31  1  0.75136000  0.74531000  0.96038000  1.0
  C  C32  1  0.00000000  0.31530000  0.80616000  1.0
  O  O33  1  0.00000000  0.34799000  0.76249000  1.0
