# generated using pymatgen
data_Li8In8Cu8Sn8CO
_symmetry_space_group_name_H-M   'P 1'
_cell_length_a   9.53092000
_cell_length_b   6.73938000
_cell_length_c   27.14820000
_cell_angle_alpha   90.00000000
_cell_angle_beta   90.00000000
_cell_angle_gamma   90.00000000
_symmetry_Int_Tables_number   1
_chemical_formula_structural   Li8In8Cu8Sn8CO
_chemical_formula_sum   'Li8 In8 Cu8 Sn8 C1 O1'
_cell_volume   1743.79652926
_cell_formula_units_Z   1
loop_
 _symmetry_equiv_pos_site_id
 _symmetry_equiv_pos_as_xyz
  1  'x, y, z'
loop_
 _atom_site_type_symbol
 _atom_site_label
 _atom_site_symmetry_multiplicity
 _atom_site_fract_x
 _atom_site_fract_y
 _atom_site_fract_z
 _atom_site_occupancy
  Li  Li0  1  0.00000000  0.00000000  0.04388000  1.0
  Li  Li1  1  0.50000000  0.00000000  0.04388000  1.0
  Li  Li2  1  0.25000000  0.50000000  0.13165000  1.0
  Li  Li3  1  0.75000000  0.50000000  0.13165000  1.0
  Li  Li4  1  0.50000000  0.97940000  0.84939000  1.0
  Li  Li5  1  0.00000000  0.99487000  0.85536000  1.0
  Li  Li6  1  0.74626000  0.49195000  0.95546000  1.0
  Li  Li7  1  0.25374000  0.49195000  0.95546000  1.0
  In  In8  1  0.75000000  0.25000000  0.04388000  1.0
  In  In9  1  0.25000000  0.25000000  0.04388000  1.0
  In  In10  1  0.00000000  0.75000000  0.13165000  1.0
  In  In11  1  0.50000000  0.75000000  0.13165000  1.0
  In  In12  1  0.26403000  0.26040000  0.85761000  1.0
  In  In13  1  0.73597000  0.26040000  0.85761000  1.0
  In  In14  1  0.50000000  0.76291000  0.95616000  1.0
  In  In15  1  0.00000000  0.74979000  0.95275000  1.0
  Cu  Cu16  1  0.75000000  0.00000000  0.13165000  1.0
  Cu  Cu17  1  0.25000000  0.00000000  0.13165000  1.0
  Cu  Cu18  1  0.50000000  0.50000000  0.04388000  1.0
  Cu  Cu19  1  0.00000000  0.50000000  0.04388000  1.0
  Cu  Cu20  1  0.24591000  0.00326000  0.95745000  1.0
  Cu  Cu21  1  0.75409000  0.00326000  0.95745000  1.0
  Cu  Cu22  1  0.00000000  0.50468000  0.86789000  1.0
  Cu  Cu23  1  0.50000000  0.51795000  0.87799000  1.0
  Sn  Sn24  1  0.75000000  0.75000000  0.04388000  1.0
  Sn  Sn25  1  0.25000000  0.75000000  0.04388000  1.0
  Sn  Sn26  1  0.00000000  0.25000000  0.13165000  1.0
  Sn  Sn27  1  0.50000000  0.25000000  0.13165000  1.0
  Sn  Sn28  1  0.25435000  0.74998000  0.86833000  1.0
  Sn  Sn29  1  0.74565000  0.74998000  0.86833000  1.0
  Sn  Sn30  1  0.50000000  0.23525000  0.95141000  1.0
  Sn  Sn31  1  0.00000000  0.24300000  0.94893000  1.0
  C  C32  1  0.00000000  0.48844000  0.79862000  1.0
  O  O33  1  0.00000000  0.49255000  0.75610000  1.0
