# generated using pymatgen
data_Sc8Ga8Ge8Pd8C
_symmetry_space_group_name_H-M   Pmm2
_cell_length_a   7.83718000
_cell_length_b   8.08666000
_cell_length_c   26.43810000
_cell_angle_alpha   90.00000000
_cell_angle_beta   90.00000000
_cell_angle_gamma   90.00000000
_symmetry_Int_Tables_number   25
_chemical_formula_structural   Sc8Ga8Ge8Pd8C
_chemical_formula_sum   'Sc8 Ga8 Ge8 Pd8 C1'
_cell_volume   1675.55715334
_cell_formula_units_Z   1
loop_
 _symmetry_equiv_pos_site_id
 _symmetry_equiv_pos_as_xyz
  1  'x, y, z'
  2  '-x, -y, z'
  3  '-x, y, z'
  4  'x, -y, z'
loop_
 _atom_site_type_symbol
 _atom_site_label
 _atom_site_symmetry_multiplicity
 _atom_site_fract_x
 _atom_site_fract_y
 _atom_site_fract_z
 _atom_site_occupancy
  Sc  Sc0  1  0.00000000  0.00000000  0.04713000  1.0
  Sc  Sc1  1  0.00000000  0.00000000  0.87824000  1.0
  Sc  Sc2  1  0.00000000  0.50000000  0.04915000  1.0
  Sc  Sc3  1  0.00000000  0.50000000  0.87824000  1.0
  Sc  Sc4  1  0.50000000  0.00000000  0.04421000  1.0
  Sc  Sc5  1  0.50000000  0.00000000  0.87824000  1.0
  Sc  Sc6  1  0.50000000  0.50000000  0.04419000  1.0
  Sc  Sc7  1  0.50000000  0.50000000  0.87824000  1.0
  Ga  Ga8  2  0.00000000  0.24811000  0.13314000  1.0
  Ga  Ga9  2  0.00000000  0.25000000  0.95941000  1.0
  Ga  Ga10  2  0.50000000  0.25000000  0.95941000  1.0
  Ga  Ga11  2  0.50000000  0.26018000  0.12974000  1.0
  Ge  Ge12  4  0.24995000  0.25374000  0.03837000  1.0
  Ge  Ge13  4  0.25000000  0.25000000  0.87824000  1.0
  Pd  Pd14  2  0.25000000  0.00000000  0.95941000  1.0
  Pd  Pd15  2  0.25000000  0.50000000  0.95941000  1.0
  Pd  Pd16  2  0.26001000  0.50000000  0.12453000  1.0
  Pd  Pd17  2  0.30111000  0.00000000  0.13058000  1.0
  C  C18  1  0.00000000  0.00000000  0.12873000  1.0
