# generated using pymatgen
data_LiCuSbPd
_symmetry_space_group_name_H-M   'P 1'
_cell_length_a   4.50603796
_cell_length_b   4.50603796
_cell_length_c   24.77940000
_cell_angle_alpha   90.00000000
_cell_angle_beta   90.00000000
_cell_angle_gamma   90.00000000
_symmetry_Int_Tables_number   1
_chemical_formula_structural   LiCuSbPd
_chemical_formula_sum   'Li2 Cu2 Sb2 Pd2'
_cell_volume   503.13030731
_cell_formula_units_Z   2
loop_
 _symmetry_equiv_pos_site_id
 _symmetry_equiv_pos_as_xyz
  1  'x, y, z'
loop_
 _atom_site_type_symbol
 _atom_site_label
 _atom_site_symmetry_multiplicity
 _atom_site_fract_x
 _atom_site_fract_y
 _atom_site_fract_z
 _atom_site_occupancy
  Li  Li0  1  0.00000000  0.50000000  0.03215000  1.0
  Li  Li1  1  0.50000000  0.00000000  0.90442000  1.0
  Cu  Cu2  1  0.00000000  0.00000000  0.09644000  1.0
  Cu  Cu3  1  0.50000000  0.50000000  0.96318000  1.0
  Sb  Sb4  1  0.50000000  0.00000000  0.03215000  1.0
  Sb  Sb5  1  0.00000000  0.50000000  0.90255000  1.0
  Pd  Pd6  1  0.50000000  0.50000000  0.09644000  1.0
  Pd  Pd7  1  0.00000000  0.00000000  0.96499000  1.0
