# generated using pymatgen
data_YInCuPd
_symmetry_space_group_name_H-M   'P 1'
_cell_length_a   6.76944000
_cell_length_b   4.78672000
_cell_length_c   27.18010000
_cell_angle_alpha   90.00000000
_cell_angle_beta   90.00000000
_cell_angle_gamma   90.00000000
_symmetry_Int_Tables_number   1
_chemical_formula_structural   YInCuPd
_chemical_formula_sum   'Y4 In4 Cu4 Pd4'
_cell_volume   880.72802843
_cell_formula_units_Z   4
loop_
 _symmetry_equiv_pos_site_id
 _symmetry_equiv_pos_as_xyz
  1  'x, y, z'
loop_
 _atom_site_type_symbol
 _atom_site_label
 _atom_site_symmetry_multiplicity
 _atom_site_fract_x
 _atom_site_fract_y
 _atom_site_fract_z
 _atom_site_occupancy
  Y  Y0  1  0.25000000  0.00000000  0.95597000  1.0
  Y  Y1  1  0.75000000  0.50000000  0.86792000  1.0
  Y  Y2  1  0.24859000  0.00000000  0.13514000  1.0
  Y  Y3  1  0.75139000  0.50000000  0.04353000  1.0
  In  In4  1  0.75000000  0.00000000  0.95597000  1.0
  In  In5  1  0.25000000  0.50000000  0.86792000  1.0
  In  In6  1  0.74849000  0.00000000  0.13423000  1.0
  In  In7  1  0.24909000  0.50000000  0.04576000  1.0
  Cu  Cu8  1  0.00000000  0.00000000  0.86792000  1.0
  Cu  Cu9  1  0.50000000  0.50000000  0.95597000  1.0
  Cu  Cu10  1  0.01118000  0.00000000  0.04664000  1.0
  Cu  Cu11  1  0.51819000  0.50000000  0.13064000  1.0
  Pd  Pd12  1  0.00000000  0.50000000  0.95597000  1.0
  Pd  Pd13  1  0.50000000  0.00000000  0.86792000  1.0
  Pd  Pd14  1  0.98606000  0.50000000  0.12959000  1.0
  Pd  Pd15  1  0.48834000  0.00000000  0.04662000  1.0
