# generated using pymatgen
data_Li8Sc8In8Pd8C
_symmetry_space_group_name_H-M   'P 1'
_cell_length_a   9.31984000
_cell_length_b   6.59012000
_cell_length_c   26.98990000
_cell_angle_alpha   90.00000000
_cell_angle_beta   90.00000000
_cell_angle_gamma   90.00000000
_symmetry_Int_Tables_number   1
_chemical_formula_structural   Li8Sc8In8Pd8C
_chemical_formula_sum   'Li8 Sc8 In8 Pd8 C1'
_cell_volume   1657.68899696
_cell_formula_units_Z   1
loop_
 _symmetry_equiv_pos_site_id
 _symmetry_equiv_pos_as_xyz
  1  'x, y, z'
loop_
 _atom_site_type_symbol
 _atom_site_label
 _atom_site_symmetry_multiplicity
 _atom_site_fract_x
 _atom_site_fract_y
 _atom_site_fract_z
 _atom_site_occupancy
  Li  Li0  1  0.75000000  0.75000000  0.04316000  1.0
  Li  Li1  1  0.25000000  0.75000000  0.04316000  1.0
  Li  Li2  1  0.00000000  0.25000000  0.12949000  1.0
  Li  Li3  1  0.50000000  0.25000000  0.12949000  1.0
  Li  Li4  1  0.21819000  0.68467000  0.81606000  1.0
  Li  Li5  1  0.78181000  0.68467000  0.81606000  1.0
  Li  Li6  1  0.50000000  0.26525000  0.95490000  1.0
  Li  Li7  1  0.00000000  0.25613000  0.95561000  1.0
  Sc  Sc8  1  0.00000000  1.00000000  0.04316000  1.0
  Sc  Sc9  1  0.50000000  1.00000000  0.04316000  1.0
  Sc  Sc10  1  0.25000000  0.50000000  0.12949000  1.0
  Sc  Sc11  1  0.75000000  0.50000000  0.12949000  1.0
  Sc  Sc12  1  0.50000000  0.97922000  0.87617000  1.0
  Sc  Sc13  1  0.00000000  0.98989000  0.87022000  1.0
  Sc  Sc14  1  0.74794000  0.52200000  0.95011000  1.0
  Sc  Sc15  1  0.25206000  0.52200000  0.95011000  1.0
  In  In16  1  0.75000000  0.00000000  0.12949000  1.0
  In  In17  1  0.25000000  0.00000000  0.12949000  1.0
  In  In18  1  0.50000000  0.50000000  0.04316000  1.0
  In  In19  1  0.00000000  0.50000000  0.04316000  1.0
  In  In20  1  0.25042000  0.00126000  0.95642000  1.0
  In  In21  1  0.74958000  0.00126000  0.95642000  1.0
  In  In22  1  0.00000000  0.47274000  0.86516000  1.0
  In  In23  1  0.50000000  0.51910000  0.86059000  1.0
  Pd  Pd24  1  0.75000000  0.25000000  0.04316000  1.0
  Pd  Pd25  1  0.25000000  0.25000000  0.04316000  1.0
  Pd  Pd26  1  0.00000000  0.75000000  0.12949000  1.0
  Pd  Pd27  1  0.50000000  0.75000000  0.12949000  1.0
  Pd  Pd28  1  0.26432000  0.25848000  0.87554000  1.0
  Pd  Pd29  1  0.73568000  0.25848000  0.87554000  1.0
  Pd  Pd30  1  0.50000000  0.75000000  0.95897000  1.0
  Pd  Pd31  1  0.00000000  0.75495000  0.96095000  1.0
  C  C32  1  0.00000000  0.74969000  0.82419000  1.0
