# generated using pymatgen
data_Mn8Ni16Ge8CO
_symmetry_space_group_name_H-M   'P 1'
_cell_length_a   8.26252000
_cell_length_b   5.84248000
_cell_length_c   26.19690000
_cell_angle_alpha   90.00000000
_cell_angle_beta   90.00000000
_cell_angle_gamma   90.00000000
_symmetry_Int_Tables_number   1
_chemical_formula_structural   Mn8Ni16Ge8CO
_chemical_formula_sum   'Mn8 Ni16 Ge8 C1 O1'
_cell_volume   1264.61887748
_cell_formula_units_Z   1
loop_
 _symmetry_equiv_pos_site_id
 _symmetry_equiv_pos_as_xyz
  1  'x, y, z'
loop_
 _atom_site_type_symbol
 _atom_site_label
 _atom_site_symmetry_multiplicity
 _atom_site_fract_x
 _atom_site_fract_y
 _atom_site_fract_z
 _atom_site_occupancy
  Mn  Mn0  1  0.00000000  0.00000000  0.11828000  1.0
  Mn  Mn1  1  0.24998000  0.50000000  0.03943000  1.0
  Mn  Mn2  1  0.75002000  0.50000000  0.03943000  1.0
  Mn  Mn3  1  0.50000000  1.00000000  0.11828000  1.0
  Mn  Mn4  1  0.50000000  0.99886000  0.96315000  1.0
  Mn  Mn5  1  0.74566000  0.50094000  0.87588000  1.0
  Mn  Mn6  1  0.25434000  0.50094000  0.87588000  1.0
  Mn  Mn7  1  0.00000000  0.00803000  0.96066000  1.0
  Ni  Ni8  1  0.00000000  0.25000000  0.03943000  1.0
  Ni  Ni9  1  0.50000000  0.75000000  0.03943000  1.0
  Ni  Ni10  1  0.00000000  0.75000000  0.03943000  1.0
  Ni  Ni11  1  0.50000000  0.25000000  0.03943000  1.0
  Ni  Ni12  1  0.74998000  0.75000000  0.11828000  1.0
  Ni  Ni13  1  0.24998000  0.25000000  0.11828000  1.0
  Ni  Ni14  1  0.75002000  0.25000000  0.11828000  1.0
  Ni  Ni15  1  0.25002000  0.75000000  0.11828000  1.0
  Ni  Ni16  1  0.50000000  0.23475000  0.88652000  1.0
  Ni  Ni17  1  0.00000000  0.76125000  0.88742000  1.0
  Ni  Ni18  1  0.50000000  0.75847000  0.88663000  1.0
  Ni  Ni19  1  0.00000000  0.23617000  0.87521000  1.0
  Ni  Ni20  1  0.24817000  0.74411000  0.95989000  1.0
  Ni  Ni21  1  0.75039000  0.25561000  0.95835000  1.0
  Ni  Ni22  1  0.24961000  0.25561000  0.95835000  1.0
  Ni  Ni23  1  0.75183000  0.74411000  0.95989000  1.0
  Ge  Ge24  1  0.74998000  1.00000000  0.03943000  1.0
  Ge  Ge25  1  0.00000000  0.50000000  0.11828000  1.0
  Ge  Ge26  1  0.25002000  1.00000000  0.03943000  1.0
  Ge  Ge27  1  0.50000000  0.50000000  0.11828000  1.0
  Ge  Ge28  1  0.25286000  0.99279000  0.88075000  1.0
  Ge  Ge29  1  0.50000000  0.49892000  0.96016000  1.0
  Ge  Ge30  1  0.74714000  0.99279000  0.88075000  1.0
  Ge  Ge31  1  0.00000000  0.49391000  0.95979000  1.0
  C  C32  1  0.00000000  0.35332000  0.81271000  1.0
  O  O33  1  0.00000000  0.40344000  0.76977000  1.0
