# generated using pymatgen
data_Mn8Ni16Ge8CO
_symmetry_space_group_name_H-M   Pm
_cell_length_a   5.84248000
_cell_length_b   8.26252000
_cell_length_c   26.19690000
_cell_angle_alpha   90.00000000
_cell_angle_beta   90.00000000
_cell_angle_gamma   90.00000000
_symmetry_Int_Tables_number   6
_chemical_formula_structural   Mn8Ni16Ge8CO
_chemical_formula_sum   'Mn8 Ni16 Ge8 C1 O1'
_cell_volume   1264.61887748
_cell_formula_units_Z   1
loop_
 _symmetry_equiv_pos_site_id
 _symmetry_equiv_pos_as_xyz
  1  'x, y, z'
  2  'x, -y, z'
loop_
 _atom_site_type_symbol
 _atom_site_label
 _atom_site_symmetry_multiplicity
 _atom_site_fract_x
 _atom_site_fract_y
 _atom_site_fract_z
 _atom_site_occupancy
  Mn  Mn0  2  0.50000000  0.24998000  0.96057000  1.0
  Mn  Mn1  2  0.50094000  0.25434000  0.12412000  1.0
  Mn  Mn2  1  -0.00000000  0.50000000  0.88172000  1.0
  Mn  Mn3  1  0.00000000  0.00000000  0.88172000  1.0
  Mn  Mn4  1  0.00803000  0.00000000  0.03934000  1.0
  Mn  Mn5  1  0.99886000  0.50000000  0.03685000  1.0
  Ni  Ni6  2  0.25000000  0.24998000  0.88172000  1.0
  Ni  Ni7  2  0.25561000  0.24961000  0.04165000  1.0
  Ni  Ni8  2  0.74411000  0.24817000  0.04011000  1.0
  Ni  Ni9  2  0.75000000  0.25002000  0.88172000  1.0
  Ni  Ni10  1  0.23475000  0.50000000  0.11348000  1.0
  Ni  Ni11  1  0.23617000  0.00000000  0.12479000  1.0
  Ni  Ni12  1  0.25000000  0.00000000  0.96057000  1.0
  Ni  Ni13  1  0.25000000  0.50000000  0.96057000  1.0
  Ni  Ni14  1  0.75000000  0.00000000  0.96057000  1.0
  Ni  Ni15  1  0.75000000  0.50000000  0.96057000  1.0
  Ni  Ni16  1  0.75847000  0.50000000  0.11337000  1.0
  Ni  Ni17  1  0.76125000  0.00000000  0.11258000  1.0
  Ge  Ge18  2  -0.00000000  0.25002000  0.96057000  1.0
  Ge  Ge19  2  0.99279000  0.25286000  0.11925000  1.0
  Ge  Ge20  1  0.49391000  0.00000000  0.04021000  1.0
  Ge  Ge21  1  0.49892000  0.50000000  0.03984000  1.0
  Ge  Ge22  1  0.50000000  0.00000000  0.88172000  1.0
  Ge  Ge23  1  0.50000000  0.50000000  0.88172000  1.0
  C  C24  1  0.35332000  0.00000000  0.18729000  1.0
  O  O25  1  0.40344000  0.00000000  0.23023000  1.0
