# generated using pymatgen
data_V8Ga8Ni16CO
_symmetry_space_group_name_H-M   P1
_cell_length_a   5.81624000
_cell_length_b   8.22541000
_cell_length_c   26.16910000
_cell_angle_alpha   90.00000000
_cell_angle_beta   90.00000000
_cell_angle_gamma   90.00000000
_symmetry_Int_Tables_number   1
_chemical_formula_structural   V8Ga8Ni16CO
_chemical_formula_sum   'V8 Ga8 Ni16 C1 O1'
_cell_volume   1251.95483123
_cell_formula_units_Z   1
loop_
 _symmetry_equiv_pos_site_id
 _symmetry_equiv_pos_as_xyz
  1  'x, y, z'
loop_
 _atom_site_type_symbol
 _atom_site_label
 _atom_site_symmetry_multiplicity
 _atom_site_fract_x
 _atom_site_fract_y
 _atom_site_fract_z
 _atom_site_occupancy
  V  V0  1  -0.00000000  0.50000000  0.88213000  1.0
  V  V1  1  0.00000000  0.00000000  0.88213000  1.0
  V  V2  1  0.00868000  0.00003000  0.04144000  1.0
  V  V3  1  0.49706000  0.24980000  0.11605000  1.0
  V  V4  1  0.49718000  0.75015000  0.11603000  1.0
  V  V5  1  0.50000000  0.25000000  0.96071000  1.0
  V  V6  1  0.50000000  0.75000000  0.96071000  1.0
  V  V7  1  0.99555000  0.49999000  0.04034000  1.0
  Ga  Ga8  1  -0.00000000  0.25000000  0.96071000  1.0
  Ga  Ga9  1  -0.00000000  0.75000000  0.96071000  1.0
  Ga  Ga10  1  0.48881000  0.00005000  0.04030000  1.0
  Ga  Ga11  1  0.50000000  0.00000000  0.88213000  1.0
  Ga  Ga12  1  0.50000000  0.50000000  0.88213000  1.0
  Ga  Ga13  1  0.50375000  0.49998000  0.03696000  1.0
  Ga  Ga14  1  0.99842000  0.74588000  0.12228000  1.0
  Ga  Ga15  1  0.99850000  0.25406000  0.12227000  1.0
  Ni  Ni16  1  0.24743000  0.74499000  0.04063000  1.0
  Ni  Ni17  1  0.24756000  0.25510000  0.04062000  1.0
  Ni  Ni18  1  0.25000000  0.00000000  0.96071000  1.0
  Ni  Ni19  1  0.25000000  0.25000000  0.88213000  1.0
  Ni  Ni20  1  0.25000000  0.50000000  0.96071000  1.0
  Ni  Ni21  1  0.25000000  0.75000000  0.88213000  1.0
  Ni  Ni22  1  0.25073000  0.99995000  0.12875000  1.0
  Ni  Ni23  1  0.26426000  0.50001000  0.11317000  1.0
  Ni  Ni24  1  0.73323000  0.49994000  0.11543000  1.0
  Ni  Ni25  1  0.75000000  0.00000000  0.96071000  1.0
  Ni  Ni26  1  0.75000000  0.25000000  0.88213000  1.0
  Ni  Ni27  1  0.75000000  0.50000000  0.96071000  1.0
  Ni  Ni28  1  0.75000000  0.75000000  0.88213000  1.0
  Ni  Ni29  1  0.75114000  0.99994000  0.11291000  1.0
  Ni  Ni30  1  0.75136000  0.24667000  0.04066000  1.0
  Ni  Ni31  1  0.75156000  0.75337000  0.04061000  1.0
  C  C32  1  0.34811000  0.99996000  0.19261000  1.0
  O  O33  1  0.39530000  0.99993000  0.23565000  1.0
