# generated using pymatgen
data_Y8Au8CO
_symmetry_space_group_name_H-M   P4mm
_cell_length_a   7.24612000
_cell_length_b   7.24612000
_cell_length_c   25.43460000
_cell_angle_alpha   90.00000000
_cell_angle_beta   90.00000000
_cell_angle_gamma   90.00000000
_symmetry_Int_Tables_number   99
_chemical_formula_structural   Y8Au8CO
_chemical_formula_sum   'Y8 Au8 C1 O1'
_cell_volume   1335.47559481
_cell_formula_units_Z   1
loop_
 _symmetry_equiv_pos_site_id
 _symmetry_equiv_pos_as_xyz
  1  'x, y, z'
  2  '-y, x, z'
  3  '-x, -y, z'
  4  'y, -x, z'
  5  '-x, y, z'
  6  'y, x, z'
  7  'x, -y, z'
  8  '-y, -x, z'
loop_
 _atom_site_type_symbol
 _atom_site_label
 _atom_site_symmetry_multiplicity
 _atom_site_fract_x
 _atom_site_fract_y
 _atom_site_fract_z
 _atom_site_occupancy
  Y  Y0  2  0.00000000  0.50000000  0.12030000  1.0
  Y  Y1  2  0.00000000  0.50000000  0.97785000  1.0
  Y  Y2  1  0.00000000  0.00000000  0.12030000  1.0
  Y  Y3  1  0.00000000  0.00000000  0.97785000  1.0
  Y  Y4  1  0.50000000  0.50000000  0.12030000  1.0
  Y  Y5  1  0.50000000  0.50000000  0.97785000  1.0
  Au  Au6  4  0.25000000  0.25000000  0.04907000  1.0
  Au  Au7  4  0.25000000  0.25000000  0.90663000  1.0
  C  C8  1  0.00000000  0.00000000  0.19500000  1.0
  O  O9  1  0.00000000  0.00000000  0.24021000  1.0
