# generated using pymatgen
data_Zr4Pt12C
_symmetry_space_group_name_H-M   Pm
_cell_length_a   5.75970000
_cell_length_b   8.14544000
_cell_length_c   24.31980000
_cell_angle_alpha   90.00000000
_cell_angle_beta   90.00000000
_cell_angle_gamma   90.00000000
_symmetry_Int_Tables_number   6
_chemical_formula_structural   Zr4Pt12C
_chemical_formula_sum   'Zr4 Pt12 C1'
_cell_volume   1140.97048842
_cell_formula_units_Z   1
loop_
 _symmetry_equiv_pos_site_id
 _symmetry_equiv_pos_as_xyz
  1  'x, y, z'
  2  'x, -y, z'
loop_
 _atom_site_type_symbol
 _atom_site_label
 _atom_site_symmetry_multiplicity
 _atom_site_fract_x
 _atom_site_fract_y
 _atom_site_fract_z
 _atom_site_occupancy
  Zr  Zr0  2  0.50000000  0.25000000  0.02960000  1.0
  Zr  Zr1  2  0.99648000  0.27193000  0.91524000  1.0
  Pt  Pt2  2  0.00000000  0.25000000  0.02960000  1.0
  Pt  Pt3  2  0.51082000  0.27600000  0.91392000  1.0
  Pt  Pt4  1  0.24299000  0.50000000  0.97208000  1.0
  Pt  Pt5  1  0.25000000  0.00000000  0.08881000  1.0
  Pt  Pt6  1  0.25000000  0.50000000  0.08881000  1.0
  Pt  Pt7  1  0.25572000  0.00000000  0.95858000  1.0
  Pt  Pt8  1  0.75000000  0.00000000  0.08881000  1.0
  Pt  Pt9  1  0.75000000  0.50000000  0.08881000  1.0
  Pt  Pt10  1  0.75813000  0.50000000  0.97973000  1.0
  Pt  Pt11  1  0.76139000  0.00000000  0.95572000  1.0
  C  C12  1  0.72775000  0.50000000  0.89402000  1.0
