# generated using pymatgen
data_Al8V8Ni16C
_symmetry_space_group_name_H-M   'P 1'
_cell_length_a   8.22541000
_cell_length_b   5.81624000
_cell_length_c   26.16910000
_cell_angle_alpha   90.00000000
_cell_angle_beta   90.00000000
_cell_angle_gamma   90.00000000
_symmetry_Int_Tables_number   1
_chemical_formula_structural   Al8V8Ni16C
_chemical_formula_sum   'Al8 V8 Ni16 C1'
_cell_volume   1251.95483123
_cell_formula_units_Z   1
loop_
 _symmetry_equiv_pos_site_id
 _symmetry_equiv_pos_as_xyz
  1  'x, y, z'
loop_
 _atom_site_type_symbol
 _atom_site_label
 _atom_site_symmetry_multiplicity
 _atom_site_fract_x
 _atom_site_fract_y
 _atom_site_fract_z
 _atom_site_occupancy
  Al  Al0  1  0.75001000  0.00000000  0.11787000  1.0
  Al  Al1  1  0.00000000  0.50000000  0.03929000  1.0
  Al  Al2  1  0.50000000  0.50000000  0.03929000  1.0
  Al  Al3  1  0.24999000  0.00000000  0.11787000  1.0
  Al  Al4  1  0.24610000  0.00547000  0.96014000  1.0
  Al  Al5  1  0.50000000  0.48765000  0.87992000  1.0
  Al  Al6  1  0.00000000  0.53521000  0.87866000  1.0
  Al  Al7  1  0.75390000  0.00547000  0.96014000  1.0
  V  V8  1  0.50000000  0.00000000  0.03929000  1.0
  V  V9  1  0.75001000  0.50000000  0.11787000  1.0
  V  V10  1  0.00000000  1.00000000  0.03929000  1.0
  V  V11  1  0.24999000  0.50000000  0.11787000  1.0
  V  V12  1  0.00000000  0.96927000  0.88422000  1.0
  V  V13  1  0.25400000  0.49771000  0.95793000  1.0
  V  V14  1  0.50000000  0.01935000  0.88356000  1.0
  V  V15  1  0.74600000  0.49771000  0.95793000  1.0
  Ni  Ni16  1  0.75001000  0.25000000  0.03929000  1.0
  Ni  Ni17  1  0.25001000  0.75000000  0.03929000  1.0
  Ni  Ni18  1  0.74999000  0.75000000  0.03929000  1.0
  Ni  Ni19  1  0.24999000  0.25000000  0.03929000  1.0
  Ni  Ni20  1  0.50000000  0.75000000  0.11787000  1.0
  Ni  Ni21  1  0.00000000  0.25000000  0.11787000  1.0
  Ni  Ni22  1  0.50000000  0.25000000  0.11787000  1.0
  Ni  Ni23  1  0.00000000  0.75000000  0.11787000  1.0
  Ni  Ni24  1  0.23511000  0.25098000  0.87745000  1.0
  Ni  Ni25  1  0.73890000  0.75836000  0.88618000  1.0
  Ni  Ni26  1  0.26110000  0.75836000  0.88618000  1.0
  Ni  Ni27  1  0.76489000  0.25098000  0.87745000  1.0
  Ni  Ni28  1  0.00000000  0.73721000  0.96562000  1.0
  Ni  Ni29  1  0.50000000  0.24003000  0.96406000  1.0
  Ni  Ni30  1  0.00000000  0.26404000  0.96169000  1.0
  Ni  Ni31  1  0.50000000  0.75264000  0.95695000  1.0
  C  C32  1  0.00000000  0.23348000  0.84940000  1.0
