# generated using pymatgen
data_Al8V8Ni16C
_symmetry_space_group_name_H-M   Pm
_cell_length_a   5.81624000
_cell_length_b   8.22541000
_cell_length_c   26.16910000
_cell_angle_alpha   90.00000000
_cell_angle_beta   90.00000000
_cell_angle_gamma   90.00000000
_symmetry_Int_Tables_number   6
_chemical_formula_structural   Al8V8Ni16C
_chemical_formula_sum   'Al8 V8 Ni16 C1'
_cell_volume   1251.95483123
_cell_formula_units_Z   1
loop_
 _symmetry_equiv_pos_site_id
 _symmetry_equiv_pos_as_xyz
  1  'x, y, z'
  2  'x, -y, z'
loop_
 _atom_site_type_symbol
 _atom_site_label
 _atom_site_symmetry_multiplicity
 _atom_site_fract_x
 _atom_site_fract_y
 _atom_site_fract_z
 _atom_site_occupancy
  Al  Al0  2  0.00000000  0.24999000  0.88213000  1.0
  Al  Al1  2  0.00547000  0.24610000  0.03986000  1.0
  Al  Al2  1  0.48765000  0.50000000  0.12008000  1.0
  Al  Al3  1  0.50000000  0.00000000  0.96071000  1.0
  Al  Al4  1  0.50000000  0.50000000  0.96071000  1.0
  Al  Al5  1  0.53521000  0.00000000  0.12134000  1.0
  V  V6  2  0.49771000  0.25400000  0.04207000  1.0
  V  V7  2  0.50000000  0.24999000  0.88213000  1.0
  V  V8  1  -0.00000000  0.00000000  0.96071000  1.0
  V  V9  1  0.00000000  0.50000000  0.96071000  1.0
  V  V10  1  0.01935000  0.50000000  0.11644000  1.0
  V  V11  1  0.96927000  0.00000000  0.11578000  1.0
  Ni  Ni12  2  0.25000000  0.24999000  0.96071000  1.0
  Ni  Ni13  2  0.25098000  0.23511000  0.12255000  1.0
  Ni  Ni14  2  0.75000000  0.25001000  0.96071000  1.0
  Ni  Ni15  2  0.75836000  0.26110000  0.11382000  1.0
  Ni  Ni16  1  0.24003000  0.50000000  0.03594000  1.0
  Ni  Ni17  1  0.25000000  0.00000000  0.88213000  1.0
  Ni  Ni18  1  0.25000000  0.50000000  0.88213000  1.0
  Ni  Ni19  1  0.26404000  0.00000000  0.03831000  1.0
  Ni  Ni20  1  0.73721000  0.00000000  0.03438000  1.0
  Ni  Ni21  1  0.75000000  0.00000000  0.88213000  1.0
  Ni  Ni22  1  0.75000000  0.50000000  0.88213000  1.0
  Ni  Ni23  1  0.75264000  0.50000000  0.04305000  1.0
  C  C24  1  0.23348000  0.00000000  0.15060000  1.0
