# generated using pymatgen
data_K12Sb4CO
_symmetry_space_group_name_H-M   Pmm2
_cell_length_a   8.65338000
_cell_length_b   8.65338000
_cell_length_c   26.49000000
_cell_angle_alpha   90.00000000
_cell_angle_beta   90.00000000
_cell_angle_gamma   90.00000000
_symmetry_Int_Tables_number   25
_chemical_formula_structural   K12Sb4CO
_chemical_formula_sum   'K12 Sb4 C1 O1'
_cell_volume   1983.59730389
_cell_formula_units_Z   1
loop_
 _symmetry_equiv_pos_site_id
 _symmetry_equiv_pos_as_xyz
  1  'x, y, z'
  2  '-x, -y, z'
  3  '-x, y, z'
  4  'x, -y, z'
loop_
 _atom_site_type_symbol
 _atom_site_label
 _atom_site_symmetry_multiplicity
 _atom_site_fract_x
 _atom_site_fract_y
 _atom_site_fract_z
 _atom_site_occupancy
  K  K0  4  0.25001000  0.25001000  0.87750000  1.0
  K  K1  4  0.26312000  0.23690000  0.04536000  1.0
  K  K2  1  0.00000000  0.00000000  0.15628000  1.0
  K  K3  1  0.00000000  0.50000000  0.95917000  1.0
  K  K4  1  0.50000000  0.00000000  0.95917000  1.0
  K  K5  1  0.50000000  0.50000000  0.15634000  1.0
  Sb  Sb6  1  0.00000000  0.00000000  0.95917000  1.0
  Sb  Sb7  1  0.00000000  0.50000000  0.11622000  1.0
  Sb  Sb8  1  0.50000000  0.00000000  0.11634000  1.0
  Sb  Sb9  1  0.50000000  0.50000000  0.95917000  1.0
  C  C10  1  0.00000000  0.50000000  0.19217000  1.0
  O  O11  1  0.00000000  0.50000000  0.23651000  1.0
