# generated using pymatgen
data_LiAlAgSn
_symmetry_space_group_name_H-M   Pm
_cell_length_a   6.09080000
_cell_length_b   4.08049000
_cell_length_c   24.56780000
_cell_angle_alpha   90.00000000
_cell_angle_beta   90.00000000
_cell_angle_gamma   90.00000000
_symmetry_Int_Tables_number   6
_chemical_formula_structural   LiAlAgSn
_chemical_formula_sum   'Li2 Al2 Ag2 Sn2'
_cell_volume   610.59455186
_cell_formula_units_Z   2
loop_
 _symmetry_equiv_pos_site_id
 _symmetry_equiv_pos_as_xyz
  1  'x, y, z'
  2  'x, -y, z'
loop_
 _atom_site_type_symbol
 _atom_site_label
 _atom_site_symmetry_multiplicity
 _atom_site_fract_x
 _atom_site_fract_y
 _atom_site_fract_z
 _atom_site_occupancy
  Li  Li0  1  0.24690000  0.50000000  0.96901000  1.0
  Li  Li1  1  0.74017000  0.50000000  0.09519500  1.0
  Al  Al2  1  0.26122000  0.50000000  0.08637000  1.0
  Al  Al3  1  0.74690000  0.50000000  0.96901000  1.0
  Ag  Ag4  1  0.00000000  0.00000000  0.90704000  1.0
  Ag  Ag5  1  0.49836500  0.00000000  0.03279000  1.0
  Sn  Sn6  1  0.50000000  0.00000000  0.90704000  1.0
  Sn  Sn7  1  0.98919000  0.00000000  0.03881000  1.0
