# generated using pymatgen
data_Li8Sc8Al8Pd8CO
_symmetry_space_group_name_H-M   P1
_cell_length_a   6.37868000
_cell_length_b   9.02082000
_cell_length_c   26.76560000
_cell_angle_alpha   90.00000000
_cell_angle_beta   90.00000000
_cell_angle_gamma   90.00000000
_symmetry_Int_Tables_number   1
_chemical_formula_structural   Li8Sc8Al8Pd8CO
_chemical_formula_sum   'Li8 Sc8 Al8 Pd8 C1 O1'
_cell_volume   1540.11735856
_cell_formula_units_Z   1
loop_
 _symmetry_equiv_pos_site_id
 _symmetry_equiv_pos_as_xyz
  1  'x, y, z'
loop_
 _atom_site_type_symbol
 _atom_site_label
 _atom_site_symmetry_multiplicity
 _atom_site_fract_x
 _atom_site_fract_y
 _atom_site_fract_z
 _atom_site_occupancy
  Li  Li0  1  0.23056000  0.74995000  0.04239000  1.0
  Li  Li1  1  0.24975000  0.25005000  0.04367000  1.0
  Li  Li2  1  0.25000000  0.25000000  0.87361000  1.0
  Li  Li3  1  0.25000000  0.75000000  0.87361000  1.0
  Li  Li4  1  0.58766000  0.50152000  0.17970000  1.0
  Li  Li5  1  0.58804000  0.99846000  0.17957000  1.0
  Li  Li6  1  0.75000000  0.00000000  0.95787000  1.0
  Li  Li7  1  0.75000000  0.50000000  0.95787000  1.0
  Sc  Sc8  1  -0.00000000  0.25000000  0.95787000  1.0
  Sc  Sc9  1  -0.00000000  0.75000000  0.95787000  1.0
  Sc  Sc10  1  0.50000000  0.00000000  0.87361000  1.0
  Sc  Sc11  1  0.50000000  0.50000000  0.87361000  1.0
  Sc  Sc12  1  0.51147000  0.99660000  0.04978000  1.0
  Sc  Sc13  1  0.51172000  0.50341000  0.04981000  1.0
  Sc  Sc14  1  0.94828000  0.25007000  0.12736000  1.0
  Sc  Sc15  1  0.94950000  0.75000000  0.12432000  1.0
  Al  Al16  1  0.00000000  0.00000000  0.87361000  1.0
  Al  Al17  1  0.00000000  0.50000000  0.87361000  1.0
  Al  Al18  1  0.45898000  0.25003000  0.12576000  1.0
  Al  Al19  1  0.46478000  0.75002000  0.12765000  1.0
  Al  Al20  1  0.50000000  0.25000000  0.95787000  1.0
  Al  Al21  1  0.50000000  0.75000000  0.95787000  1.0
  Al  Al22  1  0.99240000  0.00893000  0.04133000  1.0
  Al  Al23  1  0.99250000  0.49108000  0.04131000  1.0
  Pd  Pd24  1  0.23022000  0.49933000  0.12036000  1.0
  Pd  Pd25  1  0.23028000  0.00078000  0.12032000  1.0
  Pd  Pd26  1  0.25000000  0.00000000  0.95787000  1.0
  Pd  Pd27  1  0.25000000  0.50000000  0.95787000  1.0
  Pd  Pd28  1  0.73707000  0.24995000  0.03890000  1.0
  Pd  Pd29  1  0.75000000  0.25000000  0.87361000  1.0
  Pd  Pd30  1  0.75000000  0.75000000  0.87361000  1.0
  Pd  Pd31  1  0.75193000  0.75007000  0.03870000  1.0
  C  C32  1  0.66228000  0.24997000  0.17806000  1.0
  O  O33  1  0.76655000  0.24999000  0.21808000  1.0
