# generated using pymatgen
data_TiIr
_symmetry_space_group_name_H-M   'P 1'
_cell_length_a   3.13082500
_cell_length_b   4.42765000
_cell_length_c   26.64150000
_cell_angle_alpha   90.00000000
_cell_angle_beta   90.00000000
_cell_angle_gamma   90.00000000
_symmetry_Int_Tables_number   1
_chemical_formula_structural   TiIr
_chemical_formula_sum   'Ti4 Ir4'
_cell_volume   369.30972967
_cell_formula_units_Z   4
loop_
 _symmetry_equiv_pos_site_id
 _symmetry_equiv_pos_as_xyz
  1  'x, y, z'
loop_
 _atom_site_type_symbol
 _atom_site_label
 _atom_site_symmetry_multiplicity
 _atom_site_fract_x
 _atom_site_fract_y
 _atom_site_fract_z
 _atom_site_occupancy
  Ti  Ti0  1  0.50000000  0.50000000  0.87535000  1.0
  Ti  Ti1  1  0.50000000  0.00000000  0.95845000  1.0
  Ti  Ti2  1  0.50000000  0.50000000  0.04276000  1.0
  Ti  Ti3  1  0.50000000  0.00000000  0.12836000  1.0
  Ir  Ir4  1  0.00000000  0.00000000  0.87535000  1.0
  Ir  Ir5  1  0.00000000  0.50000000  0.95845000  1.0
  Ir  Ir6  1  0.00000000  0.00000000  0.04231000  1.0
  Ir  Ir7  1  0.00000000  0.50000000  0.11872000  1.0
