# generated using pymatgen
data_Li4Al4Ag4Ge4C
_symmetry_space_group_name_H-M   'P 1'
_cell_length_a   7.71364000
_cell_length_b   5.86609000
_cell_length_c   24.39060000
_cell_angle_alpha   90.00000000
_cell_angle_beta   90.00000000
_cell_angle_gamma   90.00000000
_symmetry_Int_Tables_number   1
_chemical_formula_structural   Li4Al4Ag4Ge4C
_chemical_formula_sum   'Li4 Al4 Ag4 Ge4 C1'
_cell_volume   1103.64797809
_cell_formula_units_Z   1
loop_
 _symmetry_equiv_pos_site_id
 _symmetry_equiv_pos_as_xyz
  1  'x, y, z'
loop_
 _atom_site_type_symbol
 _atom_site_label
 _atom_site_symmetry_multiplicity
 _atom_site_fract_x
 _atom_site_fract_y
 _atom_site_fract_z
 _atom_site_occupancy
  Li  Li0  1  0.50000000  0.76720000  0.03499000  1.0
  Li  Li1  1  0.50000000  0.29777000  0.90999000  1.0
  Li  Li2  1  0.00000000  0.77791000  0.03496000  1.0
  Li  Li3  1  0.00000000  0.29777000  0.90999000  1.0
  Al  Al4  1  0.50000000  0.23578000  0.02377000  1.0
  Al  Al5  1  0.50000000  0.79777000  0.90999000  1.0
  Al  Al6  1  0.00000000  0.29337000  0.03997000  1.0
  Al  Al7  1  0.00000000  0.79777000  0.90999000  1.0
  Ag  Ag8  1  0.76755000  0.01393000  0.09432000  1.0
  Ag  Ag9  1  0.75000000  0.53185000  0.97000000  1.0
  Ag  Ag10  1  0.23245000  0.01393000  0.09432000  1.0
  Ag  Ag11  1  0.25000000  0.53185000  0.97000000  1.0
  Ge  Ge12  1  0.73796000  0.53049000  0.10264000  1.0
  Ge  Ge13  1  0.75000000  0.03185000  0.97000000  1.0
  Ge  Ge14  1  0.26204000  0.53049000  0.10264000  1.0
  Ge  Ge15  1  0.25000000  0.03185000  0.97000000  1.0
  C  C16  1  0.50000000  0.45906000  0.08236000  1.0
