# generated using pymatgen
data_Ni24Sb8CO
_symmetry_space_group_name_H-M   'P 1'
_cell_length_a   5.96127000
_cell_length_b   8.43051000
_cell_length_c   26.32290000
_cell_angle_alpha   90.00000000
_cell_angle_beta   90.00000000
_cell_angle_gamma   90.00000000
_symmetry_Int_Tables_number   1
_chemical_formula_structural   Ni24Sb8CO
_chemical_formula_sum   'Ni24 Sb8 C1 O1'
_cell_volume   1322.89804386
_cell_formula_units_Z   1
loop_
 _symmetry_equiv_pos_site_id
 _symmetry_equiv_pos_as_xyz
  1  'x, y, z'
loop_
 _atom_site_type_symbol
 _atom_site_label
 _atom_site_symmetry_multiplicity
 _atom_site_fract_x
 _atom_site_fract_y
 _atom_site_fract_z
 _atom_site_occupancy
  Ni  Ni0  1  0.25000000  0.00000000  0.95997000  1.0
  Ni  Ni1  1  0.75000000  0.50000000  0.95997000  1.0
  Ni  Ni2  1  0.75000000  0.00000000  0.95997000  1.0
  Ni  Ni3  1  0.25000000  0.50000000  0.95997000  1.0
  Ni  Ni4  1  0.75000000  0.75000000  0.87990000  1.0
  Ni  Ni5  1  0.25000000  0.25000000  0.87990000  1.0
  Ni  Ni6  1  0.25000000  0.75000000  0.87990000  1.0
  Ni  Ni7  1  0.75000000  0.25000000  0.87990000  1.0
  Ni  Ni8  1  0.00000000  0.75000000  0.95997000  1.0
  Ni  Ni9  1  0.50000000  0.00000000  0.87990000  1.0
  Ni  Ni10  1  0.00000000  0.25000000  0.95997000  1.0
  Ni  Ni11  1  0.50000000  0.50000000  0.87990000  1.0
  Ni  Ni12  1  0.24257000  0.51725000  0.11581000  1.0
  Ni  Ni13  1  0.76410000  0.01761000  0.12029000  1.0
  Ni  Ni14  1  0.75743000  0.51745000  0.11583000  1.0
  Ni  Ni15  1  0.23588000  0.01784000  0.12032000  1.0
  Ni  Ni16  1  0.72495000  0.23330000  0.04266000  1.0
  Ni  Ni17  1  0.24622000  0.73447000  0.03958000  1.0
  Ni  Ni18  1  0.27502000  0.23338000  0.04270000  1.0
  Ni  Ni19  1  0.75380000  0.73453000  0.03960000  1.0
  Ni  Ni20  1  0.99980000  0.26851000  0.11427000  1.0
  Ni  Ni21  1  0.50005000  0.49115000  0.03901000  1.0
  Ni  Ni22  1  0.00019000  0.77083000  0.11952000  1.0
  Ni  Ni23  1  0.49996000  0.97898000  0.04182000  1.0
  Sb  Sb24  1  0.00000000  0.00000000  0.87990000  1.0
  Sb  Sb25  1  0.50000000  0.25000000  0.95997000  1.0
  Sb  Sb26  1  0.50000000  0.75000000  0.95997000  1.0
  Sb  Sb27  1  0.00000000  0.50000000  0.87990000  1.0
  Sb  Sb28  1  0.00009000  0.47713000  0.03796000  1.0
  Sb  Sb29  1  0.49983000  0.76448000  0.12205000  1.0
  Sb  Sb30  1  0.50022000  0.26874000  0.12962000  1.0
  Sb  Sb31  1  0.00000000  0.99309000  0.03818000  1.0
  C  C32  1  0.99997000  0.94865000  0.16829000  1.0
  O  O33  1  0.99996000  0.94854000  0.21344000  1.0
