# generated using pymatgen
data_Li4In4Ge4Au4CO
_symmetry_space_group_name_H-M   Pm
_cell_length_a   6.02588000
_cell_length_b   8.39470000
_cell_length_c   24.51900000
_cell_angle_alpha   90.00000000
_cell_angle_beta   90.00000000
_cell_angle_gamma   90.00000000
_symmetry_Int_Tables_number   6
_chemical_formula_structural   Li4In4Ge4Au4CO
_chemical_formula_sum   'Li4 In4 Ge4 Au4 C1 O1'
_cell_volume   1240.30476712
_cell_formula_units_Z   1
loop_
 _symmetry_equiv_pos_site_id
 _symmetry_equiv_pos_as_xyz
  1  'x, y, z'
  2  'x, -y, z'
loop_
 _atom_site_type_symbol
 _atom_site_label
 _atom_site_symmetry_multiplicity
 _atom_site_fract_x
 _atom_site_fract_y
 _atom_site_fract_z
 _atom_site_occupancy
  Li  Li0  1  0.26490000  0.00000000  0.91166000  1.0
  Li  Li1  1  0.26896000  0.50000000  0.90875000  1.0
  Li  Li2  1  0.75330000  0.00000000  0.03072000  1.0
  Li  Li3  1  0.75330000  0.50000000  0.03072000  1.0
  In  In4  1  0.25330000  0.00000000  0.03072000  1.0
  In  In5  1  0.25330000  0.50000000  0.03072000  1.0
  In  In6  1  0.76511000  0.00000000  0.90056000  1.0
  In  In7  1  0.76834000  0.50000000  0.90271000  1.0
  Ge  Ge8  2  0.02146000  0.24929000  0.96719000  1.0
  Ge  Ge9  2  0.50000000  0.25000000  0.09215000  1.0
  Au  Au10  2  0.00000000  0.25000000  0.09215000  1.0
  Au  Au11  2  0.52406000  0.24896000  0.96852000  1.0
  C  C12  1  0.26548000  0.50000000  0.82322000  1.0
  O  O13  1  0.25558000  0.50000000  0.77669000  1.0
