# generated using pymatgen
data_V8Ir24CO
_symmetry_space_group_name_H-M   Pmm2
_cell_length_a   7.70199000
_cell_length_b   7.70199000
_cell_length_c   25.77650000
_cell_angle_alpha   90.00000000
_cell_angle_beta   90.00000000
_cell_angle_gamma   90.00000000
_symmetry_Int_Tables_number   25
_chemical_formula_structural   V8Ir24CO
_chemical_formula_sum   'V8 Ir24 C1 O1'
_cell_volume   1529.07873370
_cell_formula_units_Z   1
loop_
 _symmetry_equiv_pos_site_id
 _symmetry_equiv_pos_as_xyz
  1  'x, y, z'
  2  '-x, -y, z'
  3  '-x, y, z'
  4  'x, -y, z'
loop_
 _atom_site_type_symbol
 _atom_site_label
 _atom_site_symmetry_multiplicity
 _atom_site_fract_x
 _atom_site_fract_y
 _atom_site_fract_z
 _atom_site_occupancy
  V  V0  2  0.25000000  0.00000000  0.03735000  1.0
  V  V1  2  0.25000000  0.00000000  0.88795000  1.0
  V  V2  2  0.25000000  0.50000000  0.03735000  1.0
  V  V3  2  0.25000000  0.50000000  0.88795000  1.0
  Ir  Ir4  4  0.25000000  0.25000000  0.11205000  1.0
  Ir  Ir5  4  0.25000000  0.25000000  0.96265000  1.0
  Ir  Ir6  2  0.00000000  0.25000000  0.03735000  1.0
  Ir  Ir7  2  0.00000000  0.25000000  0.88795000  1.0
  Ir  Ir8  2  0.50000000  0.25000000  0.03735000  1.0
  Ir  Ir9  2  0.50000000  0.25000000  0.88795000  1.0
  Ir  Ir10  1  0.00000000  0.00000000  0.11205000  1.0
  Ir  Ir11  1  0.00000000  0.00000000  0.96265000  1.0
  Ir  Ir12  1  0.00000000  0.50000000  0.11205000  1.0
  Ir  Ir13  1  0.00000000  0.50000000  0.96265000  1.0
  Ir  Ir14  1  0.50000000  0.00000000  0.11205000  1.0
  Ir  Ir15  1  0.50000000  0.00000000  0.96265000  1.0
  Ir  Ir16  1  0.50000000  0.50000000  0.11205000  1.0
  Ir  Ir17  1  0.50000000  0.50000000  0.96265000  1.0
  C  C18  1  0.00000000  0.00000000  0.18576000  1.0
  O  O19  1  0.00000000  0.00000000  0.23037000  1.0
