# generated using pymatgen
data_TaGaCo2
_symmetry_space_group_name_H-M   'P 1'
_cell_length_a   4.21397000
_cell_length_b   5.95946000
_cell_length_c   26.32100000
_cell_angle_alpha   90.00000000
_cell_angle_beta   90.00000000
_cell_angle_gamma   90.00000000
_symmetry_Int_Tables_number   1
_chemical_formula_structural   TaGaCo2
_chemical_formula_sum   'Ta4 Ga4 Co8'
_cell_volume   660.99889546
_cell_formula_units_Z   4
loop_
 _symmetry_equiv_pos_site_id
 _symmetry_equiv_pos_as_xyz
  1  'x, y, z'
loop_
 _atom_site_type_symbol
 _atom_site_label
 _atom_site_symmetry_multiplicity
 _atom_site_fract_x
 _atom_site_fract_y
 _atom_site_fract_z
 _atom_site_occupancy
  Ta  Ta0  1  0.00000000  0.00000000  0.12007000  1.0
  Ta  Ta1  1  0.50000000  0.50000000  0.04002000  1.0
  Ta  Ta2  1  0.00000000  0.00000000  0.95748000  1.0
  Ta  Ta3  1  0.50000000  0.50000000  0.88071000  1.0
  Ga  Ga4  1  0.50000000  0.00000000  0.04002000  1.0
  Ga  Ga5  1  0.00000000  0.50000000  0.12007000  1.0
  Ga  Ga6  1  0.50000000  0.00000000  0.87608000  1.0
  Ga  Ga7  1  0.00000000  0.50000000  0.95896000  1.0
  Co  Co8  1  0.00000000  0.75000000  0.04002000  1.0
  Co  Co9  1  0.00000000  0.25000000  0.04002000  1.0
  Co  Co10  1  0.50000000  0.25000000  0.12007000  1.0
  Co  Co11  1  0.50000000  0.75000000  0.12007000  1.0
  Co  Co12  1  0.00000000  0.75071000  0.88414000  1.0
  Co  Co13  1  0.00000000  0.24929000  0.88414000  1.0
  Co  Co14  1  0.50000000  0.25604000  0.95936000  1.0
  Co  Co15  1  0.50000000  0.74396000  0.95936000  1.0
