# generated using pymatgen
data_Fe8Co4Ge4CO
_symmetry_space_group_name_H-M   'P 1'
_cell_length_a   5.77744000
_cell_length_b   5.77744000
_cell_length_c   24.33310000
_cell_angle_alpha   90.00000000
_cell_angle_beta   90.00000000
_cell_angle_gamma   90.00000000
_symmetry_Int_Tables_number   1
_chemical_formula_structural   Fe8Co4Ge4CO
_chemical_formula_sum   'Fe8 Co4 Ge4 C1 O1'
_cell_volume   812.20999348
_cell_formula_units_Z   1
loop_
 _symmetry_equiv_pos_site_id
 _symmetry_equiv_pos_as_xyz
  1  'x, y, z'
loop_
 _atom_site_type_symbol
 _atom_site_label
 _atom_site_symmetry_multiplicity
 _atom_site_fract_x
 _atom_site_fract_y
 _atom_site_fract_z
 _atom_site_occupancy
  Fe  Fe0  1  0.25067500  0.74932500  0.03248000  1.0
  Fe  Fe1  1  0.74999000  0.25001000  0.91096000  1.0
  Fe  Fe2  1  0.74932500  0.74932500  0.03248000  1.0
  Fe  Fe3  1  0.25001000  0.25001000  0.91096000  1.0
  Fe  Fe4  1  0.74932500  0.25067500  0.03248000  1.0
  Fe  Fe5  1  0.25001000  0.74999000  0.91096000  1.0
  Fe  Fe6  1  0.25067500  0.25067500  0.03248000  1.0
  Fe  Fe7  1  0.74999000  0.74999000  0.91096000  1.0
  Co  Co8  1  0.00000000  0.50000000  0.08391000  1.0
  Co  Co9  1  0.50000000  0.00000000  0.08391000  1.0
  Co  Co10  1  0.50000000  0.50000000  0.97032000  1.0
  Co  Co11  1  0.00000000  0.00000000  0.97032000  1.0
  Ge  Ge12  1  0.00000000  0.50000000  0.97032000  1.0
  Ge  Ge13  1  0.50000000  0.50000000  0.09608000  1.0
  Ge  Ge14  1  0.00000000  0.00000000  0.09125000  1.0
  Ge  Ge15  1  0.50000000  0.00000000  0.97032000  1.0
  C  C16  1  0.00000000  0.00000000  0.17452000  1.0
  O  O17  1  0.00000000  0.00000000  0.22193000  1.0
