# generated using pymatgen
data_LiGePdPt
_symmetry_space_group_name_H-M   'P 1'
_cell_length_a   4.33384332
_cell_length_b   4.33384332
_cell_length_c   24.59670000
_cell_angle_alpha   90.00000000
_cell_angle_beta   90.00000000
_cell_angle_gamma   90.00000000
_symmetry_Int_Tables_number   1
_chemical_formula_structural   LiGePdPt
_chemical_formula_sum   'Li2 Ge2 Pd2 Pt2'
_cell_volume   461.98008758
_cell_formula_units_Z   2
loop_
 _symmetry_equiv_pos_site_id
 _symmetry_equiv_pos_as_xyz
  1  'x, y, z'
loop_
 _atom_site_type_symbol
 _atom_site_label
 _atom_site_symmetry_multiplicity
 _atom_site_fract_x
 _atom_site_fract_y
 _atom_site_fract_z
 _atom_site_occupancy
  Li  Li0  1  0.50000000  0.50000000  0.89800000  1.0
  Li  Li1  1  0.00000000  0.00000000  0.03115000  1.0
  Ge  Ge2  1  0.00000000  0.00000000  0.90638500  1.0
  Ge  Ge3  1  0.50000000  0.50000000  0.03115000  1.0
  Pd  Pd4  1  0.50000000  0.00000000  0.96766000  1.0
  Pd  Pd5  1  0.00000000  0.50000000  0.09344000  1.0
  Pt  Pt6  1  0.00000000  0.50000000  0.96281000  1.0
  Pt  Pt7  1  0.50000000  0.00000000  0.09344000  1.0
