# generated using pymatgen
data_Mg8In8Ag16CO
_symmetry_space_group_name_H-M   'P 1'
_cell_length_a   6.85111000
_cell_length_b   9.68893000
_cell_length_c   27.26670000
_cell_angle_alpha   90.00000000
_cell_angle_beta   90.00000000
_cell_angle_gamma   90.00000000
_symmetry_Int_Tables_number   1
_chemical_formula_structural   Mg8In8Ag16CO
_chemical_formula_sum   'Mg8 In8 Ag16 C1 O1'
_cell_volume   1809.96150679
_cell_formula_units_Z   1
loop_
 _symmetry_equiv_pos_site_id
 _symmetry_equiv_pos_as_xyz
  1  'x, y, z'
loop_
 _atom_site_type_symbol
 _atom_site_label
 _atom_site_symmetry_multiplicity
 _atom_site_fract_x
 _atom_site_fract_y
 _atom_site_fract_z
 _atom_site_occupancy
  Mg  Mg0  1  0.00000000  0.00000000  0.86675000  1.0
  Mg  Mg1  1  0.50000000  0.25000000  0.95558000  1.0
  Mg  Mg2  1  0.50000000  0.75000000  0.95558000  1.0
  Mg  Mg3  1  1.00000000  0.50000000  0.86675000  1.0
  Mg  Mg4  1  0.99538000  0.50000000  0.05267000  1.0
  Mg  Mg5  1  0.50271000  0.75861000  0.13544000  1.0
  Mg  Mg6  1  0.50267000  0.24142000  0.13543000  1.0
  Mg  Mg7  1  0.00570000  0.00001000  0.04572000  1.0
  In  In8  1  1.00000000  0.75000000  0.95558000  1.0
  In  In9  1  0.50000000  0.00000000  0.86675000  1.0
  In  In10  1  1.00000000  0.25000000  0.95558000  1.0
  In  In11  1  0.50000000  0.50000000  0.86675000  1.0
  In  In12  1  0.99610000  0.26214000  0.14836000  1.0
  In  In13  1  0.50255000  0.50000000  0.04452000  1.0
  In  In14  1  0.99614000  0.73788000  0.14836000  1.0
  In  In15  1  0.50452000  0.00000000  0.04747000  1.0
  Ag  Ag16  1  0.25000000  0.00000000  0.95558000  1.0
  Ag  Ag17  1  0.75000000  0.50000000  0.95558000  1.0
  Ag  Ag18  1  0.75000000  0.00000000  0.95558000  1.0
  Ag  Ag19  1  0.25000000  0.50000000  0.95558000  1.0
  Ag  Ag20  1  0.75000000  0.75000000  0.86675000  1.0
  Ag  Ag21  1  0.25000000  0.25000000  0.86675000  1.0
  Ag  Ag22  1  0.25000000  0.75000000  0.86675000  1.0
  Ag  Ag23  1  0.75000000  0.25000000  0.86675000  1.0
  Ag  Ag24  1  0.27184000  0.50001000  0.13708000  1.0
  Ag  Ag25  1  0.77024000  0.00002000  0.13568000  1.0
  Ag  Ag26  1  0.72128000  0.50001000  0.13996000  1.0
  Ag  Ag27  1  0.22861000  0.00001000  0.13483000  1.0
  Ag  Ag28  1  0.76359000  0.25056000  0.04732000  1.0
  Ag  Ag29  1  0.23759000  0.74898000  0.04808000  1.0
  Ag  Ag30  1  0.23759000  0.25101000  0.04808000  1.0
  Ag  Ag31  1  0.76361000  0.74945000  0.04732000  1.0
  C  C32  1  0.29458000  0.99993000  0.26573000  1.0
  O  O33  1  0.21125000  0.00001000  0.30180000  1.0
