# generated using pymatgen
data_Si16Rh16CO
_symmetry_space_group_name_H-M   'P 1'
_cell_length_a   5.95743000
_cell_length_b   8.42507000
_cell_length_c   26.31880000
_cell_angle_alpha   90.00000000
_cell_angle_beta   90.00000000
_cell_angle_gamma   90.00000000
_symmetry_Int_Tables_number   1
_chemical_formula_structural   Si16Rh16CO
_chemical_formula_sum   'Si16 Rh16 C1 O1'
_cell_volume   1320.98701863
_cell_formula_units_Z   1
loop_
 _symmetry_equiv_pos_site_id
 _symmetry_equiv_pos_as_xyz
  1  'x, y, z'
loop_
 _atom_site_type_symbol
 _atom_site_label
 _atom_site_symmetry_multiplicity
 _atom_site_fract_x
 _atom_site_fract_y
 _atom_site_fract_z
 _atom_site_occupancy
  Si  Si0  1  0.25000000  0.00000000  0.87996000  1.0
  Si  Si1  1  0.25000000  0.75001000  0.95999000  1.0
  Si  Si2  1  0.24761000  0.00000000  0.04322000  1.0
  Si  Si3  1  0.25743000  0.25332000  0.12057000  1.0
  Si  Si4  1  0.25000000  0.50000000  0.87996000  1.0
  Si  Si5  1  0.25000000  0.24999000  0.95999000  1.0
  Si  Si6  1  0.24841000  0.50000000  0.04161000  1.0
  Si  Si7  1  0.25743000  0.74668000  0.12057000  1.0
  Si  Si8  1  0.75000000  0.00000000  0.87996000  1.0
  Si  Si9  1  0.75000000  0.75001000  0.95999000  1.0
  Si  Si10  1  0.75239000  0.00000000  0.04322000  1.0
  Si  Si11  1  0.74257000  0.25332000  0.12057000  1.0
  Si  Si12  1  0.75000000  0.50000000  0.87996000  1.0
  Si  Si13  1  0.75000000  0.24999000  0.95999000  1.0
  Si  Si14  1  0.75159000  0.50000000  0.04161000  1.0
  Si  Si15  1  0.74257000  0.74668000  0.12057000  1.0
  Rh  Rh16  1  0.00000000  0.75001000  0.87996000  1.0
  Rh  Rh17  1  0.00000000  0.00000000  0.95999000  1.0
  Rh  Rh18  1  0.00000000  0.76387000  0.04195000  1.0
  Rh  Rh19  1  0.00000000  0.00000000  0.13027000  1.0
  Rh  Rh20  1  0.00000000  0.24999000  0.87996000  1.0
  Rh  Rh21  1  0.00000000  0.50000000  0.95999000  1.0
  Rh  Rh22  1  0.00000000  0.23613000  0.04195000  1.0
  Rh  Rh23  1  0.00000000  0.50000000  0.11429000  1.0
  Rh  Rh24  1  0.50000000  0.75001000  0.87996000  1.0
  Rh  Rh25  1  0.50000000  0.00000000  0.95999000  1.0
  Rh  Rh26  1  0.50000000  0.74936000  0.03709000  1.0
  Rh  Rh27  1  0.50000000  0.00000000  0.11302000  1.0
  Rh  Rh28  1  0.50000000  0.24999000  0.87996000  1.0
  Rh  Rh29  1  0.50000000  0.50000000  0.95999000  1.0
  Rh  Rh30  1  0.50000000  0.25064000  0.03709000  1.0
  Rh  Rh31  1  0.50000000  0.50000000  0.11411000  1.0
  C  C32  1  0.00000000  0.00000000  0.20213000  1.0
  O  O33  1  0.00000000  0.00000000  0.24583000  1.0
