# generated using pymatgen
data_Zr8Al8Ni16CO
_symmetry_space_group_name_H-M   Pmm2
_cell_length_a   6.14888000
_cell_length_b   8.69583000
_cell_length_c   26.52190000
_cell_angle_alpha   90.00000000
_cell_angle_beta   90.00000000
_cell_angle_gamma   90.00000000
_symmetry_Int_Tables_number   25
_chemical_formula_structural   Zr8Al8Ni16CO
_chemical_formula_sum   'Zr8 Al8 Ni16 C1 O1'
_cell_volume   1418.11578659
_cell_formula_units_Z   1
loop_
 _symmetry_equiv_pos_site_id
 _symmetry_equiv_pos_as_xyz
  1  'x, y, z'
  2  '-x, -y, z'
  3  '-x, y, z'
  4  'x, -y, z'
loop_
 _atom_site_type_symbol
 _atom_site_label
 _atom_site_symmetry_multiplicity
 _atom_site_fract_x
 _atom_site_fract_y
 _atom_site_fract_z
 _atom_site_occupancy
  Zr  Zr0  2  0.00000000  0.25000000  0.87705000  1.0
  Zr  Zr1  2  0.00000000  0.25179000  0.03983000  1.0
  Zr  Zr2  1  0.50000000  0.00000000  0.12807000  1.0
  Zr  Zr3  1  0.50000000  0.00000000  0.95902000  1.0
  Zr  Zr4  1  0.50000000  0.50000000  0.12889000  1.0
  Zr  Zr5  1  0.50000000  0.50000000  0.95902000  1.0
  Al  Al6  2  0.50000000  0.24896000  0.04339000  1.0
  Al  Al7  2  0.50000000  0.25000000  0.87705000  1.0
  Al  Al8  1  0.00000000  0.00000000  0.11962000  1.0
  Al  Al9  1  0.00000000  0.00000000  0.95902000  1.0
  Al  Al10  1  0.00000000  0.50000000  0.12028000  1.0
  Al  Al11  1  0.00000000  0.50000000  0.95902000  1.0
  Ni  Ni12  4  0.23687000  0.25081000  0.11818000  1.0
  Ni  Ni13  4  0.25000000  0.25000000  0.95902000  1.0
  Ni  Ni14  2  0.25000000  0.00000000  0.87705000  1.0
  Ni  Ni15  2  0.25000000  0.50000000  0.87705000  1.0
  Ni  Ni16  2  0.26311000  0.00000000  0.04257000  1.0
  Ni  Ni17  2  0.27268000  0.50000000  0.04515000  1.0
  C  C18  1  0.50000000  0.00000000  0.21672000  1.0
  O  O19  1  0.50000000  0.00000000  0.25997000  1.0
