# generated using pymatgen
data_Li8Ca8Ge8Pd8C
_symmetry_space_group_name_H-M   'P 1'
_cell_length_a   9.36360000
_cell_length_b   6.62107000
_cell_length_c   27.02270000
_cell_angle_alpha   90.00000000
_cell_angle_beta   90.00000000
_cell_angle_gamma   90.00000000
_symmetry_Int_Tables_number   1
_chemical_formula_structural   Li8Ca8Ge8Pd8C
_chemical_formula_sum   'Li8 Ca8 Ge8 Pd8 C1'
_cell_volume   1675.32771146
_cell_formula_units_Z   1
loop_
 _symmetry_equiv_pos_site_id
 _symmetry_equiv_pos_as_xyz
  1  'x, y, z'
loop_
 _atom_site_type_symbol
 _atom_site_label
 _atom_site_symmetry_multiplicity
 _atom_site_fract_x
 _atom_site_fract_y
 _atom_site_fract_z
 _atom_site_occupancy
  Li  Li0  1  0.75000000  0.75000000  0.04331000  1.0
  Li  Li1  1  0.25000000  0.75000000  0.04331000  1.0
  Li  Li2  1  0.00000000  0.25000000  0.12994000  1.0
  Li  Li3  1  0.50000000  0.25000000  0.12994000  1.0
  Li  Li4  1  0.28371000  0.95628000  0.81370000  1.0
  Li  Li5  1  0.71629000  0.95628000  0.81370000  1.0
  Li  Li6  1  0.50000000  0.22805000  0.95526000  1.0
  Li  Li7  1  0.00000000  0.28247000  0.95778000  1.0
  Ca  Ca8  1  0.75000000  0.00000000  0.12994000  1.0
  Ca  Ca9  1  0.25000000  0.00000000  0.12994000  1.0
  Ca  Ca10  1  0.50000000  0.50000000  0.04331000  1.0
  Ca  Ca11  1  0.00000000  0.50000000  0.04331000  1.0
  Ca  Ca12  1  0.22208000  0.96933000  0.94891000  1.0
  Ca  Ca13  1  0.77792000  0.96933000  0.94891000  1.0
  Ca  Ca14  1  0.00000000  0.46294000  0.85582000  1.0
  Ca  Ca15  1  0.50000000  0.54309000  0.86876000  1.0
  Ge  Ge16  1  0.00000000  0.00000000  0.04331000  1.0
  Ge  Ge17  1  0.50000000  0.00000000  0.04331000  1.0
  Ge  Ge18  1  0.25000000  0.50000000  0.12994000  1.0
  Ge  Ge19  1  0.75000000  0.50000000  0.12994000  1.0
  Ge  Ge20  1  0.50000000  0.03315000  0.86927000  1.0
  Ge  Ge21  1  0.00000000  0.93677000  0.84527000  1.0
  Ge  Ge22  1  0.73972000  0.49611000  0.95749000  1.0
  Ge  Ge23  1  0.26028000  0.49611000  0.95749000  1.0
  Pd  Pd24  1  0.75000000  0.25000000  0.04331000  1.0
  Pd  Pd25  1  0.25000000  0.25000000  0.04331000  1.0
  Pd  Pd26  1  0.00000000  0.75000000  0.12994000  1.0
  Pd  Pd27  1  0.50000000  0.75000000  0.12994000  1.0
  Pd  Pd28  1  0.26215000  0.25388000  0.87881000  1.0
  Pd  Pd29  1  0.73785000  0.25388000  0.87881000  1.0
  Pd  Pd30  1  0.50000000  0.77121000  0.96215000  1.0
  Pd  Pd31  1  0.00000000  0.66826000  0.94910000  1.0
  C  C32  1  0.00000000  0.11858000  0.89695000  1.0
