# generated using pymatgen
data_Li8Ca8Ge8Pd8C
_symmetry_space_group_name_H-M   Pm
_cell_length_a   6.62107000
_cell_length_b   9.36360000
_cell_length_c   27.02270000
_cell_angle_alpha   90.00000000
_cell_angle_beta   90.00000000
_cell_angle_gamma   90.00000000
_symmetry_Int_Tables_number   6
_chemical_formula_structural   Li8Ca8Ge8Pd8C
_chemical_formula_sum   'Li8 Ca8 Ge8 Pd8 C1'
_cell_volume   1675.32771146
_cell_formula_units_Z   1
loop_
 _symmetry_equiv_pos_site_id
 _symmetry_equiv_pos_as_xyz
  1  'x, y, z'
  2  'x, -y, z'
loop_
 _atom_site_type_symbol
 _atom_site_label
 _atom_site_symmetry_multiplicity
 _atom_site_fract_x
 _atom_site_fract_y
 _atom_site_fract_z
 _atom_site_occupancy
  Li  Li0  2  0.75000000  0.25000000  0.95669000  1.0
  Li  Li1  2  0.95628000  0.28371000  0.18630000  1.0
  Li  Li2  1  0.22805000  0.50000000  0.04474000  1.0
  Li  Li3  1  0.25000000  0.00000000  0.87006000  1.0
  Li  Li4  1  0.25000000  0.50000000  0.87006000  1.0
  Li  Li5  1  0.28247000  0.00000000  0.04222000  1.0
  Ca  Ca6  2  0.00000000  0.25000000  0.87006000  1.0
  Ca  Ca7  2  0.96933000  0.22208000  0.05109000  1.0
  Ca  Ca8  1  0.46294000  0.00000000  0.14418000  1.0
  Ca  Ca9  1  0.50000000  0.00000000  0.95669000  1.0
  Ca  Ca10  1  0.50000000  0.50000000  0.95669000  1.0
  Ca  Ca11  1  0.54309000  0.50000000  0.13124000  1.0
  Ge  Ge12  2  0.49611000  0.26028000  0.04251000  1.0
  Ge  Ge13  2  0.50000000  0.25000000  0.87006000  1.0
  Ge  Ge14  1  0.00000000  0.00000000  0.95669000  1.0
  Ge  Ge15  1  0.00000000  0.50000000  0.95669000  1.0
  Ge  Ge16  1  0.03315000  0.50000000  0.13073000  1.0
  Ge  Ge17  1  0.93677000  0.00000000  0.15473000  1.0
  Pd  Pd18  2  0.25000000  0.25000000  0.95669000  1.0
  Pd  Pd19  2  0.25388000  0.26215000  0.12119000  1.0
  Pd  Pd20  1  0.66826000  0.00000000  0.05090000  1.0
  Pd  Pd21  1  0.75000000  0.00000000  0.87006000  1.0
  Pd  Pd22  1  0.75000000  0.50000000  0.87006000  1.0
  Pd  Pd23  1  0.77121000  0.50000000  0.03785000  1.0
  C  C24  1  0.11858000  0.00000000  0.10305000  1.0
