# generated using pymatgen
data_GaPt3
_symmetry_space_group_name_H-M   Pmm2
_cell_length_a   3.96364000
_cell_length_b   5.60543000
_cell_length_c   24.20410000
_cell_angle_alpha   90.00000000
_cell_angle_beta   90.00000000
_cell_angle_gamma   90.00000000
_symmetry_Int_Tables_number   25
_chemical_formula_structural   GaPt3
_chemical_formula_sum   'Ga2 Pt6'
_cell_volume   537.76443229
_cell_formula_units_Z   2
loop_
 _symmetry_equiv_pos_site_id
 _symmetry_equiv_pos_as_xyz
  1  'x, y, z'
  2  '-x, -y, z'
  3  '-x, y, z'
  4  'x, -y, z'
loop_
 _atom_site_type_symbol
 _atom_site_label
 _atom_site_symmetry_multiplicity
 _atom_site_fract_x
 _atom_site_fract_y
 _atom_site_fract_z
 _atom_site_occupancy
  Ga  Ga0  1  0.00000000  0.00000000  0.08169000  1.0
  Ga  Ga1  1  0.00000000  0.50000000  0.97105000  1.0
  Pt  Pt2  2  0.50000000  0.24460000  0.03365500  1.0
  Pt  Pt3  2  0.50000000  0.25000000  0.91315000  1.0
  Pt  Pt4  1  0.00000000  0.00000000  0.97105000  1.0
  Pt  Pt5  1  0.00000000  0.50000000  0.08197000  1.0
