# generated using pymatgen
data_Sc8Al8Ni16CO
_symmetry_space_group_name_H-M   'P 1'
_cell_length_a   6.08368000
_cell_length_b   8.60362000
_cell_length_c   26.45270000
_cell_angle_alpha   90.00000000
_cell_angle_beta   90.00000000
_cell_angle_gamma   90.00000000
_symmetry_Int_Tables_number   1
_chemical_formula_structural   Sc8Al8Ni16CO
_chemical_formula_sum   'Sc8 Al8 Ni16 C1 O1'
_cell_volume   1384.57851839
_cell_formula_units_Z   1
loop_
 _symmetry_equiv_pos_site_id
 _symmetry_equiv_pos_as_xyz
  1  'x, y, z'
loop_
 _atom_site_type_symbol
 _atom_site_label
 _atom_site_symmetry_multiplicity
 _atom_site_fract_x
 _atom_site_fract_y
 _atom_site_fract_z
 _atom_site_occupancy
  Sc  Sc0  1  0.00000000  0.75000000  0.87803000  1.0
  Sc  Sc1  1  0.50000000  0.00000000  0.95934000  1.0
  Sc  Sc2  1  0.50000000  0.50000000  0.95934000  1.0
  Sc  Sc3  1  0.00000000  0.25000000  0.87803000  1.0
  Sc  Sc4  1  0.00000000  0.25104000  0.03847000  1.0
  Sc  Sc5  1  0.50000000  0.50000000  0.12728000  1.0
  Sc  Sc6  1  0.50000000  0.00000000  0.12748000  1.0
  Sc  Sc7  1  0.00000000  0.74896000  0.03847000  1.0
  Al  Al8  1  0.00000000  0.50000000  0.95934000  1.0
  Al  Al9  1  0.50000000  0.75000000  0.87803000  1.0
  Al  Al10  1  0.00000000  0.00000000  0.95934000  1.0
  Al  Al11  1  0.50000000  0.25000000  0.87803000  1.0
  Al  Al12  1  0.00000000  0.00000000  0.11965000  1.0
  Al  Al13  1  0.50000000  0.24964000  0.04306000  1.0
  Al  Al14  1  0.00000000  0.50000000  0.11873000  1.0
  Al  Al15  1  0.50000000  0.75036000  0.04306000  1.0
  Ni  Ni16  1  0.24999000  0.75000000  0.95934000  1.0
  Ni  Ni17  1  0.75001000  0.25000000  0.95934000  1.0
  Ni  Ni18  1  0.75001000  0.75000000  0.95934000  1.0
  Ni  Ni19  1  0.24999000  0.25000000  0.95934000  1.0
  Ni  Ni20  1  0.74999000  0.50000000  0.87803000  1.0
  Ni  Ni21  1  0.24999000  0.00000000  0.87803000  1.0
  Ni  Ni22  1  0.25001000  0.50000000  0.87803000  1.0
  Ni  Ni23  1  0.75001000  0.00000000  0.87803000  1.0
  Ni  Ni24  1  0.22988000  0.25177000  0.11587000  1.0
  Ni  Ni25  1  0.77012000  0.74823000  0.11587000  1.0
  Ni  Ni26  1  0.77012000  0.25177000  0.11587000  1.0
  Ni  Ni27  1  0.22988000  0.74823000  0.11587000  1.0
  Ni  Ni28  1  0.73800000  0.00000000  0.04313000  1.0
  Ni  Ni29  1  0.26430000  0.50000000  0.04231000  1.0
  Ni  Ni30  1  0.26200000  0.00000000  0.04313000  1.0
  Ni  Ni31  1  0.73570000  0.50000000  0.04231000  1.0
  C  C32  1  0.00000000  0.00000000  0.19523000  1.0
  O  O33  1  0.00000000  0.00000000  0.23908000  1.0
