# generated using pymatgen
data_Sc8Al8Ni16CO
_symmetry_space_group_name_H-M   Pmm2
_cell_length_a   6.08368000
_cell_length_b   8.60362000
_cell_length_c   26.45270000
_cell_angle_alpha   90.00000000
_cell_angle_beta   90.00000000
_cell_angle_gamma   90.00000000
_symmetry_Int_Tables_number   25
_chemical_formula_structural   Sc8Al8Ni16CO
_chemical_formula_sum   'Sc8 Al8 Ni16 C1 O1'
_cell_volume   1384.57851839
_cell_formula_units_Z   1
loop_
 _symmetry_equiv_pos_site_id
 _symmetry_equiv_pos_as_xyz
  1  'x, y, z'
  2  '-x, -y, z'
  3  '-x, y, z'
  4  'x, -y, z'
loop_
 _atom_site_type_symbol
 _atom_site_label
 _atom_site_symmetry_multiplicity
 _atom_site_fract_x
 _atom_site_fract_y
 _atom_site_fract_z
 _atom_site_occupancy
  Sc  Sc0  2  0.00000000  0.25000000  0.87803000  1.0
  Sc  Sc1  2  0.00000000  0.25104000  0.03847000  1.0
  Sc  Sc2  1  0.50000000  0.00000000  0.12748000  1.0
  Sc  Sc3  1  0.50000000  0.00000000  0.95934000  1.0
  Sc  Sc4  1  0.50000000  0.50000000  0.12728000  1.0
  Sc  Sc5  1  0.50000000  0.50000000  0.95934000  1.0
  Al  Al6  2  0.50000000  0.24964000  0.04306000  1.0
  Al  Al7  2  0.50000000  0.25000000  0.87803000  1.0
  Al  Al8  1  0.00000000  0.00000000  0.11965000  1.0
  Al  Al9  1  0.00000000  0.00000000  0.95934000  1.0
  Al  Al10  1  0.00000000  0.50000000  0.11873000  1.0
  Al  Al11  1  0.00000000  0.50000000  0.95934000  1.0
  Ni  Ni12  4  0.22988000  0.25177000  0.11587000  1.0
  Ni  Ni13  4  0.24999000  0.25000000  0.95934000  1.0
  Ni  Ni14  2  0.24999000  0.00000000  0.87803000  1.0
  Ni  Ni15  2  0.25001000  0.50000000  0.87803000  1.0
  Ni  Ni16  2  0.26200000  0.00000000  0.04313000  1.0
  Ni  Ni17  2  0.26430000  0.50000000  0.04231000  1.0
  C  C18  1  0.00000000  0.00000000  0.19523000  1.0
  O  O19  1  0.00000000  0.00000000  0.23908000  1.0
