data_image0
_chemical_formula_structural       Y8Al24C
_chemical_formula_sum              "Y8 Al24 C1"
_cell_length_a       8.49845
_cell_length_b       8.49845
_cell_length_c       26.3738
_cell_angle_alpha    90
_cell_angle_beta     90
_cell_angle_gamma    90

_space_group_name_H-M_alt    "P 1"
_space_group_IT_number       1

loop_
  _space_group_symop_operation_xyz
  'x, y, z'

loop_
  _atom_site_type_symbol
  _atom_site_label
  _atom_site_symmetry_multiplicity
  _atom_site_fract_x
  _atom_site_fract_y
  _atom_site_fract_z
  _atom_site_occupancy
  Y   Y1        1.0  0.00000  0.00000  0.87916  1.0000
  Y   Y2        1.0  0.99453  0.99447  0.04351  1.0000
  Y   Y3        1.0  0.00000  0.50000  0.87916  1.0000
  Y   Y4        1.0  0.99453  0.50553  0.04351  1.0000
  Y   Y5        1.0  0.50000  0.00000  0.87916  1.0000
  Y   Y6        1.0  0.50547  0.99447  0.04351  1.0000
  Y   Y7        1.0  0.50000  0.50000  0.87916  1.0000
  Y   Y8        1.0  0.50547  0.50553  0.04352  1.0000
  Al  Al1       1.0  0.00000  0.25000  0.95972  1.0000
  Al  Al2       1.0  0.25000  0.00000  0.95972  1.0000
  Al  Al3       1.0  0.25000  0.25000  0.87916  1.0000
  Al  Al4       1.0  0.02369  0.25000  0.12944  1.0000
  Al  Al5       1.0  0.25000  0.02368  0.12944  1.0000
  Al  Al6       1.0  0.25000  0.25000  0.05049  1.0000
  Al  Al7       1.0  0.00000  0.75000  0.95972  1.0000
  Al  Al8       1.0  0.25000  0.50000  0.95972  1.0000
  Al  Al9       1.0  0.25000  0.75000  0.87916  1.0000
  Al  Al10      1.0  0.07726  0.75000  0.12352  1.0000
  Al  Al11      1.0  0.25000  0.47632  0.12944  1.0000
  Al  Al12      1.0  0.25000  0.75000  0.03021  1.0000
  Al  Al13      1.0  0.50000  0.25000  0.95972  1.0000
  Al  Al14      1.0  0.75000  0.00000  0.95972  1.0000
  Al  Al15      1.0  0.75000  0.25000  0.87916  1.0000
  Al  Al16      1.0  0.47631  0.25000  0.12944  1.0000
  Al  Al17      1.0  0.75000  0.07727  0.12353  1.0000
  Al  Al18      1.0  0.75000  0.25000  0.03021  1.0000
  Al  Al19      1.0  0.50000  0.75000  0.95972  1.0000
  Al  Al20      1.0  0.75000  0.50000  0.95972  1.0000
  Al  Al21      1.0  0.75000  0.75000  0.87916  1.0000
  Al  Al22      1.0  0.42274  0.75000  0.12352  1.0000
  Al  Al23      1.0  0.75000  0.42273  0.12353  1.0000
  Al  Al24      1.0  0.75000  0.75000  0.08329  1.0000
  C   C1        1.0  0.25000  0.25000  0.15453  1.0000
