# generated using pymatgen
data_Y8In8Pd16CO
_symmetry_space_group_name_H-M   Pmm2
_cell_length_a   6.85111000
_cell_length_b   9.68893000
_cell_length_c   27.26670000
_cell_angle_alpha   90.00000000
_cell_angle_beta   90.00000000
_cell_angle_gamma   90.00000000
_symmetry_Int_Tables_number   25
_chemical_formula_structural   Y8In8Pd16CO
_chemical_formula_sum   'Y8 In8 Pd16 C1 O1'
_cell_volume   1809.96150679
_cell_formula_units_Z   1
loop_
 _symmetry_equiv_pos_site_id
 _symmetry_equiv_pos_as_xyz
  1  'x, y, z'
  2  '-x, -y, z'
  3  '-x, y, z'
  4  'x, -y, z'
loop_
 _atom_site_type_symbol
 _atom_site_label
 _atom_site_symmetry_multiplicity
 _atom_site_fract_x
 _atom_site_fract_y
 _atom_site_fract_z
 _atom_site_occupancy
  Y  Y0  2  0.00000000  0.25000000  0.86675000  1.0
  Y  Y1  2  0.00000000  0.25087000  0.04421000  1.0
  Y  Y2  1  0.50000000  0.00000000  0.13339000  1.0
  Y  Y3  1  0.50000000  0.00000000  0.95558000  1.0
  Y  Y4  1  0.50000000  0.50000000  0.13408000  1.0
  Y  Y5  1  0.50000000  0.50000000  0.95558000  1.0
  In  In6  2  0.50000000  0.24991000  0.04668000  1.0
  In  In7  2  0.50000000  0.25000000  0.86675000  1.0
  In  In8  1  0.00000000  0.00000000  0.13518000  1.0
  In  In9  1  0.00000000  0.00000000  0.95558000  1.0
  In  In10  1  0.00000000  0.50000000  0.13586000  1.0
  In  In11  1  0.00000000  0.50000000  0.95558000  1.0
  Pd  Pd12  4  0.23496000  0.25013000  0.12938000  1.0
  Pd  Pd13  4  0.25000000  0.25000000  0.95558000  1.0
  Pd  Pd14  2  0.25000000  0.00000000  0.86675000  1.0
  Pd  Pd15  2  0.25000000  0.50000000  0.86675000  1.0
  Pd  Pd16  2  0.25710000  0.00000000  0.04603000  1.0
  Pd  Pd17  2  0.25869000  0.50000000  0.04678000  1.0
  C  C18  1  0.00000000  0.00000000  0.28751000  1.0
  O  O19  1  0.00000000  0.00000000  0.32915000  1.0
