# generated using pymatgen
data_Li8Y8Ge8Pb8C
_symmetry_space_group_name_H-M   'P 1'
_cell_length_a   9.86128000
_cell_length_b   8.55406000
_cell_length_c   26.49120000
_cell_angle_alpha   90.00000000
_cell_angle_beta   90.00000000
_cell_angle_gamma   90.00000000
_symmetry_Int_Tables_number   1
_chemical_formula_structural   Li8Y8Ge8Pb8C
_chemical_formula_sum   'Li8 Y8 Ge8 Pb8 C1'
_cell_volume   2234.63817608
_cell_formula_units_Z   1
loop_
 _symmetry_equiv_pos_site_id
 _symmetry_equiv_pos_as_xyz
  1  'x, y, z'
loop_
 _atom_site_type_symbol
 _atom_site_label
 _atom_site_symmetry_multiplicity
 _atom_site_fract_x
 _atom_site_fract_y
 _atom_site_fract_z
 _atom_site_occupancy
  Li  Li0  1  0.23305000  0.00000000  0.86718000  1.0
  Li  Li1  1  0.25000000  0.00000000  0.04084000  1.0
  Li  Li2  1  0.32905000  0.50000000  0.86289000  1.0
  Li  Li3  1  0.25000000  0.50000000  0.04084000  1.0
  Li  Li4  1  0.76693000  0.00000000  0.86719000  1.0
  Li  Li5  1  0.75000000  0.00000000  0.04084000  1.0
  Li  Li6  1  0.67109000  0.50000000  0.86292000  1.0
  Li  Li7  1  0.75000000  0.50000000  0.04084000  1.0
  Y  Y8  1  0.99999000  0.00000000  0.96077000  1.0
  Y  Y9  1  1.00000000  0.00000000  0.12252000  1.0
  Y  Y10  1  1.00000000  0.50000000  0.95730000  1.0
  Y  Y11  1  1.00000000  0.50000000  0.12252000  1.0
  Y  Y12  1  0.50000000  0.00000000  0.95791000  1.0
  Y  Y13  1  0.50000000  0.00000000  0.12252000  1.0
  Y  Y14  1  0.50000000  0.50000000  0.96388000  1.0
  Y  Y15  1  0.50000000  0.50000000  0.12252000  1.0
  Ge  Ge16  1  0.00003000  0.77920000  0.86646000  1.0
  Ge  Ge17  1  0.00000000  0.75000000  0.04084000  1.0
  Ge  Ge18  1  0.00003000  0.22080000  0.86646000  1.0
  Ge  Ge19  1  0.00000000  0.25000000  0.04084000  1.0
  Ge  Ge20  1  0.50000000  0.75215000  0.87855000  1.0
  Ge  Ge21  1  0.50000000  0.75000000  0.04084000  1.0
  Ge  Ge22  1  0.50000000  0.24785000  0.87855000  1.0
  Ge  Ge23  1  0.50000000  0.25000000  0.04084000  1.0
  Pb  Pb24  1  0.25247000  0.74543000  0.95126000  1.0
  Pb  Pb25  1  0.25000000  0.75000000  0.12252000  1.0
  Pb  Pb26  1  0.25247000  0.25457000  0.95126000  1.0
  Pb  Pb27  1  0.25000000  0.25000000  0.12252000  1.0
  Pb  Pb28  1  0.74754000  0.74542000  0.95126000  1.0
  Pb  Pb29  1  0.75000000  0.75000000  0.12252000  1.0
  Pb  Pb30  1  0.74754000  0.25458000  0.95126000  1.0
  Pb  Pb31  1  0.75000000  0.25000000  0.12252000  1.0
  C  C32  1  0.00003000  0.00000000  0.86864000  1.0
