# generated using pymatgen
data_Li8Y8Ge8Pb8C
_symmetry_space_group_name_H-M   Pm
_cell_length_a   9.86128000
_cell_length_b   8.55406000
_cell_length_c   26.49120000
_cell_angle_alpha   90.00000000
_cell_angle_beta   90.00000000
_cell_angle_gamma   90.00000000
_symmetry_Int_Tables_number   6
_chemical_formula_structural   Li8Y8Ge8Pb8C
_chemical_formula_sum   'Li8 Y8 Ge8 Pb8 C1'
_cell_volume   2234.63817608
_cell_formula_units_Z   1
loop_
 _symmetry_equiv_pos_site_id
 _symmetry_equiv_pos_as_xyz
  1  'x, y, z'
  2  'x, -y, z'
loop_
 _atom_site_type_symbol
 _atom_site_label
 _atom_site_symmetry_multiplicity
 _atom_site_fract_x
 _atom_site_fract_y
 _atom_site_fract_z
 _atom_site_occupancy
  Li  Li0  1  0.23305000  0.00000000  0.13282000  1.0
  Li  Li1  1  0.25000000  0.00000000  0.95916000  1.0
  Li  Li2  1  0.25000000  0.50000000  0.95916000  1.0
  Li  Li3  1  0.32905000  0.50000000  0.13711000  1.0
  Li  Li4  1  0.67109000  0.50000000  0.13708000  1.0
  Li  Li5  1  0.75000000  0.00000000  0.95916000  1.0
  Li  Li6  1  0.75000000  0.50000000  0.95916000  1.0
  Li  Li7  1  0.76693000  0.00000000  0.13281000  1.0
  Y  Y8  1  -0.00000000  0.00000000  0.87748000  1.0
  Y  Y9  1  -0.00000000  0.50000000  0.04270000  1.0
  Y  Y10  1  -0.00000000  0.50000000  0.87748000  1.0
  Y  Y11  1  0.50000000  0.00000000  0.04209000  1.0
  Y  Y12  1  0.50000000  0.00000000  0.87748000  1.0
  Y  Y13  1  0.50000000  0.50000000  0.03612000  1.0
  Y  Y14  1  0.50000000  0.50000000  0.87748000  1.0
  Y  Y15  1  0.99999000  0.00000000  0.03923000  1.0
  Ge  Ge16  2  0.00000000  0.25000000  0.95916000  1.0
  Ge  Ge17  2  0.00003000  0.22080000  0.13354000  1.0
  Ge  Ge18  2  0.50000000  0.24785000  0.12145000  1.0
  Ge  Ge19  2  0.50000000  0.25000000  0.95916000  1.0
  Pb  Pb20  2  0.25000000  0.25000000  0.87748000  1.0
  Pb  Pb21  2  0.25247000  0.25457000  0.04874000  1.0
  Pb  Pb22  2  0.74754000  0.25458000  0.04874000  1.0
  Pb  Pb23  2  0.75000000  0.25000000  0.87748000  1.0
  C  C24  1  0.00003000  0.00000000  0.13136000  1.0
