# generated using pymatgen
data_Li8Ge8Pd8Pt8CO
_symmetry_space_group_name_H-M   'P 1'
_cell_length_a   8.66768000
_cell_length_b   6.12898000
_cell_length_c   26.50080000
_cell_angle_alpha   90.00000000
_cell_angle_beta   90.00000000
_cell_angle_gamma   90.00000000
_symmetry_Int_Tables_number   1
_chemical_formula_structural   Li8Ge8Pd8Pt8CO
_chemical_formula_sum   'Li8 Ge8 Pd8 Pt8 C1 O1'
_cell_volume   1407.82948944
_cell_formula_units_Z   1
loop_
 _symmetry_equiv_pos_site_id
 _symmetry_equiv_pos_as_xyz
  1  'x, y, z'
loop_
 _atom_site_type_symbol
 _atom_site_label
 _atom_site_symmetry_multiplicity
 _atom_site_fract_x
 _atom_site_fract_y
 _atom_site_fract_z
 _atom_site_occupancy
  Li  Li0  1  0.25000000  0.00000000  0.04088000  1.0
  Li  Li1  1  0.75000000  0.00000000  0.04088000  1.0
  Li  Li2  1  0.50000000  0.50000000  0.12265000  1.0
  Li  Li3  1  0.00000000  0.50000000  0.12265000  1.0
  Li  Li4  1  0.74421000  0.00027000  0.86566000  1.0
  Li  Li5  1  0.25579000  0.00027000  0.86566000  1.0
  Li  Li6  1  0.00000000  0.49848000  0.95990000  1.0
  Li  Li7  1  0.50000000  0.50060000  0.96286000  1.0
  Ge  Ge8  1  0.00000000  0.00000000  0.12265000  1.0
  Ge  Ge9  1  0.50000000  0.00000000  0.12265000  1.0
  Ge  Ge10  1  0.75000000  0.50000000  0.04088000  1.0
  Ge  Ge11  1  0.25000000  0.50000000  0.04088000  1.0
  Ge  Ge12  1  0.50000000  0.00404000  0.95836000  1.0
  Ge  Ge13  1  0.00000000  0.99563000  0.95804000  1.0
  Ge  Ge14  1  0.25443000  0.50319000  0.87753000  1.0
  Ge  Ge15  1  0.74557000  0.50319000  0.87753000  1.0
  Pd  Pd16  1  0.00000000  0.75000000  0.04088000  1.0
  Pd  Pd17  1  0.50000000  0.75000000  0.04088000  1.0
  Pd  Pd18  1  0.25000000  0.25000000  0.12265000  1.0
  Pd  Pd19  1  0.75000000  0.25000000  0.12265000  1.0
  Pd  Pd20  1  0.50000000  0.74243000  0.88373000  1.0
  Pd  Pd21  1  0.00000000  0.72756000  0.88216000  1.0
  Pd  Pd22  1  0.76004000  0.24871000  0.95767000  1.0
  Pd  Pd23  1  0.23996000  0.24871000  0.95767000  1.0
  Pt  Pt24  1  0.00000000  0.25000000  0.04088000  1.0
  Pt  Pt25  1  0.50000000  0.25000000  0.04088000  1.0
  Pt  Pt26  1  0.25000000  0.75000000  0.12265000  1.0
  Pt  Pt27  1  0.75000000  0.75000000  0.12265000  1.0
  Pt  Pt28  1  0.50000000  0.27149000  0.88516000  1.0
  Pt  Pt29  1  0.00000000  0.24509000  0.87318000  1.0
  Pt  Pt30  1  0.75140000  0.75164000  0.95987000  1.0
  Pt  Pt31  1  0.24860000  0.75164000  0.95987000  1.0
  C  C32  1  0.00000000  0.13995000  0.80582000  1.0
  O  O33  1  0.00000000  0.10025000  0.76301000  1.0
