# generated using pymatgen
data_Y8In8Cu8Sn8CO
_symmetry_space_group_name_H-M   Pmm2
_cell_length_a   8.82850000
_cell_length_b   9.14612000
_cell_length_c   26.63560000
_cell_angle_alpha   90.00000000
_cell_angle_beta   90.00000000
_cell_angle_gamma   90.00000000
_symmetry_Int_Tables_number   25
_chemical_formula_structural   Y8In8Cu8Sn8CO
_chemical_formula_sum   'Y8 In8 Cu8 Sn8 C1 O1'
_cell_volume   2150.73201930
_cell_formula_units_Z   1
loop_
 _symmetry_equiv_pos_site_id
 _symmetry_equiv_pos_as_xyz
  1  'x, y, z'
  2  '-x, -y, z'
  3  '-x, y, z'
  4  'x, -y, z'
loop_
 _atom_site_type_symbol
 _atom_site_label
 _atom_site_symmetry_multiplicity
 _atom_site_fract_x
 _atom_site_fract_y
 _atom_site_fract_z
 _atom_site_occupancy
  Y  Y0  4  0.25000000  0.25000000  0.04152000  1.0
  Y  Y1  4  0.25985000  0.26534000  0.87150000  1.0
  In  In2  2  0.24320000  0.50000000  0.96008000  1.0
  In  In3  2  0.25000000  0.00000000  0.12456000  1.0
  In  In4  2  0.25000000  0.50000000  0.12456000  1.0
  In  In5  2  0.25199000  0.00000000  0.95642000  1.0
  Cu  Cu6  1  0.00000000  0.00000000  0.04152000  1.0
  Cu  Cu7  1  0.00000000  0.00000000  0.88654000  1.0
  Cu  Cu8  1  0.00000000  0.50000000  0.04152000  1.0
  Cu  Cu9  1  0.00000000  0.50000000  0.88148000  1.0
  Cu  Cu10  1  0.50000000  0.00000000  0.04152000  1.0
  Cu  Cu11  1  0.50000000  0.00000000  0.88260000  1.0
  Cu  Cu12  1  0.50000000  0.50000000  0.04152000  1.0
  Cu  Cu13  1  0.50000000  0.50000000  0.88468000  1.0
  Sn  Sn14  2  0.00000000  0.24409000  0.95466000  1.0
  Sn  Sn15  2  0.00000000  0.25000000  0.12456000  1.0
  Sn  Sn16  2  0.50000000  0.25000000  0.12456000  1.0
  Sn  Sn17  2  0.50000000  0.25333000  0.95755000  1.0
  C  C18  1  0.00000000  0.00000000  0.81803000  1.0
  O  O19  1  0.00000000  0.00000000  0.77400000  1.0
