# generated using pymatgen
data_Y8Mg8Sn8Pd8CO
_symmetry_space_group_name_H-M   'P 1'
_cell_length_a   7.00634000
_cell_length_b   9.90846000
_cell_length_c   27.43130000
_cell_angle_alpha   90.00000000
_cell_angle_beta   90.00000000
_cell_angle_gamma   90.00000000
_symmetry_Int_Tables_number   1
_chemical_formula_structural   Y8Mg8Sn8Pd8CO
_chemical_formula_sum   'Y8 Mg8 Sn8 Pd8 C1 O1'
_cell_volume   1904.33679588
_cell_formula_units_Z   1
loop_
 _symmetry_equiv_pos_site_id
 _symmetry_equiv_pos_as_xyz
  1  'x, y, z'
loop_
 _atom_site_type_symbol
 _atom_site_label
 _atom_site_symmetry_multiplicity
 _atom_site_fract_x
 _atom_site_fract_y
 _atom_site_fract_z
 _atom_site_occupancy
  Y  Y0  1  0.00000000  0.75000000  0.95485000  1.0
  Y  Y1  1  0.00000000  0.25000000  0.95485000  1.0
  Y  Y2  1  0.50000000  0.50000000  0.86455000  1.0
  Y  Y3  1  0.50000000  0.00000000  0.86455000  1.0
  Y  Y4  1  0.97330000  0.28688000  0.14110000  1.0
  Y  Y5  1  0.97330000  0.71312000  0.14110000  1.0
  Y  Y6  1  0.50356000  0.00000000  0.04822000  1.0
  Y  Y7  1  0.52785000  0.50000000  0.05124000  1.0
  Mg  Mg8  1  0.00000000  0.00000000  0.86455000  1.0
  Mg  Mg9  1  0.00000000  0.50000000  0.86455000  1.0
  Mg  Mg10  1  0.50000000  0.25000000  0.95485000  1.0
  Mg  Mg11  1  0.50000000  0.75000000  0.95485000  1.0
  Mg  Mg12  1  0.00052000  0.50000000  0.04660000  1.0
  Mg  Mg13  1  0.99646000  0.00000000  0.04447000  1.0
  Mg  Mg14  1  0.48531000  0.76877000  0.13917000  1.0
  Mg  Mg15  1  0.48531000  0.23123000  0.13917000  1.0
  Sn  Sn16  1  0.75000000  0.00000000  0.95485000  1.0
  Sn  Sn17  1  0.75000000  0.50000000  0.95485000  1.0
  Sn  Sn18  1  0.25000000  0.75000000  0.86455000  1.0
  Sn  Sn19  1  0.25000000  0.25000000  0.86455000  1.0
  Sn  Sn20  1  0.65252000  0.50000000  0.16676000  1.0
  Sn  Sn21  1  0.77935000  0.00000000  0.14252000  1.0
  Sn  Sn22  1  0.24127000  0.25266000  0.05046000  1.0
  Sn  Sn23  1  0.24128000  0.74733000  0.05046000  1.0
  Pd  Pd24  1  0.25000000  0.00000000  0.95485000  1.0
  Pd  Pd25  1  0.25000000  0.50000000  0.95485000  1.0
  Pd  Pd26  1  0.75000000  0.75000000  0.86455000  1.0
  Pd  Pd27  1  0.75000000  0.25000000  0.86455000  1.0
  Pd  Pd28  1  0.26542000  0.50000000  0.12811000  1.0
  Pd  Pd29  1  0.21430000  0.00000000  0.12541000  1.0
  Pd  Pd30  1  0.77884000  0.24232000  0.04849000  1.0
  Pd  Pd31  1  0.77883000  0.75768000  0.04848000  1.0
  C  C32  1  0.62589000  0.00012000  0.28601000  1.0
  O  O33  1  0.77685000  0.99999000  0.30109000  1.0
