# generated using pymatgen
data_Li8Sc8Al8Pd8C
_symmetry_space_group_name_H-M   'P 1'
_cell_length_a   9.02082000
_cell_length_b   6.37868000
_cell_length_c   26.76560000
_cell_angle_alpha   90.00000000
_cell_angle_beta   90.00000000
_cell_angle_gamma   90.00000000
_symmetry_Int_Tables_number   1
_chemical_formula_structural   Li8Sc8Al8Pd8C
_chemical_formula_sum   'Li8 Sc8 Al8 Pd8 C1'
_cell_volume   1540.11735856
_cell_formula_units_Z   1
loop_
 _symmetry_equiv_pos_site_id
 _symmetry_equiv_pos_as_xyz
  1  'x, y, z'
loop_
 _atom_site_type_symbol
 _atom_site_label
 _atom_site_symmetry_multiplicity
 _atom_site_fract_x
 _atom_site_fract_y
 _atom_site_fract_z
 _atom_site_occupancy
  Li  Li0  1  0.75000000  0.75000000  0.04213000  1.0
  Li  Li1  1  0.25000000  0.75000000  0.04213000  1.0
  Li  Li2  1  0.00000000  0.25000000  0.12639000  1.0
  Li  Li3  1  0.50000000  0.25000000  0.12639000  1.0
  Li  Li4  1  0.22477000  0.62261000  0.81924000  1.0
  Li  Li5  1  0.77523000  0.62261000  0.81924000  1.0
  Li  Li6  1  0.50000000  0.24323000  0.95691000  1.0
  Li  Li7  1  0.00000000  0.23563000  0.95582000  1.0
  Sc  Sc8  1  0.00000000  1.00000000  0.04213000  1.0
  Sc  Sc9  1  0.50000000  0.00000000  0.04213000  1.0
  Sc  Sc10  1  0.25000000  0.50000000  0.12639000  1.0
  Sc  Sc11  1  0.75000000  0.50000000  0.12639000  1.0
  Sc  Sc12  1  0.50000000  0.95003000  0.87597000  1.0
  Sc  Sc13  1  0.00000000  0.95291000  0.87093000  1.0
  Sc  Sc14  1  0.74847000  0.51383000  0.95263000  1.0
  Sc  Sc15  1  0.25153000  0.51383000  0.95263000  1.0
  Al  Al16  1  0.75000000  0.00000000  0.12639000  1.0
  Al  Al17  1  0.25000000  0.00000000  0.12639000  1.0
  Al  Al18  1  0.50000000  0.50000000  0.04213000  1.0
  Al  Al19  1  0.00000000  0.50000000  0.04213000  1.0
  Al  Al20  1  0.25023000  0.99466000  0.95774000  1.0
  Al  Al21  1  0.74977000  0.99466000  0.95774000  1.0
  Al  Al22  1  0.00000000  0.45054000  0.87167000  1.0
  Al  Al23  1  0.50000000  0.47653000  0.87106000  1.0
  Pd  Pd24  1  0.75000000  0.25000000  0.04213000  1.0
  Pd  Pd25  1  0.25000000  0.25000000  0.04213000  1.0
  Pd  Pd26  1  0.00000000  0.75000000  0.12639000  1.0
  Pd  Pd27  1  0.50000000  0.75000000  0.12639000  1.0
  Pd  Pd28  1  0.25856000  0.23885000  0.88009000  1.0
  Pd  Pd29  1  0.74144000  0.23885000  0.88009000  1.0
  Pd  Pd30  1  0.50000000  0.74910000  0.96194000  1.0
  Pd  Pd31  1  0.00000000  0.75346000  0.96388000  1.0
  C  C32  1  0.00000000  0.68661000  0.82911000  1.0
