# generated using pymatgen
data_Li4Sc4In4Ge4C
_symmetry_space_group_name_H-M   'P 1'
_cell_length_a   8.22048000
_cell_length_b   6.05318000
_cell_length_c   24.51760000
_cell_angle_alpha   90.00000000
_cell_angle_beta   90.00000000
_cell_angle_gamma   90.00000000
_symmetry_Int_Tables_number   1
_chemical_formula_structural   Li4Sc4In4Ge4C
_chemical_formula_sum   'Li4 Sc4 In4 Ge4 C1'
_cell_volume   1219.99688239
_cell_formula_units_Z   1
loop_
 _symmetry_equiv_pos_site_id
 _symmetry_equiv_pos_as_xyz
  1  'x, y, z'
loop_
 _atom_site_type_symbol
 _atom_site_label
 _atom_site_symmetry_multiplicity
 _atom_site_fract_x
 _atom_site_fract_y
 _atom_site_fract_z
 _atom_site_occupancy
  Li  Li0  1  0.75597000  0.55344000  0.88870000  1.0
  Li  Li1  1  0.75000000  0.95056000  0.03071000  1.0
  Li  Li2  1  0.24403000  0.55344000  0.88870000  1.0
  Li  Li3  1  0.25000000  0.95056000  0.03071000  1.0
  Sc  Sc4  1  0.00000000  0.30001000  0.96654000  1.0
  Sc  Sc5  1  0.00000000  0.67584000  0.09213000  1.0
  Sc  Sc6  1  0.50000000  0.23935000  0.95866000  1.0
  Sc  Sc7  1  0.50000000  0.67584000  0.09213000  1.0
  In  In8  1  0.00000000  0.78100000  0.95687000  1.0
  In  In9  1  0.00000000  0.17584000  0.09213000  1.0
  In  In10  1  0.50000000  0.72957000  0.95926000  1.0
  In  In11  1  0.50000000  0.17584000  0.09213000  1.0
  Ge  Ge12  1  0.76851000  0.07372000  0.89125000  1.0
  Ge  Ge13  1  0.75000000  0.45056000  0.03071000  1.0
  Ge  Ge14  1  0.23149000  0.07372000  0.89125000  1.0
  Ge  Ge15  1  0.25000000  0.45056000  0.03071000  1.0
  C  C16  1  0.00000000  0.10465000  0.89112000  1.0
