# generated using pymatgen
data_Li8Ag8Sn8Pd8C
_symmetry_space_group_name_H-M   'P 1'
_cell_length_a   9.26558000
_cell_length_b   6.55175000
_cell_length_c   26.94920000
_cell_angle_alpha   90.00000000
_cell_angle_beta   90.00000000
_cell_angle_gamma   90.00000000
_symmetry_Int_Tables_number   1
_chemical_formula_structural   Li8Ag8Sn8Pd8C
_chemical_formula_sum   'Li8 Ag8 Sn8 Pd8 C1'
_cell_volume   1635.97176886
_cell_formula_units_Z   1
loop_
 _symmetry_equiv_pos_site_id
 _symmetry_equiv_pos_as_xyz
  1  'x, y, z'
loop_
 _atom_site_type_symbol
 _atom_site_label
 _atom_site_symmetry_multiplicity
 _atom_site_fract_x
 _atom_site_fract_y
 _atom_site_fract_z
 _atom_site_occupancy
  Li  Li0  1  0.75000000  0.25000000  0.04298000  1.0
  Li  Li1  1  0.25000000  0.25000000  0.04298000  1.0
  Li  Li2  1  0.00000000  0.75000000  0.12893000  1.0
  Li  Li3  1  0.50000000  0.75000000  0.12893000  1.0
  Li  Li4  1  0.23477000  0.23116000  0.86853000  1.0
  Li  Li5  1  0.76523000  0.23116000  0.86853000  1.0
  Li  Li6  1  0.50000000  0.74278000  0.95821000  1.0
  Li  Li7  1  0.00000000  0.73633000  0.95258000  1.0
  Ag  Ag8  1  0.75000000  0.00000000  0.12893000  1.0
  Ag  Ag9  1  0.25000000  0.00000000  0.12893000  1.0
  Ag  Ag10  1  0.50000000  0.50000000  0.04298000  1.0
  Ag  Ag11  1  0.00000000  0.50000000  0.04298000  1.0
  Ag  Ag12  1  0.24814000  0.97904000  0.95292000  1.0
  Ag  Ag13  1  0.75186000  0.97904000  0.95292000  1.0
  Ag  Ag14  1  0.00000000  0.51630000  0.84773000  1.0
  Ag  Ag15  1  0.50000000  0.47842000  0.87035000  1.0
  Sn  Sn16  1  0.75000000  0.75000000  0.04298000  1.0
  Sn  Sn17  1  0.25000000  0.75000000  0.04298000  1.0
  Sn  Sn18  1  0.00000000  0.25000000  0.12893000  1.0
  Sn  Sn19  1  0.50000000  0.25000000  0.12893000  1.0
  Sn  Sn20  1  0.26112000  0.74333000  0.86141000  1.0
  Sn  Sn21  1  0.73888000  0.74333000  0.86141000  1.0
  Sn  Sn22  1  0.50000000  0.24202000  0.95773000  1.0
  Sn  Sn23  1  0.00000000  0.25965000  0.95918000  1.0
  Pd  Pd24  1  0.00000000  0.00000000  0.04298000  1.0
  Pd  Pd25  1  0.50000000  0.00000000  0.04298000  1.0
  Pd  Pd26  1  0.25000000  0.50000000  0.12893000  1.0
  Pd  Pd27  1  0.75000000  0.50000000  0.12893000  1.0
  Pd  Pd28  1  0.50000000  0.98436000  0.87923000  1.0
  Pd  Pd29  1  0.00000000  0.93429000  0.86254000  1.0
  Pd  Pd30  1  0.74235000  0.50330000  0.95504000  1.0
  Pd  Pd31  1  0.25765000  0.50330000  0.95504000  1.0
  C  C32  1  0.00000000  0.22034000  0.87944000  1.0
