# generated using pymatgen
data_Li8Ag8Sn8Pd8C
_symmetry_space_group_name_H-M   Pm
_cell_length_a   6.55175000
_cell_length_b   9.26558000
_cell_length_c   26.94920000
_cell_angle_alpha   90.00000000
_cell_angle_beta   90.00000000
_cell_angle_gamma   90.00000000
_symmetry_Int_Tables_number   6
_chemical_formula_structural   Li8Ag8Sn8Pd8C
_chemical_formula_sum   'Li8 Ag8 Sn8 Pd8 C1'
_cell_volume   1635.97176886
_cell_formula_units_Z   1
loop_
 _symmetry_equiv_pos_site_id
 _symmetry_equiv_pos_as_xyz
  1  'x, y, z'
  2  'x, -y, z'
loop_
 _atom_site_type_symbol
 _atom_site_label
 _atom_site_symmetry_multiplicity
 _atom_site_fract_x
 _atom_site_fract_y
 _atom_site_fract_z
 _atom_site_occupancy
  Li  Li0  2  0.23116000  0.23477000  0.13147000  1.0
  Li  Li1  2  0.25000000  0.25000000  0.95702000  1.0
  Li  Li2  1  0.73633000  0.00000000  0.04742000  1.0
  Li  Li3  1  0.74278000  0.50000000  0.04179000  1.0
  Li  Li4  1  0.75000000  0.00000000  0.87107000  1.0
  Li  Li5  1  0.75000000  0.50000000  0.87107000  1.0
  Ag  Ag6  2  0.00000000  0.25000000  0.87107000  1.0
  Ag  Ag7  2  0.97904000  0.24814000  0.04708000  1.0
  Ag  Ag8  1  0.47842000  0.50000000  0.12965000  1.0
  Ag  Ag9  1  0.50000000  0.00000000  0.95702000  1.0
  Ag  Ag10  1  0.50000000  0.50000000  0.95702000  1.0
  Ag  Ag11  1  0.51630000  0.00000000  0.15227000  1.0
  Sn  Sn12  2  0.74333000  0.26112000  0.13859000  1.0
  Sn  Sn13  2  0.75000000  0.25000000  0.95702000  1.0
  Sn  Sn14  1  0.24202000  0.50000000  0.04227000  1.0
  Sn  Sn15  1  0.25000000  0.00000000  0.87107000  1.0
  Sn  Sn16  1  0.25000000  0.50000000  0.87107000  1.0
  Sn  Sn17  1  0.25965000  0.00000000  0.04082000  1.0
  Pd  Pd18  2  0.50000000  0.25000000  0.87107000  1.0
  Pd  Pd19  2  0.50330000  0.25765000  0.04496000  1.0
  Pd  Pd20  1  0.00000000  0.00000000  0.95702000  1.0
  Pd  Pd21  1  0.00000000  0.50000000  0.95702000  1.0
  Pd  Pd22  1  0.93429000  0.00000000  0.13746000  1.0
  Pd  Pd23  1  0.98436000  0.50000000  0.12077000  1.0
  C  C24  1  0.22034000  0.00000000  0.12056000  1.0
