data_image0
_chemical_formula_structural       Ni16Pt16CO
_chemical_formula_sum              "Ni16 Pt16 C1 O1"
_cell_length_a       7.96875
_cell_length_b       7.03042
_cell_length_c       25.9766
_cell_angle_alpha    90
_cell_angle_beta     90
_cell_angle_gamma    90

_space_group_name_H-M_alt    "P 1"
_space_group_IT_number       1

loop_
  _space_group_symop_operation_xyz
  'x, y, z'

loop_
  _atom_site_type_symbol
  _atom_site_label
  _atom_site_symmetry_multiplicity
  _atom_site_fract_x
  _atom_site_fract_y
  _atom_site_fract_z
  _atom_site_occupancy
  Ni  Ni1       1.0  0.25000  0.25000  0.88496  1.0000
  Ni  Ni2       1.0  0.50000  0.25000  0.96165  1.0000
  Ni  Ni3       1.0  0.25078  0.25000  0.03603  1.0000
  Ni  Ni4       1.0  0.49999  0.25000  0.10816  1.0000
  Ni  Ni5       1.0  0.25000  0.75000  0.88496  1.0000
  Ni  Ni6       1.0  0.50000  0.75000  0.96165  1.0000
  Ni  Ni7       1.0  0.24727  0.75000  0.03501  1.0000
  Ni  Ni8       1.0  0.49999  0.75000  0.10760  1.0000
  Ni  Ni9       1.0  0.75000  0.25000  0.88496  1.0000
  Ni  Ni10      1.0  0.00000  0.25000  0.96165  1.0000
  Ni  Ni11      1.0  0.74923  0.25000  0.03603  1.0000
  Ni  Ni12      1.0  0.00001  0.25000  0.11624  1.0000
  Ni  Ni13      1.0  0.75000  0.75000  0.88496  1.0000
  Ni  Ni14      1.0  0.00000  0.75000  0.96165  1.0000
  Ni  Ni15      1.0  0.75273  0.75000  0.03501  1.0000
  Ni  Ni16      1.0  0.00000  0.75000  0.10706  1.0000
  Pt  Pt1       1.0  0.00000  0.00000  0.88496  1.0000
  Pt  Pt2       1.0  0.25000  0.00000  0.96165  1.0000
  Pt  Pt3       1.0  0.50000  0.99993  0.03538  1.0000
  Pt  Pt4       1.0  0.25248  0.99571  0.10918  1.0000
  Pt  Pt5       1.0  0.00000  0.50000  0.88496  1.0000
  Pt  Pt6       1.0  0.25000  0.50000  0.96165  1.0000
  Pt  Pt7       1.0  0.50000  0.50006  0.03538  1.0000
  Pt  Pt8       1.0  0.25248  0.50429  0.10918  1.0000
  Pt  Pt9       1.0  0.50000  0.00000  0.88496  1.0000
  Pt  Pt10      1.0  0.75000  0.00000  0.96165  1.0000
  Pt  Pt11      1.0  0.00001  0.00660  0.03653  1.0000
  Pt  Pt12      1.0  0.74752  0.99570  0.10918  1.0000
  Pt  Pt13      1.0  0.50000  0.50000  0.88496  1.0000
  Pt  Pt14      1.0  0.75000  0.50000  0.96165  1.0000
  Pt  Pt15      1.0  0.00001  0.49340  0.03653  1.0000
  Pt  Pt16      1.0  0.74752  0.50430  0.10918  1.0000
  C   C1        1.0  0.00000  0.25000  0.18363  1.0000
  O   O1        1.0  0.00000  0.25000  0.22795  1.0000
