# generated using pymatgen
data_Ni16Pt16CO
_symmetry_space_group_name_H-M   'P 1'
_cell_length_a   7.03042000
_cell_length_b   7.96875000
_cell_length_c   25.97660000
_cell_angle_alpha   90.00000000
_cell_angle_beta   90.00000000
_cell_angle_gamma   90.00000000
_symmetry_Int_Tables_number   1
_chemical_formula_structural   Ni16Pt16CO
_chemical_formula_sum   'Ni16 Pt16 C1 O1'
_cell_volume   1455.30419012
_cell_formula_units_Z   1
loop_
 _symmetry_equiv_pos_site_id
 _symmetry_equiv_pos_as_xyz
  1  'x, y, z'
loop_
 _atom_site_type_symbol
 _atom_site_label
 _atom_site_symmetry_multiplicity
 _atom_site_fract_x
 _atom_site_fract_y
 _atom_site_fract_z
 _atom_site_occupancy
  Ni  Ni0  1  0.00000000  0.25000000  0.11504000  1.0
  Ni  Ni1  1  0.00000000  0.50000000  0.03835000  1.0
  Ni  Ni2  1  0.00000000  0.25078000  0.96397000  1.0
  Ni  Ni3  1  0.00000000  0.50000000  0.89184000  1.0
  Ni  Ni4  1  0.50000000  0.25000000  0.11504000  1.0
  Ni  Ni5  1  0.50000000  0.50000000  0.03835000  1.0
  Ni  Ni6  1  0.50000000  0.24727000  0.96499000  1.0
  Ni  Ni7  1  0.50000000  0.50000000  0.89240000  1.0
  Ni  Ni8  1  0.00000000  0.75000000  0.11504000  1.0
  Ni  Ni9  1  0.00000000  0.00000000  0.03835000  1.0
  Ni  Ni10  1  0.00000000  0.74922000  0.96397000  1.0
  Ni  Ni11  1  0.00000000  0.00000000  0.88376000  1.0
  Ni  Ni12  1  0.50000000  0.75000000  0.11504000  1.0
  Ni  Ni13  1  0.50000000  0.00000000  0.03835000  1.0
  Ni  Ni14  1  0.50000000  0.75273000  0.96499000  1.0
  Ni  Ni15  1  0.50000000  0.00000000  0.89294000  1.0
  Pt  Pt16  1  0.75000000  0.00000000  0.11504000  1.0
  Pt  Pt17  1  0.75000000  0.25000000  0.03835000  1.0
  Pt  Pt18  1  0.74993000  0.50000000  0.96462000  1.0
  Pt  Pt19  1  0.74571000  0.25248000  0.89082000  1.0
  Pt  Pt20  1  0.25000000  0.00000000  0.11504000  1.0
  Pt  Pt21  1  0.25000000  0.25000000  0.03835000  1.0
  Pt  Pt22  1  0.25007000  0.50000000  0.96462000  1.0
  Pt  Pt23  1  0.25429000  0.25248000  0.89082000  1.0
  Pt  Pt24  1  0.75000000  0.50000000  0.11504000  1.0
  Pt  Pt25  1  0.75000000  0.75000000  0.03835000  1.0
  Pt  Pt26  1  0.75660000  0.00000000  0.96347000  1.0
  Pt  Pt27  1  0.74571000  0.74752000  0.89082000  1.0
  Pt  Pt28  1  0.25000000  0.50000000  0.11504000  1.0
  Pt  Pt29  1  0.25000000  0.75000000  0.03835000  1.0
  Pt  Pt30  1  0.24340000  0.00000000  0.96347000  1.0
  Pt  Pt31  1  0.25429000  0.74752000  0.89082000  1.0
  C  C32  1  0.00000000  0.00000000  0.81637000  1.0
  O  O33  1  0.00000000  0.00000000  0.77205000  1.0
