# generated using pymatgen
data_Li8Mg8Al8Cu8C
_symmetry_space_group_name_H-M   'P 1'
_cell_length_a   6.19386000
_cell_length_b   8.75944000
_cell_length_c   26.56960000
_cell_angle_alpha   90.00000000
_cell_angle_beta   90.00000000
_cell_angle_gamma   90.00000000
_symmetry_Int_Tables_number   1
_chemical_formula_structural   Li8Mg8Al8Cu8C
_chemical_formula_sum   'Li8 Mg8 Al8 Cu8 C1'
_cell_volume   1441.52687377
_cell_formula_units_Z   1
loop_
 _symmetry_equiv_pos_site_id
 _symmetry_equiv_pos_as_xyz
  1  'x, y, z'
loop_
 _atom_site_type_symbol
 _atom_site_label
 _atom_site_symmetry_multiplicity
 _atom_site_fract_x
 _atom_site_fract_y
 _atom_site_fract_z
 _atom_site_occupancy
  Li  Li0  1  0.75000000  0.00000000  0.95879000  1.0
  Li  Li1  1  0.75000000  0.50000000  0.95879000  1.0
  Li  Li2  1  0.25000000  0.75000000  0.87637000  1.0
  Li  Li3  1  0.25000000  0.25000000  0.87637000  1.0
  Li  Li4  1  0.63073000  0.49159000  0.17491000  1.0
  Li  Li5  1  0.63074000  0.00840000  0.17490000  1.0
  Li  Li6  1  0.22923000  0.25000000  0.04348000  1.0
  Li  Li7  1  0.22410000  0.75001000  0.05238000  1.0
  Mg  Mg8  1  1.00000000  0.75000000  0.95879000  1.0
  Mg  Mg9  1  1.00000000  0.25000000  0.95879000  1.0
  Mg  Mg10  1  0.50000000  0.50000000  0.87637000  1.0
  Mg  Mg11  1  0.50000000  0.00000000  0.87637000  1.0
  Mg  Mg12  1  0.96583000  0.25007000  0.13039000  1.0
  Mg  Mg13  1  0.96547000  0.74993000  0.15997000  1.0
  Mg  Mg14  1  0.50429000  0.00515000  0.04321000  1.0
  Mg  Mg15  1  0.50429000  0.49485000  0.04321000  1.0
  Al  Al16  1  0.00000000  0.00000000  0.87637000  1.0
  Al  Al17  1  1.00000000  0.50000000  0.87637000  1.0
  Al  Al18  1  0.50000000  0.25000000  0.95879000  1.0
  Al  Al19  1  0.50000000  0.75000000  0.95879000  1.0
  Al  Al20  1  0.97795000  0.50166000  0.04695000  1.0
  Al  Al21  1  0.97794000  0.99835000  0.04695000  1.0
  Al  Al22  1  0.57660000  0.74999000  0.11620000  1.0
  Al  Al23  1  0.46577000  0.25001000  0.12521000  1.0
  Cu  Cu24  1  0.25000000  0.00000000  0.95879000  1.0
  Cu  Cu25  1  0.25000000  0.50000000  0.95879000  1.0
  Cu  Cu26  1  0.75000000  0.75000000  0.87637000  1.0
  Cu  Cu27  1  0.75000000  0.25000000  0.87637000  1.0
  Cu  Cu28  1  0.24982000  0.52440000  0.12189000  1.0
  Cu  Cu29  1  0.24979000  0.97561000  0.12189000  1.0
  Cu  Cu30  1  0.75266000  0.25000000  0.03891000  1.0
  Cu  Cu31  1  0.74893000  0.75000000  0.03430000  1.0
  C  C32  1  0.28111000  0.75002000  0.13606000  1.0
