# generated using pymatgen
data_Ti4Co8Ge4CO
_symmetry_space_group_name_H-M   'P 1'
_cell_length_a   5.88044000
_cell_length_b   5.88044000
_cell_length_c   24.41030000
_cell_angle_alpha   90.00000000
_cell_angle_beta   90.00000000
_cell_angle_gamma   90.00000000
_symmetry_Int_Tables_number   1
_chemical_formula_structural   Ti4Co8Ge4CO
_chemical_formula_sum   'Ti4 Co8 Ge4 C1 O1'
_cell_volume   844.09778970
_cell_formula_units_Z   1
loop_
 _symmetry_equiv_pos_site_id
 _symmetry_equiv_pos_as_xyz
  1  'x, y, z'
loop_
 _atom_site_type_symbol
 _atom_site_label
 _atom_site_symmetry_multiplicity
 _atom_site_fract_x
 _atom_site_fract_y
 _atom_site_fract_z
 _atom_site_occupancy
  Ti  Ti0  1  0.00000000  0.50000000  0.09034000  1.0
  Ti  Ti1  1  0.50000000  0.00000000  0.09034000  1.0
  Ti  Ti2  1  0.50000000  0.50000000  0.96989000  1.0
  Ti  Ti3  1  0.00000000  0.00000000  0.96989000  1.0
  Co  Co4  1  0.25000000  0.75000000  0.03011000  1.0
  Co  Co5  1  0.75000000  0.25000000  0.90966000  1.0
  Co  Co6  1  0.75000000  0.75000000  0.03011000  1.0
  Co  Co7  1  0.25000000  0.25000000  0.90966000  1.0
  Co  Co8  1  0.75000000  0.25000000  0.03011000  1.0
  Co  Co9  1  0.25000000  0.75000000  0.90966000  1.0
  Co  Co10  1  0.25000000  0.25000000  0.03011000  1.0
  Co  Co11  1  0.75000000  0.75000000  0.90966000  1.0
  Ge  Ge12  1  0.00000000  0.50000000  0.96989000  1.0
  Ge  Ge13  1  0.50000000  0.50000000  0.09034000  1.0
  Ge  Ge14  1  0.00000000  0.00000000  0.09034000  1.0
  Ge  Ge15  1  0.50000000  0.00000000  0.96989000  1.0
  C  C16  1  0.00000000  0.00000000  0.16817000  1.0
  O  O17  1  0.00000000  0.00000000  0.21528000  1.0
