# generated using pymatgen
data_LiScInAg
_symmetry_space_group_name_H-M   Pm
_cell_length_a   6.68683000
_cell_length_b   4.72830000
_cell_length_c   27.09240000
_cell_angle_alpha   90.00000000
_cell_angle_beta   90.00000000
_cell_angle_gamma   90.00000000
_symmetry_Int_Tables_number   6
_chemical_formula_structural   LiScInAg
_chemical_formula_sum   'Li4 Sc4 In4 Ag4'
_cell_volume   856.58957586
_cell_formula_units_Z   4
loop_
 _symmetry_equiv_pos_site_id
 _symmetry_equiv_pos_as_xyz
  1  'x, y, z'
  2  'x, -y, z'
loop_
 _atom_site_type_symbol
 _atom_site_label
 _atom_site_symmetry_multiplicity
 _atom_site_fract_x
 _atom_site_fract_y
 _atom_site_fract_z
 _atom_site_occupancy
  Li  Li0  1  0.00000000  0.50000000  0.04363000  1.0
  Li  Li1  1  0.50000000  0.00000000  0.13089000  1.0
  Li  Li2  1  0.50329000  0.00000000  0.95412000  1.0
  Li  Li3  1  0.91979000  0.50000000  0.82789000  1.0
  Sc  Sc4  1  0.22357000  0.00000000  0.87019000  1.0
  Sc  Sc5  1  0.25000000  0.00000000  0.04363000  1.0
  Sc  Sc6  1  0.75000000  0.50000000  0.13089000  1.0
  Sc  Sc7  1  0.75850000  0.50000000  0.94884500  1.0
  In  In8  1  0.24948500  0.50000000  0.95485000  1.0
  In  In9  1  0.25000000  0.50000000  0.13089000  1.0
  In  In10  1  0.75000000  0.00000000  0.04363000  1.0
  In  In11  1  0.75027500  0.00000000  0.86518000  1.0
  Ag  Ag12  1  0.00000000  0.00000000  0.13089000  1.0
  Ag  Ag13  1  0.48601000  0.50000000  0.86534000  1.0
  Ag  Ag14  1  0.50000000  0.50000000  0.04363000  1.0
  Ag  Ag15  1  0.99811000  0.00000000  0.95812000  1.0
