# generated using pymatgen
data_Mn8Co16Sb8CO
_symmetry_space_group_name_H-M   'P 1'
_cell_length_a   6.03986000
_cell_length_b   8.54165000
_cell_length_c   26.40620000
_cell_angle_alpha   90.00000000
_cell_angle_beta   90.00000000
_cell_angle_gamma   90.00000000
_symmetry_Int_Tables_number   1
_chemical_formula_structural   Mn8Co16Sb8CO
_chemical_formula_sum   'Mn8 Co16 Sb8 C1 O1'
_cell_volume   1362.30563276
_cell_formula_units_Z   1
loop_
 _symmetry_equiv_pos_site_id
 _symmetry_equiv_pos_as_xyz
  1  'x, y, z'
loop_
 _atom_site_type_symbol
 _atom_site_label
 _atom_site_symmetry_multiplicity
 _atom_site_fract_x
 _atom_site_fract_y
 _atom_site_fract_z
 _atom_site_occupancy
  Mn  Mn0  1  0.00000000  0.75002000  0.87870000  1.0
  Mn  Mn1  1  0.50000000  0.00000000  0.95957000  1.0
  Mn  Mn2  1  0.50000000  0.50000000  0.95957000  1.0
  Mn  Mn3  1  0.00000000  0.24998000  0.87870000  1.0
  Mn  Mn4  1  0.00000000  0.25026000  0.03937000  1.0
  Mn  Mn5  1  0.50000000  0.50000000  0.12069000  1.0
  Mn  Mn6  1  0.50000000  0.00000000  0.12099000  1.0
  Mn  Mn7  1  0.00000000  0.74974000  0.03937000  1.0
  Co  Co8  1  0.24997000  0.75002000  0.95957000  1.0
  Co  Co9  1  0.75003000  0.24998000  0.95957000  1.0
  Co  Co10  1  0.75003000  0.75002000  0.95957000  1.0
  Co  Co11  1  0.24997000  0.24998000  0.95957000  1.0
  Co  Co12  1  0.74997000  0.50000000  0.87870000  1.0
  Co  Co13  1  0.24997000  0.00000000  0.87870000  1.0
  Co  Co14  1  0.25003000  0.50000000  0.87870000  1.0
  Co  Co15  1  0.75003000  0.00000000  0.87870000  1.0
  Co  Co16  1  0.23972000  0.25019000  0.11496000  1.0
  Co  Co17  1  0.76028000  0.74981000  0.11496000  1.0
  Co  Co18  1  0.76028000  0.25019000  0.11496000  1.0
  Co  Co19  1  0.23972000  0.74981000  0.11496000  1.0
  Co  Co20  1  0.75553000  0.00000000  0.04068000  1.0
  Co  Co21  1  0.24481000  0.50000000  0.04062000  1.0
  Co  Co22  1  0.24447000  0.00000000  0.04068000  1.0
  Co  Co23  1  0.75519000  0.50000000  0.04062000  1.0
  Sb  Sb24  1  0.00000000  0.50000000  0.95957000  1.0
  Sb  Sb25  1  0.50000000  0.75002000  0.87870000  1.0
  Sb  Sb26  1  0.00000000  0.00000000  0.95957000  1.0
  Sb  Sb27  1  0.50000000  0.24998000  0.87870000  1.0
  Sb  Sb28  1  0.00000000  0.00000000  0.12829000  1.0
  Sb  Sb29  1  0.50000000  0.24983000  0.04006000  1.0
  Sb  Sb30  1  0.00000000  0.50000000  0.12852000  1.0
  Sb  Sb31  1  0.50000000  0.75017000  0.04006000  1.0
  C  C32  1  0.00000000  0.00000000  0.28119000  1.0
  O  O33  1  0.00000000  0.00000000  0.32416000  1.0
