# generated using pymatgen
data_Li4Sc4In4Ag4C
_symmetry_space_group_name_H-M   'P 1'
_cell_length_a   6.68683000
_cell_length_b   6.68683000
_cell_length_c   25.01510000
_cell_angle_alpha   90.00000000
_cell_angle_beta   90.00000000
_cell_angle_gamma   90.00000000
_symmetry_Int_Tables_number   1
_chemical_formula_structural   Li4Sc4In4Ag4C
_chemical_formula_sum   'Li4 Sc4 In4 Ag4 C1'
_cell_volume   1118.51756302
_cell_formula_units_Z   1
loop_
 _symmetry_equiv_pos_site_id
 _symmetry_equiv_pos_as_xyz
  1  'x, y, z'
loop_
 _atom_site_type_symbol
 _atom_site_label
 _atom_site_symmetry_multiplicity
 _atom_site_fract_x
 _atom_site_fract_y
 _atom_site_fract_z
 _atom_site_occupancy
  Li  Li0  1  0.47483000  0.97355000  0.86868000  1
  Li  Li1  1  0.00000000  0.00000000  0.03341000  1
  Li  Li2  1  0.50000000  0.50000000  0.03341000  1
  Li  Li3  1  0.02645000  0.52517000  0.86868000  1
  Sc  Sc4  1  0.25006000  0.24984000  0.96322000  1
  Sc  Sc5  1  0.75000000  0.25000000  0.10024000  1
  Sc  Sc6  1  0.25000000  0.75000000  0.10024000  1
  Sc  Sc7  1  0.75016000  0.74994000  0.96322000  1
  In  In8  1  0.25021000  0.74979000  0.97136000  1
  In  In9  1  0.75000000  0.75000000  0.10024000  1
  In  In10  1  0.25000000  0.25000000  0.10024000  1
  In  In11  1  0.75036500  0.24963500  0.94943000  1
  Ag  Ag12  1  0.02220500  0.97779500  0.89230000  1
  Ag  Ag13  1  0.50000000  0.00000000  0.03341000  1
  Ag  Ag14  1  0.00000000  0.50000000  0.03341000  1
  Ag  Ag15  1  0.47894000  0.52106000  0.89240000  1
  C  C16  1  0.25077000  0.74923000  0.87655000  1
