# generated using pymatgen
data_Li16In8Au8CO
_symmetry_space_group_name_H-M   'P 1'
_cell_length_a   9.34782000
_cell_length_b   6.60991000
_cell_length_c   27.01090000
_cell_angle_alpha   90.00000000
_cell_angle_beta   90.00000000
_cell_angle_gamma   90.00000000
_symmetry_Int_Tables_number   1
_chemical_formula_structural   Li16In8Au8CO
_chemical_formula_sum   'Li16 In8 Au8 C1 O1'
_cell_volume   1668.95621211
_cell_formula_units_Z   1
loop_
 _symmetry_equiv_pos_site_id
 _symmetry_equiv_pos_as_xyz
  1  'x, y, z'
loop_
 _atom_site_type_symbol
 _atom_site_label
 _atom_site_symmetry_multiplicity
 _atom_site_fract_x
 _atom_site_fract_y
 _atom_site_fract_z
 _atom_site_occupancy
  Li  Li0  1  0.50000000  1.00000000  0.04326000  1.0
  Li  Li1  1  0.75000000  0.50000000  0.12978000  1.0
  Li  Li2  1  0.00000000  0.00000000  0.04326000  1.0
  Li  Li3  1  0.25000000  0.50000000  0.12978000  1.0
  Li  Li4  1  0.00000000  0.25000000  0.12978000  1.0
  Li  Li5  1  0.50000000  0.25000000  0.12978000  1.0
  Li  Li6  1  0.25000000  0.75000000  0.04326000  1.0
  Li  Li7  1  0.75000000  0.75000000  0.04326000  1.0
  Li  Li8  1  0.00000000  0.01721000  0.87245000  1.0
  Li  Li9  1  0.24351000  0.50452000  0.96399000  1.0
  Li  Li10  1  0.50000000  0.01348000  0.87253000  1.0
  Li  Li11  1  0.75649000  0.50452000  0.96399000  1.0
  Li  Li12  1  0.50000000  0.28662000  0.94988000  1.0
  Li  Li13  1  0.00000000  0.24945000  0.95722000  1.0
  Li  Li14  1  0.74042000  0.71334000  0.87749000  1.0
  Li  Li15  1  0.25958000  0.71334000  0.87749000  1.0
  In  In16  1  0.75000000  0.00000000  0.12978000  1.0
  In  In17  1  0.00000000  0.50000000  0.04326000  1.0
  In  In18  1  0.50000000  0.50000000  0.04326000  1.0
  In  In19  1  0.25000000  0.00000000  0.12978000  1.0
  In  In20  1  0.25959000  0.99242000  0.95866000  1.0
  In  In21  1  0.50000000  0.48039000  0.84635000  1.0
  In  In22  1  0.00000000  0.49512000  0.86243000  1.0
  In  In23  1  0.74041000  0.99242000  0.95866000  1.0
  Au  Au24  1  0.75000000  0.25000000  0.04326000  1.0
  Au  Au25  1  0.25000000  0.25000000  0.04326000  1.0
  Au  Au26  1  0.50000000  0.75000000  0.12978000  1.0
  Au  Au27  1  0.00000000  0.75000000  0.12978000  1.0
  Au  Au28  1  0.25257000  0.27609000  0.88117000  1.0
  Au  Au29  1  0.74743000  0.27609000  0.88117000  1.0
  Au  Au30  1  0.00000000  0.74822000  0.95254000  1.0
  Au  Au31  1  0.50000000  0.71734000  0.94667000  1.0
  C  C32  1  0.00000000  0.61742000  0.73559000  1.0
  O  O33  1  0.00000000  0.47180000  0.71318000  1.0
