# generated using pymatgen
data_Li16In8Au8CO
_symmetry_space_group_name_H-M   Pm
_cell_length_a   6.60991000
_cell_length_b   9.34782000
_cell_length_c   27.01090000
_cell_angle_alpha   90.00000000
_cell_angle_beta   90.00000000
_cell_angle_gamma   90.00000000
_symmetry_Int_Tables_number   6
_chemical_formula_structural   Li16In8Au8CO
_chemical_formula_sum   'Li16 In8 Au8 C1 O1'
_cell_volume   1668.95621211
_cell_formula_units_Z   1
loop_
 _symmetry_equiv_pos_site_id
 _symmetry_equiv_pos_as_xyz
  1  'x, y, z'
  2  'x, -y, z'
loop_
 _atom_site_type_symbol
 _atom_site_label
 _atom_site_symmetry_multiplicity
 _atom_site_fract_x
 _atom_site_fract_y
 _atom_site_fract_z
 _atom_site_occupancy
  Li  Li0  2  0.50000000  0.25000000  0.87022000  1.0
  Li  Li1  2  0.50452000  0.24351000  0.03601000  1.0
  Li  Li2  2  0.71334000  0.25958000  0.12251000  1.0
  Li  Li3  2  0.75000000  0.25000000  0.95674000  1.0
  Li  Li4  1  -0.00000000  0.50000000  0.95674000  1.0
  Li  Li5  1  0.00000000  0.00000000  0.95674000  1.0
  Li  Li6  1  0.01348000  0.50000000  0.12747000  1.0
  Li  Li7  1  0.01721000  0.00000000  0.12755000  1.0
  Li  Li8  1  0.24945000  0.00000000  0.04278000  1.0
  Li  Li9  1  0.25000000  0.00000000  0.87022000  1.0
  Li  Li10  1  0.25000000  0.50000000  0.87022000  1.0
  Li  Li11  1  0.28662000  0.50000000  0.05012000  1.0
  In  In12  2  0.00000000  0.25000000  0.87022000  1.0
  In  In13  2  0.99242000  0.25959000  0.04134000  1.0
  In  In14  1  0.48039000  0.50000000  0.15365000  1.0
  In  In15  1  0.49512000  0.00000000  0.13757000  1.0
  In  In16  1  0.50000000  0.00000000  0.95674000  1.0
  In  In17  1  0.50000000  0.50000000  0.95674000  1.0
  Au  Au18  2  0.25000000  0.25000000  0.95674000  1.0
  Au  Au19  2  0.27609000  0.25257000  0.11883000  1.0
  Au  Au20  1  0.71734000  0.50000000  0.05333000  1.0
  Au  Au21  1  0.74822000  0.00000000  0.04746000  1.0
  Au  Au22  1  0.75000000  0.00000000  0.87022000  1.0
  Au  Au23  1  0.75000000  0.50000000  0.87022000  1.0
  C  C24  1  0.61742000  0.00000000  0.26441000  1.0
  O  O25  1  0.47180000  0.00000000  0.28682000  1.0
