data_image0
_chemical_formula_structural       Sc4Al4Pd8
_chemical_formula_sum              "Sc4 Al4 Pd8"
_cell_length_a       6.41477
_cell_length_b       6.41477
_cell_length_c       24.8111
_cell_angle_alpha    90
_cell_angle_beta     90
_cell_angle_gamma    90

_space_group_name_H-M_alt    "P 1"
_space_group_IT_number       1

loop_
  _space_group_symop_operation_xyz
  'x, y, z'

loop_
  _atom_site_type_symbol
  _atom_site_label
  _atom_site_symmetry_multiplicity
  _atom_site_fract_x
  _atom_site_fract_y
  _atom_site_fract_z
  _atom_site_occupancy
  Sc  Sc1       1.0  0.99994  0.99975  0.10082  1.0000
  Sc  Sc2       1.0  0.49977  0.50000  0.10065  1.0000
  Sc  Sc3       1.0  0.50000  0.00000  0.96768  1.0000
  Sc  Sc4       1.0  0.00000  0.50000  0.96768  1.0000
  Al  Al1       1.0  0.00000  0.00000  0.96768  1.0000
  Al  Al2       1.0  0.49998  0.00014  0.09213  1.0000
  Al  Al3       1.0  0.99991  0.50002  0.09209  1.0000
  Al  Al4       1.0  0.50000  0.50000  0.96768  1.0000
  Pd  Pd1       1.0  0.24995  0.24992  0.03675  1.0000
  Pd  Pd2       1.0  0.75000  0.75000  0.90305  1.0000
  Pd  Pd3       1.0  0.74986  0.24999  0.03676  1.0000
  Pd  Pd4       1.0  0.25000  0.75000  0.90305  1.0000
  Pd  Pd5       1.0  0.74974  0.74996  0.03675  1.0000
  Pd  Pd6       1.0  0.25000  0.25000  0.90305  1.0000
  Pd  Pd7       1.0  0.25007  0.74996  0.03677  1.0000
  Pd  Pd8       1.0  0.75000  0.25000  0.90305  1.0000
