# generated using pymatgen
data_ScAlPd2
_symmetry_space_group_name_H-M   'P 1'
_cell_length_a   6.41477000
_cell_length_b   6.41477000
_cell_length_c   24.81110000
_cell_angle_alpha   90.00000000
_cell_angle_beta   90.00000000
_cell_angle_gamma   90.00000000
_symmetry_Int_Tables_number   1
_chemical_formula_structural   ScAlPd2
_chemical_formula_sum   'Sc4 Al4 Pd8'
_cell_volume   1020.95875594
_cell_formula_units_Z   4
loop_
 _symmetry_equiv_pos_site_id
 _symmetry_equiv_pos_as_xyz
  1  'x, y, z'
loop_
 _atom_site_type_symbol
 _atom_site_label
 _atom_site_symmetry_multiplicity
 _atom_site_fract_x
 _atom_site_fract_y
 _atom_site_fract_z
 _atom_site_occupancy
  Sc  Sc0  1  0.99994000  0.99975000  0.10082000  1.0
  Sc  Sc1  1  0.49977000  0.50000000  0.10065000  1.0
  Sc  Sc2  1  0.50000000  0.00000000  0.96768000  1.0
  Sc  Sc3  1  0.00000000  0.50000000  0.96768000  1.0
  Al  Al4  1  0.00000000  0.00000000  0.96768000  1.0
  Al  Al5  1  0.49998000  0.00014000  0.09213000  1.0
  Al  Al6  1  0.99991000  0.50002000  0.09209000  1.0
  Al  Al7  1  0.50000000  0.50000000  0.96768000  1.0
  Pd  Pd8  1  0.24995000  0.24992000  0.03675000  1.0
  Pd  Pd9  1  0.75000000  0.75000000  0.90305000  1.0
  Pd  Pd10  1  0.74986000  0.24999000  0.03676000  1.0
  Pd  Pd11  1  0.25000000  0.75000000  0.90305000  1.0
  Pd  Pd12  1  0.74974000  0.74996000  0.03675000  1.0
  Pd  Pd13  1  0.25000000  0.25000000  0.90305000  1.0
  Pd  Pd14  1  0.25007000  0.74996000  0.03677000  1.0
  Pd  Pd15  1  0.75000000  0.25000000  0.90305000  1.0
