data_image0
_chemical_formula_structural       Li4In8Pt4CO
_chemical_formula_sum              "Li4 In8 Pt4 C1 O1"
_cell_length_a       6.69031
_cell_length_b       6.69031
_cell_length_c       25.0177
_cell_angle_alpha    90
_cell_angle_beta     90
_cell_angle_gamma    90

_space_group_name_H-M_alt    "P 1"
_space_group_IT_number       1

loop_
  _space_group_symop_operation_xyz
  'x, y, z'

loop_
  _atom_site_type_symbol
  _atom_site_label
  _atom_site_symmetry_multiplicity
  _atom_site_fract_x
  _atom_site_fract_y
  _atom_site_fract_z
  _atom_site_occupancy
  Li  Li1       1.0  0.00000  0.00000  0.89972  1.0000
  Li  Li2       1.0  0.50000  0.50000  0.89972  1.0000
  Li  Li3       1.0  0.52061  0.98117  0.03722  1.0000
  Li  Li4       1.0  0.98117  0.52064  0.03722  1.0000
  In  In1       1.0  0.25000  0.25000  0.96657  1.0000
  In  In2       1.0  0.75269  0.75269  0.11749  1.0000
  In  In3       1.0  0.75000  0.25000  0.96657  1.0000
  In  In4       1.0  0.24986  0.75107  0.10797  1.0000
  In  In5       1.0  0.75000  0.75000  0.96657  1.0000
  In  In6       1.0  0.24716  0.24717  0.09555  1.0000
  In  In7       1.0  0.25000  0.75000  0.96657  1.0000
  In  In8       1.0  0.75107  0.24986  0.10798  1.0000
  Pt  Pt1       1.0  0.99448  0.99448  0.02770  1.0000
  Pt  Pt2       1.0  0.50000  0.00000  0.89972  1.0000
  Pt  Pt3       1.0  0.00000  0.50000  0.89972  1.0000
  Pt  Pt4       1.0  0.50471  0.50470  0.03030  1.0000
  C   C1        1.0  0.28181  0.28169  0.22709  1.0000
  O   O1        1.0  0.23132  0.23132  0.26838  1.0000
