# generated using pymatgen
data_Mn8Pt24CO
_symmetry_space_group_name_H-M   Pmm2
_cell_length_a   7.92107000
_cell_length_b   7.92107000
_cell_length_c   25.94080000
_cell_angle_alpha   90.00000000
_cell_angle_beta   90.00000000
_cell_angle_gamma   90.00000000
_symmetry_Int_Tables_number   25
_chemical_formula_structural   Mn8Pt24CO
_chemical_formula_sum   'Mn8 Pt24 C1 O1'
_cell_volume   1627.61269225
_cell_formula_units_Z   1
loop_
 _symmetry_equiv_pos_site_id
 _symmetry_equiv_pos_as_xyz
  1  'x, y, z'
  2  '-x, -y, z'
  3  '-x, y, z'
  4  'x, -y, z'
loop_
 _atom_site_type_symbol
 _atom_site_label
 _atom_site_symmetry_multiplicity
 _atom_site_fract_x
 _atom_site_fract_y
 _atom_site_fract_z
 _atom_site_occupancy
  Mn  Mn0  2  0.25000000  0.00000000  0.03817000  1.0
  Mn  Mn1  2  0.25000000  0.00000000  0.88549000  1.0
  Mn  Mn2  2  0.25000000  0.50000000  0.03817000  1.0
  Mn  Mn3  2  0.25000000  0.50000000  0.88549000  1.0
  Pt  Pt4  4  0.25000000  0.25000000  0.11451000  1.0
  Pt  Pt5  4  0.25000000  0.25000000  0.96183000  1.0
  Pt  Pt6  2  0.00000000  0.25000000  0.03817000  1.0
  Pt  Pt7  2  0.00000000  0.25000000  0.88549000  1.0
  Pt  Pt8  2  0.50000000  0.25000000  0.03817000  1.0
  Pt  Pt9  2  0.50000000  0.25000000  0.88549000  1.0
  Pt  Pt10  1  0.00000000  0.00000000  0.11451000  1.0
  Pt  Pt11  1  0.00000000  0.00000000  0.96183000  1.0
  Pt  Pt12  1  0.00000000  0.50000000  0.11451000  1.0
  Pt  Pt13  1  0.00000000  0.50000000  0.96183000  1.0
  Pt  Pt14  1  0.50000000  0.00000000  0.11451000  1.0
  Pt  Pt15  1  0.50000000  0.00000000  0.96183000  1.0
  Pt  Pt16  1  0.50000000  0.50000000  0.11451000  1.0
  Pt  Pt17  1  0.50000000  0.50000000  0.96183000  1.0
  C  C18  1  0.00000000  0.00000000  0.18775000  1.0
  O  O19  1  0.00000000  0.00000000  0.23208000  1.0
