# generated using pymatgen
data_Sc16Ag16CO
_symmetry_space_group_name_H-M   'P 1'
_cell_length_a   9.80104000
_cell_length_b   6.93038000
_cell_length_c   27.35080000
_cell_angle_alpha   90.00000000
_cell_angle_beta   90.00000000
_cell_angle_gamma   90.00000000
_symmetry_Int_Tables_number   1
_chemical_formula_structural   Sc16Ag16CO
_chemical_formula_sum   'Sc16 Ag16 C1 O1'
_cell_volume   1857.80121907
_cell_formula_units_Z   1
loop_
 _symmetry_equiv_pos_site_id
 _symmetry_equiv_pos_as_xyz
  1  'x, y, z'
loop_
 _atom_site_type_symbol
 _atom_site_label
 _atom_site_symmetry_multiplicity
 _atom_site_fract_x
 _atom_site_fract_y
 _atom_site_fract_z
 _atom_site_occupancy
  Sc  Sc0  1  0.25000000  0.75000000  0.13438000  1.0
  Sc  Sc1  1  0.00000000  0.75000000  0.04479000  1.0
  Sc  Sc2  1  0.25001000  0.75266000  0.95554000  1.0
  Sc  Sc3  1  0.99803000  0.74637000  0.86817000  1.0
  Sc  Sc4  1  0.75000000  0.75000000  0.13438000  1.0
  Sc  Sc5  1  0.50000000  0.75000000  0.04479000  1.0
  Sc  Sc6  1  0.74999000  0.74866000  0.95531000  1.0
  Sc  Sc7  1  0.50197000  0.74636000  0.86817000  1.0
  Sc  Sc8  1  0.25000000  0.25000000  0.13438000  1.0
  Sc  Sc9  1  0.00000000  0.25000000  0.04479000  1.0
  Sc  Sc10  1  0.25001000  0.24734000  0.95554000  1.0
  Sc  Sc11  1  0.99803000  0.25363000  0.86817000  1.0
  Sc  Sc12  1  0.75000000  0.25000000  0.13438000  1.0
  Sc  Sc13  1  0.50000000  0.25000000  0.04479000  1.0
  Sc  Sc14  1  0.74999000  0.25134000  0.95531000  1.0
  Sc  Sc15  1  0.50197000  0.25364000  0.86817000  1.0
  Ag  Ag16  1  0.00000000  0.00000000  0.13438000  1.0
  Ag  Ag17  1  0.25000000  0.00000000  0.04479000  1.0
  Ag  Ag18  1  0.99768000  0.00000000  0.95512000  1.0
  Ag  Ag19  1  0.24996000  0.00000000  0.86778000  1.0
  Ag  Ag20  1  0.50000000  0.00000000  0.13438000  1.0
  Ag  Ag21  1  0.75000000  0.00000000  0.04479000  1.0
  Ag  Ag22  1  0.50233000  0.00000000  0.95514000  1.0
  Ag  Ag23  1  0.75004000  0.00000000  0.87083000  1.0
  Ag  Ag24  1  0.00000000  0.50000000  0.13438000  1.0
  Ag  Ag25  1  0.25000000  0.50000000  0.04479000  1.0
  Ag  Ag26  1  0.00156000  0.50000000  0.95582000  1.0
  Ag  Ag27  1  0.24996000  0.50000000  0.87128000  1.0
  Ag  Ag28  1  0.50000000  0.50000000  0.13438000  1.0
  Ag  Ag29  1  0.75000000  0.50000000  0.04479000  1.0
  Ag  Ag30  1  0.49843000  0.50000000  0.95583000  1.0
  Ag  Ag31  1  0.75004000  0.50000000  0.87017000  1.0
  C  C32  1  0.24996000  0.00000000  0.78791000  1.0
  O  O33  1  0.25000000  0.00000000  0.74568000  1.0
