# generated using pymatgen
data_Sc16Ag16CO
_symmetry_space_group_name_H-M   Pm
_cell_length_a   9.80104000
_cell_length_b   6.93038000
_cell_length_c   27.35080000
_cell_angle_alpha   90.00000000
_cell_angle_beta   90.00000000
_cell_angle_gamma   90.00000000
_symmetry_Int_Tables_number   6
_chemical_formula_structural   Sc16Ag16CO
_chemical_formula_sum   'Sc16 Ag16 C1 O1'
_cell_volume   1857.80121907
_cell_formula_units_Z   1
loop_
 _symmetry_equiv_pos_site_id
 _symmetry_equiv_pos_as_xyz
  1  'x, y, z'
  2  'x, -y, z'
loop_
 _atom_site_type_symbol
 _atom_site_label
 _atom_site_symmetry_multiplicity
 _atom_site_fract_x
 _atom_site_fract_y
 _atom_site_fract_z
 _atom_site_occupancy
  Sc  Sc0  2  0.00000000  0.25000000  0.95521000  1.0
  Sc  Sc1  2  0.25000000  0.25000000  0.86562000  1.0
  Sc  Sc2  2  0.25001000  0.24734000  0.04446000  1.0
  Sc  Sc3  2  0.50000000  0.25000000  0.95521000  1.0
  Sc  Sc4  2  0.50197000  0.25364000  0.13183000  1.0
  Sc  Sc5  2  0.74999000  0.25134000  0.04469000  1.0
  Sc  Sc6  2  0.75000000  0.25000000  0.86562000  1.0
  Sc  Sc7  2  0.99803000  0.25363000  0.13183000  1.0
  Ag  Ag8  1  0.00000000  0.00000000  0.86562000  1.0
  Ag  Ag9  1  0.00000000  0.50000000  0.86562000  1.0
  Ag  Ag10  1  0.00156000  0.50000000  0.04418000  1.0
  Ag  Ag11  1  0.24996000  0.00000000  0.13222000  1.0
  Ag  Ag12  1  0.24996000  0.50000000  0.12872000  1.0
  Ag  Ag13  1  0.25000000  0.00000000  0.95521000  1.0
  Ag  Ag14  1  0.25000000  0.50000000  0.95521000  1.0
  Ag  Ag15  1  0.49843000  0.50000000  0.04417000  1.0
  Ag  Ag16  1  0.50000000  0.00000000  0.86562000  1.0
  Ag  Ag17  1  0.50000000  0.50000000  0.86562000  1.0
  Ag  Ag18  1  0.50233000  0.00000000  0.04486000  1.0
  Ag  Ag19  1  0.75000000  0.00000000  0.95521000  1.0
  Ag  Ag20  1  0.75000000  0.50000000  0.95521000  1.0
  Ag  Ag21  1  0.75004000  0.00000000  0.12917000  1.0
  Ag  Ag22  1  0.75004000  0.50000000  0.12983000  1.0
  Ag  Ag23  1  0.99768000  0.00000000  0.04488000  1.0
  C  C24  1  0.24996000  0.00000000  0.21209000  1.0
  O  O25  1  0.25000000  0.00000000  0.25432000  1.0
