# generated using pymatgen
data_V8Ga8Ni16CO
_symmetry_space_group_name_H-M   'P 1'
_cell_length_a   5.82350000
_cell_length_b   8.23567000
_cell_length_c   26.17680000
_cell_angle_alpha   90.00000000
_cell_angle_beta   90.00000000
_cell_angle_gamma   90.00000000
_symmetry_Int_Tables_number   1
_chemical_formula_structural   V8Ga8Ni16CO
_chemical_formula_sum   'V8 Ga8 Ni16 C1 O1'
_cell_volume   1255.45043338
_cell_formula_units_Z   1
loop_
 _symmetry_equiv_pos_site_id
 _symmetry_equiv_pos_as_xyz
  1  'x, y, z'
loop_
 _atom_site_type_symbol
 _atom_site_label
 _atom_site_symmetry_multiplicity
 _atom_site_fract_x
 _atom_site_fract_y
 _atom_site_fract_z
 _atom_site_occupancy
  V  V0  1  0.00000000  0.00000000  0.88202000  1.0
  V  V1  1  0.50000000  0.25000000  0.96067000  1.0
  V  V2  1  0.50000000  0.75000000  0.96067000  1.0
  V  V3  1  0.00000000  0.50000000  0.88202000  1.0
  V  V4  1  0.99305000  0.49998000  0.03984000  1.0
  V  V5  1  0.49132000  0.75204000  0.11577000  1.0
  V  V6  1  0.49139000  0.24811000  0.11566000  1.0
  V  V7  1  0.00304000  0.99990000  0.04174000  1.0
  Ga  Ga8  1  0.00000000  0.75000000  0.96067000  1.0
  Ga  Ga9  1  0.50000000  0.00000000  0.88202000  1.0
  Ga  Ga10  1  0.00000000  0.25000000  0.96067000  1.0
  Ga  Ga11  1  0.50000000  0.50000000  0.88202000  1.0
  Ga  Ga12  1  0.99279000  0.25557000  0.12163000  1.0
  Ga  Ga13  1  0.49946000  0.49992000  0.03646000  1.0
  Ga  Ga14  1  0.99288000  0.74448000  0.12171000  1.0
  Ga  Ga15  1  0.48665000  0.99991000  0.04052000  1.0
  Ni  Ni16  1  0.25000000  0.00000000  0.96067000  1.0
  Ni  Ni17  1  0.75000000  0.50000000  0.96067000  1.0
  Ni  Ni18  1  0.75000000  0.00000000  0.96067000  1.0
  Ni  Ni19  1  0.25000000  0.50000000  0.96067000  1.0
  Ni  Ni20  1  0.75000000  0.75000000  0.88202000  1.0
  Ni  Ni21  1  0.25000000  0.25000000  0.88202000  1.0
  Ni  Ni22  1  0.25000000  0.75000000  0.88202000  1.0
  Ni  Ni23  1  0.75000000  0.25000000  0.88202000  1.0
  Ni  Ni24  1  0.26020000  0.50002000  0.11228000  1.0
  Ni  Ni25  1  0.74759000  0.00005000  0.11314000  1.0
  Ni  Ni26  1  0.72525000  0.50014000  0.11395000  1.0
  Ni  Ni27  1  0.23782000  0.99999000  0.12915000  1.0
  Ni  Ni28  1  0.74819000  0.24696000  0.04006000  1.0
  Ni  Ni29  1  0.24420000  0.74708000  0.04058000  1.0
  Ni  Ni30  1  0.24410000  0.25274000  0.04055000  1.0
  Ni  Ni31  1  0.74817000  0.75281000  0.04016000  1.0
  C  C32  1  0.31405000  0.99997000  0.19446000  1.0
  O  O33  1  0.34350000  0.00013000  0.23830000  1.0
