# generated using pymatgen
data_Y8Al8CO
_symmetry_space_group_name_H-M   'P 1'
_cell_length_a   7.18582000
_cell_length_b   7.18582000
_cell_length_c   25.38940000
_cell_angle_alpha   90.00000000
_cell_angle_beta   90.00000000
_cell_angle_gamma   90.00000000
_symmetry_Int_Tables_number   1
_chemical_formula_structural   Y8Al8CO
_chemical_formula_sum   'Y8 Al8 C1 O1'
_cell_volume   1311.00728874
_cell_formula_units_Z   1
loop_
 _symmetry_equiv_pos_site_id
 _symmetry_equiv_pos_as_xyz
  1  'x, y, z'
loop_
 _atom_site_type_symbol
 _atom_site_label
 _atom_site_symmetry_multiplicity
 _atom_site_fract_x
 _atom_site_fract_y
 _atom_site_fract_z
 _atom_site_occupancy
  Y  Y0  1  0.00000000  0.00000000  0.94572000  1.0
  Y  Y1  1  0.00000000  0.00000000  0.08664000  1.0
  Y  Y2  1  0.00000000  0.50000000  0.94572000  1.0
  Y  Y3  1  0.00000000  0.50000000  0.09030000  1.0
  Y  Y4  1  0.50000000  0.00000000  0.94572000  1.0
  Y  Y5  1  0.50000000  0.00000000  0.09030000  1.0
  Y  Y6  1  0.50000000  0.50000000  0.94572000  1.0
  Y  Y7  1  0.50000000  0.50000000  0.09108000  1.0
  Al  Al8  1  0.75000000  0.75000000  0.87496000  1.0
  Al  Al9  1  0.74463500  0.74463500  0.02016000  1.0
  Al  Al10  1  0.75000000  0.25000000  0.87496000  1.0
  Al  Al11  1  0.74463500  0.25536500  0.02016000  1.0
  Al  Al12  1  0.25000000  0.75000000  0.87496000  1.0
  Al  Al13  1  0.25536500  0.74463500  0.02016000  1.0
  Al  Al14  1  0.25000000  0.25000000  0.87496000  1.0
  Al  Al15  1  0.25536500  0.25536500  0.02016000  1.0
  C  C16  1  0.00000000  0.00000000  0.18181000  1.0
  O  O17  1  0.00000000  0.00000000  0.22753000  1.0
