data_image0
_chemical_formula_structural       YAlYAlYAlYAlYAlYAlYAlYAlCO
_chemical_formula_sum              "Y8 Al8 C1 O1"
_cell_length_a       7.18582
_cell_length_b       7.18582
_cell_length_c       25.3894
_cell_angle_alpha    90
_cell_angle_beta     90
_cell_angle_gamma    90

_space_group_name_H-M_alt    "P 1"
_space_group_IT_number       1

loop_
  _space_group_symop_operation_xyz
  'x, y, z'

loop_
  _atom_site_type_symbol
  _atom_site_label
  _atom_site_symmetry_multiplicity
  _atom_site_fract_x
  _atom_site_fract_y
  _atom_site_fract_z
  _atom_site_occupancy
  Y   Y1        1.0  0.25000  0.25000  0.94572  1.0000
  Al  Al1       1.0  0.00000  0.00000  0.87496  1.0000
  Y   Y2        1.0  0.25000  0.25000  0.08723  1.0000
  Al  Al2       1.0  0.00000  0.00000  0.01647  1.0000
  Y   Y3        1.0  0.25000  0.75000  0.94572  1.0000
  Al  Al3       1.0  0.00000  0.50000  0.87496  1.0000
  Y   Y4        1.0  0.25000  0.75000  0.08723  1.0000
  Al  Al4       1.0  0.00000  0.50000  0.01647  1.0000
  Y   Y5        1.0  0.75000  0.25000  0.94572  1.0000
  Al  Al5       1.0  0.50000  0.00000  0.87496  1.0000
  Y   Y6        1.0  0.75000  0.25000  0.08723  1.0000
  Al  Al6       1.0  0.50000  0.00000  0.01647  1.0000
  Y   Y7        1.0  0.75000  0.75000  0.94572  1.0000
  Al  Al7       1.0  0.50000  0.50000  0.87496  1.0000
  Y   Y8        1.0  0.75000  0.75000  0.08723  1.0000
  Al  Al8       1.0  0.50000  0.50000  0.01647  1.0000
  C   C1        1.0  0.25000  0.25000  0.16206  1.0000
  O   O1        1.0  0.25000  0.25000  0.20736  1.0000
