# generated using pymatgen
data_Mg4In4Ag8CO
_symmetry_space_group_name_H-M   Cmm2
_cell_length_a   9.68893268
_cell_length_b   9.68893268
_cell_length_c   25.13830000
_cell_angle_alpha   90.00000000
_cell_angle_beta   90.00000000
_cell_angle_gamma   90.00000000
_symmetry_Int_Tables_number   35
_chemical_formula_structural   Mg4In4Ag8CO
_chemical_formula_sum   'Mg8 In8 Ag16 C2 O2'
_cell_volume   2359.86838170
_cell_formula_units_Z   2
loop_
 _symmetry_equiv_pos_site_id
 _symmetry_equiv_pos_as_xyz
  1  'x, y, z'
  2  '-x, -y, z'
  3  '-x, y, z'
  4  'x, -y, z'
  5  'x+1/2, y+1/2, z'
  6  '-x+1/2, -y+1/2, z'
  7  '-x+1/2, y+1/2, z'
  8  'x+1/2, -y+1/2, z'
loop_
 _atom_site_type_symbol
 _atom_site_label
 _atom_site_symmetry_multiplicity
 _atom_site_fract_x
 _atom_site_fract_y
 _atom_site_fract_z
 _atom_site_occupancy
  Mg  Mg0  4  0.00000000  0.25000000  0.89780000  1.0
  Mg  Mg1  4  0.25000000  0.50000000  0.03407000  1.0
  In  In2  4  0.00000000  0.25000000  0.03407000  1.0
  In  In3  4  0.25000000  0.50000000  0.89780000  1.0
  Ag  Ag4  4  0.25000000  0.25000000  0.10220000  1.0
  Ag  Ag5  4  0.25000000  0.25000000  0.96593000  1.0
  Ag  Ag6  2  0.00000000  0.00000000  0.10220000  1.0
  Ag  Ag7  2  0.00000000  0.00000000  0.96593000  1.0
  Ag  Ag8  2  0.00000000  0.50000000  0.10220000  1.0
  Ag  Ag9  2  0.00000000  0.50000000  0.96593000  1.0
  C  C10  2  0.00000000  0.50000000  0.17778000  1.0
  O  O11  2  0.00000000  0.50000000  0.22353000  1.0
