data_image0
_chemical_formula_structural       Li8Mg8Al8Ag8C
_chemical_formula_sum              "Li8 Mg8 Al8 Ag8 C1"
_cell_length_a       6.43596
_cell_length_b       9.10182
_cell_length_c       26.8264
_cell_angle_alpha    90
_cell_angle_beta     90
_cell_angle_gamma    90

_space_group_name_H-M_alt    "P 1"
_space_group_IT_number       1

loop_
  _space_group_symop_operation_xyz
  'x, y, z'

loop_
  _atom_site_type_symbol
  _atom_site_label
  _atom_site_symmetry_multiplicity
  _atom_site_fract_x
  _atom_site_fract_y
  _atom_site_fract_z
  _atom_site_occupancy
  Li  Li1       1.0  0.00000  0.25000  0.95759  1.0000
  Li  Li2       1.0  0.00000  0.75000  0.95759  1.0000
  Li  Li3       1.0  0.50000  0.50000  0.87277  1.0000
  Li  Li4       1.0  0.50000  0.00000  0.87277  1.0000
  Li  Li5       1.0  0.01131  0.75000  0.15011  1.0000
  Li  Li6       1.0  0.02345  0.25000  0.16249  1.0000
  Li  Li7       1.0  0.50127  0.99967  0.04494  1.0000
  Li  Li8       1.0  0.50127  0.50033  0.04494  1.0000
  Mg  Mg1       1.0  0.75000  0.00000  0.95759  1.0000
  Mg  Mg2       1.0  0.75000  0.50000  0.95759  1.0000
  Mg  Mg3       1.0  0.25000  0.25000  0.87277  1.0000
  Mg  Mg4       1.0  0.25000  0.75000  0.87277  1.0000
  Mg  Mg5       1.0  0.75699  0.48668  0.13315  1.0000
  Mg  Mg6       1.0  0.75699  0.01332  0.13315  1.0000
  Mg  Mg7       1.0  0.24775  0.75000  0.04609  1.0000
  Mg  Mg8       1.0  0.24052  0.25000  0.04838  1.0000
  Al  Al1       1.0  0.25000  0.00000  0.95759  1.0000
  Al  Al2       1.0  0.25000  0.50000  0.95759  1.0000
  Al  Al3       1.0  0.75000  0.25000  0.87277  1.0000
  Al  Al4       1.0  0.75000  0.75000  0.87277  1.0000
  Al  Al5       1.0  0.23791  0.50832  0.13089  1.0000
  Al  Al6       1.0  0.23791  0.99168  0.13089  1.0000
  Al  Al7       1.0  0.75654  0.75000  0.04763  1.0000
  Al  Al8       1.0  0.77263  0.25000  0.04607  1.0000
  Ag  Ag1       1.0  0.00000  0.00000  0.87277  1.0000
  Ag  Ag2       1.0  0.00000  0.50000  0.87277  1.0000
  Ag  Ag3       1.0  0.50000  0.75000  0.95759  1.0000
  Ag  Ag4       1.0  0.50000  0.25000  0.95759  1.0000
  Ag  Ag5       1.0  0.00483  0.50554  0.03975  1.0000
  Ag  Ag6       1.0  0.00483  0.99447  0.03975  1.0000
  Ag  Ag7       1.0  0.42684  0.25000  0.14095  1.0000
  Ag  Ag8       1.0  0.49545  0.75000  0.12848  1.0000
  C   C1        1.0  0.75571  0.25000  0.11864  1.0000
