# generated using pymatgen
data_Li4Al4Cu4Pd4CO
_symmetry_space_group_name_H-M   Cm
_cell_length_a   8.49706177
_cell_length_b   8.49706177
_cell_length_c   24.50620000
_cell_angle_alpha   90.00000000
_cell_angle_beta   90.00000000
_cell_angle_gamma   90.00000000
_symmetry_Int_Tables_number   8
_chemical_formula_structural   Li4Al4Cu4Pd4CO
_chemical_formula_sum   'Li8 Al8 Cu8 Pd8 C2 O2'
_cell_volume   1769.34908042
_cell_formula_units_Z   2
loop_
 _symmetry_equiv_pos_site_id
 _symmetry_equiv_pos_as_xyz
  1  'x, y, z'
  2  'x, -y, z'
  3  'x+1/2, y+1/2, z'
  4  'x+1/2, -y+1/2, z'
loop_
 _atom_site_type_symbol
 _atom_site_label
 _atom_site_symmetry_multiplicity
 _atom_site_fract_x
 _atom_site_fract_y
 _atom_site_fract_z
 _atom_site_occupancy
  Li  Li0  4  0.25000000  0.25000000  0.90806000  1.0
  Li  Li1  2  0.00078000  0.00000000  0.03220000  1.0
  Li  Li2  2  0.49895000  0.00000000  0.03256000  1.0
  Al  Al3  4  0.24998000  0.25007000  0.03228000  1.0
  Al  Al4  2  0.00000000  0.00000000  0.90806000  1.0
  Al  Al5  2  0.00000000  0.50000000  0.90806000  1.0
  Cu  Cu6  4  0.00000000  0.25000000  0.96935000  1.0
  Cu  Cu7  2  0.24949000  0.50000000  0.09338000  1.0
  Cu  Cu8  2  0.25051000  0.00000000  0.09024000  1.0
  Pd  Pd9  4  0.49999500  0.24999500  0.08965000  1.0
  Pd  Pd10  2  0.25000000  0.00000000  0.96935000  1.0
  Pd  Pd11  2  0.25000000  0.50000000  0.96935000  1.0
  C  C12  2  0.25030000  0.50000000  0.17010000  1.0
  O  O13  2  0.25012000  0.50000000  0.21687000  1.0
