data_image0
_chemical_formula_structural       Li4Zn4Ag4Ge4CO
_chemical_formula_sum              "Li4 Zn4 Ag4 Ge4 C1 O1"
_cell_length_a       6.35563
_cell_length_b       6.35563
_cell_length_c       24.7667
_cell_angle_alpha    90
_cell_angle_beta     90
_cell_angle_gamma    90

_space_group_name_H-M_alt    "P 1"
_space_group_IT_number       1

loop_
  _space_group_symop_operation_xyz
  'x, y, z'

loop_
  _atom_site_type_symbol
  _atom_site_label
  _atom_site_symmetry_multiplicity
  _atom_site_fract_x
  _atom_site_fract_y
  _atom_site_fract_z
  _atom_site_occupancy
  Li  Li1       1.0  0.75000  0.25000  0.96792  1.0000
  Li  Li2       1.0  0.75000  0.75000  0.10495  1.0000
  Li  Li3       1.0  0.25000  0.24999  0.10598  1.0000
  Li  Li4       1.0  0.25000  0.75000  0.96792  1.0000
  Zn  Zn1       1.0  0.25000  0.25000  0.96792  1.0000
  Zn  Zn2       1.0  0.25007  0.75003  0.09399  1.0000
  Zn  Zn3       1.0  0.74998  0.25000  0.09394  1.0000
  Zn  Zn4       1.0  0.75000  0.75000  0.96792  1.0000
  Ag  Ag1       1.0  0.00000  0.00000  0.90377  1.0000
  Ag  Ag2       1.0  0.00061  0.49941  0.03183  1.0000
  Ag  Ag3       1.0  0.49939  0.00060  0.03183  1.0000
  Ag  Ag4       1.0  0.50000  0.50000  0.90377  1.0000
  Ge  Ge1       1.0  0.00000  0.50000  0.90377  1.0000
  Ge  Ge2       1.0  0.99912  0.99910  0.04364  1.0000
  Ge  Ge3       1.0  0.50088  0.50088  0.04364  1.0000
  Ge  Ge4       1.0  0.50000  0.00000  0.90377  1.0000
  C   C1        1.0  0.25001  0.24999  0.19074  1.0000
  O   O1        1.0  0.25001  0.24999  0.23684  1.0000
