# generated using pymatgen
data_Li4Zn4Ag4Ge4CO
_symmetry_space_group_name_H-M   'P 1'
_cell_length_a   6.35563000
_cell_length_b   6.35563000
_cell_length_c   24.76670000
_cell_angle_alpha   90.00000000
_cell_angle_beta   90.00000000
_cell_angle_gamma   90.00000000
_symmetry_Int_Tables_number   1
_chemical_formula_structural   Li4Zn4Ag4Ge4CO
_chemical_formula_sum   'Li4 Zn4 Ag4 Ge4 C1 O1'
_cell_volume   1000.42688959
_cell_formula_units_Z   1
loop_
 _symmetry_equiv_pos_site_id
 _symmetry_equiv_pos_as_xyz
  1  'x, y, z'
loop_
 _atom_site_type_symbol
 _atom_site_label
 _atom_site_symmetry_multiplicity
 _atom_site_fract_x
 _atom_site_fract_y
 _atom_site_fract_z
 _atom_site_occupancy
  Li  Li0  1  0.50000000  0.00000000  0.03208000  1.0
  Li  Li1  1  0.50000000  0.50000000  0.89505000  1.0
  Li  Li2  1  0.00000000  0.00000000  0.89402000  1.0
  Li  Li3  1  0.00000000  0.50000000  0.03208000  1.0
  Zn  Zn4  1  0.00000000  0.00000000  0.03208000  1.0
  Zn  Zn5  1  0.00000000  0.50000000  0.90601000  1.0
  Zn  Zn6  1  0.50000000  0.00000000  0.90606000  1.0
  Zn  Zn7  1  0.50000000  0.50000000  0.03208000  1.0
  Ag  Ag8  1  0.74999000  0.75001000  0.09623000  1.0
  Ag  Ag9  1  0.75060000  0.24942000  0.96817000  1.0
  Ag  Ag10  1  0.24940000  0.75058000  0.96817000  1.0
  Ag  Ag11  1  0.25001000  0.24999000  0.09623000  1.0
  Ge  Ge12  1  0.74999000  0.25001000  0.09623000  1.0
  Ge  Ge13  1  0.74911000  0.74911000  0.95636000  1.0
  Ge  Ge14  1  0.25089000  0.25089000  0.95636000  1.0
  Ge  Ge15  1  0.25001000  0.74999000  0.09623000  1.0
  C  C16  1  0.00000000  0.00000000  0.80926000  1.0
  O  O17  1  0.00000000  0.00000000  0.76316000  1.0
