data_image0
_chemical_formula_structural       Mg8Sc8Ga8Pd8
_chemical_formula_sum              "Mg8 Sc8 Ga8 Pd8"
_cell_length_a       6.56469
_cell_length_b       9.28388
_cell_length_c       26.9629
_cell_angle_alpha    90
_cell_angle_beta     90
_cell_angle_gamma    90

_space_group_name_H-M_alt    "P 1"
_space_group_IT_number       1

loop_
  _space_group_symop_operation_xyz
  'x, y, z'

loop_
  _atom_site_type_symbol
  _atom_site_label
  _atom_site_symmetry_multiplicity
  _atom_site_fract_x
  _atom_site_fract_y
  _atom_site_fract_z
  _atom_site_occupancy
  Mg  Mg1       1.0  0.25000  0.00000  0.95696  1.0000
  Mg  Mg2       1.0  0.25000  0.50000  0.95696  1.0000
  Mg  Mg3       1.0  0.75000  0.25000  0.87088  1.0000
  Mg  Mg4       1.0  0.75000  0.75000  0.87088  1.0000
  Mg  Mg5       1.0  0.25131  0.50000  0.13228  1.0000
  Mg  Mg6       1.0  0.25133  1.00000  0.13227  1.0000
  Mg  Mg7       1.0  0.74481  0.75000  0.04354  1.0000
  Mg  Mg8       1.0  0.74482  0.25000  0.04354  1.0000
  Sc  Sc1       1.0  0.75000  0.00000  0.95696  1.0000
  Sc  Sc2       1.0  0.75000  0.50000  0.95696  1.0000
  Sc  Sc3       1.0  0.25000  0.25000  0.87088  1.0000
  Sc  Sc4       1.0  0.25000  0.75000  0.87088  1.0000
  Sc  Sc5       1.0  0.74909  0.50000  0.13261  1.0000
  Sc  Sc6       1.0  0.74909  0.00000  0.13261  1.0000
  Sc  Sc7       1.0  0.25124  0.75000  0.04401  1.0000
  Sc  Sc8       1.0  0.25124  0.25000  0.04401  1.0000
  Ga  Ga1       1.0  0.00000  0.00000  0.87088  1.0000
  Ga  Ga2       1.0  0.00000  0.50000  0.87088  1.0000
  Ga  Ga3       1.0  0.50000  0.75000  0.95696  1.0000
  Ga  Ga4       1.0  0.50000  0.25000  0.95696  1.0000
  Ga  Ga5       1.0  0.99398  0.50000  0.04592  1.0000
  Ga  Ga6       1.0  0.99400  1.00000  0.04592  1.0000
  Ga  Ga7       1.0  0.50195  0.25000  0.13544  1.0000
  Ga  Ga8       1.0  0.50196  0.75000  0.13544  1.0000
  Pd  Pd1       1.0  0.00000  0.25000  0.95696  1.0000
  Pd  Pd2       1.0  0.00000  0.75000  0.95696  1.0000
  Pd  Pd3       1.0  0.50000  0.50000  0.87088  1.0000
  Pd  Pd4       1.0  0.50000  0.00000  0.87088  1.0000
  Pd  Pd5       1.0  0.00081  0.75000  0.12268  1.0000
  Pd  Pd6       1.0  0.00082  0.25000  0.12268  1.0000
  Pd  Pd7       1.0  0.50793  1.00000  0.04545  1.0000
  Pd  Pd8       1.0  0.50793  0.49999  0.04545  1.0000
