# generated using pymatgen
data_Nb8Ru24C
_symmetry_space_group_name_H-M   'P 1'
_cell_length_a   7.81108000
_cell_length_b   7.81108000
_cell_length_c   25.85830000
_cell_angle_alpha   90.00000000
_cell_angle_beta   90.00000000
_cell_angle_gamma   90.00000000
_symmetry_Int_Tables_number   1
_chemical_formula_structural   Nb8Ru24C
_chemical_formula_sum   'Nb8 Ru24 C1'
_cell_volume   1577.69170197
_cell_formula_units_Z   1
loop_
 _symmetry_equiv_pos_site_id
 _symmetry_equiv_pos_as_xyz
  1  'x, y, z'
loop_
 _atom_site_type_symbol
 _atom_site_label
 _atom_site_symmetry_multiplicity
 _atom_site_fract_x
 _atom_site_fract_y
 _atom_site_fract_z
 _atom_site_occupancy
  Nb  Nb0  1  0.75000000  0.75000000  0.88672000  1.0
  Nb  Nb1  1  0.75000000  0.75000000  0.03776000  1.0
  Nb  Nb2  1  0.75000000  0.25000000  0.88672000  1.0
  Nb  Nb3  1  0.75000000  0.25000000  0.03776000  1.0
  Nb  Nb4  1  0.25000000  0.75000000  0.88672000  1.0
  Nb  Nb5  1  0.25000000  0.75000000  0.03776000  1.0
  Nb  Nb6  1  0.25000000  0.25000000  0.88672000  1.0
  Nb  Nb7  1  0.25000000  0.25000000  0.03776000  1.0
  Ru  Ru8  1  0.75000000  0.00000000  0.96224000  1.0
  Ru  Ru9  1  0.00000000  0.75000000  0.96224000  1.0
  Ru  Ru10  1  0.00000000  0.00000000  0.88672000  1.0
  Ru  Ru11  1  0.75000000  0.00000000  0.11328000  1.0
  Ru  Ru12  1  0.00000000  0.75000000  0.11328000  1.0
  Ru  Ru13  1  0.00000000  0.00000000  0.03776000  1.0
  Ru  Ru14  1  0.75000000  0.50000000  0.96224000  1.0
  Ru  Ru15  1  0.00000000  0.25000000  0.96224000  1.0
  Ru  Ru16  1  0.00000000  0.50000000  0.88672000  1.0
  Ru  Ru17  1  0.75000000  0.50000000  0.11328000  1.0
  Ru  Ru18  1  0.00000000  0.25000000  0.11328000  1.0
  Ru  Ru19  1  0.00000000  0.50000000  0.03776000  1.0
  Ru  Ru20  1  0.25000000  0.00000000  0.96224000  1.0
  Ru  Ru21  1  0.50000000  0.75000000  0.96224000  1.0
  Ru  Ru22  1  0.50000000  0.00000000  0.88672000  1.0
  Ru  Ru23  1  0.25000000  0.00000000  0.11328000  1.0
  Ru  Ru24  1  0.50000000  0.75000000  0.11328000  1.0
  Ru  Ru25  1  0.50000000  0.00000000  0.03776000  1.0
  Ru  Ru26  1  0.25000000  0.50000000  0.96224000  1.0
  Ru  Ru27  1  0.50000000  0.25000000  0.96224000  1.0
  Ru  Ru28  1  0.50000000  0.50000000  0.88672000  1.0
  Ru  Ru29  1  0.25000000  0.50000000  0.11328000  1.0
  Ru  Ru30  1  0.50000000  0.25000000  0.11328000  1.0
  Ru  Ru31  1  0.50000000  0.50000000  0.03776000  1.0
  C  C32  1  0.00000000  0.00000000  0.14421000  1.0
