# generated using pymatgen
data_Li16Ag8Sn8C
_symmetry_space_group_name_H-M   'P 1'
_cell_length_a   6.59455000
_cell_length_b   9.32610000
_cell_length_c   26.99460000
_cell_angle_alpha   90.00000000
_cell_angle_beta   90.00000000
_cell_angle_gamma   90.00000000
_symmetry_Int_Tables_number   1
_chemical_formula_structural   Li16Ag8Sn8C
_chemical_formula_sum   'Li16 Ag8 Sn8 C1'
_cell_volume   1660.20657665
_cell_formula_units_Z   1
loop_
 _symmetry_equiv_pos_site_id
 _symmetry_equiv_pos_as_xyz
  1  'x, y, z'
loop_
 _atom_site_type_symbol
 _atom_site_label
 _atom_site_symmetry_multiplicity
 _atom_site_fract_x
 _atom_site_fract_y
 _atom_site_fract_z
 _atom_site_occupancy
  Li  Li0  1  0.25000000  0.00000000  0.95681000  1.0
  Li  Li1  1  0.75000000  0.50000000  0.95681000  1.0
  Li  Li2  1  0.75000000  0.00000000  0.95681000  1.0
  Li  Li3  1  0.25000000  0.50000000  0.95681000  1.0
  Li  Li4  1  0.75000000  0.75000000  0.87044000  1.0
  Li  Li5  1  0.25000000  0.25000000  0.87044000  1.0
  Li  Li6  1  0.25000000  0.75000000  0.87044000  1.0
  Li  Li7  1  0.75000000  0.25000000  0.87044000  1.0
  Li  Li8  1  0.23199000  0.50000000  0.13007000  1.0
  Li  Li9  1  0.70060000  0.00000000  0.13313000  1.0
  Li  Li10  1  0.76801000  0.50000000  0.13007000  1.0
  Li  Li11  1  0.29940000  0.00000000  0.13313000  1.0
  Li  Li12  1  0.76222000  0.25093000  0.04398000  1.0
  Li  Li13  1  0.23778000  0.74907000  0.04398000  1.0
  Li  Li14  1  0.23778000  0.25093000  0.04398000  1.0
  Li  Li15  1  0.76222000  0.74907000  0.04398000  1.0
  Ag  Ag16  1  0.00000000  0.00000000  0.87044000  1.0
  Ag  Ag17  1  0.50000000  0.25000000  0.95681000  1.0
  Ag  Ag18  1  0.50000000  0.75000000  0.95681000  1.0
  Ag  Ag19  1  0.00000000  0.50000000  0.87044000  1.0
  Ag  Ag20  1  0.00000000  0.50000000  0.03813000  1.0
  Ag  Ag21  1  0.50000000  0.73980000  0.12100000  1.0
  Ag  Ag22  1  0.50000000  0.26020000  0.12100000  1.0
  Ag  Ag23  1  0.00000000  0.00000000  0.04987000  1.0
  Sn  Sn24  1  0.00000000  0.75000000  0.95681000  1.0
  Sn  Sn25  1  0.50000000  0.00000000  0.87044000  1.0
  Sn  Sn26  1  0.00000000  0.25000000  0.95681000  1.0
  Sn  Sn27  1  0.50000000  0.50000000  0.87044000  1.0
  Sn  Sn28  1  0.00000000  0.22663000  0.14648000  1.0
  Sn  Sn29  1  0.50000000  0.50000000  0.04550000  1.0
  Sn  Sn30  1  0.00000000  0.77337000  0.14648000  1.0
  Sn  Sn31  1  0.50000000  0.00000000  0.04107000  1.0
  C  C32  1  0.00000000  0.00000000  0.14206000  1.0
