# generated using pymatgen
data_Li16Ag8Sn8C
_symmetry_space_group_name_H-M   Pmm2
_cell_length_a   6.59455000
_cell_length_b   9.32610000
_cell_length_c   26.99460000
_cell_angle_alpha   90.00000000
_cell_angle_beta   90.00000000
_cell_angle_gamma   90.00000000
_symmetry_Int_Tables_number   25
_chemical_formula_structural   Li16Ag8Sn8C
_chemical_formula_sum   'Li16 Ag8 Sn8 C1'
_cell_volume   1660.20657665
_cell_formula_units_Z   1
loop_
 _symmetry_equiv_pos_site_id
 _symmetry_equiv_pos_as_xyz
  1  'x, y, z'
  2  '-x, -y, z'
  3  '-x, y, z'
  4  'x, -y, z'
loop_
 _atom_site_type_symbol
 _atom_site_label
 _atom_site_symmetry_multiplicity
 _atom_site_fract_x
 _atom_site_fract_y
 _atom_site_fract_z
 _atom_site_occupancy
  Li  Li0  4  0.23778000  0.25093000  0.04398000  1.0
  Li  Li1  4  0.25000000  0.25000000  0.87044000  1.0
  Li  Li2  2  0.23199000  0.50000000  0.13007000  1.0
  Li  Li3  2  0.25000000  0.00000000  0.95681000  1.0
  Li  Li4  2  0.25000000  0.50000000  0.95681000  1.0
  Li  Li5  2  0.29940000  0.00000000  0.13313000  1.0
  Ag  Ag6  2  0.50000000  0.25000000  0.95681000  1.0
  Ag  Ag7  2  0.50000000  0.26020000  0.12100000  1.0
  Ag  Ag8  1  0.00000000  0.00000000  0.04987000  1.0
  Ag  Ag9  1  0.00000000  0.00000000  0.87044000  1.0
  Ag  Ag10  1  0.00000000  0.50000000  0.03813000  1.0
  Ag  Ag11  1  0.00000000  0.50000000  0.87044000  1.0
  Sn  Sn12  2  0.00000000  0.22663000  0.14648000  1.0
  Sn  Sn13  2  0.00000000  0.25000000  0.95681000  1.0
  Sn  Sn14  1  0.50000000  0.00000000  0.04107000  1.0
  Sn  Sn15  1  0.50000000  0.00000000  0.87044000  1.0
  Sn  Sn16  1  0.50000000  0.50000000  0.04550000  1.0
  Sn  Sn17  1  0.50000000  0.50000000  0.87044000  1.0
  C  C18  1  0.00000000  0.00000000  0.14206000  1.0
