# generated using pymatgen
data_LiCu2Si
_symmetry_space_group_name_H-M   'P 1'
_cell_length_a   4.09356136
_cell_length_b   4.09356136
_cell_length_c   24.34190000
_cell_angle_alpha   90.00000000
_cell_angle_beta   90.00000000
_cell_angle_gamma   90.00000000
_symmetry_Int_Tables_number   1
_chemical_formula_structural   LiCu2Si
_chemical_formula_sum   'Li2 Cu4 Si2'
_cell_volume   407.90317341
_cell_formula_units_Z   2
loop_
 _symmetry_equiv_pos_site_id
 _symmetry_equiv_pos_as_xyz
  1  'x, y, z'
loop_
 _atom_site_type_symbol
 _atom_site_label
 _atom_site_symmetry_multiplicity
 _atom_site_fract_x
 _atom_site_fract_y
 _atom_site_fract_z
 _atom_site_occupancy
  Li  Li0  1  0.00000000  0.00000000  0.91081000  1.0
  Li  Li1  1  0.50000000  0.50000000  0.02973000  1.0
  Cu  Cu2  1  0.50000000  0.00000000  0.97027000  1.0
  Cu  Cu3  1  0.50000000  0.00000000  0.08919000  1.0
  Cu  Cu4  1  0.00000000  0.50000000  0.97027000  1.0
  Cu  Cu5  1  0.00000000  0.50000000  0.08919000  1.0
  Si  Si6  1  0.00000000  0.00000000  0.02973000  1.0
  Si  Si7  1  0.50000000  0.50000000  0.91081000  1.0
