# generated using pymatgen
data_Na8Pb24C
_symmetry_space_group_name_H-M   Pmm2
_cell_length_a   10.02390000
_cell_length_b   10.02390000
_cell_length_c   27.51800000
_cell_angle_alpha   90.00000000
_cell_angle_beta   90.00000000
_cell_angle_gamma   90.00000000
_symmetry_Int_Tables_number   25
_chemical_formula_structural   Na8Pb24C
_chemical_formula_sum   'Na8 Pb24 C1'
_cell_volume   2764.96932256
_cell_formula_units_Z   1
loop_
 _symmetry_equiv_pos_site_id
 _symmetry_equiv_pos_as_xyz
  1  'x, y, z'
  2  '-x, -y, z'
  3  '-x, y, z'
  4  'x, -y, z'
loop_
 _atom_site_type_symbol
 _atom_site_label
 _atom_site_symmetry_multiplicity
 _atom_site_fract_x
 _atom_site_fract_y
 _atom_site_fract_z
 _atom_site_occupancy
  Na  Na0  2  0.25000000  0.00000000  0.13660000  1.0
  Na  Na1  2  0.25000000  0.00000000  0.95447000  1.0
  Na  Na2  2  0.25000000  0.50000000  0.13660000  1.0
  Na  Na3  2  0.25000000  0.50000000  0.95447000  1.0
  Pb  Pb4  4  0.25000000  0.25000000  0.04553000  1.0
  Pb  Pb5  4  0.25000000  0.25000000  0.86340000  1.0
  Pb  Pb6  2  0.00000000  0.25000000  0.13660000  1.0
  Pb  Pb7  2  0.00000000  0.25000000  0.95447000  1.0
  Pb  Pb8  2  0.50000000  0.25000000  0.13660000  1.0
  Pb  Pb9  2  0.50000000  0.25000000  0.95447000  1.0
  Pb  Pb10  1  0.00000000  0.00000000  0.04553000  1.0
  Pb  Pb11  1  0.00000000  0.00000000  0.86340000  1.0
  Pb  Pb12  1  0.00000000  0.50000000  0.04553000  1.0
  Pb  Pb13  1  0.00000000  0.50000000  0.86340000  1.0
  Pb  Pb14  1  0.50000000  0.00000000  0.04553000  1.0
  Pb  Pb15  1  0.50000000  0.00000000  0.86340000  1.0
  Pb  Pb16  1  0.50000000  0.50000000  0.04553000  1.0
  Pb  Pb17  1  0.50000000  0.50000000  0.86340000  1.0
  C  C18  1  0.00000000  0.00000000  0.16567000  1.0
