data_image0
_chemical_formula_structural       Li8In8Ir8Pd8CO
_chemical_formula_sum              "Li8 In8 Ir8 Pd8 C1 O1"
_cell_length_a       6.33559
_cell_length_b       8.95988
_cell_length_c       26.7199
_cell_angle_alpha    90
_cell_angle_beta     90
_cell_angle_gamma    90

_space_group_name_H-M_alt    "P 1"
_space_group_IT_number       1

loop_
  _space_group_symop_operation_xyz
  'x, y, z'

loop_
  _atom_site_type_symbol
  _atom_site_label
  _atom_site_symmetry_multiplicity
  _atom_site_fract_x
  _atom_site_fract_y
  _atom_site_fract_z
  _atom_site_occupancy
  Li  Li1       1.0  0.00000  0.25000  0.95808  1.0000
  Li  Li2       1.0  0.00000  0.75000  0.95808  1.0000
  Li  Li3       1.0  0.50000  0.50000  0.87425  1.0000
  Li  Li4       1.0  0.50000  0.00000  0.87425  1.0000
  Li  Li5       1.0  0.00467  0.75000  0.13193  1.0000
  Li  Li6       1.0  0.00074  0.25000  0.13453  1.0000
  Li  Li7       1.0  0.49786  0.00214  0.04046  1.0000
  Li  Li8       1.0  0.49786  0.49786  0.04046  1.0000
  In  In1       1.0  0.00000  0.00000  0.87425  1.0000
  In  In2       1.0  0.00000  0.50000  0.87425  1.0000
  In  In3       1.0  0.50000  0.75000  0.95808  1.0000
  In  In4       1.0  0.50000  0.25000  0.95808  1.0000
  In  In5       1.0  0.99812  0.50117  0.04026  1.0000
  In  In6       1.0  0.99812  0.99883  0.04026  1.0000
  In  In7       1.0  0.49352  0.25000  0.13173  1.0000
  In  In8       1.0  0.49237  0.75000  0.13430  1.0000
  Ir  Ir1       1.0  0.25000  0.00000  0.95808  1.0000
  Ir  Ir2       1.0  0.25000  0.50000  0.95808  1.0000
  Ir  Ir3       1.0  0.75000  0.25000  0.87425  1.0000
  Ir  Ir4       1.0  0.75000  0.75000  0.87425  1.0000
  Ir  Ir5       1.0  0.26081  0.50091  0.11897  1.0000
  Ir  Ir6       1.0  0.26082  0.99909  0.11897  1.0000
  Ir  Ir7       1.0  0.74430  0.75000  0.04508  1.0000
  Ir  Ir8       1.0  0.74878  0.25000  0.04464  1.0000
  Pd  Pd1       1.0  0.75000  0.00000  0.95808  1.0000
  Pd  Pd2       1.0  0.75000  0.50000  0.95808  1.0000
  Pd  Pd3       1.0  0.25000  0.25000  0.87425  1.0000
  Pd  Pd4       1.0  0.25000  0.75000  0.87425  1.0000
  Pd  Pd5       1.0  0.74038  0.50191  0.12037  1.0000
  Pd  Pd6       1.0  0.74038  0.99809  0.12037  1.0000
  Pd  Pd7       1.0  0.25348  0.75000  0.04335  1.0000
  Pd  Pd8       1.0  0.24870  0.25000  0.04298  1.0000
  C   C1        1.0  0.99529  0.25000  0.21549  1.0000
  O   O1        1.0  0.00513  0.25000  0.25801  1.0000
