# generated using pymatgen
data_Li4Y4In4Ge4C
_symmetry_space_group_name_H-M   Pm
_cell_length_a   6.30439000
_cell_length_b   8.57642000
_cell_length_c   24.70800000
_cell_angle_alpha   90.00000000
_cell_angle_beta   90.00000000
_cell_angle_gamma   90.00000000
_symmetry_Int_Tables_number   6
_chemical_formula_structural   Li4Y4In4Ge4C
_chemical_formula_sum   'Li4 Y4 In4 Ge4 C1'
_cell_volume   1335.93923592
_cell_formula_units_Z   1
loop_
 _symmetry_equiv_pos_site_id
 _symmetry_equiv_pos_as_xyz
  1  'x, y, z'
  2  'x, -y, z'
loop_
 _atom_site_type_symbol
 _atom_site_label
 _atom_site_symmetry_multiplicity
 _atom_site_fract_x
 _atom_site_fract_y
 _atom_site_fract_z
 _atom_site_occupancy
  Li  Li0  1  0.18066000  0.00000000  0.90473000  1.0
  Li  Li1  1  0.18066000  0.50000000  0.90473000  1.0
  Li  Li2  1  0.70984000  0.50000000  0.02429000  1.0
  Li  Li3  1  0.77477000  0.00000000  0.04515000  1.0
  Y  Y4  1  0.20916000  0.50000000  0.03978000  1.0
  Y  Y5  1  0.27529000  0.00000000  0.03115000  1.0
  Y  Y6  1  0.68066000  0.00000000  0.90473000  1.0
  Y  Y7  1  0.68066000  0.50000000  0.90473000  1.0
  In  In8  2  0.54887000  0.27384000  0.09464000  1.0
  In  In9  2  0.95378000  0.25001000  0.96824000  1.0
  Ge  Ge10  2  0.01721000  0.21848000  0.10513000  1.0
  Ge  Ge11  2  0.45378000  0.25001000  0.96824000  1.0
  C  C12  1  0.03201000  0.00000000  0.10342000  1.0
