data_image0
_chemical_formula_structural       Li8Mg8Pd8Pb8CO
_chemical_formula_sum              "Li8 Mg8 Pd8 Pb8 C1 O1"
_cell_length_a       6.6828
_cell_length_b       9.4509
_cell_length_c       27.0882
_cell_angle_alpha    90
_cell_angle_beta     90
_cell_angle_gamma    90

_space_group_name_H-M_alt    "P 1"
_space_group_IT_number       1

loop_
  _space_group_symop_operation_xyz
  'x, y, z'

loop_
  _atom_site_type_symbol
  _atom_site_label
  _atom_site_symmetry_multiplicity
  _atom_site_fract_x
  _atom_site_fract_y
  _atom_site_fract_z
  _atom_site_occupancy
  Li  Li1       1.0  0.00000  0.00000  0.86916  1.0000
  Li  Li2       1.0  0.00000  0.50000  0.86916  1.0000
  Li  Li3       1.0  0.50000  0.75000  0.95639  1.0000
  Li  Li4       1.0  0.50000  0.25000  0.95639  1.0000
  Li  Li5       1.0  0.01853  0.50063  0.04730  1.0000
  Li  Li6       1.0  0.01847  0.99941  0.04730  1.0000
  Li  Li7       1.0  0.52306  0.24999  0.14357  1.0000
  Li  Li8       1.0  0.46238  0.74999  0.14163  1.0000
  Mg  Mg1       1.0  0.75000  0.00000  0.95639  1.0000
  Mg  Mg2       1.0  0.75000  0.50000  0.95639  1.0000
  Mg  Mg3       1.0  0.25000  0.25000  0.86916  1.0000
  Mg  Mg4       1.0  0.25000  0.75000  0.86916  1.0000
  Mg  Mg5       1.0  0.76013  0.51610  0.12962  1.0000
  Mg  Mg6       1.0  0.76014  0.98389  0.12963  1.0000
  Mg  Mg7       1.0  0.26041  0.75007  0.04554  1.0000
  Mg  Mg8       1.0  0.25279  0.25001  0.05442  1.0000
  Pd  Pd1       1.0  0.00000  0.25000  0.95639  1.0000
  Pd  Pd2       1.0  0.00000  0.75000  0.95639  1.0000
  Pd  Pd3       1.0  0.50000  0.50000  0.86916  1.0000
  Pd  Pd4       1.0  0.50000  0.00000  0.86916  1.0000
  Pd  Pd5       1.0  0.01489  0.74998  0.12347  1.0000
  Pd  Pd6       1.0  0.95625  0.24999  0.13742  1.0000
  Pd  Pd7       1.0  0.48775  0.00134  0.04685  1.0000
  Pd  Pd8       1.0  0.48767  0.49875  0.04685  1.0000
  Pb  Pb1       1.0  0.25000  0.00000  0.95639  1.0000
  Pb  Pb2       1.0  0.25000  0.50000  0.95639  1.0000
  Pb  Pb3       1.0  0.75000  0.25000  0.86916  1.0000
  Pb  Pb4       1.0  0.75000  0.75000  0.86916  1.0000
  Pb  Pb5       1.0  0.24996  0.49367  0.14446  1.0000
  Pb  Pb6       1.0  0.24996  0.00631  0.14445  1.0000
  Pb  Pb7       1.0  0.74370  0.75001  0.04356  1.0000
  Pb  Pb8       1.0  0.74567  0.25005  0.04435  1.0000
  C   C1        1.0  0.86981  0.24999  0.20584  1.0000
  O   O1        1.0  0.84902  0.24999  0.24831  1.0000
