# generated using pymatgen
data_Li8Mg8Pd8Pb8CO
_symmetry_space_group_name_H-M   'P 1'
_cell_length_a   6.68280000
_cell_length_b   9.45090000
_cell_length_c   27.08820000
_cell_angle_alpha   90.00000000
_cell_angle_beta   90.00000000
_cell_angle_gamma   90.00000000
_symmetry_Int_Tables_number   1
_chemical_formula_structural   Li8Mg8Pd8Pb8CO
_chemical_formula_sum   'Li8 Mg8 Pd8 Pb8 C1 O1'
_cell_volume   1710.84938949
_cell_formula_units_Z   1
loop_
 _symmetry_equiv_pos_site_id
 _symmetry_equiv_pos_as_xyz
  1  'x, y, z'
loop_
 _atom_site_type_symbol
 _atom_site_label
 _atom_site_symmetry_multiplicity
 _atom_site_fract_x
 _atom_site_fract_y
 _atom_site_fract_z
 _atom_site_occupancy
  Li  Li0  1  0.00000000  0.00000000  0.86916000  1.0
  Li  Li1  1  0.00000000  0.50000000  0.86916000  1.0
  Li  Li2  1  0.50000000  0.75000000  0.95639000  1.0
  Li  Li3  1  0.50000000  0.25000000  0.95639000  1.0
  Li  Li4  1  0.01853000  0.50063000  0.04730000  1.0
  Li  Li5  1  0.01847000  0.99941000  0.04730000  1.0
  Li  Li6  1  0.52306000  0.24999000  0.14357000  1.0
  Li  Li7  1  0.46238000  0.74999000  0.14163000  1.0
  Mg  Mg8  1  0.75000000  0.00000000  0.95639000  1.0
  Mg  Mg9  1  0.75000000  0.50000000  0.95639000  1.0
  Mg  Mg10  1  0.25000000  0.25000000  0.86916000  1.0
  Mg  Mg11  1  0.25000000  0.75000000  0.86916000  1.0
  Mg  Mg12  1  0.76013000  0.51610000  0.12962000  1.0
  Mg  Mg13  1  0.76014000  0.98389000  0.12963000  1.0
  Mg  Mg14  1  0.26041000  0.75007000  0.04554000  1.0
  Mg  Mg15  1  0.25279000  0.25001000  0.05442000  1.0
  Pd  Pd16  1  0.00000000  0.25000000  0.95639000  1.0
  Pd  Pd17  1  0.00000000  0.75000000  0.95639000  1.0
  Pd  Pd18  1  0.50000000  0.50000000  0.86916000  1.0
  Pd  Pd19  1  0.50000000  0.00000000  0.86916000  1.0
  Pd  Pd20  1  0.01489000  0.74998000  0.12347000  1.0
  Pd  Pd21  1  0.95625000  0.24999000  0.13742000  1.0
  Pd  Pd22  1  0.48775000  0.00134000  0.04685000  1.0
  Pd  Pd23  1  0.48767000  0.49875000  0.04685000  1.0
  Pb  Pb24  1  0.25000000  0.00000000  0.95639000  1.0
  Pb  Pb25  1  0.25000000  0.50000000  0.95639000  1.0
  Pb  Pb26  1  0.75000000  0.25000000  0.86916000  1.0
  Pb  Pb27  1  0.75000000  0.75000000  0.86916000  1.0
  Pb  Pb28  1  0.24996000  0.49367000  0.14446000  1.0
  Pb  Pb29  1  0.24996000  0.00631000  0.14445000  1.0
  Pb  Pb30  1  0.74370000  0.75001000  0.04356000  1.0
  Pb  Pb31  1  0.74567000  0.25005000  0.04435000  1.0
  C  C32  1  0.86981000  0.24999000  0.20584000  1.0
  O  O33  1  0.84902000  0.24999000  0.24831000  1.0
