# generated using pymatgen
data_Zr16Pt16CO
_symmetry_space_group_name_H-M   'P 1'
_cell_length_a   6.75388000
_cell_length_b   9.55143000
_cell_length_c   27.16360000
_cell_angle_alpha   90.00000000
_cell_angle_beta   90.00000000
_cell_angle_gamma   90.00000000
_symmetry_Int_Tables_number   1
_chemical_formula_structural   Zr16Pt16CO
_chemical_formula_sum   'Zr16 Pt16 C1 O1'
_cell_volume   1752.30243240
_cell_formula_units_Z   1
loop_
 _symmetry_equiv_pos_site_id
 _symmetry_equiv_pos_as_xyz
  1  'x, y, z'
loop_
 _atom_site_type_symbol
 _atom_site_label
 _atom_site_symmetry_multiplicity
 _atom_site_fract_x
 _atom_site_fract_y
 _atom_site_fract_z
 _atom_site_occupancy
  Zr  Zr0  1  0.25000000  0.00000000  0.86814000  1.0
  Zr  Zr1  1  0.25000000  0.74999000  0.95605000  1.0
  Zr  Zr2  1  0.25381000  0.00000000  0.04181000  1.0
  Zr  Zr3  1  0.25767000  0.25617000  0.13234000  1.0
  Zr  Zr4  1  0.25000000  0.50000000  0.86814000  1.0
  Zr  Zr5  1  0.25000000  0.25001000  0.95605000  1.0
  Zr  Zr6  1  0.24023000  0.50000000  0.04052000  1.0
  Zr  Zr7  1  0.25767000  0.74383000  0.13234000  1.0
  Zr  Zr8  1  0.75000000  0.00000000  0.86814000  1.0
  Zr  Zr9  1  0.75000000  0.74999000  0.95605000  1.0
  Zr  Zr10  1  0.74619000  0.00000000  0.04181000  1.0
  Zr  Zr11  1  0.74233000  0.25617000  0.13234000  1.0
  Zr  Zr12  1  0.75000000  0.50000000  0.86814000  1.0
  Zr  Zr13  1  0.75000000  0.25001000  0.95605000  1.0
  Zr  Zr14  1  0.75977000  0.50000000  0.04052000  1.0
  Zr  Zr15  1  0.74233000  0.74383000  0.13234000  1.0
  Pt  Pt16  1  0.00000000  0.74999000  0.86814000  1.0
  Pt  Pt17  1  0.00000000  0.00000000  0.95605000  1.0
  Pt  Pt18  1  0.00000000  0.77405000  0.05670000  1.0
  Pt  Pt19  1  0.00000000  0.00000000  0.13560000  1.0
  Pt  Pt20  1  0.00000000  0.25001000  0.86814000  1.0
  Pt  Pt21  1  0.00000000  0.50000000  0.95605000  1.0
  Pt  Pt22  1  0.00000000  0.22595000  0.05670000  1.0
  Pt  Pt23  1  0.00000000  0.50000000  0.12353000  1.0
  Pt  Pt24  1  0.50000000  0.74999000  0.86814000  1.0
  Pt  Pt25  1  0.50000000  0.00000000  0.95605000  1.0
  Pt  Pt26  1  0.50000000  0.72752000  0.04781000  1.0
  Pt  Pt27  1  0.50000000  0.00000000  0.12193000  1.0
  Pt  Pt28  1  0.50000000  0.25001000  0.86814000  1.0
  Pt  Pt29  1  0.50000000  0.50000000  0.95605000  1.0
  Pt  Pt30  1  0.50000000  0.27248000  0.04781000  1.0
  Pt  Pt31  1  0.50000000  0.50000000  0.12312000  1.0
  C  C32  1  0.00000000  0.00000000  0.20529000  1.0
  O  O33  1  0.00000000  0.00000000  0.24817000  1.0
