# generated using pymatgen
data_Zr16Pt16CO
_symmetry_space_group_name_H-M   Pmm2
_cell_length_a   6.75388000
_cell_length_b   9.55143000
_cell_length_c   27.16360000
_cell_angle_alpha   90.00000000
_cell_angle_beta   90.00000000
_cell_angle_gamma   90.00000000
_symmetry_Int_Tables_number   25
_chemical_formula_structural   Zr16Pt16CO
_chemical_formula_sum   'Zr16 Pt16 C1 O1'
_cell_volume   1752.30243240
_cell_formula_units_Z   1
loop_
 _symmetry_equiv_pos_site_id
 _symmetry_equiv_pos_as_xyz
  1  'x, y, z'
  2  '-x, -y, z'
  3  '-x, y, z'
  4  'x, -y, z'
loop_
 _atom_site_type_symbol
 _atom_site_label
 _atom_site_symmetry_multiplicity
 _atom_site_fract_x
 _atom_site_fract_y
 _atom_site_fract_z
 _atom_site_occupancy
  Zr  Zr0  4  0.25000000  0.25001000  0.95605000  1.0
  Zr  Zr1  4  0.25767000  0.25617000  0.13234000  1.0
  Zr  Zr2  2  0.24023000  0.50000000  0.04052000  1.0
  Zr  Zr3  2  0.25000000  0.00000000  0.86814000  1.0
  Zr  Zr4  2  0.25000000  0.50000000  0.86814000  1.0
  Zr  Zr5  2  0.25381000  0.00000000  0.04181000  1.0
  Pt  Pt6  2  0.00000000  0.22595000  0.05670000  1.0
  Pt  Pt7  2  0.00000000  0.25001000  0.86814000  1.0
  Pt  Pt8  2  0.50000000  0.25001000  0.86814000  1.0
  Pt  Pt9  2  0.50000000  0.27248000  0.04781000  1.0
  Pt  Pt10  1  0.00000000  0.00000000  0.13560000  1.0
  Pt  Pt11  1  0.00000000  0.00000000  0.95605000  1.0
  Pt  Pt12  1  0.00000000  0.50000000  0.12353000  1.0
  Pt  Pt13  1  0.00000000  0.50000000  0.95605000  1.0
  Pt  Pt14  1  0.50000000  0.00000000  0.12193000  1.0
  Pt  Pt15  1  0.50000000  0.00000000  0.95605000  1.0
  Pt  Pt16  1  0.50000000  0.50000000  0.12312000  1.0
  Pt  Pt17  1  0.50000000  0.50000000  0.95605000  1.0
  C  C18  1  0.00000000  0.00000000  0.20529000  1.0
  O  O19  1  0.00000000  0.00000000  0.24817000  1.0
