# generated using pymatgen
data_LiIn2Rh
_symmetry_space_group_name_H-M   'P 1'
_cell_length_a   4.65219500
_cell_length_b   6.57920000
_cell_length_c   26.97830000
_cell_angle_alpha   90.00000000
_cell_angle_beta   90.00000000
_cell_angle_gamma   90.00000000
_symmetry_Int_Tables_number   1
_chemical_formula_structural   LiIn2Rh
_chemical_formula_sum   'Li4 In8 Rh4'
_cell_volume   825.74428873
_cell_formula_units_Z   4
loop_
 _symmetry_equiv_pos_site_id
 _symmetry_equiv_pos_as_xyz
  1  'x, y, z'
loop_
 _atom_site_type_symbol
 _atom_site_label
 _atom_site_symmetry_multiplicity
 _atom_site_fract_x
 _atom_site_fract_y
 _atom_site_fract_z
 _atom_site_occupancy
  Li  Li0  1  0.00000000  0.00000000  0.12933000  1.0
  Li  Li1  1  0.50000000  0.50000000  0.04311000  1.0
  Li  Li2  1  0.00000000  0.00000000  0.95598000  1.0
  Li  Li3  1  0.50000000  0.50000000  0.86428500  1.0
  In  In4  1  0.00000000  0.75000000  0.04311000  1.0
  In  In5  1  0.00000000  0.25000000  0.04311000  1.0
  In  In6  1  0.50000000  0.25000000  0.12933000  1.0
  In  In7  1  0.50000000  0.75000000  0.12933000  1.0
  In  In8  1  0.00000000  0.75912000  0.86507000  1.0
  In  In9  1  0.00000000  0.24088000  0.86507000  1.0
  In  In10  1  0.50000000  0.25614500  0.95681000  1.0
  In  In11  1  0.50000000  0.74385500  0.95681000  1.0
  Rh  Rh12  1  0.50000000  0.00000000  0.04311000  1.0
  Rh  Rh13  1  0.00000000  0.50000000  0.12933000  1.0
  Rh  Rh14  1  0.50000000  0.00000000  0.87785500  1.0
  Rh  Rh15  1  0.00000000  0.50000000  0.95923500  1.0
