# generated using pymatgen
data_In16Rh16C
_symmetry_space_group_name_H-M   'P 1'
_cell_length_a   6.51708000
_cell_length_b   9.21654000
_cell_length_c   26.91240000
_cell_angle_alpha   90.00000000
_cell_angle_beta   90.00000000
_cell_angle_gamma   90.00000000
_symmetry_Int_Tables_number   1
_chemical_formula_structural   In16Rh16C
_chemical_formula_sum   'In16 Rh16 C1'
_cell_volume   1616.49138185
_cell_formula_units_Z   1
loop_
 _symmetry_equiv_pos_site_id
 _symmetry_equiv_pos_as_xyz
  1  'x, y, z'
loop_
 _atom_site_type_symbol
 _atom_site_label
 _atom_site_symmetry_multiplicity
 _atom_site_fract_x
 _atom_site_fract_y
 _atom_site_fract_z
 _atom_site_occupancy
  In  In0  1  0.00000000  0.00000000  0.87158000  1.0
  In  In1  1  0.00000000  0.25000000  0.95719000  1.0
  In  In2  1  0.00000000  0.00000000  0.04185000  1.0
  In  In3  1  0.00000000  0.27130000  0.13425000  1.0
  In  In4  1  0.00000000  0.50000000  0.87158000  1.0
  In  In5  1  0.00000000  0.75000000  0.95719000  1.0
  In  In6  1  0.00000000  0.50000000  0.04153000  1.0
  In  In7  1  0.00000000  0.72870000  0.13425000  1.0
  In  In8  1  0.50000000  0.00000000  0.87158000  1.0
  In  In9  1  0.50000000  0.25000000  0.95719000  1.0
  In  In10  1  0.50000000  0.00000000  0.04086000  1.0
  In  In11  1  0.50000000  0.25476000  0.13813000  1.0
  In  In12  1  0.50000000  0.50000000  0.87158000  1.0
  In  In13  1  0.50000000  0.75000000  0.95719000  1.0
  In  In14  1  0.50000000  0.50000000  0.04115000  1.0
  In  In15  1  0.50000000  0.74524000  0.13813000  1.0
  Rh  Rh16  1  0.25000000  0.25000000  0.87158000  1.0
  Rh  Rh17  1  0.25000000  0.00000000  0.95719000  1.0
  Rh  Rh18  1  0.24915000  0.24549000  0.04292000  1.0
  Rh  Rh19  1  0.24858000  0.00000000  0.12772000  1.0
  Rh  Rh20  1  0.25000000  0.75000000  0.87158000  1.0
  Rh  Rh21  1  0.25000000  0.50000000  0.95719000  1.0
  Rh  Rh22  1  0.24915000  0.75451000  0.04292000  1.0
  Rh  Rh23  1  0.25920000  0.50000000  0.12243000  1.0
  Rh  Rh24  1  0.75000000  0.25000000  0.87158000  1.0
  Rh  Rh25  1  0.75000000  0.00000000  0.95719000  1.0
  Rh  Rh26  1  0.75085000  0.24549000  0.04292000  1.0
  Rh  Rh27  1  0.75142000  0.00000000  0.12772000  1.0
  Rh  Rh28  1  0.75000000  0.75000000  0.87158000  1.0
  Rh  Rh29  1  0.75000000  0.50000000  0.95719000  1.0
  Rh  Rh30  1  0.75085000  0.75451000  0.04292000  1.0
  Rh  Rh31  1  0.74080000  0.50000000  0.12243000  1.0
  C  C32  1  0.00000000  0.00000000  0.15951000  1.0
