# generated using pymatgen
data_LiMnAlPd
_symmetry_space_group_name_H-M   Pm
_cell_length_a   6.10222000
_cell_length_b   4.31492000
_cell_length_c   26.47240000
_cell_angle_alpha   90.00000000
_cell_angle_beta   90.00000000
_cell_angle_gamma   90.00000000
_symmetry_Int_Tables_number   6
_chemical_formula_structural   LiMnAlPd
_chemical_formula_sum   'Li4 Mn4 Al4 Pd4'
_cell_volume   697.03394043
_cell_formula_units_Z   4
loop_
 _symmetry_equiv_pos_site_id
 _symmetry_equiv_pos_as_xyz
  1  'x, y, z'
  2  'x, -y, z'
loop_
 _atom_site_type_symbol
 _atom_site_label
 _atom_site_symmetry_multiplicity
 _atom_site_fract_x
 _atom_site_fract_y
 _atom_site_fract_z
 _atom_site_occupancy
  Li  Li0  1  0.00000000  0.50000000  0.04075000  1.0
  Li  Li1  1  0.01092000  0.50000000  0.86650000  1.0
  Li  Li2  1  0.50000000  0.00000000  0.12225000  1.0
  Li  Li3  1  0.50302500  0.00000000  0.96311000  1.0
  Mn  Mn4  1  0.24711000  0.50000000  0.95765000  1.0
  Mn  Mn5  1  0.25000000  0.50000000  0.12225000  1.0
  Mn  Mn6  1  0.73657000  0.00000000  0.87974000  1.0
  Mn  Mn7  1  0.75000000  0.00000000  0.04075000  1.0
  Al  Al8  1  0.00000000  0.00000000  0.12225000  1.0
  Al  Al9  1  0.49489500  0.50000000  0.87516000  1.0
  Al  Al10  1  0.50000000  0.50000000  0.04075000  1.0
  Al  Al11  1  0.99490500  0.00000000  0.96029000  1.0
  Pd  Pd12  1  0.25000000  0.00000000  0.04075000  1.0
  Pd  Pd13  1  0.26538000  0.00000000  0.88625000  1.0
  Pd  Pd14  1  0.75000000  0.50000000  0.12225000  1.0
  Pd  Pd15  1  0.75203000  0.50000000  0.95868000  1.0
