# generated using pymatgen
data_LiAlAgSn
_symmetry_space_group_name_H-M   'P 1'
_cell_length_a   5.95223000
_cell_length_b   4.28010000
_cell_length_c   24.45610000
_cell_angle_alpha   90.00000000
_cell_angle_beta   90.00000000
_cell_angle_gamma   90.00000000
_symmetry_Int_Tables_number   1
_chemical_formula_structural   LiAlAgSn
_chemical_formula_sum   'Li2 Al2 Ag2 Sn2'
_cell_volume   623.04701823
_cell_formula_units_Z   2
loop_
 _symmetry_equiv_pos_site_id
 _symmetry_equiv_pos_as_xyz
  1  'x, y, z'
loop_
 _atom_site_type_symbol
 _atom_site_label
 _atom_site_symmetry_multiplicity
 _atom_site_fract_x
 _atom_site_fract_y
 _atom_site_fract_z
 _atom_site_occupancy
  Li  Li0  1  0.22734500  0.50000000  0.96731000  1.0
  Li  Li1  1  0.70495000  0.50000000  0.09110000  1.0
  Al  Al2  1  0.47503500  0.00000000  0.91026000  1.0
  Al  Al3  1  0.96997000  0.00000000  0.03037000  1.0
  Ag  Ag4  1  0.02976000  0.00000000  0.91288000  1.0
  Ag  Ag5  1  0.46997000  0.00000000  0.03037000  1.0
  Sn  Sn6  1  0.72697500  0.50000000  0.95528500  1.0
  Sn  Sn7  1  0.20495000  0.50000000  0.09110000  1.0
