# generated using pymatgen
data_MnPt
_symmetry_space_group_name_H-M   Pmma
_cell_length_a   4.23647500
_cell_length_b   3.48758000
_cell_length_c   26.35470000
_cell_angle_alpha   90.00000000
_cell_angle_beta   90.00000000
_cell_angle_gamma   90.00000000
_symmetry_Int_Tables_number   51
_chemical_formula_structural   MnPt
_chemical_formula_sum   'Mn4 Pt4'
_cell_volume   389.39189112
_cell_formula_units_Z   4
loop_
 _symmetry_equiv_pos_site_id
 _symmetry_equiv_pos_as_xyz
  1  'x, y, z'
  2  '-x, -y, -z'
  3  '-x+1/2, -y, z'
  4  'x+1/2, y, -z'
  5  'x+1/2, -y, -z'
  6  '-x+1/2, y, z'
  7  '-x, y, -z'
  8  'x, -y, z'
loop_
 _atom_site_type_symbol
 _atom_site_label
 _atom_site_symmetry_multiplicity
 _atom_site_fract_x
 _atom_site_fract_y
 _atom_site_fract_z
 _atom_site_occupancy
  Mn  Mn0  2  0.25000000  0.00000000  0.12056000  1.0
  Mn  Mn1  2  0.25000000  0.00000000  0.95981000  1.0
  Pt  Pt2  2  0.25000000  0.50000000  0.04019000  1.0
  Pt  Pt3  2  0.25000000  0.50000000  0.87944000  1.0
