# generated using pymatgen
data_Cr8In8Co16CO
_symmetry_space_group_name_H-M   Pm
_cell_length_a   6.00915000
_cell_length_b   8.49821000
_cell_length_c   26.37370000
_cell_angle_alpha   90.00000000
_cell_angle_beta   90.00000000
_cell_angle_gamma   90.00000000
_symmetry_Int_Tables_number   6
_chemical_formula_structural   Cr8In8Co16CO
_chemical_formula_sum   'Cr8 In8 Co16 C1 O1'
_cell_volume   1346.82622902
_cell_formula_units_Z   1
loop_
 _symmetry_equiv_pos_site_id
 _symmetry_equiv_pos_as_xyz
  1  'x, y, z'
  2  'x, -y, z'
loop_
 _atom_site_type_symbol
 _atom_site_label
 _atom_site_symmetry_multiplicity
 _atom_site_fract_x
 _atom_site_fract_y
 _atom_site_fract_z
 _atom_site_occupancy
  Cr  Cr0  2  0.50000000  0.25000000  0.12083000  1.0
  Cr  Cr1  2  0.50000000  0.25000000  0.95972000  1.0
  Cr  Cr2  1  0.00000000  0.00000000  0.04028000  1.0
  Cr  Cr3  1  0.00000000  0.00000000  0.87917000  1.0
  Cr  Cr4  1  0.00000000  0.50000000  0.04028000  1.0
  Cr  Cr5  1  0.00000000  0.50000000  0.87917000  1.0
  In  In6  2  0.00000000  0.25000000  0.12083000  1.0
  In  In7  2  0.00000000  0.25000000  0.95972000  1.0
  In  In8  1  0.50000000  0.00000000  0.04028000  1.0
  In  In9  1  0.50000000  0.00000000  0.87917000  1.0
  In  In10  1  0.50000000  0.50000000  0.04028000  1.0
  In  In11  1  0.50000000  0.50000000  0.87917000  1.0
  Co  Co12  2  0.25000000  0.25000000  0.04028000  1.0
  Co  Co13  2  0.25000000  0.25000000  0.87917000  1.0
  Co  Co14  2  0.75000000  0.25000000  0.04028000  1.0
  Co  Co15  2  0.75000000  0.25000000  0.87917000  1.0
  Co  Co16  1  0.25000000  0.00000000  0.12083000  1.0
  Co  Co17  1  0.25000000  0.00000000  0.95972000  1.0
  Co  Co18  1  0.25000000  0.50000000  0.12083000  1.0
  Co  Co19  1  0.25000000  0.50000000  0.95972000  1.0
  Co  Co20  1  0.75000000  0.00000000  0.12083000  1.0
  Co  Co21  1  0.75000000  0.00000000  0.95972000  1.0
  Co  Co22  1  0.75000000  0.50000000  0.12083000  1.0
  Co  Co23  1  0.75000000  0.50000000  0.95972000  1.0
  C  C24  1  0.25000000  0.00000000  0.19288000  1.0
  O  O25  1  0.25000000  0.00000000  0.23648000  1.0
