# generated using pymatgen
data_Al8V8Ni16CO
_symmetry_space_group_name_H-M   'P 1'
_cell_length_a   5.81764000
_cell_length_b   8.22738000
_cell_length_c   26.17050000
_cell_angle_alpha   90.00000000
_cell_angle_beta   90.00000000
_cell_angle_gamma   90.00000000
_symmetry_Int_Tables_number   1
_chemical_formula_structural   Al8V8Ni16CO
_chemical_formula_sum   'Al8 V8 Ni16 C1 O1'
_cell_volume   1252.62311048
_cell_formula_units_Z   1
loop_
 _symmetry_equiv_pos_site_id
 _symmetry_equiv_pos_as_xyz
  1  'x, y, z'
loop_
 _atom_site_type_symbol
 _atom_site_label
 _atom_site_symmetry_multiplicity
 _atom_site_fract_x
 _atom_site_fract_y
 _atom_site_fract_z
 _atom_site_occupancy
  Al  Al0  1  0.00000000  0.00000000  0.88211000  1.0
  Al  Al1  1  0.50000000  0.25000000  0.96070000  1.0
  Al  Al2  1  0.50000000  0.75000000  0.96070000  1.0
  Al  Al3  1  0.00000000  0.50000000  0.88211000  1.0
  Al  Al4  1  0.00115000  0.50004000  0.03697000  1.0
  Al  Al5  1  0.50524000  0.74558000  0.11978000  1.0
  Al  Al6  1  0.50529000  0.25439000  0.11967000  1.0
  Al  Al7  1  0.00842000  0.99996000  0.03986000  1.0
  V  V8  1  0.00000000  0.75000000  0.96070000  1.0
  V  V9  1  0.50000000  0.00000000  0.88211000  1.0
  V  V10  1  0.00000000  0.25000000  0.96070000  1.0
  V  V11  1  0.50000000  0.50000000  0.88211000  1.0
  V  V12  1  0.00456000  0.24949000  0.11667000  1.0
  V  V13  1  0.50345000  0.50003000  0.03980000  1.0
  V  V14  1  0.00454000  0.75064000  0.11683000  1.0
  V  V15  1  0.49524000  0.99998000  0.04102000  1.0
  Ni  Ni16  1  0.25000000  0.00000000  0.96070000  1.0
  Ni  Ni17  1  0.75000000  0.50000000  0.96070000  1.0
  Ni  Ni18  1  0.75000000  0.00000000  0.96070000  1.0
  Ni  Ni19  1  0.25000000  0.50000000  0.96070000  1.0
  Ni  Ni20  1  0.75000000  0.75000000  0.88211000  1.0
  Ni  Ni21  1  0.25000000  0.25000000  0.88211000  1.0
  Ni  Ni22  1  0.25000000  0.75000000  0.88211000  1.0
  Ni  Ni23  1  0.75000000  0.25000000  0.88211000  1.0
  Ni  Ni24  1  0.24086000  0.49997000  0.11262000  1.0
  Ni  Ni25  1  0.74985000  0.00004000  0.11191000  1.0
  Ni  Ni26  1  0.76875000  0.50007000  0.11343000  1.0
  Ni  Ni27  1  0.25746000  0.99998000  0.12622000  1.0
  Ni  Ni28  1  0.75263000  0.24878000  0.04025000  1.0
  Ni  Ni29  1  0.25157000  0.74797000  0.04039000  1.0
  Ni  Ni30  1  0.25172000  0.25209000  0.04036000  1.0
  Ni  Ni31  1  0.75272000  0.75112000  0.04030000  1.0
  C  C32  1  0.16474000  0.99988000  0.19046000  1.0
  O  O33  1  0.11940000  0.00021000  0.23370000  1.0
