# generated using pymatgen
data_Li8Y8Sn8Pb8C
_symmetry_space_group_name_H-M   Pmm2
_cell_length_a   8.87168000
_cell_length_b   9.36828000
_cell_length_c   27.23350000
_cell_angle_alpha   90.00000000
_cell_angle_beta   90.00000000
_cell_angle_gamma   90.00000000
_symmetry_Int_Tables_number   25
_chemical_formula_structural   Li8Y8Sn8Pb8C
_chemical_formula_sum   'Li8 Y8 Sn8 Pb8 C1'
_cell_volume   2263.44106365
_cell_formula_units_Z   1
loop_
 _symmetry_equiv_pos_site_id
 _symmetry_equiv_pos_as_xyz
  1  'x, y, z'
  2  '-x, -y, z'
  3  '-x, y, z'
  4  'x, -y, z'
loop_
 _atom_site_type_symbol
 _atom_site_label
 _atom_site_symmetry_multiplicity
 _atom_site_fract_x
 _atom_site_fract_y
 _atom_site_fract_z
 _atom_site_occupancy
  Li  Li0  2  0.24194000  0.00000000  0.13547000  1.0
  Li  Li1  2  0.24999000  0.00000000  0.95573000  1.0
  Li  Li2  2  0.24999000  0.50000000  0.95573000  1.0
  Li  Li3  2  0.26138000  0.50000000  0.13081000  1.0
  Y  Y4  4  0.24766000  0.24765000  0.04434000  1.0
  Y  Y5  4  0.24999000  0.24998000  0.86720000  1.0
  Sn  Sn6  1  0.00000000  0.00000000  0.03630000  1.0
  Sn  Sn7  1  0.00000000  0.00000000  0.86720000  1.0
  Sn  Sn8  1  0.00000000  0.50000000  0.05829000  1.0
  Sn  Sn9  1  0.00000000  0.50000000  0.86720000  1.0
  Sn  Sn10  1  0.50000000  0.00000000  0.06156000  1.0
  Sn  Sn11  1  0.50000000  0.00000000  0.86720000  1.0
  Sn  Sn12  1  0.50000000  0.50000000  0.05119000  1.0
  Sn  Sn13  1  0.50000000  0.50000000  0.86720000  1.0
  Pb  Pb14  2  0.00000000  0.24371000  0.14935000  1.0
  Pb  Pb15  2  0.00000000  0.24998000  0.95573000  1.0
  Pb  Pb16  2  0.50000000  0.24998000  0.95573000  1.0
  Pb  Pb17  2  0.50000000  0.26014000  0.13986000  1.0
  C  C18  1  0.00000000  0.00000000  0.12005000  1.0
