# generated using pymatgen
data_Li8Pd16Pb8CO
_symmetry_space_group_name_H-M   'P 1'
_cell_length_a   9.30439000
_cell_length_b   6.57920000
_cell_length_c   26.97830000
_cell_angle_alpha   90.00000000
_cell_angle_beta   90.00000000
_cell_angle_gamma   90.00000000
_symmetry_Int_Tables_number   1
_chemical_formula_structural   Li8Pd16Pb8CO
_chemical_formula_sum   'Li8 Pd16 Pb8 C1 O1'
_cell_volume   1651.48857747
_cell_formula_units_Z   1
loop_
 _symmetry_equiv_pos_site_id
 _symmetry_equiv_pos_as_xyz
  1  'x, y, z'
loop_
 _atom_site_type_symbol
 _atom_site_label
 _atom_site_symmetry_multiplicity
 _atom_site_fract_x
 _atom_site_fract_y
 _atom_site_fract_z
 _atom_site_occupancy
  Li  Li0  1  0.00000000  0.00000000  0.12933000  1.0
  Li  Li1  1  0.25000000  0.50000000  0.04311000  1.0
  Li  Li2  1  0.75000000  0.50000000  0.04311000  1.0
  Li  Li3  1  0.50000000  0.00000000  0.12933000  1.0
  Li  Li4  1  0.50000000  0.99413000  0.95954000  1.0
  Li  Li5  1  0.74934000  0.49512000  0.87184000  1.0
  Li  Li6  1  0.25066000  0.49512000  0.87184000  1.0
  Li  Li7  1  0.00000000  0.00457000  0.95834000  1.0
  Pd  Pd8  1  0.00000000  0.25000000  0.04311000  1.0
  Pd  Pd9  1  0.50000000  0.75000000  0.04311000  1.0
  Pd  Pd10  1  0.00000000  0.75000000  0.04311000  1.0
  Pd  Pd11  1  0.50000000  0.25000000  0.04311000  1.0
  Pd  Pd12  1  0.75000000  0.75000000  0.12933000  1.0
  Pd  Pd13  1  0.25000000  0.25000000  0.12933000  1.0
  Pd  Pd14  1  0.75000000  0.25000000  0.12933000  1.0
  Pd  Pd15  1  0.25000000  0.75000000  0.12933000  1.0
  Pd  Pd16  1  0.50000000  0.21993000  0.87929000  1.0
  Pd  Pd17  1  0.00000000  0.77348000  0.88105000  1.0
  Pd  Pd18  1  0.50000000  0.75726000  0.88018000  1.0
  Pd  Pd19  1  0.00000000  0.25482000  0.86804000  1.0
  Pd  Pd20  1  0.24895000  0.75339000  0.95473000  1.0
  Pd  Pd21  1  0.75417000  0.22998000  0.95132000  1.0
  Pd  Pd22  1  0.24583000  0.22998000  0.95132000  1.0
  Pd  Pd23  1  0.75105000  0.75339000  0.95473000  1.0
  Pb  Pb24  1  0.75000000  0.00000000  0.04311000  1.0
  Pb  Pb25  1  0.00000000  0.50000000  0.12933000  1.0
  Pb  Pb26  1  0.25000000  0.00000000  0.04311000  1.0
  Pb  Pb27  1  0.50000000  0.50000000  0.12933000  1.0
  Pb  Pb28  1  0.25338000  0.98782000  0.85922000  1.0
  Pb  Pb29  1  0.50000000  0.48993000  0.95828000  1.0
  Pb  Pb30  1  0.74662000  0.98782000  0.85922000  1.0
  Pb  Pb31  1  0.00000000  0.49180000  0.95843000  1.0
  C  C32  1  0.00000000  0.34231000  0.79855000  1.0
  O  O33  1  0.00000000  0.37283000  0.75644000  1.0
