# generated using pymatgen
data_Li8Pd16Pb8CO
_symmetry_space_group_name_H-M   Pm
_cell_length_a   6.57920000
_cell_length_b   9.30439000
_cell_length_c   26.97830000
_cell_angle_alpha   90.00000000
_cell_angle_beta   90.00000000
_cell_angle_gamma   90.00000000
_symmetry_Int_Tables_number   6
_chemical_formula_structural   Li8Pd16Pb8CO
_chemical_formula_sum   'Li8 Pd16 Pb8 C1 O1'
_cell_volume   1651.48857747
_cell_formula_units_Z   1
loop_
 _symmetry_equiv_pos_site_id
 _symmetry_equiv_pos_as_xyz
  1  'x, y, z'
  2  'x, -y, z'
loop_
 _atom_site_type_symbol
 _atom_site_label
 _atom_site_symmetry_multiplicity
 _atom_site_fract_x
 _atom_site_fract_y
 _atom_site_fract_z
 _atom_site_occupancy
  Li  Li0  2  0.49512000  0.25066000  0.12816000  1.0
  Li  Li1  2  0.50000000  0.25000000  0.95689000  1.0
  Li  Li2  1  0.00000000  0.00000000  0.87067000  1.0
  Li  Li3  1  0.00000000  0.50000000  0.87067000  1.0
  Li  Li4  1  0.00457000  0.00000000  0.04166000  1.0
  Li  Li5  1  0.99413000  0.50000000  0.04046000  1.0
  Pd  Pd6  2  0.22998000  0.24583000  0.04868000  1.0
  Pd  Pd7  2  0.25000000  0.25000000  0.87067000  1.0
  Pd  Pd8  2  0.75000000  0.25000000  0.87067000  1.0
  Pd  Pd9  2  0.75339000  0.24895000  0.04527000  1.0
  Pd  Pd10  1  0.21993000  0.50000000  0.12071000  1.0
  Pd  Pd11  1  0.25000000  0.00000000  0.95689000  1.0
  Pd  Pd12  1  0.25000000  0.50000000  0.95689000  1.0
  Pd  Pd13  1  0.25482000  0.00000000  0.13196000  1.0
  Pd  Pd14  1  0.75000000  0.00000000  0.95689000  1.0
  Pd  Pd15  1  0.75000000  0.50000000  0.95689000  1.0
  Pd  Pd16  1  0.75726000  0.50000000  0.11982000  1.0
  Pd  Pd17  1  0.77348000  0.00000000  0.11895000  1.0
  Pb  Pb18  2  0.00000000  0.25000000  0.95689000  1.0
  Pb  Pb19  2  0.98782000  0.25338000  0.14078000  1.0
  Pb  Pb20  1  0.48993000  0.50000000  0.04172000  1.0
  Pb  Pb21  1  0.49180000  0.00000000  0.04157000  1.0
  Pb  Pb22  1  0.50000000  0.00000000  0.87067000  1.0
  Pb  Pb23  1  0.50000000  0.50000000  0.87067000  1.0
  C  C24  1  0.34231000  0.00000000  0.20145000  1.0
  O  O25  1  0.37283000  0.00000000  0.24356000  1.0
