# generated using pymatgen
data_Li8Zn8Ag8Ge8C
_symmetry_space_group_name_H-M   Pm
_cell_length_a   6.35563000
_cell_length_b   8.98822000
_cell_length_c   26.74120000
_cell_angle_alpha   90.00000000
_cell_angle_beta   90.00000000
_cell_angle_gamma   90.00000000
_symmetry_Int_Tables_number   6
_chemical_formula_structural   Li8Zn8Ag8Ge8C
_chemical_formula_sum   'Li8 Zn8 Ag8 Ge8 C1'
_cell_volume   1527.61246111
_cell_formula_units_Z   1
loop_
 _symmetry_equiv_pos_site_id
 _symmetry_equiv_pos_as_xyz
  1  'x, y, z'
  2  'x, -y, z'
loop_
 _atom_site_type_symbol
 _atom_site_label
 _atom_site_symmetry_multiplicity
 _atom_site_fract_x
 _atom_site_fract_y
 _atom_site_fract_z
 _atom_site_occupancy
  Li  Li0  2  0.74973000  0.23384000  0.14640000  1.0
  Li  Li1  2  0.75000000  0.25000000  0.95799000  1.0
  Li  Li2  1  0.24722000  0.50000000  0.04488000  1.0
  Li  Li3  1  0.25000000  0.00000000  0.87396000  1.0
  Li  Li4  1  0.25000000  0.50000000  0.87396000  1.0
  Li  Li5  1  0.26649000  0.00000000  0.04567000  1.0
  Zn  Zn6  2  0.25000000  0.25000000  0.95799000  1.0
  Zn  Zn7  2  0.25301000  0.27710000  0.12692000  1.0
  Zn  Zn8  1  0.69780000  0.00000000  0.06519000  1.0
  Zn  Zn9  1  0.75000000  0.00000000  0.87396000  1.0
  Zn  Zn10  1  0.75000000  0.50000000  0.87396000  1.0
  Zn  Zn11  1  0.76363000  0.50000000  0.03990000  1.0
  Ag  Ag12  2  0.00000000  0.25000000  0.87396000  1.0
  Ag  Ag13  2  0.98667000  0.23495000  0.04466000  1.0
  Ag  Ag14  1  0.43592000  0.00000000  0.16204000  1.0
  Ag  Ag15  1  0.50000000  0.00000000  0.95799000  1.0
  Ag  Ag16  1  0.50000000  0.50000000  0.95799000  1.0
  Ag  Ag17  1  0.54279000  0.50000000  0.12992000  1.0
  Ge  Ge18  2  0.50000000  0.25000000  0.87396000  1.0
  Ge  Ge19  2  0.51071000  0.25796000  0.04738000  1.0
  Ge  Ge20  1  0.00000000  0.00000000  0.95799000  1.0
  Ge  Ge21  1  0.00000000  0.50000000  0.95799000  1.0
  Ge  Ge22  1  0.05102000  0.00000000  0.13760000  1.0
  Ge  Ge23  1  0.98323000  0.50000000  0.12813000  1.0
  C  C24  1  0.76284000  0.00000000  0.14406000  1.0
