# generated using pymatgen
data_V8Ni16Sn8CO
_symmetry_space_group_name_H-M   Pmm2
_cell_length_a   6.08368000
_cell_length_b   8.60362000
_cell_length_c   26.45270000
_cell_angle_alpha   90.00000000
_cell_angle_beta   90.00000000
_cell_angle_gamma   90.00000000
_symmetry_Int_Tables_number   25
_chemical_formula_structural   V8Ni16Sn8CO
_chemical_formula_sum   'V8 Ni16 Sn8 C1 O1'
_cell_volume   1384.57851839
_cell_formula_units_Z   1
loop_
 _symmetry_equiv_pos_site_id
 _symmetry_equiv_pos_as_xyz
  1  'x, y, z'
  2  '-x, -y, z'
  3  '-x, y, z'
  4  'x, -y, z'
loop_
 _atom_site_type_symbol
 _atom_site_label
 _atom_site_symmetry_multiplicity
 _atom_site_fract_x
 _atom_site_fract_y
 _atom_site_fract_z
 _atom_site_occupancy
  V  V0  2  0.00000000  0.24997000  0.04336000  1.0
  V  V1  2  0.00000000  0.25000000  0.87803000  1.0
  V  V2  1  0.50000000  0.00000000  0.12076000  1.0
  V  V3  1  0.50000000  0.00000000  0.95934000  1.0
  V  V4  1  0.50000000  0.50000000  0.11636000  1.0
  V  V5  1  0.50000000  0.50000000  0.95934000  1.0
  Ni  Ni6  4  0.25000000  0.25000000  0.95934000  1.0
  Ni  Ni7  4  0.27037000  0.25082000  0.11758000  1.0
  Ni  Ni8  2  0.22556000  0.00000000  0.04488000  1.0
  Ni  Ni9  2  0.22748000  0.50000000  0.04707000  1.0
  Ni  Ni10  2  0.25000000  0.00000000  0.87803000  1.0
  Ni  Ni11  2  0.25000000  0.50000000  0.87803000  1.0
  Sn  Sn12  2  0.50000000  0.24789000  0.03735000  1.0
  Sn  Sn13  2  0.50000000  0.25000000  0.87803000  1.0
  Sn  Sn14  1  0.00000000  0.00000000  0.13413000  1.0
  Sn  Sn15  1  0.00000000  0.00000000  0.95934000  1.0
  Sn  Sn16  1  0.00000000  0.50000000  0.13728000  1.0
  Sn  Sn17  1  0.00000000  0.50000000  0.95934000  1.0
  C  C18  1  0.50000000  0.00000000  0.19559000  1.0
  O  O19  1  0.50000000  0.00000000  0.23935000  1.0
