# generated using pymatgen
data_NbRu
_symmetry_space_group_name_H-M   'P 1'
_cell_length_a   3.17960500
_cell_length_b   3.17960500
_cell_length_c   24.76940000
_cell_angle_alpha   90.00000000
_cell_angle_beta   90.00000000
_cell_angle_gamma   90.00000000
_symmetry_Int_Tables_number   1
_chemical_formula_structural   NbRu
_chemical_formula_sum   'Nb2 Ru2'
_cell_volume   250.41585874
_cell_formula_units_Z   2
loop_
 _symmetry_equiv_pos_site_id
 _symmetry_equiv_pos_as_xyz
  1  'x, y, z'
loop_
 _atom_site_type_symbol
 _atom_site_label
 _atom_site_symmetry_multiplicity
 _atom_site_fract_x
 _atom_site_fract_y
 _atom_site_fract_z
 _atom_site_occupancy
  Nb  Nb0  1  0.50000000  0.50000000  0.03344000  1.0
  Nb  Nb1  1  0.50000000  0.50000000  0.90507000  1.0
  Ru  Ru2  1  0.00000000  0.00000000  0.09763000  1.0
  Ru  Ru3  1  0.00000000  0.00000000  0.96926000  1.0
