data_image0
_chemical_formula_structural       Li8Y8Cu8Ge8C
_chemical_formula_sum              "Li8 Y8 Cu8 Ge8 C1"
_cell_length_a       6.66034
_cell_length_b       9.41914
_cell_length_c       27.0644
_cell_angle_alpha    90
_cell_angle_beta     90
_cell_angle_gamma    90

_space_group_name_H-M_alt    "P 1"
_space_group_IT_number       1

loop_
  _space_group_symop_operation_xyz
  'x, y, z'

loop_
  _atom_site_type_symbol
  _atom_site_label
  _atom_site_symmetry_multiplicity
  _atom_site_fract_x
  _atom_site_fract_y
  _atom_site_fract_z
  _atom_site_occupancy
  Li  Li1       1.0  0.75000  0.00000  0.95650  1.0000
  Li  Li2       1.0  0.75000  0.50000  0.95650  1.0000
  Li  Li3       1.0  0.25000  0.25000  0.86949  1.0000
  Li  Li4       1.0  0.25000  0.75000  0.86949  1.0000
  Li  Li5       1.0  0.76587  0.48095  0.13150  1.0000
  Li  Li6       1.0  0.76580  0.01914  0.13157  1.0000
  Li  Li7       1.0  0.25111  0.74998  0.03988  1.0000
  Li  Li8       1.0  0.25591  0.24996  0.04372  1.0000
  Y   Y1        1.0  0.25000  0.00000  0.95650  1.0000
  Y   Y2        1.0  0.25000  0.50000  0.95650  1.0000
  Y   Y3        1.0  0.75000  0.25000  0.86949  1.0000
  Y   Y4        1.0  0.75000  0.75000  0.86949  1.0000
  Y   Y5        1.0  0.26787  0.53818  0.13695  1.0000
  Y   Y6        1.0  0.26766  0.96209  0.13694  1.0000
  Y   Y7        1.0  0.75219  0.75001  0.04623  1.0000
  Y   Y8        1.0  0.74550  0.24980  0.04729  1.0000
  Cu  Cu1       1.0  0.00000  0.00000  0.86949  1.0000
  Cu  Cu2       1.0  0.00000  0.50000  0.86949  1.0000
  Cu  Cu3       1.0  0.50000  0.75000  0.95650  1.0000
  Cu  Cu4       1.0  0.50000  0.25000  0.95650  1.0000
  Cu  Cu5       1.0  0.03510  0.49410  0.04904  1.0000
  Cu  Cu6       1.0  0.03521  0.00560  0.04902  1.0000
  Cu  Cu7       1.0  0.47534  0.25008  0.13801  1.0000
  Cu  Cu8       1.0  0.58888  0.75015  0.14429  1.0000
  Ge  Ge1       1.0  0.00000  0.25000  0.95650  1.0000
  Ge  Ge2       1.0  0.00000  0.75000  0.95650  1.0000
  Ge  Ge3       1.0  0.50000  0.50000  0.86949  1.0000
  Ge  Ge4       1.0  0.50000  0.00000  0.86949  1.0000
  Ge  Ge5       1.0  0.95962  0.75007  0.14326  1.0000
  Ge  Ge6       1.0  0.04505  0.25029  0.13236  1.0000
  Ge  Ge7       1.0  0.48727  0.99872  0.04684  1.0000
  Ge  Ge8       1.0  0.48752  0.50112  0.04681  1.0000
  C   C1        1.0  0.75929  0.25001  0.13835  1.0000
