# generated using pymatgen
data_Li8Y8Cu8Ge8C
_symmetry_space_group_name_H-M   'P 1'
_cell_length_a   6.66034000
_cell_length_b   9.41914000
_cell_length_c   27.06440000
_cell_angle_alpha   90.00000000
_cell_angle_beta   90.00000000
_cell_angle_gamma   90.00000000
_symmetry_Int_Tables_number   1
_chemical_formula_structural   Li8Y8Cu8Ge8C
_chemical_formula_sum   'Li8 Y8 Cu8 Ge8 C1'
_cell_volume   1697.87633557
_cell_formula_units_Z   1
loop_
 _symmetry_equiv_pos_site_id
 _symmetry_equiv_pos_as_xyz
  1  'x, y, z'
loop_
 _atom_site_type_symbol
 _atom_site_label
 _atom_site_symmetry_multiplicity
 _atom_site_fract_x
 _atom_site_fract_y
 _atom_site_fract_z
 _atom_site_occupancy
  Li  Li0  1  0.75000000  0.00000000  0.95650000  1.0
  Li  Li1  1  0.75000000  0.50000000  0.95650000  1.0
  Li  Li2  1  0.25000000  0.25000000  0.86949000  1.0
  Li  Li3  1  0.25000000  0.75000000  0.86949000  1.0
  Li  Li4  1  0.76587000  0.48095000  0.13150000  1.0
  Li  Li5  1  0.76580000  0.01914000  0.13157000  1.0
  Li  Li6  1  0.25111000  0.74998000  0.03988000  1.0
  Li  Li7  1  0.25591000  0.24996000  0.04372000  1.0
  Y  Y8  1  0.25000000  0.00000000  0.95650000  1.0
  Y  Y9  1  0.25000000  0.50000000  0.95650000  1.0
  Y  Y10  1  0.75000000  0.25000000  0.86949000  1.0
  Y  Y11  1  0.75000000  0.75000000  0.86949000  1.0
  Y  Y12  1  0.26787000  0.53818000  0.13695000  1.0
  Y  Y13  1  0.26766000  0.96209000  0.13694000  1.0
  Y  Y14  1  0.75219000  0.75001000  0.04623000  1.0
  Y  Y15  1  0.74550000  0.24980000  0.04729000  1.0
  Cu  Cu16  1  0.00000000  0.00000000  0.86949000  1.0
  Cu  Cu17  1  0.00000000  0.50000000  0.86949000  1.0
  Cu  Cu18  1  0.50000000  0.75000000  0.95650000  1.0
  Cu  Cu19  1  0.50000000  0.25000000  0.95650000  1.0
  Cu  Cu20  1  0.03510000  0.49410000  0.04904000  1.0
  Cu  Cu21  1  0.03521000  0.00560000  0.04902000  1.0
  Cu  Cu22  1  0.47534000  0.25008000  0.13801000  1.0
  Cu  Cu23  1  0.58888000  0.75015000  0.14429000  1.0
  Ge  Ge24  1  0.00000000  0.25000000  0.95650000  1.0
  Ge  Ge25  1  0.00000000  0.75000000  0.95650000  1.0
  Ge  Ge26  1  0.50000000  0.50000000  0.86949000  1.0
  Ge  Ge27  1  0.50000000  0.00000000  0.86949000  1.0
  Ge  Ge28  1  0.95962000  0.75007000  0.14326000  1.0
  Ge  Ge29  1  0.04505000  0.25029000  0.13236000  1.0
  Ge  Ge30  1  0.48727000  0.99872000  0.04684000  1.0
  Ge  Ge31  1  0.48752000  0.50112000  0.04681000  1.0
  C  C32  1  0.75929000  0.25001000  0.13835000  1.0
