# generated using pymatgen
data_Sc16Ni16C
_symmetry_space_group_name_H-M   'P 1'
_cell_length_a   9.00957000
_cell_length_b   6.37073000
_cell_length_c   26.75720000
_cell_angle_alpha   90.00000000
_cell_angle_beta   90.00000000
_cell_angle_gamma   90.00000000
_symmetry_Int_Tables_number   1
_chemical_formula_structural   Sc16Ni16C
_chemical_formula_sum   'Sc16 Ni16 C1'
_cell_volume   1535.79740073
_cell_formula_units_Z   1
loop_
 _symmetry_equiv_pos_site_id
 _symmetry_equiv_pos_as_xyz
  1  'x, y, z'
loop_
 _atom_site_type_symbol
 _atom_site_label
 _atom_site_symmetry_multiplicity
 _atom_site_fract_x
 _atom_site_fract_y
 _atom_site_fract_z
 _atom_site_occupancy
  Sc  Sc0  1  0.00000000  0.25000000  0.12627000  1.0
  Sc  Sc1  1  0.75001000  0.25000000  0.04209000  1.0
  Sc  Sc2  1  0.00000000  0.25009000  0.95544000  1.0
  Sc  Sc3  1  0.74856000  0.25000000  0.87064000  1.0
  Sc  Sc4  1  0.50000000  0.25000000  0.12627000  1.0
  Sc  Sc5  1  0.24999000  0.25000000  0.04209000  1.0
  Sc  Sc6  1  0.50000000  0.25001000  0.95874000  1.0
  Sc  Sc7  1  0.25144000  0.25000000  0.87064000  1.0
  Sc  Sc8  1  0.00000000  0.75000000  0.12627000  1.0
  Sc  Sc9  1  0.75001000  0.75000000  0.04209000  1.0
  Sc  Sc10  1  0.00000000  0.75000000  0.95924000  1.0
  Sc  Sc11  1  0.74620000  0.74999000  0.87074000  1.0
  Sc  Sc12  1  0.50000000  0.75000000  0.12627000  1.0
  Sc  Sc13  1  0.24999000  0.75000000  0.04209000  1.0
  Sc  Sc14  1  0.50000000  0.75004000  0.95847000  1.0
  Sc  Sc15  1  0.25380000  0.74999000  0.87074000  1.0
  Ni  Ni16  1  0.75001000  0.00000000  0.12627000  1.0
  Ni  Ni17  1  0.00000000  0.00000000  0.04209000  1.0
  Ni  Ni18  1  0.74843000  0.99836000  0.95517000  1.0
  Ni  Ni19  1  0.00000000  0.96255000  0.87778000  1.0
  Ni  Ni20  1  0.24999000  0.00000000  0.12627000  1.0
  Ni  Ni21  1  0.50000000  0.00000000  0.04209000  1.0
  Ni  Ni22  1  0.25157000  0.99836000  0.95517000  1.0
  Ni  Ni23  1  0.50000000  0.00070000  0.88296000  1.0
  Ni  Ni24  1  0.75001000  0.50000000  0.12627000  1.0
  Ni  Ni25  1  0.00000000  0.50000000  0.04209000  1.0
  Ni  Ni26  1  0.74846000  0.50153000  0.95517000  1.0
  Ni  Ni27  1  0.00000000  0.53734000  0.87780000  1.0
  Ni  Ni28  1  0.24999000  0.50000000  0.12627000  1.0
  Ni  Ni29  1  0.50000000  0.50000000  0.04209000  1.0
  Ni  Ni30  1  0.25154000  0.50153000  0.95517000  1.0
  Ni  Ni31  1  0.50000000  0.49926000  0.88295000  1.0
  C  C32  1  0.00000000  0.24993000  0.86775000  1.0
