# generated using pymatgen
data_Sc16Ni16C
_symmetry_space_group_name_H-M   Pm
_cell_length_a   6.37073000
_cell_length_b   9.00957000
_cell_length_c   26.75720000
_cell_angle_alpha   90.00000000
_cell_angle_beta   90.00000000
_cell_angle_gamma   90.00000000
_symmetry_Int_Tables_number   6
_chemical_formula_structural   Sc16Ni16C
_chemical_formula_sum   'Sc16 Ni16 C1'
_cell_volume   1535.79740073
_cell_formula_units_Z   1
loop_
 _symmetry_equiv_pos_site_id
 _symmetry_equiv_pos_as_xyz
  1  'x, y, z'
  2  'x, -y, z'
loop_
 _atom_site_type_symbol
 _atom_site_label
 _atom_site_symmetry_multiplicity
 _atom_site_fract_x
 _atom_site_fract_y
 _atom_site_fract_z
 _atom_site_occupancy
  Sc  Sc0  2  0.25000000  0.24999000  0.95791000  1.0
  Sc  Sc1  2  0.25000000  0.25144000  0.12936000  1.0
  Sc  Sc2  2  0.74999000  0.25380000  0.12926000  1.0
  Sc  Sc3  2  0.75000000  0.24999000  0.95791000  1.0
  Sc  Sc4  1  0.25000000  0.00000000  0.87373000  1.0
  Sc  Sc5  1  0.25000000  0.50000000  0.87373000  1.0
  Sc  Sc6  1  0.25001000  0.50000000  0.04126000  1.0
  Sc  Sc7  1  0.25009000  0.00000000  0.04456000  1.0
  Sc  Sc8  1  0.75000000  0.00000000  0.04076000  1.0
  Sc  Sc9  1  0.75000000  0.00000000  0.87373000  1.0
  Sc  Sc10  1  0.75000000  0.50000000  0.87373000  1.0
  Sc  Sc11  1  0.75004000  0.50000000  0.04153000  1.0
  Ni  Ni12  2  0.00000000  0.24999000  0.87373000  1.0
  Ni  Ni13  2  0.50000000  0.24999000  0.87373000  1.0
  Ni  Ni14  2  0.50153000  0.25154000  0.04483000  1.0
  Ni  Ni15  2  0.99836000  0.25157000  0.04483000  1.0
  Ni  Ni16  1  0.00000000  0.00000000  0.95791000  1.0
  Ni  Ni17  1  0.00000000  0.50000000  0.95791000  1.0
  Ni  Ni18  1  0.00070000  0.50000000  0.11704000  1.0
  Ni  Ni19  1  0.49926000  0.50000000  0.11705000  1.0
  Ni  Ni20  1  0.50000000  0.00000000  0.95791000  1.0
  Ni  Ni21  1  0.50000000  0.50000000  0.95791000  1.0
  Ni  Ni22  1  0.53734000  0.00000000  0.12220000  1.0
  Ni  Ni23  1  0.96255000  0.00000000  0.12222000  1.0
  C  C24  1  0.24993000  0.00000000  0.13225000  1.0
