# generated using pymatgen
data_Li4In4Ir4Pd4CO
_symmetry_space_group_name_H-M   'P 1'
_cell_length_a   6.33559000
_cell_length_b   6.33559000
_cell_length_c   24.75170000
_cell_angle_alpha   90.00000000
_cell_angle_beta   90.00000000
_cell_angle_gamma   90.00000000
_symmetry_Int_Tables_number   1
_chemical_formula_structural   Li4In4Ir4Pd4CO
_chemical_formula_sum   'Li4 In4 Ir4 Pd4 C1 O1'
_cell_volume   993.52582853
_cell_formula_units_Z   1
loop_
 _symmetry_equiv_pos_site_id
 _symmetry_equiv_pos_as_xyz
  1  'x, y, z'
loop_
 _atom_site_type_symbol
 _atom_site_label
 _atom_site_symmetry_multiplicity
 _atom_site_fract_x
 _atom_site_fract_y
 _atom_site_fract_z
 _atom_site_occupancy
  Li  Li0  1  0.50000000  0.50000000  0.09985000  1
  Li  Li1  1  0.00000000  0.50000000  0.96800000  1
  Li  Li2  1  0.50000000  1.00000000  0.96800000  1
  Li  Li3  1  0.00000000  0.00000000  0.09546000  1
  In  In4  1  0.00000000  0.50000000  0.09707000  1
  In  In5  1  0.50000000  0.50000000  0.96800000  1
  In  In6  1  0.00000000  0.00000000  0.96800000  1
  In  In7  1  0.50000000  1.00000000  0.09707000  1
  Ir  Ir8  1  0.74934500  0.74934500  0.03593000  1
  Ir  Ir9  1  0.25000000  0.75000000  0.90401000  1
  Ir  Ir10  1  0.75000000  0.25000000  0.90401000  1
  Ir  Ir11  1  0.25065500  0.25065500  0.03593000  1
  Pd  Pd12  1  0.74927000  0.25073000  0.03360000  1
  Pd  Pd13  1  0.25000000  0.25000000  0.90401000  1
  Pd  Pd14  1  0.75000000  0.75000000  0.90401000  1
  Pd  Pd15  1  0.25073000  0.74927000  0.03360000  1
  C  C16  1  0.50000000  0.50000000  0.18676000  1
  O  O17  1  0.50000000  0.50000000  0.23285000  1
