# generated using pymatgen
data_TiFe2Sn
_symmetry_space_group_name_H-M   Pmm2
_cell_length_a   4.25801500
_cell_length_b   6.02174000
_cell_length_c   26.38700000
_cell_angle_alpha   90.00000000
_cell_angle_beta   90.00000000
_cell_angle_gamma   90.00000000
_symmetry_Int_Tables_number   25
_chemical_formula_structural   TiFe2Sn
_chemical_formula_sum   'Ti4 Fe8 Sn4'
_cell_volume   676.58007553
_cell_formula_units_Z   4
loop_
 _symmetry_equiv_pos_site_id
 _symmetry_equiv_pos_as_xyz
  1  'x, y, z'
  2  '-x, -y, z'
  3  '-x, y, z'
  4  'x, -y, z'
loop_
 _atom_site_type_symbol
 _atom_site_label
 _atom_site_symmetry_multiplicity
 _atom_site_fract_x
 _atom_site_fract_y
 _atom_site_fract_z
 _atom_site_occupancy
  Ti  Ti0  1  0.00000000  0.00000000  0.12103000  1.0
  Ti  Ti1  1  0.00000000  0.00000000  0.95719000  1.0
  Ti  Ti2  1  0.50000000  0.50000000  0.04034000  1.0
  Ti  Ti3  1  0.50000000  0.50000000  0.87916000  1.0
  Fe  Fe4  2  0.00000000  0.25000000  0.04034000  1.0
  Fe  Fe5  2  0.00000000  0.25500000  0.87785000  1.0
  Fe  Fe6  2  0.50000000  0.24489000  0.95580000  1.0
  Fe  Fe7  2  0.50000000  0.25000000  0.12103000  1.0
  Sn  Sn8  1  0.00000000  0.50000000  0.12103000  1.0
  Sn  Sn9  1  0.00000000  0.50000000  0.95989500  1.0
  Sn  Sn10  1  0.50000000  0.00000000  0.04034000  1.0
  Sn  Sn11  1  0.50000000  0.00000000  0.86583500  1.0
