# generated using pymatgen
data_Li8Sc8Ga8Pd8CO
_symmetry_space_group_name_H-M   P1
_cell_length_a   6.35289000
_cell_length_b   8.98434000
_cell_length_c   26.73830000
_cell_angle_alpha   90.00000000
_cell_angle_beta   90.00000000
_cell_angle_gamma   90.00000000
_symmetry_Int_Tables_number   1
_chemical_formula_structural   Li8Sc8Ga8Pd8CO
_chemical_formula_sum   'Li8 Sc8 Ga8 Pd8 C1 O1'
_cell_volume   1526.12921479
_cell_formula_units_Z   1
loop_
 _symmetry_equiv_pos_site_id
 _symmetry_equiv_pos_as_xyz
  1  'x, y, z'
loop_
 _atom_site_type_symbol
 _atom_site_label
 _atom_site_symmetry_multiplicity
 _atom_site_fract_x
 _atom_site_fract_y
 _atom_site_fract_z
 _atom_site_occupancy
  Li  Li0  1  0.23161000  0.25000000  0.04324000  1.0
  Li  Li1  1  0.24435000  0.75000000  0.04400000  1.0
  Li  Li2  1  0.25000000  0.25000000  0.87400000  1.0
  Li  Li3  1  0.25000000  0.75000000  0.87400000  1.0
  Li  Li4  1  0.57104000  0.02196000  0.18671000  1.0
  Li  Li5  1  0.57107000  0.47809000  0.18669000  1.0
  Li  Li6  1  0.75000000  0.00000000  0.95800000  1.0
  Li  Li7  1  0.75000000  0.50000000  0.95800000  1.0
  Sc  Sc8  1  0.00000000  0.25000000  0.95800000  1.0
  Sc  Sc9  1  0.00000000  0.75000000  0.95800000  1.0
  Sc  Sc10  1  0.50000000  0.00000000  0.87400000  1.0
  Sc  Sc11  1  0.50000000  0.50000000  0.87400000  1.0
  Sc  Sc12  1  0.51833000  0.50111000  0.05127000  1.0
  Sc  Sc13  1  0.51833000  0.99889000  0.05127000  1.0
  Sc  Sc14  1  0.93847000  0.25001000  0.12705000  1.0
  Sc  Sc15  1  0.94637000  0.74999000  0.12420000  1.0
  Ga  Ga16  1  0.00000000  0.00000000  0.87400000  1.0
  Ga  Ga17  1  0.00000000  0.50000000  0.87400000  1.0
  Ga  Ga18  1  0.47026000  0.75000000  0.13176000  1.0
  Ga  Ga19  1  0.47332000  0.25000000  0.12148000  1.0
  Ga  Ga20  1  0.50000000  0.25000000  0.95800000  1.0
  Ga  Ga21  1  0.50000000  0.75000000  0.95800000  1.0
  Ga  Ga22  1  0.99374000  0.00043000  0.04136000  1.0
  Ga  Ga23  1  0.99376000  0.49957000  0.04136000  1.0
  Pd  Pd24  1  0.23035000  0.50298000  0.12142000  1.0
  Pd  Pd25  1  0.23035000  0.99701000  0.12142000  1.0
  Pd  Pd26  1  0.25000000  0.00000000  0.95800000  1.0
  Pd  Pd27  1  0.25000000  0.50000000  0.95800000  1.0
  Pd  Pd28  1  0.74632000  0.25000000  0.03694000  1.0
  Pd  Pd29  1  0.74762000  0.75000000  0.03842000  1.0
  Pd  Pd30  1  0.75000000  0.25000000  0.87400000  1.0
  Pd  Pd31  1  0.75000000  0.75000000  0.87400000  1.0
  C  C32  1  0.72347000  0.24999000  0.18943000  1.0
  O  O33  1  0.63417000  0.24989000  0.23035000  1.0
