# generated using pymatgen
data_Mg16Au16C
_symmetry_space_group_name_H-M   'P 1'
_cell_length_a   6.67495000
_cell_length_b   9.43980000
_cell_length_c   27.07990000
_cell_angle_alpha   90.00000000
_cell_angle_beta   90.00000000
_cell_angle_gamma   90.00000000
_symmetry_Int_Tables_number   1
_chemical_formula_structural   Mg16Au16C
_chemical_formula_sum   'Mg16 Au16 C1'
_cell_volume   1706.30972569
_cell_formula_units_Z   1
loop_
 _symmetry_equiv_pos_site_id
 _symmetry_equiv_pos_as_xyz
  1  'x, y, z'
loop_
 _atom_site_type_symbol
 _atom_site_label
 _atom_site_symmetry_multiplicity
 _atom_site_fract_x
 _atom_site_fract_y
 _atom_site_fract_z
 _atom_site_occupancy
  Mg  Mg0  1  0.25000000  0.25000000  0.86928000  1.0
  Mg  Mg1  1  0.25000000  0.50000000  0.95643000  1.0
  Mg  Mg2  1  0.24760000  0.24950000  0.04432000  1.0
  Mg  Mg3  1  0.29540000  0.00000000  0.13280000  1.0
  Mg  Mg4  1  0.25000000  0.75000000  0.86928000  1.0
  Mg  Mg5  1  0.25000000  0.00000000  0.95643000  1.0
  Mg  Mg6  1  0.24760000  0.75050000  0.04432000  1.0
  Mg  Mg7  1  0.23233000  0.50000000  0.13203000  1.0
  Mg  Mg8  1  0.75000000  0.25000000  0.86928000  1.0
  Mg  Mg9  1  0.75000000  0.50000000  0.95643000  1.0
  Mg  Mg10  1  0.75240000  0.24950000  0.04432000  1.0
  Mg  Mg11  1  0.70460000  0.00000000  0.13280000  1.0
  Mg  Mg12  1  0.75000000  0.75000000  0.86928000  1.0
  Mg  Mg13  1  0.75000000  0.00000000  0.95643000  1.0
  Mg  Mg14  1  0.75240000  0.75050000  0.04432000  1.0
  Mg  Mg15  1  0.76767000  0.50000000  0.13203000  1.0
  Au  Au16  1  0.00000000  0.00000000  0.86928000  1.0
  Au  Au17  1  0.00000000  0.25000000  0.95643000  1.0
  Au  Au18  1  0.00000000  0.00000000  0.04237000  1.0
  Au  Au19  1  0.00000000  0.23576000  0.13077000  1.0
  Au  Au20  1  0.00000000  0.50000000  0.86928000  1.0
  Au  Au21  1  0.00000000  0.75000000  0.95643000  1.0
  Au  Au22  1  0.00000000  0.50000000  0.04254000  1.0
  Au  Au23  1  0.00000000  0.76424000  0.13077000  1.0
  Au  Au24  1  0.50000000  0.00000000  0.86928000  1.0
  Au  Au25  1  0.50000000  0.25000000  0.95643000  1.0
  Au  Au26  1  0.50000000  0.00000000  0.04045000  1.0
  Au  Au27  1  0.50000000  0.26423000  0.12902000  1.0
  Au  Au28  1  0.50000000  0.50000000  0.86928000  1.0
  Au  Au29  1  0.50000000  0.75000000  0.95643000  1.0
  Au  Au30  1  0.50000000  0.50000000  0.04296000  1.0
  Au  Au31  1  0.50000000  0.73577000  0.12902000  1.0
  C  C32  1  0.00000000  0.00000000  0.15033000  1.0
