# generated using pymatgen
data_Mg16Au16C
_symmetry_space_group_name_H-M   Pmm2
_cell_length_a   6.67495000
_cell_length_b   9.43980000
_cell_length_c   27.07990000
_cell_angle_alpha   90.00000000
_cell_angle_beta   90.00000000
_cell_angle_gamma   90.00000000
_symmetry_Int_Tables_number   25
_chemical_formula_structural   Mg16Au16C
_chemical_formula_sum   'Mg16 Au16 C1'
_cell_volume   1706.30972569
_cell_formula_units_Z   1
loop_
 _symmetry_equiv_pos_site_id
 _symmetry_equiv_pos_as_xyz
  1  'x, y, z'
  2  '-x, -y, z'
  3  '-x, y, z'
  4  'x, -y, z'
loop_
 _atom_site_type_symbol
 _atom_site_label
 _atom_site_symmetry_multiplicity
 _atom_site_fract_x
 _atom_site_fract_y
 _atom_site_fract_z
 _atom_site_occupancy
  Mg  Mg0  4  0.24760000  0.24950000  0.04432000  1.0
  Mg  Mg1  4  0.25000000  0.25000000  0.86928000  1.0
  Mg  Mg2  2  0.23233000  0.50000000  0.13203000  1.0
  Mg  Mg3  2  0.25000000  0.00000000  0.95643000  1.0
  Mg  Mg4  2  0.25000000  0.50000000  0.95643000  1.0
  Mg  Mg5  2  0.29540000  0.00000000  0.13280000  1.0
  Au  Au6  2  0.00000000  0.23576000  0.13077000  1.0
  Au  Au7  2  0.00000000  0.25000000  0.95643000  1.0
  Au  Au8  2  0.50000000  0.25000000  0.95643000  1.0
  Au  Au9  2  0.50000000  0.26423000  0.12902000  1.0
  Au  Au10  1  0.00000000  0.00000000  0.04237000  1.0
  Au  Au11  1  0.00000000  0.00000000  0.86928000  1.0
  Au  Au12  1  0.00000000  0.50000000  0.04254000  1.0
  Au  Au13  1  0.00000000  0.50000000  0.86928000  1.0
  Au  Au14  1  0.50000000  0.00000000  0.04045000  1.0
  Au  Au15  1  0.50000000  0.00000000  0.86928000  1.0
  Au  Au16  1  0.50000000  0.50000000  0.04296000  1.0
  Au  Au17  1  0.50000000  0.50000000  0.86928000  1.0
  C  C18  1  0.00000000  0.00000000  0.15033000  1.0
