# generated using pymatgen
data_Ca4Pb12CO
_symmetry_space_group_name_H-M   Pm
_cell_length_a   10.04260000
_cell_length_b   7.10117000
_cell_length_c   25.32590000
_cell_angle_alpha   90.00000000
_cell_angle_beta   90.00000000
_cell_angle_gamma   90.00000000
_symmetry_Int_Tables_number   6
_chemical_formula_structural   Ca4Pb12CO
_chemical_formula_sum   'Ca4 Pb12 C1 O1'
_cell_volume   1806.09654704
_cell_formula_units_Z   1
loop_
 _symmetry_equiv_pos_site_id
 _symmetry_equiv_pos_as_xyz
  1  'x, y, z'
  2  'x, -y, z'
loop_
 _atom_site_type_symbol
 _atom_site_label
 _atom_site_symmetry_multiplicity
 _atom_site_fract_x
 _atom_site_fract_y
 _atom_site_fract_z
 _atom_site_occupancy
  Ca  Ca0  1  -0.00000000  0.50000000  0.96495000  1.0
  Ca  Ca1  1  0.49999000  0.00000000  0.09410000  1.0
  Ca  Ca2  1  0.50000000  0.50000000  0.96495000  1.0
  Ca  Ca3  1  0.99999000  0.00000000  0.09442000  1.0
  Pb  Pb4  2  0.24940000  0.26083000  0.03605000  1.0
  Pb  Pb5  2  0.25000000  0.24998000  0.89485000  1.0
  Pb  Pb6  2  0.75000000  0.24998000  0.89485000  1.0
  Pb  Pb7  2  0.75060000  0.26081000  0.03606000  1.0
  Pb  Pb8  1  0.00000000  0.00000000  0.96495000  1.0
  Pb  Pb9  1  0.50000000  0.00000000  0.96495000  1.0
  Pb  Pb10  1  0.50001000  0.50000000  0.09977000  1.0
  Pb  Pb11  1  0.99999000  0.50000000  0.10071000  1.0
  C  C12  1  0.00007000  0.50000000  0.27266000  1.0
  O  O13  1  0.99999000  0.50000000  0.31750000  1.0
