# generated using pymatgen
data_Li4Al4Ge4Pd4CO
_symmetry_space_group_name_H-M   Pm
_cell_length_a   5.46300000
_cell_length_b   8.09626000
_cell_length_c   24.08560000
_cell_angle_alpha   90.00000000
_cell_angle_beta   90.00000000
_cell_angle_gamma   90.00000000
_symmetry_Int_Tables_number   6
_chemical_formula_structural   Li4Al4Ge4Pd4CO
_chemical_formula_sum   'Li4 Al4 Ge4 Pd4 C1 O1'
_cell_volume   1065.30291785
_cell_formula_units_Z   1
loop_
 _symmetry_equiv_pos_site_id
 _symmetry_equiv_pos_as_xyz
  1  'x, y, z'
  2  'x, -y, z'
loop_
 _atom_site_type_symbol
 _atom_site_label
 _atom_site_symmetry_multiplicity
 _atom_site_fract_x
 _atom_site_fract_y
 _atom_site_fract_z
 _atom_site_occupancy
  Li  Li0  2  0.19356000  0.25000000  0.91519000  1.0
  Li  Li1  2  0.72663000  0.24543000  0.03056000  1.0
  Al  Al2  1  0.46237000  0.00000000  0.97173000  1.0
  Al  Al3  1  0.46237000  0.50000000  0.97173000  1.0
  Al  Al4  1  0.97793000  0.00000000  0.08094000  1.0
  Al  Al5  1  0.98499000  0.50000000  0.07893000  1.0
  Ge  Ge6  2  0.23030000  0.24227000  0.03851000  1.0
  Ge  Ge7  2  0.69356000  0.25000000  0.91519000  1.0
  Pd  Pd8  1  0.50031000  0.50000000  0.07574000  1.0
  Pd  Pd9  1  0.50143000  0.00000000  0.09148000  1.0
  Pd  Pd10  1  0.96237000  0.00000000  0.97173000  1.0
  Pd  Pd11  1  0.96237000  0.50000000  0.97173000  1.0
  C  C12  1  0.51019000  0.00000000  0.17359000  1.0
  O  O13  1  0.50847000  0.00000000  0.22130000  1.0
