# generated using pymatgen
data_Li16In8Pt8C
_symmetry_space_group_name_H-M   'P 1'
_cell_length_a   9.09870000
_cell_length_b   6.43375000
_cell_length_c   26.82400000
_cell_angle_alpha   90.00000000
_cell_angle_beta   90.00000000
_cell_angle_gamma   90.00000000
_symmetry_Int_Tables_number   1
_chemical_formula_structural   Li16In8Pt8C
_chemical_formula_sum   'Li16 In8 Pt8 C1'
_cell_volume   1570.24372842
_cell_formula_units_Z   1
loop_
 _symmetry_equiv_pos_site_id
 _symmetry_equiv_pos_as_xyz
  1  'x, y, z'
loop_
 _atom_site_type_symbol
 _atom_site_label
 _atom_site_symmetry_multiplicity
 _atom_site_fract_x
 _atom_site_fract_y
 _atom_site_fract_z
 _atom_site_occupancy
  Li  Li0  1  0.50000000  1.00000000  0.04240000  1.0
  Li  Li1  1  0.75000000  0.50000000  0.12720000  1.0
  Li  Li2  1  0.00000000  0.00000000  0.04240000  1.0
  Li  Li3  1  0.25000000  0.50000000  0.12720000  1.0
  Li  Li4  1  0.00000000  0.25000000  0.12720000  1.0
  Li  Li5  1  0.50000000  0.25000000  0.12720000  1.0
  Li  Li6  1  0.25000000  0.75000000  0.04240000  1.0
  Li  Li7  1  0.75000000  0.75000000  0.04240000  1.0
  Li  Li8  1  0.00000000  0.99899000  0.84990000  1.0
  Li  Li9  1  0.24146000  0.48795000  0.95505000  1.0
  Li  Li10  1  0.50000000  0.93031000  0.86755000  1.0
  Li  Li11  1  0.75854000  0.48795000  0.95505000  1.0
  Li  Li12  1  0.50000000  0.24959000  0.95806000  1.0
  Li  Li13  1  0.00000000  0.23350000  0.96272000  1.0
  Li  Li14  1  0.76637000  0.71168000  0.86886000  1.0
  Li  Li15  1  0.23363000  0.71168000  0.86886000  1.0
  In  In16  1  0.75000000  0.25000000  0.04240000  1.0
  In  In17  1  0.25000000  0.25000000  0.04240000  1.0
  In  In18  1  0.50000000  0.75000000  0.12720000  1.0
  In  In19  1  0.00000000  0.75000000  0.12720000  1.0
  In  In20  1  0.26915000  0.22316000  0.86732000  1.0
  In  In21  1  0.73085000  0.22316000  0.86732000  1.0
  In  In22  1  0.00000000  0.77001000  0.95712000  1.0
  In  In23  1  0.50000000  0.74709000  0.95876000  1.0
  Pt  Pt24  1  0.75000000  0.00000000  0.12720000  1.0
  Pt  Pt25  1  0.00000000  0.50000000  0.04240000  1.0
  Pt  Pt26  1  0.50000000  0.50000000  0.04240000  1.0
  Pt  Pt27  1  0.25000000  0.00000000  0.12720000  1.0
  Pt  Pt28  1  0.25679000  0.00204000  0.95857000  1.0
  Pt  Pt29  1  0.50000000  0.49205000  0.88009000  1.0
  Pt  Pt30  1  0.00000000  0.41019000  0.87846000  1.0
  Pt  Pt31  1  0.74321000  0.00204000  0.95857000  1.0
  C  C32  1  0.00000000  0.70217000  0.87151000  1.0
