# generated using pymatgen
data_Ga8Fe8Co16C
_symmetry_space_group_name_H-M   'P 1'
_cell_length_a   5.74310000
_cell_length_b   8.12197000
_cell_length_c   26.09150000
_cell_angle_alpha   90.00000000
_cell_angle_beta   90.00000000
_cell_angle_gamma   90.00000000
_symmetry_Int_Tables_number   1
_chemical_formula_structural   Ga8Fe8Co16C
_chemical_formula_sum   'Ga8 Fe8 Co16 C1'
_cell_volume   1217.04547724
_cell_formula_units_Z   1
loop_
 _symmetry_equiv_pos_site_id
 _symmetry_equiv_pos_as_xyz
  1  'x, y, z'
loop_
 _atom_site_type_symbol
 _atom_site_label
 _atom_site_symmetry_multiplicity
 _atom_site_fract_x
 _atom_site_fract_y
 _atom_site_fract_z
 _atom_site_occupancy
  Ga  Ga0  1  0.00000000  0.00000000  0.88327000  1.0
  Ga  Ga1  1  0.50000000  0.25000000  0.96109000  1.0
  Ga  Ga2  1  0.50000000  0.75000000  0.96109000  1.0
  Ga  Ga3  1  0.00000000  0.50000000  0.88327000  1.0
  Ga  Ga4  1  0.00000000  0.50000000  0.03830000  1.0
  Ga  Ga5  1  0.50000000  0.74264000  0.12394000  1.0
  Ga  Ga6  1  0.50000000  0.25736000  0.12394000  1.0
  Ga  Ga7  1  0.00000000  0.00000000  0.03854000  1.0
  Fe  Fe8  1  0.00000000  0.75000000  0.96109000  1.0
  Fe  Fe9  1  0.50000000  0.00000000  0.88327000  1.0
  Fe  Fe10  1  0.00000000  0.25000000  0.96109000  1.0
  Fe  Fe11  1  0.50000000  0.50000000  0.88327000  1.0
  Fe  Fe12  1  0.00000000  0.24692000  0.11788000  1.0
  Fe  Fe13  1  0.50000000  0.50000000  0.04006000  1.0
  Fe  Fe14  1  0.00000000  0.75308000  0.11788000  1.0
  Fe  Fe15  1  0.50000000  0.00000000  0.03590000  1.0
  Co  Co16  1  0.25000000  0.00000000  0.96109000  1.0
  Co  Co17  1  0.75000000  0.50000000  0.96109000  1.0
  Co  Co18  1  0.75000000  0.00000000  0.96109000  1.0
  Co  Co19  1  0.25000000  0.50000000  0.96109000  1.0
  Co  Co20  1  0.75000000  0.75000000  0.88327000  1.0
  Co  Co21  1  0.25000000  0.25000000  0.88327000  1.0
  Co  Co22  1  0.25000000  0.75000000  0.88327000  1.0
  Co  Co23  1  0.75000000  0.25000000  0.88327000  1.0
  Co  Co24  1  0.24501000  0.50000000  0.11470000  1.0
  Co  Co25  1  0.72155000  0.00000000  0.11438000  1.0
  Co  Co26  1  0.75499000  0.50000000  0.11470000  1.0
  Co  Co27  1  0.27845000  0.00000000  0.11438000  1.0
  Co  Co28  1  0.74848000  0.24833000  0.04067000  1.0
  Co  Co29  1  0.25152000  0.75167000  0.04067000  1.0
  Co  Co30  1  0.25152000  0.24833000  0.04067000  1.0
  Co  Co31  1  0.74848000  0.75167000  0.04067000  1.0
  C  C32  1  0.00000000  0.00000000  0.14198000  1.0
