# generated using pymatgen
data_Y8In8Pd8Au8C
_symmetry_space_group_name_H-M   'P 1'
_cell_length_a   9.80272000
_cell_length_b   6.93157000
_cell_length_c   27.35200000
_cell_angle_alpha   90.00000000
_cell_angle_beta   90.00000000
_cell_angle_gamma   90.00000000
_symmetry_Int_Tables_number   1
_chemical_formula_structural   Y8In8Pd8Au8C
_chemical_formula_sum   'Y8 In8 Pd8 Au8 C1'
_cell_volume   1858.52025694
_cell_formula_units_Z   1
loop_
 _symmetry_equiv_pos_site_id
 _symmetry_equiv_pos_as_xyz
  1  'x, y, z'
loop_
 _atom_site_type_symbol
 _atom_site_label
 _atom_site_symmetry_multiplicity
 _atom_site_fract_x
 _atom_site_fract_y
 _atom_site_fract_z
 _atom_site_occupancy
  Y  Y0  1  0.00000000  0.75000000  0.04480000  1.0
  Y  Y1  1  0.50000000  0.75000000  0.04480000  1.0
  Y  Y2  1  0.24998000  0.25000000  0.13440000  1.0
  Y  Y3  1  0.75002000  0.25000000  0.13440000  1.0
  Y  Y4  1  0.50000000  0.70932000  0.86896000  1.0
  Y  Y5  1  0.00000000  0.71853000  0.86805000  1.0
  Y  Y6  1  0.75395000  0.25447000  0.94998000  1.0
  Y  Y7  1  0.24605000  0.25447000  0.94998000  1.0
  In  In8  1  0.00000000  0.25000000  0.04480000  1.0
  In  In9  1  0.50000000  0.25000000  0.04480000  1.0
  In  In10  1  0.24998000  0.75000000  0.13440000  1.0
  In  In11  1  0.75002000  0.75000000  0.13440000  1.0
  In  In12  1  0.50000000  0.23731000  0.85970000  1.0
  In  In13  1  0.00000000  0.12084000  0.82045000  1.0
  In  In14  1  0.74836000  0.74543000  0.95362000  1.0
  In  In15  1  0.25164000  0.74543000  0.95362000  1.0
  Pd  Pd16  1  0.24998000  0.00000000  0.04480000  1.0
  Pd  Pd17  1  0.75002000  0.00000000  0.04480000  1.0
  Pd  Pd18  1  0.50000000  0.50000000  0.13440000  1.0
  Pd  Pd19  1  0.00000000  0.50000000  0.13440000  1.0
  Pd  Pd20  1  0.73893000  0.98129000  0.86881000  1.0
  Pd  Pd21  1  0.26107000  0.98129000  0.86881000  1.0
  Pd  Pd22  1  0.00000000  0.50785000  0.96210000  1.0
  Pd  Pd23  1  0.50000000  0.49495000  0.95795000  1.0
  Au  Au24  1  0.00000000  0.00000000  0.13440000  1.0
  Au  Au25  1  0.50000000  0.00000000  0.13440000  1.0
  Au  Au26  1  0.74998000  0.50000000  0.04480000  1.0
  Au  Au27  1  0.25002000  0.50000000  0.04480000  1.0
  Au  Au28  1  0.50000000  0.00561000  0.95215000  1.0
  Au  Au29  1  0.00000000  0.99986000  0.95435000  1.0
  Au  Au30  1  0.23018000  0.41899000  0.85108000  1.0
  Au  Au31  1  0.76982000  0.41899000  0.85108000  1.0
  C  C32  1  0.00000000  0.42783000  0.83272000  1.0
