# generated using pymatgen
data_Y8In8Ge8Pd8CO
_symmetry_space_group_name_H-M   'P 1'
_cell_length_a   7.93684000
_cell_length_b   8.87204000
_cell_length_c   27.08770000
_cell_angle_alpha   90.00000000
_cell_angle_beta   90.00000000
_cell_angle_gamma   90.00000000
_symmetry_Int_Tables_number   1
_chemical_formula_structural   Y8In8Ge8Pd8CO
_chemical_formula_sum   'Y8 In8 Ge8 Pd8 C1 O1'
_cell_volume   1907.40645261
_cell_formula_units_Z   1
loop_
 _symmetry_equiv_pos_site_id
 _symmetry_equiv_pos_as_xyz
  1  'x, y, z'
loop_
 _atom_site_type_symbol
 _atom_site_label
 _atom_site_symmetry_multiplicity
 _atom_site_fract_x
 _atom_site_fract_y
 _atom_site_fract_z
 _atom_site_occupancy
  Y  Y0  1  0.25000000  0.25000000  0.13083000  1.0
  Y  Y1  1  0.25000000  0.25000000  0.95639000  1.0
  Y  Y2  1  0.25000000  0.75000000  0.13083000  1.0
  Y  Y3  1  0.25000000  0.75000000  0.95639000  1.0
  Y  Y4  1  0.75000000  0.25000000  0.13083000  1.0
  Y  Y5  1  0.75000000  0.25000000  0.95639000  1.0
  Y  Y6  1  0.75000000  0.75000000  0.13083000  1.0
  Y  Y7  1  0.75000000  0.75000000  0.95639000  1.0
  In  In8  1  0.25000000  0.00000000  0.04361000  1.0
  In  In9  1  0.25000000  0.00000000  0.86917000  1.0
  In  In10  1  0.25000000  0.50000000  0.04361000  1.0
  In  In11  1  0.25000000  0.50000000  0.86917000  1.0
  In  In12  1  0.75000000  0.00000000  0.04361000  1.0
  In  In13  1  0.75000000  0.00000000  0.86917000  1.0
  In  In14  1  0.75000000  0.50000000  0.04361000  1.0
  In  In15  1  0.75000000  0.50000000  0.86917000  1.0
  Ge  Ge16  1  0.00000000  0.00000000  0.13083000  1.0
  Ge  Ge17  1  0.00000000  0.00000000  0.95639000  1.0
  Ge  Ge18  1  0.00000000  0.50000000  0.13083000  1.0
  Ge  Ge19  1  0.00000000  0.50000000  0.95639000  1.0
  Ge  Ge20  1  0.50000000  0.00000000  0.13083000  1.0
  Ge  Ge21  1  0.50000000  0.00000000  0.95639000  1.0
  Ge  Ge22  1  0.50000000  0.50000000  0.13083000  1.0
  Ge  Ge23  1  0.50000000  0.50000000  0.95639000  1.0
  Pd  Pd24  1  0.00000000  0.25000000  0.04361000  1.0
  Pd  Pd25  1  0.00000000  0.25000000  0.86917000  1.0
  Pd  Pd26  1  0.00000000  0.75000000  0.04361000  1.0
  Pd  Pd27  1  0.00000000  0.75000000  0.86917000  1.0
  Pd  Pd28  1  0.50000000  0.25000000  0.04361000  1.0
  Pd  Pd29  1  0.50000000  0.25000000  0.86917000  1.0
  Pd  Pd30  1  0.50000000  0.75000000  0.04361000  1.0
  Pd  Pd31  1  0.50000000  0.75000000  0.86917000  1.0
  C  C32  1  0.00000000  0.00000000  0.20097000  1.0
  O  O33  1  0.00000000  0.00000000  0.24343000  1.0
