# generated using pymatgen
data_Hf16Ru16CO
_symmetry_space_group_name_H-M   'P 1'
_cell_length_a   6.47981000
_cell_length_b   9.16384000
_cell_length_c   26.87290000
_cell_angle_alpha   90.00000000
_cell_angle_beta   90.00000000
_cell_angle_gamma   90.00000000
_symmetry_Int_Tables_number   1
_chemical_formula_structural   Hf16Ru16CO
_chemical_formula_sum   'Hf16 Ru16 C1 O1'
_cell_volume   1595.71124526
_cell_formula_units_Z   1
loop_
 _symmetry_equiv_pos_site_id
 _symmetry_equiv_pos_as_xyz
  1  'x, y, z'
loop_
 _atom_site_type_symbol
 _atom_site_label
 _atom_site_symmetry_multiplicity
 _atom_site_fract_x
 _atom_site_fract_y
 _atom_site_fract_z
 _atom_site_occupancy
  Hf  Hf0  1  0.75000000  0.00000000  0.87212000  1.0
  Hf  Hf1  1  0.75000000  0.25000000  0.95737000  1.0
  Hf  Hf2  1  0.74662000  0.00000000  0.04320000  1.0
  Hf  Hf3  1  0.74847000  0.25068000  0.12897000  1.0
  Hf  Hf4  1  0.75000000  0.50000000  0.87212000  1.0
  Hf  Hf5  1  0.75000000  0.75000000  0.95737000  1.0
  Hf  Hf6  1  0.75064000  0.50000000  0.04402000  1.0
  Hf  Hf7  1  0.74847000  0.74932000  0.12897000  1.0
  Hf  Hf8  1  0.25000000  0.00000000  0.87212000  1.0
  Hf  Hf9  1  0.25000000  0.25000000  0.95737000  1.0
  Hf  Hf10  1  0.25338000  0.00000000  0.04320000  1.0
  Hf  Hf11  1  0.25153000  0.25068000  0.12897000  1.0
  Hf  Hf12  1  0.25000000  0.50000000  0.87212000  1.0
  Hf  Hf13  1  0.25000000  0.75000000  0.95737000  1.0
  Hf  Hf14  1  0.24936000  0.50000000  0.04402000  1.0
  Hf  Hf15  1  0.25153000  0.74932000  0.12897000  1.0
  Ru  Ru16  1  0.00000000  0.25000000  0.87212000  1.0
  Ru  Ru17  1  0.00000000  0.00000000  0.95737000  1.0
  Ru  Ru18  1  0.00000000  0.24538000  0.04364000  1.0
  Ru  Ru19  1  0.00000000  0.00000000  0.12860000  1.0
  Ru  Ru20  1  0.00000000  0.75000000  0.87212000  1.0
  Ru  Ru21  1  0.00000000  0.50000000  0.95737000  1.0
  Ru  Ru22  1  0.00000000  0.75462000  0.04364000  1.0
  Ru  Ru23  1  0.00000000  0.50000000  0.12222000  1.0
  Ru  Ru24  1  0.50000000  0.25000000  0.87212000  1.0
  Ru  Ru25  1  0.50000000  0.00000000  0.95737000  1.0
  Ru  Ru26  1  0.50000000  0.25058000  0.04327000  1.0
  Ru  Ru27  1  0.50000000  0.00000000  0.12182000  1.0
  Ru  Ru28  1  0.50000000  0.75000000  0.87212000  1.0
  Ru  Ru29  1  0.50000000  0.50000000  0.95737000  1.0
  Ru  Ru30  1  0.50000000  0.74942000  0.04327000  1.0
  Ru  Ru31  1  0.50000000  0.50000000  0.12250000  1.0
  C  C32  1  0.00000000  0.00000000  0.19884000  1.0
  O  O33  1  0.00000000  0.00000000  0.24237000  1.0
