# generated using pymatgen
data_V4Rh12CO
_symmetry_space_group_name_H-M   'P 1'
_cell_length_a   7.63897000
_cell_length_b   5.40157000
_cell_length_c   24.05120000
_cell_angle_alpha   90.00000000
_cell_angle_beta   90.00000000
_cell_angle_gamma   90.00000000
_symmetry_Int_Tables_number   1
_chemical_formula_structural   V4Rh12CO
_chemical_formula_sum   'V4 Rh12 C1 O1'
_cell_volume   992.41098487
_cell_formula_units_Z   1
loop_
 _symmetry_equiv_pos_site_id
 _symmetry_equiv_pos_as_xyz
  1  'x, y, z'
loop_
 _atom_site_type_symbol
 _atom_site_label
 _atom_site_symmetry_multiplicity
 _atom_site_fract_x
 _atom_site_fract_y
 _atom_site_fract_z
 _atom_site_occupancy
  V  V0  1  0.74999000  0.00000000  0.91578000  1.0
  V  V1  1  0.75188000  0.49821000  0.03004000  1.0
  V  V2  1  0.25001000  0.00000000  0.91578000  1.0
  V  V3  1  0.24812000  0.49821000  0.03004000  1.0
  Rh  Rh4  1  0.74999000  0.50000000  0.91578000  1.0
  Rh  Rh5  1  0.50000000  0.25000000  0.97193000  1.0
  Rh  Rh6  1  0.50000000  0.75000000  0.97193000  1.0
  Rh  Rh7  1  0.75059000  0.00163000  0.02167000  1.0
  Rh  Rh8  1  0.50000000  0.75606000  0.08307000  1.0
  Rh  Rh9  1  0.50000000  0.26807000  0.08027000  1.0
  Rh  Rh10  1  0.25001000  0.50000000  0.91578000  1.0
  Rh  Rh11  1  0.00000000  0.25000000  0.97193000  1.0
  Rh  Rh12  1  0.00000000  0.75000000  0.97193000  1.0
  Rh  Rh13  1  0.24941000  0.00163000  0.02167000  1.0
  Rh  Rh14  1  0.00000000  0.73774000  0.08035000  1.0
  Rh  Rh15  1  0.00000000  0.25773000  0.08037000  1.0
  C  C16  1  0.50000000  0.74778000  0.16063000  1.0
  O  O17  1  0.50000000  0.74574000  0.20881000  1.0
