# generated using pymatgen
data_Li4Y4In4Pb4C
_symmetry_space_group_name_H-M   Pm
_cell_length_a   6.51578000
_cell_length_b   9.32892000
_cell_length_c   24.88170000
_cell_angle_alpha   90.00000000
_cell_angle_beta   90.00000000
_cell_angle_gamma   90.00000000
_symmetry_Int_Tables_number   6
_chemical_formula_structural   Li4Y4In4Pb4C
_chemical_formula_sum   'Li4 Y4 In4 Pb4 C1'
_cell_volume   1512.43887092
_cell_formula_units_Z   1
loop_
 _symmetry_equiv_pos_site_id
 _symmetry_equiv_pos_as_xyz
  1  'x, y, z'
  2  'x, -y, z'
loop_
 _atom_site_type_symbol
 _atom_site_label
 _atom_site_symmetry_multiplicity
 _atom_site_fract_x
 _atom_site_fract_y
 _atom_site_fract_z
 _atom_site_occupancy
  Li  Li0  1  0.26145000  0.00000000  0.02568000  1.0
  Li  Li1  1  0.26512000  0.50000000  0.03200000  1.0
  Li  Li2  1  0.71565000  0.00000000  0.90190000  1.0
  Li  Li3  1  0.71565000  0.50000000  0.90190000  1.0
  Y  Y4  2  0.52245000  0.19574000  0.10162000  1.0
  Y  Y5  2  0.97710000  0.25000000  0.96730000  1.0
  In  In6  2  0.03101000  0.17300000  0.12272000  1.0
  In  In7  2  0.47710000  0.25000000  0.96730000  1.0
  Pb  Pb8  1  0.21565000  0.00000000  0.90190000  1.0
  Pb  Pb9  1  0.21565000  0.50000000  0.90190000  1.0
  Pb  Pb10  1  0.76086000  0.50000000  0.04450000  1.0
  Pb  Pb11  1  0.78166000  0.00000000  0.02692000  1.0
  C  C12  1  0.31967000  0.00000000  0.11068000  1.0
