# generated using pymatgen
data_Li4Nb4Al4Pd4C
_symmetry_space_group_name_H-M   Cm
_cell_length_a   8.86349865
_cell_length_b   8.86349865
_cell_length_c   24.70060000
_cell_angle_alpha   90.00000000
_cell_angle_beta   90.00000000
_cell_angle_gamma   90.00000000
_symmetry_Int_Tables_number   8
_chemical_formula_structural   Li4Nb4Al4Pd4C
_chemical_formula_sum   'Li8 Nb8 Al8 Pd8 C2'
_cell_volume   1940.51886215
_cell_formula_units_Z   2
loop_
 _symmetry_equiv_pos_site_id
 _symmetry_equiv_pos_as_xyz
  1  'x, y, z'
  2  'x, -y, z'
  3  'x+1/2, y+1/2, z'
  4  'x+1/2, -y+1/2, z'
loop_
 _atom_site_type_symbol
 _atom_site_label
 _atom_site_symmetry_multiplicity
 _atom_site_fract_x
 _atom_site_fract_y
 _atom_site_fract_z
 _atom_site_occupancy
  Li  Li0  4  -0.00000000  0.25000000  0.90485000  1.0
  Li  Li1  2  0.24986000  0.00000000  0.02777000  1.0
  Li  Li2  2  0.24995000  0.50000000  0.03842000  1.0
  Nb  Nb3  4  0.24983000  0.23160000  0.09808000  1.0
  Nb  Nb4  2  0.00000000  0.00000000  0.96828000  1.0
  Nb  Nb5  2  0.00000000  0.50000000  0.96828000  1.0
  Al  Al6  4  0.25000000  0.25000000  0.96828000  1.0
  Al  Al7  2  0.01091000  0.00000000  0.09692000  1.0
  Al  Al8  2  0.48882000  0.00000000  0.09691000  1.0
  Pd  Pd9  4  0.49995500  0.24997500  0.03128000  1.0
  Pd  Pd10  2  0.25000000  0.00000000  0.90485000  1.0
  Pd  Pd11  2  0.25000000  0.50000000  0.90485000  1.0
  C  C12  2  0.24964000  0.00000000  0.11193000  1.0
