# generated using pymatgen
data_Li8Al8Ni8Pd8CO
_symmetry_space_group_name_H-M   Pm
_cell_length_a   5.91240000
_cell_length_b   8.36140000
_cell_length_c   26.27110000
_cell_angle_alpha   90.00000000
_cell_angle_beta   90.00000000
_cell_angle_gamma   90.00000000
_symmetry_Int_Tables_number   6
_chemical_formula_structural   Li8Al8Ni8Pd8CO
_chemical_formula_sum   'Li8 Al8 Ni8 Pd8 C1 O1'
_cell_volume   1298.73655906
_cell_formula_units_Z   1
loop_
 _symmetry_equiv_pos_site_id
 _symmetry_equiv_pos_as_xyz
  1  'x, y, z'
  2  'x, -y, z'
loop_
 _atom_site_type_symbol
 _atom_site_label
 _atom_site_symmetry_multiplicity
 _atom_site_fract_x
 _atom_site_fract_y
 _atom_site_fract_z
 _atom_site_occupancy
  Li  Li0  2  0.00000000  0.25000000  0.96022000  1.0
  Li  Li1  2  0.01493000  0.25509000  0.13412000  1.0
  Li  Li2  1  0.50000000  0.00000000  0.88065000  1.0
  Li  Li3  1  0.50000000  0.50000000  0.88065000  1.0
  Li  Li4  1  0.50441000  0.50000000  0.03759000  1.0
  Li  Li5  1  0.50884000  0.00000000  0.03937000  1.0
  Al  Al6  2  0.49912000  0.24964000  0.11713000  1.0
  Al  Al7  2  0.50000000  0.25000000  0.96022000  1.0
  Al  Al8  1  0.00000000  0.00000000  0.88065000  1.0
  Al  Al9  1  0.00000000  0.50000000  0.88065000  1.0
  Al  Al10  1  0.00033000  0.50000000  0.04012000  1.0
  Al  Al11  1  0.99600000  0.00000000  0.04043000  1.0
  Ni  Ni12  2  0.75000000  0.25000000  0.88065000  1.0
  Ni  Ni13  2  0.75783000  0.24827000  0.04114000  1.0
  Ni  Ni14  1  0.25000000  0.00000000  0.96022000  1.0
  Ni  Ni15  1  0.25000000  0.50000000  0.96022000  1.0
  Ni  Ni16  1  0.26645000  0.00000000  0.11260000  1.0
  Ni  Ni17  1  0.27196000  0.50000000  0.11280000  1.0
  Pd  Pd18  2  0.24480000  0.24929000  0.03944000  1.0
  Pd  Pd19  2  0.25000000  0.25000000  0.88065000  1.0
  Pd  Pd20  1  0.74239000  0.50000000  0.11658000  1.0
  Pd  Pd21  1  0.75000000  0.00000000  0.96022000  1.0
  Pd  Pd22  1  0.75000000  0.50000000  0.96022000  1.0
  Pd  Pd23  1  0.75512000  0.00000000  0.12478000  1.0
  C  C24  1  0.83739000  0.00000000  0.19718000  1.0
  O  O25  1  0.86519000  0.00000000  0.24061000  1.0
