# generated using pymatgen
data_Li4Al4Ge4Pd4CO
_symmetry_space_group_name_H-M   'P 1'
_cell_length_a   8.01128000
_cell_length_b   5.49423000
_cell_length_c   24.10550000
_cell_angle_alpha   90.00000000
_cell_angle_beta   90.00000000
_cell_angle_gamma   90.00000000
_symmetry_Int_Tables_number   1
_chemical_formula_structural   Li4Al4Ge4Pd4CO
_chemical_formula_sum   'Li4 Al4 Ge4 Pd4 C1 O1'
_cell_volume   1061.02322642
_cell_formula_units_Z   1
loop_
 _symmetry_equiv_pos_site_id
 _symmetry_equiv_pos_as_xyz
  1  'x, y, z'
loop_
 _atom_site_type_symbol
 _atom_site_label
 _atom_site_symmetry_multiplicity
 _atom_site_fract_x
 _atom_site_fract_y
 _atom_site_fract_z
 _atom_site_occupancy
  Li  Li0  1  0.00000000  0.72857000  0.02839000  1.0
  Li  Li1  1  0.00000000  0.18239000  0.91064000  1.0
  Li  Li2  1  0.50000000  0.72857000  0.02839000  1.0
  Li  Li3  1  0.50000000  0.18078000  0.91128000  1.0
  Al  Al4  1  0.75000000  0.00000000  0.08516000  1.0
  Al  Al5  1  0.75013000  0.45341000  0.97118000  1.0
  Al  Al6  1  0.25000000  0.00000000  0.08516000  1.0
  Al  Al7  1  0.24987000  0.45341000  0.97118000  1.0
  Ge  Ge8  1  0.75000000  0.50000000  0.08516000  1.0
  Ge  Ge9  1  0.74898000  0.96560000  0.96903000  1.0
  Ge  Ge10  1  0.25000000  0.50000000  0.08516000  1.0
  Ge  Ge11  1  0.25102000  0.96560000  0.96903000  1.0
  Pd  Pd12  1  0.00000000  0.22857000  0.02839000  1.0
  Pd  Pd13  1  0.00000000  0.67020000  0.92813000  1.0
  Pd  Pd14  1  0.50000000  0.22857000  0.02839000  1.0
  Pd  Pd15  1  0.50000000  0.66838000  0.92802000  1.0
  C  C16  1  0.00000000  0.18580000  0.82357000  1.0
  O  O17  1  0.00000000  0.19376000  0.77635000  1.0
