# generated using pymatgen
data_Li8Sc8Ga8Pd8C
_symmetry_space_group_name_H-M   Pm
_cell_length_a   6.35289000
_cell_length_b   8.98434000
_cell_length_c   26.73830000
_cell_angle_alpha   90.00000000
_cell_angle_beta   90.00000000
_cell_angle_gamma   90.00000000
_symmetry_Int_Tables_number   6
_chemical_formula_structural   Li8Sc8Ga8Pd8C
_chemical_formula_sum   'Li8 Sc8 Ga8 Pd8 C1'
_cell_volume   1526.12921479
_cell_formula_units_Z   1
loop_
 _symmetry_equiv_pos_site_id
 _symmetry_equiv_pos_as_xyz
  1  'x, y, z'
  2  'x, -y, z'
loop_
 _atom_site_type_symbol
 _atom_site_label
 _atom_site_symmetry_multiplicity
 _atom_site_fract_x
 _atom_site_fract_y
 _atom_site_fract_z
 _atom_site_occupancy
  Li  Li0  2  0.62322000  0.22570000  0.17992000  1.0
  Li  Li1  2  0.75000000  0.25000000  0.95800000  1.0
  Li  Li2  1  0.24258000  0.00000000  0.04329000  1.0
  Li  Li3  1  0.24902000  0.50000000  0.04399000  1.0
  Li  Li4  1  0.25000000  0.00000000  0.87400000  1.0
  Li  Li5  1  0.25000000  0.50000000  0.87400000  1.0
  Sc  Sc6  2  0.50000000  0.25000000  0.87400000  1.0
  Sc  Sc7  2  0.52061000  0.25144000  0.05034000  1.0
  Sc  Sc8  1  0.00000000  0.00000000  0.95800000  1.0
  Sc  Sc9  1  0.00000000  0.50000000  0.95800000  1.0
  Sc  Sc10  1  0.94768000  0.50000000  0.12286000  1.0
  Sc  Sc11  1  0.96244000  0.00000000  0.12726000  1.0
  Ga  Ga12  2  0.00000000  0.25000000  0.87400000  1.0
  Ga  Ga13  2  0.99703000  0.25032000  0.04203000  1.0
  Ga  Ga14  1  0.43941000  0.00000000  0.13118000  1.0
  Ga  Ga15  1  0.48939000  0.50000000  0.13150000  1.0
  Ga  Ga16  1  0.50000000  0.00000000  0.95800000  1.0
  Ga  Ga17  1  0.50000000  0.50000000  0.95800000  1.0
  Pd  Pd18  2  0.23609000  0.26318000  0.12170000  1.0
  Pd  Pd19  2  0.25000000  0.25000000  0.95800000  1.0
  Pd  Pd20  1  0.74699000  0.50000000  0.03789000  1.0
  Pd  Pd21  1  0.75000000  0.00000000  0.87400000  1.0
  Pd  Pd22  1  0.75000000  0.50000000  0.87400000  1.0
  Pd  Pd23  1  0.75592000  0.00000000  0.03632000  1.0
  C  C24  1  0.69268000  0.00000000  0.16899000  1.0
