data_image0
_chemical_formula_structural       Li4Ag8Ge4CO
_chemical_formula_sum              "Li4 Ag8 Ge4 C1 O1"
_cell_length_a       6.51415
_cell_length_b       6.51415
_cell_length_c       24.8856
_cell_angle_alpha    90
_cell_angle_beta     90
_cell_angle_gamma    90

_space_group_name_H-M_alt    "P 1"
_space_group_IT_number       1

loop_
  _space_group_symop_operation_xyz
  'x, y, z'

loop_
  _atom_site_type_symbol
  _atom_site_label
  _atom_site_symmetry_multiplicity
  _atom_site_fract_x
  _atom_site_fract_y
  _atom_site_fract_z
  _atom_site_occupancy
  Li  Li1       1.0  0.00000  0.00001  0.09998  1.0000
  Li  Li2       1.0  0.50000  0.49997  0.10120  1.0000
  Li  Li3       1.0  0.50000  0.00000  0.96728  1.0000
  Li  Li4       1.0  0.00000  0.50000  0.96728  1.0000
  Ag  Ag1       1.0  0.24942  0.24944  0.03659  1.0000
  Ag  Ag2       1.0  0.75000  0.75000  0.90184  1.0000
  Ag  Ag3       1.0  0.75058  0.24946  0.03659  1.0000
  Ag  Ag4       1.0  0.25000  0.75000  0.90184  1.0000
  Ag  Ag5       1.0  0.75056  0.75057  0.03659  1.0000
  Ag  Ag6       1.0  0.25000  0.25000  0.90184  1.0000
  Ag  Ag7       1.0  0.24944  0.75051  0.03658  1.0000
  Ag  Ag8       1.0  0.75000  0.25000  0.90184  1.0000
  Ge  Ge1       1.0  0.00000  0.00000  0.96728  1.0000
  Ge  Ge2       1.0  0.50001  0.00002  0.09539  1.0000
  Ge  Ge3       1.0  0.00000  0.49998  0.09535  1.0000
  Ge  Ge4       1.0  0.50000  0.50000  0.96728  1.0000
  C   C1        1.0  0.00002  1.00000  0.18596  1.0000
  O   O1        1.0  0.00002  1.00000  0.23166  1.0000
