data_image0
_chemical_formula_structural       Al8In8Cu8Pd8CO
_chemical_formula_sum              "Al8 In8 Cu8 Pd8 C1 O1"
_cell_length_a       6.36006
_cell_length_b       8.99448
_cell_length_c       26.7459
_cell_angle_alpha    90
_cell_angle_beta     90
_cell_angle_gamma    90

_space_group_name_H-M_alt    "P 1"
_space_group_IT_number       1

loop_
  _space_group_symop_operation_xyz
  'x, y, z'

loop_
  _atom_site_type_symbol
  _atom_site_label
  _atom_site_symmetry_multiplicity
  _atom_site_fract_x
  _atom_site_fract_y
  _atom_site_fract_z
  _atom_site_occupancy
  Al  Al1       1.0  0.00000  0.00000  0.87389  1.0000
  Al  Al2       1.0  0.00000  0.50000  0.87389  1.0000
  Al  Al3       1.0  0.50000  0.75000  0.95796  1.0000
  Al  Al4       1.0  0.50000  0.25000  0.95796  1.0000
  Al  Al5       1.0  0.00527  0.49943  0.04935  1.0000
  Al  Al6       1.0  0.00527  0.00057  0.04935  1.0000
  Al  Al7       1.0  0.50668  0.25000  0.12534  1.0000
  Al  Al8       1.0  0.50374  0.75000  0.12585  1.0000
  In  In1       1.0  0.00000  0.25000  0.95796  1.0000
  In  In2       1.0  0.00000  0.75000  0.95796  1.0000
  In  In3       1.0  0.50000  0.50000  0.87389  1.0000
  In  In4       1.0  0.50000  0.00000  0.87389  1.0000
  In  In5       1.0  0.01862  0.75000  0.15172  1.0000
  In  In6       1.0  0.01501  0.25000  0.14934  1.0000
  In  In7       1.0  0.50142  0.99854  0.04185  1.0000
  In  In8       1.0  0.50142  0.50146  0.04185  1.0000
  Cu  Cu1       1.0  0.25000  0.00000  0.95796  1.0000
  Cu  Cu2       1.0  0.25000  0.50000  0.95796  1.0000
  Cu  Cu3       1.0  0.75000  0.25000  0.87389  1.0000
  Cu  Cu4       1.0  0.75000  0.75000  0.87389  1.0000
  Cu  Cu5       1.0  0.27172  0.49921  0.12752  1.0000
  Cu  Cu6       1.0  0.27172  0.00079  0.12752  1.0000
  Cu  Cu7       1.0  0.78585  0.75000  0.05315  1.0000
  Cu  Cu8       1.0  0.77926  0.25000  0.04994  1.0000
  Pd  Pd1       1.0  0.75000  0.00000  0.95796  1.0000
  Pd  Pd2       1.0  0.75000  0.50000  0.95796  1.0000
  Pd  Pd3       1.0  0.25000  0.25000  0.87389  1.0000
  Pd  Pd4       1.0  0.25000  0.75000  0.87389  1.0000
  Pd  Pd5       1.0  0.74514  0.50114  0.12590  1.0000
  Pd  Pd6       1.0  0.74514  0.99887  0.12590  1.0000
  Pd  Pd7       1.0  0.23034  0.75000  0.04610  1.0000
  Pd  Pd8       1.0  0.23374  0.25000  0.04566  1.0000
  C   C1        1.0  0.08829  0.25000  0.28844  1.0000
  O   O1        1.0  0.95812  0.25001  0.31750  1.0000
