# generated using pymatgen
data_Al8In8Cu8Pd8CO
_symmetry_space_group_name_H-M   Pm
_cell_length_a   6.36006000
_cell_length_b   8.99448000
_cell_length_c   26.74590000
_cell_angle_alpha   90.00000000
_cell_angle_beta   90.00000000
_cell_angle_gamma   90.00000000
_symmetry_Int_Tables_number   6
_chemical_formula_structural   Al8In8Cu8Pd8CO
_chemical_formula_sum   'Al8 In8 Cu8 Pd8 C1 O1'
_cell_volume   1530.01077627
_cell_formula_units_Z   1
loop_
 _symmetry_equiv_pos_site_id
 _symmetry_equiv_pos_as_xyz
  1  'x, y, z'
  2  'x, -y, z'
loop_
 _atom_site_type_symbol
 _atom_site_label
 _atom_site_symmetry_multiplicity
 _atom_site_fract_x
 _atom_site_fract_y
 _atom_site_fract_z
 _atom_site_occupancy
  Al  Al0  2  0.00000000  0.25000000  0.87389000  1.0
  Al  Al1  2  0.00527000  0.24943000  0.04935000  1.0
  Al  Al2  1  0.50000000  0.00000000  0.95796000  1.0
  Al  Al3  1  0.50000000  0.50000000  0.95796000  1.0
  Al  Al4  1  0.50374000  0.50000000  0.12585000  1.0
  Al  Al5  1  0.50668000  0.00000000  0.12534000  1.0
  In  In6  2  0.50000000  0.25000000  0.87389000  1.0
  In  In7  2  0.50142000  0.25146000  0.04185000  1.0
  In  In8  1  0.00000000  0.00000000  0.95796000  1.0
  In  In9  1  0.00000000  0.50000000  0.95796000  1.0
  In  In10  1  0.01501000  0.00000000  0.14934000  1.0
  In  In11  1  0.01862000  0.50000000  0.15172000  1.0
  Cu  Cu12  2  0.25000000  0.25000000  0.95796000  1.0
  Cu  Cu13  2  0.27172000  0.24921000  0.12752000  1.0
  Cu  Cu14  1  0.75000000  0.00000000  0.87389000  1.0
  Cu  Cu15  1  0.75000000  0.50000000  0.87389000  1.0
  Cu  Cu16  1  0.77926000  0.00000000  0.04994000  1.0
  Cu  Cu17  1  0.78585000  0.50000000  0.05315000  1.0
  Pd  Pd18  2  0.74514000  0.25114000  0.12590000  1.0
  Pd  Pd19  2  0.75000000  0.25000000  0.95796000  1.0
  Pd  Pd20  1  0.23034000  0.50000000  0.04610000  1.0
  Pd  Pd21  1  0.23374000  0.00000000  0.04566000  1.0
  Pd  Pd22  1  0.25000000  0.00000000  0.87389000  1.0
  Pd  Pd23  1  0.25000000  0.50000000  0.87389000  1.0
  C  C24  1  0.08829000  0.00000000  0.28844000  1.0
  O  O25  1  0.95812000  0.00000000  0.31750000  1.0
