# generated using pymatgen
data_Li8Mg8Ag8Pb8C
_symmetry_space_group_name_H-M   'P 1'
_cell_length_a   9.72976000
_cell_length_b   6.87998000
_cell_length_c   27.29730000
_cell_angle_alpha   90.00000000
_cell_angle_beta   90.00000000
_cell_angle_gamma   90.00000000
_symmetry_Int_Tables_number   1
_chemical_formula_structural   Li8Mg8Ag8Pb8C
_chemical_formula_sum   'Li8 Mg8 Ag8 Pb8 C1'
_cell_volume   1827.29639029
_cell_formula_units_Z   1
loop_
 _symmetry_equiv_pos_site_id
 _symmetry_equiv_pos_as_xyz
  1  'x, y, z'
loop_
 _atom_site_type_symbol
 _atom_site_label
 _atom_site_symmetry_multiplicity
 _atom_site_fract_x
 _atom_site_fract_y
 _atom_site_fract_z
 _atom_site_occupancy
  Li  Li0  1  0.00000000  0.75000000  0.04455000  1.0
  Li  Li1  1  0.50000000  0.75000000  0.04455000  1.0
  Li  Li2  1  0.25000000  0.25000000  0.13366000  1.0
  Li  Li3  1  0.75000000  0.25000000  0.13366000  1.0
  Li  Li4  1  0.50000000  0.74325000  0.86764000  1.0
  Li  Li5  1  0.00000000  0.71149000  0.86160000  1.0
  Li  Li6  1  0.74788000  0.24206000  0.95116000  1.0
  Li  Li7  1  0.25212000  0.24206000  0.95116000  1.0
  Mg  Mg8  1  0.00000000  0.25000000  0.04455000  1.0
  Mg  Mg9  1  0.50000000  0.25000000  0.04455000  1.0
  Mg  Mg10  1  0.25000000  0.75000000  0.13366000  1.0
  Mg  Mg11  1  0.75000000  0.75000000  0.13366000  1.0
  Mg  Mg12  1  0.50000000  0.25757000  0.86363000  1.0
  Mg  Mg13  1  0.00000000  0.30768000  0.85198000  1.0
  Mg  Mg14  1  0.75074000  0.76013000  0.95127000  1.0
  Mg  Mg15  1  0.24926000  0.76013000  0.95127000  1.0
  Ag  Ag16  1  0.00000000  0.00000000  0.13366000  1.0
  Ag  Ag17  1  0.50000000  0.00000000  0.13366000  1.0
  Ag  Ag18  1  0.75000000  0.50000000  0.04455000  1.0
  Ag  Ag19  1  0.25000000  0.50000000  0.04455000  1.0
  Ag  Ag20  1  0.50000000  0.00482000  0.95223000  1.0
  Ag  Ag21  1  0.00000000  0.00999000  0.94156000  1.0
  Ag  Ag22  1  0.25778000  0.49902000  0.86704000  1.0
  Ag  Ag23  1  0.74222000  0.49902000  0.86704000  1.0
  Pb  Pb24  1  0.25000000  1.00000000  0.04455000  1.0
  Pb  Pb25  1  0.75000000  1.00000000  0.04455000  1.0
  Pb  Pb26  1  0.50000000  0.50000000  0.13366000  1.0
  Pb  Pb27  1  0.00000000  0.50000000  0.13366000  1.0
  Pb  Pb28  1  0.76553000  0.96858000  0.84160000  1.0
  Pb  Pb29  1  0.23447000  0.96858000  0.84160000  1.0
  Pb  Pb30  1  0.00000000  0.49256000  0.95396000  1.0
  Pb  Pb31  1  0.50000000  0.50153000  0.95517000  1.0
  C  C32  1  0.00000000  0.00306000  0.85535000  1.0
