# generated using pymatgen
data_Li8Mg8Ag8Pb8C
_symmetry_space_group_name_H-M   Pm
_cell_length_a   6.87998000
_cell_length_b   9.72976000
_cell_length_c   27.29730000
_cell_angle_alpha   90.00000000
_cell_angle_beta   90.00000000
_cell_angle_gamma   90.00000000
_symmetry_Int_Tables_number   6
_chemical_formula_structural   Li8Mg8Ag8Pb8C
_chemical_formula_sum   'Li8 Mg8 Ag8 Pb8 C1'
_cell_volume   1827.29639029
_cell_formula_units_Z   1
loop_
 _symmetry_equiv_pos_site_id
 _symmetry_equiv_pos_as_xyz
  1  'x, y, z'
  2  'x, -y, z'
loop_
 _atom_site_type_symbol
 _atom_site_label
 _atom_site_symmetry_multiplicity
 _atom_site_fract_x
 _atom_site_fract_y
 _atom_site_fract_z
 _atom_site_occupancy
  Li  Li0  2  0.24206000  0.25212000  0.04884000  1.0
  Li  Li1  2  0.25000000  0.25000000  0.86634000  1.0
  Li  Li2  1  0.71149000  0.00000000  0.13840000  1.0
  Li  Li3  1  0.74325000  0.50000000  0.13236000  1.0
  Li  Li4  1  0.75000000  0.00000000  0.95545000  1.0
  Li  Li5  1  0.75000000  0.50000000  0.95545000  1.0
  Mg  Mg6  2  0.75000000  0.25000000  0.86634000  1.0
  Mg  Mg7  2  0.76013000  0.24926000  0.04873000  1.0
  Mg  Mg8  1  0.25000000  0.00000000  0.95545000  1.0
  Mg  Mg9  1  0.25000000  0.50000000  0.95545000  1.0
  Mg  Mg10  1  0.25757000  0.50000000  0.13637000  1.0
  Mg  Mg11  1  0.30768000  0.00000000  0.14802000  1.0
  Ag  Ag12  2  0.49902000  0.25778000  0.13296000  1.0
  Ag  Ag13  2  0.50000000  0.25000000  0.95545000  1.0
  Ag  Ag14  1  0.00000000  0.00000000  0.86634000  1.0
  Ag  Ag15  1  0.00000000  0.50000000  0.86634000  1.0
  Ag  Ag16  1  0.00482000  0.50000000  0.04777000  1.0
  Ag  Ag17  1  0.00999000  0.00000000  0.05844000  1.0
  Pb  Pb18  2  -0.00000000  0.25000000  0.95545000  1.0
  Pb  Pb19  2  0.96858000  0.23447000  0.15840000  1.0
  Pb  Pb20  1  0.49256000  0.00000000  0.04604000  1.0
  Pb  Pb21  1  0.50000000  0.00000000  0.86634000  1.0
  Pb  Pb22  1  0.50000000  0.50000000  0.86634000  1.0
  Pb  Pb23  1  0.50153000  0.50000000  0.04483000  1.0
  C  C24  1  0.00306000  0.00000000  0.14465000  1.0
