# generated using pymatgen
data_Li4In4Ge4Au4CO
_symmetry_space_group_name_H-M   'P 1'
_cell_length_a   8.46544000
_cell_length_b   6.00109000
_cell_length_c   24.49980000
_cell_angle_alpha   90.00000000
_cell_angle_beta   90.00000000
_cell_angle_gamma   90.00000000
_symmetry_Int_Tables_number   1
_chemical_formula_structural   Li4In4Ge4Au4CO
_chemical_formula_sum   'Li4 In4 Ge4 Au4 C1 O1'
_cell_volume   1244.63558920
_cell_formula_units_Z   1
loop_
 _symmetry_equiv_pos_site_id
 _symmetry_equiv_pos_as_xyz
  1  'x, y, z'
loop_
 _atom_site_type_symbol
 _atom_site_label
 _atom_site_symmetry_multiplicity
 _atom_site_fract_x
 _atom_site_fract_y
 _atom_site_fract_z
 _atom_site_occupancy
  Li  Li0  1  0.74906000  0.21428000  0.96484000  1.0
  Li  Li1  1  0.75001000  0.73381000  0.09183000  1.0
  Li  Li2  1  0.25094000  0.21428000  0.96484000  1.0
  Li  Li3  1  0.24999000  0.73381000  0.09183000  1.0
  In  In4  1  0.50000000  0.48097000  0.89407000  1.0
  In  In5  1  0.50000000  0.98920000  0.03061000  1.0
  In  In6  1  0.00000000  0.51928000  0.89184000  1.0
  In  In7  1  0.00000000  0.98920000  0.03061000  1.0
  Ge  Ge8  1  0.73885000  0.68279000  0.97171000  1.0
  Ge  Ge9  1  0.75001000  0.23381000  0.09183000  1.0
  Ge  Ge10  1  0.26115000  0.68279000  0.97171000  1.0
  Ge  Ge11  1  0.24999000  0.23381000  0.09183000  1.0
  Au  Au12  1  0.50000000  0.00570000  0.91263000  1.0
  Au  Au13  1  0.50000000  0.48920000  0.03061000  1.0
  Au  Au14  1  0.00000000  0.03385000  0.91376000  1.0
  Au  Au15  1  0.00000000  0.48920000  0.03061000  1.0
  C  C16  1  0.50000000  0.95639000  0.82068000  1.0
  O  O17  1  0.50000000  0.03725000  0.77825000  1.0
