# generated using pymatgen
data_Y8In8Sn8Pd8C
_symmetry_space_group_name_H-M   Pmm2
_cell_length_a   9.06394000
_cell_length_b   9.16402000
_cell_length_c   26.55030000
_cell_angle_alpha   90.00000000
_cell_angle_beta   90.00000000
_cell_angle_gamma   90.00000000
_symmetry_Int_Tables_number   25
_chemical_formula_structural   Y8In8Sn8Pd8C
_chemical_formula_sum   'Y8 In8 Sn8 Pd8 C1'
_cell_volume   2205.32440214
_cell_formula_units_Z   1
loop_
 _symmetry_equiv_pos_site_id
 _symmetry_equiv_pos_as_xyz
  1  'x, y, z'
  2  '-x, -y, z'
  3  '-x, y, z'
  4  'x, -y, z'
loop_
 _atom_site_type_symbol
 _atom_site_label
 _atom_site_symmetry_multiplicity
 _atom_site_fract_x
 _atom_site_fract_y
 _atom_site_fract_z
 _atom_site_occupancy
  Y  Y0  2  0.24404000  0.50000000  0.12236000  1.0
  Y  Y1  2  0.25000000  0.00000000  0.95888000  1.0
  Y  Y2  2  0.25000000  0.50000000  0.95888000  1.0
  Y  Y3  2  0.25336000  0.00000000  0.12647000  1.0
  In  In4  2  0.00000000  0.25000000  0.95888000  1.0
  In  In5  2  0.00000000  0.25450000  0.13252000  1.0
  In  In6  2  0.50000000  0.25000000  0.95888000  1.0
  In  In7  2  0.50000000  0.25596000  0.12620000  1.0
  Sn  Sn8  1  0.00000000  0.00000000  0.04350000  1.0
  Sn  Sn9  1  0.00000000  0.00000000  0.87664000  1.0
  Sn  Sn10  1  0.00000000  0.50000000  0.04159000  1.0
  Sn  Sn11  1  0.00000000  0.50000000  0.87664000  1.0
  Sn  Sn12  1  0.50000000  0.00000000  0.04326000  1.0
  Sn  Sn13  1  0.50000000  0.00000000  0.87664000  1.0
  Sn  Sn14  1  0.50000000  0.50000000  0.04333000  1.0
  Sn  Sn15  1  0.50000000  0.50000000  0.87664000  1.0
  Pd  Pd16  4  0.25000000  0.25000000  0.87664000  1.0
  Pd  Pd17  4  0.25086000  0.24515000  0.04779000  1.0
  C  C18  1  0.00000000  0.00000000  0.13137000  1.0
