# generated using pymatgen
data_Hf8Ir24C
_symmetry_space_group_name_H-M   Pmm2
_cell_length_a   7.94591000
_cell_length_b   7.94591000
_cell_length_c   25.95940000
_cell_angle_alpha   90.00000000
_cell_angle_beta   90.00000000
_cell_angle_gamma   90.00000000
_symmetry_Int_Tables_number   25
_chemical_formula_structural   Hf8Ir24C
_chemical_formula_sum   'Hf8 Ir24 C1'
_cell_volume   1639.01124701
_cell_formula_units_Z   1
loop_
 _symmetry_equiv_pos_site_id
 _symmetry_equiv_pos_as_xyz
  1  'x, y, z'
  2  '-x, -y, z'
  3  '-x, y, z'
  4  'x, -y, z'
loop_
 _atom_site_type_symbol
 _atom_site_label
 _atom_site_symmetry_multiplicity
 _atom_site_fract_x
 _atom_site_fract_y
 _atom_site_fract_z
 _atom_site_occupancy
  Hf  Hf0  2  0.25000000  0.00000000  0.11478000  1.0
  Hf  Hf1  2  0.25000000  0.00000000  0.96174000  1.0
  Hf  Hf2  2  0.25000000  0.50000000  0.11478000  1.0
  Hf  Hf3  2  0.25000000  0.50000000  0.96174000  1.0
  Ir  Ir4  4  0.25000000  0.25000000  0.03826000  1.0
  Ir  Ir5  4  0.25000000  0.25000000  0.88522000  1.0
  Ir  Ir6  2  0.00000000  0.25000000  0.11478000  1.0
  Ir  Ir7  2  0.00000000  0.25000000  0.96174000  1.0
  Ir  Ir8  2  0.50000000  0.25000000  0.11478000  1.0
  Ir  Ir9  2  0.50000000  0.25000000  0.96174000  1.0
  Ir  Ir10  1  0.00000000  0.00000000  0.03826000  1.0
  Ir  Ir11  1  0.00000000  0.00000000  0.88522000  1.0
  Ir  Ir12  1  0.00000000  0.50000000  0.03826000  1.0
  Ir  Ir13  1  0.00000000  0.50000000  0.88522000  1.0
  Ir  Ir14  1  0.50000000  0.00000000  0.03826000  1.0
  Ir  Ir15  1  0.50000000  0.00000000  0.88522000  1.0
  Ir  Ir16  1  0.50000000  0.50000000  0.03826000  1.0
  Ir  Ir17  1  0.50000000  0.50000000  0.88522000  1.0
  C  C18  1  0.00000000  0.00000000  0.14560000  1.0
