# generated using pymatgen
data_Ti8Ni16Sb8CO
_symmetry_space_group_name_H-M   'P 1'
_cell_length_a   6.14888000
_cell_length_b   8.69583000
_cell_length_c   26.52190000
_cell_angle_alpha   90.00000000
_cell_angle_beta   90.00000000
_cell_angle_gamma   90.00000000
_symmetry_Int_Tables_number   1
_chemical_formula_structural   Ti8Ni16Sb8CO
_chemical_formula_sum   'Ti8 Ni16 Sb8 C1 O1'
_cell_volume   1418.11578659
_cell_formula_units_Z   1
loop_
 _symmetry_equiv_pos_site_id
 _symmetry_equiv_pos_as_xyz
  1  'x, y, z'
loop_
 _atom_site_type_symbol
 _atom_site_label
 _atom_site_symmetry_multiplicity
 _atom_site_fract_x
 _atom_site_fract_y
 _atom_site_fract_z
 _atom_site_occupancy
  Ti  Ti0  1  0.00000000  0.00000000  0.87705000  1.0
  Ti  Ti1  1  0.50000000  0.25000000  0.95902000  1.0
  Ti  Ti2  1  0.50000000  0.75000000  0.95902000  1.0
  Ti  Ti3  1  1.00000000  0.50000000  0.87705000  1.0
  Ti  Ti4  1  0.99514000  0.49997000  0.04136000  1.0
  Ti  Ti5  1  0.49541000  0.74708000  0.12078000  1.0
  Ti  Ti6  1  0.49547000  0.25291000  0.12081000  1.0
  Ti  Ti7  1  0.99724000  0.00000000  0.04187000  1.0
  Ni  Ni8  1  0.25000000  0.00000000  0.95902000  1.0
  Ni  Ni9  1  0.75000000  0.50000000  0.95902000  1.0
  Ni  Ni10  1  0.75000000  0.00000000  0.95902000  1.0
  Ni  Ni11  1  0.25000000  0.50000000  0.95902000  1.0
  Ni  Ni12  1  0.75000000  0.75000000  0.87705000  1.0
  Ni  Ni13  1  0.25000000  0.25000000  0.87705000  1.0
  Ni  Ni14  1  0.25000000  0.75000000  0.87705000  1.0
  Ni  Ni15  1  0.75000000  0.25000000  0.87705000  1.0
  Ni  Ni16  1  0.27207000  0.49998000  0.11728000  1.0
  Ni  Ni17  1  0.74992000  0.00003000  0.11374000  1.0
  Ni  Ni18  1  0.70958000  0.50001000  0.11762000  1.0
  Ni  Ni19  1  0.25952000  0.00001000  0.12634000  1.0
  Ni  Ni20  1  0.76204000  0.24948000  0.04660000  1.0
  Ni  Ni21  1  0.22138000  0.75159000  0.05050000  1.0
  Ni  Ni22  1  0.22134000  0.24835000  0.05057000  1.0
  Ni  Ni23  1  0.76199000  0.75053000  0.04661000  1.0
  Sb  Sb24  1  1.00000000  0.75000000  0.95902000  1.0
  Sb  Sb25  1  0.50000000  0.00000000  0.87705000  1.0
  Sb  Sb26  1  1.00000000  0.25000000  0.95902000  1.0
  Sb  Sb27  1  0.50000000  0.50000000  0.87705000  1.0
  Sb  Sb28  1  0.98713000  0.26064000  0.13600000  1.0
  Sb  Sb29  1  0.49446000  0.49998000  0.03715000  1.0
  Sb  Sb30  1  0.98718000  0.73936000  0.13596000  1.0
  Sb  Sb31  1  0.48935000  0.00001000  0.03932000  1.0
  C  C32  1  0.37561000  0.99998000  0.18713000  1.0
  O  O33  1  0.42818000  0.99996000  0.22934000  1.0
