data_image0
_chemical_formula_structural       V4Zn12CO
_chemical_formula_sum              "V4 Zn12 C1 O1"
_cell_length_a       7.64728
_cell_length_b       5.40744
_cell_length_c       24.0556
_cell_angle_alpha    90
_cell_angle_beta     90
_cell_angle_gamma    90

_space_group_name_H-M_alt    "P 1"
_space_group_IT_number       1

loop_
  _space_group_symop_operation_xyz
  'x, y, z'

loop_
  _atom_site_type_symbol
  _atom_site_label
  _atom_site_symmetry_multiplicity
  _atom_site_fract_x
  _atom_site_fract_y
  _atom_site_fract_z
  _atom_site_occupancy
  V   V1        1.0  0.00000  0.00000  0.91570  1.0000
  V   V2        1.0  0.00009  0.49853  0.02786  1.0000
  V   V3        1.0  0.50000  0.00000  0.91570  1.0000
  V   V4        1.0  0.49997  0.49855  0.02758  1.0000
  Zn  Zn1       1.0  0.00000  0.50000  0.91570  1.0000
  Zn  Zn2       1.0  0.25000  0.75000  0.97190  1.0000
  Zn  Zn3       1.0  0.25000  0.25000  0.97190  1.0000
  Zn  Zn4       1.0  0.00357  0.00040  0.03696  1.0000
  Zn  Zn5       1.0  0.25179  0.26529  0.09009  1.0000
  Zn  Zn6       1.0  0.25125  0.73402  0.08361  1.0000
  Zn  Zn7       1.0  0.50000  0.50000  0.91570  1.0000
  Zn  Zn8       1.0  0.75000  0.75000  0.97190  1.0000
  Zn  Zn9       1.0  0.75000  0.25000  0.97190  1.0000
  Zn  Zn10      1.0  0.49694  0.00024  0.03600  1.0000
  Zn  Zn11      1.0  0.74868  0.25946  0.08490  1.0000
  Zn  Zn12      1.0  0.74901  0.73810  0.08442  1.0000
  C   C1        1.0  0.25076  0.17800  0.17317  1.0000
  O   O1        1.0  0.24943  0.16469  0.22076  1.0000
