# generated using pymatgen
data_V4Zn12CO
_symmetry_space_group_name_H-M   P1
_cell_length_a   5.40744000
_cell_length_b   7.64728000
_cell_length_c   24.05560000
_cell_angle_alpha   90.00000000
_cell_angle_beta   90.00000000
_cell_angle_gamma   90.00000000
_symmetry_Int_Tables_number   1
_chemical_formula_structural   V4Zn12CO
_chemical_formula_sum   'V4 Zn12 C1 O1'
_cell_volume   994.75216907
_cell_formula_units_Z   1
loop_
 _symmetry_equiv_pos_site_id
 _symmetry_equiv_pos_as_xyz
  1  'x, y, z'
loop_
 _atom_site_type_symbol
 _atom_site_label
 _atom_site_symmetry_multiplicity
 _atom_site_fract_x
 _atom_site_fract_y
 _atom_site_fract_z
 _atom_site_occupancy
  V  V0  1  0.00000000  0.00000000  0.08430000  1.0
  V  V1  1  0.00000000  0.50000000  0.08430000  1.0
  V  V2  1  0.50145000  0.50003000  0.97242000  1.0
  V  V3  1  0.50147000  0.99991000  0.97214000  1.0
  Zn  Zn4  1  0.25000000  0.25000000  0.02810000  1.0
  Zn  Zn5  1  0.25000000  0.75000000  0.02810000  1.0
  Zn  Zn6  1  0.26190000  0.25099000  0.91558000  1.0
  Zn  Zn7  1  0.26598000  0.74875000  0.91639000  1.0
  Zn  Zn8  1  0.50000000  0.00000000  0.08430000  1.0
  Zn  Zn9  1  0.50000000  0.50000000  0.08430000  1.0
  Zn  Zn10  1  0.73471000  0.74821000  0.90991000  1.0
  Zn  Zn11  1  0.74054000  0.25132000  0.91510000  1.0
  Zn  Zn12  1  0.75000000  0.25000000  0.02810000  1.0
  Zn  Zn13  1  0.75000000  0.75000000  0.02810000  1.0
  Zn  Zn14  1  0.99960000  0.99643000  0.96304000  1.0
  Zn  Zn15  1  0.99976000  0.50306000  0.96400000  1.0
  C  C16  1  0.82200000  0.74924000  0.82683000  1.0
  O  O17  1  0.83531000  0.75057000  0.77924000  1.0
