# generated using pymatgen
data_Li8Al4Rh4CO
_symmetry_space_group_name_H-M   Cm
_cell_length_a   8.51164232
_cell_length_b   8.51164232
_cell_length_c   24.51400000
_cell_angle_alpha   90.00000000
_cell_angle_beta   90.00000000
_cell_angle_gamma   90.00000000
_symmetry_Int_Tables_number   8
_chemical_formula_structural   Li8Al4Rh4CO
_chemical_formula_sum   'Li16 Al8 Rh8 C2 O2'
_cell_volume   1775.99161780
_cell_formula_units_Z   2
loop_
 _symmetry_equiv_pos_site_id
 _symmetry_equiv_pos_as_xyz
  1  'x, y, z'
  2  'x, -y, z'
  3  'x+1/2, y+1/2, z'
  4  'x+1/2, -y+1/2, z'
loop_
 _atom_site_type_symbol
 _atom_site_label
 _atom_site_symmetry_multiplicity
 _atom_site_fract_x
 _atom_site_fract_y
 _atom_site_fract_z
 _atom_site_occupancy
  Li  Li0  4  0.25000000  0.25000000  0.90793000  1.0
  Li  Li1  4  0.49993000  0.24882000  0.10926000  1.0
  Li  Li2  2  0.00644000  0.00000000  0.03353000  1.0
  Li  Li3  2  0.25000000  0.00000000  0.96931000  1.0
  Li  Li4  2  0.25000000  0.50000000  0.96931000  1.0
  Li  Li5  2  0.49370000  0.00000000  0.03301000  1.0
  Al  Al6  4  0.25003500  0.24236500  0.03128000  1.0
  Al  Al7  2  0.00000000  0.00000000  0.90793000  1.0
  Al  Al8  2  0.00000000  0.50000000  0.90793000  1.0
  Rh  Rh9  4  0.00000000  0.25000000  0.96931000  1.0
  Rh  Rh10  2  0.24983000  0.50000000  0.08574000  1.0
  Rh  Rh11  2  0.25028000  0.00000000  0.08639000  1.0
  C  C12  2  0.25008000  0.50000000  0.16164000  1.0
  O  O13  2  0.25030000  0.50000000  0.20930000  1.0
