# generated using pymatgen
data_Li8Ag16Ge8CO
_symmetry_space_group_name_H-M   Pmm2
_cell_length_a   6.51415000
_cell_length_b   9.21240000
_cell_length_c   26.90930000
_cell_angle_alpha   90.00000000
_cell_angle_beta   90.00000000
_cell_angle_gamma   90.00000000
_symmetry_Int_Tables_number   25
_chemical_formula_structural   Li8Ag16Ge8CO
_chemical_formula_sum   'Li8 Ag16 Ge8 C1 O1'
_cell_volume   1614.85280376
_cell_formula_units_Z   1
loop_
 _symmetry_equiv_pos_site_id
 _symmetry_equiv_pos_as_xyz
  1  'x, y, z'
  2  '-x, -y, z'
  3  '-x, y, z'
  4  'x, -y, z'
loop_
 _atom_site_type_symbol
 _atom_site_label
 _atom_site_symmetry_multiplicity
 _atom_site_fract_x
 _atom_site_fract_y
 _atom_site_fract_z
 _atom_site_occupancy
  Li  Li0  2  0.00000000  0.24922000  0.03899000  1.0
  Li  Li1  2  0.00000000  0.25000000  0.87162000  1.0
  Li  Li2  1  0.50000000  0.00000000  0.12908000  1.0
  Li  Li3  1  0.50000000  0.00000000  0.95721000  1.0
  Li  Li4  1  0.50000000  0.50000000  0.12866000  1.0
  Li  Li5  1  0.50000000  0.50000000  0.95721000  1.0
  Ag  Ag6  4  0.23473000  0.25176000  0.12469000  1.0
  Ag  Ag7  4  0.25000000  0.25000000  0.95721000  1.0
  Ag  Ag8  2  0.23941000  0.50000000  0.04531000  1.0
  Ag  Ag9  2  0.24168000  0.00000000  0.04551000  1.0
  Ag  Ag10  2  0.25000000  0.00000000  0.87162000  1.0
  Ag  Ag11  2  0.25000000  0.50000000  0.87162000  1.0
  Ge  Ge12  2  0.50000000  0.24926000  0.04476000  1.0
  Ge  Ge13  2  0.50000000  0.25000000  0.87162000  1.0
  Ge  Ge14  1  0.00000000  0.00000000  0.13136000  1.0
  Ge  Ge15  1  0.00000000  0.00000000  0.95721000  1.0
  Ge  Ge16  1  0.00000000  0.50000000  0.13386000  1.0
  Ge  Ge17  1  0.00000000  0.50000000  0.95721000  1.0
  C  C18  1  0.50000000  0.00000000  0.20660000  1.0
  O  O19  1  0.50000000  0.00000000  0.24897000  1.0
