# generated using pymatgen
data_Co16Si16C
_symmetry_space_group_name_H-M   Pmm2
_cell_length_a   5.56276000
_cell_length_b   7.86693000
_cell_length_c   25.90020000
_cell_angle_alpha   90.00000000
_cell_angle_beta   90.00000000
_cell_angle_gamma   90.00000000
_symmetry_Int_Tables_number   25
_chemical_formula_structural   Co16Si16C
_chemical_formula_sum   'Co16 Si16 C1'
_cell_volume   1133.44049971
_cell_formula_units_Z   1
loop_
 _symmetry_equiv_pos_site_id
 _symmetry_equiv_pos_as_xyz
  1  'x, y, z'
  2  '-x, -y, z'
  3  '-x, y, z'
  4  'x, -y, z'
loop_
 _atom_site_type_symbol
 _atom_site_label
 _atom_site_symmetry_multiplicity
 _atom_site_fract_x
 _atom_site_fract_y
 _atom_site_fract_z
 _atom_site_occupancy
  Co  Co0  4  0.24723000  0.25106000  0.03723000  1.0
  Co  Co1  4  0.25000000  0.25000000  0.88610000  1.0
  Co  Co2  2  0.24677000  0.50000000  0.11060000  1.0
  Co  Co3  2  0.25000000  0.00000000  0.96203000  1.0
  Co  Co4  2  0.25000000  0.50000000  0.96203000  1.0
  Co  Co5  2  0.28756000  0.00000000  0.10864000  1.0
  Si  Si6  2  0.00000000  0.24075000  0.12009000  1.0
  Si  Si7  2  0.00000000  0.25000000  0.96203000  1.0
  Si  Si8  2  0.50000000  0.25000000  0.96203000  1.0
  Si  Si9  2  0.50000000  0.25747000  0.11831000  1.0
  Si  Si10  1  0.00000000  0.00000000  0.04089000  1.0
  Si  Si11  1  0.00000000  0.00000000  0.88610000  1.0
  Si  Si12  1  0.00000000  0.50000000  0.03847000  1.0
  Si  Si13  1  0.00000000  0.50000000  0.88610000  1.0
  Si  Si14  1  0.50000000  0.00000000  0.03380000  1.0
  Si  Si15  1  0.50000000  0.00000000  0.88610000  1.0
  Si  Si16  1  0.50000000  0.50000000  0.03953000  1.0
  Si  Si17  1  0.50000000  0.50000000  0.88610000  1.0
  C  C18  1  0.00000000  0.00000000  0.14206000  1.0
