# generated using pymatgen
data_Li4V4Ge4Pd4C
_symmetry_space_group_name_H-M   P1
_cell_length_a   5.49597000
_cell_length_b   8.64114000
_cell_length_c   23.65060000
_cell_angle_alpha   90.00000000
_cell_angle_beta   90.00000000
_cell_angle_gamma   90.00000000
_symmetry_Int_Tables_number   1
_chemical_formula_structural   Li4V4Ge4Pd4C
_chemical_formula_sum   'Li4 V4 Ge4 Pd4 C1'
_cell_volume   1123.20119763
_cell_formula_units_Z   1
loop_
 _symmetry_equiv_pos_site_id
 _symmetry_equiv_pos_as_xyz
  1  'x, y, z'
loop_
 _atom_site_type_symbol
 _atom_site_label
 _atom_site_symmetry_multiplicity
 _atom_site_fract_x
 _atom_site_fract_y
 _atom_site_fract_z
 _atom_site_occupancy
  Li  Li0  1  0.50000000  0.00000000  0.92282000  1.0
  Li  Li1  1  0.50000000  0.50000000  0.92282000  1.0
  Li  Li2  1  0.70958000  0.00001000  0.02578000  1.0
  Li  Li3  1  0.73827000  0.49990000  0.02976000  1.0
  V  V4  1  0.13390000  0.25000000  0.97427000  1.0
  V  V5  1  0.13390000  0.75000000  0.97427000  1.0
  V  V6  1  0.39838000  0.21719000  0.06361000  1.0
  V  V7  1  0.39904000  0.78345000  0.06383000  1.0
  Ge  Ge8  1  0.00000000  0.00000000  0.92282000  1.0
  Ge  Ge9  1  0.00000000  0.50000000  0.92282000  1.0
  Ge  Ge10  1  0.15470000  0.00005000  0.02757000  1.0
  Ge  Ge11  1  0.24210000  0.50018000  0.03216000  1.0
  Pd  Pd12  1  0.63390000  0.25000000  0.97427000  1.0
  Pd  Pd13  1  0.63390000  0.75000000  0.97427000  1.0
  Pd  Pd14  1  0.91204000  0.24920000  0.07190000  1.0
  Pd  Pd15  1  0.91244000  0.75037000  0.07183000  1.0
  C  C16  1  0.43389000  0.00012000  0.08390000  1.0
