data_image0
_chemical_formula_structural       Sc8In8Pd16CO
_chemical_formula_sum              "Sc8 In8 Pd16 C1 O1"
_cell_length_a       6.63475
_cell_length_b       9.38295
_cell_length_c       27.0372
_cell_angle_alpha    90
_cell_angle_beta     90
_cell_angle_gamma    90

_space_group_name_H-M_alt    "P 1"
_space_group_IT_number       1

loop_
  _space_group_symop_operation_xyz
  'x, y, z'

loop_
  _atom_site_type_symbol
  _atom_site_label
  _atom_site_symmetry_multiplicity
  _atom_site_fract_x
  _atom_site_fract_y
  _atom_site_fract_z
  _atom_site_occupancy
  Sc  Sc1       1.0  0.00000  0.00000  0.86986  1.0000
  Sc  Sc2       1.0  0.50000  0.25000  0.95662  1.0000
  Sc  Sc3       1.0  0.50000  0.75000  0.95662  1.0000
  Sc  Sc4       1.0  0.00000  0.50000  0.86986  1.0000
  Sc  Sc5       1.0  1.00000  0.50008  0.04456  1.0000
  Sc  Sc6       1.0  0.50000  0.75000  0.12570  1.0000
  Sc  Sc7       1.0  0.50000  0.25000  0.12562  1.0000
  Sc  Sc8       1.0  0.00000  0.99992  0.04456  1.0000
  In  In1       1.0  0.00000  0.75000  0.95662  1.0000
  In  In2       1.0  0.50000  0.00000  0.86986  1.0000
  In  In3       1.0  0.00000  0.25000  0.95662  1.0000
  In  In4       1.0  0.50000  0.50000  0.86986  1.0000
  In  In5       1.0  0.00000  0.25000  0.13566  1.0000
  In  In6       1.0  0.50000  0.49981  0.04322  1.0000
  In  In7       1.0  0.00000  0.75000  0.13594  1.0000
  In  In8       1.0  0.50000  0.00019  0.04322  1.0000
  Pd  Pd1       1.0  0.25000  0.00000  0.95662  1.0000
  Pd  Pd2       1.0  0.75000  0.50000  0.95662  1.0000
  Pd  Pd3       1.0  0.75000  0.00000  0.95662  1.0000
  Pd  Pd4       1.0  0.25000  0.50000  0.95662  1.0000
  Pd  Pd5       1.0  0.75000  0.75000  0.86986  1.0000
  Pd  Pd6       1.0  0.25000  0.25000  0.86986  1.0000
  Pd  Pd7       1.0  0.25000  0.75000  0.86986  1.0000
  Pd  Pd8       1.0  0.75000  0.25000  0.86986  1.0000
  Pd  Pd9       1.0  0.24267  0.50015  0.12564  1.0000
  Pd  Pd10      1.0  0.75733  0.99985  0.12564  1.0000
  Pd  Pd11      1.0  0.75733  0.50015  0.12564  1.0000
  Pd  Pd12      1.0  0.24267  0.99985  0.12564  1.0000
  Pd  Pd13      1.0  0.75280  0.25000  0.04387  1.0000
  Pd  Pd14      1.0  0.24741  0.75000  0.04390  1.0000
  Pd  Pd15      1.0  0.24720  0.25000  0.04387  1.0000
  Pd  Pd16      1.0  0.75259  0.75000  0.04390  1.0000
  C   C1        1.0  0.99997  0.24999  0.28168  1.0000
  O   O1        1.0  0.00000  0.25000  0.32366  1.0000
