# generated using pymatgen
data_Sc8In8Pd16CO
_symmetry_space_group_name_H-M   'P 1'
_cell_length_a   6.63475000
_cell_length_b   9.38295000
_cell_length_c   27.03720000
_cell_angle_alpha   90.00000000
_cell_angle_beta   90.00000000
_cell_angle_gamma   90.00000000
_symmetry_Int_Tables_number   1
_chemical_formula_structural   Sc8In8Pd16CO
_chemical_formula_sum   'Sc8 In8 Pd16 C1 O1'
_cell_volume   1683.16107406
_cell_formula_units_Z   1
loop_
 _symmetry_equiv_pos_site_id
 _symmetry_equiv_pos_as_xyz
  1  'x, y, z'
loop_
 _atom_site_type_symbol
 _atom_site_label
 _atom_site_symmetry_multiplicity
 _atom_site_fract_x
 _atom_site_fract_y
 _atom_site_fract_z
 _atom_site_occupancy
  Sc  Sc0  1  0.50000000  0.75001000  0.86986000  1.0
  Sc  Sc1  1  0.00000000  0.00000000  0.95662000  1.0
  Sc  Sc2  1  0.00000000  0.50000000  0.95662000  1.0
  Sc  Sc3  1  0.50000000  0.24999000  0.86986000  1.0
  Sc  Sc4  1  0.50000000  0.25009000  0.04456000  1.0
  Sc  Sc5  1  0.00000000  0.50000000  0.12570000  1.0
  Sc  Sc6  1  0.00000000  0.00000000  0.12562000  1.0
  Sc  Sc7  1  0.50000000  0.74991000  0.04456000  1.0
  In  In8  1  0.50000000  0.50000000  0.95662000  1.0
  In  In9  1  0.00000000  0.75001000  0.86986000  1.0
  In  In10  1  0.50000000  0.00000000  0.95662000  1.0
  In  In11  1  0.00000000  0.24999000  0.86986000  1.0
  In  In12  1  0.50000000  0.00000000  0.13566000  1.0
  In  In13  1  0.00000000  0.24982000  0.04322000  1.0
  In  In14  1  0.50000000  0.50000000  0.13594000  1.0
  In  In15  1  0.00000000  0.75018000  0.04322000  1.0
  Pd  Pd16  1  0.75003000  0.75001000  0.95662000  1.0
  Pd  Pd17  1  0.24997000  0.24999000  0.95662000  1.0
  Pd  Pd18  1  0.24997000  0.75001000  0.95662000  1.0
  Pd  Pd19  1  0.75003000  0.24999000  0.95662000  1.0
  Pd  Pd20  1  0.25003000  0.50000000  0.86986000  1.0
  Pd  Pd21  1  0.75003000  0.00000000  0.86986000  1.0
  Pd  Pd22  1  0.74997000  0.50000000  0.86986000  1.0
  Pd  Pd23  1  0.24997000  0.00000000  0.86986000  1.0
  Pd  Pd24  1  0.74270000  0.25016000  0.12564000  1.0
  Pd  Pd25  1  0.25730000  0.74984000  0.12564000  1.0
  Pd  Pd26  1  0.25730000  0.25016000  0.12564000  1.0
  Pd  Pd27  1  0.74270000  0.74984000  0.12564000  1.0
  Pd  Pd28  1  0.25283000  0.00000000  0.04387000  1.0
  Pd  Pd29  1  0.74744000  0.50000000  0.04390000  1.0
  Pd  Pd30  1  0.74717000  0.00000000  0.04387000  1.0
  Pd  Pd31  1  0.25256000  0.50000000  0.04390000  1.0
  C  C32  1  0.50000000  0.00000000  0.28168000  1.0
  O  O33  1  0.50000000  0.00000000  0.32366000  1.0
