# generated using pymatgen
data_Li16In8Ir8C
_symmetry_space_group_name_H-M   Pm
_cell_length_a   6.17944000
_cell_length_b   8.73904000
_cell_length_c   26.55430000
_cell_angle_alpha   90.00000000
_cell_angle_beta   90.00000000
_cell_angle_gamma   90.00000000
_symmetry_Int_Tables_number   6
_chemical_formula_structural   Li16In8Ir8C
_chemical_formula_sum   'Li16 In8 Ir8 C1'
_cell_volume   1433.99522232
_cell_formula_units_Z   1
loop_
 _symmetry_equiv_pos_site_id
 _symmetry_equiv_pos_as_xyz
  1  'x, y, z'
  2  'x, -y, z'
loop_
 _atom_site_type_symbol
 _atom_site_label
 _atom_site_symmetry_multiplicity
 _atom_site_fract_x
 _atom_site_fract_y
 _atom_site_fract_z
 _atom_site_occupancy
  Li  Li0  2  0.23291000  0.24692000  0.14447000  1.0
  Li  Li1  2  0.25000000  0.25000000  0.95886000  1.0
  Li  Li2  2  0.75000000  0.25000000  0.95886000  1.0
  Li  Li3  2  0.78015000  0.26676000  0.14321000  1.0
  Li  Li4  1  0.24871000  0.00000000  0.04076000  1.0
  Li  Li5  1  0.25000000  0.00000000  0.87659000  1.0
  Li  Li6  1  0.25000000  0.50000000  0.87659000  1.0
  Li  Li7  1  0.25006000  0.50000000  0.03635000  1.0
  Li  Li8  1  0.75000000  0.00000000  0.87659000  1.0
  Li  Li9  1  0.75000000  0.50000000  0.87659000  1.0
  Li  Li10  1  0.75207000  0.50000000  0.03953000  1.0
  Li  Li11  1  0.75313000  0.00000000  0.03404000  1.0
  In  In12  2  0.00000000  0.25000000  0.87659000  1.0
  In  In13  2  0.00470000  0.25147000  0.04698000  1.0
  In  In14  1  0.48672000  0.50000000  0.11819000  1.0
  In  In15  1  0.50000000  0.00000000  0.95886000  1.0
  In  In16  1  0.50000000  0.50000000  0.95886000  1.0
  In  In17  1  0.53031000  0.00000000  0.11976000  1.0
  Ir  Ir18  2  0.50000000  0.25000000  0.87659000  1.0
  Ir  Ir19  2  0.50460000  0.24710000  0.05046000  1.0
  Ir  Ir20  1  0.00000000  0.00000000  0.95886000  1.0
  Ir  Ir21  1  0.00000000  0.50000000  0.95886000  1.0
  Ir  Ir22  1  0.01956000  0.50000000  0.11645000  1.0
  Ir  Ir23  1  0.98421000  0.00000000  0.12056000  1.0
  C  C24  1  0.20452000  0.00000000  0.16422000  1.0
