# generated using pymatgen
data_Y4In4Sn4Pd4CO
_symmetry_space_group_name_H-M   Pm
_cell_length_a   6.32964000
_cell_length_b   9.06394000
_cell_length_c   24.74170000
_cell_angle_alpha   90.00000000
_cell_angle_beta   90.00000000
_cell_angle_gamma   90.00000000
_symmetry_Int_Tables_number   6
_chemical_formula_structural   Y4In4Sn4Pd4CO
_chemical_formula_sum   'Y4 In4 Sn4 Pd4 C1 O1'
_cell_volume   1419.46787698
_cell_formula_units_Z   1
loop_
 _symmetry_equiv_pos_site_id
 _symmetry_equiv_pos_as_xyz
  1  'x, y, z'
  2  'x, -y, z'
loop_
 _atom_site_type_symbol
 _atom_site_label
 _atom_site_symmetry_multiplicity
 _atom_site_fract_x
 _atom_site_fract_y
 _atom_site_fract_z
 _atom_site_occupancy
  Y  Y0  1  0.16504000  0.50000000  0.08771000  1.0
  Y  Y1  1  0.17277000  0.00000000  0.09482000  1.0
  Y  Y2  1  0.73799000  0.00000000  0.96806000  1.0
  Y  Y3  1  0.73799000  0.50000000  0.96806000  1.0
  In  In4  2  0.00000000  0.25001000  0.90418000  1.0
  In  In5  2  0.40030000  0.24836000  0.02479000  1.0
  Sn  Sn6  2  0.50000000  0.25001000  0.90418000  1.0
  Sn  Sn7  2  0.87706000  0.24850000  0.06068000  1.0
  Pd  Pd8  1  0.23799000  0.00000000  0.96806000  1.0
  Pd  Pd9  1  0.23799000  0.50000000  0.96806000  1.0
  Pd  Pd10  1  0.62741000  0.50000000  0.07509000  1.0
  Pd  Pd11  1  0.63006000  0.00000000  0.07482000  1.0
  C  C12  1  0.17331000  0.00000000  0.19814000  1.0
  O  O13  1  0.18830000  0.00000000  0.24441000  1.0
