# generated using pymatgen
data_Sc16Ru16C
_symmetry_space_group_name_H-M   'P 1'
_cell_length_a   6.43815000
_cell_length_b   9.10491000
_cell_length_c   26.82870000
_cell_angle_alpha   90.00000000
_cell_angle_beta   90.00000000
_cell_angle_gamma   90.00000000
_symmetry_Int_Tables_number   1
_chemical_formula_structural   Sc16Ru16C
_chemical_formula_sum   'Sc16 Ru16 C1'
_cell_volume   1572.66556416
_cell_formula_units_Z   1
loop_
 _symmetry_equiv_pos_site_id
 _symmetry_equiv_pos_as_xyz
  1  'x, y, z'
loop_
 _atom_site_type_symbol
 _atom_site_label
 _atom_site_symmetry_multiplicity
 _atom_site_fract_x
 _atom_site_fract_y
 _atom_site_fract_z
 _atom_site_occupancy
  Sc  Sc0  1  0.25000000  0.25000000  0.87274000  1.0
  Sc  Sc1  1  0.25000000  0.00000000  0.95758000  1.0
  Sc  Sc2  1  0.24807000  0.25410000  0.04238000  1.0
  Sc  Sc3  1  0.28186000  0.00000000  0.11844000  1.0
  Sc  Sc4  1  0.25000000  0.75000000  0.87274000  1.0
  Sc  Sc5  1  0.25000000  0.50000000  0.95758000  1.0
  Sc  Sc6  1  0.24807000  0.74590000  0.04238000  1.0
  Sc  Sc7  1  0.25538000  0.50000000  0.12762000  1.0
  Sc  Sc8  1  0.75000000  0.25000000  0.87274000  1.0
  Sc  Sc9  1  0.75000000  0.00000000  0.95758000  1.0
  Sc  Sc10  1  0.75193000  0.25410000  0.04238000  1.0
  Sc  Sc11  1  0.71814000  0.00000000  0.11844000  1.0
  Sc  Sc12  1  0.75000000  0.75000000  0.87274000  1.0
  Sc  Sc13  1  0.75000000  0.50000000  0.95758000  1.0
  Sc  Sc14  1  0.75193000  0.74590000  0.04238000  1.0
  Sc  Sc15  1  0.74462000  0.50000000  0.12762000  1.0
  Ru  Ru16  1  0.00000000  0.00000000  0.87274000  1.0
  Ru  Ru17  1  0.00000000  0.25000000  0.95758000  1.0
  Ru  Ru18  1  0.00000000  0.00000000  0.04238000  1.0
  Ru  Ru19  1  0.00000000  0.19998000  0.13532000  1.0
  Ru  Ru20  1  0.00000000  0.50000000  0.87274000  1.0
  Ru  Ru21  1  0.00000000  0.75000000  0.95758000  1.0
  Ru  Ru22  1  0.00000000  0.50000000  0.04704000  1.0
  Ru  Ru23  1  0.00000000  0.80002000  0.13532000  1.0
  Ru  Ru24  1  0.50000000  0.00000000  0.87274000  1.0
  Ru  Ru25  1  0.50000000  0.25000000  0.95758000  1.0
  Ru  Ru26  1  0.50000000  0.00000000  0.03716000  1.0
  Ru  Ru27  1  0.50000000  0.26034000  0.12514000  1.0
  Ru  Ru28  1  0.50000000  0.50000000  0.87274000  1.0
  Ru  Ru29  1  0.50000000  0.75000000  0.95758000  1.0
  Ru  Ru30  1  0.50000000  0.50000000  0.04356000  1.0
  Ru  Ru31  1  0.50000000  0.73966000  0.12514000  1.0
  C  C32  1  0.00000000  0.00000000  0.16305000  1.0
