# generated using pymatgen
data_Li8In16Rh8CO
_symmetry_space_group_name_H-M   'P 1'
_cell_length_a   6.57920000
_cell_length_b   9.30439000
_cell_length_c   26.97830000
_cell_angle_alpha   90.00000000
_cell_angle_beta   90.00000000
_cell_angle_gamma   90.00000000
_symmetry_Int_Tables_number   1
_chemical_formula_structural   Li8In16Rh8CO
_chemical_formula_sum   'Li8 In16 Rh8 C1 O1'
_cell_volume   1651.48857747
_cell_formula_units_Z   1
loop_
 _symmetry_equiv_pos_site_id
 _symmetry_equiv_pos_as_xyz
  1  'x, y, z'
loop_
 _atom_site_type_symbol
 _atom_site_label
 _atom_site_symmetry_multiplicity
 _atom_site_fract_x
 _atom_site_fract_y
 _atom_site_fract_z
 _atom_site_occupancy
  Li  Li0  1  0.00000000  0.75000000  0.87067000  1.0
  Li  Li1  1  0.50000000  0.00000000  0.95689000  1.0
  Li  Li2  1  0.50000000  0.50000000  0.95689000  1.0
  Li  Li3  1  0.00000000  0.25000000  0.87067000  1.0
  Li  Li4  1  0.00000000  0.25280000  0.04407000  1.0
  Li  Li5  1  0.50000000  0.50000000  0.14212000  1.0
  Li  Li6  1  0.50000000  0.00000000  0.13688000  1.0
  Li  Li7  1  0.00000000  0.74720000  0.04407000  1.0
  In  In8  1  0.25000000  0.75000000  0.95689000  1.0
  In  In9  1  0.75000000  0.25000000  0.95689000  1.0
  In  In10  1  0.75000000  0.75000000  0.95689000  1.0
  In  In11  1  0.25000000  0.25000000  0.95689000  1.0
  In  In12  1  0.75000000  0.50000000  0.87067000  1.0
  In  In13  1  0.25000000  0.00000000  0.87067000  1.0
  In  In14  1  0.25000000  0.50000000  0.87067000  1.0
  In  In15  1  0.75000000  0.00000000  0.87067000  1.0
  In  In16  1  0.24554000  0.25657000  0.13475000  1.0
  In  In17  1  0.75446000  0.74343000  0.13475000  1.0
  In  In18  1  0.75446000  0.25657000  0.13475000  1.0
  In  In19  1  0.24554000  0.74343000  0.13475000  1.0
  In  In20  1  0.74835000  0.00000000  0.04589000  1.0
  In  In21  1  0.25937000  0.50000000  0.04328000  1.0
  In  In22  1  0.25165000  0.00000000  0.04589000  1.0
  In  In23  1  0.74063000  0.50000000  0.04328000  1.0
  Rh  Rh24  1  0.00000000  0.50000000  0.95689000  1.0
  Rh  Rh25  1  0.50000000  0.75000000  0.87067000  1.0
  Rh  Rh26  1  0.00000000  0.00000000  0.95689000  1.0
  Rh  Rh27  1  0.50000000  0.25000000  0.87067000  1.0
  Rh  Rh28  1  0.00000000  0.00000000  0.13373000  1.0
  Rh  Rh29  1  0.50000000  0.24653000  0.03949000  1.0
  Rh  Rh30  1  0.00000000  0.50000000  0.12147000  1.0
  Rh  Rh31  1  0.50000000  0.75347000  0.03949000  1.0
  C  C32  1  0.00000000  0.00000000  0.20310000  1.0
  O  O33  1  0.00000000  0.00000000  0.24614000  1.0
