data_image0
_chemical_formula_structural       Li4Ni8Ge4CO
_chemical_formula_sum              "Li4 Ni8 Ge4 C1 O1"
_cell_length_a       5.71239
_cell_length_b       5.71239
_cell_length_c       24.2843
_cell_angle_alpha    90
_cell_angle_beta     90
_cell_angle_gamma    90

_space_group_name_H-M_alt    "P 1"
_space_group_IT_number       1

loop_
  _space_group_symop_operation_xyz
  'x, y, z'

loop_
  _atom_site_type_symbol
  _atom_site_label
  _atom_site_symmetry_multiplicity
  _atom_site_fract_x
  _atom_site_fract_y
  _atom_site_fract_z
  _atom_site_occupancy
  Li  Li1       1.0  0.00000  0.00000  0.08821  1.0000
  Li  Li2       1.0  0.50000  0.50000  0.08821  1.0000
  Li  Li3       1.0  0.50000  0.00000  0.97060  1.0000
  Li  Li4       1.0  0.00000  0.50000  0.97060  1.0000
  Ni  Ni1       1.0  0.25000  0.25000  0.02940  1.0000
  Ni  Ni2       1.0  0.75000  0.75000  0.91179  1.0000
  Ni  Ni3       1.0  0.75000  0.25000  0.02940  1.0000
  Ni  Ni4       1.0  0.25000  0.75000  0.91179  1.0000
  Ni  Ni5       1.0  0.75000  0.75000  0.02940  1.0000
  Ni  Ni6       1.0  0.25000  0.25000  0.91179  1.0000
  Ni  Ni7       1.0  0.25000  0.75000  0.02940  1.0000
  Ni  Ni8       1.0  0.75000  0.25000  0.91179  1.0000
  Ge  Ge1       1.0  0.00000  0.00000  0.97060  1.0000
  Ge  Ge2       1.0  0.50000  0.00000  0.08821  1.0000
  Ge  Ge3       1.0  0.00000  0.50000  0.08821  1.0000
  Ge  Ge4       1.0  0.50000  0.50000  0.97060  1.0000
  C   C1        1.0  0.00000  0.50000  0.16645  1.0000
  O   O1        1.0  0.00000  0.50000  0.21381  1.0000
