# generated using pymatgen
data_Li8Y8In8Ge8CO
_symmetry_space_group_name_H-M   P1
_cell_length_a   8.49364000
_cell_length_b   9.31878000
_cell_length_c   26.43230000
_cell_angle_alpha   90.00000000
_cell_angle_beta   90.00000000
_cell_angle_gamma   90.00000000
_symmetry_Int_Tables_number   1
_chemical_formula_structural   Li8Y8In8Ge8CO
_chemical_formula_sum   'Li8 Y8 In8 Ge8 C1 O1'
_cell_volume   2092.12612827
_cell_formula_units_Z   1
loop_
 _symmetry_equiv_pos_site_id
 _symmetry_equiv_pos_as_xyz
  1  'x, y, z'
loop_
 _atom_site_type_symbol
 _atom_site_label
 _atom_site_symmetry_multiplicity
 _atom_site_fract_x
 _atom_site_fract_y
 _atom_site_fract_z
 _atom_site_occupancy
  Li  Li0  1  0.00000000  0.25000000  0.04056000  1.0
  Li  Li1  1  0.00000000  0.75000000  0.04056000  1.0
  Li  Li2  1  0.00002000  0.24462000  0.88363000  1.0
  Li  Li3  1  0.00003000  0.74610000  0.94058000  1.0
  Li  Li4  1  0.50000000  0.25000000  0.04056000  1.0
  Li  Li5  1  0.50000000  0.75000000  0.04056000  1.0
  Li  Li6  1  0.50001000  0.74226000  0.88280000  1.0
  Li  Li7  1  0.50003000  0.23902000  0.88105000  1.0
  Y  Y8  1  0.20335000  0.93475000  0.87330000  1.0
  Y  Y9  1  0.20338000  0.55318000  0.87700000  1.0
  Y  Y10  1  0.25000000  0.00000000  0.04056000  1.0
  Y  Y11  1  0.25000000  0.50000000  0.04056000  1.0
  Y  Y12  1  0.75000000  0.00000000  0.04056000  1.0
  Y  Y13  1  0.75000000  0.50000000  0.04056000  1.0
  Y  Y14  1  0.79664000  0.55321000  0.87701000  1.0
  Y  Y15  1  0.79669000  0.93471000  0.87330000  1.0
  In  In16  1  0.25000000  0.25000000  0.12168000  1.0
  In  In17  1  0.25000000  0.75000000  0.12168000  1.0
  In  In18  1  0.25100000  0.24663000  0.95303000  1.0
  In  In19  1  0.29877000  0.74941000  0.96558000  1.0
  In  In20  1  0.70129000  0.74943000  0.96558000  1.0
  In  In21  1  0.74908000  0.24665000  0.95302000  1.0
  In  In22  1  0.75000000  0.25000000  0.12168000  1.0
  In  In23  1  0.75000000  0.75000000  0.12168000  1.0
  Ge  Ge24  1  0.00000000  0.00000000  0.12168000  1.0
  Ge  Ge25  1  0.00000000  0.47238000  0.96141000  1.0
  Ge  Ge26  1  0.00000000  0.50000000  0.12168000  1.0
  Ge  Ge27  1  0.00005000  0.01914000  0.96023000  1.0
  Ge  Ge28  1  0.49999000  0.49342000  0.94992000  1.0
  Ge  Ge29  1  0.50000000  0.00000000  0.12168000  1.0
  Ge  Ge30  1  0.50000000  0.50000000  0.12168000  1.0
  Ge  Ge31  1  0.50005000  0.00103000  0.95092000  1.0
  C  C32  1  0.00002000  0.73468000  0.85779000  1.0
  O  O33  1  0.00013000  0.86891000  0.82791000  1.0
