data_image0
_chemical_formula_structural       Y4Pb12C
_chemical_formula_sum              "Y4 Pb12 C1"
_cell_length_a       9.91485
_cell_length_b       7.01086
_cell_length_c       25.2581
_cell_angle_alpha    90
_cell_angle_beta     90
_cell_angle_gamma    90

_space_group_name_H-M_alt    "P 1"
_space_group_IT_number       1

loop_
  _space_group_symop_operation_xyz
  'x, y, z'

loop_
  _atom_site_type_symbol
  _atom_site_label
  _atom_site_symmetry_multiplicity
  _atom_site_fract_x
  _atom_site_fract_y
  _atom_site_fract_z
  _atom_site_occupancy
  Y   Y1        1.0  0.00000  0.00000  0.89591  1.0000
  Y   Y2        1.0  1.00000  0.50018  0.02901  1.0000
  Y   Y3        1.0  0.50000  0.00000  0.89591  1.0000
  Y   Y4        1.0  0.50004  0.50009  0.02461  1.0000
  Pb  Pb1       1.0  0.00000  0.50000  0.89591  1.0000
  Pb  Pb2       1.0  0.25000  0.75000  0.96530  1.0000
  Pb  Pb3       1.0  0.25000  0.25000  0.96530  1.0000
  Pb  Pb4       1.0  0.00000  0.00008  0.02057  1.0000
  Pb  Pb5       1.0  0.20471  0.22791  0.10947  1.0000
  Pb  Pb6       1.0  0.20488  0.77209  0.10949  1.0000
  Pb  Pb7       1.0  0.50000  0.50000  0.89591  1.0000
  Pb  Pb8       1.0  0.75000  0.75000  0.96530  1.0000
  Pb  Pb9       1.0  0.75000  0.25000  0.96530  1.0000
  Pb  Pb10      1.0  0.49999  0.99999  0.04566  1.0000
  Pb  Pb11      1.0  0.79526  0.22791  0.10946  1.0000
  Pb  Pb12      1.0  0.79511  0.77209  0.10949  1.0000
  C   C1        1.0  0.99997  0.99950  0.11418  1.0000
