# generated using pymatgen
data_Mn12Sb4C
_symmetry_space_group_name_H-M   Pm
_cell_length_a   5.40688000
_cell_length_b   7.64649000
_cell_length_c   24.05520000
_cell_angle_alpha   90.00000000
_cell_angle_beta   90.00000000
_cell_angle_gamma   90.00000000
_symmetry_Int_Tables_number   6
_chemical_formula_structural   Mn12Sb4C
_chemical_formula_sum   'Mn12 Sb4 C1'
_cell_volume   994.52986212
_cell_formula_units_Z   1
loop_
 _symmetry_equiv_pos_site_id
 _symmetry_equiv_pos_as_xyz
  1  'x, y, z'
  2  'x, -y, z'
loop_
 _atom_site_type_symbol
 _atom_site_label
 _atom_site_symmetry_multiplicity
 _atom_site_fract_x
 _atom_site_fract_y
 _atom_site_fract_z
 _atom_site_occupancy
  Mn  Mn0  2  0.00000000  0.25000000  0.02810000  1.0
  Mn  Mn1  2  0.50000000  0.25000000  0.91571000  1.0
  Mn  Mn2  1  0.25000000  0.00000000  0.08429000  1.0
  Mn  Mn3  1  0.25000000  0.00000000  0.97190000  1.0
  Mn  Mn4  1  0.25000000  0.50000000  0.08429000  1.0
  Mn  Mn5  1  0.25000000  0.50000000  0.97190000  1.0
  Mn  Mn6  1  0.75000000  0.00000000  0.08429000  1.0
  Mn  Mn7  1  0.75000000  0.00000000  0.97190000  1.0
  Mn  Mn8  1  0.75000000  0.50000000  0.08429000  1.0
  Mn  Mn9  1  0.75000000  0.50000000  0.97190000  1.0
  Sb  Sb10  2  0.00000000  0.25000000  0.91571000  1.0
  Sb  Sb11  2  0.50000000  0.25000000  0.02810000  1.0
  C  C12  1  0.75000000  0.50000000  0.88245000  1.0
