# generated using pymatgen
data_Li16Zn8Ge8C
_symmetry_space_group_name_H-M   'P 1'
_cell_length_a   8.75246000
_cell_length_b   6.18893000
_cell_length_c   26.56430000
_cell_angle_alpha   90.00000000
_cell_angle_beta   90.00000000
_cell_angle_gamma   90.00000000
_symmetry_Int_Tables_number   1
_chemical_formula_structural   Li16Zn8Ge8C
_chemical_formula_sum   'Li16 Zn8 Ge8 C1'
_cell_volume   1438.94462579
_cell_formula_units_Z   1
loop_
 _symmetry_equiv_pos_site_id
 _symmetry_equiv_pos_as_xyz
  1  'x, y, z'
loop_
 _atom_site_type_symbol
 _atom_site_label
 _atom_site_symmetry_multiplicity
 _atom_site_fract_x
 _atom_site_fract_y
 _atom_site_fract_z
 _atom_site_occupancy
  Li  Li0  1  0.75000000  0.00000000  0.12356000  1.0
  Li  Li1  1  0.00000000  0.50000000  0.04119000  1.0
  Li  Li2  1  0.50000000  0.50000000  0.04119000  1.0
  Li  Li3  1  0.25000000  0.00000000  0.12356000  1.0
  Li  Li4  1  0.00000000  0.25000000  0.12356000  1.0
  Li  Li5  1  0.50000000  0.25000000  0.12356000  1.0
  Li  Li6  1  0.25000000  0.75000000  0.04119000  1.0
  Li  Li7  1  0.75000000  0.75000000  0.04119000  1.0
  Li  Li8  1  0.23769000  0.97302000  0.95731000  1.0
  Li  Li9  1  0.50000000  0.52661000  0.87680000  1.0
  Li  Li10  1  0.00000000  0.45799000  0.84170000  1.0
  Li  Li11  1  0.76231000  0.97302000  0.95731000  1.0
  Li  Li12  1  0.50000000  0.23738000  0.95749000  1.0
  Li  Li13  1  0.00000000  0.26257000  0.95983000  1.0
  Li  Li14  1  0.76348000  0.76966000  0.85644000  1.0
  Li  Li15  1  0.23652000  0.76966000  0.85644000  1.0
  Zn  Zn16  1  0.75000000  0.25000000  0.04119000  1.0
  Zn  Zn17  1  0.25000000  0.25000000  0.04119000  1.0
  Zn  Zn18  1  0.50000000  0.75000000  0.12356000  1.0
  Zn  Zn19  1  0.00000000  0.75000000  0.12356000  1.0
  Zn  Zn20  1  0.27055000  0.24400000  0.87959000  1.0
  Zn  Zn21  1  0.72945000  0.24400000  0.87959000  1.0
  Zn  Zn22  1  0.00000000  0.68171000  0.93730000  1.0
  Zn  Zn23  1  0.50000000  0.75728000  0.96063000  1.0
  Ge  Ge24  1  0.50000000  1.00000000  0.04119000  1.0
  Ge  Ge25  1  0.75000000  0.50000000  0.12356000  1.0
  Ge  Ge26  1  0.00000000  1.00000000  0.04119000  1.0
  Ge  Ge27  1  0.25000000  0.50000000  0.12356000  1.0
  Ge  Ge28  1  0.00000000  0.06509000  0.86981000  1.0
  Ge  Ge29  1  0.25971000  0.50304000  0.95634000  1.0
  Ge  Ge30  1  0.50000000  0.98153000  0.87426000  1.0
  Ge  Ge31  1  0.74029000  0.50304000  0.95634000  1.0
  C  C32  1  0.00000000  0.76605000  0.86052000  1.0
