# generated using pymatgen
data_Li16Zn8Ge8C
_symmetry_space_group_name_H-M   Pm
_cell_length_a   6.18893000
_cell_length_b   8.75246000
_cell_length_c   26.56430000
_cell_angle_alpha   90.00000000
_cell_angle_beta   90.00000000
_cell_angle_gamma   90.00000000
_symmetry_Int_Tables_number   6
_chemical_formula_structural   Li16Zn8Ge8C
_chemical_formula_sum   'Li16 Zn8 Ge8 C1'
_cell_volume   1438.94462579
_cell_formula_units_Z   1
loop_
 _symmetry_equiv_pos_site_id
 _symmetry_equiv_pos_as_xyz
  1  'x, y, z'
  2  'x, -y, z'
loop_
 _atom_site_type_symbol
 _atom_site_label
 _atom_site_symmetry_multiplicity
 _atom_site_fract_x
 _atom_site_fract_y
 _atom_site_fract_z
 _atom_site_occupancy
  Li  Li0  2  0.00000000  0.25000000  0.87644000  1.0
  Li  Li1  2  0.75000000  0.25000000  0.95881000  1.0
  Li  Li2  2  0.76966000  0.23652000  0.14356000  1.0
  Li  Li3  2  0.97302000  0.23769000  0.04269000  1.0
  Li  Li4  1  0.23738000  0.50000000  0.04251000  1.0
  Li  Li5  1  0.25000000  0.00000000  0.87644000  1.0
  Li  Li6  1  0.25000000  0.50000000  0.87644000  1.0
  Li  Li7  1  0.26257000  0.00000000  0.04017000  1.0
  Li  Li8  1  0.45799000  0.00000000  0.15830000  1.0
  Li  Li9  1  0.50000000  0.00000000  0.95881000  1.0
  Li  Li10  1  0.50000000  0.50000000  0.95881000  1.0
  Li  Li11  1  0.52661000  0.50000000  0.12320000  1.0
  Zn  Zn12  2  0.24400000  0.27055000  0.12041000  1.0
  Zn  Zn13  2  0.25000000  0.25000000  0.95881000  1.0
  Zn  Zn14  1  0.68171000  0.00000000  0.06270000  1.0
  Zn  Zn15  1  0.75000000  0.00000000  0.87644000  1.0
  Zn  Zn16  1  0.75000000  0.50000000  0.87644000  1.0
  Zn  Zn17  1  0.75728000  0.50000000  0.03937000  1.0
  Ge  Ge18  2  0.50000000  0.25000000  0.87644000  1.0
  Ge  Ge19  2  0.50304000  0.25971000  0.04366000  1.0
  Ge  Ge20  1  -0.00000000  0.50000000  0.95881000  1.0
  Ge  Ge21  1  -0.00000000  0.00000000  0.95881000  1.0
  Ge  Ge22  1  0.06509000  0.00000000  0.13019000  1.0
  Ge  Ge23  1  0.98153000  0.50000000  0.12574000  1.0
  C  C24  1  0.76605000  0.00000000  0.13948000  1.0
