# generated using pymatgen
data_Li16Sn8Au8C
_symmetry_space_group_name_H-M   'P 1'
_cell_length_a   9.33952000
_cell_length_b   6.60404000
_cell_length_c   27.00460000
_cell_angle_alpha   90.00000000
_cell_angle_beta   90.00000000
_cell_angle_gamma   90.00000000
_symmetry_Int_Tables_number   1
_chemical_formula_structural   Li16Sn8Au8C
_chemical_formula_sum   'Li16 Sn8 Au8 C1'
_cell_volume   1665.60494023
_cell_formula_units_Z   1
loop_
 _symmetry_equiv_pos_site_id
 _symmetry_equiv_pos_as_xyz
  1  'x, y, z'
loop_
 _atom_site_type_symbol
 _atom_site_label
 _atom_site_symmetry_multiplicity
 _atom_site_fract_x
 _atom_site_fract_y
 _atom_site_fract_z
 _atom_site_occupancy
  Li  Li0  1  0.50000000  1.00000000  0.04323000  1.0
  Li  Li1  1  0.75000000  0.50000000  0.12969000  1.0
  Li  Li2  1  0.00000000  1.00000000  0.04323000  1.0
  Li  Li3  1  0.25000000  0.50000000  0.12969000  1.0
  Li  Li4  1  0.00000000  0.25000000  0.12969000  1.0
  Li  Li5  1  0.50000000  0.25000000  0.12969000  1.0
  Li  Li6  1  0.25000000  0.75000000  0.04323000  1.0
  Li  Li7  1  0.75000000  0.75000000  0.04323000  1.0
  Li  Li8  1  0.00000000  0.97750000  0.87270000  1.0
  Li  Li9  1  0.26005000  0.50952000  0.96155000  1.0
  Li  Li10  1  0.50000000  0.99399000  0.86910000  1.0
  Li  Li11  1  0.73995000  0.50952000  0.96155000  1.0
  Li  Li12  1  0.50000000  0.26604000  0.95014000  1.0
  Li  Li13  1  0.00000000  0.30744000  0.94161000  1.0
  Li  Li14  1  0.77691000  0.70041000  0.86880000  1.0
  Li  Li15  1  0.22309000  0.70041000  0.86880000  1.0
  Sn  Sn16  1  0.75000000  0.00000000  0.12969000  1.0
  Sn  Sn17  1  0.00000000  0.50000000  0.04323000  1.0
  Sn  Sn18  1  0.50000000  0.50000000  0.04323000  1.0
  Sn  Sn19  1  0.25000000  0.00000000  0.12969000  1.0
  Sn  Sn20  1  0.24006000  0.00096000  0.95670000  1.0
  Sn  Sn21  1  0.50000000  0.52996000  0.85736000  1.0
  Sn  Sn22  1  0.00000000  0.39371000  0.83264000  1.0
  Sn  Sn23  1  0.75994000  0.00096000  0.95670000  1.0
  Au  Au24  1  0.75000000  0.25000000  0.04323000  1.0
  Au  Au25  1  0.25000000  0.25000000  0.04323000  1.0
  Au  Au26  1  0.50000000  0.75000000  0.12969000  1.0
  Au  Au27  1  0.00000000  0.75000000  0.12969000  1.0
  Au  Au28  1  0.27126000  0.26667000  0.87860000  1.0
  Au  Au29  1  0.72874000  0.26667000  0.87860000  1.0
  Au  Au30  1  0.00000000  0.72051000  0.95611000  1.0
  Au  Au31  1  0.50000000  0.74955000  0.95298000  1.0
  C  C32  1  0.00000000  0.65825000  0.87653000  1.0
