# generated using pymatgen
data_Li16Sn8Au8C
_symmetry_space_group_name_H-M   Pm
_cell_length_a   6.60404000
_cell_length_b   9.33952000
_cell_length_c   27.00460000
_cell_angle_alpha   90.00000000
_cell_angle_beta   90.00000000
_cell_angle_gamma   90.00000000
_symmetry_Int_Tables_number   6
_chemical_formula_structural   Li16Sn8Au8C
_chemical_formula_sum   'Li16 Sn8 Au8 C1'
_cell_volume   1665.60494023
_cell_formula_units_Z   1
loop_
 _symmetry_equiv_pos_site_id
 _symmetry_equiv_pos_as_xyz
  1  'x, y, z'
  2  'x, -y, z'
loop_
 _atom_site_type_symbol
 _atom_site_label
 _atom_site_symmetry_multiplicity
 _atom_site_fract_x
 _atom_site_fract_y
 _atom_site_fract_z
 _atom_site_occupancy
  Li  Li0  2  0.50000000  0.25000000  0.87031000  1.0
  Li  Li1  2  0.50952000  0.26005000  0.03845000  1.0
  Li  Li2  2  0.70041000  0.22309000  0.13120000  1.0
  Li  Li3  2  0.75000000  0.25000000  0.95677000  1.0
  Li  Li4  1  -0.00000000  0.50000000  0.95677000  1.0
  Li  Li5  1  -0.00000000  0.00000000  0.95677000  1.0
  Li  Li6  1  0.25000000  0.00000000  0.87031000  1.0
  Li  Li7  1  0.25000000  0.50000000  0.87031000  1.0
  Li  Li8  1  0.26604000  0.50000000  0.04986000  1.0
  Li  Li9  1  0.30744000  0.00000000  0.05839000  1.0
  Li  Li10  1  0.97750000  0.00000000  0.12730000  1.0
  Li  Li11  1  0.99399000  0.50000000  0.13090000  1.0
  Sn  Sn12  2  0.00000000  0.25000000  0.87031000  1.0
  Sn  Sn13  2  0.00096000  0.24006000  0.04330000  1.0
  Sn  Sn14  1  0.39371000  0.00000000  0.16736000  1.0
  Sn  Sn15  1  0.50000000  0.00000000  0.95677000  1.0
  Sn  Sn16  1  0.50000000  0.50000000  0.95677000  1.0
  Sn  Sn17  1  0.52996000  0.50000000  0.14264000  1.0
  Au  Au18  2  0.25000000  0.25000000  0.95677000  1.0
  Au  Au19  2  0.26667000  0.27126000  0.12140000  1.0
  Au  Au20  1  0.72051000  0.00000000  0.04389000  1.0
  Au  Au21  1  0.74955000  0.50000000  0.04702000  1.0
  Au  Au22  1  0.75000000  0.00000000  0.87031000  1.0
  Au  Au23  1  0.75000000  0.50000000  0.87031000  1.0
  C  C24  1  0.65825000  0.00000000  0.12347000  1.0
