# generated using pymatgen
data_Ti3Au
_symmetry_space_group_name_H-M   'P 1'
_cell_length_a   4.09135500
_cell_length_b   4.09135500
_cell_length_c   26.13700000
_cell_angle_alpha   90.00000000
_cell_angle_beta   90.00000000
_cell_angle_gamma   90.00000000
_symmetry_Int_Tables_number   1
_chemical_formula_structural   Ti3Au
_chemical_formula_sum   'Ti6 Au2'
_cell_volume   437.51209758
_cell_formula_units_Z   2
loop_
 _symmetry_equiv_pos_site_id
 _symmetry_equiv_pos_as_xyz
  1  'x, y, z'
loop_
 _atom_site_type_symbol
 _atom_site_label
 _atom_site_symmetry_multiplicity
 _atom_site_fract_x
 _atom_site_fract_y
 _atom_site_fract_z
 _atom_site_occupancy
  Ti  Ti0  1  0.50000000  0.00000000  0.03913000  1.0
  Ti  Ti1  1  0.00000000  0.50000000  0.03913000  1.0
  Ti  Ti2  1  0.50000000  0.50000000  0.11740000  1.0
  Ti  Ti3  1  0.50000000  0.00000000  0.88260000  1.0
  Ti  Ti4  1  0.00000000  0.50000000  0.88260000  1.0
  Ti  Ti5  1  0.50000000  0.50000000  0.96087000  1.0
  Au  Au6  1  0.00000000  0.00000000  0.11740000  1.0
  Au  Au7  1  0.00000000  0.00000000  0.96087000  1.0
