# generated using pymatgen
data_Ni24Sb8C
_symmetry_space_group_name_H-M   P1
_cell_length_a   5.97820000
_cell_length_b   8.45446000
_cell_length_c   26.34080000
_cell_angle_alpha   90.00000000
_cell_angle_beta   90.00000000
_cell_angle_gamma   90.00000000
_symmetry_Int_Tables_number   1
_chemical_formula_structural   Ni24Sb8C
_chemical_formula_sum   'Ni24 Sb8 C1'
_cell_volume   1331.32863998
_cell_formula_units_Z   1
loop_
 _symmetry_equiv_pos_site_id
 _symmetry_equiv_pos_as_xyz
  1  'x, y, z'
loop_
 _atom_site_type_symbol
 _atom_site_label
 _atom_site_symmetry_multiplicity
 _atom_site_fract_x
 _atom_site_fract_y
 _atom_site_fract_z
 _atom_site_occupancy
  Ni  Ni0  1  0.00000000  0.25000000  0.95988000  1.0
  Ni  Ni1  1  0.00000000  0.75000000  0.95988000  1.0
  Ni  Ni2  1  0.03194000  0.75001000  0.11521000  1.0
  Ni  Ni3  1  0.24533000  0.46439000  0.12639000  1.0
  Ni  Ni4  1  0.24534000  0.03563000  0.12635000  1.0
  Ni  Ni5  1  0.24993000  0.24999000  0.04030000  1.0
  Ni  Ni6  1  0.25000000  0.00000000  0.95988000  1.0
  Ni  Ni7  1  0.25000000  0.25000000  0.87964000  1.0
  Ni  Ni8  1  0.25000000  0.50000000  0.95988000  1.0
  Ni  Ni9  1  0.25000000  0.75000000  0.87964000  1.0
  Ni  Ni10  1  0.26902000  0.74998000  0.03833000  1.0
  Ni  Ni11  1  0.49497000  0.00356000  0.04161000  1.0
  Ni  Ni12  1  0.49504000  0.49636000  0.04161000  1.0
  Ni  Ni13  1  0.50000000  0.00000000  0.87964000  1.0
  Ni  Ni14  1  0.50000000  0.50000000  0.87964000  1.0
  Ni  Ni15  1  0.73010000  0.75001000  0.04501000  1.0
  Ni  Ni16  1  0.75000000  0.00000000  0.95988000  1.0
  Ni  Ni17  1  0.75000000  0.25000000  0.87964000  1.0
  Ni  Ni18  1  0.75000000  0.50000000  0.95988000  1.0
  Ni  Ni19  1  0.75000000  0.75000000  0.87964000  1.0
  Ni  Ni20  1  0.75067000  0.52335000  0.11775000  1.0
  Ni  Ni21  1  0.75068000  0.97673000  0.11771000  1.0
  Ni  Ni22  1  0.75325000  0.24997000  0.03360000  1.0
  Ni  Ni23  1  0.96437000  0.25002000  0.11552000  1.0
  Sb  Sb24  1  0.00000000  0.00000000  0.87964000  1.0
  Sb  Sb25  1  0.00000000  0.50000000  0.87964000  1.0
  Sb  Sb26  1  0.00605000  0.50599000  0.04114000  1.0
  Sb  Sb27  1  0.00605000  0.99400000  0.04112000  1.0
  Sb  Sb28  1  0.46444000  0.75002000  0.12951000  1.0
  Sb  Sb29  1  0.50000000  0.25000000  0.95988000  1.0
  Sb  Sb30  1  0.50000000  0.75000000  0.95988000  1.0
  Sb  Sb31  1  0.55497000  0.25003000  0.11968000  1.0
  C  C32  1  0.21493000  0.25000000  0.15076000  1.0
