# generated using pymatgen
data_Be8Rh8C
_symmetry_space_group_name_H-M   P4mm
_cell_length_a   5.57428000
_cell_length_b   5.57428000
_cell_length_c   24.18070000
_cell_angle_alpha   90.00000000
_cell_angle_beta   90.00000000
_cell_angle_gamma   90.00000000
_symmetry_Int_Tables_number   99
_chemical_formula_structural   Be8Rh8C
_chemical_formula_sum   'Be8 Rh8 C1'
_cell_volume   751.35715881
_cell_formula_units_Z   1
loop_
 _symmetry_equiv_pos_site_id
 _symmetry_equiv_pos_as_xyz
  1  'x, y, z'
  2  '-y, x, z'
  3  '-x, -y, z'
  4  'y, -x, z'
  5  '-x, y, z'
  6  'y, x, z'
  7  'x, -y, z'
  8  '-y, -x, z'
loop_
 _atom_site_type_symbol
 _atom_site_label
 _atom_site_symmetry_multiplicity
 _atom_site_fract_x
 _atom_site_fract_y
 _atom_site_fract_z
 _atom_site_occupancy
  Be  Be0  2  0.00000000  0.50000000  0.00464000  1.0
  Be  Be1  2  0.00000000  0.50000000  0.88938000  1.0
  Be  Be2  1  0.00000000  0.00000000  0.00464000  1.0
  Be  Be3  1  0.00000000  0.00000000  0.88938000  1.0
  Be  Be4  1  0.50000000  0.50000000  0.00464000  1.0
  Be  Be5  1  0.50000000  0.50000000  0.88938000  1.0
  Rh  Rh6  4  0.25000000  0.25000000  0.06227000  1.0
  Rh  Rh7  4  0.25000000  0.25000000  0.94701000  1.0
  C  C8  1  0.00000000  0.00000000  0.09536000  1.0
