# generated using pymatgen
data_Al8In8Cu8Pd8CO
_symmetry_space_group_name_H-M   Pm
_cell_length_a   6.36006000
_cell_length_b   8.99448000
_cell_length_c   26.74590000
_cell_angle_alpha   90.00000000
_cell_angle_beta   90.00000000
_cell_angle_gamma   90.00000000
_symmetry_Int_Tables_number   6
_chemical_formula_structural   Al8In8Cu8Pd8CO
_chemical_formula_sum   'Al8 In8 Cu8 Pd8 C1 O1'
_cell_volume   1530.01077627
_cell_formula_units_Z   1
loop_
 _symmetry_equiv_pos_site_id
 _symmetry_equiv_pos_as_xyz
  1  'x, y, z'
  2  'x, -y, z'
loop_
 _atom_site_type_symbol
 _atom_site_label
 _atom_site_symmetry_multiplicity
 _atom_site_fract_x
 _atom_site_fract_y
 _atom_site_fract_z
 _atom_site_occupancy
  Al  Al0  2  0.00000000  0.25000000  0.87389000  1.0
  Al  Al1  2  0.00034000  0.25114000  0.04642000  1.0
  Al  Al2  1  0.49973000  0.50000000  0.12478000  1.0
  Al  Al3  1  0.50000000  0.00000000  0.95796000  1.0
  Al  Al4  1  0.50000000  0.50000000  0.95796000  1.0
  Al  Al5  1  0.50476000  0.00000000  0.12575000  1.0
  In  In6  2  0.49548000  0.25063000  0.04075000  1.0
  In  In7  2  0.50000000  0.25000000  0.87389000  1.0
  In  In8  1  0.00000000  0.00000000  0.95796000  1.0
  In  In9  1  0.00000000  0.50000000  0.95796000  1.0
  In  In10  1  0.00232000  0.00000000  0.15108000  1.0
  In  In11  1  0.01291000  0.50000000  0.15255000  1.0
  Cu  Cu12  2  0.25000000  0.25000000  0.95796000  1.0
  Cu  Cu13  2  0.25738000  0.25380000  0.12477000  1.0
  Cu  Cu14  1  0.75000000  0.00000000  0.87389000  1.0
  Cu  Cu15  1  0.75000000  0.50000000  0.87389000  1.0
  Cu  Cu16  1  0.78051000  0.00000000  0.05284000  1.0
  Cu  Cu17  1  0.78107000  0.50000000  0.05170000  1.0
  Pd  Pd18  2  0.74478000  0.25597000  0.12277000  1.0
  Pd  Pd19  2  0.75000000  0.25000000  0.95796000  1.0
  Pd  Pd20  1  0.22648000  0.00000000  0.05236000  1.0
  Pd  Pd21  1  0.22652000  0.50000000  0.04660000  1.0
  Pd  Pd22  1  0.25000000  0.00000000  0.87389000  1.0
  Pd  Pd23  1  0.25000000  0.50000000  0.87389000  1.0
  C  C24  1  0.49082000  0.00000000  0.20030000  1.0
  O  O25  1  0.49199000  0.00000000  0.24343000  1.0
