# generated using pymatgen
data_Zr24In8CO
_symmetry_space_group_name_H-M   'P 1'
_cell_length_a   8.97917000
_cell_length_b   8.97917000
_cell_length_c   26.73440000
_cell_angle_alpha   90.00000000
_cell_angle_beta   90.00000000
_cell_angle_gamma   90.00000000
_symmetry_Int_Tables_number   1
_chemical_formula_structural   Zr24In8CO
_chemical_formula_sum   'Zr24 In8 C1 O1'
_cell_volume   2155.47420382
_cell_formula_units_Z   1
loop_
 _symmetry_equiv_pos_site_id
 _symmetry_equiv_pos_as_xyz
  1  'x, y, z'
loop_
 _atom_site_type_symbol
 _atom_site_label
 _atom_site_symmetry_multiplicity
 _atom_site_fract_x
 _atom_site_fract_y
 _atom_site_fract_z
 _atom_site_occupancy
  Zr  Zr0  1  0.00000000  0.25000000  0.04198000  1.0
  Zr  Zr1  1  0.25000000  0.00000000  0.04198000  1.0
  Zr  Zr2  1  0.25000000  0.25000000  0.12595000  1.0
  Zr  Zr3  1  0.00000000  0.25000000  0.87405000  1.0
  Zr  Zr4  1  0.25000000  0.00000000  0.87405000  1.0
  Zr  Zr5  1  0.25000000  0.25000000  0.95802000  1.0
  Zr  Zr6  1  0.00000000  0.75000000  0.04198000  1.0
  Zr  Zr7  1  0.25000000  0.50000000  0.04198000  1.0
  Zr  Zr8  1  0.25000000  0.75000000  0.12595000  1.0
  Zr  Zr9  1  0.00000000  0.75000000  0.87405000  1.0
  Zr  Zr10  1  0.25000000  0.50000000  0.87405000  1.0
  Zr  Zr11  1  0.25000000  0.75000000  0.95802000  1.0
  Zr  Zr12  1  0.50000000  0.25000000  0.04198000  1.0
  Zr  Zr13  1  0.75000000  0.00000000  0.04198000  1.0
  Zr  Zr14  1  0.75000000  0.25000000  0.12595000  1.0
  Zr  Zr15  1  0.50000000  0.25000000  0.87405000  1.0
  Zr  Zr16  1  0.75000000  0.00000000  0.87405000  1.0
  Zr  Zr17  1  0.75000000  0.25000000  0.95802000  1.0
  Zr  Zr18  1  0.50000000  0.75000000  0.04198000  1.0
  Zr  Zr19  1  0.75000000  0.50000000  0.04198000  1.0
  Zr  Zr20  1  0.75000000  0.75000000  0.12595000  1.0
  Zr  Zr21  1  0.50000000  0.75000000  0.87405000  1.0
  Zr  Zr22  1  0.75000000  0.50000000  0.87405000  1.0
  Zr  Zr23  1  0.75000000  0.75000000  0.95802000  1.0
  In  In24  1  0.00000000  0.00000000  0.12595000  1.0
  In  In25  1  0.00000000  0.00000000  0.95802000  1.0
  In  In26  1  0.00000000  0.50000000  0.12595000  1.0
  In  In27  1  0.00000000  0.50000000  0.95802000  1.0
  In  In28  1  0.50000000  0.00000000  0.12595000  1.0
  In  In29  1  0.50000000  0.00000000  0.95802000  1.0
  In  In30  1  0.50000000  0.50000000  0.12595000  1.0
  In  In31  1  0.50000000  0.50000000  0.95802000  1.0
  C  C32  1  0.00000000  0.00000000  0.19702000  1.0
  O  O33  1  0.00000000  0.00000000  0.24004000  1.0
