# generated using pymatgen
data_Li8Al8Sn8Pd8CO
_symmetry_space_group_name_H-M   'P 1'
_cell_length_a   9.17742000
_cell_length_b   6.48942000
_cell_length_c   26.88310000
_cell_angle_alpha   90.00000000
_cell_angle_beta   90.00000000
_cell_angle_gamma   90.00000000
_symmetry_Int_Tables_number   1
_chemical_formula_structural   Li8Al8Sn8Pd8CO
_chemical_formula_sum   'Li8 Al8 Sn8 Pd8 C1 O1'
_cell_volume   1601.05347627
_cell_formula_units_Z   1
loop_
 _symmetry_equiv_pos_site_id
 _symmetry_equiv_pos_as_xyz
  1  'x, y, z'
loop_
 _atom_site_type_symbol
 _atom_site_label
 _atom_site_symmetry_multiplicity
 _atom_site_fract_x
 _atom_site_fract_y
 _atom_site_fract_z
 _atom_site_occupancy
  Li  Li0  1  0.00000000  0.75000000  0.04267000  1.0
  Li  Li1  1  0.50000000  0.75000000  0.04267000  1.0
  Li  Li2  1  0.25000000  0.25000000  0.12802000  1.0
  Li  Li3  1  0.75000000  0.25000000  0.12802000  1.0
  Li  Li4  1  0.50000000  0.69978000  0.83774000  1.0
  Li  Li5  1  0.00000000  0.70535000  0.84810000  1.0
  Li  Li6  1  0.74198000  0.22876000  0.95705000  1.0
  Li  Li7  1  0.25802000  0.22876000  0.95705000  1.0
  Al  Al8  1  0.00000000  0.00000000  0.12802000  1.0
  Al  Al9  1  0.50000000  1.00000000  0.12802000  1.0
  Al  Al10  1  0.75000000  0.50000000  0.04267000  1.0
  Al  Al11  1  0.25000000  0.50000000  0.04267000  1.0
  Al  Al12  1  0.50000000  0.96321000  0.94991000  1.0
  Al  Al13  1  0.00000000  0.98300000  0.94660000  1.0
  Al  Al14  1  0.25800000  0.48013000  0.87405000  1.0
  Al  Al15  1  0.74200000  0.48013000  0.87405000  1.0
  Sn  Sn16  1  0.25000000  0.00000000  0.04267000  1.0
  Sn  Sn17  1  0.75000000  0.00000000  0.04267000  1.0
  Sn  Sn18  1  0.50000000  0.50000000  0.12802000  1.0
  Sn  Sn19  1  0.00000000  0.50000000  0.12802000  1.0
  Sn  Sn20  1  0.74611000  0.96737000  0.86783000  1.0
  Sn  Sn21  1  0.25389000  0.96737000  0.86783000  1.0
  Sn  Sn22  1  0.00000000  0.47811000  0.95173000  1.0
  Sn  Sn23  1  0.50000000  0.50787000  0.95673000  1.0
  Pd  Pd24  1  0.00000000  0.25000000  0.04267000  1.0
  Pd  Pd25  1  0.50000000  0.25000000  0.04267000  1.0
  Pd  Pd26  1  0.25000000  0.75000000  0.12802000  1.0
  Pd  Pd27  1  0.75000000  0.75000000  0.12802000  1.0
  Pd  Pd28  1  0.50000000  0.23911000  0.88063000  1.0
  Pd  Pd29  1  0.00000000  0.27159000  0.86082000  1.0
  Pd  Pd30  1  0.75790000  0.74585000  0.96265000  1.0
  Pd  Pd31  1  0.24210000  0.74585000  0.96265000  1.0
  C  C32  1  0.00000000  0.26811000  0.78698000  1.0
  O  O33  1  0.00000000  0.27039000  0.74409000  1.0
