# generated using pymatgen
data_Be16Co16C
_symmetry_space_group_name_H-M   'P 1'
_cell_length_a   5.19112000
_cell_length_b   7.34136000
_cell_length_c   25.50600000
_cell_angle_alpha   90.00000000
_cell_angle_beta   90.00000000
_cell_angle_gamma   90.00000000
_symmetry_Int_Tables_number   1
_chemical_formula_structural   Be16Co16C
_chemical_formula_sum   'Be16 Co16 C1'
_cell_volume   972.03061773
_cell_formula_units_Z   1
loop_
 _symmetry_equiv_pos_site_id
 _symmetry_equiv_pos_as_xyz
  1  'x, y, z'
loop_
 _atom_site_type_symbol
 _atom_site_label
 _atom_site_symmetry_multiplicity
 _atom_site_fract_x
 _atom_site_fract_y
 _atom_site_fract_z
 _atom_site_occupancy
  Be  Be0  1  0.00000000  0.00000000  0.89206000  1.0
  Be  Be1  1  0.00000000  0.25000000  0.96402000  1.0
  Be  Be2  1  0.00000000  0.50000000  0.03244000  1.0
  Be  Be3  1  0.00000000  0.23707000  0.11435000  1.0
  Be  Be4  1  0.00000000  0.50000000  0.89206000  1.0
  Be  Be5  1  0.00000000  0.75000000  0.96402000  1.0
  Be  Be6  1  0.00000000  0.00000000  0.03418000  1.0
  Be  Be7  1  0.00000000  0.76293000  0.11435000  1.0
  Be  Be8  1  0.50000000  0.00000000  0.89206000  1.0
  Be  Be9  1  0.50000000  0.25000000  0.96402000  1.0
  Be  Be10  1  0.50000000  0.50000000  0.03339000  1.0
  Be  Be11  1  0.50000000  0.25225000  0.10834000  1.0
  Be  Be12  1  0.50000000  0.50000000  0.89206000  1.0
  Be  Be13  1  0.50000000  0.75000000  0.96402000  1.0
  Be  Be14  1  0.50000000  0.00000000  0.03159000  1.0
  Be  Be15  1  0.50000000  0.74775000  0.10834000  1.0
  Co  Co16  1  0.24999000  0.25000000  0.89206000  1.0
  Co  Co17  1  0.24999000  0.00000000  0.96402000  1.0
  Co  Co18  1  0.24672000  0.25073000  0.03813000  1.0
  Co  Co19  1  0.26119000  0.00000000  0.10704000  1.0
  Co  Co20  1  0.24999000  0.75000000  0.89206000  1.0
  Co  Co21  1  0.24999000  0.50000000  0.96402000  1.0
  Co  Co22  1  0.24672000  0.74927000  0.03813000  1.0
  Co  Co23  1  0.24333000  0.50000000  0.10533000  1.0
  Co  Co24  1  0.75001000  0.25000000  0.89206000  1.0
  Co  Co25  1  0.75001000  0.00000000  0.96402000  1.0
  Co  Co26  1  0.75328000  0.25073000  0.03813000  1.0
  Co  Co27  1  0.73881000  0.00000000  0.10704000  1.0
  Co  Co28  1  0.75001000  0.75000000  0.89206000  1.0
  Co  Co29  1  0.75001000  0.50000000  0.96402000  1.0
  Co  Co30  1  0.75328000  0.74927000  0.03813000  1.0
  Co  Co31  1  0.75667000  0.50000000  0.10533000  1.0
  C  C32  1  0.00000000  0.00000000  0.14873000  1.0
