# generated using pymatgen
data_Be16Co16C
_symmetry_space_group_name_H-M   Pmm2
_cell_length_a   5.19112000
_cell_length_b   7.34136000
_cell_length_c   25.50600000
_cell_angle_alpha   90.00000000
_cell_angle_beta   90.00000000
_cell_angle_gamma   90.00000000
_symmetry_Int_Tables_number   25
_chemical_formula_structural   Be16Co16C
_chemical_formula_sum   'Be16 Co16 C1'
_cell_volume   972.03061773
_cell_formula_units_Z   1
loop_
 _symmetry_equiv_pos_site_id
 _symmetry_equiv_pos_as_xyz
  1  'x, y, z'
  2  '-x, -y, z'
  3  '-x, y, z'
  4  'x, -y, z'
loop_
 _atom_site_type_symbol
 _atom_site_label
 _atom_site_symmetry_multiplicity
 _atom_site_fract_x
 _atom_site_fract_y
 _atom_site_fract_z
 _atom_site_occupancy
  Be  Be0  2  0.00000000  0.23707000  0.11435000  1.0
  Be  Be1  2  0.00000000  0.25000000  0.96402000  1.0
  Be  Be2  2  0.50000000  0.25000000  0.96402000  1.0
  Be  Be3  2  0.50000000  0.25225000  0.10834000  1.0
  Be  Be4  1  0.00000000  0.00000000  0.03418000  1.0
  Be  Be5  1  0.00000000  0.00000000  0.89206000  1.0
  Be  Be6  1  0.00000000  0.50000000  0.03244000  1.0
  Be  Be7  1  0.00000000  0.50000000  0.89206000  1.0
  Be  Be8  1  0.50000000  0.00000000  0.03159000  1.0
  Be  Be9  1  0.50000000  0.00000000  0.89206000  1.0
  Be  Be10  1  0.50000000  0.50000000  0.03339000  1.0
  Be  Be11  1  0.50000000  0.50000000  0.89206000  1.0
  Co  Co12  4  0.24672000  0.25073000  0.03813000  1.0
  Co  Co13  4  0.24999000  0.25000000  0.89206000  1.0
  Co  Co14  2  0.24333000  0.50000000  0.10533000  1.0
  Co  Co15  2  0.24999000  0.00000000  0.96402000  1.0
  Co  Co16  2  0.24999000  0.50000000  0.96402000  1.0
  Co  Co17  2  0.26119000  0.00000000  0.10704000  1.0
  C  C18  1  0.00000000  0.00000000  0.14873000  1.0
