# generated using pymatgen
data_HfCo
_symmetry_space_group_name_H-M   Pmm2
_cell_length_a   3.15521500
_cell_length_b   4.46215000
_cell_length_c   26.69320000
_cell_angle_alpha   90.00000000
_cell_angle_beta   90.00000000
_cell_angle_gamma   90.00000000
_symmetry_Int_Tables_number   25
_chemical_formula_structural   HfCo
_chemical_formula_sum   'Hf4 Co4'
_cell_volume   375.81470026
_cell_formula_units_Z   4
loop_
 _symmetry_equiv_pos_site_id
 _symmetry_equiv_pos_as_xyz
  1  'x, y, z'
  2  '-x, -y, z'
  3  '-x, y, z'
  4  'x, -y, z'
loop_
 _atom_site_type_symbol
 _atom_site_label
 _atom_site_symmetry_multiplicity
 _atom_site_fract_x
 _atom_site_fract_y
 _atom_site_fract_z
 _atom_site_occupancy
  Hf  Hf0  1  0.00000000  0.00000000  0.04316500  1.0
  Hf  Hf1  1  0.00000000  0.00000000  0.87463000  1.0
  Hf  Hf2  1  0.00000000  0.50000000  0.12755750  1.0
  Hf  Hf3  1  0.00000000  0.50000000  0.95821000  1.0
  Co  Co4  1  0.50000000  0.00000000  0.11721000  1.0
  Co  Co5  1  0.50000000  0.00000000  0.95821000  1.0
  Co  Co6  1  0.50000000  0.50000000  0.04464000  1.0
  Co  Co7  1  0.50000000  0.50000000  0.87463000  1.0
