# generated using pymatgen
data_Sc16Ni16C
_symmetry_space_group_name_H-M   'P 1'
_cell_length_a   6.35210000
_cell_length_b   8.98322000
_cell_length_c   26.73740000
_cell_angle_alpha   90.00000000
_cell_angle_beta   90.00000000
_cell_angle_gamma   90.00000000
_symmetry_Int_Tables_number   1
_chemical_formula_structural   Sc16Ni16C
_chemical_formula_sum   'Sc16 Ni16 C1'
_cell_volume   1525.69785451
_cell_formula_units_Z   1
loop_
 _symmetry_equiv_pos_site_id
 _symmetry_equiv_pos_as_xyz
  1  'x, y, z'
loop_
 _atom_site_type_symbol
 _atom_site_label
 _atom_site_symmetry_multiplicity
 _atom_site_fract_x
 _atom_site_fract_y
 _atom_site_fract_z
 _atom_site_occupancy
  Sc  Sc0  1  0.25000000  0.25000000  0.87401000  1.0
  Sc  Sc1  1  0.25000000  0.00000000  0.95800000  1.0
  Sc  Sc2  1  0.24831000  0.24910000  0.04445000  1.0
  Sc  Sc3  1  0.25196000  0.00179000  0.12940000  1.0
  Sc  Sc4  1  0.25000000  0.75000000  0.87401000  1.0
  Sc  Sc5  1  0.25000000  0.50000000  0.95800000  1.0
  Sc  Sc6  1  0.25237000  0.74423000  0.04121000  1.0
  Sc  Sc7  1  0.25087000  0.51189000  0.13112000  1.0
  Sc  Sc8  1  0.75000000  0.25000000  0.87401000  1.0
  Sc  Sc9  1  0.75000000  0.00000000  0.95800000  1.0
  Sc  Sc10  1  0.75171000  0.24910000  0.04443000  1.0
  Sc  Sc11  1  0.74808000  0.00174000  0.12940000  1.0
  Sc  Sc12  1  0.75000000  0.75000000  0.87401000  1.0
  Sc  Sc13  1  0.75000000  0.50000000  0.95800000  1.0
  Sc  Sc14  1  0.74763000  0.74423000  0.04122000  1.0
  Sc  Sc15  1  0.74907000  0.51199000  0.13112000  1.0
  Ni  Ni16  1  0.00000000  0.00000000  0.87401000  1.0
  Ni  Ni17  1  0.00000000  0.25000000  0.95800000  1.0
  Ni  Ni18  1  0.99998000  0.97519000  0.03513000  1.0
  Ni  Ni19  1  0.99982000  0.28929000  0.12595000  1.0
  Ni  Ni20  1  0.00000000  0.50000000  0.87401000  1.0
  Ni  Ni21  1  0.00000000  0.75000000  0.95800000  1.0
  Ni  Ni22  1  0.00000000  0.49982000  0.04681000  1.0
  Ni  Ni23  1  0.00009000  0.74989000  0.11738000  1.0
  Ni  Ni24  1  0.50000000  0.00000000  0.87401000  1.0
  Ni  Ni25  1  0.50000000  0.25000000  0.95800000  1.0
  Ni  Ni26  1  0.50004000  0.99607000  0.04343000  1.0
  Ni  Ni27  1  0.50012000  0.26246000  0.12016000  1.0
  Ni  Ni28  1  0.50000000  0.50000000  0.87401000  1.0
  Ni  Ni29  1  0.50000000  0.75000000  0.95800000  1.0
  Ni  Ni30  1  0.49999000  0.49842000  0.04559000  1.0
  Ni  Ni31  1  0.49992000  0.75468000  0.11707000  1.0
  C  C32  1  0.99999000  0.10995000  0.08836000  1.0
