# generated using pymatgen
data_Li16Ag8Bi8CO
_symmetry_space_group_name_H-M   Pm
_cell_length_a   6.92564000
_cell_length_b   9.79433000
_cell_length_c   27.34580000
_cell_angle_alpha   90.00000000
_cell_angle_beta   90.00000000
_cell_angle_gamma   90.00000000
_symmetry_Int_Tables_number   6
_chemical_formula_structural   Li16Ag8Bi8CO
_chemical_formula_sum   'Li16 Ag8 Bi8 C1 O1'
_cell_volume   1854.92040462
_cell_formula_units_Z   1
loop_
 _symmetry_equiv_pos_site_id
 _symmetry_equiv_pos_as_xyz
  1  'x, y, z'
  2  'x, -y, z'
loop_
 _atom_site_type_symbol
 _atom_site_label
 _atom_site_symmetry_multiplicity
 _atom_site_fract_x
 _atom_site_fract_y
 _atom_site_fract_z
 _atom_site_occupancy
  Li  Li0  2  -0.00000000  0.25001000  0.95523000  1.0
  Li  Li1  2  0.73205000  0.24949000  0.04696000  1.0
  Li  Li2  2  0.75000000  0.25001000  0.86569000  1.0
  Li  Li3  2  0.96803000  0.24823000  0.12532000  1.0
  Li  Li4  1  0.25000000  0.00000000  0.95523000  1.0
  Li  Li5  1  0.25000000  0.50000000  0.95523000  1.0
  Li  Li6  1  0.29018000  0.00000000  0.13244000  1.0
  Li  Li7  1  0.30018000  0.50000000  0.12781000  1.0
  Li  Li8  1  0.48883000  0.00000000  0.03885000  1.0
  Li  Li9  1  0.49470000  0.50000000  0.03762000  1.0
  Li  Li10  1  0.50000000  0.00000000  0.86569000  1.0
  Li  Li11  1  0.50000000  0.50000000  0.86569000  1.0
  Ag  Ag12  2  0.25000000  0.24999000  0.86569000  1.0
  Ag  Ag13  2  0.27996000  0.24952000  0.05611000  1.0
  Ag  Ag14  1  0.71484000  0.00000000  0.12078000  1.0
  Ag  Ag15  1  0.72703000  0.50000000  0.11927000  1.0
  Ag  Ag16  1  0.75000000  0.00000000  0.95523000  1.0
  Ag  Ag17  1  0.75000000  0.50000000  0.95523000  1.0
  Bi  Bi18  2  0.50000000  0.24999000  0.95523000  1.0
  Bi  Bi19  2  0.51985000  0.25359000  0.14690000  1.0
  Bi  Bi20  1  -0.00000000  0.50000000  0.86569000  1.0
  Bi  Bi21  1  0.00000000  0.00000000  0.86569000  1.0
  Bi  Bi22  1  0.01695000  0.00000000  0.04582000  1.0
  Bi  Bi23  1  0.02134000  0.50000000  0.04508000  1.0
  C  C24  1  0.23090000  0.00000000  0.20804000  1.0
  O  O25  1  0.22546000  0.00000000  0.24978000  1.0
