data_image0
_chemical_formula_structural       FeNiFeNiFeNiFeNiFeNiFeNiFeNiFeNiFeNiFeNiFeNiFeNiFeNiFeNiFeNiFeNiC
_chemical_formula_sum              "Fe16 Ni16 C1"
_cell_length_a       7.18005
_cell_length_b       7.19034
_cell_length_c       25.385
_cell_angle_alpha    90
_cell_angle_beta     90
_cell_angle_gamma    90

_space_group_name_H-M_alt    "P 1"
_space_group_IT_number       1

loop_
  _space_group_symop_operation_xyz
  'x, y, z'

loop_
  _atom_site_type_symbol
  _atom_site_label
  _atom_site_symmetry_multiplicity
  _atom_site_fract_x
  _atom_site_fract_y
  _atom_site_fract_z
  _atom_site_occupancy
  Fe  Fe1       1.0  0.00000  0.00000  0.89393  1.0000
  Ni  Ni1       1.0  0.25000  0.25000  0.89393  1.0000
  Fe  Fe2       1.0  0.25000  0.00000  0.96464  1.0000
  Ni  Ni2       1.0  0.00000  0.25000  0.96464  1.0000
  Fe  Fe3       1.0  0.00000  0.00000  0.03536  1.0000
  Ni  Ni3       1.0  0.25000  0.25000  0.03536  1.0000
  Fe  Fe4       1.0  0.25000  0.00000  0.10607  1.0000
  Ni  Ni4       1.0  0.00000  0.25000  0.10607  1.0000
  Fe  Fe5       1.0  0.00000  0.50000  0.89393  1.0000
  Ni  Ni5       1.0  0.25000  0.75000  0.89393  1.0000
  Fe  Fe6       1.0  0.25000  0.50000  0.96464  1.0000
  Ni  Ni6       1.0  0.00000  0.75000  0.96464  1.0000
  Fe  Fe7       1.0  0.00000  0.50000  0.03536  1.0000
  Ni  Ni7       1.0  0.25000  0.75000  0.03536  1.0000
  Fe  Fe8       1.0  0.25000  0.50000  0.10607  1.0000
  Ni  Ni8       1.0  0.00000  0.75000  0.10607  1.0000
  Fe  Fe9       1.0  0.50000  0.00000  0.89393  1.0000
  Ni  Ni9       1.0  0.75000  0.25000  0.89393  1.0000
  Fe  Fe10      1.0  0.75000  0.00000  0.96464  1.0000
  Ni  Ni10      1.0  0.50000  0.25000  0.96464  1.0000
  Fe  Fe11      1.0  0.50000  0.00000  0.03536  1.0000
  Ni  Ni11      1.0  0.75000  0.25000  0.03536  1.0000
  Fe  Fe12      1.0  0.75000  0.00000  0.10607  1.0000
  Ni  Ni12      1.0  0.50000  0.25000  0.10607  1.0000
  Fe  Fe13      1.0  0.50000  0.50000  0.89393  1.0000
  Ni  Ni13      1.0  0.75000  0.75000  0.89393  1.0000
  Fe  Fe14      1.0  0.75000  0.50000  0.96464  1.0000
  Ni  Ni14      1.0  0.50000  0.75000  0.96464  1.0000
  Fe  Fe15      1.0  0.50000  0.50000  0.03536  1.0000
  Ni  Ni15      1.0  0.75000  0.75000  0.03536  1.0000
  Fe  Fe16      1.0  0.75000  0.50000  0.10607  1.0000
  Ni  Ni16      1.0  0.50000  0.75000  0.10607  1.0000
  C   C1        1.0  0.00000  0.00000  0.13758  1.0000
