# generated using pymatgen
data_Ni12Sn4CO
_symmetry_space_group_name_H-M   'P 1'
_cell_length_a   5.96895000
_cell_length_b   5.96895000
_cell_length_c   24.47670000
_cell_angle_alpha   90.00000000
_cell_angle_beta   90.00000000
_cell_angle_gamma   90.00000000
_symmetry_Int_Tables_number   1
_chemical_formula_structural   Ni12Sn4CO
_chemical_formula_sum   'Ni12 Sn4 C1 O1'
_cell_volume   872.06477963
_cell_formula_units_Z   1
loop_
 _symmetry_equiv_pos_site_id
 _symmetry_equiv_pos_as_xyz
  1  'x, y, z'
loop_
 _atom_site_type_symbol
 _atom_site_label
 _atom_site_symmetry_multiplicity
 _atom_site_fract_x
 _atom_site_fract_y
 _atom_site_fract_z
 _atom_site_occupancy
  Ni  Ni0  1  0.26073000  0.26069000  0.03195000  1.0
  Ni  Ni1  1  0.75000000  0.75000000  0.90855000  1.0
  Ni  Ni2  1  0.73922000  0.26070000  0.03191000  1.0
  Ni  Ni3  1  0.25000000  0.75000000  0.90855000  1.0
  Ni  Ni4  1  0.73914000  0.73915000  0.03195000  1.0
  Ni  Ni5  1  0.25000000  0.25000000  0.90855000  1.0
  Ni  Ni6  1  0.26080000  0.73917000  0.03196000  1.0
  Ni  Ni7  1  0.75000000  0.25000000  0.90855000  1.0
  Ni  Ni8  1  0.00000000  0.00000000  0.96952000  1.0
  Ni  Ni9  1  0.50005000  0.99999000  0.08664000  1.0
  Ni  Ni10  1  0.99993000  0.49992000  0.08663000  1.0
  Ni  Ni11  1  0.50000000  0.50000000  0.96952000  1.0
  Sn  Sn12  1  0.99994000  0.99993000  0.09054000  1.0
  Sn  Sn13  1  0.49999000  0.49984000  0.10183000  1.0
  Sn  Sn14  1  0.50000000  0.00000000  0.96952000  1.0
  Sn  Sn15  1  0.00000000  0.50000000  0.96952000  1.0
  C  C16  1  0.00134000  0.00198000  0.25269000  1.0
  O  O17  1  0.99987000  0.99978000  0.29905000  1.0
