# generated using pymatgen
data_Ga16Ni16C
_symmetry_space_group_name_H-M   Pm
_cell_length_a   8.31345000
_cell_length_b   5.87849000
_cell_length_c   26.23510000
_cell_angle_alpha   90.00000000
_cell_angle_beta   90.00000000
_cell_angle_gamma   90.00000000
_symmetry_Int_Tables_number   6
_chemical_formula_structural   Ga16Ni16C
_chemical_formula_sum   'Ga16 Ni16 C1'
_cell_volume   1282.12331219
_cell_formula_units_Z   1
loop_
 _symmetry_equiv_pos_site_id
 _symmetry_equiv_pos_as_xyz
  1  'x, y, z'
  2  'x, -y, z'
loop_
 _atom_site_type_symbol
 _atom_site_label
 _atom_site_symmetry_multiplicity
 _atom_site_fract_x
 _atom_site_fract_y
 _atom_site_fract_z
 _atom_site_occupancy
  Ga  Ga0  1  0.00000000  0.00000000  0.04297000  1.0
  Ga  Ga1  1  0.00000000  0.00000000  0.88117000  1.0
  Ga  Ga2  1  0.00000000  0.50000000  0.88117000  1.0
  Ga  Ga3  1  0.25000000  0.00000000  0.96039000  1.0
  Ga  Ga4  1  0.25000000  0.50000000  0.96039000  1.0
  Ga  Ga5  1  0.25347000  0.00000000  0.12886000  1.0
  Ga  Ga6  1  0.26170000  0.50000000  0.12597000  1.0
  Ga  Ga7  1  0.49997000  0.00000000  0.03808000  1.0
  Ga  Ga8  1  0.49998000  0.50000000  0.03978000  1.0
  Ga  Ga9  1  0.50000000  0.00000000  0.88117000  1.0
  Ga  Ga10  1  0.50000000  0.50000000  0.88117000  1.0
  Ga  Ga11  1  0.73827000  0.50000000  0.12596000  1.0
  Ga  Ga12  1  0.74649000  0.00000000  0.12886000  1.0
  Ga  Ga13  1  0.75000000  0.00000000  0.96039000  1.0
  Ga  Ga14  1  0.75000000  0.50000000  0.96039000  1.0
  Ga  Ga15  1  0.99999000  0.50000000  0.03690000  1.0
  Ni  Ni16  2  0.00000000  0.25000000  0.96039000  1.0
  Ni  Ni17  2  0.25000000  0.25000000  0.88117000  1.0
  Ni  Ni18  2  0.25147000  0.24731000  0.03916000  1.0
  Ni  Ni19  2  0.49988000  0.24183000  0.11491000  1.0
  Ni  Ni20  2  0.50000000  0.25000000  0.96039000  1.0
  Ni  Ni21  2  0.74852000  0.24733000  0.03915000  1.0
  Ni  Ni22  2  0.75000000  0.25000000  0.88117000  1.0
  Ni  Ni23  2  0.99996000  0.29474000  0.11713000  1.0
  C  C24  1  0.00000000  0.00000000  0.13566000  1.0
