# generated using pymatgen
data_Sc4Ir12C
_symmetry_space_group_name_H-M   'P 1'
_cell_length_a   7.92728000
_cell_length_b   5.60543000
_cell_length_c   24.20410000
_cell_angle_alpha   90.00000000
_cell_angle_beta   90.00000000
_cell_angle_gamma   90.00000000
_symmetry_Int_Tables_number   1
_chemical_formula_structural   Sc4Ir12C
_chemical_formula_sum   'Sc4 Ir12 C1'
_cell_volume   1075.52886459
_cell_formula_units_Z   1
loop_
 _symmetry_equiv_pos_site_id
 _symmetry_equiv_pos_as_xyz
  1  'x, y, z'
loop_
 _atom_site_type_symbol
 _atom_site_label
 _atom_site_symmetry_multiplicity
 _atom_site_fract_x
 _atom_site_fract_y
 _atom_site_fract_z
 _atom_site_occupancy
  Sc  Sc0  1  0.00000000  0.50000000  0.08685000  1.0
  Sc  Sc1  1  0.00001000  0.00000000  0.97795000  1.0
  Sc  Sc2  1  0.50000000  0.50000000  0.08685000  1.0
  Sc  Sc3  1  0.49997000  0.00000000  0.96695000  1.0
  Ir  Ir4  1  0.00000000  0.00000000  0.08685000  1.0
  Ir  Ir5  1  0.25000000  0.25001000  0.02895000  1.0
  Ir  Ir6  1  0.25000000  0.74999000  0.02895000  1.0
  Ir  Ir7  1  0.00001000  0.50000000  0.97916000  1.0
  Ir  Ir8  1  0.21205000  0.74967000  0.91512000  1.0
  Ir  Ir9  1  0.21205000  0.25033000  0.91512000  1.0
  Ir  Ir10  1  0.50000000  0.00000000  0.08685000  1.0
  Ir  Ir11  1  0.75000000  0.25001000  0.02895000  1.0
  Ir  Ir12  1  0.75000000  0.74999000  0.02895000  1.0
  Ir  Ir13  1  0.50001000  0.50000000  0.96792000  1.0
  Ir  Ir14  1  0.78799000  0.74969000  0.91512000  1.0
  Ir  Ir15  1  0.78799000  0.25031000  0.91512000  1.0
  C  C16  1  0.99984000  0.50000000  0.89542000  1.0
