# generated using pymatgen
data_Li8V8Ge8Pd8C
_symmetry_space_group_name_H-M   'P 1'
_cell_length_a   8.64114000
_cell_length_b   5.68832000
_cell_length_c   27.05420000
_cell_angle_alpha   90.00000000
_cell_angle_beta   90.00000000
_cell_angle_gamma   90.00000000
_symmetry_Int_Tables_number   1
_chemical_formula_structural   Li8V8Ge8Pd8C
_chemical_formula_sum   'Li8 V8 Ge8 Pd8 C1'
_cell_volume   1329.81049956
_cell_formula_units_Z   1
loop_
 _symmetry_equiv_pos_site_id
 _symmetry_equiv_pos_as_xyz
  1  'x, y, z'
loop_
 _atom_site_type_symbol
 _atom_site_label
 _atom_site_symmetry_multiplicity
 _atom_site_fract_x
 _atom_site_fract_y
 _atom_site_fract_z
 _atom_site_occupancy
  Li  Li0  1  0.99996000  0.50000000  0.95799000  1.0
  Li  Li1  1  0.00000000  0.50000000  0.13037000  1.0
  Li  Li2  1  0.49996000  0.50000000  0.94944000  1.0
  Li  Li3  1  0.50000000  0.50000000  0.13037000  1.0
  Li  Li4  1  0.99996000  0.00000000  0.96345000  1.0
  Li  Li5  1  0.00000000  0.00000000  0.13037000  1.0
  Li  Li6  1  0.49998000  0.00000000  0.95381000  1.0
  Li  Li7  1  0.50000000  0.00000000  0.13037000  1.0
  V  V8  1  0.22415000  0.50000000  0.86238000  1.0
  V  V9  1  0.25000000  0.50000000  0.04346000  1.0
  V  V10  1  0.77587000  0.50000000  0.86240000  1.0
  V  V11  1  0.75000000  0.50000000  0.04346000  1.0
  V  V12  1  0.26869000  0.00000000  0.87620000  1.0
  V  V13  1  0.25000000  0.00000000  0.04346000  1.0
  V  V14  1  0.73142000  0.00000000  0.87622000  1.0
  V  V15  1  0.75000000  0.00000000  0.04346000  1.0
  Ge  Ge16  1  0.00003000  0.78753000  0.87615000  1.0
  Ge  Ge17  1  0.00000000  0.75000000  0.04346000  1.0
  Ge  Ge18  1  0.50009000  0.72725000  0.85461000  1.0
  Ge  Ge19  1  0.50000000  0.75000000  0.04346000  1.0
  Ge  Ge20  1  0.00003000  0.21247000  0.87615000  1.0
  Ge  Ge21  1  0.00000000  0.25000000  0.04346000  1.0
  Ge  Ge22  1  0.50009000  0.27275000  0.85461000  1.0
  Ge  Ge23  1  0.50000000  0.25000000  0.04346000  1.0
  Pd  Pd24  1  0.24363000  0.74901000  0.95580000  1.0
  Pd  Pd25  1  0.25000000  0.75000000  0.13037000  1.0
  Pd  Pd26  1  0.75629000  0.74900000  0.95581000  1.0
  Pd  Pd27  1  0.75000000  0.75000000  0.13037000  1.0
  Pd  Pd28  1  0.24363000  0.25099000  0.95580000  1.0
  Pd  Pd29  1  0.25000000  0.25000000  0.13037000  1.0
  Pd  Pd30  1  0.75629000  0.25100000  0.95581000  1.0
  Pd  Pd31  1  0.75000000  0.25000000  0.13037000  1.0
  C  C32  1  0.00000000  0.50000000  0.83575000  1.0
