# generated using pymatgen
data_Mg16Sc16CO
_symmetry_space_group_name_H-M   Pmm2
_cell_length_a   7.19733000
_cell_length_b   10.17860000
_cell_length_c   27.63390000
_cell_angle_alpha   90.00000000
_cell_angle_beta   90.00000000
_cell_angle_gamma   90.00000000
_symmetry_Int_Tables_number   25
_chemical_formula_structural   Mg16Sc16CO
_chemical_formula_sum   'Mg16 Sc16 C1 O1'
_cell_volume   2024.42478200
_cell_formula_units_Z   1
loop_
 _symmetry_equiv_pos_site_id
 _symmetry_equiv_pos_as_xyz
  1  'x, y, z'
  2  '-x, -y, z'
  3  '-x, y, z'
  4  'x, -y, z'
loop_
 _atom_site_type_symbol
 _atom_site_label
 _atom_site_symmetry_multiplicity
 _atom_site_fract_x
 _atom_site_fract_y
 _atom_site_fract_z
 _atom_site_occupancy
  Mg  Mg0  4  0.24700000  0.24705000  0.14344000  1.0
  Mg  Mg1  4  0.25000000  0.25000000  0.95396000  1.0
  Mg  Mg2  2  0.24946000  0.50000000  0.04281000  1.0
  Mg  Mg3  2  0.25000000  0.00000000  0.86187000  1.0
  Mg  Mg4  2  0.25000000  0.50000000  0.86187000  1.0
  Mg  Mg5  2  0.25432000  0.00000000  0.04209000  1.0
  Sc  Sc6  2  0.00000000  0.25000000  0.86187000  1.0
  Sc  Sc7  2  0.00000000  0.25124000  0.04879000  1.0
  Sc  Sc8  2  0.50000000  0.25000000  0.86187000  1.0
  Sc  Sc9  2  0.50000000  0.25070000  0.05046000  1.0
  Sc  Sc10  1  0.00000000  0.00000000  0.12854000  1.0
  Sc  Sc11  1  0.00000000  0.00000000  0.95396000  1.0
  Sc  Sc12  1  0.00000000  0.50000000  0.13013000  1.0
  Sc  Sc13  1  0.00000000  0.50000000  0.95396000  1.0
  Sc  Sc14  1  0.50000000  0.00000000  0.13154000  1.0
  Sc  Sc15  1  0.50000000  0.00000000  0.95396000  1.0
  Sc  Sc16  1  0.50000000  0.50000000  0.13069000  1.0
  Sc  Sc17  1  0.50000000  0.50000000  0.95396000  1.0
  C  C18  1  0.00000000  0.00000000  0.20959000  1.0
  O  O19  1  0.00000000  0.00000000  0.25170000  1.0
