# generated using pymatgen
data_Li4Sc4In4Ga4C
_symmetry_space_group_name_H-M   Pm
_cell_length_a   6.04935000
_cell_length_b   8.37318000
_cell_length_c   24.52450000
_cell_angle_alpha   90.00000000
_cell_angle_beta   90.00000000
_cell_angle_gamma   90.00000000
_symmetry_Int_Tables_number   6
_chemical_formula_structural   Li4Sc4In4Ga4C
_chemical_formula_sum   'Li4 Sc4 In4 Ga4 C1'
_cell_volume   1242.22224387
_cell_formula_units_Z   1
loop_
 _symmetry_equiv_pos_site_id
 _symmetry_equiv_pos_as_xyz
  1  'x, y, z'
  2  'x, -y, z'
loop_
 _atom_site_type_symbol
 _atom_site_label
 _atom_site_symmetry_multiplicity
 _atom_site_fract_x
 _atom_site_fract_y
 _atom_site_fract_z
 _atom_site_occupancy
  Li  Li0  2  0.16548000  0.16558000  0.10261000  1.0
  Li  Li1  2  0.73143000  0.25000000  0.96925000  1.0
  Sc  Sc2  2  0.23143000  0.25000000  0.96925000  1.0
  Sc  Sc3  2  0.69301000  0.20330000  0.09374000  1.0
  In  In4  1  0.50000000  0.00000000  0.90776000  1.0
  In  In5  1  0.50000000  0.50000000  0.90776000  1.0
  In  In6  1  0.94530000  0.00000000  0.01911000  1.0
  In  In7  1  0.96777000  0.50000000  0.04315000  1.0
  Ga  Ga8  1  0.00000000  0.00000000  0.90776000  1.0
  Ga  Ga9  1  0.00000000  0.50000000  0.90776000  1.0
  Ga  Ga10  1  0.44335000  0.00000000  0.02811000  1.0
  Ga  Ga11  1  0.47005000  0.50000000  0.03615000  1.0
  C  C12  1  0.88509000  0.00000000  0.11213000  1.0
