# generated using pymatgen
data_Li4Mg4Cu4Pd4CO
_symmetry_space_group_name_H-M   'P 1'
_cell_length_a   7.95764000
_cell_length_b   5.46655000
_cell_length_c   24.09630000
_cell_angle_alpha   90.00000000
_cell_angle_beta   90.00000000
_cell_angle_gamma   90.00000000
_symmetry_Int_Tables_number   1
_chemical_formula_structural   Li4Mg4Cu4Pd4CO
_chemical_formula_sum   'Li4 Mg4 Cu4 Pd4 C1 O1'
_cell_volume   1048.20921721
_cell_formula_units_Z   1
loop_
 _symmetry_equiv_pos_site_id
 _symmetry_equiv_pos_as_xyz
  1  'x, y, z'
loop_
 _atom_site_type_symbol
 _atom_site_label
 _atom_site_symmetry_multiplicity
 _atom_site_fract_x
 _atom_site_fract_y
 _atom_site_fract_z
 _atom_site_occupancy
  Li  Li0  1  0.00000000  0.53000000  0.91089000  1.0
  Li  Li1  1  0.00000000  0.97912000  0.02833000  1.0
  Li  Li2  1  0.50000000  0.53270000  0.91122000  1.0
  Li  Li3  1  0.50000000  0.97912000  0.02833000  1.0
  Mg  Mg4  1  0.24985000  0.25044000  0.97303000  1.0
  Mg  Mg5  1  0.25000000  0.71869000  0.08500000  1.0
  Mg  Mg6  1  0.75015000  0.25044000  0.97303000  1.0
  Mg  Mg7  1  0.75000000  0.71869000  0.08500000  1.0
  Cu  Cu8  1  0.00000000  0.99983000  0.92510000  1.0
  Cu  Cu9  1  0.00000000  0.47912000  0.02833000  1.0
  Cu  Cu10  1  0.50000000  0.00552000  0.92400000  1.0
  Cu  Cu11  1  0.50000000  0.47912000  0.02833000  1.0
  Pd  Pd12  1  0.25300000  0.74581000  0.97185000  1.0
  Pd  Pd13  1  0.25000000  0.21869000  0.08500000  1.0
  Pd  Pd14  1  0.74700000  0.74581000  0.97185000  1.0
  Pd  Pd15  1  0.75000000  0.21869000  0.08500000  1.0
  C  C16  1  0.00000000  0.50254000  0.82401000  1.0
  O  O17  1  0.00000000  0.48787000  0.77678000  1.0
