# generated using pymatgen
data_Sc8In8Cu16CO
_symmetry_space_group_name_H-M   'P 1'
_cell_length_a   6.46446000
_cell_length_b   9.14213000
_cell_length_c   26.85660000
_cell_angle_alpha   90.00000000
_cell_angle_beta   90.00000000
_cell_angle_gamma   90.00000000
_symmetry_Int_Tables_number   1
_chemical_formula_structural   Sc8In8Cu16CO
_chemical_formula_sum   'Sc8 In8 Cu16 C1 O1'
_cell_volume   1587.19642280
_cell_formula_units_Z   1
loop_
 _symmetry_equiv_pos_site_id
 _symmetry_equiv_pos_as_xyz
  1  'x, y, z'
loop_
 _atom_site_type_symbol
 _atom_site_label
 _atom_site_symmetry_multiplicity
 _atom_site_fract_x
 _atom_site_fract_y
 _atom_site_fract_z
 _atom_site_occupancy
  Sc  Sc0  1  0.00000000  0.75000000  0.87235000  1.0
  Sc  Sc1  1  0.50000000  0.00000000  0.95745000  1.0
  Sc  Sc2  1  0.50000000  0.50000000  0.95745000  1.0
  Sc  Sc3  1  0.00000000  0.25000000  0.87235000  1.0
  Sc  Sc4  1  0.00000000  0.25277000  0.04317000  1.0
  Sc  Sc5  1  0.50000000  0.50000000  0.12938000  1.0
  Sc  Sc6  1  0.50000000  0.00000000  0.12691000  1.0
  Sc  Sc7  1  0.00000000  0.74723000  0.04317000  1.0
  In  In8  1  0.00000000  0.50000000  0.95745000  1.0
  In  In9  1  0.50000000  0.75000000  0.87235000  1.0
  In  In10  1  0.00000000  0.00000000  0.95745000  1.0
  In  In11  1  0.50000000  0.25000000  0.87235000  1.0
  In  In12  1  0.00000000  0.00000000  0.13224000  1.0
  In  In13  1  0.50000000  0.24808000  0.04184000  1.0
  In  In14  1  0.00000000  0.50000000  0.13113000  1.0
  In  In15  1  0.50000000  0.75192000  0.04184000  1.0
  Cu  Cu16  1  0.25000000  0.75000000  0.95745000  1.0
  Cu  Cu17  1  0.75000000  0.25000000  0.95745000  1.0
  Cu  Cu18  1  0.75000000  0.75000000  0.95745000  1.0
  Cu  Cu19  1  0.25000000  0.25000000  0.95745000  1.0
  Cu  Cu20  1  0.75000000  0.50000000  0.87235000  1.0
  Cu  Cu21  1  0.25000000  0.00000000  0.87235000  1.0
  Cu  Cu22  1  0.25000000  0.50000000  0.87235000  1.0
  Cu  Cu23  1  0.75000000  0.00000000  0.87235000  1.0
  Cu  Cu24  1  0.25072000  0.25103000  0.12697000  1.0
  Cu  Cu25  1  0.74928000  0.74897000  0.12697000  1.0
  Cu  Cu26  1  0.74928000  0.25103000  0.12697000  1.0
  Cu  Cu27  1  0.25072000  0.74897000  0.12697000  1.0
  Cu  Cu28  1  0.75807000  0.00000000  0.04348000  1.0
  Cu  Cu29  1  0.25657000  0.50000000  0.04434000  1.0
  Cu  Cu30  1  0.24193000  0.00000000  0.04348000  1.0
  Cu  Cu31  1  0.74343000  0.50000000  0.04434000  1.0
  C  C32  1  0.50000000  0.00000000  0.21236000  1.0
  O  O33  1  0.50000000  0.00000000  0.25509000  1.0
