data_image0
_chemical_formula_structural       Sc8In8Ag8Pd8CO
_chemical_formula_sum              "Sc8 In8 Ag8 Pd8 C1 O1"
_cell_length_a       6.71273
_cell_length_b       9.49324
_cell_length_c       27.1199
_cell_angle_alpha    90
_cell_angle_beta     90
_cell_angle_gamma    90

_space_group_name_H-M_alt    "P 1"
_space_group_IT_number       1

loop_
  _space_group_symop_operation_xyz
  'x, y, z'

loop_
  _atom_site_type_symbol
  _atom_site_label
  _atom_site_symmetry_multiplicity
  _atom_site_fract_x
  _atom_site_fract_y
  _atom_site_fract_z
  _atom_site_occupancy
  Sc  Sc1       1.0  0.75000  0.00000  0.95624  1.0000
  Sc  Sc2       1.0  0.75000  0.50000  0.95624  1.0000
  Sc  Sc3       1.0  0.25000  0.25000  0.86873  1.0000
  Sc  Sc4       1.0  0.25000  0.75000  0.86873  1.0000
  Sc  Sc5       1.0  0.74688  0.50000  0.12796  1.0000
  Sc  Sc6       1.0  0.74944  0.00000  0.12741  1.0000
  Sc  Sc7       1.0  0.26077  0.74808  0.04872  1.0000
  Sc  Sc8       1.0  0.26077  0.25192  0.04872  1.0000
  In  In1       1.0  0.25000  0.00000  0.95624  1.0000
  In  In2       1.0  0.25000  0.50000  0.95624  1.0000
  In  In3       1.0  0.75000  0.25000  0.86873  1.0000
  In  In4       1.0  0.75000  0.75000  0.86873  1.0000
  In  In5       1.0  0.24481  0.50000  0.13721  1.0000
  In  In6       1.0  0.23970  0.00000  0.13810  1.0000
  In  In7       1.0  0.74641  0.75225  0.04485  1.0000
  In  In8       1.0  0.74641  0.24775  0.04485  1.0000
  Ag  Ag1       1.0  0.00000  0.00000  0.86873  1.0000
  Ag  Ag2       1.0  0.00000  0.50000  0.86873  1.0000
  Ag  Ag3       1.0  0.50000  0.75000  0.95624  1.0000
  Ag  Ag4       1.0  0.50000  0.25000  0.95624  1.0000
  Ag  Ag5       1.0  0.00361  0.50000  0.04391  1.0000
  Ag  Ag6       1.0  0.01192  0.00000  0.04357  1.0000
  Ag  Ag7       1.0  0.49327  0.24908  0.14342  1.0000
  Ag  Ag8       1.0  0.49326  0.75092  0.14342  1.0000
  Pd  Pd1       1.0  0.00000  0.25000  0.95624  1.0000
  Pd  Pd2       1.0  0.00000  0.75000  0.95624  1.0000
  Pd  Pd3       1.0  0.50000  0.50000  0.86873  1.0000
  Pd  Pd4       1.0  0.50000  0.00000  0.86873  1.0000
  Pd  Pd5       1.0  0.00073  0.74714  0.12593  1.0000
  Pd  Pd6       1.0  0.00072  0.25286  0.12593  1.0000
  Pd  Pd7       1.0  0.49546  1.00000  0.04284  1.0000
  Pd  Pd8       1.0  0.50625  0.50000  0.04344  1.0000
  C   C1        1.0  0.74383  0.00000  0.21199  1.0000
  O   O1        1.0  0.74568  0.00000  0.25436  1.0000
