# generated using pymatgen
data_Mg8In8Ni16CO
_symmetry_space_group_name_H-M   P1
_cell_length_a   6.24448000
_cell_length_b   8.83103000
_cell_length_c   26.62330000
_cell_angle_alpha   90.00000000
_cell_angle_beta   90.00000000
_cell_angle_gamma   90.00000000
_symmetry_Int_Tables_number   1
_chemical_formula_structural   Mg8In8Ni16CO
_chemical_formula_sum   'Mg8 In8 Ni16 C1 O1'
_cell_volume   1468.14694264
_cell_formula_units_Z   1
loop_
 _symmetry_equiv_pos_site_id
 _symmetry_equiv_pos_as_xyz
  1  'x, y, z'
loop_
 _atom_site_type_symbol
 _atom_site_label
 _atom_site_symmetry_multiplicity
 _atom_site_fract_x
 _atom_site_fract_y
 _atom_site_fract_z
 _atom_site_occupancy
  Mg  Mg0  1  0.00000000  0.00000000  0.87561000  1.0
  Mg  Mg1  1  0.00000000  0.50000000  0.87561000  1.0
  Mg  Mg2  1  0.00456000  0.99982000  0.04050000  1.0
  Mg  Mg3  1  0.49978000  0.74277000  0.12784000  1.0
  Mg  Mg4  1  0.49981000  0.25712000  0.12785000  1.0
  Mg  Mg5  1  0.50000000  0.25000000  0.95854000  1.0
  Mg  Mg6  1  0.50000000  0.75000000  0.95854000  1.0
  Mg  Mg7  1  0.99749000  0.49982000  0.03830000  1.0
  In  In8  1  0.00000000  0.25000000  0.95854000  1.0
  In  In9  1  0.00000000  0.75000000  0.95854000  1.0
  In  In10  1  0.49701000  0.99990000  0.04094000  1.0
  In  In11  1  0.49911000  0.49985000  0.04117000  1.0
  In  In12  1  0.50000000  0.00000000  0.87561000  1.0
  In  In13  1  0.50000000  0.50000000  0.87561000  1.0
  In  In14  1  0.99552000  0.25096000  0.13029000  1.0
  In  In15  1  0.99562000  0.74901000  0.13023000  1.0
  Ni  Ni16  1  0.22802000  0.49996000  0.11716000  1.0
  Ni  Ni17  1  0.24747000  0.24914000  0.04353000  1.0
  Ni  Ni18  1  0.24756000  0.75057000  0.04352000  1.0
  Ni  Ni19  1  0.25000000  0.00000000  0.95854000  1.0
  Ni  Ni20  1  0.25000000  0.25000000  0.87561000  1.0
  Ni  Ni21  1  0.25000000  0.50000000  0.95854000  1.0
  Ni  Ni22  1  0.25000000  0.75000000  0.87561000  1.0
  Ni  Ni23  1  0.25337000  0.99993000  0.12608000  1.0
  Ni  Ni24  1  0.74928000  0.75177000  0.04246000  1.0
  Ni  Ni25  1  0.74947000  0.24789000  0.04238000  1.0
  Ni  Ni26  1  0.75000000  0.00000000  0.95854000  1.0
  Ni  Ni27  1  0.75000000  0.25000000  0.87561000  1.0
  Ni  Ni28  1  0.75000000  0.50000000  0.95854000  1.0
  Ni  Ni29  1  0.75000000  0.75000000  0.87561000  1.0
  Ni  Ni30  1  0.76332000  0.99995000  0.11673000  1.0
  Ni  Ni31  1  0.76682000  0.49995000  0.11746000  1.0
  C  C32  1  0.34113000  0.00007000  0.18883000  1.0
  O  O33  1  0.38385000  0.00007000  0.23141000  1.0
