# generated using pymatgen
data_Li4V4Ge4Pd4CO
_symmetry_space_group_name_H-M   'P 1'
_cell_length_a   8.64114000
_cell_length_b   5.49597000
_cell_length_c   23.65060000
_cell_angle_alpha   90.00000000
_cell_angle_beta   90.00000000
_cell_angle_gamma   90.00000000
_symmetry_Int_Tables_number   1
_chemical_formula_structural   Li4V4Ge4Pd4CO
_chemical_formula_sum   'Li4 V4 Ge4 Pd4 C1 O1'
_cell_volume   1123.20119763
_cell_formula_units_Z   1
loop_
 _symmetry_equiv_pos_site_id
 _symmetry_equiv_pos_as_xyz
  1  'x, y, z'
loop_
 _atom_site_type_symbol
 _atom_site_label
 _atom_site_symmetry_multiplicity
 _atom_site_fract_x
 _atom_site_fract_y
 _atom_site_fract_z
 _atom_site_occupancy
  Li  Li0  1  0.75000000  0.50000000  0.07718000  1.0
  Li  Li1  1  0.75153000  0.68032000  0.96822000  1.0
  Li  Li2  1  0.25000000  0.50000000  0.07718000  1.0
  Li  Li3  1  0.24847000  0.68032000  0.96822000  1.0
  V  V4  1  0.00000000  0.13390000  0.02573000  1.0
  V  V5  1  0.00000000  0.35157000  0.94459000  1.0
  V  V6  1  0.50000000  0.13390000  0.02573000  1.0
  V  V7  1  0.50000000  0.35591000  0.94694000  1.0
  Ge  Ge8  1  0.75000000  0.00000000  0.07718000  1.0
  Ge  Ge9  1  0.75153000  0.15657000  0.96563000  1.0
  Ge  Ge10  1  0.25000000  0.00000000  0.07718000  1.0
  Ge  Ge11  1  0.24847000  0.15657000  0.96563000  1.0
  Pd  Pd12  1  0.00000000  0.63390000  0.02573000  1.0
  Pd  Pd13  1  0.00000000  0.87413000  0.92177000  1.0
  Pd  Pd14  1  0.50000000  0.63390000  0.02573000  1.0
  Pd  Pd15  1  0.50000000  0.88385000  0.92534000  1.0
  C  C16  1  0.00000000  0.75627000  0.84487000  1.0
  O  O17  1  0.00000000  0.69841000  0.79794000  1.0
