# generated using pymatgen
data_Li4V4Ge4Pd4CO
_symmetry_space_group_name_H-M   Pm
_cell_length_a   5.49597000
_cell_length_b   8.64114000
_cell_length_c   23.65060000
_cell_angle_alpha   90.00000000
_cell_angle_beta   90.00000000
_cell_angle_gamma   90.00000000
_symmetry_Int_Tables_number   6
_chemical_formula_structural   Li4V4Ge4Pd4CO
_chemical_formula_sum   'Li4 V4 Ge4 Pd4 C1 O1'
_cell_volume   1123.20119763
_cell_formula_units_Z   1
loop_
 _symmetry_equiv_pos_site_id
 _symmetry_equiv_pos_as_xyz
  1  'x, y, z'
  2  'x, -y, z'
loop_
 _atom_site_type_symbol
 _atom_site_label
 _atom_site_symmetry_multiplicity
 _atom_site_fract_x
 _atom_site_fract_y
 _atom_site_fract_z
 _atom_site_occupancy
  Li  Li0  2  0.50000000  0.25000000  0.92282000  1.0
  Li  Li1  2  0.68032000  0.24847000  0.03178000  1.0
  V  V2  1  0.13390000  0.00000000  0.97427000  1.0
  V  V3  1  0.13390000  0.50000000  0.97427000  1.0
  V  V4  1  0.35157000  0.00000000  0.05541000  1.0
  V  V5  1  0.35591000  0.50000000  0.05306000  1.0
  Ge  Ge6  2  0.00000000  0.25000000  0.92282000  1.0
  Ge  Ge7  2  0.15657000  0.24847000  0.03437000  1.0
  Pd  Pd8  1  0.63390000  0.00000000  0.97427000  1.0
  Pd  Pd9  1  0.63390000  0.50000000  0.97427000  1.0
  Pd  Pd10  1  0.87413000  0.00000000  0.07823000  1.0
  Pd  Pd11  1  0.88385000  0.50000000  0.07466000  1.0
  C  C12  1  0.75627000  0.00000000  0.15513000  1.0
  O  O13  1  0.69841000  0.00000000  0.20206000  1.0
