# generated using pymatgen
data_Li16In8Pd8CO
_symmetry_space_group_name_H-M   'P 1'
_cell_length_a   6.46446000
_cell_length_b   9.14213000
_cell_length_c   26.85660000
_cell_angle_alpha   90.00000000
_cell_angle_beta   90.00000000
_cell_angle_gamma   90.00000000
_symmetry_Int_Tables_number   1
_chemical_formula_structural   Li16In8Pd8CO
_chemical_formula_sum   'Li16 In8 Pd8 C1 O1'
_cell_volume   1587.19642280
_cell_formula_units_Z   1
loop_
 _symmetry_equiv_pos_site_id
 _symmetry_equiv_pos_as_xyz
  1  'x, y, z'
loop_
 _atom_site_type_symbol
 _atom_site_label
 _atom_site_symmetry_multiplicity
 _atom_site_fract_x
 _atom_site_fract_y
 _atom_site_fract_z
 _atom_site_occupancy
  Li  Li0  1  0.00000000  0.75000000  0.95745000  1.0
  Li  Li1  1  0.50000000  0.00000000  0.87235000  1.0
  Li  Li2  1  0.00000000  0.25000000  0.95745000  1.0
  Li  Li3  1  0.50000000  0.50000000  0.87235000  1.0
  Li  Li4  1  0.25000000  0.25000000  0.87235000  1.0
  Li  Li5  1  0.25000000  0.75000000  0.87235000  1.0
  Li  Li6  1  0.75000000  0.50000000  0.95745000  1.0
  Li  Li7  1  0.75000000  0.00000000  0.95745000  1.0
  Li  Li8  1  0.01913000  0.25011000  0.12567000  1.0
  Li  Li9  1  0.49903000  0.50032000  0.04193000  1.0
  Li  Li10  1  0.99473000  0.75000000  0.12845000  1.0
  Li  Li11  1  0.49887000  0.99954000  0.04192000  1.0
  Li  Li12  1  0.24867000  0.74997000  0.04106000  1.0
  Li  Li13  1  0.24791000  0.24998000  0.03826000  1.0
  Li  Li14  1  0.72988000  0.00855000  0.12850000  1.0
  Li  Li15  1  0.72997000  0.49126000  0.12854000  1.0
  In  In16  1  0.25000000  0.00000000  0.95745000  1.0
  In  In17  1  0.25000000  0.50000000  0.95745000  1.0
  In  In18  1  0.75000000  0.75000000  0.87235000  1.0
  In  In19  1  0.75000000  0.25000000  0.87235000  1.0
  In  In20  1  0.25860000  0.50515000  0.13315000  1.0
  In  In21  1  0.25759000  0.99527000  0.13293000  1.0
  In  In22  1  0.75331000  0.24980000  0.04180000  1.0
  In  In23  1  0.75900000  0.74992000  0.04115000  1.0
  Pd  Pd24  1  0.00000000  0.00000000  0.87235000  1.0
  Pd  Pd25  1  0.50000000  0.25000000  0.95745000  1.0
  Pd  Pd26  1  0.50000000  0.75000000  0.95745000  1.0
  Pd  Pd27  1  0.00000000  0.50000000  0.87235000  1.0
  Pd  Pd28  1  0.00381000  0.49901000  0.04560000  1.0
  Pd  Pd29  1  0.49285000  0.75028000  0.11956000  1.0
  Pd  Pd30  1  0.47323000  0.25009000  0.11714000  1.0
  Pd  Pd31  1  0.00379000  0.00080000  0.04556000  1.0
  C  C32  1  0.91660000  0.25001000  0.19777000  1.0
  O  O33  1  0.87709000  0.25006000  0.23943000  1.0
