# generated using pymatgen
data_Nb4Ga4Ni8C
_symmetry_space_group_name_H-M   P1
_cell_length_a   6.00328000
_cell_length_b   6.00328000
_cell_length_c   24.50250000
_cell_angle_alpha   90.00000000
_cell_angle_beta   90.00000000
_cell_angle_gamma   90.00000000
_symmetry_Int_Tables_number   1
_chemical_formula_structural   Nb4Ga4Ni8C
_chemical_formula_sum   'Nb4 Ga4 Ni8 C1'
_cell_volume   883.05468201
_cell_formula_units_Z   1
loop_
 _symmetry_equiv_pos_site_id
 _symmetry_equiv_pos_as_xyz
  1  'x, y, z'
loop_
 _atom_site_type_symbol
 _atom_site_label
 _atom_site_symmetry_multiplicity
 _atom_site_fract_x
 _atom_site_fract_y
 _atom_site_fract_z
 _atom_site_occupancy
  Nb  Nb0  1  0.00000000  0.00000000  0.90812000  1.0
  Nb  Nb1  1  0.50000000  0.50000000  0.90812000  1.0
  Nb  Nb2  1  0.50006000  0.00005000  0.03661000  1.0
  Nb  Nb3  1  0.99994000  0.49990000  0.02636000  1.0
  Ga  Ga4  1  0.00000000  0.50000000  0.90812000  1.0
  Ga  Ga5  1  0.00003000  0.00013000  0.03523000  1.0
  Ga  Ga6  1  0.49999000  0.49996000  0.03522000  1.0
  Ga  Ga7  1  0.50000000  0.00000000  0.90812000  1.0
  Ni  Ni8  1  0.23406000  0.73419000  0.09258000  1.0
  Ni  Ni9  1  0.23410000  0.26586000  0.09270000  1.0
  Ni  Ni10  1  0.25000000  0.25000000  0.96937000  1.0
  Ni  Ni11  1  0.25000000  0.75000000  0.96937000  1.0
  Ni  Ni12  1  0.75000000  0.25000000  0.96937000  1.0
  Ni  Ni13  1  0.75000000  0.75000000  0.96937000  1.0
  Ni  Ni14  1  0.76589000  0.26575000  0.09276000  1.0
  Ni  Ni15  1  0.76605000  0.73422000  0.09263000  1.0
  C  C16  1  0.99995000  0.49982000  0.10841000  1.0
