# generated using pymatgen
data_Li8Cu4Sb4CO
_symmetry_space_group_name_H-M   'P 1'
_cell_length_a   6.37457000
_cell_length_b   6.37457000
_cell_length_c   24.78090000
_cell_angle_alpha   90.00000000
_cell_angle_beta   90.00000000
_cell_angle_gamma   90.00000000
_symmetry_Int_Tables_number   1
_chemical_formula_structural   Li8Cu4Sb4CO
_chemical_formula_sum   'Li8 Cu4 Sb4 C1 O1'
_cell_volume   1006.97540736
_cell_formula_units_Z   1
loop_
 _symmetry_equiv_pos_site_id
 _symmetry_equiv_pos_as_xyz
  1  'x, y, z'
loop_
 _atom_site_type_symbol
 _atom_site_label
 _atom_site_symmetry_multiplicity
 _atom_site_fract_x
 _atom_site_fract_y
 _atom_site_fract_z
 _atom_site_occupancy
  Li  Li0  1  0.99828000  0.50173000  0.96322000  1
  Li  Li1  1  0.99999500  0.99999500  0.09646000  1
  Li  Li2  1  0.49999500  0.49999500  0.09646000  1
  Li  Li3  1  0.50173000  0.99828000  0.96322000  1
  Li  Li4  1  0.25000000  0.74999000  0.03215000  1
  Li  Li5  1  0.75004000  0.75004000  0.88883000  1
  Li  Li6  1  0.74999000  0.25000000  0.03215000  1
  Li  Li7  1  0.24999500  0.24999500  0.89079000  1
  Cu  Cu8  1  0.00000000  0.49999000  0.09646000  1
  Cu  Cu9  1  0.49999000  1.00000000  0.09646000  1
  Cu  Cu10  1  0.99941500  0.99941500  0.96200000  1
  Cu  Cu11  1  0.50058000  0.50058000  0.96199000  1
  Sb  Sb12  1  0.25000000  0.75000000  0.90174000  1
  Sb  Sb13  1  0.74999500  0.74999500  0.03215000  1
  Sb  Sb14  1  0.75000000  0.25000000  0.90174000  1
  Sb  Sb15  1  0.24999500  0.24999500  0.03215000  1
  C  C16  1  0.24998000  0.24998000  0.80456000  1
  O  O17  1  0.24998500  0.24998500  0.75869000  1
