# generated using pymatgen
data_Li8Cu4Sb4CO
_symmetry_space_group_name_H-M   Cm
_cell_length_a   9.01500335
_cell_length_b   9.01500335
_cell_length_c   24.78090000
_cell_angle_alpha   90.00000000
_cell_angle_beta   90.00000000
_cell_angle_gamma   90.00000000
_symmetry_Int_Tables_number   8
_chemical_formula_structural   Li8Cu4Sb4CO
_chemical_formula_sum   'Li16 Cu8 Sb8 C2 O2'
_cell_volume   2013.95081472
_cell_formula_units_Z   2
loop_
 _symmetry_equiv_pos_site_id
 _symmetry_equiv_pos_as_xyz
  1  'x, y, z'
  2  'x, -y, z'
  3  'x+1/2, y+1/2, z'
  4  'x+1/2, -y+1/2, z'
loop_
 _atom_site_type_symbol
 _atom_site_label
 _atom_site_symmetry_multiplicity
 _atom_site_fract_x
 _atom_site_fract_y
 _atom_site_fract_z
 _atom_site_occupancy
  Li  Li0  4  0.25000500  0.25172500  0.03678000  1.0
  Li  Li1  4  0.49999500  0.24999500  0.96785000  1.0
  Li  Li2  2  0.24999500  0.00000000  0.10921000  1.0
  Li  Li3  2  0.25004000  0.50000000  0.11117000  1.0
  Li  Li4  2  0.49999500  0.50000000  0.90354000  1.0
  Li  Li5  2  0.49999500  0.00000000  0.90354000  1.0
  Cu  Cu6  4  0.24999500  0.75000500  0.90354000  1.0
  Cu  Cu7  2  0.00058000  0.50000000  0.03801000  1.0
  Cu  Cu8  2  0.49941500  0.50000000  0.03800000  1.0
  Sb  Sb9  4  -0.00000000  0.25000000  0.09826000  1.0
  Sb  Sb10  2  0.24999500  0.00000000  0.96785000  1.0
  Sb  Sb11  2  0.24999500  0.50000000  0.96785000  1.0
  C  C12  2  0.24998000  0.00000000  0.19544000  1.0
  O  O13  2  0.24998500  0.00000000  0.24131000  1.0
