# generated using pymatgen
data_Li8V8Ge8Pd8CO
_symmetry_space_group_name_H-M   Pm
_cell_length_a   8.64114000
_cell_length_b   5.68832000
_cell_length_c   27.05420000
_cell_angle_alpha   90.00000000
_cell_angle_beta   90.00000000
_cell_angle_gamma   90.00000000
_symmetry_Int_Tables_number   6
_chemical_formula_structural   Li8V8Ge8Pd8CO
_chemical_formula_sum   'Li8 V8 Ge8 Pd8 C1 O1'
_cell_volume   1329.81049956
_cell_formula_units_Z   1
loop_
 _symmetry_equiv_pos_site_id
 _symmetry_equiv_pos_as_xyz
  1  'x, y, z'
  2  'x, -y, z'
loop_
 _atom_site_type_symbol
 _atom_site_label
 _atom_site_symmetry_multiplicity
 _atom_site_fract_x
 _atom_site_fract_y
 _atom_site_fract_z
 _atom_site_occupancy
  Li  Li0  1  0.00000000  0.00000000  0.95654000  1.0
  Li  Li1  1  0.00000000  0.50000000  0.95654000  1.0
  Li  Li2  1  0.49998000  0.50000000  0.13790000  1.0
  Li  Li3  1  0.49999000  0.00000000  0.13892000  1.0
  Li  Li4  1  0.50000000  0.00000000  0.95654000  1.0
  Li  Li5  1  0.50000000  0.50000000  0.95654000  1.0
  Li  Li6  1  0.99998000  0.00000000  0.14219000  1.0
  Li  Li7  1  0.99998000  0.50000000  0.13426000  1.0
  V  V8  1  0.24918000  0.50000000  0.04238000  1.0
  V  V9  1  0.25000000  0.00000000  0.86963000  1.0
  V  V10  1  0.25000000  0.50000000  0.86963000  1.0
  V  V11  1  0.25126000  0.00000000  0.04406000  1.0
  V  V12  1  0.74883000  0.00000000  0.04406000  1.0
  V  V13  1  0.75000000  0.00000000  0.86963000  1.0
  V  V14  1  0.75000000  0.50000000  0.86963000  1.0
  V  V15  1  0.75092000  0.50000000  0.04239000  1.0
  Ge  Ge16  2  0.00000000  0.25000000  0.86963000  1.0
  Ge  Ge17  2  0.50000000  0.25000000  0.86963000  1.0
  Ge  Ge18  2  0.50016000  0.25142000  0.04464000  1.0
  Ge  Ge19  2  0.99995000  0.24698000  0.04479000  1.0
  Pd  Pd20  2  0.25000000  0.25000000  0.95654000  1.0
  Pd  Pd21  2  0.25080000  0.24863000  0.12487000  1.0
  Pd  Pd22  2  0.74916000  0.24864000  0.12489000  1.0
  Pd  Pd23  2  0.75000000  0.25000000  0.95654000  1.0
  C  C24  1  0.99997000  0.50000000  0.20975000  1.0
  O  O25  1  0.99998000  0.50000000  0.25208000  1.0
