# generated using pymatgen
data_Li16Ag8Bi8CO
_symmetry_space_group_name_H-M   'P 1'
_cell_length_a   9.79433000
_cell_length_b   6.92564000
_cell_length_c   27.34580000
_cell_angle_alpha   90.00000000
_cell_angle_beta   90.00000000
_cell_angle_gamma   90.00000000
_symmetry_Int_Tables_number   1
_chemical_formula_structural   Li16Ag8Bi8CO
_chemical_formula_sum   'Li16 Ag8 Bi8 C1 O1'
_cell_volume   1854.92040462
_cell_formula_units_Z   1
loop_
 _symmetry_equiv_pos_site_id
 _symmetry_equiv_pos_as_xyz
  1  'x, y, z'
loop_
 _atom_site_type_symbol
 _atom_site_label
 _atom_site_symmetry_multiplicity
 _atom_site_fract_x
 _atom_site_fract_y
 _atom_site_fract_z
 _atom_site_occupancy
  Li  Li0  1  0.50000000  1.00000000  0.04477000  1.0
  Li  Li1  1  0.75000000  0.50000000  0.13431000  1.0
  Li  Li2  1  0.00000000  1.00000000  0.04477000  1.0
  Li  Li3  1  0.25000000  0.50000000  0.13431000  1.0
  Li  Li4  1  0.75000000  0.25000000  0.04477000  1.0
  Li  Li5  1  0.25000000  0.25000000  0.04477000  1.0
  Li  Li6  1  0.50000000  0.75000000  0.13431000  1.0
  Li  Li7  1  0.00000000  0.75000000  0.13431000  1.0
  Li  Li8  1  0.00000000  0.96489000  0.87153000  1.0
  Li  Li9  1  0.24640000  0.48959000  0.96137000  1.0
  Li  Li10  1  0.50000000  0.97603000  0.87469000  1.0
  Li  Li11  1  0.75360000  0.48959000  0.96137000  1.0
  Li  Li12  1  0.24771000  0.29028000  0.87152000  1.0
  Li  Li13  1  0.75229000  0.29028000  0.87152000  1.0
  Li  Li14  1  0.00000000  0.73287000  0.95267000  1.0
  Li  Li15  1  0.50000000  0.72225000  0.95223000  1.0
  Ag  Ag16  1  0.00000000  0.25000000  0.13431000  1.0
  Ag  Ag17  1  0.50000000  0.25000000  0.13431000  1.0
  Ag  Ag18  1  0.25000000  0.75000000  0.04477000  1.0
  Ag  Ag19  1  0.75000000  0.75000000  0.04477000  1.0
  Ag  Ag20  1  0.50000000  0.27985000  0.94687000  1.0
  Ag  Ag21  1  0.00000000  0.27055000  0.94537000  1.0
  Ag  Ag22  1  0.74583000  0.71476000  0.87969000  1.0
  Ag  Ag23  1  0.25417000  0.71476000  0.87969000  1.0
  Bi  Bi24  1  0.75000000  0.00000000  0.13431000  1.0
  Bi  Bi25  1  0.00000000  0.50000000  0.04477000  1.0
  Bi  Bi26  1  0.50000000  0.50000000  0.04477000  1.0
  Bi  Bi27  1  0.25000000  0.00000000  0.13431000  1.0
  Bi  Bi28  1  0.25191000  0.01324000  0.95415000  1.0
  Bi  Bi29  1  0.50000000  0.50248000  0.85310000  1.0
  Bi  Bi30  1  0.00000000  0.51310000  0.85529000  1.0
  Bi  Bi31  1  0.74809000  0.01324000  0.95415000  1.0
  C  C32  1  0.00000000  0.00368000  0.79464000  1.0
  O  O33  1  0.00000000  0.00514000  0.75292000  1.0
