# generated using pymatgen
data_Li16Ag8Bi8CO
_symmetry_space_group_name_H-M   Pm
_cell_length_a   6.92564000
_cell_length_b   9.79433000
_cell_length_c   27.34580000
_cell_angle_alpha   90.00000000
_cell_angle_beta   90.00000000
_cell_angle_gamma   90.00000000
_symmetry_Int_Tables_number   6
_chemical_formula_structural   Li16Ag8Bi8CO
_chemical_formula_sum   'Li16 Ag8 Bi8 C1 O1'
_cell_volume   1854.92040462
_cell_formula_units_Z   1
loop_
 _symmetry_equiv_pos_site_id
 _symmetry_equiv_pos_as_xyz
  1  'x, y, z'
  2  'x, -y, z'
loop_
 _atom_site_type_symbol
 _atom_site_label
 _atom_site_symmetry_multiplicity
 _atom_site_fract_x
 _atom_site_fract_y
 _atom_site_fract_z
 _atom_site_occupancy
  Li  Li0  2  0.25000000  0.25000000  0.95523000  1.0
  Li  Li1  2  0.29028000  0.24771000  0.12848000  1.0
  Li  Li2  2  0.48959000  0.24640000  0.03863000  1.0
  Li  Li3  2  0.50000000  0.25000000  0.86569000  1.0
  Li  Li4  1  -0.00000000  0.50000000  0.95523000  1.0
  Li  Li5  1  -0.00000000  0.00000000  0.95523000  1.0
  Li  Li6  1  0.72225000  0.50000000  0.04777000  1.0
  Li  Li7  1  0.73287000  0.00000000  0.04733000  1.0
  Li  Li8  1  0.75000000  0.00000000  0.86569000  1.0
  Li  Li9  1  0.75000000  0.50000000  0.86569000  1.0
  Li  Li10  1  0.96489000  0.00000000  0.12847000  1.0
  Li  Li11  1  0.97603000  0.50000000  0.12531000  1.0
  Ag  Ag12  2  0.71476000  0.25417000  0.12031000  1.0
  Ag  Ag13  2  0.75000000  0.25000000  0.95523000  1.0
  Ag  Ag14  1  0.25000000  0.00000000  0.86569000  1.0
  Ag  Ag15  1  0.25000000  0.50000000  0.86569000  1.0
  Ag  Ag16  1  0.27055000  0.00000000  0.05463000  1.0
  Ag  Ag17  1  0.27985000  0.50000000  0.05313000  1.0
  Bi  Bi18  2  0.00000000  0.25000000  0.86569000  1.0
  Bi  Bi19  2  0.01324000  0.25191000  0.04585000  1.0
  Bi  Bi20  1  0.50000000  0.00000000  0.95523000  1.0
  Bi  Bi21  1  0.50000000  0.50000000  0.95523000  1.0
  Bi  Bi22  1  0.50248000  0.50000000  0.14690000  1.0
  Bi  Bi23  1  0.51310000  0.00000000  0.14471000  1.0
  C  C24  1  0.00368000  0.00000000  0.20536000  1.0
  O  O25  1  0.00514000  0.00000000  0.24708000  1.0
