# generated using pymatgen
data_Li8Y8Pd8Pb8C
_symmetry_space_group_name_H-M   'P 1'
_cell_length_a   9.74510000
_cell_length_b   6.89083000
_cell_length_c   27.30880000
_cell_angle_alpha   90.00000000
_cell_angle_beta   90.00000000
_cell_angle_gamma   90.00000000
_symmetry_Int_Tables_number   1
_chemical_formula_structural   Li8Y8Pd8Pb8C
_chemical_formula_sum   'Li8 Y8 Pd8 Pb8 C1'
_cell_volume   1833.83582500
_cell_formula_units_Z   1
loop_
 _symmetry_equiv_pos_site_id
 _symmetry_equiv_pos_as_xyz
  1  'x, y, z'
loop_
 _atom_site_type_symbol
 _atom_site_label
 _atom_site_symmetry_multiplicity
 _atom_site_fract_x
 _atom_site_fract_y
 _atom_site_fract_z
 _atom_site_occupancy
  Li  Li0  1  0.00000000  0.00000000  0.13382000  1.0
  Li  Li1  1  0.50000000  0.00000000  0.13382000  1.0
  Li  Li2  1  0.75000000  0.50000000  0.04461000  1.0
  Li  Li3  1  0.25000000  0.50000000  0.04461000  1.0
  Li  Li4  1  0.50000000  0.00693000  0.94941000  1.0
  Li  Li5  1  0.00000000  0.98720000  0.95279000  1.0
  Li  Li6  1  0.20397000  0.36705000  0.80585000  1.0
  Li  Li7  1  0.79603000  0.36705000  0.80585000  1.0
  Y  Y8  1  0.00000000  0.75000000  0.04461000  1.0
  Y  Y9  1  0.50000000  0.75000000  0.04461000  1.0
  Y  Y10  1  0.25000000  0.25000000  0.13382000  1.0
  Y  Y11  1  0.75000000  0.25000000  0.13382000  1.0
  Y  Y12  1  0.50000000  0.72351000  0.86761000  1.0
  Y  Y13  1  0.00000000  0.70440000  0.86546000  1.0
  Y  Y14  1  0.74844000  0.25998000  0.95026000  1.0
  Y  Y15  1  0.25156000  0.25998000  0.95026000  1.0
  Pd  Pd16  1  0.25000000  0.00000000  0.04461000  1.0
  Pd  Pd17  1  0.75000000  0.00000000  0.04461000  1.0
  Pd  Pd18  1  0.50000000  0.50000000  0.13382000  1.0
  Pd  Pd19  1  0.00000000  0.50000000  0.13382000  1.0
  Pd  Pd20  1  0.73394000  0.99580000  0.87221000  1.0
  Pd  Pd21  1  0.26606000  0.99580000  0.87221000  1.0
  Pd  Pd22  1  0.00000000  0.49648000  0.95883000  1.0
  Pd  Pd23  1  0.50000000  0.49713000  0.95512000  1.0
  Pb  Pb24  1  0.00000000  0.25000000  0.04461000  1.0
  Pb  Pb25  1  0.50000000  0.25000000  0.04461000  1.0
  Pb  Pb26  1  0.25000000  0.75000000  0.13382000  1.0
  Pb  Pb27  1  0.75000000  0.75000000  0.13382000  1.0
  Pb  Pb28  1  0.50000000  0.25658000  0.85594000  1.0
  Pb  Pb29  1  0.00000000  0.20641000  0.86682000  1.0
  Pb  Pb30  1  0.74938000  0.74544000  0.95536000  1.0
  Pb  Pb31  1  0.25062000  0.74544000  0.95536000  1.0
  C  C32  1  0.00000000  0.46066000  0.81427000  1.0
