# generated using pymatgen
data_Mn2VGa
_symmetry_space_group_name_H-M   Pmm2
_cell_length_a   4.12869500
_cell_length_b   5.83886000
_cell_length_c   26.19300000
_cell_angle_alpha   90.00000000
_cell_angle_beta   90.00000000
_cell_angle_gamma   90.00000000
_symmetry_Int_Tables_number   25
_chemical_formula_structural   Mn2VGa
_chemical_formula_sum   'Mn8 V4 Ga4'
_cell_volume   631.43130059
_cell_formula_units_Z   4
loop_
 _symmetry_equiv_pos_site_id
 _symmetry_equiv_pos_as_xyz
  1  'x, y, z'
  2  '-x, -y, z'
  3  '-x, y, z'
  4  'x, -y, z'
loop_
 _atom_site_type_symbol
 _atom_site_label
 _atom_site_symmetry_multiplicity
 _atom_site_fract_x
 _atom_site_fract_y
 _atom_site_fract_z
 _atom_site_occupancy
  Mn  Mn0  2  0.00000000  0.25000000  0.03941000  1.0
  Mn  Mn1  2  0.00000000  0.25040500  0.87966500  1.0
  Mn  Mn2  2  0.50000000  0.24721500  0.95837000  1.0
  Mn  Mn3  2  0.50000000  0.25000000  0.11822000  1.0
  V  V4  1  0.00000000  0.00000000  0.11822000  1.0
  V  V5  1  0.00000000  0.00000000  0.95916500  1.0
  V  V6  1  0.50000000  0.50000000  0.03941000  1.0
  V  V7  1  0.50000000  0.50000000  0.88268500  1.0
  Ga  Ga8  1  0.00000000  0.50000000  0.11822000  1.0
  Ga  Ga9  1  0.00000000  0.50000000  0.96009500  1.0
  Ga  Ga10  1  0.50000000  0.00000000  0.03941000  1.0
  Ga  Ga11  1  0.50000000  0.00000000  0.87198000  1.0
