# generated using pymatgen
data_Si16Ru16C
_symmetry_space_group_name_H-M   'P 1'
_cell_length_a   5.87849000
_cell_length_b   8.31345000
_cell_length_c   26.23510000
_cell_angle_alpha   90.00000000
_cell_angle_beta   90.00000000
_cell_angle_gamma   90.00000000
_symmetry_Int_Tables_number   1
_chemical_formula_structural   Si16Ru16C
_chemical_formula_sum   'Si16 Ru16 C1'
_cell_volume   1282.12331219
_cell_formula_units_Z   1
loop_
 _symmetry_equiv_pos_site_id
 _symmetry_equiv_pos_as_xyz
  1  'x, y, z'
loop_
 _atom_site_type_symbol
 _atom_site_label
 _atom_site_symmetry_multiplicity
 _atom_site_fract_x
 _atom_site_fract_y
 _atom_site_fract_z
 _atom_site_occupancy
  Si  Si0  1  0.00000000  0.00000000  0.88117000  1.0
  Si  Si1  1  0.00000000  0.75000000  0.96039000  1.0
  Si  Si2  1  0.00000000  0.00000000  0.04033000  1.0
  Si  Si3  1  0.00000000  0.73561000  0.11935000  1.0
  Si  Si4  1  0.00000000  0.50000000  0.88117000  1.0
  Si  Si5  1  0.00000000  0.25000000  0.96039000  1.0
  Si  Si6  1  0.00000000  0.50000000  0.04045000  1.0
  Si  Si7  1  0.00000000  0.26439000  0.11935000  1.0
  Si  Si8  1  0.50000000  0.00000000  0.88117000  1.0
  Si  Si9  1  0.50000000  0.75000000  0.96039000  1.0
  Si  Si10  1  0.50000000  0.00000000  0.03594000  1.0
  Si  Si11  1  0.50000000  0.74705000  0.12192000  1.0
  Si  Si12  1  0.50000000  0.50000000  0.88117000  1.0
  Si  Si13  1  0.50000000  0.25000000  0.96039000  1.0
  Si  Si14  1  0.50000000  0.50000000  0.04067000  1.0
  Si  Si15  1  0.50000000  0.25295000  0.12192000  1.0
  Ru  Ru16  1  0.75000000  0.75000000  0.88117000  1.0
  Ru  Ru17  1  0.75000000  0.00000000  0.96039000  1.0
  Ru  Ru18  1  0.75001000  0.75537000  0.03937000  1.0
  Ru  Ru19  1  0.75741000  0.00000000  0.12054000  1.0
  Ru  Ru20  1  0.75000000  0.25000000  0.88117000  1.0
  Ru  Ru21  1  0.75000000  0.50000000  0.96039000  1.0
  Ru  Ru22  1  0.75001000  0.24463000  0.03937000  1.0
  Ru  Ru23  1  0.74856000  0.50000000  0.11492000  1.0
  Ru  Ru24  1  0.25000000  0.75000000  0.88117000  1.0
  Ru  Ru25  1  0.25000000  0.00000000  0.96039000  1.0
  Ru  Ru26  1  0.24999000  0.75537000  0.03937000  1.0
  Ru  Ru27  1  0.24259000  0.00000000  0.12054000  1.0
  Ru  Ru28  1  0.25000000  0.25000000  0.88117000  1.0
  Ru  Ru29  1  0.25000000  0.50000000  0.96039000  1.0
  Ru  Ru30  1  0.24999000  0.24463000  0.03937000  1.0
  Ru  Ru31  1  0.25144000  0.50000000  0.11492000  1.0
  C  C32  1  0.00000000  0.00000000  0.16716000  1.0
