# generated using pymatgen
data_Zr12In4CO
_symmetry_space_group_name_H-M   Pmm2
_cell_length_a   6.34923000
_cell_length_b   8.97917000
_cell_length_c   24.76190000
_cell_angle_alpha   90.00000000
_cell_angle_beta   90.00000000
_cell_angle_gamma   90.00000000
_symmetry_Int_Tables_number   25
_chemical_formula_structural   Zr12In4CO
_chemical_formula_sum   'Zr12 In4 C1 O1'
_cell_volume   1411.69611330
_cell_formula_units_Z   1
loop_
 _symmetry_equiv_pos_site_id
 _symmetry_equiv_pos_as_xyz
  1  'x, y, z'
  2  '-x, -y, z'
  3  '-x, y, z'
  4  'x, -y, z'
loop_
 _atom_site_type_symbol
 _atom_site_label
 _atom_site_symmetry_multiplicity
 _atom_site_fract_x
 _atom_site_fract_y
 _atom_site_fract_z
 _atom_site_occupancy
  Zr  Zr0  4  0.25000000  0.25000000  0.09615000  1.0
  Zr  Zr1  4  0.26089000  0.25201000  0.97195000  1.0
  Zr  Zr2  1  0.00000000  0.00000000  0.03205000  1.0
  Zr  Zr3  1  0.00000000  0.50000000  0.03205000  1.0
  Zr  Zr4  1  0.50000000  0.00000000  0.90890000  1.0
  Zr  Zr5  1  0.50000000  0.50000000  0.90889000  1.0
  In  In6  1  0.00000000  0.00000000  0.90378000  1.0
  In  In7  1  0.00000000  0.50000000  0.90529000  1.0
  In  In8  1  0.50000000  0.00000000  0.03205000  1.0
  In  In9  1  0.50000000  0.50000000  0.03205000  1.0
  C  C10  1  0.50000000  0.00000000  0.81684000  1.0
  O  O11  1  0.50000000  0.00000000  0.77023000  1.0
