data_image0
_chemical_formula_structural       Li4Al4Ni4Pd4C
_chemical_formula_sum              "Li4 Al4 Ni4 Pd4 C1"
_cell_length_a       5.9124
_cell_length_b       5.9124
_cell_length_c       24.4343
_cell_angle_alpha    90
_cell_angle_beta     90
_cell_angle_gamma    90

_space_group_name_H-M_alt    "P 1"
_space_group_IT_number       1

loop_
  _space_group_symop_operation_xyz
  'x, y, z'

loop_
  _atom_site_type_symbol
  _atom_site_label
  _atom_site_symmetry_multiplicity
  _atom_site_fract_x
  _atom_site_fract_y
  _atom_site_fract_z
  _atom_site_occupancy
  Li  Li1       1.0  0.00000  0.50000  0.90926  1.0000
  Li  Li2       1.0  0.00001  0.00000  0.03636  1.0000
  Li  Li3       1.0  0.50002  0.50002  0.03636  1.0000
  Li  Li4       1.0  0.50000  0.00000  0.90926  1.0000
  Al  Al1       1.0  0.00000  0.00000  0.90926  1.0000
  Al  Al2       1.0  0.00001  0.50000  0.02607  1.0000
  Al  Al3       1.0  0.49999  0.00000  0.03418  1.0000
  Al  Al4       1.0  0.50000  0.50000  0.90926  1.0000
  Ni  Ni1       1.0  0.25000  0.25000  0.96975  1.0000
  Ni  Ni2       1.0  0.21490  0.71491  0.09535  1.0000
  Ni  Ni3       1.0  0.78501  0.28502  0.09534  1.0000
  Ni  Ni4       1.0  0.75000  0.75000  0.96975  1.0000
  Pd  Pd1       1.0  0.75000  0.25000  0.96975  1.0000
  Pd  Pd2       1.0  0.74213  0.75787  0.09717  1.0000
  Pd  Pd3       1.0  0.25787  0.24213  0.09718  1.0000
  Pd  Pd4       1.0  0.25000  0.75000  0.96975  1.0000
  C   C1        1.0  0.99996  0.49995  0.11219  1.0000
