# generated using pymatgen
data_Li4Al4Ni4Pd4C
_symmetry_space_group_name_H-M   'P 1'
_cell_length_a   5.91240000
_cell_length_b   5.91240000
_cell_length_c   24.43430000
_cell_angle_alpha   90.00000000
_cell_angle_beta   90.00000000
_cell_angle_gamma   90.00000000
_symmetry_Int_Tables_number   1
_chemical_formula_structural   Li4Al4Ni4Pd4C
_chemical_formula_sum   'Li4 Al4 Ni4 Pd4 C1'
_cell_volume   854.13696679
_cell_formula_units_Z   1
loop_
 _symmetry_equiv_pos_site_id
 _symmetry_equiv_pos_as_xyz
  1  'x, y, z'
loop_
 _atom_site_type_symbol
 _atom_site_label
 _atom_site_symmetry_multiplicity
 _atom_site_fract_x
 _atom_site_fract_y
 _atom_site_fract_z
 _atom_site_occupancy
  Li  Li0  1  0.49999500  0.50000500  0.09074000  1
  Li  Li1  1  0.00000000  0.50000000  0.96364000  1
  Li  Li2  1  0.50000000  1.00000000  0.96364000  1
  Li  Li3  1  0.99999500  0.00000500  0.09074000  1
  Al  Al4  1  0.00000000  0.50001000  0.09074000  1
  Al  Al5  1  0.50000000  0.50000000  0.97393000  1
  Al  Al6  1  0.99999000  0.00001000  0.96582000  1
  Al  Al7  1  0.49999000  0.00000000  0.09074000  1
  Ni  Ni8  1  0.25000000  0.25001000  0.03025000  1
  Ni  Ni9  1  0.71490000  0.28510000  0.90465000  1
  Ni  Ni10  1  0.28501000  0.71499000  0.90466000  1
  Ni  Ni11  1  0.74999000  0.75000000  0.03025000  1
  Pd  Pd12  1  0.24999500  0.75000500  0.03025000  1
  Pd  Pd13  1  0.75787000  0.75788000  0.90283000  1
  Pd  Pd14  1  0.24212000  0.24213000  0.90283000  1
  Pd  Pd15  1  0.74999500  0.25000500  0.03025000  1
  C  C16  1  0.49995000  0.50005000  0.88781000  1
