# generated using pymatgen
data_Li8Y8In8Pb8C
_symmetry_space_group_name_H-M   Pmm2
_cell_length_a   9.00122000
_cell_length_b   9.32892000
_cell_length_c   27.06750000
_cell_angle_alpha   90.00000000
_cell_angle_beta   90.00000000
_cell_angle_gamma   90.00000000
_symmetry_Int_Tables_number   25
_chemical_formula_structural   Li8Y8In8Pb8C
_chemical_formula_sum   'Li8 Y8 In8 Pb8 C1'
_cell_volume   2272.90294176
_cell_formula_units_Z   1
loop_
 _symmetry_equiv_pos_site_id
 _symmetry_equiv_pos_as_xyz
  1  'x, y, z'
  2  '-x, -y, z'
  3  '-x, y, z'
  4  'x, -y, z'
loop_
 _atom_site_type_symbol
 _atom_site_label
 _atom_site_symmetry_multiplicity
 _atom_site_fract_x
 _atom_site_fract_y
 _atom_site_fract_z
 _atom_site_occupancy
  Li  Li0  4  0.25000000  0.25000000  0.04352000  1.0
  Li  Li1  4  0.25000000  0.25000000  0.86945000  1.0
  Y  Y2  2  0.25000000  0.00000000  0.13055000  1.0
  Y  Y3  2  0.25000000  0.00000000  0.95648000  1.0
  Y  Y4  2  0.25000000  0.50000000  0.13055000  1.0
  Y  Y5  2  0.25000000  0.50000000  0.95648000  1.0
  In  In6  1  0.00000000  0.00000000  0.04352000  1.0
  In  In7  1  0.00000000  0.00000000  0.86945000  1.0
  In  In8  1  0.00000000  0.50000000  0.04352000  1.0
  In  In9  1  0.00000000  0.50000000  0.86945000  1.0
  In  In10  1  0.50000000  0.00000000  0.04352000  1.0
  In  In11  1  0.50000000  0.00000000  0.86945000  1.0
  In  In12  1  0.50000000  0.50000000  0.04352000  1.0
  In  In13  1  0.50000000  0.50000000  0.86945000  1.0
  Pb  Pb14  2  0.00000000  0.25000000  0.13055000  1.0
  Pb  Pb15  2  0.00000000  0.25000000  0.95648000  1.0
  Pb  Pb16  2  0.50000000  0.25000000  0.13055000  1.0
  Pb  Pb17  2  0.50000000  0.25000000  0.95648000  1.0
  C  C18  1  0.00000000  0.00000000  0.16011000  1.0
