# generated using pymatgen
data_Li8Bi4Au4CO
_symmetry_space_group_name_H-M   Cmm2
_cell_length_a   9.72919534
_cell_length_b   9.72919534
_cell_length_c   25.15970000
_cell_angle_alpha   90.00000000
_cell_angle_beta   90.00000000
_cell_angle_gamma   90.00000000
_symmetry_Int_Tables_number   35
_chemical_formula_structural   Li8Bi4Au4CO
_chemical_formula_sum   'Li16 Bi8 Au8 C2 O2'
_cell_volume   2381.54781036
_cell_formula_units_Z   2
loop_
 _symmetry_equiv_pos_site_id
 _symmetry_equiv_pos_as_xyz
  1  'x, y, z'
  2  '-x, -y, z'
  3  '-x, y, z'
  4  'x, -y, z'
  5  'x+1/2, y+1/2, z'
  6  '-x+1/2, -y+1/2, z'
  7  '-x+1/2, y+1/2, z'
  8  'x+1/2, -y+1/2, z'
loop_
 _atom_site_type_symbol
 _atom_site_label
 _atom_site_symmetry_multiplicity
 _atom_site_fract_x
 _atom_site_fract_y
 _atom_site_fract_z
 _atom_site_occupancy
  Li  Li0  4  0.00000000  0.25112000  0.02607000  1.0
  Li  Li1  4  0.25000000  0.50000000  0.89746000  1.0
  Li  Li2  4  0.25000000  0.25000000  0.96582000  1.0
  Li  Li3  2  0.00000000  0.00000000  0.10656000  1.0
  Li  Li4  2  0.00000000  0.50000000  0.10974000  1.0
  Bi  Bi5  4  0.00000000  0.24999000  0.89746000  1.0
  Bi  Bi6  4  0.24990000  0.50000000  0.04287000  1.0
  Au  Au7  4  0.25000000  0.25000000  0.09372000  1.0
  Au  Au8  2  0.00000000  0.00000000  0.96582000  1.0
  Au  Au9  2  0.00000000  0.50000000  0.96582000  1.0
  C  C10  2  0.00000000  0.50000000  0.19319000  1.0
  O  O11  2  0.00000000  0.50000000  0.23850000  1.0
