# generated using pymatgen
data_Sc4Ga4Ge4Pd4C
_symmetry_space_group_name_H-M   Pm
_cell_length_a   5.89664000
_cell_length_b   7.83718000
_cell_length_c   24.41460000
_cell_angle_alpha   90.00000000
_cell_angle_beta   90.00000000
_cell_angle_gamma   90.00000000
_symmetry_Int_Tables_number   6
_chemical_formula_structural   Sc4Ga4Ge4Pd4C
_chemical_formula_sum   'Sc4 Ga4 Ge4 Pd4 C1'
_cell_volume   1128.27261966
_cell_formula_units_Z   1
loop_
 _symmetry_equiv_pos_site_id
 _symmetry_equiv_pos_as_xyz
  1  'x, y, z'
  2  'x, -y, z'
loop_
 _atom_site_type_symbol
 _atom_site_label
 _atom_site_symmetry_multiplicity
 _atom_site_fract_x
 _atom_site_fract_y
 _atom_site_fract_z
 _atom_site_occupancy
  Sc  Sc0  1  0.03925000  0.50000000  0.95950000  1.0
  Sc  Sc1  1  0.04224000  0.00000000  0.96567000  1.0
  Sc  Sc2  1  0.50000000  0.00000000  0.09041000  1.0
  Sc  Sc3  1  0.50000000  0.50000000  0.09041000  1.0
  Ga  Ga4  1  0.00000000  0.00000000  0.09041000  1.0
  Ga  Ga5  1  0.00000000  0.50000000  0.09041000  1.0
  Ga  Ga6  1  0.54918000  0.00000000  0.97345000  1.0
  Ga  Ga7  1  0.54950000  0.50000000  0.96988000  1.0
  Ge  Ge8  2  0.26491000  0.25001000  0.03014000  1.0
  Ge  Ge9  2  0.79891000  0.24283000  0.89311000  1.0
  Pd  Pd10  2  0.33810000  0.24974000  0.92122000  1.0
  Pd  Pd11  2  0.76491000  0.25001000  0.03014000  1.0
  C  C12  1  0.76648000  0.00000000  0.90466000  1.0
