# generated using pymatgen
data_Li8Sc8Ge8Pd8CO
_symmetry_space_group_name_H-M   P1
_cell_length_a   6.30999000
_cell_length_b   8.92368000
_cell_length_c   26.69280000
_cell_angle_alpha   90.00000000
_cell_angle_beta   90.00000000
_cell_angle_gamma   90.00000000
_symmetry_Int_Tables_number   1
_chemical_formula_structural   Li8Sc8Ge8Pd8CO
_chemical_formula_sum   'Li8 Sc8 Ge8 Pd8 C1 O1'
_cell_volume   1503.02703275
_cell_formula_units_Z   1
loop_
 _symmetry_equiv_pos_site_id
 _symmetry_equiv_pos_as_xyz
  1  'x, y, z'
loop_
 _atom_site_type_symbol
 _atom_site_label
 _atom_site_symmetry_multiplicity
 _atom_site_fract_x
 _atom_site_fract_y
 _atom_site_fract_z
 _atom_site_occupancy
  Li  Li0  1  0.23727000  0.25247000  0.04632000  1.0
  Li  Li1  1  0.24641000  0.74865000  0.04381000  1.0
  Li  Li2  1  0.25000000  0.25000000  0.87463000  1.0
  Li  Li3  1  0.25000000  0.75000000  0.87463000  1.0
  Li  Li4  1  0.58589000  0.49641000  0.17296000  1.0
  Li  Li5  1  0.60637000  0.99145000  0.17748000  1.0
  Li  Li6  1  0.75000000  0.00000000  0.95821000  1.0
  Li  Li7  1  0.75000000  0.50000000  0.95821000  1.0
  Sc  Sc8  1  0.00000000  0.25000000  0.95821000  1.0
  Sc  Sc9  1  0.00000000  0.75000000  0.95821000  1.0
  Sc  Sc10  1  0.50000000  0.00000000  0.87463000  1.0
  Sc  Sc11  1  0.50000000  0.50000000  0.87463000  1.0
  Sc  Sc12  1  0.51442000  0.00107000  0.04651000  1.0
  Sc  Sc13  1  0.51551000  0.49774000  0.04748000  1.0
  Sc  Sc14  1  0.95835000  0.23364000  0.13237000  1.0
  Sc  Sc15  1  0.96300000  0.74981000  0.12711000  1.0
  Ge  Ge16  1  0.00000000  0.00000000  0.87463000  1.0
  Ge  Ge17  1  0.00000000  0.50000000  0.87463000  1.0
  Ge  Ge18  1  0.48725000  0.24819000  0.12524000  1.0
  Ge  Ge19  1  0.49159000  0.74393000  0.12457000  1.0
  Ge  Ge20  1  0.50000000  0.25000000  0.95821000  1.0
  Ge  Ge21  1  0.50000000  0.75000000  0.95821000  1.0
  Ge  Ge22  1  0.99063000  0.50018000  0.04238000  1.0
  Ge  Ge23  1  0.99780000  0.99906000  0.04043000  1.0
  Pd  Pd24  1  0.22644000  0.48808000  0.12061000  1.0
  Pd  Pd25  1  0.24473000  0.99212000  0.12326000  1.0
  Pd  Pd26  1  0.25000000  0.00000000  0.95821000  1.0
  Pd  Pd27  1  0.25000000  0.50000000  0.95821000  1.0
  Pd  Pd28  1  0.75000000  0.25000000  0.87463000  1.0
  Pd  Pd29  1  0.75000000  0.75000000  0.87463000  1.0
  Pd  Pd30  1  0.75593000  0.75187000  0.03907000  1.0
  Pd  Pd31  1  0.76059000  0.24633000  0.04123000  1.0
  C  C32  1  0.96218000  0.95778000  0.16883000  1.0
  O  O33  1  0.89804000  0.07195000  0.19281000  1.0
