# generated using pymatgen
data_Y8Sc8Ga8Pd8C
_symmetry_space_group_name_H-M   'P 1'
_cell_length_a   7.06732000
_cell_length_b   9.85606000
_cell_length_c   27.11150000
_cell_angle_alpha   90.00000000
_cell_angle_beta   90.00000000
_cell_angle_gamma   90.00000000
_symmetry_Int_Tables_number   1
_chemical_formula_structural   Y8Sc8Ga8Pd8C
_chemical_formula_sum   'Y8 Sc8 Ga8 Pd8 C1'
_cell_volume   1888.47674509
_cell_formula_units_Z   1
loop_
 _symmetry_equiv_pos_site_id
 _symmetry_equiv_pos_as_xyz
  1  'x, y, z'
loop_
 _atom_site_type_symbol
 _atom_site_label
 _atom_site_symmetry_multiplicity
 _atom_site_fract_x
 _atom_site_fract_y
 _atom_site_fract_z
 _atom_site_occupancy
  Y  Y0  1  0.00000000  0.23625000  0.86397000  1.0
  Y  Y1  1  0.00000000  0.25000000  0.04372000  1.0
  Y  Y2  1  0.50000000  0.26775000  0.86319000  1.0
  Y  Y3  1  0.50000000  0.25000000  0.04372000  1.0
  Y  Y4  1  0.00000000  0.76375000  0.86397000  1.0
  Y  Y5  1  0.00000000  0.75000000  0.04372000  1.0
  Y  Y6  1  0.50000000  0.73225000  0.86319000  1.0
  Y  Y7  1  0.50000000  0.75000000  0.04372000  1.0
  Sc  Sc8  1  0.00000000  0.00000000  0.95357000  1.0
  Sc  Sc9  1  0.00000000  0.00000000  0.13115000  1.0
  Sc  Sc10  1  0.50000000  0.00000000  0.95485000  1.0
  Sc  Sc11  1  0.50000000  0.00000000  0.13115000  1.0
  Sc  Sc12  1  0.00000000  0.50000000  0.95808000  1.0
  Sc  Sc13  1  0.00000000  0.50000000  0.13115000  1.0
  Sc  Sc14  1  0.50000000  0.50000000  0.95587000  1.0
  Sc  Sc15  1  0.50000000  0.50000000  0.13115000  1.0
  Ga  Ga16  1  0.72054000  0.00000000  0.86576000  1.0
  Ga  Ga17  1  0.75000000  0.00000000  0.04372000  1.0
  Ga  Ga18  1  0.27946000  0.00000000  0.86576000  1.0
  Ga  Ga19  1  0.25000000  0.00000000  0.04372000  1.0
  Ga  Ga20  1  0.77290000  0.50000000  0.86952000  1.0
  Ga  Ga21  1  0.75000000  0.50000000  0.04372000  1.0
  Ga  Ga22  1  0.22710000  0.50000000  0.86952000  1.0
  Ga  Ga23  1  0.25000000  0.50000000  0.04372000  1.0
  Pd  Pd24  1  0.73905000  0.26036000  0.95383000  1.0
  Pd  Pd25  1  0.75000000  0.25000000  0.13115000  1.0
  Pd  Pd26  1  0.26095000  0.26036000  0.95383000  1.0
  Pd  Pd27  1  0.25000000  0.25000000  0.13115000  1.0
  Pd  Pd28  1  0.73905000  0.73964000  0.95383000  1.0
  Pd  Pd29  1  0.75000000  0.75000000  0.13115000  1.0
  Pd  Pd30  1  0.26095000  0.73964000  0.95383000  1.0
  Pd  Pd31  1  0.25000000  0.75000000  0.13115000  1.0
  C  C32  1  0.00000000  0.00000000  0.87426000  1.0
