# generated using pymatgen
data_Y8Sc8Ga8Pd8C
_symmetry_space_group_name_H-M   Pmm2
_cell_length_a   7.06732000
_cell_length_b   9.85606000
_cell_length_c   27.11150000
_cell_angle_alpha   90.00000000
_cell_angle_beta   90.00000000
_cell_angle_gamma   90.00000000
_symmetry_Int_Tables_number   25
_chemical_formula_structural   Y8Sc8Ga8Pd8C
_chemical_formula_sum   'Y8 Sc8 Ga8 Pd8 C1'
_cell_volume   1888.47674509
_cell_formula_units_Z   1
loop_
 _symmetry_equiv_pos_site_id
 _symmetry_equiv_pos_as_xyz
  1  'x, y, z'
  2  '-x, -y, z'
  3  '-x, y, z'
  4  'x, -y, z'
loop_
 _atom_site_type_symbol
 _atom_site_label
 _atom_site_symmetry_multiplicity
 _atom_site_fract_x
 _atom_site_fract_y
 _atom_site_fract_z
 _atom_site_occupancy
  Y  Y0  2  0.00000000  0.23625000  0.86397000  1.0
  Y  Y1  2  0.00000000  0.25000000  0.04372000  1.0
  Y  Y2  2  0.50000000  0.25000000  0.04372000  1.0
  Y  Y3  2  0.50000000  0.26775000  0.86319000  1.0
  Sc  Sc4  1  0.00000000  0.00000000  0.13115000  1.0
  Sc  Sc5  1  0.00000000  0.00000000  0.95357000  1.0
  Sc  Sc6  1  0.00000000  0.50000000  0.13115000  1.0
  Sc  Sc7  1  0.00000000  0.50000000  0.95808000  1.0
  Sc  Sc8  1  0.50000000  0.00000000  0.13115000  1.0
  Sc  Sc9  1  0.50000000  0.00000000  0.95485000  1.0
  Sc  Sc10  1  0.50000000  0.50000000  0.13115000  1.0
  Sc  Sc11  1  0.50000000  0.50000000  0.95587000  1.0
  Ga  Ga12  2  0.22710000  0.50000000  0.86952000  1.0
  Ga  Ga13  2  0.25000000  0.00000000  0.04372000  1.0
  Ga  Ga14  2  0.25000000  0.50000000  0.04372000  1.0
  Ga  Ga15  2  0.27946000  0.00000000  0.86576000  1.0
  Pd  Pd16  4  0.25000000  0.25000000  0.13115000  1.0
  Pd  Pd17  4  0.26095000  0.26036000  0.95383000  1.0
  C  C18  1  0.00000000  0.00000000  0.87426000  1.0
