# generated using pymatgen
data_Li8Sn8Ge8Pd8C
_symmetry_space_group_name_H-M   Pm
_cell_length_a   6.61012000
_cell_length_b   9.34812000
_cell_length_c   27.01110000
_cell_angle_alpha   90.00000000
_cell_angle_beta   90.00000000
_cell_angle_gamma   90.00000000
_symmetry_Int_Tables_number   6
_chemical_formula_structural   Li8Sn8Ge8Pd8C
_chemical_formula_sum   'Li8 Sn8 Ge8 Pd8 C1'
_cell_volume   1669.07515767
_cell_formula_units_Z   1
loop_
 _symmetry_equiv_pos_site_id
 _symmetry_equiv_pos_as_xyz
  1  'x, y, z'
  2  'x, -y, z'
loop_
 _atom_site_type_symbol
 _atom_site_label
 _atom_site_symmetry_multiplicity
 _atom_site_fract_x
 _atom_site_fract_y
 _atom_site_fract_z
 _atom_site_occupancy
  Li  Li0  2  0.18447000  0.22911000  0.05070000  1.0
  Li  Li1  2  0.25000000  0.25000000  0.87022000  1.0
  Li  Li2  1  0.64038000  0.00000000  0.16351000  1.0
  Li  Li3  1  0.73717000  0.50000000  0.13033000  1.0
  Li  Li4  1  0.75000000  0.00000000  0.95674000  1.0
  Li  Li5  1  0.75000000  0.50000000  0.95674000  1.0
  Sn  Sn6  2  0.00000000  0.25000000  0.95674000  1.0
  Sn  Sn7  2  0.98378000  0.23407000  0.15663000  1.0
  Sn  Sn8  1  0.48531000  0.50000000  0.04096000  1.0
  Sn  Sn9  1  0.49408000  0.00000000  0.04213000  1.0
  Sn  Sn10  1  0.50000000  0.00000000  0.87022000  1.0
  Sn  Sn11  1  0.50000000  0.50000000  0.87022000  1.0
  Ge  Ge12  2  0.47584000  0.25736000  0.12289000  1.0
  Ge  Ge13  2  0.50000000  0.25000000  0.95674000  1.0
  Ge  Ge14  1  0.00000000  0.00000000  0.87022000  1.0
  Ge  Ge15  1  0.00000000  0.50000000  0.87022000  1.0
  Ge  Ge16  1  0.91487000  0.00000000  0.06733000  1.0
  Ge  Ge17  1  0.98374000  0.50000000  0.04434000  1.0
  Pd  Pd18  2  0.75000000  0.25000000  0.87022000  1.0
  Pd  Pd19  2  0.76124000  0.26284000  0.04556000  1.0
  Pd  Pd20  1  0.23060000  0.50000000  0.11909000  1.0
  Pd  Pd21  1  0.25000000  0.00000000  0.95674000  1.0
  Pd  Pd22  1  0.25000000  0.50000000  0.95674000  1.0
  Pd  Pd23  1  0.26808000  0.00000000  0.12368000  1.0
  C  C24  1  0.94266000  0.00000000  0.14203000  1.0
