# generated using pymatgen
data_GaFe2Co
_symmetry_space_group_name_H-M   Pmm2
_cell_length_a   4.10027000
_cell_length_b   5.79866000
_cell_length_c   26.15040000
_cell_angle_alpha   90.00000000
_cell_angle_beta   90.00000000
_cell_angle_gamma   90.00000000
_symmetry_Int_Tables_number   25
_chemical_formula_structural   GaFe2Co
_chemical_formula_sum   'Ga4 Fe8 Co4'
_cell_volume   621.75378377
_cell_formula_units_Z   4
loop_
 _symmetry_equiv_pos_site_id
 _symmetry_equiv_pos_as_xyz
  1  'x, y, z'
  2  '-x, -y, z'
  3  '-x, y, z'
  4  'x, -y, z'
loop_
 _atom_site_type_symbol
 _atom_site_label
 _atom_site_symmetry_multiplicity
 _atom_site_fract_x
 _atom_site_fract_y
 _atom_site_fract_z
 _atom_site_occupancy
  Ga  Ga0  1  0.00000000  0.00000000  0.11760000  1.0
  Ga  Ga1  1  0.00000000  0.00000000  0.96158000  1.0
  Ga  Ga2  1  0.50000000  0.50000000  0.03920000  1.0
  Ga  Ga3  1  0.50000000  0.50000000  0.86641500  1.0
  Fe  Fe4  2  0.00000000  0.25000000  0.03920000  1.0
  Fe  Fe5  2  0.00000000  0.25623000  0.88403500  1.0
  Fe  Fe6  2  0.50000000  0.25000000  0.11760000  1.0
  Fe  Fe7  2  0.50000000  0.26186000  0.95786000  1.0
  Co  Co8  1  0.00000000  0.50000000  0.11760000  1.0
  Co  Co9  1  0.00000000  0.50000000  0.96304000  1.0
  Co  Co10  1  0.50000000  0.00000000  0.03920000  1.0
  Co  Co11  1  0.50000000  0.00000000  0.88805000  1.0
