# generated using pymatgen
data_LiMgInGe
_symmetry_space_group_name_H-M   'P 1'
_cell_length_a   6.06838000
_cell_length_b   4.20925000
_cell_length_c   24.54770000
_cell_angle_alpha   90.00000000
_cell_angle_beta   90.00000000
_cell_angle_gamma   90.00000000
_symmetry_Int_Tables_number   1
_chemical_formula_structural   LiMgInGe
_chemical_formula_sum   'Li2 Mg2 In2 Ge2'
_cell_volume   627.02996539
_cell_formula_units_Z   2
loop_
 _symmetry_equiv_pos_site_id
 _symmetry_equiv_pos_as_xyz
  1  'x, y, z'
loop_
 _atom_site_type_symbol
 _atom_site_label
 _atom_site_symmetry_multiplicity
 _atom_site_fract_x
 _atom_site_fract_y
 _atom_site_fract_z
 _atom_site_occupancy
  Li  Li0  1  0.47626500  0.00000000  0.10289500  1.0
  Li  Li1  1  0.01985000  0.00000000  0.96912000  1.0
  Mg  Mg2  1  0.72619000  0.50000000  0.03565000  1.0
  Mg  Mg3  1  0.27977000  0.50000000  0.90737000  1.0
  In  In4  1  0.22337000  0.50000000  0.04968000  1.0
  In  In5  1  0.77977000  0.50000000  0.90737000  1.0
  Ge  Ge6  1  0.96518500  0.00000000  0.09222000  1.0
  Ge  Ge7  1  0.51985000  0.00000000  0.96912000  1.0
