# generated using pymatgen
data_Li4Sc4Ga4Ge4C
_symmetry_space_group_name_H-M   'P 1'
_cell_length_a   8.07712000
_cell_length_b   5.77599000
_cell_length_c   24.32640000
_cell_angle_alpha   90.00000000
_cell_angle_beta   90.00000000
_cell_angle_gamma   90.00000000
_symmetry_Int_Tables_number   1
_chemical_formula_structural   Li4Sc4Ga4Ge4C
_chemical_formula_sum   'Li4 Sc4 Ga4 Ge4 C1'
_cell_volume   1134.90840249
_cell_formula_units_Z   1
loop_
 _symmetry_equiv_pos_site_id
 _symmetry_equiv_pos_as_xyz
  1  'x, y, z'
loop_
 _atom_site_type_symbol
 _atom_site_label
 _atom_site_symmetry_multiplicity
 _atom_site_fract_x
 _atom_site_fract_y
 _atom_site_fract_z
 _atom_site_occupancy
  Li  Li0  1  0.00000000  0.27473000  0.97945000  1.0
  Li  Li1  1  0.00000000  0.71193000  0.08892000  1.0
  Li  Li2  1  0.50000000  0.24812000  0.96106000  1.0
  Li  Li3  1  0.50000000  0.71193000  0.08892000  1.0
  Sc  Sc4  1  0.78704000  0.55490000  0.90359000  1.0
  Sc  Sc5  1  0.74999000  0.97462000  0.02964000  1.0
  Sc  Sc6  1  0.21296000  0.55490000  0.90359000  1.0
  Sc  Sc7  1  0.25001000  0.97462000  0.02964000  1.0
  Ga  Ga8  1  0.82356000  0.05918000  0.89604000  1.0
  Ga  Ga9  1  0.74999000  0.47462000  0.02964000  1.0
  Ga  Ga10  1  0.17644000  0.05918000  0.89604000  1.0
  Ga  Ga11  1  0.25001000  0.47462000  0.02964000  1.0
  Ge  Ge12  1  0.00000000  0.77853000  0.97263000  1.0
  Ge  Ge13  1  0.00000000  0.21193000  0.08892000  1.0
  Ge  Ge14  1  0.50000000  0.74410000  0.95726000  1.0
  Ge  Ge15  1  0.50000000  0.21193000  0.08892000  1.0
  C  C16  1  0.00000000  0.77392000  0.88457000  1.0
