# generated using pymatgen
data_Zr8In8Ni16CO
_symmetry_space_group_name_H-M   'P 1'
_cell_length_a   6.34847000
_cell_length_b   8.97809000
_cell_length_c   26.73360000
_cell_angle_alpha   90.00000000
_cell_angle_beta   90.00000000
_cell_angle_gamma   90.00000000
_symmetry_Int_Tables_number   1
_chemical_formula_structural   Zr8In8Ni16CO
_chemical_formula_sum   'Zr8 In8 Ni16 C1 O1'
_cell_volume   1523.73860883
_cell_formula_units_Z   1
loop_
 _symmetry_equiv_pos_site_id
 _symmetry_equiv_pos_as_xyz
  1  'x, y, z'
loop_
 _atom_site_type_symbol
 _atom_site_label
 _atom_site_symmetry_multiplicity
 _atom_site_fract_x
 _atom_site_fract_y
 _atom_site_fract_z
 _atom_site_occupancy
  Zr  Zr0  1  0.00000000  0.00000000  0.87406000  1.0
  Zr  Zr1  1  0.50000000  0.25000000  0.95802000  1.0
  Zr  Zr2  1  0.50000000  0.75000000  0.95802000  1.0
  Zr  Zr3  1  0.00000000  0.50000000  0.87406000  1.0
  Zr  Zr4  1  0.99777000  0.49999000  0.04245000  1.0
  Zr  Zr5  1  0.49966000  0.74829000  0.12553000  1.0
  Zr  Zr6  1  0.49969000  0.25169000  0.12552000  1.0
  Zr  Zr7  1  0.99926000  0.00000000  0.04329000  1.0
  In  In8  1  0.00000000  0.75000000  0.95802000  1.0
  In  In9  1  0.50000000  0.00000000  0.87406000  1.0
  In  In10  1  0.00000000  0.25000000  0.95802000  1.0
  In  In11  1  0.50000000  0.50000000  0.87406000  1.0
  In  In12  1  0.99696000  0.25233000  0.13078000  1.0
  In  In13  1  0.49955000  0.50002000  0.04018000  1.0
  In  In14  1  0.99693000  0.74764000  0.13082000  1.0
  In  In15  1  0.49267000  0.99996000  0.04202000  1.0
  Ni  Ni16  1  0.25000000  0.00000000  0.95802000  1.0
  Ni  Ni17  1  0.75000000  0.50000000  0.95802000  1.0
  Ni  Ni18  1  0.75000000  0.00000000  0.95802000  1.0
  Ni  Ni19  1  0.25000000  0.50000000  0.95802000  1.0
  Ni  Ni20  1  0.75000000  0.75000000  0.87406000  1.0
  Ni  Ni21  1  0.25000000  0.25000000  0.87406000  1.0
  Ni  Ni22  1  0.25000000  0.75000000  0.87406000  1.0
  Ni  Ni23  1  0.75000000  0.25000000  0.87406000  1.0
  Ni  Ni24  1  0.25125000  0.50004000  0.12011000  1.0
  Ni  Ni25  1  0.75529000  0.99999000  0.11921000  1.0
  Ni  Ni26  1  0.74398000  0.50002000  0.12093000  1.0
  Ni  Ni27  1  0.25384000  0.00002000  0.13148000  1.0
  Ni  Ni28  1  0.74175000  0.24854000  0.04483000  1.0
  Ni  Ni29  1  0.25470000  0.74893000  0.04512000  1.0
  Ni  Ni30  1  0.25485000  0.25110000  0.04510000  1.0
  Ni  Ni31  1  0.74170000  0.75141000  0.04486000  1.0
  C  C32  1  0.35458000  0.99999000  0.19291000  1.0
  O  O33  1  0.40417000  0.00001000  0.23503000  1.0
