# generated using pymatgen
data_Li8Sb4Pt4CO
_symmetry_space_group_name_H-M   Cm
_cell_length_a   9.05843385
_cell_length_b   9.05843385
_cell_length_c   24.80400000
_cell_angle_alpha   90.00000000
_cell_angle_beta   90.00000000
_cell_angle_gamma   90.00000000
_symmetry_Int_Tables_number   8
_chemical_formula_structural   Li8Sb4Pt4CO
_chemical_formula_sum   'Li16 Sb8 Pt8 C2 O2'
_cell_volume   2035.29777006
_cell_formula_units_Z   2
loop_
 _symmetry_equiv_pos_site_id
 _symmetry_equiv_pos_as_xyz
  1  'x, y, z'
  2  'x, -y, z'
  3  'x+1/2, y+1/2, z'
  4  'x+1/2, -y+1/2, z'
loop_
 _atom_site_type_symbol
 _atom_site_label
 _atom_site_symmetry_multiplicity
 _atom_site_fract_x
 _atom_site_fract_y
 _atom_site_fract_z
 _atom_site_occupancy
  Li  Li0  4  0.00002500  0.75002500  0.96772000  1.0
  Li  Li1  4  0.25003000  0.24984000  0.03133000  1.0
  Li  Li2  2  0.00002500  0.50000000  0.90316000  1.0
  Li  Li3  2  0.00002500  0.00000000  0.90316000  1.0
  Li  Li4  2  0.25002000  0.00000000  0.11321000  1.0
  Li  Li5  2  0.25004500  0.50000000  0.11164000  1.0
  Sb  Sb6  4  0.25002500  0.25002500  0.90316000  1.0
  Sb  Sb7  2  0.00036000  0.00000000  0.03605000  1.0
  Sb  Sb8  2  0.49970000  0.00000000  0.03605000  1.0
  Pt  Pt9  4  0.00003000  0.75003000  0.08839000  1.0
  Pt  Pt10  2  0.25002500  0.00000000  0.96772000  1.0
  Pt  Pt11  2  0.25002500  0.50000000  0.96772000  1.0
  C  C12  2  0.24998000  0.00000000  0.19948000  1.0
  O  O13  2  0.24995500  0.00000000  0.24532000  1.0
