# generated using pymatgen
data_Y4In4Cu4Sn4C
_symmetry_space_group_name_H-M   'P 1'
_cell_length_a   8.82850000
_cell_length_b   6.36255000
_cell_length_c   24.76930000
_cell_angle_alpha   90.00000000
_cell_angle_beta   90.00000000
_cell_angle_gamma   90.00000000
_symmetry_Int_Tables_number   1
_chemical_formula_structural   Y4In4Cu4Sn4C
_chemical_formula_sum   'Y4 In4 Cu4 Sn4 C1'
_cell_volume   1391.33548892
_cell_formula_units_Z   1
loop_
 _symmetry_equiv_pos_site_id
 _symmetry_equiv_pos_as_xyz
  1  'x, y, z'
loop_
 _atom_site_type_symbol
 _atom_site_label
 _atom_site_symmetry_multiplicity
 _atom_site_fract_x
 _atom_site_fract_y
 _atom_site_fract_z
 _atom_site_occupancy
  Y  Y0  1  0.50000000  0.24494000  0.03409000  1.0
  Y  Y1  1  0.50000000  0.77490000  0.90373000  1.0
  Y  Y2  1  0.00000000  0.25315000  0.04076000  1.0
  Y  Y3  1  0.00000000  0.77490000  0.90373000  1.0
  In  In4  1  0.50000000  0.75301000  0.05349000  1.0
  In  In5  1  0.50000000  0.27490000  0.90373000  1.0
  In  In6  1  0.00000000  0.74265000  0.04892000  1.0
  In  In7  1  0.00000000  0.27490000  0.90373000  1.0
  Cu  Cu8  1  0.75265000  0.00611000  0.08020000  1.0
  Cu  Cu9  1  0.75000000  0.51660000  0.96791000  1.0
  Cu  Cu10  1  0.24735000  0.00611000  0.08020000  1.0
  Cu  Cu11  1  0.25000000  0.51660000  0.96791000  1.0
  Sn  Sn12  1  0.73685000  0.41608000  0.12767000  1.0
  Sn  Sn13  1  0.75000000  0.01660000  0.96791000  1.0
  Sn  Sn14  1  0.26315000  0.41608000  0.12767000  1.0
  Sn  Sn15  1  0.25000000  0.01660000  0.96791000  1.0
  C  C16  1  0.50000000  0.46048000  0.10839000  1.0
