# generated using pymatgen
data_LiYInGe
_symmetry_space_group_name_H-M   'P 1'
_cell_length_a   6.33235000
_cell_length_b   4.24682000
_cell_length_c   24.73290000
_cell_angle_alpha   90.00000000
_cell_angle_beta   90.00000000
_cell_angle_gamma   90.00000000
_symmetry_Int_Tables_number   1
_chemical_formula_structural   LiYInGe
_chemical_formula_sum   'Li2 Y2 In2 Ge2'
_cell_volume   665.12581882
_cell_formula_units_Z   2
loop_
 _symmetry_equiv_pos_site_id
 _symmetry_equiv_pos_as_xyz
  1  'x, y, z'
loop_
 _atom_site_type_symbol
 _atom_site_label
 _atom_site_symmetry_multiplicity
 _atom_site_fract_x
 _atom_site_fract_y
 _atom_site_fract_z
 _atom_site_occupancy
  Li  Li0  1  0.50000000  0.00000000  0.09568000  1.0
  Li  Li1  1  0.92877000  0.00000000  0.97341500  1.0
  Y  Y2  1  0.22929000  0.50000000  0.03189000  1.0
  Y  Y3  1  0.58960000  0.50000000  0.90422500  1.0
  In  In4  1  0.72929000  0.50000000  0.03189000  1.0
  In  In5  1  0.08746500  0.50000000  0.89123000  1.0
  Ge  Ge6  1  0.00000000  0.00000000  0.09568000  1.0
  Ge  Ge7  1  0.35701000  0.00000000  0.95110500  1.0
