# generated using pymatgen
data_Y4Sc4In4Pd4CO
_symmetry_space_group_name_H-M   P1
_cell_length_a   6.98742000
_cell_length_b   7.36232000
_cell_length_c   25.23460000
_cell_angle_alpha   90.00000000
_cell_angle_beta   90.00000000
_cell_angle_gamma   90.00000000
_symmetry_Int_Tables_number   1
_chemical_formula_structural   Y4Sc4In4Pd4CO
_chemical_formula_sum   'Y4 Sc4 In4 Pd4 C1 O1'
_cell_volume   1298.15922408
_cell_formula_units_Z   1
loop_
 _symmetry_equiv_pos_site_id
 _symmetry_equiv_pos_as_xyz
  1  'x, y, z'
loop_
 _atom_site_type_symbol
 _atom_site_label
 _atom_site_symmetry_multiplicity
 _atom_site_fract_x
 _atom_site_fract_y
 _atom_site_fract_z
 _atom_site_occupancy
  Y  Y0  1  0.27177000  0.74972000  0.95766000  1.0
  Y  Y1  1  0.27186000  0.25028000  0.95763000  1.0
  Y  Y2  1  0.78588000  0.25000000  0.10372000  1.0
  Y  Y3  1  0.78588000  0.75000000  0.10372000  1.0
  Sc  Sc4  1  0.28588000  0.25000000  0.10372000  1.0
  Sc  Sc5  1  0.28588000  0.75000000  0.10372000  1.0
  Sc  Sc6  1  0.79030000  0.75109000  0.97075000  1.0
  Sc  Sc7  1  0.79035000  0.24890000  0.97075000  1.0
  In  In8  1  0.52392000  0.00000000  0.03457000  1.0
  In  In9  1  0.52392000  0.50000000  0.03457000  1.0
  In  In10  1  0.96016000  0.00000000  0.88556000  1.0
  In  In11  1  0.98448000  0.49999000  0.88557000  1.0
  Pd  Pd12  1  0.02392000  0.00000000  0.03457000  1.0
  Pd  Pd13  1  0.02392000  0.50000000  0.03457000  1.0
  Pd  Pd14  1  0.55415000  0.99998000  0.91352000  1.0
  Pd  Pd15  1  0.57154000  0.50002000  0.91737000  1.0
  C  C16  1  0.45679000  0.00003000  0.83886000  1.0
  O  O17  1  0.43948000  0.00003000  0.79341000  1.0
