# generated using pymatgen
data_ZrNi2Sn
_symmetry_space_group_name_H-M   'P 1'
_cell_length_a   8.97809000
_cell_length_b   6.34847000
_cell_length_c   26.73360000
_cell_angle_alpha   90.00000000
_cell_angle_beta   90.00000000
_cell_angle_gamma   90.00000000
_symmetry_Int_Tables_number   1
_chemical_formula_structural   ZrNi2Sn
_chemical_formula_sum   'Zr8 Ni16 Sn8'
_cell_volume   1523.73860883
_cell_formula_units_Z   8
loop_
 _symmetry_equiv_pos_site_id
 _symmetry_equiv_pos_as_xyz
  1  'x, y, z'
loop_
 _atom_site_type_symbol
 _atom_site_label
 _atom_site_symmetry_multiplicity
 _atom_site_fract_x
 _atom_site_fract_y
 _atom_site_fract_z
 _atom_site_occupancy
  Zr  Zr0  1  0.00000000  0.00000000  0.12594000  1.0
  Zr  Zr1  1  0.25000000  0.50000000  0.04198000  1.0
  Zr  Zr2  1  0.75000000  0.50000000  0.04198000  1.0
  Zr  Zr3  1  0.50000000  0.00000000  0.12594000  1.0
  Zr  Zr4  1  0.50001000  0.00000000  0.95802000  1.0
  Zr  Zr5  1  0.74996000  0.50000000  0.87315000  1.0
  Zr  Zr6  1  0.25004000  0.50000000  0.87314000  1.0
  Zr  Zr7  1  0.00000000  0.00000000  0.95800000  1.0
  Ni  Ni8  1  0.00000000  0.75000000  0.04198000  1.0
  Ni  Ni9  1  0.50000000  0.25000000  0.04198000  1.0
  Ni  Ni10  1  0.00000000  0.25000000  0.04198000  1.0
  Ni  Ni11  1  0.50000000  0.75000000  0.04198000  1.0
  Ni  Ni12  1  0.75000000  0.25000000  0.12594000  1.0
  Ni  Ni13  1  0.25000000  0.75000000  0.12594000  1.0
  Ni  Ni14  1  0.75000000  0.75000000  0.12594000  1.0
  Ni  Ni15  1  0.25000000  0.25000000  0.12594000  1.0
  Ni  Ni16  1  0.50001000  0.74102000  0.87987000  1.0
  Ni  Ni17  1  0.99999000  0.25940000  0.87986000  1.0
  Ni  Ni18  1  0.50001000  0.25898000  0.87987000  1.0
  Ni  Ni19  1  0.99999000  0.74060000  0.87986000  1.0
  Ni  Ni20  1  0.24998000  0.25539000  0.95469000  1.0
  Ni  Ni21  1  0.75002000  0.74446000  0.95470000  1.0
  Ni  Ni22  1  0.24998000  0.74461000  0.95469000  1.0
  Ni  Ni23  1  0.75002000  0.25554000  0.95470000  1.0
  Sn  Sn24  1  0.75000000  0.00000000  0.04198000  1.0
  Sn  Sn25  1  0.00000000  0.50000000  0.12594000  1.0
  Sn  Sn26  1  0.25000000  0.00000000  0.04198000  1.0
  Sn  Sn27  1  0.50000000  0.50000000  0.12594000  1.0
  Sn  Sn28  1  0.24996000  0.00000000  0.86810000  1.0
  Sn  Sn29  1  0.49996000  0.50000000  0.95970000  1.0
  Sn  Sn30  1  0.75005000  0.00000000  0.86812000  1.0
  Sn  Sn31  1  0.00004000  0.50000000  0.95971000  1.0
