# generated using pymatgen
data_ZrNi2Sn
_symmetry_space_group_name_H-M   Pm
_cell_length_a   8.97809000
_cell_length_b   6.34847000
_cell_length_c   26.73360000
_cell_angle_alpha   90.00000000
_cell_angle_beta   90.00000000
_cell_angle_gamma   90.00000000
_symmetry_Int_Tables_number   6
_chemical_formula_structural   ZrNi2Sn
_chemical_formula_sum   'Zr8 Ni16 Sn8'
_cell_volume   1523.73860883
_cell_formula_units_Z   8
loop_
 _symmetry_equiv_pos_site_id
 _symmetry_equiv_pos_as_xyz
  1  'x, y, z'
  2  '-x, -y, z'
  3  'x, -y, z'
  4  '-x, y, z'
loop_
 _atom_site_type_symbol
 _atom_site_label
 _atom_site_symmetry_multiplicity
 _atom_site_fract_x
 _atom_site_fract_y
 _atom_site_fract_z
 _atom_site_occupancy
  Zr  Zr0  2  0.25000000  0.50000000  0.95802000  1.0
  Zr  Zr1  2  0.25004000  0.50000000  0.12686000  1.0
  Zr  Zr2  1  0.00000000  0.00000000  0.04200000  1.0
  Zr  Zr3  1  0.00000000  0.00000000  0.87406000  1.0
  Zr  Zr4  1  0.50000000  0.00000000  0.87406000  1.0
  Zr  Zr5  1  0.50001000  0.00000000  0.04198000  1.0
  Ni  Ni6  4  0.24998000  0.25539000  0.04531000  1.0
  Ni  Ni7  4  0.25000000  0.25000000  0.87406000  1.0
  Ni  Ni8  2  0.00000000  0.25000000  0.95802000  1.0
  Ni  Ni9  2  0.50000000  0.25000000  0.95802000  1.0
  Ni  Ni10  2  0.50001000  0.25898000  0.12013000  1.0
  Ni  Ni11  2  0.99999000  0.25940000  0.12014000  1.0
  Sn  Sn12  2  0.24996000  0.00000000  0.13190000  1.0
  Sn  Sn13  2  0.25000000  0.00000000  0.95802000  1.0
  Sn  Sn14  1  0.00000000  0.50000000  0.87406000  1.0
  Sn  Sn15  1  0.00004000  0.50000000  0.04029000  1.0
  Sn  Sn16  1  0.49996000  0.50000000  0.04030000  1.0
  Sn  Sn17  1  0.50000000  0.50000000  0.87406000  1.0
