# generated using pymatgen
data_Y4In4Sn4Pd4CO
_symmetry_space_group_name_H-M   P1
_cell_length_a   6.32964000
_cell_length_b   9.06394000
_cell_length_c   24.74170000
_cell_angle_alpha   90.00000000
_cell_angle_beta   90.00000000
_cell_angle_gamma   90.00000000
_symmetry_Int_Tables_number   1
_chemical_formula_structural   Y4In4Sn4Pd4CO
_chemical_formula_sum   'Y4 In4 Sn4 Pd4 C1 O1'
_cell_volume   1419.46787698
_cell_formula_units_Z   1
loop_
 _symmetry_equiv_pos_site_id
 _symmetry_equiv_pos_as_xyz
  1  'x, y, z'
loop_
 _atom_site_type_symbol
 _atom_site_label
 _atom_site_symmetry_multiplicity
 _atom_site_fract_x
 _atom_site_fract_y
 _atom_site_fract_z
 _atom_site_occupancy
  Y  Y0  1  0.17465000  0.75030000  0.08240000  1.0
  Y  Y1  1  0.18068000  0.25005000  0.08769000  1.0
  Y  Y2  1  0.73799000  0.25000000  0.96806000  1.0
  Y  Y3  1  0.73799000  0.75000000  0.96806000  1.0
  In  In4  1  0.00000000  0.00000000  0.90418000  1.0
  In  In5  1  0.00000000  0.50000000  0.90418000  1.0
  In  In6  1  0.41461000  0.49664000  0.02428000  1.0
  In  In7  1  0.41475000  0.00373000  0.02433000  1.0
  Sn  Sn8  1  0.50000000  0.00000000  0.90418000  1.0
  Sn  Sn9  1  0.50000000  0.50000000  0.90418000  1.0
  Sn  Sn10  1  0.88888000  0.49500000  0.05083000  1.0
  Sn  Sn11  1  0.88918000  0.00522000  0.05083000  1.0
  Pd  Pd12  1  0.23799000  0.25000000  0.96806000  1.0
  Pd  Pd13  1  0.23799000  0.75000000  0.96806000  1.0
  Pd  Pd14  1  0.64611000  0.25031000  0.08965000  1.0
  Pd  Pd15  1  0.64992000  0.75023000  0.07649000  1.0
  C  C16  1  0.59034000  0.25007000  0.16679000  1.0
  O  O17  1  0.59366000  0.24986000  0.21377000  1.0
