# generated using pymatgen
data_Y4Sn4Ge4Pd4C
_symmetry_space_group_name_H-M   'P 1'
_cell_length_a   9.60308000
_cell_length_b   5.93056000
_cell_length_c   24.43880000
_cell_angle_alpha   90.00000000
_cell_angle_beta   90.00000000
_cell_angle_gamma   90.00000000
_symmetry_Int_Tables_number   1
_chemical_formula_structural   Y4Sn4Ge4Pd4C
_chemical_formula_sum   'Y4 Sn4 Ge4 Pd4 C1'
_cell_volume   1391.82979156
_cell_formula_units_Z   1
loop_
 _symmetry_equiv_pos_site_id
 _symmetry_equiv_pos_as_xyz
  1  'x, y, z'
loop_
 _atom_site_type_symbol
 _atom_site_label
 _atom_site_symmetry_multiplicity
 _atom_site_fract_x
 _atom_site_fract_y
 _atom_site_fract_z
 _atom_site_occupancy
  Y  Y0  1  0.76220000  0.47933000  0.90577000  1.0
  Y  Y1  1  0.74999000  0.96804000  0.03027000  1.0
  Y  Y2  1  0.23780000  0.47933000  0.90577000  1.0
  Y  Y3  1  0.25001000  0.96804000  0.03027000  1.0
  Sn  Sn4  1  0.00000000  0.14665000  0.95566000  1.0
  Sn  Sn5  1  0.00000000  0.70205000  0.09081000  1.0
  Sn  Sn6  1  0.50000000  0.24534000  0.97023000  1.0
  Sn  Sn7  1  0.50000000  0.70205000  0.09081000  1.0
  Ge  Ge8  1  0.68958000  0.97913000  0.90480000  1.0
  Ge  Ge9  1  0.74999000  0.46804000  0.03027000  1.0
  Ge  Ge10  1  0.31042000  0.97913000  0.90480000  1.0
  Ge  Ge11  1  0.25001000  0.46804000  0.03027000  1.0
  Pd  Pd12  1  0.00000000  0.70072000  0.97203000  1.0
  Pd  Pd13  1  0.00000000  0.20205000  0.09081000  1.0
  Pd  Pd14  1  0.50000000  0.73988000  0.96473000  1.0
  Pd  Pd15  1  0.50000000  0.20205000  0.09081000  1.0
  C  C16  1  0.00000000  0.45073000  0.90746000  1.0
