# generated using pymatgen
data_MnFe2Si
_symmetry_space_group_name_H-M   'P 1'
_cell_length_a   3.95553500
_cell_length_b   5.59397000
_cell_length_c   25.93330000
_cell_angle_alpha   90.00000000
_cell_angle_beta   90.00000000
_cell_angle_gamma   90.00000000
_symmetry_Int_Tables_number   1
_chemical_formula_structural   MnFe2Si
_chemical_formula_sum   'Mn4 Fe8 Si4'
_cell_volume   573.82986671
_cell_formula_units_Z   4
loop_
 _symmetry_equiv_pos_site_id
 _symmetry_equiv_pos_as_xyz
  1  'x, y, z'
loop_
 _atom_site_type_symbol
 _atom_site_label
 _atom_site_symmetry_multiplicity
 _atom_site_fract_x
 _atom_site_fract_y
 _atom_site_fract_z
 _atom_site_occupancy
  Mn  Mn0  1  0.00000000  0.00000000  0.11440000  1.0
  Mn  Mn1  1  0.50000000  0.50000000  0.03813000  1.0
  Mn  Mn2  1  0.00000000  0.00000000  0.96165000  1.0
  Mn  Mn3  1  0.50000000  0.50000000  0.88164500  1.0
  Fe  Fe4  1  0.00000000  0.75000000  0.03813000  1.0
  Fe  Fe5  1  0.00000000  0.25000000  0.03813000  1.0
  Fe  Fe6  1  0.50000000  0.25000000  0.11440000  1.0
  Fe  Fe7  1  0.50000000  0.75000000  0.11440000  1.0
  Fe  Fe8  1  0.00000000  0.76107500  0.88533000  1.0
  Fe  Fe9  1  0.00000000  0.23892500  0.88533000  1.0
  Fe  Fe10  1  0.50000000  0.25196500  0.96348000  1.0
  Fe  Fe11  1  0.50000000  0.74803500  0.96348000  1.0
  Si  Si12  1  0.50000000  0.00000000  0.03813000  1.0
  Si  Si13  1  0.00000000  0.50000000  0.11440000  1.0
  Si  Si14  1  0.50000000  0.00000000  0.88694000  1.0
  Si  Si15  1  0.00000000  0.50000000  0.96065000  1.0
