# generated using pymatgen
data_Y4Al4In4Pd4CO
_symmetry_space_group_name_H-M   Pm
_cell_length_a   6.02485000
_cell_length_b   9.21652000
_cell_length_c   24.50330000
_cell_angle_alpha   90.00000000
_cell_angle_beta   90.00000000
_cell_angle_gamma   90.00000000
_symmetry_Int_Tables_number   6
_chemical_formula_structural   Y4Al4In4Pd4CO
_chemical_formula_sum   'Y4 Al4 In4 Pd4 C1 O1'
_cell_volume   1360.62293069
_cell_formula_units_Z   1
loop_
 _symmetry_equiv_pos_site_id
 _symmetry_equiv_pos_as_xyz
  1  'x, y, z'
  2  'x, -y, z'
loop_
 _atom_site_type_symbol
 _atom_site_label
 _atom_site_symmetry_multiplicity
 _atom_site_fract_x
 _atom_site_fract_y
 _atom_site_fract_z
 _atom_site_occupancy
  Y  Y0  1  0.22939000  0.00000000  0.96937000  1.0
  Y  Y1  1  0.22939000  0.50000000  0.96937000  1.0
  Y  Y2  1  0.68327000  0.50000000  0.08771000  1.0
  Y  Y3  1  0.69218000  0.00000000  0.09072000  1.0
  Al  Al4  2  0.00000000  0.24999000  0.90811000  1.0
  Al  Al5  2  0.38608000  0.24852000  0.05128000  1.0
  In  In6  2  0.50000000  0.24999000  0.90811000  1.0
  In  In7  2  0.90384000  0.24946000  0.02514000  1.0
  Pd  Pd8  1  0.19989000  0.50000000  0.08023000  1.0
  Pd  Pd9  1  0.20734000  0.00000000  0.08128000  1.0
  Pd  Pd10  1  0.72939000  0.00000000  0.96937000  1.0
  Pd  Pd11  1  0.72939000  0.50000000  0.96937000  1.0
  C  C12  1  0.65537000  0.00000000  0.19410000  1.0
  O  O13  1  0.64458000  0.00000000  0.24092000  1.0
