# generated using pymatgen
data_Mn16Rh16CO
_symmetry_space_group_name_H-M   'P 1'
_cell_length_a   8.64833000
_cell_length_b   6.11529000
_cell_length_c   26.48620000
_cell_angle_alpha   90.00000000
_cell_angle_beta   90.00000000
_cell_angle_gamma   90.00000000
_symmetry_Int_Tables_number   1
_chemical_formula_structural   Mn16Rh16CO
_chemical_formula_sum   'Mn16 Rh16 C1 O1'
_cell_volume   1400.77687686
_cell_formula_units_Z   1
loop_
 _symmetry_equiv_pos_site_id
 _symmetry_equiv_pos_as_xyz
  1  'x, y, z'
loop_
 _atom_site_type_symbol
 _atom_site_label
 _atom_site_symmetry_multiplicity
 _atom_site_fract_x
 _atom_site_fract_y
 _atom_site_fract_z
 _atom_site_occupancy
  Mn  Mn0  1  0.00000000  0.00000000  0.12245000  1.0
  Mn  Mn1  1  0.25000000  0.00000000  0.04082000  1.0
  Mn  Mn2  1  0.00000000  0.00033000  0.95926000  1.0
  Mn  Mn3  1  0.25080000  0.99878000  0.87571000  1.0
  Mn  Mn4  1  0.50000000  0.00000000  0.12245000  1.0
  Mn  Mn5  1  0.75000000  0.00000000  0.04082000  1.0
  Mn  Mn6  1  0.50000000  0.00064000  0.95964000  1.0
  Mn  Mn7  1  0.74920000  0.99878000  0.87571000  1.0
  Mn  Mn8  1  0.00000000  0.50000000  0.12245000  1.0
  Mn  Mn9  1  0.25000000  0.50000000  0.04082000  1.0
  Mn  Mn10  1  0.00000000  0.49968000  0.95925000  1.0
  Mn  Mn11  1  0.25072000  0.50112000  0.87569000  1.0
  Mn  Mn12  1  0.50000000  0.50000000  0.12245000  1.0
  Mn  Mn13  1  0.75000000  0.50000000  0.04082000  1.0
  Mn  Mn14  1  0.50000000  0.49946000  0.95964000  1.0
  Mn  Mn15  1  0.74928000  0.50112000  0.87569000  1.0
  Rh  Rh16  1  0.25000000  0.25000000  0.12245000  1.0
  Rh  Rh17  1  0.00000000  0.25000000  0.04082000  1.0
  Rh  Rh18  1  0.24743000  0.25004000  0.95897000  1.0
  Rh  Rh19  1  0.00000000  0.24981000  0.87488000  1.0
  Rh  Rh20  1  0.75000000  0.25000000  0.12245000  1.0
  Rh  Rh21  1  0.50000000  0.25000000  0.04082000  1.0
  Rh  Rh22  1  0.75257000  0.25004000  0.95897000  1.0
  Rh  Rh23  1  0.50000000  0.25004000  0.88223000  1.0
  Rh  Rh24  1  0.25000000  0.75000000  0.12245000  1.0
  Rh  Rh25  1  0.00000000  0.75000000  0.04082000  1.0
  Rh  Rh26  1  0.24975000  0.75001000  0.95935000  1.0
  Rh  Rh27  1  0.00000000  0.75000000  0.88189000  1.0
  Rh  Rh28  1  0.75000000  0.75000000  0.12245000  1.0
  Rh  Rh29  1  0.50000000  0.75000000  0.04082000  1.0
  Rh  Rh30  1  0.75025000  0.75001000  0.95935000  1.0
  Rh  Rh31  1  0.50000000  0.74999000  0.88219000  1.0
  C  C32  1  0.00000000  0.24896000  0.80479000  1.0
  O  O33  1  0.00000000  0.24907000  0.76095000  1.0
