# generated using pymatgen
data_Mn16Rh16CO
_symmetry_space_group_name_H-M   Pm
_cell_length_a   6.11529000
_cell_length_b   8.64833000
_cell_length_c   26.48620000
_cell_angle_alpha   90.00000000
_cell_angle_beta   90.00000000
_cell_angle_gamma   90.00000000
_symmetry_Int_Tables_number   6
_chemical_formula_structural   Mn16Rh16CO
_chemical_formula_sum   'Mn16 Rh16 C1 O1'
_cell_volume   1400.77687686
_cell_formula_units_Z   1
loop_
 _symmetry_equiv_pos_site_id
 _symmetry_equiv_pos_as_xyz
  1  'x, y, z'
  2  'x, -y, z'
loop_
 _atom_site_type_symbol
 _atom_site_label
 _atom_site_symmetry_multiplicity
 _atom_site_fract_x
 _atom_site_fract_y
 _atom_site_fract_z
 _atom_site_occupancy
  Mn  Mn0  2  0.00000000  0.25000000  0.95918000  1.0
  Mn  Mn1  2  0.50000000  0.25000000  0.95918000  1.0
  Mn  Mn2  2  0.50112000  0.25072000  0.12431000  1.0
  Mn  Mn3  2  0.99878000  0.25080000  0.12429000  1.0
  Mn  Mn4  1  0.00000000  0.00000000  0.87755000  1.0
  Mn  Mn5  1  0.00000000  0.50000000  0.87755000  1.0
  Mn  Mn6  1  0.00033000  0.00000000  0.04074000  1.0
  Mn  Mn7  1  0.00064000  0.50000000  0.04036000  1.0
  Mn  Mn8  1  0.49946000  0.50000000  0.04036000  1.0
  Mn  Mn9  1  0.49968000  0.00000000  0.04075000  1.0
  Mn  Mn10  1  0.50000000  0.00000000  0.87755000  1.0
  Mn  Mn11  1  0.50000000  0.50000000  0.87755000  1.0
  Rh  Rh12  2  0.25000000  0.25000000  0.87755000  1.0
  Rh  Rh13  2  0.25004000  0.24743000  0.04103000  1.0
  Rh  Rh14  2  0.75000000  0.25000000  0.87755000  1.0
  Rh  Rh15  2  0.75001000  0.24975000  0.04065000  1.0
  Rh  Rh16  1  0.24981000  0.00000000  0.12512000  1.0
  Rh  Rh17  1  0.25000000  0.00000000  0.95918000  1.0
  Rh  Rh18  1  0.25000000  0.50000000  0.95918000  1.0
  Rh  Rh19  1  0.25004000  0.50000000  0.11777000  1.0
  Rh  Rh20  1  0.74999000  0.50000000  0.11781000  1.0
  Rh  Rh21  1  0.75000000  0.00000000  0.11811000  1.0
  Rh  Rh22  1  0.75000000  0.00000000  0.95918000  1.0
  Rh  Rh23  1  0.75000000  0.50000000  0.95918000  1.0
  C  C24  1  0.24896000  0.00000000  0.19521000  1.0
  O  O25  1  0.24907000  0.00000000  0.23905000  1.0
