data_image0
_chemical_formula_structural       Li8Mg8Al8Cu8
_chemical_formula_sum              "Li8 Mg8 Al8 Cu8"
_cell_length_a       6.19386
_cell_length_b       8.75944
_cell_length_c       26.5696
_cell_angle_alpha    90
_cell_angle_beta     90
_cell_angle_gamma    90

_space_group_name_H-M_alt    "P 1"
_space_group_IT_number       1

loop_
  _space_group_symop_operation_xyz
  'x, y, z'

loop_
  _atom_site_type_symbol
  _atom_site_label
  _atom_site_symmetry_multiplicity
  _atom_site_fract_x
  _atom_site_fract_y
  _atom_site_fract_z
  _atom_site_occupancy
  Li  Li1       1.0  0.25000  0.00000  0.95879  1.0000
  Li  Li2       1.0  0.25000  0.50000  0.95879  1.0000
  Li  Li3       1.0  0.75000  0.25000  0.87637  1.0000
  Li  Li4       1.0  0.75000  0.75000  0.87637  1.0000
  Li  Li5       1.0  0.32415  0.49999  0.16294  1.0000
  Li  Li6       1.0  0.32419  0.00001  0.16294  1.0000
  Li  Li7       1.0  0.76515  0.75000  0.04237  1.0000
  Li  Li8       1.0  0.76515  0.25000  0.04237  1.0000
  Mg  Mg1       1.0  0.00000  0.25000  0.95879  1.0000
  Mg  Mg2       1.0  0.00000  0.75000  0.95879  1.0000
  Mg  Mg3       1.0  0.50000  0.50000  0.87637  1.0000
  Mg  Mg4       1.0  0.50000  0.00000  0.87637  1.0000
  Mg  Mg5       1.0  0.02901  0.75001  0.12770  1.0000
  Mg  Mg6       1.0  0.02888  0.24999  0.12770  1.0000
  Mg  Mg7       1.0  0.49566  0.99999  0.04522  1.0000
  Mg  Mg8       1.0  0.49564  0.50001  0.04522  1.0000
  Al  Al1       1.0  0.00000  0.00000  0.87637  1.0000
  Al  Al2       1.0  0.00000  0.50000  0.87637  1.0000
  Al  Al3       1.0  0.50000  0.75000  0.95879  1.0000
  Al  Al4       1.0  0.50000  0.25000  0.95879  1.0000
  Al  Al5       1.0  0.01919  0.50000  0.04762  1.0000
  Al  Al6       1.0  0.01918  1.00000  0.04762  1.0000
  Al  Al7       1.0  0.52163  0.25000  0.12446  1.0000
  Al  Al8       1.0  0.52169  0.75000  0.12446  1.0000
  Cu  Cu1       1.0  0.75000  0.00000  0.95879  1.0000
  Cu  Cu2       1.0  0.75000  0.50000  0.95879  1.0000
  Cu  Cu3       1.0  0.25000  0.25000  0.87637  1.0000
  Cu  Cu4       1.0  0.25000  0.75000  0.87637  1.0000
  Cu  Cu5       1.0  0.75199  0.50001  0.12071  1.0000
  Cu  Cu6       1.0  0.75200  0.99999  0.12071  1.0000
  Cu  Cu7       1.0  0.25560  0.74999  0.03815  1.0000
  Cu  Cu8       1.0  0.25559  0.25000  0.03816  1.0000
