# generated using pymatgen
data_LiMgAlCu
_symmetry_space_group_name_H-M   Pm
_cell_length_a   6.19386000
_cell_length_b   4.37972000
_cell_length_c   26.56960000
_cell_angle_alpha   90.00000000
_cell_angle_beta   90.00000000
_cell_angle_gamma   90.00000000
_symmetry_Int_Tables_number   6
_chemical_formula_structural   LiMgAlCu
_chemical_formula_sum   'Li4 Mg4 Al4 Cu4'
_cell_volume   720.76343689
_cell_formula_units_Z   4
loop_
 _symmetry_equiv_pos_site_id
 _symmetry_equiv_pos_as_xyz
  1  'x, y, z'
  2  'x, -y, z'
loop_
 _atom_site_type_symbol
 _atom_site_label
 _atom_site_symmetry_multiplicity
 _atom_site_fract_x
 _atom_site_fract_y
 _atom_site_fract_z
 _atom_site_occupancy
  Li  Li0  1  0.23485000  0.50000000  0.95763000  1.0
  Li  Li1  1  0.25000000  0.50000000  0.12363000  1.0
  Li  Li2  1  0.67583000  0.00000000  0.83706000  1.0
  Li  Li3  1  0.75000000  0.00000000  0.04121000  1.0
  Mg  Mg4  1  0.00000000  0.50000000  0.04121000  1.0
  Mg  Mg5  1  0.50000000  0.00000000  0.12363000  1.0
  Mg  Mg6  1  0.50435000  0.00000000  0.95478000  1.0
  Mg  Mg7  1  0.97105500  0.50000000  0.87230000  1.0
  Al  Al8  1  0.00000000  0.00000000  0.12363000  1.0
  Al  Al9  1  0.47834000  0.50000000  0.87554000  1.0
  Al  Al10  1  0.50000000  0.50000000  0.04121000  1.0
  Al  Al11  1  0.98081500  0.00000000  0.95238000  1.0
  Cu  Cu12  1  0.24800500  0.00000000  0.87929000  1.0
  Cu  Cu13  1  0.25000000  0.00000000  0.04121000  1.0
  Cu  Cu14  1  0.74440500  0.50000000  0.96184500  1.0
  Cu  Cu15  1  0.75000000  0.50000000  0.12363000  1.0
