data_image0
_chemical_formula_structural       Sc4Ga4Ni8CO
_chemical_formula_sum              "Sc4 Ga4 Ni8 C1 O1"
_cell_length_a       6.06833
_cell_length_b       6.06833
_cell_length_c       24.5512
_cell_angle_alpha    90
_cell_angle_beta     90
_cell_angle_gamma    90

_space_group_name_H-M_alt    "P 1"
_space_group_IT_number       1

loop_
  _space_group_symop_operation_xyz
  'x, y, z'

loop_
  _atom_site_type_symbol
  _atom_site_label
  _atom_site_symmetry_multiplicity
  _atom_site_fract_x
  _atom_site_fract_y
  _atom_site_fract_z
  _atom_site_occupancy
  Sc  Sc1       1.0  0.00000  0.00000  0.90731  1.0000
  Sc  Sc2       1.0  0.50000  0.50000  0.90731  1.0000
  Sc  Sc3       1.0  0.50347  0.99638  0.03236  1.0000
  Sc  Sc4       1.0  0.99635  0.50345  0.03236  1.0000
  Ga  Ga1       1.0  0.00050  0.00045  0.03434  1.0000
  Ga  Ga2       1.0  0.50000  0.00000  0.90731  1.0000
  Ga  Ga3       1.0  0.00000  0.50000  0.90731  1.0000
  Ga  Ga4       1.0  0.49922  0.49927  0.03411  1.0000
  Ni  Ni1       1.0  0.25000  0.25000  0.96910  1.0000
  Ni  Ni2       1.0  0.74936  0.74939  0.08903  1.0000
  Ni  Ni3       1.0  0.75000  0.25000  0.96910  1.0000
  Ni  Ni4       1.0  0.25060  0.74924  0.08933  1.0000
  Ni  Ni5       1.0  0.75000  0.75000  0.96910  1.0000
  Ni  Ni6       1.0  0.25021  0.25021  0.09212  1.0000
  Ni  Ni7       1.0  0.25000  0.75000  0.96910  1.0000
  Ni  Ni8       1.0  0.74925  0.25058  0.08932  1.0000
  C   C1        1.0  0.24964  0.24963  0.16447  1.0000
  O   O1        1.0  0.24956  0.24956  0.21158  1.0000
