# generated using pymatgen
data_Sc4Ga4Ni8CO
_symmetry_space_group_name_H-M   'P 1'
_cell_length_a   6.06833000
_cell_length_b   6.06833000
_cell_length_c   24.55120000
_cell_angle_alpha   90.00000000
_cell_angle_beta   90.00000000
_cell_angle_gamma   90.00000000
_symmetry_Int_Tables_number   1
_chemical_formula_structural   Sc4Ga4Ni8CO
_chemical_formula_sum   'Sc4 Ga4 Ni8 C1 O1'
_cell_volume   904.08883123
_cell_formula_units_Z   1
loop_
 _symmetry_equiv_pos_site_id
 _symmetry_equiv_pos_as_xyz
  1  'x, y, z'
loop_
 _atom_site_type_symbol
 _atom_site_label
 _atom_site_symmetry_multiplicity
 _atom_site_fract_x
 _atom_site_fract_y
 _atom_site_fract_z
 _atom_site_occupancy
  Sc  Sc0  1  0.99999500  0.00000500  0.09269000  1
  Sc  Sc1  1  0.49999500  0.50000500  0.09269000  1
  Sc  Sc2  1  0.99638000  0.49654000  0.96764000  1
  Sc  Sc3  1  0.50346000  0.00362000  0.96764000  1
  Ga  Ga4  1  0.00047000  0.99953000  0.96566000  1
  Ga  Ga5  1  0.00000000  0.50001000  0.09269000  1
  Ga  Ga6  1  0.49999000  0.00000000  0.09269000  1
  Ga  Ga7  1  0.49924000  0.50076000  0.96589000  1
  Ni  Ni8  1  0.24999500  0.75000500  0.03090000  1
  Ni  Ni9  1  0.74937000  0.25063000  0.91097000  1
  Ni  Ni10  1  0.25000000  0.25001000  0.03090000  1
  Ni  Ni11  1  0.74924000  0.74941000  0.91067000  1
  Ni  Ni12  1  0.74999500  0.25000500  0.03090000  1
  Ni  Ni13  1  0.25020500  0.74979500  0.90788000  1
  Ni  Ni14  1  0.74999000  0.75000000  0.03090000  1
  Ni  Ni15  1  0.25059000  0.25076000  0.91067000  1
  C  C16  1  0.24963000  0.75037000  0.83553000  1
  O  O17  1  0.24955500  0.75044500  0.78842000  1
