# generated using pymatgen
data_Sc4Ga4Ni8CO
_symmetry_space_group_name_H-M   Cm
_cell_length_a   8.58191459
_cell_length_b   8.58191459
_cell_length_c   24.55120000
_cell_angle_alpha   90.00000000
_cell_angle_beta   90.00000000
_cell_angle_gamma   90.00000000
_symmetry_Int_Tables_number   8
_chemical_formula_structural   Sc4Ga4Ni8CO
_chemical_formula_sum   'Sc8 Ga8 Ni16 C2 O2'
_cell_volume   1808.17766246
_cell_formula_units_Z   2
loop_
 _symmetry_equiv_pos_site_id
 _symmetry_equiv_pos_as_xyz
  1  'x, y, z'
  2  'x, -y, z'
  3  'x+1/2, y+1/2, z'
  4  'x+1/2, -y+1/2, z'
loop_
 _atom_site_type_symbol
 _atom_site_label
 _atom_site_symmetry_multiplicity
 _atom_site_fract_x
 _atom_site_fract_y
 _atom_site_fract_z
 _atom_site_occupancy
  Sc  Sc0  4  0.24992000  0.25354000  0.03236000  1.0
  Sc  Sc1  2  0.49999500  0.00000000  0.90731000  1.0
  Sc  Sc2  2  0.49999500  0.50000000  0.90731000  1.0
  Ga  Ga3  4  0.24999500  0.24999500  0.90731000  1.0
  Ga  Ga4  2  0.00047000  0.00000000  0.03434000  1.0
  Ga  Ga5  2  0.49924000  0.00000000  0.03411000  1.0
  Ni  Ni6  4  0.49991500  0.24932500  0.08933000  1.0
  Ni  Ni7  4  0.49999500  0.24999500  0.96910000  1.0
  Ni  Ni8  2  0.24937000  0.50000000  0.08903000  1.0
  Ni  Ni9  2  0.24999500  0.00000000  0.96910000  1.0
  Ni  Ni10  2  0.24999500  0.50000000  0.96910000  1.0
  Ni  Ni11  2  0.25020500  0.00000000  0.09212000  1.0
  C  C12  2  0.24963000  0.00000000  0.16447000  1.0
  O  O13  2  0.24955500  0.00000000  0.21158000  1.0
