# generated using pymatgen
data_Li8In16Rh8C
_symmetry_space_group_name_H-M   'P 1'
_cell_length_a   6.57920000
_cell_length_b   9.30439000
_cell_length_c   26.97830000
_cell_angle_alpha   90.00000000
_cell_angle_beta   90.00000000
_cell_angle_gamma   90.00000000
_symmetry_Int_Tables_number   1
_chemical_formula_structural   Li8In16Rh8C
_chemical_formula_sum   'Li8 In16 Rh8 C1'
_cell_volume   1651.48857747
_cell_formula_units_Z   1
loop_
 _symmetry_equiv_pos_site_id
 _symmetry_equiv_pos_as_xyz
  1  'x, y, z'
loop_
 _atom_site_type_symbol
 _atom_site_label
 _atom_site_symmetry_multiplicity
 _atom_site_fract_x
 _atom_site_fract_y
 _atom_site_fract_z
 _atom_site_occupancy
  Li  Li0  1  0.00000000  0.00000000  0.87067000  1.0
  Li  Li1  1  0.50000000  0.25000000  0.95689000  1.0
  Li  Li2  1  0.50000000  0.75000000  0.95689000  1.0
  Li  Li3  1  0.00000000  0.50000000  0.87067000  1.0
  Li  Li4  1  0.00000000  0.50000000  0.04591000  1.0
  Li  Li5  1  0.50000000  0.77268000  0.16995000  1.0
  Li  Li6  1  0.50000000  0.22732000  0.16995000  1.0
  Li  Li7  1  0.00000000  0.00000000  0.04206000  1.0
  In  In8  1  0.25000000  0.00000000  0.95689000  1.0
  In  In9  1  0.75000000  0.50000000  0.95689000  1.0
  In  In10  1  0.75000000  0.00000000  0.95689000  1.0
  In  In11  1  0.25000000  0.50000000  0.95689000  1.0
  In  In12  1  0.75000000  0.75000000  0.87067000  1.0
  In  In13  1  0.25000000  0.25000000  0.87067000  1.0
  In  In14  1  0.25000000  0.75000000  0.87067000  1.0
  In  In15  1  0.75000000  0.25000000  0.87067000  1.0
  In  In16  1  0.25339000  0.50000000  0.13618000  1.0
  In  In17  1  0.77421000  0.00000000  0.13225000  1.0
  In  In18  1  0.74661000  0.50000000  0.13618000  1.0
  In  In19  1  0.22579000  0.00000000  0.13225000  1.0
  In  In20  1  0.74014000  0.25141000  0.04457000  1.0
  In  In21  1  0.25986000  0.74859000  0.04457000  1.0
  In  In22  1  0.25986000  0.25141000  0.04457000  1.0
  In  In23  1  0.74014000  0.74859000  0.04457000  1.0
  Rh  Rh24  1  0.00000000  0.75000000  0.95689000  1.0
  Rh  Rh25  1  0.50000000  0.00000000  0.87067000  1.0
  Rh  Rh26  1  0.00000000  0.25000000  0.95689000  1.0
  Rh  Rh27  1  0.50000000  0.50000000  0.87067000  1.0
  Rh  Rh28  1  0.00000000  0.26108000  0.12093000  1.0
  Rh  Rh29  1  0.50000000  0.50000000  0.03908000  1.0
  Rh  Rh30  1  0.00000000  0.73892000  0.12093000  1.0
  Rh  Rh31  1  0.50000000  0.00000000  0.04197000  1.0
  C  C32  1  0.50000000  0.00000000  0.17387000  1.0
