# generated using pymatgen
data_Y8In8Au16C
_symmetry_space_group_name_H-M   P1
_cell_length_a   7.06522000
_cell_length_b   9.99173000
_cell_length_c   27.49380000
_cell_angle_alpha   90.00000000
_cell_angle_beta   90.00000000
_cell_angle_gamma   90.00000000
_symmetry_Int_Tables_number   1
_chemical_formula_structural   Y8In8Au16C
_chemical_formula_sum   'Y8 In8 Au16 C1'
_cell_volume   1940.89101096
_cell_formula_units_Z   1
loop_
 _symmetry_equiv_pos_site_id
 _symmetry_equiv_pos_as_xyz
  1  'x, y, z'
loop_
 _atom_site_type_symbol
 _atom_site_label
 _atom_site_symmetry_multiplicity
 _atom_site_fract_x
 _atom_site_fract_y
 _atom_site_fract_z
 _atom_site_occupancy
  Y  Y0  1  0.00000000  0.00000000  0.86372000  1.0
  Y  Y1  1  0.00000000  0.50000000  0.86372000  1.0
  Y  Y2  1  0.00247000  0.50046000  0.04959000  1.0
  Y  Y3  1  0.00260000  0.99951000  0.04973000  1.0
  Y  Y4  1  0.47604000  0.74917000  0.12988000  1.0
  Y  Y5  1  0.50000000  0.25000000  0.95457000  1.0
  Y  Y6  1  0.50000000  0.75000000  0.95457000  1.0
  Y  Y7  1  0.51256000  0.25060000  0.13034000  1.0
  In  In8  1  -0.00000000  0.25000000  0.95457000  1.0
  In  In9  1  -0.00000000  0.75000000  0.95457000  1.0
  In  In10  1  0.01037000  0.75031000  0.14045000  1.0
  In  In11  1  0.50000000  0.00000000  0.86372000  1.0
  In  In12  1  0.50000000  0.50000000  0.86372000  1.0
  In  In13  1  0.50235000  0.00018000  0.04460000  1.0
  In  In14  1  0.50262000  0.49973000  0.04446000  1.0
  In  In15  1  0.91774000  0.24874000  0.17508000  1.0
  Au  Au16  1  0.21905000  0.48574000  0.14357000  1.0
  Au  Au17  1  0.22348000  0.01404000  0.14322000  1.0
  Au  Au18  1  0.24357000  0.74987000  0.04167000  1.0
  Au  Au19  1  0.24564000  0.24999000  0.04435000  1.0
  Au  Au20  1  0.25000000  0.00000000  0.95457000  1.0
  Au  Au21  1  0.25000000  0.25000000  0.86372000  1.0
  Au  Au22  1  0.25000000  0.50000000  0.95457000  1.0
  Au  Au23  1  0.25000000  0.75000000  0.86372000  1.0
  Au  Au24  1  0.74569000  0.98894000  0.14017000  1.0
  Au  Au25  1  0.74777000  0.51036000  0.14042000  1.0
  Au  Au26  1  0.75000000  0.00000000  0.95457000  1.0
  Au  Au27  1  0.75000000  0.25000000  0.86372000  1.0
  Au  Au28  1  0.75000000  0.50000000  0.95457000  1.0
  Au  Au29  1  0.75000000  0.75000000  0.86372000  1.0
  Au  Au30  1  0.75334000  0.75002000  0.04588000  1.0
  Au  Au31  1  0.76824000  0.24986000  0.04269000  1.0
  C  C32  1  0.21275000  0.25208000  0.15508000  1.0
