# generated using pymatgen
data_Ni3Pt
_symmetry_space_group_name_H-M   Pm
_cell_length_a   5.20155000
_cell_length_b   7.35611000
_cell_length_c   23.90120000
_cell_angle_alpha   90.00000000
_cell_angle_beta   90.00000000
_cell_angle_gamma   90.00000000
_symmetry_Int_Tables_number   6
_chemical_formula_structural   Ni3Pt
_chemical_formula_sum   'Ni12 Pt4'
_cell_volume   914.53577370
_cell_formula_units_Z   4
loop_
 _symmetry_equiv_pos_site_id
 _symmetry_equiv_pos_as_xyz
  1  'x, y, z'
  2  'x, -y, z'
loop_
 _atom_site_type_symbol
 _atom_site_label
 _atom_site_symmetry_multiplicity
 _atom_site_fract_x
 _atom_site_fract_y
 _atom_site_fract_z
 _atom_site_occupancy
  Ni  Ni0  2  0.50000000  0.25000000  0.08161000  1.0
  Ni  Ni1  2  0.99998000  0.24995000  0.97061000  1.0
  Ni  Ni2  1  0.24240000  0.50000000  0.92288000  1.0
  Ni  Ni3  1  0.24242000  0.00000000  0.92285000  1.0
  Ni  Ni4  1  0.25000000  0.00000000  0.02720000  1.0
  Ni  Ni5  1  0.25000000  0.50000000  0.02720000  1.0
  Ni  Ni6  1  0.75000000  0.00000000  0.02720000  1.0
  Ni  Ni7  1  0.75000000  0.50000000  0.02720000  1.0
  Ni  Ni8  1  0.75736000  0.00000000  0.92276000  1.0
  Ni  Ni9  1  0.75756000  0.50000000  0.92280000  1.0
  Pt  Pt10  2  0.00000000  0.25000000  0.08161000  1.0
  Pt  Pt11  2  0.49998000  0.24985000  0.97053000  1.0
