data_image0
_chemical_formula_structural       Li8Al8Ni8Pd8CO
_chemical_formula_sum              "Li8 Al8 Ni8 Pd8 C1 O1"
_cell_length_a       5.9124
_cell_length_b       8.3614
_cell_length_c       26.2711
_cell_angle_alpha    90
_cell_angle_beta     90
_cell_angle_gamma    90

_space_group_name_H-M_alt    "P 1"
_space_group_IT_number       1

loop_
  _space_group_symop_operation_xyz
  'x, y, z'

loop_
  _atom_site_type_symbol
  _atom_site_label
  _atom_site_symmetry_multiplicity
  _atom_site_fract_x
  _atom_site_fract_y
  _atom_site_fract_z
  _atom_site_occupancy
  Li  Li1       1.0  0.00000  0.25000  0.96022  1.0000
  Li  Li2       1.0  0.00000  0.75000  0.96022  1.0000
  Li  Li3       1.0  0.50000  0.50000  0.88065  1.0000
  Li  Li4       1.0  0.50000  0.00000  0.88065  1.0000
  Li  Li5       1.0  0.01578  0.74829  0.13545  1.0000
  Li  Li6       1.0  0.01578  0.25172  0.13545  1.0000
  Li  Li7       1.0  0.50283  1.00000  0.03850  1.0000
  Li  Li8       1.0  0.50555  0.50000  0.03733  1.0000
  Al  Al1       1.0  0.00000  0.00000  0.88065  1.0000
  Al  Al2       1.0  0.00000  0.50000  0.88065  1.0000
  Al  Al3       1.0  0.50000  0.75000  0.96022  1.0000
  Al  Al4       1.0  0.50000  0.25000  0.96022  1.0000
  Al  Al5       1.0  0.00404  0.50000  0.03942  1.0000
  Al  Al6       1.0  0.00181  0.99999  0.03890  1.0000
  Al  Al7       1.0  0.50608  0.25185  0.11736  1.0000
  Al  Al8       1.0  0.50610  0.74817  0.11737  1.0000
  Ni  Ni1       1.0  0.25000  0.00000  0.96022  1.0000
  Ni  Ni2       1.0  0.25000  0.50000  0.96022  1.0000
  Ni  Ni3       1.0  0.75000  0.25000  0.88065  1.0000
  Ni  Ni4       1.0  0.75000  0.75000  0.88065  1.0000
  Ni  Ni5       1.0  0.27521  0.49998  0.11196  1.0000
  Ni  Ni6       1.0  0.26370  1.00000  0.11894  1.0000
  Ni  Ni7       1.0  0.75931  0.75044  0.04010  1.0000
  Ni  Ni8       1.0  0.75931  0.24958  0.04011  1.0000
  Pd  Pd1       1.0  0.75000  0.00000  0.96022  1.0000
  Pd  Pd2       1.0  0.75000  0.50000  0.96022  1.0000
  Pd  Pd3       1.0  0.25000  0.25000  0.88065  1.0000
  Pd  Pd4       1.0  0.25000  0.75000  0.88065  1.0000
  Pd  Pd5       1.0  0.74992  0.50001  0.11593  1.0000
  Pd  Pd6       1.0  0.74812  0.00001  0.11577  1.0000
  Pd  Pd7       1.0  0.24653  0.75271  0.04056  1.0000
  Pd  Pd8       1.0  0.24654  0.24729  0.04056  1.0000
  C   C1        1.0  0.19580  1.00000  0.18412  1.0000
  O   O1        1.0  0.17104  1.00000  0.22815  1.0000
