# generated using pymatgen
data_Li8Al8Ni8Pd8CO
_symmetry_space_group_name_H-M   'P 1'
_cell_length_a   8.36140000
_cell_length_b   5.91240000
_cell_length_c   26.27110000
_cell_angle_alpha   90.00000000
_cell_angle_beta   90.00000000
_cell_angle_gamma   90.00000000
_symmetry_Int_Tables_number   1
_chemical_formula_structural   Li8Al8Ni8Pd8CO
_chemical_formula_sum   'Li8 Al8 Ni8 Pd8 C1 O1'
_cell_volume   1298.73655906
_cell_formula_units_Z   1
loop_
 _symmetry_equiv_pos_site_id
 _symmetry_equiv_pos_as_xyz
  1  'x, y, z'
loop_
 _atom_site_type_symbol
 _atom_site_label
 _atom_site_symmetry_multiplicity
 _atom_site_fract_x
 _atom_site_fract_y
 _atom_site_fract_z
 _atom_site_occupancy
  Li  Li0  1  0.25000000  0.00000000  0.03978000  1.0
  Li  Li1  1  0.75000000  0.00000000  0.03978000  1.0
  Li  Li2  1  0.50000000  0.50000000  0.11935000  1.0
  Li  Li3  1  0.00000000  0.50000000  0.11935000  1.0
  Li  Li4  1  0.74829000  0.01578000  0.86455000  1.0
  Li  Li5  1  0.25171000  0.01578000  0.86455000  1.0
  Li  Li6  1  0.00000000  0.50283000  0.96150000  1.0
  Li  Li7  1  0.50000000  0.50555000  0.96267000  1.0
  Al  Al8  1  0.00000000  0.00000000  0.11935000  1.0
  Al  Al9  1  0.50000000  0.00000000  0.11935000  1.0
  Al  Al10  1  0.75000000  0.50000000  0.03978000  1.0
  Al  Al11  1  0.25000000  0.50000000  0.03978000  1.0
  Al  Al12  1  0.50000000  0.00404000  0.96058000  1.0
  Al  Al13  1  0.00000000  0.00181000  0.96110000  1.0
  Al  Al14  1  0.25185000  0.50608000  0.88264000  1.0
  Al  Al15  1  0.74815000  0.50608000  0.88264000  1.0
  Ni  Ni16  1  0.00000000  0.25000000  0.03978000  1.0
  Ni  Ni17  1  0.50000000  0.25000000  0.03978000  1.0
  Ni  Ni18  1  0.25000000  0.75000000  0.11935000  1.0
  Ni  Ni19  1  0.75000000  0.75000000  0.11935000  1.0
  Ni  Ni20  1  0.50000000  0.27521000  0.88804000  1.0
  Ni  Ni21  1  0.00000000  0.26370000  0.88106000  1.0
  Ni  Ni22  1  0.75044000  0.75931000  0.95990000  1.0
  Ni  Ni23  1  0.24956000  0.75931000  0.95990000  1.0
  Pd  Pd24  1  0.00000000  0.75000000  0.03978000  1.0
  Pd  Pd25  1  0.50000000  0.75000000  0.03978000  1.0
  Pd  Pd26  1  0.25000000  0.25000000  0.11935000  1.0
  Pd  Pd27  1  0.75000000  0.25000000  0.11935000  1.0
  Pd  Pd28  1  0.50000000  0.74992000  0.88407000  1.0
  Pd  Pd29  1  0.00000000  0.74812000  0.88423000  1.0
  Pd  Pd30  1  0.75271000  0.24653000  0.95944000  1.0
  Pd  Pd31  1  0.24729000  0.24653000  0.95944000  1.0
  C  C32  1  0.00000000  0.19580000  0.81588000  1.0
  O  O33  1  0.00000000  0.17104000  0.77185000  1.0
