data_image0
_chemical_formula_structural       Al4V4Ni8C
_chemical_formula_sum              "Al4 V4 Ni8 C1"
_cell_length_a       5.81764
_cell_length_b       5.81764
_cell_length_c       24.3632
_cell_angle_alpha    90
_cell_angle_beta     90
_cell_angle_gamma    90

_space_group_name_H-M_alt    "P 1"
_space_group_IT_number       1

loop_
  _space_group_symop_operation_xyz
  'x, y, z'

loop_
  _atom_site_type_symbol
  _atom_site_label
  _atom_site_symmetry_multiplicity
  _atom_site_fract_x
  _atom_site_fract_y
  _atom_site_fract_z
  _atom_site_occupancy
  Al  Al1       1.0  0.00000  0.00000  0.91045  1.0000
  Al  Al2       1.0  0.50000  0.50000  0.91045  1.0000
  Al  Al3       1.0  0.50000  0.00000  0.02985  1.0000
  Al  Al4       1.0  0.00000  0.50000  0.02985  1.0000
  V   V1        1.0  0.00000  0.00000  0.02985  1.0000
  V   V2        1.0  0.50000  0.00000  0.91045  1.0000
  V   V3        1.0  0.00000  0.50000  0.91045  1.0000
  V   V4        1.0  0.50000  0.50000  0.02985  1.0000
  Ni  Ni1       1.0  0.25000  0.25000  0.97015  1.0000
  Ni  Ni2       1.0  0.75000  0.75000  0.08955  1.0000
  Ni  Ni3       1.0  0.75000  0.25000  0.97015  1.0000
  Ni  Ni4       1.0  0.25000  0.75000  0.08955  1.0000
  Ni  Ni5       1.0  0.75000  0.75000  0.97015  1.0000
  Ni  Ni6       1.0  0.25000  0.25000  0.08955  1.0000
  Ni  Ni7       1.0  0.25000  0.75000  0.97015  1.0000
  Ni  Ni8       1.0  0.75000  0.25000  0.08955  1.0000
  C   C1        1.0  0.00000  0.00000  0.12238  1.0000
