# generated using pymatgen
data_Mn16Ga16C
_symmetry_space_group_name_H-M   'P 1'
_cell_length_a   7.35706000
_cell_length_b   7.70138000
_cell_length_c   25.77600000
_cell_angle_alpha   90.00000000
_cell_angle_beta   90.00000000
_cell_angle_gamma   90.00000000
_symmetry_Int_Tables_number   1
_chemical_formula_structural   Mn16Ga16C
_chemical_formula_sum   'Mn16 Ga16 C1'
_cell_volume   1460.45565201
_cell_formula_units_Z   1
loop_
 _symmetry_equiv_pos_site_id
 _symmetry_equiv_pos_as_xyz
  1  'x, y, z'
loop_
 _atom_site_type_symbol
 _atom_site_label
 _atom_site_symmetry_multiplicity
 _atom_site_fract_x
 _atom_site_fract_y
 _atom_site_fract_z
 _atom_site_occupancy
  Mn  Mn0  1  0.00000000  0.00000000  0.11204000  1.0
  Mn  Mn1  1  0.00000000  0.75000000  0.03735000  1.0
  Mn  Mn2  1  0.00000000  0.00000000  0.96265000  1.0
  Mn  Mn3  1  0.00000000  0.75000000  0.88796000  1.0
  Mn  Mn4  1  0.50000000  0.00000000  0.11204000  1.0
  Mn  Mn5  1  0.50000000  0.75000000  0.03735000  1.0
  Mn  Mn6  1  0.50000000  0.00000000  0.96265000  1.0
  Mn  Mn7  1  0.50000000  0.75000000  0.88796000  1.0
  Mn  Mn8  1  0.00000000  0.50000000  0.11204000  1.0
  Mn  Mn9  1  0.00000000  0.25000000  0.03735000  1.0
  Mn  Mn10  1  0.00000000  0.50000000  0.96265000  1.0
  Mn  Mn11  1  0.00000000  0.25000000  0.88796000  1.0
  Mn  Mn12  1  0.50000000  0.50000000  0.11204000  1.0
  Mn  Mn13  1  0.50000000  0.25000000  0.03735000  1.0
  Mn  Mn14  1  0.50000000  0.50000000  0.96265000  1.0
  Mn  Mn15  1  0.50000000  0.25000000  0.88796000  1.0
  Ga  Ga16  1  0.75000000  0.75000000  0.11204000  1.0
  Ga  Ga17  1  0.75000000  0.00000000  0.03735000  1.0
  Ga  Ga18  1  0.75000000  0.75000000  0.96265000  1.0
  Ga  Ga19  1  0.75000000  0.00000000  0.88796000  1.0
  Ga  Ga20  1  0.25000000  0.75000000  0.11204000  1.0
  Ga  Ga21  1  0.25000000  0.00000000  0.03735000  1.0
  Ga  Ga22  1  0.25000000  0.75000000  0.96265000  1.0
  Ga  Ga23  1  0.25000000  0.00000000  0.88796000  1.0
  Ga  Ga24  1  0.75000000  0.25000000  0.11204000  1.0
  Ga  Ga25  1  0.75000000  0.50000000  0.03735000  1.0
  Ga  Ga26  1  0.75000000  0.25000000  0.96265000  1.0
  Ga  Ga27  1  0.75000000  0.50000000  0.88796000  1.0
  Ga  Ga28  1  0.25000000  0.25000000  0.11204000  1.0
  Ga  Ga29  1  0.25000000  0.50000000  0.03735000  1.0
  Ga  Ga30  1  0.25000000  0.25000000  0.96265000  1.0
  Ga  Ga31  1  0.25000000  0.50000000  0.88796000  1.0
  C  C32  1  0.00000000  0.00000000  0.85692000  1.0
