# generated using pymatgen
data_Ta32CO
_symmetry_space_group_name_H-M   'P 1'
_cell_length_a   8.46843000
_cell_length_b   8.46843000
_cell_length_c   26.35130000
_cell_angle_alpha   90.00000000
_cell_angle_beta   90.00000000
_cell_angle_gamma   90.00000000
_symmetry_Int_Tables_number   1
_chemical_formula_structural   Ta32CO
_chemical_formula_sum   'Ta32 C1 O1'
_cell_volume   1889.76520922
_cell_formula_units_Z   1
loop_
 _symmetry_equiv_pos_site_id
 _symmetry_equiv_pos_as_xyz
  1  'x, y, z'
loop_
 _atom_site_type_symbol
 _atom_site_label
 _atom_site_symmetry_multiplicity
 _atom_site_fract_x
 _atom_site_fract_y
 _atom_site_fract_z
 _atom_site_occupancy
  Ta  Ta0  1  0.25000000  0.50000000  0.87949000  1.0
  Ta  Ta1  1  0.50000000  0.75000000  0.87949000  1.0
  Ta  Ta2  1  0.50000000  0.50000000  0.95983000  1.0
  Ta  Ta3  1  0.25000000  0.75000000  0.95983000  1.0
  Ta  Ta4  1  0.25000000  0.50000000  0.04017000  1.0
  Ta  Ta5  1  0.50000000  0.75000000  0.04017000  1.0
  Ta  Ta6  1  0.50000000  0.50000000  0.12051000  1.0
  Ta  Ta7  1  0.25000000  0.75000000  0.12051000  1.0
  Ta  Ta8  1  0.25000000  0.00000000  0.87949000  1.0
  Ta  Ta9  1  0.50000000  0.25000000  0.87949000  1.0
  Ta  Ta10  1  0.50000000  0.00000000  0.95983000  1.0
  Ta  Ta11  1  0.25000000  0.25000000  0.95983000  1.0
  Ta  Ta12  1  0.25000000  0.00000000  0.04017000  1.0
  Ta  Ta13  1  0.50000000  0.25000000  0.04017000  1.0
  Ta  Ta14  1  0.50000000  0.00000000  0.12051000  1.0
  Ta  Ta15  1  0.25000000  0.25000000  0.12051000  1.0
  Ta  Ta16  1  0.75000000  0.50000000  0.87949000  1.0
  Ta  Ta17  1  0.00000000  0.75000000  0.87949000  1.0
  Ta  Ta18  1  0.00000000  0.50000000  0.95983000  1.0
  Ta  Ta19  1  0.75000000  0.75000000  0.95983000  1.0
  Ta  Ta20  1  0.75000000  0.50000000  0.04017000  1.0
  Ta  Ta21  1  0.00000000  0.75000000  0.04017000  1.0
  Ta  Ta22  1  0.00000000  0.50000000  0.12051000  1.0
  Ta  Ta23  1  0.75000000  0.75000000  0.12051000  1.0
  Ta  Ta24  1  0.75000000  0.00000000  0.87949000  1.0
  Ta  Ta25  1  0.00000000  0.25000000  0.87949000  1.0
  Ta  Ta26  1  0.00000000  0.00000000  0.95983000  1.0
  Ta  Ta27  1  0.75000000  0.25000000  0.95983000  1.0
  Ta  Ta28  1  0.75000000  0.00000000  0.04017000  1.0
  Ta  Ta29  1  0.00000000  0.25000000  0.04017000  1.0
  Ta  Ta30  1  0.00000000  0.00000000  0.12051000  1.0
  Ta  Ta31  1  0.75000000  0.25000000  0.12051000  1.0
  C  C32  1  0.50000000  0.50000000  0.19262000  1.0
  O  O33  1  0.50000000  0.50000000  0.23626000  1.0
