# generated using pymatgen
data_LiMgInAg
_symmetry_space_group_name_H-M   'P 1'
_cell_length_a   6.69019000
_cell_length_b   4.73068000
_cell_length_c   27.09600000
_cell_angle_alpha   90.00000000
_cell_angle_beta   90.00000000
_cell_angle_gamma   90.00000000
_symmetry_Int_Tables_number   1
_chemical_formula_structural   LiMgInAg
_chemical_formula_sum   'Li4 Mg4 In4 Ag4'
_cell_volume   857.56531500
_cell_formula_units_Z   4
loop_
 _symmetry_equiv_pos_site_id
 _symmetry_equiv_pos_as_xyz
  1  'x, y, z'
loop_
 _atom_site_type_symbol
 _atom_site_label
 _atom_site_symmetry_multiplicity
 _atom_site_fract_x
 _atom_site_fract_y
 _atom_site_fract_z
 _atom_site_occupancy
  Li  Li0  1  0.00000000  0.50000000  0.95635000  1.0
  Li  Li1  1  0.50000000  0.00000000  0.86906000  1.0
  Li  Li2  1  0.98471500  0.50000000  0.14206500  1.0
  Li  Li3  1  0.50420500  0.00000000  0.04794000  1.0
  Mg  Mg4  1  0.25000000  0.00000000  0.95635000  1.0
  Mg  Mg5  1  0.75000000  0.50000000  0.86906000  1.0
  Mg  Mg6  1  0.25412000  0.00000000  0.13710000  1.0
  Mg  Mg7  1  0.75332500  0.50000000  0.04667000  1.0
  In  In8  1  0.75000000  0.00000000  0.95635000  1.0
  In  In9  1  0.25000000  0.50000000  0.86906000  1.0
  In  In10  1  0.75887000  0.00000000  0.14506000  1.0
  In  In11  1  0.24808000  0.50000000  0.04859500  1.0
  Ag  Ag12  1  0.00000000  0.00000000  0.86906000  1.0
  Ag  Ag13  1  0.50000000  0.50000000  0.95635000  1.0
  Ag  Ag14  1  0.99379000  0.00000000  0.04571000  1.0
  Ag  Ag15  1  0.51036500  0.50000000  0.13300000  1.0
