# generated using pymatgen
data_Fe8Co16Si8CO
_symmetry_space_group_name_H-M   Pm
_cell_length_a   5.64511000
_cell_length_b   7.98338000
_cell_length_c   25.98750000
_cell_angle_alpha   90.00000000
_cell_angle_beta   90.00000000
_cell_angle_gamma   90.00000000
_symmetry_Int_Tables_number   6
_chemical_formula_structural   Fe8Co16Si8CO
_chemical_formula_sum   'Fe8 Co16 Si8 C1 O1'
_cell_volume   1171.18017684
_cell_formula_units_Z   1
loop_
 _symmetry_equiv_pos_site_id
 _symmetry_equiv_pos_as_xyz
  1  'x, y, z'
  2  'x, -y, z'
loop_
 _atom_site_type_symbol
 _atom_site_label
 _atom_site_symmetry_multiplicity
 _atom_site_fract_x
 _atom_site_fract_y
 _atom_site_fract_z
 _atom_site_occupancy
  Fe  Fe0  2  0.50000000  0.24999000  0.96160000  1.0
  Fe  Fe1  2  0.50747000  0.25672000  0.11788000  1.0
  Fe  Fe2  1  0.00000000  0.00000000  0.88480000  1.0
  Fe  Fe3  1  0.00000000  0.50000000  0.88480000  1.0
  Fe  Fe4  1  0.00107000  0.50000000  0.03696000  1.0
  Fe  Fe5  1  0.00175000  0.00000000  0.03846000  1.0
  Co  Co6  2  0.25000000  0.24999000  0.88480000  1.0
  Co  Co7  2  0.25074000  0.24851000  0.03810000  1.0
  Co  Co8  2  0.74749000  0.24966000  0.03762000  1.0
  Co  Co9  2  0.75000000  0.25001000  0.88480000  1.0
  Co  Co10  1  0.23974000  0.50000000  0.11079000  1.0
  Co  Co11  1  0.25000000  0.00000000  0.96160000  1.0
  Co  Co12  1  0.25000000  0.50000000  0.96160000  1.0
  Co  Co13  1  0.25888000  0.00000000  0.11422000  1.0
  Co  Co14  1  0.74881000  0.00000000  0.11042000  1.0
  Co  Co15  1  0.75000000  0.00000000  0.96160000  1.0
  Co  Co16  1  0.75000000  0.50000000  0.96160000  1.0
  Co  Co17  1  0.76064000  0.50000000  0.11031000  1.0
  Si  Si18  2  0.00000000  0.25001000  0.96160000  1.0
  Si  Si19  2  0.99885000  0.24724000  0.11483000  1.0
  Si  Si20  1  0.49943000  0.50000000  0.03904000  1.0
  Si  Si21  1  0.50000000  0.00000000  0.88480000  1.0
  Si  Si22  1  0.50000000  0.50000000  0.88480000  1.0
  Si  Si23  1  0.50036000  0.00000000  0.03799000  1.0
  C  C24  1  0.41605000  0.00000000  0.17418000  1.0
  O  O25  1  0.46488000  0.00000000  0.21798000  1.0
