# generated using pymatgen
data_Li4Cu4Sn4Ge4CO
_symmetry_space_group_name_H-M   'P 1'
_cell_length_a   6.57410000
_cell_length_b   6.57410000
_cell_length_c   24.93060000
_cell_angle_alpha   90.00000000
_cell_angle_beta   90.00000000
_cell_angle_gamma   90.00000000
_symmetry_Int_Tables_number   1
_chemical_formula_structural   Li4Cu4Sn4Ge4CO
_chemical_formula_sum   'Li4 Cu4 Sn4 Ge4 C1 O1'
_cell_volume   1077.47038617
_cell_formula_units_Z   1
loop_
 _symmetry_equiv_pos_site_id
 _symmetry_equiv_pos_as_xyz
  1  'x, y, z'
loop_
 _atom_site_type_symbol
 _atom_site_label
 _atom_site_symmetry_multiplicity
 _atom_site_fract_x
 _atom_site_fract_y
 _atom_site_fract_z
 _atom_site_occupancy
  Li  Li0  1  0.50000000  0.50000000  0.10197000  1
  Li  Li1  1  0.00000000  0.50000000  0.96704000  1
  Li  Li2  1  0.50000000  0.00000000  0.96704000  1
  Li  Li3  1  0.00000000  0.00000000  0.10146000  1
  Cu  Cu4  1  0.00000000  0.50000000  0.07705000  1
  Cu  Cu5  1  0.50000000  0.50000000  0.96704000  1
  Cu  Cu6  1  0.00000000  0.00000000  0.96704000  1
  Cu  Cu7  1  0.50000000  0.00000000  0.07705000  1
  Sn  Sn8  1  0.74937500  0.25062500  0.03031000  1
  Sn  Sn9  1  0.24999500  0.24999500  0.90111000  1
  Sn  Sn10  1  0.75000500  0.75000500  0.90111000  1
  Sn  Sn11  1  0.25062500  0.74937500  0.03031000  1
  Ge  Ge12  1  0.75297500  0.75297500  0.03522000  1
  Ge  Ge13  1  0.25000500  0.74999500  0.90111000  1
  Ge  Ge14  1  0.74999500  0.25000500  0.90111000  1
  Ge  Ge15  1  0.24702500  0.24702500  0.03522000  1
  C  C16  1  0.50000000  0.50000000  0.18708000  1
  O  O17  1  0.50000000  0.50000000  0.23282000  1
