# generated using pymatgen
data_Li8In4Pd4CO
_symmetry_space_group_name_H-M   'P 1'
_cell_length_a   6.46446000
_cell_length_b   6.46446000
_cell_length_c   24.84830000
_cell_angle_alpha   90.00000000
_cell_angle_beta   90.00000000
_cell_angle_gamma   90.00000000
_symmetry_Int_Tables_number   1
_chemical_formula_structural   Li8In4Pd4CO
_chemical_formula_sum   'Li8 In4 Pd4 C1 O1'
_cell_volume   1038.39164911
_cell_formula_units_Z   1
loop_
 _symmetry_equiv_pos_site_id
 _symmetry_equiv_pos_as_xyz
  1  'x, y, z'
loop_
 _atom_site_type_symbol
 _atom_site_label
 _atom_site_symmetry_multiplicity
 _atom_site_fract_x
 _atom_site_fract_y
 _atom_site_fract_z
 _atom_site_occupancy
  Li  Li0  1  0.00000000  0.00000000  0.96748000  1
  Li  Li1  1  0.00000000  0.50000000  0.11148000  1
  Li  Li2  1  0.50000000  0.00000000  0.11148000  1
  Li  Li3  1  0.50000000  0.50000000  0.96748000  1
  Li  Li4  1  0.74999000  0.25001000  0.90244000  1
  Li  Li5  1  0.25063500  0.25063500  0.03489000  1
  Li  Li6  1  0.25001000  0.74999000  0.90244000  1
  Li  Li7  1  0.74936500  0.74936500  0.03489000  1
  In  In8  1  0.75528000  0.24472000  0.03370000  1
  In  In9  1  0.24999000  0.24999000  0.90244000  1
  In  In10  1  0.24472000  0.75528000  0.03370000  1
  In  In11  1  0.75001000  0.75001000  0.90244000  1
  Pd  Pd12  1  0.00000000  0.00000000  0.10072000  1
  Pd  Pd13  1  0.50000000  0.50000000  0.08943000  1
  Pd  Pd14  1  0.00000000  0.50000000  0.96748000  1
  Pd  Pd15  1  0.50000000  0.00000000  0.96748000  1
  C  C16  1  0.00000000  0.00000000  0.17910000  1
  O  O17  1  0.00000000  0.00000000  0.22569000  1
