# generated using pymatgen
data_Cu12Au4CO
_symmetry_space_group_name_H-M   'P 1'
_cell_length_a   7.64441000
_cell_length_b   5.40542000
_cell_length_c   24.05410000
_cell_angle_alpha   90.00000000
_cell_angle_beta   90.00000000
_cell_angle_gamma   90.00000000
_symmetry_Int_Tables_number   1
_chemical_formula_structural   Cu12Au4CO
_chemical_formula_sum   'Cu12 Au4 C1 O1'
_cell_volume   993.94540030
_cell_formula_units_Z   1
loop_
 _symmetry_equiv_pos_site_id
 _symmetry_equiv_pos_as_xyz
  1  'x, y, z'
loop_
 _atom_site_type_symbol
 _atom_site_label
 _atom_site_symmetry_multiplicity
 _atom_site_fract_x
 _atom_site_fract_y
 _atom_site_fract_z
 _atom_site_occupancy
  Cu  Cu0  1  0.75000000  0.50000000  0.91573000  1.0
  Cu  Cu1  1  0.50000000  0.25000000  0.97191000  1.0
  Cu  Cu2  1  0.50000000  0.75000000  0.97191000  1.0
  Cu  Cu3  1  0.74846000  0.99878000  0.03016000  1.0
  Cu  Cu4  1  0.50000000  0.76215000  0.08325000  1.0
  Cu  Cu5  1  0.50000000  0.23285000  0.07631000  1.0
  Cu  Cu6  1  0.25000000  0.50000000  0.91573000  1.0
  Cu  Cu7  1  0.00000000  0.25000000  0.97191000  1.0
  Cu  Cu8  1  0.00000000  0.75000000  0.97191000  1.0
  Cu  Cu9  1  0.25154000  0.99878000  0.03016000  1.0
  Cu  Cu10  1  0.00000000  0.76985000  0.07716000  1.0
  Cu  Cu11  1  0.00000000  0.23158000  0.07705000  1.0
  Au  Au12  1  0.75000000  0.00000000  0.91573000  1.0
  Au  Au13  1  0.75083000  0.50084000  0.03149000  1.0
  Au  Au14  1  0.25000000  0.00000000  0.91573000  1.0
  Au  Au15  1  0.24917000  0.50084000  0.03149000  1.0
  C  C16  1  0.50000000  0.75734000  0.16069000  1.0
  O  O17  1  0.50000000  0.75179000  0.20835000  1.0
