# generated using pymatgen
data_Y8In8Pd16C
_symmetry_space_group_name_H-M   'P 1'
_cell_length_a   6.85111000
_cell_length_b   9.68893000
_cell_length_c   27.26670000
_cell_angle_alpha   90.00000000
_cell_angle_beta   90.00000000
_cell_angle_gamma   90.00000000
_symmetry_Int_Tables_number   1
_chemical_formula_structural   Y8In8Pd16C
_chemical_formula_sum   'Y8 In8 Pd16 C1'
_cell_volume   1809.96150679
_cell_formula_units_Z   1
loop_
 _symmetry_equiv_pos_site_id
 _symmetry_equiv_pos_as_xyz
  1  'x, y, z'
loop_
 _atom_site_type_symbol
 _atom_site_label
 _atom_site_symmetry_multiplicity
 _atom_site_fract_x
 _atom_site_fract_y
 _atom_site_fract_z
 _atom_site_occupancy
  Y  Y0  1  0.00000000  0.00000000  0.86675000  1.0
  Y  Y1  1  0.50000000  0.25000000  0.95558000  1.0
  Y  Y2  1  0.50000000  0.75000000  0.95558000  1.0
  Y  Y3  1  1.00000000  0.50000000  0.86675000  1.0
  Y  Y4  1  0.00414000  0.50417000  0.04407000  1.0
  Y  Y5  1  0.49199000  0.75000000  0.13498000  1.0
  Y  Y6  1  0.53608000  0.24999000  0.13703000  1.0
  Y  Y7  1  0.00414000  0.99583000  0.04407000  1.0
  In  In8  1  1.00000000  0.75000000  0.95558000  1.0
  In  In9  1  0.50000000  0.00000000  0.86675000  1.0
  In  In10  1  1.00000000  0.25000000  0.95558000  1.0
  In  In11  1  0.50000000  0.50000000  0.86675000  1.0
  In  In12  1  0.96440000  0.24999000  0.12917000  1.0
  In  In13  1  0.49828000  0.49727000  0.04791000  1.0
  In  In14  1  0.01458000  0.75000000  0.13519000  1.0
  In  In15  1  0.49828000  0.00273000  0.04791000  1.0
  Pd  Pd16  1  0.25000000  0.00000000  0.95558000  1.0
  Pd  Pd17  1  0.75000000  0.50000000  0.95558000  1.0
  Pd  Pd18  1  0.75000000  0.00000000  0.95558000  1.0
  Pd  Pd19  1  0.25000000  0.50000000  0.95558000  1.0
  Pd  Pd20  1  0.75000000  0.75000000  0.86675000  1.0
  Pd  Pd21  1  0.25000000  0.25000000  0.86675000  1.0
  Pd  Pd22  1  0.25000000  0.75000000  0.86675000  1.0
  Pd  Pd23  1  0.75000000  0.25000000  0.86675000  1.0
  Pd  Pd24  1  0.23211000  0.48124000  0.13252000  1.0
  Pd  Pd25  1  0.76382000  0.98389000  0.12832000  1.0
  Pd  Pd26  1  0.76382000  0.51610000  0.12832000  1.0
  Pd  Pd27  1  0.23211000  0.01875000  0.13252000  1.0
  Pd  Pd28  1  0.74842000  0.25000000  0.04048000  1.0
  Pd  Pd29  1  0.26723000  0.75000000  0.04601000  1.0
  Pd  Pd30  1  0.26002000  0.25000000  0.04792000  1.0
  Pd  Pd31  1  0.73966000  0.75000000  0.04755000  1.0
  C  C32  1  0.23583000  0.25005000  0.16345000  1.0
