# generated using pymatgen
data_Y4Sc4Ga4Pd4CO
_symmetry_space_group_name_H-M   'P 1'
_cell_length_a   7.06732000
_cell_length_b   6.83834000
_cell_length_c   25.12490000
_cell_angle_alpha   90.00000000
_cell_angle_beta   90.00000000
_cell_angle_gamma   90.00000000
_symmetry_Int_Tables_number   1
_chemical_formula_structural   Y4Sc4Ga4Pd4CO
_chemical_formula_sum   'Y4 Sc4 Ga4 Pd4 C1 O1'
_cell_volume   1214.25468548
_cell_formula_units_Z   1
loop_
 _symmetry_equiv_pos_site_id
 _symmetry_equiv_pos_as_xyz
  1  'x, y, z'
loop_
 _atom_site_type_symbol
 _atom_site_label
 _atom_site_symmetry_multiplicity
 _atom_site_fract_x
 _atom_site_fract_y
 _atom_site_fract_z
 _atom_site_occupancy
  Y  Y0  1  0.50000000  0.25967000  0.96600000  1.0
  Y  Y1  1  0.50000000  0.77099000  0.10702000  1.0
  Y  Y2  1  0.00000000  0.25967000  0.96600000  1.0
  Y  Y3  1  0.00000000  0.77282000  0.10807000  1.0
  Sc  Sc4  1  0.50000000  0.75967000  0.96600000  1.0
  Sc  Sc5  1  0.50000000  0.25435000  0.09389000  1.0
  Sc  Sc6  1  0.00000000  0.75967000  0.96600000  1.0
  Sc  Sc7  1  0.00000000  0.25867000  0.09262000  1.0
  Ga  Ga8  1  0.75001000  0.00000000  0.89801000  1.0
  Ga  Ga9  1  0.75077000  0.52319000  0.04117000  1.0
  Ga  Ga10  1  0.24999000  0.00000000  0.89801000  1.0
  Ga  Ga11  1  0.24923000  0.52319000  0.04117000  1.0
  Pd  Pd12  1  0.75001000  0.50000000  0.89801000  1.0
  Pd  Pd13  1  0.75570000  0.98935000  0.03633000  1.0
  Pd  Pd14  1  0.24999000  0.50000000  0.89801000  1.0
  Pd  Pd15  1  0.24430000  0.98935000  0.03633000  1.0
  C  C16  1  0.50000000  0.77789000  0.20492000  1.0
  O  O17  1  0.50000000  0.78184000  0.25093000  1.0
