# generated using pymatgen
data_V4Rh12CO
_symmetry_space_group_name_H-M   Pmm2
_cell_length_a   5.40157000
_cell_length_b   7.63897000
_cell_length_c   24.05120000
_cell_angle_alpha   90.00000000
_cell_angle_beta   90.00000000
_cell_angle_gamma   90.00000000
_symmetry_Int_Tables_number   25
_chemical_formula_structural   V4Rh12CO
_chemical_formula_sum   'V4 Rh12 C1 O1'
_cell_volume   992.41098487
_cell_formula_units_Z   1
loop_
 _symmetry_equiv_pos_site_id
 _symmetry_equiv_pos_as_xyz
  1  'x, y, z'
  2  '-x, -y, z'
  3  '-x, y, z'
  4  'x, -y, z'
loop_
 _atom_site_type_symbol
 _atom_site_label
 _atom_site_symmetry_multiplicity
 _atom_site_fract_x
 _atom_site_fract_y
 _atom_site_fract_z
 _atom_site_occupancy
  V  V0  1  0.00000000  0.00000000  0.93019000  1.0
  V  V1  1  0.00000000  0.50000000  0.92773000  1.0
  V  V2  1  0.50000000  0.00000000  0.02807000  1.0
  V  V3  1  0.50000000  0.50000000  0.02807000  1.0
  Rh  Rh4  4  0.24923000  0.25471000  0.96864000  1.0
  Rh  Rh5  4  0.25000000  0.24999000  0.08422000  1.0
  Rh  Rh6  1  0.00000000  0.00000000  0.02807000  1.0
  Rh  Rh7  1  0.00000000  0.50000000  0.02807000  1.0
  Rh  Rh8  1  0.50000000  0.00000000  0.92190000  1.0
  Rh  Rh9  1  0.50000000  0.50000000  0.91104000  1.0
  C  C10  1  0.50000000  0.50000000  0.83324000  1.0
  O  O11  1  0.50000000  0.50000000  0.78497000  1.0
