# generated using pymatgen
data_Zr4In4Ni8CO
_symmetry_space_group_name_H-M   P1
_cell_length_a   6.34847000
_cell_length_b   6.34847000
_cell_length_c   24.76130000
_cell_angle_alpha   90.00000000
_cell_angle_beta   90.00000000
_cell_angle_gamma   90.00000000
_symmetry_Int_Tables_number   1
_chemical_formula_structural   Zr4In4Ni8CO
_chemical_formula_sum   'Zr4 In4 Ni8 C1 O1'
_cell_volume   997.95644039
_cell_formula_units_Z   1
loop_
 _symmetry_equiv_pos_site_id
 _symmetry_equiv_pos_as_xyz
  1  'x, y, z'
loop_
 _atom_site_type_symbol
 _atom_site_label
 _atom_site_symmetry_multiplicity
 _atom_site_fract_x
 _atom_site_fract_y
 _atom_site_fract_z
 _atom_site_occupancy
  Zr  Zr0  1  0.00000000  0.50000000  0.96795000  1.0
  Zr  Zr1  1  0.00002000  0.00011000  0.09429000  1.0
  Zr  Zr2  1  0.50000000  0.00000000  0.96795000  1.0
  Zr  Zr3  1  0.50015000  0.49992000  0.09430000  1.0
  In  In4  1  0.00000000  0.00000000  0.96795000  1.0
  In  In5  1  0.00016000  0.49996000  0.10298000  1.0
  In  In6  1  0.50000000  0.50000000  0.96795000  1.0
  In  In7  1  0.50017000  0.99986000  0.10328000  1.0
  Ni  Ni8  1  0.24961000  0.74965000  0.03568000  1.0
  Ni  Ni9  1  0.24969000  0.25029000  0.03567000  1.0
  Ni  Ni10  1  0.25000000  0.25000000  0.90386000  1.0
  Ni  Ni11  1  0.25000000  0.75000000  0.90386000  1.0
  Ni  Ni12  1  0.75000000  0.25000000  0.90386000  1.0
  Ni  Ni13  1  0.75000000  0.75000000  0.90386000  1.0
  Ni  Ni14  1  0.75042000  0.25046000  0.03565000  1.0
  Ni  Ni15  1  0.75061000  0.74941000  0.03570000  1.0
  C  C16  1  0.00471000  0.50311000  0.28662000  1.0
  O  O17  1  0.99764000  0.49770000  0.33238000  1.0
