data_image0
_chemical_formula_structural       Nb4Rh12C
_chemical_formula_sum              "Nb4 Rh12 C1"
_cell_length_a       7.81819
_cell_length_b       5.5283
_cell_length_c       24.1462
_cell_angle_alpha    90
_cell_angle_beta     90
_cell_angle_gamma    90

_space_group_name_H-M_alt    "P 1"
_space_group_IT_number       1

loop_
  _space_group_symop_operation_xyz
  'x, y, z'

loop_
  _atom_site_type_symbol
  _atom_site_label
  _atom_site_symmetry_multiplicity
  _atom_site_fract_x
  _atom_site_fract_y
  _atom_site_fract_z
  _atom_site_occupancy
  Nb  Nb1       1.0  0.01658  0.99400  0.07770  1.0000
  Nb  Nb2       1.0  0.00000  0.50000  0.97138  1.0000
  Nb  Nb3       1.0  0.48343  0.99400  0.07770  1.0000
  Nb  Nb4       1.0  0.50000  0.50000  0.97138  1.0000
  Rh  Rh1       1.0  0.02633  0.47952  0.08341  1.0000
  Rh  Rh2       1.0  0.25001  0.74822  0.02572  1.0000
  Rh  Rh3       1.0  0.25001  0.24327  0.02196  1.0000
  Rh  Rh4       1.0  0.00000  0.00000  0.97138  1.0000
  Rh  Rh5       1.0  0.25000  0.25000  0.91414  1.0000
  Rh  Rh6       1.0  0.25000  0.75000  0.91414  1.0000
  Rh  Rh7       1.0  0.47367  0.47952  0.08341  1.0000
  Rh  Rh8       1.0  0.74995  0.74280  0.03722  1.0000
  Rh  Rh9       1.0  0.74998  0.23995  0.03837  1.0000
  Rh  Rh10      1.0  0.50000  0.00000  0.97138  1.0000
  Rh  Rh11      1.0  0.75000  0.25000  0.91414  1.0000
  Rh  Rh12      1.0  0.75000  0.75000  0.91414  1.0000
  C   C1        1.0  0.24999  0.25850  0.10405  1.0000
