# generated using pymatgen
data_Nb4Rh12C
_symmetry_space_group_name_H-M   Pm
_cell_length_a   5.52830000
_cell_length_b   7.81819000
_cell_length_c   24.14620000
_cell_angle_alpha   90.00000000
_cell_angle_beta   90.00000000
_cell_angle_gamma   90.00000000
_symmetry_Int_Tables_number   6
_chemical_formula_structural   Nb4Rh12C
_chemical_formula_sum   'Nb4 Rh12 C1'
_cell_volume   1043.63014868
_cell_formula_units_Z   1
loop_
 _symmetry_equiv_pos_site_id
 _symmetry_equiv_pos_as_xyz
  1  'x, y, z'
  2  'x, -y, z'
loop_
 _atom_site_type_symbol
 _atom_site_label
 _atom_site_symmetry_multiplicity
 _atom_site_fract_x
 _atom_site_fract_y
 _atom_site_fract_z
 _atom_site_occupancy
  Nb  Nb0  2  0.00600000  0.26659000  0.92230000  1.0
  Nb  Nb1  2  0.50000000  0.25001000  0.02862000  1.0
  Rh  Rh2  2  0.00000000  0.25001000  0.02862000  1.0
  Rh  Rh3  2  0.52048000  0.27634000  0.91659000  1.0
  Rh  Rh4  1  0.25000000  0.00000000  0.08586000  1.0
  Rh  Rh5  1  0.25000000  0.50000000  0.08586000  1.0
  Rh  Rh6  1  0.25178000  0.50000000  0.97428000  1.0
  Rh  Rh7  1  0.25720000  0.00000000  0.96278000  1.0
  Rh  Rh8  1  0.75000000  0.00000000  0.08586000  1.0
  Rh  Rh9  1  0.75000000  0.50000000  0.08586000  1.0
  Rh  Rh10  1  0.75673000  0.50000000  0.97804000  1.0
  Rh  Rh11  1  0.76005000  0.00000000  0.96163000  1.0
  C  C12  1  0.74150000  0.50000000  0.89595000  1.0
