# generated using pymatgen
data_Li8Nb8Al8Pd8CO
_symmetry_space_group_name_H-M   P1
_cell_length_a   6.26744000
_cell_length_b   8.86350000
_cell_length_c   26.64760000
_cell_angle_alpha   90.00000000
_cell_angle_beta   90.00000000
_cell_angle_gamma   90.00000000
_symmetry_Int_Tables_number   1
_chemical_formula_structural   Li8Nb8Al8Pd8CO
_chemical_formula_sum   'Li8 Nb8 Al8 Pd8 C1 O1'
_cell_volume   1480.31293734
_cell_formula_units_Z   1
loop_
 _symmetry_equiv_pos_site_id
 _symmetry_equiv_pos_as_xyz
  1  'x, y, z'
loop_
 _atom_site_type_symbol
 _atom_site_label
 _atom_site_symmetry_multiplicity
 _atom_site_fract_x
 _atom_site_fract_y
 _atom_site_fract_z
 _atom_site_occupancy
  Li  Li0  1  0.23870000  0.49458000  0.14133000  1.0
  Li  Li1  1  0.25000000  0.00000000  0.95842000  1.0
  Li  Li2  1  0.25000000  0.50000000  0.95842000  1.0
  Li  Li3  1  0.43657000  0.98272000  0.19579000  1.0
  Li  Li4  1  0.75000000  0.25000000  0.87527000  1.0
  Li  Li5  1  0.75000000  0.75000000  0.87527000  1.0
  Li  Li6  1  0.75566000  0.75916000  0.04701000  1.0
  Li  Li7  1  0.77832000  0.24031000  0.04813000  1.0
  Nb  Nb8  1  0.00000000  0.25000000  0.95842000  1.0
  Nb  Nb9  1  0.00000000  0.75000000  0.95842000  1.0
  Nb  Nb10  1  0.09731000  0.83100000  0.12808000  1.0
  Nb  Nb11  1  0.13808000  0.14138000  0.12771000  1.0
  Nb  Nb12  1  0.42617000  0.00125000  0.06649000  1.0
  Nb  Nb13  1  0.50000000  0.00000000  0.87527000  1.0
  Nb  Nb14  1  0.50000000  0.50000000  0.87527000  1.0
  Nb  Nb15  1  0.50020000  0.49819000  0.04406000  1.0
  Al  Al16  1  0.00000000  0.00000000  0.87527000  1.0
  Al  Al17  1  0.00000000  0.50000000  0.87527000  1.0
  Al  Al18  1  0.00486000  0.50424000  0.04184000  1.0
  Al  Al19  1  0.50000000  0.25000000  0.95842000  1.0
  Al  Al20  1  0.50000000  0.75000000  0.95842000  1.0
  Al  Al21  1  0.51659000  0.73625000  0.12601000  1.0
  Al  Al22  1  0.54022000  0.26649000  0.12503000  1.0
  Al  Al23  1  0.99059000  0.99551000  0.03763000  1.0
  Pd  Pd24  1  0.24474000  0.26445000  0.03600000  1.0
  Pd  Pd25  1  0.25000000  0.25000000  0.87527000  1.0
  Pd  Pd26  1  0.25000000  0.75000000  0.87527000  1.0
  Pd  Pd27  1  0.25355000  0.73694000  0.03430000  1.0
  Pd  Pd28  1  0.73682000  0.00235000  0.12550000  1.0
  Pd  Pd29  1  0.75000000  0.00000000  0.95842000  1.0
  Pd  Pd30  1  0.75000000  0.50000000  0.95842000  1.0
  Pd  Pd31  1  0.76909000  0.50824000  0.12002000  1.0
  C  C32  1  0.09338000  0.96855000  0.18644000  1.0
  O  O33  1  0.15384000  0.08747000  0.21063000  1.0
