data_image0
_chemical_formula_structural       Li8Al8Co8Pd8C
_chemical_formula_sum              "Li8 Al8 Co8 Pd8 C1"
_cell_length_a       5.87254
_cell_length_b       8.30502
_cell_length_c       26.2288
_cell_angle_alpha    90
_cell_angle_beta     90
_cell_angle_gamma    90

_space_group_name_H-M_alt    "P 1"
_space_group_IT_number       1

loop_
  _space_group_symop_operation_xyz
  'x, y, z'

loop_
  _atom_site_type_symbol
  _atom_site_label
  _atom_site_symmetry_multiplicity
  _atom_site_fract_x
  _atom_site_fract_y
  _atom_site_fract_z
  _atom_site_occupancy
  Li  Li1       1.0  0.00000  0.25000  0.96042  1.0000
  Li  Li2       1.0  0.00000  0.75000  0.96042  1.0000
  Li  Li3       1.0  0.50000  0.50000  0.88126  1.0000
  Li  Li4       1.0  0.50000  0.00000  0.88126  1.0000
  Li  Li5       1.0  0.00663  0.74988  0.13779  1.0000
  Li  Li6       1.0  0.93886  0.24991  0.13712  1.0000
  Li  Li7       1.0  0.49344  0.00023  0.03911  1.0000
  Li  Li8       1.0  0.49342  0.49973  0.03921  1.0000
  Al  Al1       1.0  0.00000  0.00000  0.88126  1.0000
  Al  Al2       1.0  0.00000  0.50000  0.88126  1.0000
  Al  Al3       1.0  0.50000  0.75000  0.96042  1.0000
  Al  Al4       1.0  0.50000  0.25000  0.96042  1.0000
  Al  Al5       1.0  0.00584  0.50439  0.03904  1.0000
  Al  Al6       1.0  0.00576  0.99558  0.03906  1.0000
  Al  Al7       1.0  0.54792  0.24990  0.11593  1.0000
  Al  Al8       1.0  0.48341  0.75002  0.11712  1.0000
  Co  Co1       1.0  0.75000  0.00000  0.96042  1.0000
  Co  Co2       1.0  0.75000  0.50000  0.96042  1.0000
  Co  Co3       1.0  0.25000  0.25000  0.88126  1.0000
  Co  Co4       1.0  0.25000  0.75000  0.88126  1.0000
  Co  Co5       1.0  0.74238  0.51378  0.11334  1.0000
  Co  Co6       1.0  0.74223  0.98665  0.11342  1.0000
  Co  Co7       1.0  0.24287  0.75020  0.04097  1.0000
  Co  Co8       1.0  0.24173  0.24983  0.04397  1.0000
  Pd  Pd1       1.0  0.25000  0.00000  0.96042  1.0000
  Pd  Pd2       1.0  0.25000  0.50000  0.96042  1.0000
  Pd  Pd3       1.0  0.75000  0.25000  0.88126  1.0000
  Pd  Pd4       1.0  0.75000  0.75000  0.88126  1.0000
  Pd  Pd5       1.0  0.24071  0.48814  0.12011  1.0000
  Pd  Pd6       1.0  0.24062  0.01174  0.12011  1.0000
  Pd  Pd7       1.0  0.74769  0.75006  0.03959  1.0000
  Pd  Pd8       1.0  0.76301  0.24987  0.03758  1.0000
  C   C1        1.0  0.25128  0.24998  0.14321  1.0000
