# generated using pymatgen
data_Li8Al8Co8Pd8C
_symmetry_space_group_name_H-M   'P 1'
_cell_length_a   5.87254000
_cell_length_b   8.30502000
_cell_length_c   26.22880000
_cell_angle_alpha   90.00000000
_cell_angle_beta   90.00000000
_cell_angle_gamma   90.00000000
_symmetry_Int_Tables_number   1
_chemical_formula_structural   Li8Al8Co8Pd8C
_chemical_formula_sum   'Li8 Al8 Co8 Pd8 C1'
_cell_volume   1279.21954934
_cell_formula_units_Z   1
loop_
 _symmetry_equiv_pos_site_id
 _symmetry_equiv_pos_as_xyz
  1  'x, y, z'
loop_
 _atom_site_type_symbol
 _atom_site_label
 _atom_site_symmetry_multiplicity
 _atom_site_fract_x
 _atom_site_fract_y
 _atom_site_fract_z
 _atom_site_occupancy
  Li  Li0  1  1.00000000  0.25000000  0.96042000  1.0
  Li  Li1  1  1.00000000  0.75000000  0.96042000  1.0
  Li  Li2  1  0.50000000  0.50000000  0.88126000  1.0
  Li  Li3  1  0.50000000  0.00000000  0.88126000  1.0
  Li  Li4  1  0.00663000  0.74988000  0.13779000  1.0
  Li  Li5  1  0.93886000  0.24991000  0.13712000  1.0
  Li  Li6  1  0.49344000  0.00023000  0.03911000  1.0
  Li  Li7  1  0.49342000  0.49973000  0.03921000  1.0
  Al  Al8  1  0.00000000  0.00000000  0.88126000  1.0
  Al  Al9  1  0.00000000  0.50000000  0.88126000  1.0
  Al  Al10  1  0.50000000  0.75000000  0.96042000  1.0
  Al  Al11  1  0.50000000  0.25000000  0.96042000  1.0
  Al  Al12  1  0.00584000  0.50439000  0.03904000  1.0
  Al  Al13  1  0.00576000  0.99558000  0.03906000  1.0
  Al  Al14  1  0.54792000  0.24990000  0.11593000  1.0
  Al  Al15  1  0.48341000  0.75002000  0.11712000  1.0
  Co  Co16  1  0.75000000  0.00000000  0.96042000  1.0
  Co  Co17  1  0.75000000  0.50000000  0.96042000  1.0
  Co  Co18  1  0.25000000  0.25000000  0.88126000  1.0
  Co  Co19  1  0.25000000  0.75000000  0.88126000  1.0
  Co  Co20  1  0.74238000  0.51378000  0.11334000  1.0
  Co  Co21  1  0.74223000  0.98665000  0.11342000  1.0
  Co  Co22  1  0.24287000  0.75020000  0.04097000  1.0
  Co  Co23  1  0.24173000  0.24983000  0.04397000  1.0
  Pd  Pd24  1  0.25000000  0.00000000  0.96042000  1.0
  Pd  Pd25  1  0.25000000  0.50000000  0.96042000  1.0
  Pd  Pd26  1  0.75000000  0.25000000  0.88126000  1.0
  Pd  Pd27  1  0.75000000  0.75000000  0.88126000  1.0
  Pd  Pd28  1  0.24071000  0.48814000  0.12011000  1.0
  Pd  Pd29  1  0.24062000  0.01174000  0.12011000  1.0
  Pd  Pd30  1  0.74769000  0.75006000  0.03959000  1.0
  Pd  Pd31  1  0.76301000  0.24987000  0.03758000  1.0
  C  C32  1  0.25128000  0.24998000  0.14321000  1.0
