# generated using pymatgen
data_Li2GaIr
_symmetry_space_group_name_H-M   Pmm2
_cell_length_a   4.19225500
_cell_length_b   5.92875000
_cell_length_c   26.28840000
_cell_angle_alpha   90.00000000
_cell_angle_beta   90.00000000
_cell_angle_gamma   90.00000000
_symmetry_Int_Tables_number   25
_chemical_formula_structural   Li2GaIr
_chemical_formula_sum   'Li8 Ga4 Ir4'
_cell_volume   653.39376111
_cell_formula_units_Z   4
loop_
 _symmetry_equiv_pos_site_id
 _symmetry_equiv_pos_as_xyz
  1  'x, y, z'
  2  '-x, -y, z'
  3  '-x, y, z'
  4  'x, -y, z'
loop_
 _atom_site_type_symbol
 _atom_site_label
 _atom_site_symmetry_multiplicity
 _atom_site_fract_x
 _atom_site_fract_y
 _atom_site_fract_z
 _atom_site_occupancy
  Li  Li0  2  0.00000000  0.24107000  0.85619000  1.0
  Li  Li1  2  0.00000000  0.25000000  0.03987000  1.0
  Li  Li2  2  0.50000000  0.24747500  0.96401500  1.0
  Li  Li3  2  0.50000000  0.25000000  0.11960000  1.0
  Ga  Ga4  1  0.00000000  0.00000000  0.11960000  1.0
  Ga  Ga5  1  0.00000000  0.00000000  0.94580000  1.0
  Ga  Ga6  1  0.50000000  0.50000000  0.03987000  1.0
  Ga  Ga7  1  0.50000000  0.50000000  0.88729500  1.0
  Ir  Ir8  1  0.00000000  0.50000000  0.11960000  1.0
  Ir  Ir9  1  0.00000000  0.50000000  0.94451000  1.0
  Ir  Ir10  1  0.50000000  0.00000000  0.03987000  1.0
  Ir  Ir11  1  0.50000000  0.00000000  0.88560000  1.0
