# generated using pymatgen
data_Ni12Sn4CO
_symmetry_space_group_name_H-M   Pm
_cell_length_a   7.51544000
_cell_length_b   5.31422000
_cell_length_c   23.98570000
_cell_angle_alpha   90.00000000
_cell_angle_beta   90.00000000
_cell_angle_gamma   90.00000000
_symmetry_Int_Tables_number   6
_chemical_formula_structural   Ni12Sn4CO
_chemical_formula_sum   'Ni12 Sn4 C1 O1'
_cell_volume   957.95771393
_cell_formula_units_Z   1
loop_
 _symmetry_equiv_pos_site_id
 _symmetry_equiv_pos_as_xyz
  1  'x, y, z'
  2  'x, -y, z'
loop_
 _atom_site_type_symbol
 _atom_site_label
 _atom_site_symmetry_multiplicity
 _atom_site_fract_x
 _atom_site_fract_y
 _atom_site_fract_z
 _atom_site_occupancy
  Ni  Ni0  2  0.25000000  0.24999000  0.91692000  1.0
  Ni  Ni1  2  0.25012000  0.25584000  0.02826000  1.0
  Ni  Ni2  2  0.74986000  0.25587000  0.02826000  1.0
  Ni  Ni3  2  0.75000000  0.24999000  0.91692000  1.0
  Ni  Ni4  1  0.00000000  0.50000000  0.97231000  1.0
  Ni  Ni5  1  0.00001000  0.00000000  0.07749000  1.0
  Ni  Ni6  1  0.50000000  0.50000000  0.97231000  1.0
  Ni  Ni7  1  0.50001000  0.00000000  0.07747000  1.0
  Sn  Sn8  1  0.00000000  0.00000000  0.97231000  1.0
  Sn  Sn9  1  0.50000000  0.00000000  0.97231000  1.0
  Sn  Sn10  1  0.50000000  0.50000000  0.08798000  1.0
  Sn  Sn11  1  0.99999000  0.50000000  0.08745000  1.0
  C  C12  1  0.00006000  0.50000000  0.25943000  1.0
  O  O13  1  0.99999000  0.50000000  0.30663000  1.0
