# generated using pymatgen
data_Sn4Pt12C
_symmetry_space_group_name_H-M   'P 1'
_cell_length_a   8.18271000
_cell_length_b   5.78605000
_cell_length_c   24.33950000
_cell_angle_alpha   90.00000000
_cell_angle_beta   90.00000000
_cell_angle_gamma   90.00000000
_symmetry_Int_Tables_number   1
_chemical_formula_structural   Sn4Pt12C
_chemical_formula_sum   'Sn4 Pt12 C1'
_cell_volume   1152.36748143
_cell_formula_units_Z   1
loop_
 _symmetry_equiv_pos_site_id
 _symmetry_equiv_pos_as_xyz
  1  'x, y, z'
loop_
 _atom_site_type_symbol
 _atom_site_label
 _atom_site_symmetry_multiplicity
 _atom_site_fract_x
 _atom_site_fract_y
 _atom_site_fract_z
 _atom_site_occupancy
  Sn  Sn0  1  0.77638000  0.99626000  0.09775000  1.0
  Sn  Sn1  1  0.75000000  0.50000000  0.97028000  1.0
  Sn  Sn2  1  0.22362000  0.99626000  0.09775000  1.0
  Sn  Sn3  1  0.25000000  0.50000000  0.97028000  1.0
  Pt  Pt4  1  0.74460000  0.50889000  0.08536000  1.0
  Pt  Pt5  1  0.50000000  0.19764000  0.05105000  1.0
  Pt  Pt6  1  0.50000000  0.74432000  0.02328000  1.0
  Pt  Pt7  1  0.75000000  0.00000000  0.97028000  1.0
  Pt  Pt8  1  0.50000000  0.75000000  0.91085000  1.0
  Pt  Pt9  1  0.50000000  0.25000000  0.91085000  1.0
  Pt  Pt10  1  0.25540000  0.50889000  0.08536000  1.0
  Pt  Pt11  1  0.00000000  0.24764000  0.03466000  1.0
  Pt  Pt12  1  0.00000000  0.75017000  0.03181000  1.0
  Pt  Pt13  1  0.25000000  0.00000000  0.97028000  1.0
  Pt  Pt14  1  0.00000000  0.75000000  0.91085000  1.0
  Pt  Pt15  1  0.00000000  0.25000000  0.91085000  1.0
  C  C16  1  0.50000000  0.51719000  0.08570000  1.0
