# generated using pymatgen
data_Sn4Pt12C
_symmetry_space_group_name_H-M   Pm
_cell_length_a   5.78605000
_cell_length_b   8.18271000
_cell_length_c   24.33950000
_cell_angle_alpha   90.00000000
_cell_angle_beta   90.00000000
_cell_angle_gamma   90.00000000
_symmetry_Int_Tables_number   6
_chemical_formula_structural   Sn4Pt12C
_chemical_formula_sum   'Sn4 Pt12 C1'
_cell_volume   1152.36748143
_cell_formula_units_Z   1
loop_
 _symmetry_equiv_pos_site_id
 _symmetry_equiv_pos_as_xyz
  1  'x, y, z'
  2  'x, -y, z'
loop_
 _atom_site_type_symbol
 _atom_site_label
 _atom_site_symmetry_multiplicity
 _atom_site_fract_x
 _atom_site_fract_y
 _atom_site_fract_z
 _atom_site_occupancy
  Sn  Sn0  2  0.50000000  0.25000000  0.02972000  1.0
  Sn  Sn1  2  0.99626000  0.22362000  0.90225000  1.0
  Pt  Pt2  2  0.00000000  0.25000000  0.02972000  1.0
  Pt  Pt3  2  0.50889000  0.25540000  0.91464000  1.0
  Pt  Pt4  1  0.19764000  0.50000000  0.94895000  1.0
  Pt  Pt5  1  0.24764000  0.00000000  0.96534000  1.0
  Pt  Pt6  1  0.25000000  0.00000000  0.08915000  1.0
  Pt  Pt7  1  0.25000000  0.50000000  0.08915000  1.0
  Pt  Pt8  1  0.74432000  0.50000000  0.97672000  1.0
  Pt  Pt9  1  0.75000000  0.00000000  0.08915000  1.0
  Pt  Pt10  1  0.75000000  0.50000000  0.08915000  1.0
  Pt  Pt11  1  0.75017000  0.00000000  0.96819000  1.0
  C  C12  1  0.51719000  0.50000000  0.91430000  1.0
