data_image0
_chemical_formula_structural       Ti8Ga8Co16CO
_chemical_formula_sum              "Ti8 Ga8 Co16 C1 O1"
_cell_length_a       5.88011
_cell_length_b       8.31574
_cell_length_c       26.2368
_cell_angle_alpha    90
_cell_angle_beta     90
_cell_angle_gamma    90

_space_group_name_H-M_alt    "P 1"
_space_group_IT_number       1

loop_
  _space_group_symop_operation_xyz
  'x, y, z'

loop_
  _atom_site_type_symbol
  _atom_site_label
  _atom_site_symmetry_multiplicity
  _atom_site_fract_x
  _atom_site_fract_y
  _atom_site_fract_z
  _atom_site_occupancy
  Ti  Ti1       1.0  0.00000  0.00000  0.88114  1.0000
  Ti  Ti2       1.0  0.50000  0.25000  0.96038  1.0000
  Ti  Ti3       1.0  0.50000  0.75000  0.96038  1.0000
  Ti  Ti4       1.0  0.00000  0.50000  0.88114  1.0000
  Ti  Ti5       1.0  0.00000  0.49969  0.04142  1.0000
  Ti  Ti6       1.0  0.50000  0.75000  0.11829  1.0000
  Ti  Ti7       1.0  0.50000  0.25000  0.11076  1.0000
  Ti  Ti8       1.0  0.00000  0.00031  0.04142  1.0000
  Ga  Ga1       1.0  0.00000  0.75000  0.96038  1.0000
  Ga  Ga2       1.0  0.50000  0.00000  0.88114  1.0000
  Ga  Ga3       1.0  0.00000  0.25000  0.96038  1.0000
  Ga  Ga4       1.0  0.50000  0.50000  0.88114  1.0000
  Ga  Ga5       1.0  0.99999  0.25002  0.12016  1.0000
  Ga  Ga6       1.0  0.50001  0.50014  0.04057  1.0000
  Ga  Ga7       1.0  0.99999  0.74998  0.12048  1.0000
  Ga  Ga8       1.0  0.50001  0.99986  0.04056  1.0000
  Co  Co1       1.0  0.25000  0.00000  0.96038  1.0000
  Co  Co2       1.0  0.75000  0.50000  0.96038  1.0000
  Co  Co3       1.0  0.75000  0.00000  0.96038  1.0000
  Co  Co4       1.0  0.25000  0.50000  0.96038  1.0000
  Co  Co5       1.0  0.75000  0.75000  0.88114  1.0000
  Co  Co6       1.0  0.25000  0.25000  0.88114  1.0000
  Co  Co7       1.0  0.25000  0.75000  0.88114  1.0000
  Co  Co8       1.0  0.75000  0.25000  0.88114  1.0000
  Co  Co9       1.0  0.24583  0.50092  0.11674  1.0000
  Co  Co10      1.0  0.75417  0.99908  0.11674  1.0000
  Co  Co11      1.0  0.75417  0.50092  0.11674  1.0000
  Co  Co12      1.0  0.24583  0.99908  0.11674  1.0000
  Co  Co13      1.0  0.75133  0.25001  0.03866  1.0000
  Co  Co14      1.0  0.25184  0.74999  0.03976  1.0000
  Co  Co15      1.0  0.24867  0.25001  0.03866  1.0000
  Co  Co16      1.0  0.74816  0.74999  0.03976  1.0000
  C   C1        1.0  0.50000  0.25000  0.19390  1.0000
  O   O1        1.0  0.50000  0.25000  0.24113  1.0000
