# generated using pymatgen
data_Fe8Pt24C
_symmetry_space_group_name_H-M   Pm
_cell_length_a   7.88854000
_cell_length_b   7.88854000
_cell_length_c   25.91640000
_cell_angle_alpha   90.00000000
_cell_angle_beta   90.00000000
_cell_angle_gamma   90.00000000
_symmetry_Int_Tables_number   6
_chemical_formula_structural   Fe8Pt24C
_chemical_formula_sum   'Fe8 Pt24 C1'
_cell_volume   1612.75329693
_cell_formula_units_Z   1
loop_
 _symmetry_equiv_pos_site_id
 _symmetry_equiv_pos_as_xyz
  1  'x, y, z'
  2  'x, -y, z'
loop_
 _atom_site_type_symbol
 _atom_site_label
 _atom_site_symmetry_multiplicity
 _atom_site_fract_x
 _atom_site_fract_y
 _atom_site_fract_z
 _atom_site_occupancy
  Fe  Fe0  1  0.00000000  0.00000000  0.96195000  1.0
  Fe  Fe1  1  0.00000000  0.50000000  0.96195000  1.0
  Fe  Fe2  1  0.50000000  0.00000000  0.96195000  1.0
  Fe  Fe3  1  0.50000000  0.50000000  0.96195000  1.0
  Fe  Fe4  1  0.50343000  0.50000000  0.11239000  1.0
  Fe  Fe5  1  0.51037000  0.00000000  0.11322000  1.0
  Fe  Fe6  1  0.98960000  0.00000000  0.11324000  1.0
  Fe  Fe7  1  0.99655000  0.50000000  0.11243000  1.0
  Pt  Pt8  2  0.00000000  0.25000000  0.88586000  1.0
  Pt  Pt9  2  0.24995000  0.25481000  0.11661000  1.0
  Pt  Pt10  2  0.25000000  0.25000000  0.96195000  1.0
  Pt  Pt11  2  0.50000000  0.25000000  0.88586000  1.0
  Pt  Pt12  2  0.50072000  0.25208000  0.03824000  1.0
  Pt  Pt13  2  0.75000000  0.25000000  0.96195000  1.0
  Pt  Pt14  2  0.75003000  0.24801000  0.11446000  1.0
  Pt  Pt15  2  0.99929000  0.25208000  0.03823000  1.0
  Pt  Pt16  1  0.25000000  0.00000000  0.88586000  1.0
  Pt  Pt17  1  0.25000000  0.50000000  0.04159000  1.0
  Pt  Pt18  1  0.25000000  0.50000000  0.88586000  1.0
  Pt  Pt19  1  0.25001000  0.00000000  0.03776000  1.0
  Pt  Pt20  1  0.75000000  0.00000000  0.88586000  1.0
  Pt  Pt21  1  0.75000000  0.50000000  0.88586000  1.0
  Pt  Pt22  1  0.75001000  0.50000000  0.03940000  1.0
  Pt  Pt23  1  0.75002000  0.00000000  0.03837000  1.0
  C  C24  1  0.25003000  0.00000000  0.12358000  1.0
