# generated using pymatgen
data_Sc8Cu8Ge8Pd8C
_symmetry_space_group_name_H-M   P1
_cell_length_a   6.33395000
_cell_length_b   8.95756000
_cell_length_c   26.71820000
_cell_angle_alpha   90.00000000
_cell_angle_beta   90.00000000
_cell_angle_gamma   90.00000000
_symmetry_Int_Tables_number   1
_chemical_formula_structural   Sc8Cu8Ge8Pd8C
_chemical_formula_sum   'Sc8 Cu8 Ge8 Pd8 C1'
_cell_volume   1515.90349084
_cell_formula_units_Z   1
loop_
 _symmetry_equiv_pos_site_id
 _symmetry_equiv_pos_as_xyz
  1  'x, y, z'
loop_
 _atom_site_type_symbol
 _atom_site_label
 _atom_site_symmetry_multiplicity
 _atom_site_fract_x
 _atom_site_fract_y
 _atom_site_fract_z
 _atom_site_occupancy
  Sc  Sc0  1  0.24025000  0.25001000  0.04401000  1.0
  Sc  Sc1  1  0.25000000  0.25000000  0.87428000  1.0
  Sc  Sc2  1  0.25000000  0.75000000  0.87428000  1.0
  Sc  Sc3  1  0.25876000  0.75000000  0.04600000  1.0
  Sc  Sc4  1  0.70795000  0.53193000  0.13126000  1.0
  Sc  Sc5  1  0.70796000  0.96805000  0.13126000  1.0
  Sc  Sc6  1  0.75000000  0.00000000  0.95809000  1.0
  Sc  Sc7  1  0.75000000  0.50000000  0.95809000  1.0
  Cu  Cu8  1  0.00000000  0.00000000  0.87428000  1.0
  Cu  Cu9  1  0.00000000  0.50000000  0.87428000  1.0
  Cu  Cu10  1  0.41837000  0.75000000  0.15685000  1.0
  Cu  Cu11  1  0.50000000  0.25000000  0.95809000  1.0
  Cu  Cu12  1  0.50000000  0.75000000  0.95809000  1.0
  Cu  Cu13  1  0.53573000  0.24998000  0.12263000  1.0
  Cu  Cu14  1  0.98089000  0.50506000  0.04762000  1.0
  Cu  Cu15  1  0.98092000  0.99493000  0.04762000  1.0
  Ge  Ge16  1  0.23383000  0.01326000  0.12758000  1.0
  Ge  Ge17  1  0.23383000  0.48676000  0.12757000  1.0
  Ge  Ge18  1  0.25000000  0.00000000  0.95809000  1.0
  Ge  Ge19  1  0.25000000  0.50000000  0.95809000  1.0
  Ge  Ge20  1  0.74676000  0.25000000  0.03888000  1.0
  Ge  Ge21  1  0.75000000  0.25000000  0.87428000  1.0
  Ge  Ge22  1  0.75000000  0.75000000  0.87428000  1.0
  Ge  Ge23  1  0.75220000  0.75001000  0.04175000  1.0
  Pd  Pd24  1  0.00000000  0.25000000  0.95809000  1.0
  Pd  Pd25  1  0.00000000  0.75000000  0.95809000  1.0
  Pd  Pd26  1  0.00193000  0.74998000  0.12545000  1.0
  Pd  Pd27  1  0.50000000  0.00000000  0.87428000  1.0
  Pd  Pd28  1  0.50000000  0.50000000  0.87428000  1.0
  Pd  Pd29  1  0.50116000  0.00092000  0.04254000  1.0
  Pd  Pd30  1  0.50119000  0.49909000  0.04253000  1.0
  Pd  Pd31  1  0.92627000  0.24997000  0.12603000  1.0
  C  C32  1  0.24324000  0.25007000  0.13120000  1.0
