data_image0
_chemical_formula_structural       Li4Y4In4Cu4CO
_chemical_formula_sum              "Li4 Y4 In4 Cu4 C1 O1"
_cell_length_a       6.68415
_cell_length_b       6.68415
_cell_length_c       25.0131
_cell_angle_alpha    90
_cell_angle_beta     90
_cell_angle_gamma    90

_space_group_name_H-M_alt    "P 1"
_space_group_IT_number       1

loop_
  _space_group_symop_operation_xyz
  'x, y, z'

loop_
  _atom_site_type_symbol
  _atom_site_label
  _atom_site_symmetry_multiplicity
  _atom_site_fract_x
  _atom_site_fract_y
  _atom_site_fract_z
  _atom_site_occupancy
  Li  Li1       1.0  0.00000  0.50000  0.89979  1.0000
  Li  Li2       1.0  0.99836  0.99837  0.03610  1.0000
  Li  Li3       1.0  0.50137  0.50137  0.03621  1.0000
  Li  Li4       1.0  0.50000  0.00000  0.89979  1.0000
  Y   Y1        1.0  0.75000  0.25000  0.96660  1.0000
  Y   Y2        1.0  0.74986  0.74987  0.10908  1.0000
  Y   Y3        1.0  0.25008  0.25008  0.10859  1.0000
  Y   Y4        1.0  0.25000  0.75000  0.96660  1.0000
  In  In1       1.0  0.25000  0.25000  0.96660  1.0000
  In  In2       1.0  0.25008  0.75003  0.10159  1.0000
  In  In3       1.0  0.75003  0.25008  0.10159  1.0000
  In  In4       1.0  0.75000  0.75000  0.96660  1.0000
  Cu  Cu1       1.0  0.00000  0.00000  0.89979  1.0000
  Cu  Cu2       1.0  0.99765  0.50254  0.03482  1.0000
  Cu  Cu3       1.0  0.50255  0.99767  0.03482  1.0000
  Cu  Cu4       1.0  0.50000  0.50000  0.89979  1.0000
  C   C1        1.0  0.25136  0.25136  0.20838  1.0000
  O   O1        1.0  0.25147  0.25146  0.25420  1.0000
