# generated using pymatgen
data_Li4Y4In4Cu4CO
_symmetry_space_group_name_H-M   Cm
_cell_length_a   9.45281558
_cell_length_b   9.45281558
_cell_length_c   25.01310000
_cell_angle_alpha   90.00000000
_cell_angle_beta   90.00000000
_cell_angle_gamma   90.00000000
_symmetry_Int_Tables_number   8
_chemical_formula_structural   Li4Y4In4Cu4CO
_chemical_formula_sum   'Li8 Y8 In8 Cu8 C2 O2'
_cell_volume   2235.06362109
_cell_formula_units_Z   2
loop_
 _symmetry_equiv_pos_site_id
 _symmetry_equiv_pos_as_xyz
  1  'x, y, z'
  2  'x, -y, z'
  3  'x+1/2, y+1/2, z'
  4  'x+1/2, -y+1/2, z'
loop_
 _atom_site_type_symbol
 _atom_site_label
 _atom_site_symmetry_multiplicity
 _atom_site_fract_x
 _atom_site_fract_y
 _atom_site_fract_z
 _atom_site_occupancy
  Li  Li0  4  0.25000000  0.25000000  0.89979000  1.0
  Li  Li1  2  0.00137000  0.50000000  0.03621000  1.0
  Li  Li2  2  0.49836500  0.50000000  0.03610000  1.0
  Y  Y3  4  0.00000000  0.25000000  0.96660000  1.0
  Y  Y4  2  0.24986500  0.50000000  0.10908000  1.0
  Y  Y5  2  0.25008000  0.00000000  0.10859000  1.0
  In  In6  4  0.00005500  0.25002500  0.10159000  1.0
  In  In7  2  0.25000000  0.00000000  0.96660000  1.0
  In  In8  2  0.25000000  0.50000000  0.96660000  1.0
  Cu  Cu9  4  0.25009500  0.25244500  0.03482000  1.0
  Cu  Cu10  2  0.00000000  0.00000000  0.89979000  1.0
  Cu  Cu11  2  0.00000000  0.50000000  0.89979000  1.0
  C  C12  2  0.25136000  0.00000000  0.20838000  1.0
  O  O13  2  0.25146500  0.00000000  0.25420000  1.0
