# generated using pymatgen
data_Ti24Au8C
_symmetry_space_group_name_H-M   Pmm2
_cell_length_a   8.18271000
_cell_length_b   8.18271000
_cell_length_c   26.13700000
_cell_angle_alpha   90.00000000
_cell_angle_beta   90.00000000
_cell_angle_gamma   90.00000000
_symmetry_Int_Tables_number   25
_chemical_formula_structural   Ti24Au8C
_chemical_formula_sum   'Ti24 Au8 C1'
_cell_volume   1750.04839033
_cell_formula_units_Z   1
loop_
 _symmetry_equiv_pos_site_id
 _symmetry_equiv_pos_as_xyz
  1  'x, y, z'
  2  '-x, -y, z'
  3  '-x, y, z'
  4  'x, -y, z'
loop_
 _atom_site_type_symbol
 _atom_site_label
 _atom_site_symmetry_multiplicity
 _atom_site_fract_x
 _atom_site_fract_y
 _atom_site_fract_z
 _atom_site_occupancy
  Ti  Ti0  4  0.25000000  0.25000000  0.03913000  1.0
  Ti  Ti1  4  0.25000000  0.25000000  0.88260000  1.0
  Ti  Ti2  2  0.00000000  0.25000000  0.11740000  1.0
  Ti  Ti3  2  0.00000000  0.25000000  0.96087000  1.0
  Ti  Ti4  2  0.50000000  0.25000000  0.11740000  1.0
  Ti  Ti5  2  0.50000000  0.25000000  0.96087000  1.0
  Ti  Ti6  1  0.00000000  0.00000000  0.03913000  1.0
  Ti  Ti7  1  0.00000000  0.00000000  0.88260000  1.0
  Ti  Ti8  1  0.00000000  0.50000000  0.03913000  1.0
  Ti  Ti9  1  0.00000000  0.50000000  0.88260000  1.0
  Ti  Ti10  1  0.50000000  0.00000000  0.03913000  1.0
  Ti  Ti11  1  0.50000000  0.00000000  0.88260000  1.0
  Ti  Ti12  1  0.50000000  0.50000000  0.03913000  1.0
  Ti  Ti13  1  0.50000000  0.50000000  0.88260000  1.0
  Au  Au14  2  0.25000000  0.00000000  0.11740000  1.0
  Au  Au15  2  0.25000000  0.00000000  0.96087000  1.0
  Au  Au16  2  0.25000000  0.50000000  0.11740000  1.0
  Au  Au17  2  0.25000000  0.50000000  0.96087000  1.0
  C  C18  1  0.00000000  0.00000000  0.14801000  1.0
