# generated using pymatgen
data_Ti16Ni16CO
_symmetry_space_group_name_H-M   Pm
_cell_length_a   6.05499000
_cell_length_b   8.56306000
_cell_length_c   26.42230000
_cell_angle_alpha   90.00000000
_cell_angle_beta   90.00000000
_cell_angle_gamma   90.00000000
_symmetry_Int_Tables_number   6
_chemical_formula_structural   Ti16Ni16CO
_chemical_formula_sum   'Ti16 Ni16 C1 O1'
_cell_volume   1369.97624458
_cell_formula_units_Z   1
loop_
 _symmetry_equiv_pos_site_id
 _symmetry_equiv_pos_as_xyz
  1  'x, y, z'
  2  'x, -y, z'
loop_
 _atom_site_type_symbol
 _atom_site_label
 _atom_site_symmetry_multiplicity
 _atom_site_fract_x
 _atom_site_fract_y
 _atom_site_fract_z
 _atom_site_occupancy
  Ti  Ti0  2  0.25000000  0.25000000  0.87847000  1.0
  Ti  Ti1  2  0.25021000  0.24443000  0.03886000  1.0
  Ti  Ti2  2  0.75000000  0.25000000  0.87847000  1.0
  Ti  Ti3  2  0.75014000  0.25357000  0.03969000  1.0
  Ti  Ti4  1  0.25000000  0.00000000  0.95949000  1.0
  Ti  Ti5  1  0.25000000  0.50000000  0.95949000  1.0
  Ti  Ti6  1  0.25014000  0.50000000  0.12321000  1.0
  Ti  Ti7  1  0.25027000  0.00000000  0.12210000  1.0
  Ti  Ti8  1  0.75000000  0.00000000  0.95949000  1.0
  Ti  Ti9  1  0.75000000  0.50000000  0.95949000  1.0
  Ti  Ti10  1  0.75008000  0.50000000  0.12291000  1.0
  Ti  Ti11  1  0.75032000  0.00000000  0.12581000  1.0
  Ni  Ni12  2  -0.00000000  0.25000000  0.95949000  1.0
  Ni  Ni13  2  0.50000000  0.25000000  0.95949000  1.0
  Ni  Ni14  2  0.50090000  0.25079000  0.11258000  1.0
  Ni  Ni15  2  0.99943000  0.25087000  0.11259000  1.0
  Ni  Ni16  1  -0.00000000  0.50000000  0.87847000  1.0
  Ni  Ni17  1  0.00000000  0.00000000  0.87847000  1.0
  Ni  Ni18  1  0.01251000  0.50000000  0.04625000  1.0
  Ni  Ni19  1  0.48741000  0.50000000  0.04620000  1.0
  Ni  Ni20  1  0.50000000  0.00000000  0.87847000  1.0
  Ni  Ni21  1  0.50000000  0.50000000  0.87847000  1.0
  Ni  Ni22  1  0.53075000  0.00000000  0.04569000  1.0
  Ni  Ni23  1  0.97162000  0.00000000  0.04564000  1.0
  C  C24  1  0.24847000  0.00000000  0.20119000  1.0
  O  O25  1  0.24836000  0.00000000  0.24503000  1.0
