# generated using pymatgen
data_Zr8Zn8Cu16CO
_symmetry_space_group_name_H-M   'P 1'
_cell_length_a   6.25397000
_cell_length_b   8.84445000
_cell_length_c   26.63330000
_cell_angle_alpha   90.00000000
_cell_angle_beta   90.00000000
_cell_angle_gamma   90.00000000
_symmetry_Int_Tables_number   1
_chemical_formula_structural   Zr8Zn8Cu16CO
_chemical_formula_sum   'Zr8 Zn8 Cu16 C1 O1'
_cell_volume   1473.16572451
_cell_formula_units_Z   1
loop_
 _symmetry_equiv_pos_site_id
 _symmetry_equiv_pos_as_xyz
  1  'x, y, z'
loop_
 _atom_site_type_symbol
 _atom_site_label
 _atom_site_symmetry_multiplicity
 _atom_site_fract_x
 _atom_site_fract_y
 _atom_site_fract_z
 _atom_site_occupancy
  Zr  Zr0  1  0.00000000  0.00000000  0.87547000  1.0
  Zr  Zr1  1  0.50000000  0.25000000  0.95849000  1.0
  Zr  Zr2  1  0.50000000  0.75000000  0.95849000  1.0
  Zr  Zr3  1  0.00000000  0.50000000  0.87547000  1.0
  Zr  Zr4  1  0.99427000  0.49619000  0.04065000  1.0
  Zr  Zr5  1  0.48836000  0.75898000  0.12930000  1.0
  Zr  Zr6  1  0.49205000  0.21434000  0.13410000  1.0
  Zr  Zr7  1  0.99943000  0.00619000  0.03984000  1.0
  Zn  Zn8  1  0.00000000  0.75000000  0.95849000  1.0
  Zn  Zn9  1  0.50000000  0.00000000  0.87547000  1.0
  Zn  Zn10  1  0.00000000  0.25000000  0.95849000  1.0
  Zn  Zn11  1  0.50000000  0.50000000  0.87547000  1.0
  Zn  Zn12  1  0.99473000  0.24581000  0.11624000  1.0
  Zn  Zn13  1  0.49816000  0.50698000  0.03619000  1.0
  Zn  Zn14  1  0.99317000  0.72535000  0.11714000  1.0
  Zn  Zn15  1  0.49711000  0.99804000  0.03870000  1.0
  Cu  Cu16  1  0.25000000  0.00000000  0.95849000  1.0
  Cu  Cu17  1  0.75000000  0.50000000  0.95849000  1.0
  Cu  Cu18  1  0.75000000  0.00000000  0.95849000  1.0
  Cu  Cu19  1  0.25000000  0.50000000  0.95849000  1.0
  Cu  Cu20  1  0.75000000  0.75000000  0.87547000  1.0
  Cu  Cu21  1  0.25000000  0.25000000  0.87547000  1.0
  Cu  Cu22  1  0.25000000  0.75000000  0.87547000  1.0
  Cu  Cu23  1  0.75000000  0.25000000  0.87547000  1.0
  Cu  Cu24  1  0.27536000  0.48096000  0.11902000  1.0
  Cu  Cu25  1  0.77228000  0.97774000  0.12172000  1.0
  Cu  Cu26  1  0.71427000  0.48317000  0.11773000  1.0
  Cu  Cu27  1  0.18817000  0.97914000  0.12731000  1.0
  Cu  Cu28  1  0.71844000  0.25224000  0.04499000  1.0
  Cu  Cu29  1  0.25633000  0.75309000  0.04106000  1.0
  Cu  Cu30  1  0.27351000  0.25281000  0.04379000  1.0
  Cu  Cu31  1  0.73451000  0.75470000  0.04302000  1.0
  C  C32  1  0.48520000  0.96020000  0.17285000  1.0
  O  O33  1  0.48309000  0.08033000  0.20049000  1.0
