# generated using pymatgen
data_Li8In4Au4C
_symmetry_space_group_name_H-M   'P 1'
_cell_length_a   6.60991000
_cell_length_b   6.60991000
_cell_length_c   24.95740000
_cell_angle_alpha   90.00000000
_cell_angle_beta   90.00000000
_cell_angle_gamma   90.00000000
_symmetry_Int_Tables_number   1
_chemical_formula_structural   Li8In4Au4C
_chemical_formula_sum   'Li8 In4 Au4 C1'
_cell_volume   1090.41152243
_cell_formula_units_Z   1
loop_
 _symmetry_equiv_pos_site_id
 _symmetry_equiv_pos_as_xyz
  1  'x, y, z'
loop_
 _atom_site_type_symbol
 _atom_site_label
 _atom_site_symmetry_multiplicity
 _atom_site_fract_x
 _atom_site_fract_y
 _atom_site_fract_z
 _atom_site_occupancy
  Li  Li0  1  0.00000000  0.00000000  0.97006000  1
  Li  Li1  1  0.00000000  0.50001000  0.09932000  1
  Li  Li2  1  0.49999000  1.00000000  0.09932000  1
  Li  Li3  1  0.49998500  0.50001500  0.95523000  1
  Li  Li4  1  0.22713000  0.77287000  0.87250000  1
  Li  Li5  1  0.75000000  0.75001000  0.03311000  1
  Li  Li6  1  0.77293000  0.22707000  0.87250000  1
  Li  Li7  1  0.24999000  0.25000000  0.03311000  1
  In  In8  1  0.99999500  0.00000500  0.09932000  1
  In  In9  1  0.49999500  0.50000500  0.09932000  1
  In  In10  1  1.00000000  0.50003000  0.96141000  1
  In  In11  1  0.49997000  1.00000000  0.96141000  1
  Au  Au12  1  0.24999500  0.75000500  0.03311000  1
  Au  Au13  1  0.79407000  0.79415000  0.90166000  1
  Au  Au14  1  0.74999500  0.25000500  0.03311000  1
  Au  Au15  1  0.20585000  0.20593000  0.90166000  1
  C  C16  1  0.00003000  0.99997000  0.87122000  1
