# generated using pymatgen
data_Li8In4Au4C
_symmetry_space_group_name_H-M   Cm
_cell_length_a   9.34782437
_cell_length_b   9.34782437
_cell_length_c   24.95740000
_cell_angle_alpha   90.00000000
_cell_angle_beta   90.00000000
_cell_angle_gamma   90.00000000
_symmetry_Int_Tables_number   8
_chemical_formula_structural   Li8In4Au4C
_chemical_formula_sum   'Li16 In8 Au8 C2'
_cell_volume   2180.82304486
_cell_formula_units_Z   2
loop_
 _symmetry_equiv_pos_site_id
 _symmetry_equiv_pos_as_xyz
  1  'x, y, z'
  2  'x, -y, z'
  3  'x+1/2, y+1/2, z'
  4  'x+1/2, -y+1/2, z'
loop_
 _atom_site_type_symbol
 _atom_site_label
 _atom_site_symmetry_multiplicity
 _atom_site_fract_x
 _atom_site_fract_y
 _atom_site_fract_z
 _atom_site_occupancy
  Li  Li0  4  0.24999500  0.24999500  0.90068000  1.0
  Li  Li1  4  0.49999500  0.25000500  0.96689000  1.0
  Li  Li2  2  0.00000000  0.00000000  0.02994000  1.0
  Li  Li3  2  0.22713000  0.00000000  0.12750000  1.0
  Li  Li4  2  0.27293000  0.50000000  0.12750000  1.0
  Li  Li5  2  0.49998500  0.00000000  0.04477000  1.0
  In  In6  4  0.24998500  0.24998500  0.03859000  1.0
  In  In7  2  0.49999500  0.00000000  0.90068000  1.0
  In  In8  2  0.49999500  0.50000000  0.90068000  1.0
  Au  Au9  4  0.49996000  0.29411000  0.09834000  1.0
  Au  Au10  2  0.24999500  0.00000000  0.96689000  1.0
  Au  Au11  2  0.24999500  0.50000000  0.96689000  1.0
  C  C12  2  0.00003000  0.00000000  0.12878000  1.0
