# generated using pymatgen
data_Li4Mn4Al4Pd4CO
_symmetry_space_group_name_H-M   P2
_cell_length_a   6.10222000
_cell_length_b   24.57670000
_cell_length_c   6.10222000
_cell_angle_alpha   90.00000000
_cell_angle_beta   90.00000000
_cell_angle_gamma   90.00000000
_symmetry_Int_Tables_number   3
_chemical_formula_structural   Li4Mn4Al4Pd4CO
_chemical_formula_sum   'Li4 Mn4 Al4 Pd4 C1 O1'
_cell_volume   915.16476347
_cell_formula_units_Z   1
loop_
 _symmetry_equiv_pos_site_id
 _symmetry_equiv_pos_as_xyz
  1  'x, y, z'
  2  '-x, y, -z'
loop_
 _atom_site_type_symbol
 _atom_site_label
 _atom_site_symmetry_multiplicity
 _atom_site_fract_x
 _atom_site_fract_y
 _atom_site_fract_z
 _atom_site_occupancy
  Li  Li0  1  0.00000000  0.10370000  0.50000000  1.0
  Li  Li1  1  0.00000000  0.96896000  0.00000000  1.0
  Li  Li2  1  0.50000000  0.10710000  0.00000000  1.0
  Li  Li3  1  0.50000000  0.96896000  0.50000000  1.0
  Mn  Mn4  2  0.25000000  0.90689000  0.75000000  1.0
  Mn  Mn5  2  0.25078000  0.03183000  0.24903000  1.0
  Al  Al6  1  0.00000000  0.08768000  0.00000000  1.0
  Al  Al7  1  0.00000000  0.96896000  0.50000000  1.0
  Al  Al8  1  0.50000000  0.08763000  0.50000000  1.0
  Al  Al9  1  0.50000000  0.96896000  0.00000000  1.0
  Pd  Pd10  2  0.25000000  0.90689000  0.25000000  1.0
  Pd  Pd11  2  0.25056000  0.03157000  0.75061000  1.0
  C  C12  1  0.50000000  0.19292000  0.00000000  1.0
  O  O13  1  0.50000000  0.23937000  0.00000000  1.0
