# generated using pymatgen
data_Li8Zn8Ag8Ge8C
_symmetry_space_group_name_H-M   'P 1'
_cell_length_a   8.98822000
_cell_length_b   6.35563000
_cell_length_c   26.74120000
_cell_angle_alpha   90.00000000
_cell_angle_beta   90.00000000
_cell_angle_gamma   90.00000000
_symmetry_Int_Tables_number   1
_chemical_formula_structural   Li8Zn8Ag8Ge8C
_chemical_formula_sum   'Li8 Zn8 Ag8 Ge8 C1'
_cell_volume   1527.61246111
_cell_formula_units_Z   1
loop_
 _symmetry_equiv_pos_site_id
 _symmetry_equiv_pos_as_xyz
  1  'x, y, z'
loop_
 _atom_site_type_symbol
 _atom_site_label
 _atom_site_symmetry_multiplicity
 _atom_site_fract_x
 _atom_site_fract_y
 _atom_site_fract_z
 _atom_site_occupancy
  Li  Li0  1  0.75000000  0.75000000  0.04201000  1.0
  Li  Li1  1  0.25000000  0.75000000  0.04201000  1.0
  Li  Li2  1  0.00000000  0.25000000  0.12604000  1.0
  Li  Li3  1  0.50000000  0.25000000  0.12604000  1.0
  Li  Li4  1  0.23384000  0.74973000  0.85360000  1.0
  Li  Li5  1  0.76616000  0.74973000  0.85360000  1.0
  Li  Li6  1  0.50000000  0.24722000  0.95512000  1.0
  Li  Li7  1  0.00000000  0.26649000  0.95433000  1.0
  Zn  Zn8  1  0.75000000  0.25000000  0.04201000  1.0
  Zn  Zn9  1  0.25000000  0.25000000  0.04201000  1.0
  Zn  Zn10  1  0.00000000  0.75000000  0.12604000  1.0
  Zn  Zn11  1  0.50000000  0.75000000  0.12604000  1.0
  Zn  Zn12  1  0.27710000  0.25301000  0.87308000  1.0
  Zn  Zn13  1  0.72290000  0.25301000  0.87308000  1.0
  Zn  Zn14  1  0.50000000  0.76363000  0.96010000  1.0
  Zn  Zn15  1  0.00000000  0.69780000  0.93481000  1.0
  Ag  Ag16  1  0.75000000  0.00000000  0.12604000  1.0
  Ag  Ag17  1  0.25000000  0.00000000  0.12604000  1.0
  Ag  Ag18  1  0.50000000  0.50000000  0.04201000  1.0
  Ag  Ag19  1  0.00000000  0.50000000  0.04201000  1.0
  Ag  Ag20  1  0.23495000  0.98667000  0.95534000  1.0
  Ag  Ag21  1  0.76505000  0.98667000  0.95534000  1.0
  Ag  Ag22  1  0.00000000  0.43592000  0.83796000  1.0
  Ag  Ag23  1  0.50000000  0.54279000  0.87008000  1.0
  Ge  Ge24  1  0.00000000  0.00000000  0.04201000  1.0
  Ge  Ge25  1  0.50000000  0.00000000  0.04201000  1.0
  Ge  Ge26  1  0.25000000  0.50000000  0.12604000  1.0
  Ge  Ge27  1  0.75000000  0.50000000  0.12604000  1.0
  Ge  Ge28  1  0.50000000  0.98323000  0.87187000  1.0
  Ge  Ge29  1  0.00000000  0.05102000  0.86240000  1.0
  Ge  Ge30  1  0.74204000  0.51071000  0.95262000  1.0
  Ge  Ge31  1  0.25796000  0.51071000  0.95262000  1.0
  C  C32  1  0.00000000  0.76284000  0.85594000  1.0
