# generated using pymatgen
data_Li8Y8Cu8Ge8C
_symmetry_space_group_name_H-M   P1
_cell_length_a   6.66034000
_cell_length_b   9.41914000
_cell_length_c   27.06440000
_cell_angle_alpha   90.00000000
_cell_angle_beta   90.00000000
_cell_angle_gamma   90.00000000
_symmetry_Int_Tables_number   1
_chemical_formula_structural   Li8Y8Cu8Ge8C
_chemical_formula_sum   'Li8 Y8 Cu8 Ge8 C1'
_cell_volume   1697.87633557
_cell_formula_units_Z   1
loop_
 _symmetry_equiv_pos_site_id
 _symmetry_equiv_pos_as_xyz
  1  'x, y, z'
loop_
 _atom_site_type_symbol
 _atom_site_label
 _atom_site_symmetry_multiplicity
 _atom_site_fract_x
 _atom_site_fract_y
 _atom_site_fract_z
 _atom_site_occupancy
  Li  Li0  1  0.25000000  0.25000000  0.86949000  1.0
  Li  Li1  1  0.25000000  0.75000000  0.86949000  1.0
  Li  Li2  1  0.27891000  0.74638000  0.03968000  1.0
  Li  Li3  1  0.27896000  0.25492000  0.03973000  1.0
  Li  Li4  1  0.75000000  0.00000000  0.95650000  1.0
  Li  Li5  1  0.75000000  0.50000000  0.95650000  1.0
  Li  Li6  1  0.91167000  0.99994000  0.14186000  1.0
  Li  Li7  1  0.92070000  0.49996000  0.14746000  1.0
  Y  Y8  1  0.25000000  0.00000000  0.95650000  1.0
  Y  Y9  1  0.25000000  0.50000000  0.95650000  1.0
  Y  Y10  1  0.41552000  0.50006000  0.14079000  1.0
  Y  Y11  1  0.43139000  0.99986000  0.14028000  1.0
  Y  Y12  1  0.75000000  0.25000000  0.86949000  1.0
  Y  Y13  1  0.75000000  0.75000000  0.86949000  1.0
  Y  Y14  1  0.78852000  0.23472000  0.05540000  1.0
  Y  Y15  1  0.78858000  0.76564000  0.05537000  1.0
  Cu  Cu16  1  0.00000000  0.00000000  0.86949000  1.0
  Cu  Cu17  1  0.00000000  0.50000000  0.86949000  1.0
  Cu  Cu18  1  0.12435000  0.50076000  0.06521000  1.0
  Cu  Cu19  1  0.13000000  0.00074000  0.06711000  1.0
  Cu  Cu20  1  0.50000000  0.25000000  0.95650000  1.0
  Cu  Cu21  1  0.50000000  0.75000000  0.95650000  1.0
  Cu  Cu22  1  0.74370000  0.26411000  0.15926000  1.0
  Cu  Cu23  1  0.74375000  0.73596000  0.15926000  1.0
  Ge  Ge24  1  0.00000000  0.25000000  0.95650000  1.0
  Ge  Ge25  1  0.00000000  0.75000000  0.95650000  1.0
  Ge  Ge26  1  0.12554000  0.25368000  0.13336000  1.0
  Ge  Ge27  1  0.12558000  0.74617000  0.13325000  1.0
  Ge  Ge28  1  0.49760000  0.00027000  0.03412000  1.0
  Ge  Ge29  1  0.50000000  0.00000000  0.86949000  1.0
  Ge  Ge30  1  0.50000000  0.50000000  0.86949000  1.0
  Ge  Ge31  1  0.52417000  0.50029000  0.03961000  1.0
  C  C32  1  0.70146000  0.00016000  0.08600000  1.0
