# generated using pymatgen
data_Y8Mg8Sn8Pd8C
_symmetry_space_group_name_H-M   'P 1'
_cell_length_a   9.90846000
_cell_length_b   7.00634000
_cell_length_c   27.43130000
_cell_angle_alpha   90.00000000
_cell_angle_beta   90.00000000
_cell_angle_gamma   90.00000000
_symmetry_Int_Tables_number   1
_chemical_formula_structural   Y8Mg8Sn8Pd8C
_chemical_formula_sum   'Y8 Mg8 Sn8 Pd8 C1'
_cell_volume   1904.33679588
_cell_formula_units_Z   1
loop_
 _symmetry_equiv_pos_site_id
 _symmetry_equiv_pos_as_xyz
  1  'x, y, z'
loop_
 _atom_site_type_symbol
 _atom_site_label
 _atom_site_symmetry_multiplicity
 _atom_site_fract_x
 _atom_site_fract_y
 _atom_site_fract_z
 _atom_site_occupancy
  Y  Y0  1  0.25000000  1.00000000  0.04515000  1.0
  Y  Y1  1  0.75000000  1.00000000  0.04515000  1.0
  Y  Y2  1  0.50000000  0.50000000  0.13545000  1.0
  Y  Y3  1  0.00000000  0.50000000  0.13545000  1.0
  Y  Y4  1  0.78924000  0.05764000  0.86596000  1.0
  Y  Y5  1  0.21076000  0.05764000  0.86596000  1.0
  Y  Y6  1  0.00000000  0.42615000  0.93927000  1.0
  Y  Y7  1  0.50000000  0.51145000  0.95064000  1.0
  Mg  Mg8  1  0.00000000  0.00000000  0.13545000  1.0
  Mg  Mg9  1  0.50000000  1.00000000  0.13545000  1.0
  Mg  Mg10  1  0.75000000  0.50000000  0.04515000  1.0
  Mg  Mg11  1  0.25000000  0.50000000  0.04515000  1.0
  Mg  Mg12  1  0.50000000  0.00836000  0.95231000  1.0
  Mg  Mg13  1  0.00000000  0.98491000  0.95715000  1.0
  Mg  Mg14  1  0.26746000  0.54603000  0.85272000  1.0
  Mg  Mg15  1  0.73254000  0.54603000  0.85272000  1.0
  Sn  Sn16  1  0.00000000  0.25000000  0.04515000  1.0
  Sn  Sn17  1  0.50000000  0.25000000  0.04515000  1.0
  Sn  Sn18  1  0.25000000  0.75000000  0.13545000  1.0
  Sn  Sn19  1  0.75000000  0.75000000  0.13545000  1.0
  Sn  Sn20  1  0.50000000  0.25225000  0.85421000  1.0
  Sn  Sn21  1  0.00000000  0.36943000  0.81834000  1.0
  Sn  Sn22  1  0.75868000  0.74567000  0.94902000  1.0
  Sn  Sn23  1  0.24132000  0.74567000  0.94902000  1.0
  Pd  Pd24  1  0.00000000  0.75000000  0.04515000  1.0
  Pd  Pd25  1  0.50000000  0.75000000  0.04515000  1.0
  Pd  Pd26  1  0.25000000  0.25000000  0.13545000  1.0
  Pd  Pd27  1  0.75000000  0.25000000  0.13545000  1.0
  Pd  Pd28  1  0.50000000  0.78465000  0.87266000  1.0
  Pd  Pd29  1  0.00000000  0.73859000  0.87426000  1.0
  Pd  Pd30  1  0.72372000  0.26196000  0.96211000  1.0
  Pd  Pd31  1  0.27628000  0.26196000  0.96211000  1.0
  C  C32  1  0.00000000  0.15741000  0.88792000  1.0
