data_image0
_chemical_formula_structural       Mg16Rh16CO
_chemical_formula_sum              "Mg16 Rh16 C1 O1"
_cell_length_a       6.2918
_cell_length_b       8.89794
_cell_length_c       26.6735
_cell_angle_alpha    90
_cell_angle_beta     90
_cell_angle_gamma    90

_space_group_name_H-M_alt    "P 1"
_space_group_IT_number       1

loop_
  _space_group_symop_operation_xyz
  'x, y, z'

loop_
  _atom_site_type_symbol
  _atom_site_label
  _atom_site_symmetry_multiplicity
  _atom_site_fract_x
  _atom_site_fract_y
  _atom_site_fract_z
  _atom_site_occupancy
  Mg  Mg1       1.0  0.00000  0.00000  0.87490  1.0000
  Mg  Mg2       1.0  0.00000  0.25000  0.95830  1.0000
  Mg  Mg3       1.0  0.99840  1.00000  0.04082  1.0000
  Mg  Mg4       1.0  0.00069  0.24909  0.12701  1.0000
  Mg  Mg5       1.0  0.00000  0.50000  0.87490  1.0000
  Mg  Mg6       1.0  0.00000  0.75000  0.95830  1.0000
  Mg  Mg7       1.0  0.99960  0.50002  0.04043  1.0000
  Mg  Mg8       1.0  0.00070  0.75094  0.12700  1.0000
  Mg  Mg9       1.0  0.50000  0.00000  0.87490  1.0000
  Mg  Mg10      1.0  0.50000  0.25000  0.95830  1.0000
  Mg  Mg11      1.0  0.50105  0.00000  0.04087  1.0000
  Mg  Mg12      1.0  0.49973  0.24858  0.12708  1.0000
  Mg  Mg13      1.0  0.50000  0.50000  0.87490  1.0000
  Mg  Mg14      1.0  0.50000  0.75000  0.95830  1.0000
  Mg  Mg15      1.0  0.50044  0.50005  0.04041  1.0000
  Mg  Mg16      1.0  0.49969  0.75144  0.12709  1.0000
  Rh  Rh1       1.0  0.25000  0.25000  0.87490  1.0000
  Rh  Rh2       1.0  0.25000  0.50000  0.95830  1.0000
  Rh  Rh3       1.0  0.25012  0.24891  0.04209  1.0000
  Rh  Rh4       1.0  0.24946  0.00003  0.12805  1.0000
  Rh  Rh5       1.0  0.25000  0.75000  0.87490  1.0000
  Rh  Rh6       1.0  0.25000  0.00000  0.95830  1.0000
  Rh  Rh7       1.0  0.25012  0.75113  0.04208  1.0000
  Rh  Rh8       1.0  0.25048  0.49994  0.12030  1.0000
  Rh  Rh9       1.0  0.75000  0.25000  0.87490  1.0000
  Rh  Rh10      1.0  0.75000  0.50000  0.95830  1.0000
  Rh  Rh11      1.0  0.75001  0.25007  0.04213  1.0000
  Rh  Rh12      1.0  0.75006  0.00005  0.12158  1.0000
  Rh  Rh13      1.0  0.75000  0.75000  0.87490  1.0000
  Rh  Rh14      1.0  0.75000  0.00000  0.95830  1.0000
  Rh  Rh15      1.0  0.74999  0.74994  0.04213  1.0000
  Rh  Rh16      1.0  0.74985  0.50004  0.12088  1.0000
  C   C1        1.0  0.24751  0.99999  0.19734  1.0000
  O   O1        1.0  0.24686  0.99999  0.24103  1.0000
