# generated using pymatgen
data_In8Fe8Co16CO
_symmetry_space_group_name_H-M   'P 1'
_cell_length_a   6.01864000
_cell_length_b   8.51164000
_cell_length_c   26.38370000
_cell_angle_alpha   90.00000000
_cell_angle_beta   90.00000000
_cell_angle_gamma   90.00000000
_symmetry_Int_Tables_number   1
_chemical_formula_structural   In8Fe8Co16CO
_chemical_formula_sum   'In8 Fe8 Co16 C1 O1'
_cell_volume   1351.59729550
_cell_formula_units_Z   1
loop_
 _symmetry_equiv_pos_site_id
 _symmetry_equiv_pos_as_xyz
  1  'x, y, z'
loop_
 _atom_site_type_symbol
 _atom_site_label
 _atom_site_symmetry_multiplicity
 _atom_site_fract_x
 _atom_site_fract_y
 _atom_site_fract_z
 _atom_site_occupancy
  In  In0  1  0.00000000  0.00000000  0.87902000  1.0
  In  In1  1  0.50000000  0.25000000  0.95967000  1.0
  In  In2  1  0.50000000  0.75000000  0.95967000  1.0
  In  In3  1  0.00000000  0.50000000  0.87902000  1.0
  In  In4  1  0.00013000  0.50046000  0.03818000  1.0
  In  In5  1  0.49989000  0.74990000  0.13796000  1.0
  In  In6  1  0.49988000  0.25013000  0.13647000  1.0
  In  In7  1  0.00006000  0.99957000  0.03813000  1.0
  Fe  Fe8  1  0.00000000  0.75000000  0.95967000  1.0
  Fe  Fe9  1  0.50000000  0.00000000  0.87902000  1.0
  Fe  Fe10  1  0.00000000  0.25000000  0.95967000  1.0
  Fe  Fe11  1  0.50000000  0.50000000  0.87902000  1.0
  Fe  Fe12  1  0.99999000  0.24999000  0.11483000  1.0
  Fe  Fe13  1  0.50006000  0.49992000  0.04194000  1.0
  Fe  Fe14  1  0.99998000  0.75001000  0.11517000  1.0
  Fe  Fe15  1  0.50005000  0.00010000  0.04192000  1.0
  Co  Co16  1  0.25000000  0.00000000  0.95967000  1.0
  Co  Co17  1  0.75000000  0.50000000  0.95967000  1.0
  Co  Co18  1  0.75000000  0.00000000  0.95967000  1.0
  Co  Co19  1  0.25000000  0.50000000  0.95967000  1.0
  Co  Co20  1  0.75000000  0.75000000  0.87902000  1.0
  Co  Co21  1  0.25000000  0.25000000  0.87902000  1.0
  Co  Co22  1  0.25000000  0.75000000  0.87902000  1.0
  Co  Co23  1  0.75000000  0.25000000  0.87902000  1.0
  Co  Co24  1  0.24909000  0.50046000  0.11740000  1.0
  Co  Co25  1  0.75112000  0.99953000  0.11737000  1.0
  Co  Co26  1  0.75088000  0.50047000  0.11738000  1.0
  Co  Co27  1  0.24887000  0.99954000  0.11738000  1.0
  Co  Co28  1  0.73755000  0.24997000  0.04406000  1.0
  Co  Co29  1  0.26445000  0.75003000  0.04461000  1.0
  Co  Co30  1  0.26246000  0.24996000  0.04406000  1.0
  Co  Co31  1  0.73555000  0.75002000  0.04461000  1.0
  C  C32  1  0.50000000  0.24998000  0.27588000  1.0
  O  O33  1  0.49994000  0.25007000  0.31889000  1.0
