# generated using pymatgen
data_ScZn
_symmetry_space_group_name_H-M   'P 1'
_cell_length_a   4.74122000
_cell_length_b   6.70510000
_cell_length_c   27.11180000
_cell_angle_alpha   90.00000000
_cell_angle_beta   90.00000000
_cell_angle_gamma   90.00000000
_symmetry_Int_Tables_number   1
_chemical_formula_structural   ScZn
_chemical_formula_sum   'Sc8 Zn8'
_cell_volume   861.89372560
_cell_formula_units_Z   8
loop_
 _symmetry_equiv_pos_site_id
 _symmetry_equiv_pos_as_xyz
  1  'x, y, z'
loop_
 _atom_site_type_symbol
 _atom_site_label
 _atom_site_symmetry_multiplicity
 _atom_site_fract_x
 _atom_site_fract_y
 _atom_site_fract_z
 _atom_site_occupancy
  Sc  Sc0  1  0.00000000  0.00000000  0.13116000  1.0
  Sc  Sc1  1  0.50000000  0.00000000  0.04372000  1.0
  Sc  Sc2  1  0.00000000  0.00000000  0.95654000  1.0
  Sc  Sc3  1  0.50000000  0.00000000  0.86896000  1.0
  Sc  Sc4  1  0.00000000  0.50000000  0.13116000  1.0
  Sc  Sc5  1  0.50000000  0.50000000  0.04372000  1.0
  Sc  Sc6  1  0.00000000  0.50000000  0.95654000  1.0
  Sc  Sc7  1  0.50000000  0.50000000  0.86895000  1.0
  Zn  Zn8  1  0.50000000  0.75000000  0.13116000  1.0
  Zn  Zn9  1  0.00000000  0.75000000  0.04372000  1.0
  Zn  Zn10  1  0.50000000  0.74989000  0.95634500  1.0
  Zn  Zn11  1  0.00000000  0.74988000  0.86912000  1.0
  Zn  Zn12  1  0.50000000  0.25000000  0.13116000  1.0
  Zn  Zn13  1  0.00000000  0.25000000  0.04372000  1.0
  Zn  Zn14  1  0.50000000  0.25011000  0.95634500  1.0
  Zn  Zn15  1  0.00000000  0.25012000  0.86912000  1.0
