# generated using pymatgen
data_Li16Sb8Pd8CO
_symmetry_space_group_name_H-M   Pm
_cell_length_a   6.43375000
_cell_length_b   9.09870000
_cell_length_c   26.82400000
_cell_angle_alpha   90.00000000
_cell_angle_beta   90.00000000
_cell_angle_gamma   90.00000000
_symmetry_Int_Tables_number   6
_chemical_formula_structural   Li16Sb8Pd8CO
_chemical_formula_sum   'Li16 Sb8 Pd8 C1 O1'
_cell_volume   1570.24372842
_cell_formula_units_Z   1
loop_
 _symmetry_equiv_pos_site_id
 _symmetry_equiv_pos_as_xyz
  1  'x, y, z'
  2  'x, -y, z'
loop_
 _atom_site_type_symbol
 _atom_site_label
 _atom_site_symmetry_multiplicity
 _atom_site_fract_x
 _atom_site_fract_y
 _atom_site_fract_z
 _atom_site_occupancy
  Li  Li0  2  -0.00000000  0.25001000  0.95760000  1.0
  Li  Li1  2  0.02509000  0.24955000  0.12520000  1.0
  Li  Li2  2  0.25000000  0.24999000  0.87280000  1.0
  Li  Li3  2  0.26418000  0.25005000  0.04442000  1.0
  Li  Li4  1  0.50000000  0.00000000  0.87280000  1.0
  Li  Li5  1  0.50000000  0.50000000  0.87280000  1.0
  Li  Li6  1  0.51004000  0.50000000  0.03785000  1.0
  Li  Li7  1  0.51432000  0.00000000  0.03809000  1.0
  Li  Li8  1  0.72356000  0.50000000  0.12514000  1.0
  Li  Li9  1  0.72981000  0.00000000  0.12947000  1.0
  Li  Li10  1  0.75000000  0.00000000  0.95760000  1.0
  Li  Li11  1  0.75000000  0.50000000  0.95760000  1.0
  Sb  Sb12  2  0.49031000  0.25144000  0.13503000  1.0
  Sb  Sb13  2  0.50000000  0.24999000  0.95760000  1.0
  Sb  Sb14  1  -0.00000000  0.50000000  0.87280000  1.0
  Sb  Sb15  1  0.00000000  0.00000000  0.87280000  1.0
  Sb  Sb16  1  0.99385000  0.50000000  0.04327000  1.0
  Sb  Sb17  1  0.99560000  0.00000000  0.04401000  1.0
  Pd  Pd18  2  0.74045000  0.24940000  0.04813000  1.0
  Pd  Pd19  2  0.75000000  0.25001000  0.87280000  1.0
  Pd  Pd20  1  0.25000000  0.00000000  0.95760000  1.0
  Pd  Pd21  1  0.25000000  0.50000000  0.95760000  1.0
  Pd  Pd22  1  0.27511000  0.50000000  0.11510000  1.0
  Pd  Pd23  1  0.28526000  0.00000000  0.11465000  1.0
  C  C24  1  0.79662000  0.00000000  0.20655000  1.0
  O  O25  1  0.80397000  0.00000000  0.24905000  1.0
