data_image0
_chemical_formula_structural       Sc4In4Ag8CO
_chemical_formula_sum              "Sc4 In4 Ag8 C1 O1"
_cell_length_a       6.85473
_cell_length_b       6.85473
_cell_length_c       25.141
_cell_angle_alpha    90
_cell_angle_beta     90
_cell_angle_gamma    90

_space_group_name_H-M_alt    "P 1"
_space_group_IT_number       1

loop_
  _space_group_symop_operation_xyz
  'x, y, z'

loop_
  _atom_site_type_symbol
  _atom_site_label
  _atom_site_symmetry_multiplicity
  _atom_site_fract_x
  _atom_site_fract_y
  _atom_site_fract_z
  _atom_site_occupancy
  Sc  Sc1       1.0  0.00004  0.00014  0.09933  1.0000
  Sc  Sc2       1.0  0.50001  0.49993  0.09919  1.0000
  Sc  Sc3       1.0  0.50000  0.00000  0.96592  1.0000
  Sc  Sc4       1.0  0.00000  0.50000  0.96592  1.0000
  In  In1       1.0  0.00000  0.00000  0.96592  1.0000
  In  In2       1.0  0.50001  0.00003  0.11386  1.0000
  In  In3       1.0  0.00004  0.49993  0.10155  1.0000
  In  In4       1.0  0.50000  0.50000  0.96592  1.0000
  Ag  Ag1       1.0  0.25631  0.24345  0.03704  1.0000
  Ag  Ag2       1.0  0.75000  0.75000  0.89776  1.0000
  Ag  Ag3       1.0  0.74372  0.24346  0.03704  1.0000
  Ag  Ag4       1.0  0.25000  0.75000  0.89776  1.0000
  Ag  Ag5       1.0  0.74378  0.75656  0.03709  1.0000
  Ag  Ag6       1.0  0.25000  0.25000  0.89776  1.0000
  Ag  Ag7       1.0  0.25627  0.75655  0.03707  1.0000
  Ag  Ag8       1.0  0.75000  0.25000  0.89776  1.0000
  C   C1        1.0  0.99999  0.50013  0.19576  1.0000
  O   O1        1.0  0.99995  0.49994  0.24162  1.0000
