# generated using pymatgen
data_Sc4In4Ag8CO
_symmetry_space_group_name_H-M   Pm
_cell_length_a   6.85473000
_cell_length_b   6.85473000
_cell_length_c   25.14100000
_cell_angle_alpha   90.00000000
_cell_angle_beta   90.00000000
_cell_angle_gamma   90.00000000
_symmetry_Int_Tables_number   6
_chemical_formula_structural   Sc4In4Ag8CO
_chemical_formula_sum   'Sc4 In4 Ag8 C1 O1'
_cell_volume   1181.30829692
_cell_formula_units_Z   1
loop_
 _symmetry_equiv_pos_site_id
 _symmetry_equiv_pos_as_xyz
  1  'x, y, z'
  2  'x, -y, z'
loop_
 _atom_site_type_symbol
 _atom_site_label
 _atom_site_symmetry_multiplicity
 _atom_site_fract_x
 _atom_site_fract_y
 _atom_site_fract_z
 _atom_site_occupancy
  Sc  Sc0  1  0.00000000  0.50000000  0.96592000  1.0
  Sc  Sc1  1  0.00014000  0.00000000  0.09933000  1.0
  Sc  Sc2  1  0.49993000  0.50000000  0.09919000  1.0
  Sc  Sc3  1  0.50000000  0.00000000  0.96592000  1.0
  In  In4  1  0.00000000  0.00000000  0.96592000  1.0
  In  In5  1  0.00003000  0.50000000  0.11386000  1.0
  In  In6  1  0.49993000  0.00000000  0.10155000  1.0
  In  In7  1  0.50000000  0.50000000  0.96592000  1.0
  Ag  Ag8  2  0.24345000  0.25632000  0.03704000  1.0
  Ag  Ag9  2  0.25000000  0.25001000  0.89776000  1.0
  Ag  Ag10  2  0.75000000  0.24999000  0.89776000  1.0
  Ag  Ag11  2  0.75656000  0.25621000  0.03709000  1.0
  C  C12  1  0.50013000  0.00000000  0.19576000  1.0
  O  O13  1  0.49994000  0.00000000  0.24162000  1.0
