data_image0
_chemical_formula_structural       Ga8Ni8CO
_chemical_formula_sum              "Ga8 Ni8 C1 O1"
_cell_length_a       5.87849
_cell_length_b       5.87849
_cell_length_c       24.4089
_cell_angle_alpha    90
_cell_angle_beta     90
_cell_angle_gamma    90

_space_group_name_H-M_alt    "P 1"
_space_group_IT_number       1

loop_
  _space_group_symop_operation_xyz
  'x, y, z'

loop_
  _atom_site_type_symbol
  _atom_site_label
  _atom_site_symmetry_multiplicity
  _atom_site_fract_x
  _atom_site_fract_y
  _atom_site_fract_z
  _atom_site_occupancy
  Ga  Ga1       1.0  0.00000  0.00000  0.91227  1.0000
  Ga  Ga2       1.0  0.00068  0.00075  0.03603  1.0000
  Ga  Ga3       1.0  0.00000  0.50000  0.91227  1.0000
  Ga  Ga4       1.0  0.00076  0.49922  0.03605  1.0000
  Ga  Ga5       1.0  0.50000  0.00000  0.91227  1.0000
  Ga  Ga6       1.0  0.49931  0.00063  0.03599  1.0000
  Ga  Ga7       1.0  0.50000  0.50000  0.91227  1.0000
  Ga  Ga8       1.0  0.49922  0.49934  0.03601  1.0000
  Ni  Ni1       1.0  0.25000  0.25000  0.97248  1.0000
  Ni  Ni2       1.0  0.25064  0.25056  0.09470  1.0000
  Ni  Ni3       1.0  0.25000  0.75000  0.97248  1.0000
  Ni  Ni4       1.0  0.24992  0.75005  0.08909  1.0000
  Ni  Ni5       1.0  0.75000  0.25000  0.97248  1.0000
  Ni  Ni6       1.0  0.74985  0.24990  0.08900  1.0000
  Ni  Ni7       1.0  0.75000  0.75000  0.97248  1.0000
  Ni  Ni8       1.0  0.74991  0.74982  0.08788  1.0000
  C   C1        1.0  0.25007  0.24997  0.16780  1.0000
  O   O1        1.0  0.24997  0.25012  0.21502  1.0000
