# generated using pymatgen
data_Ga8Ni8CO
_symmetry_space_group_name_H-M   P1
_cell_length_a   5.87849000
_cell_length_b   5.87849000
_cell_length_c   24.40890000
_cell_angle_alpha   90.00000000
_cell_angle_beta   90.00000000
_cell_angle_gamma   90.00000000
_symmetry_Int_Tables_number   1
_chemical_formula_structural   Ga8Ni8CO
_chemical_formula_sum   'Ga8 Ni8 C1 O1'
_cell_volume   843.48968433
_cell_formula_units_Z   1
loop_
 _symmetry_equiv_pos_site_id
 _symmetry_equiv_pos_as_xyz
  1  'x, y, z'
loop_
 _atom_site_type_symbol
 _atom_site_label
 _atom_site_symmetry_multiplicity
 _atom_site_fract_x
 _atom_site_fract_y
 _atom_site_fract_z
 _atom_site_occupancy
  Ga  Ga0  1  0.00000000  0.00000000  0.91227000  1.0
  Ga  Ga1  1  0.00000000  0.50000000  0.91227000  1.0
  Ga  Ga2  1  0.00068000  0.00075000  0.03603000  1.0
  Ga  Ga3  1  0.00076000  0.49922000  0.03605000  1.0
  Ga  Ga4  1  0.49922000  0.49934000  0.03601000  1.0
  Ga  Ga5  1  0.49931000  0.00063000  0.03599000  1.0
  Ga  Ga6  1  0.50000000  0.00000000  0.91227000  1.0
  Ga  Ga7  1  0.50000000  0.50000000  0.91227000  1.0
  Ni  Ni8  1  0.24992000  0.75005000  0.08909000  1.0
  Ni  Ni9  1  0.25000000  0.25000000  0.97248000  1.0
  Ni  Ni10  1  0.25000000  0.75000000  0.97248000  1.0
  Ni  Ni11  1  0.25064000  0.25056000  0.09470000  1.0
  Ni  Ni12  1  0.74985000  0.24990000  0.08900000  1.0
  Ni  Ni13  1  0.74991000  0.74982000  0.08788000  1.0
  Ni  Ni14  1  0.75000000  0.25000000  0.97248000  1.0
  Ni  Ni15  1  0.75000000  0.75000000  0.97248000  1.0
  C  C16  1  0.25007000  0.24997000  0.16780000  1.0
  O  O17  1  0.24997000  0.25012000  0.21502000  1.0
