data_image0
_chemical_formula_structural       Mg8In8Ni16C
_chemical_formula_sum              "Mg8 In8 Ni16 C1"
_cell_length_a       6.24448
_cell_length_b       8.83103
_cell_length_c       26.6233
_cell_angle_alpha    90
_cell_angle_beta     90
_cell_angle_gamma    90

_space_group_name_H-M_alt    "P 1"
_space_group_IT_number       1

loop_
  _space_group_symop_operation_xyz
  'x, y, z'

loop_
  _atom_site_type_symbol
  _atom_site_label
  _atom_site_symmetry_multiplicity
  _atom_site_fract_x
  _atom_site_fract_y
  _atom_site_fract_z
  _atom_site_occupancy
  Mg  Mg1       1.0  0.00000  0.00000  0.87561  1.0000
  Mg  Mg2       1.0  0.50000  0.25000  0.95854  1.0000
  Mg  Mg3       1.0  0.50000  0.75000  0.95854  1.0000
  Mg  Mg4       1.0  0.00000  0.50000  0.87561  1.0000
  Mg  Mg5       1.0  0.99555  0.50678  0.03829  1.0000
  Mg  Mg6       1.0  0.50417  0.74864  0.12761  1.0000
  Mg  Mg7       1.0  0.53452  0.24972  0.12818  1.0000
  Mg  Mg8       1.0  0.99512  0.99340  0.03830  1.0000
  In  In1       1.0  0.00000  0.75000  0.95854  1.0000
  In  In2       1.0  0.50000  0.00000  0.87561  1.0000
  In  In3       1.0  0.00000  0.25000  0.95854  1.0000
  In  In4       1.0  0.50000  0.50000  0.87561  1.0000
  In  In5       1.0  0.92723  0.24873  0.17563  1.0000
  In  In6       1.0  0.49736  0.49493  0.04382  1.0000
  In  In7       1.0  0.01281  0.74942  0.12912  1.0000
  In  In8       1.0  0.49777  0.00497  0.04383  1.0000
  Ni  Ni1       1.0  0.25000  0.00000  0.95854  1.0000
  Ni  Ni2       1.0  0.75000  0.50000  0.95854  1.0000
  Ni  Ni3       1.0  0.75000  0.00000  0.95854  1.0000
  Ni  Ni4       1.0  0.25000  0.50000  0.95854  1.0000
  Ni  Ni5       1.0  0.75000  0.75000  0.87561  1.0000
  Ni  Ni6       1.0  0.25000  0.25000  0.87561  1.0000
  Ni  Ni7       1.0  0.25000  0.75000  0.87561  1.0000
  Ni  Ni8       1.0  0.75000  0.25000  0.87561  1.0000
  Ni  Ni9       1.0  0.19206  0.45390  0.12116  1.0000
  Ni  Ni10      1.0  0.77739  0.99828  0.12009  1.0000
  Ni  Ni11      1.0  0.77774  0.50049  0.12001  1.0000
  Ni  Ni12      1.0  0.19325  0.04367  0.12099  1.0000
  Ni  Ni13      1.0  0.76794  0.25017  0.04330  1.0000
  Ni  Ni14      1.0  0.25768  0.75024  0.04166  1.0000
  Ni  Ni15      1.0  0.21765  0.24989  0.04694  1.0000
  Ni  Ni16      1.0  0.74335  0.74992  0.04367  1.0000
  C   C1        1.0  0.19656  0.24881  0.11623  1.0000
