# generated using pymatgen
data_Mg8In8Ni16C
_symmetry_space_group_name_H-M   'P 1'
_cell_length_a   6.24448000
_cell_length_b   8.83103000
_cell_length_c   26.62330000
_cell_angle_alpha   90.00000000
_cell_angle_beta   90.00000000
_cell_angle_gamma   90.00000000
_symmetry_Int_Tables_number   1
_chemical_formula_structural   Mg8In8Ni16C
_chemical_formula_sum   'Mg8 In8 Ni16 C1'
_cell_volume   1468.14694264
_cell_formula_units_Z   1
loop_
 _symmetry_equiv_pos_site_id
 _symmetry_equiv_pos_as_xyz
  1  'x, y, z'
loop_
 _atom_site_type_symbol
 _atom_site_label
 _atom_site_symmetry_multiplicity
 _atom_site_fract_x
 _atom_site_fract_y
 _atom_site_fract_z
 _atom_site_occupancy
  Mg  Mg0  1  0.00000000  0.00000000  0.87561000  1.0
  Mg  Mg1  1  0.50000000  0.25000000  0.95854000  1.0
  Mg  Mg2  1  0.50000000  0.75000000  0.95854000  1.0
  Mg  Mg3  1  0.00000000  0.50000000  0.87561000  1.0
  Mg  Mg4  1  0.99665000  0.50656000  0.03823000  1.0
  Mg  Mg5  1  0.50307000  0.74932000  0.12759000  1.0
  Mg  Mg6  1  0.53060000  0.24896000  0.12790000  1.0
  Mg  Mg7  1  0.99640000  0.99329000  0.03818000  1.0
  In  In8  1  0.00000000  0.75000000  0.95854000  1.0
  In  In9  1  0.50000000  0.00000000  0.87561000  1.0
  In  In10  1  0.00000000  0.25000000  0.95854000  1.0
  In  In11  1  0.50000000  0.50000000  0.87561000  1.0
  In  In12  1  0.92794000  0.24885000  0.17362000  1.0
  In  In13  1  0.49888000  0.49516000  0.04329000  1.0
  In  In14  1  0.01118000  0.74912000  0.12861000  1.0
  In  In15  1  0.49923000  0.00448000  0.04318000  1.0
  Ni  Ni16  1  0.25000000  0.00000000  0.95854000  1.0
  Ni  Ni17  1  0.75000000  0.50000000  0.95854000  1.0
  Ni  Ni18  1  0.75000000  0.00000000  0.95854000  1.0
  Ni  Ni19  1  0.25000000  0.50000000  0.95854000  1.0
  Ni  Ni20  1  0.75000000  0.75000000  0.87561000  1.0
  Ni  Ni21  1  0.25000000  0.25000000  0.87561000  1.0
  Ni  Ni22  1  0.25000000  0.75000000  0.87561000  1.0
  Ni  Ni23  1  0.75000000  0.25000000  0.87561000  1.0
  Ni  Ni24  1  0.19406000  0.45424000  0.12008000  1.0
  Ni  Ni25  1  0.77634000  0.99868000  0.11967000  1.0
  Ni  Ni26  1  0.77621000  0.49991000  0.11964000  1.0
  Ni  Ni27  1  0.19513000  0.04303000  0.12000000  1.0
  Ni  Ni28  1  0.76963000  0.24980000  0.04373000  1.0
  Ni  Ni29  1  0.25797000  0.74999000  0.04184000  1.0
  Ni  Ni30  1  0.22304000  0.24980000  0.04447000  1.0
  Ni  Ni31  1  0.74308000  0.74982000  0.04352000  1.0
  C  C32  1  0.19435000  0.24860000  0.11331000  1.0
