# generated using pymatgen
data_Al4Cu12C
_symmetry_space_group_name_H-M   'P 1'
_cell_length_a   5.88044000
_cell_length_b   5.88044000
_cell_length_c   24.41030000
_cell_angle_alpha   90.00000000
_cell_angle_beta   90.00000000
_cell_angle_gamma   90.00000000
_symmetry_Int_Tables_number   1
_chemical_formula_structural   Al4Cu12C
_chemical_formula_sum   'Al4 Cu12 C1'
_cell_volume   844.09778970
_cell_formula_units_Z   1
loop_
 _symmetry_equiv_pos_site_id
 _symmetry_equiv_pos_as_xyz
  1  'x, y, z'
loop_
 _atom_site_type_symbol
 _atom_site_label
 _atom_site_symmetry_multiplicity
 _atom_site_fract_x
 _atom_site_fract_y
 _atom_site_fract_z
 _atom_site_occupancy
  Al  Al0  1  0.75000000  0.25000000  0.09034000  1
  Al  Al1  1  0.25000000  0.75000000  0.09034000  1
  Al  Al2  1  0.75000000  0.75000000  0.96989000  1
  Al  Al3  1  0.25000000  0.25000000  0.96989000  1
  Cu  Cu4  1  0.50000000  0.50000000  0.03011000  1
  Cu  Cu5  1  0.00000000  0.00000000  0.90966000  1
  Cu  Cu6  1  0.50000000  0.00000000  0.03011000  1
  Cu  Cu7  1  0.00000000  0.50000000  0.90966000  1
  Cu  Cu8  1  0.00000000  0.00000000  0.03011000  1
  Cu  Cu9  1  0.50000000  0.50000000  0.90966000  1
  Cu  Cu10  1  0.00000000  0.50000000  0.03011000  1
  Cu  Cu11  1  0.50000000  0.00000000  0.90966000  1
  Cu  Cu12  1  0.75000000  0.25000000  0.96989000  1
  Cu  Cu13  1  0.75000000  0.75000000  0.09034000  1
  Cu  Cu14  1  0.25000000  0.25000000  0.09034000  1
  Cu  Cu15  1  0.25000000  0.75000000  0.96989000  1
  C  C16  1  0.50000000  0.50000000  0.12311000  1
