# generated using pymatgen
data_Y16Au16CO
_symmetry_space_group_name_H-M   Pm
_cell_length_a   10.24760000
_cell_length_b   7.24612000
_cell_length_c   27.68570000
_cell_angle_alpha   90.00000000
_cell_angle_beta   90.00000000
_cell_angle_gamma   90.00000000
_symmetry_Int_Tables_number   6
_chemical_formula_structural   Y16Au16CO
_chemical_formula_sum   'Y16 Au16 C1 O1'
_cell_volume   2055.81104759
_cell_formula_units_Z   1
loop_
 _symmetry_equiv_pos_site_id
 _symmetry_equiv_pos_as_xyz
  1  'x, y, z'
  2  'x, -y, z'
loop_
 _atom_site_type_symbol
 _atom_site_label
 _atom_site_symmetry_multiplicity
 _atom_site_fract_x
 _atom_site_fract_y
 _atom_site_fract_z
 _atom_site_occupancy
  Y  Y0  2  0.00000000  0.25000000  0.95373000  1.0
  Y  Y1  2  0.24989000  0.24631000  0.04672000  1.0
  Y  Y2  2  0.25000000  0.25000000  0.86120000  1.0
  Y  Y3  2  0.50000000  0.25000000  0.95373000  1.0
  Y  Y4  2  0.50379000  0.25255000  0.13813000  1.0
  Y  Y5  2  0.74983000  0.25195000  0.04542000  1.0
  Y  Y6  2  0.75000000  0.25000000  0.86120000  1.0
  Y  Y7  2  0.99632000  0.25226000  0.13801000  1.0
  Au  Au8  1  0.00000000  0.00000000  0.86120000  1.0
  Au  Au9  1  0.00000000  0.50000000  0.86120000  1.0
  Au  Au10  1  0.00329000  0.50000000  0.04793000  1.0
  Au  Au11  1  0.25000000  0.00000000  0.95373000  1.0
  Au  Au12  1  0.25000000  0.50000000  0.95373000  1.0
  Au  Au13  1  0.25006000  0.50000000  0.13280000  1.0
  Au  Au14  1  0.25026000  0.00000000  0.13619000  1.0
  Au  Au15  1  0.49645000  0.50000000  0.04791000  1.0
  Au  Au16  1  0.50000000  0.00000000  0.86120000  1.0
  Au  Au17  1  0.50000000  0.50000000  0.86120000  1.0
  Au  Au18  1  0.50546000  0.00000000  0.04775000  1.0
  Au  Au19  1  0.74999000  0.00000000  0.13172000  1.0
  Au  Au20  1  0.75000000  0.00000000  0.95373000  1.0
  Au  Au21  1  0.75000000  0.50000000  0.95373000  1.0
  Au  Au22  1  0.75008000  0.50000000  0.13274000  1.0
  Au  Au23  1  0.99360000  0.00000000  0.04734000  1.0
  C  C24  1  0.25280000  0.00000000  0.21401000  1.0
  O  O25  1  0.24917000  0.00000000  0.25591000  1.0
