# generated using pymatgen
data_AlIr
_symmetry_space_group_name_H-M   'P 1'
_cell_length_a   3.01818000
_cell_length_b   3.01818000
_cell_length_c   24.52730000
_cell_angle_alpha   90.00000000
_cell_angle_beta   90.00000000
_cell_angle_gamma   90.00000000
_symmetry_Int_Tables_number   1
_chemical_formula_structural   AlIr
_chemical_formula_sum   'Al2 Ir2'
_cell_volume   223.42924446
_cell_formula_units_Z   2
loop_
 _symmetry_equiv_pos_site_id
 _symmetry_equiv_pos_as_xyz
  1  'x, y, z'
loop_
 _atom_site_type_symbol
 _atom_site_label
 _atom_site_symmetry_multiplicity
 _atom_site_fract_x
 _atom_site_fract_y
 _atom_site_fract_z
 _atom_site_occupancy
  Al  Al0  1  0.50000000  0.50000000  0.05395000  1.0
  Al  Al1  1  0.50000000  0.50000000  0.93090000  1.0
  Ir  Ir2  1  0.00000000  0.00000000  0.11548000  1.0
  Ir  Ir3  1  0.00000000  0.00000000  0.99243000  1.0
