# generated using pymatgen
data_Li4Ag4Ge4Pd4C
_symmetry_space_group_name_H-M   'P 1'
_cell_length_a   6.28256000
_cell_length_b   6.28256000
_cell_length_c   24.71190000
_cell_angle_alpha   90.00000000
_cell_angle_beta   90.00000000
_cell_angle_gamma   90.00000000
_symmetry_Int_Tables_number   1
_chemical_formula_structural   Li4Ag4Ge4Pd4C
_chemical_formula_sum   'Li4 Ag4 Ge4 Pd4 C1'
_cell_volume   975.39253546
_cell_formula_units_Z   1
loop_
 _symmetry_equiv_pos_site_id
 _symmetry_equiv_pos_as_xyz
  1  'x, y, z'
loop_
 _atom_site_type_symbol
 _atom_site_label
 _atom_site_symmetry_multiplicity
 _atom_site_fract_x
 _atom_site_fract_y
 _atom_site_fract_z
 _atom_site_occupancy
  Li  Li0  1  0.75000000  0.75000000  0.96822000  1
  Li  Li1  1  0.25968000  0.74032000  0.10505000  1
  Li  Li2  1  0.74032000  0.25968000  0.10505000  1
  Li  Li3  1  0.25000000  0.25000000  0.96822000  1
  Ag  Ag4  1  0.00000000  0.50000000  0.90466000  1
  Ag  Ag5  1  0.50000000  0.50000000  0.02354000  1
  Ag  Ag6  1  0.00000000  0.00000000  0.03540000  1
  Ag  Ag7  1  0.50000000  0.00000000  0.90466000  1
  Ge  Ge8  1  0.75000000  0.25000000  0.96822000  1
  Ge  Ge9  1  0.28299500  0.28299500  0.10615000  1
  Ge  Ge10  1  0.71700500  0.71700500  0.10615000  1
  Ge  Ge11  1  0.25000000  0.75000000  0.96822000  1
  Pd  Pd12  1  0.50000000  0.50000000  0.90466000  1
  Pd  Pd13  1  0.00000000  0.50000000  0.04114000  1
  Pd  Pd14  1  0.50000000  0.00000000  0.04114000  1
  Pd  Pd15  1  0.00000000  0.00000000  0.90466000  1
  C  C16  1  0.50000000  0.50000000  0.11549000  1
