# generated using pymatgen
data_LiScInGa
_symmetry_space_group_name_H-M   'P 1'
_cell_length_a   8.86716000
_cell_length_b   5.87074000
_cell_length_c   24.40240000
_cell_angle_alpha   90.00000000
_cell_angle_beta   90.00000000
_cell_angle_gamma   90.00000000
_symmetry_Int_Tables_number   1
_chemical_formula_structural   LiScInGa
_chemical_formula_sum   'Li4 Sc4 In4 Ga4'
_cell_volume   1270.31063422
_cell_formula_units_Z   4
loop_
 _symmetry_equiv_pos_site_id
 _symmetry_equiv_pos_as_xyz
  1  'x, y, z'
loop_
 _atom_site_type_symbol
 _atom_site_label
 _atom_site_symmetry_multiplicity
 _atom_site_fract_x
 _atom_site_fract_y
 _atom_site_fract_z
 _atom_site_occupancy
  Li  Li0  1  0.24999000  0.67594000  0.96927000  1.0
  Li  Li1  1  0.24999000  0.23717000  0.09020000  1.0
  Li  Li2  1  0.75001000  0.67594000  0.96927000  1.0
  Li  Li3  1  0.75001000  0.23717000  0.09020000  1.0
  Sc  Sc4  1  0.00000000  0.41672000  0.90805000  1.0
  Sc  Sc5  1  0.00000000  0.99145000  0.03007000  1.0
  Sc  Sc6  1  0.50000000  0.41643000  0.90805000  1.0
  Sc  Sc7  1  0.50000000  0.99145000  0.03007000  1.0
  In  In8  1  0.24976000  0.17240000  0.95821000  1.0
  In  In9  1  0.24999000  0.73717000  0.09020000  1.0
  In  In10  1  0.75024000  0.17240000  0.95821000  1.0
  In  In11  1  0.75001000  0.73717000  0.09020000  1.0
  Ga  Ga12  1  0.00000000  0.89959000  0.91038000  1.0
  Ga  Ga13  1  0.00000000  0.49145000  0.03007000  1.0
  Ga  Ga14  1  0.50000000  0.89945000  0.91041000  1.0
  Ga  Ga15  1  0.50000000  0.49145000  0.03007000  1.0
