# generated using pymatgen
data_Li8Mg8In8Pb8C
_symmetry_space_group_name_H-M   P1
_cell_length_a   7.11424000
_cell_length_b   10.06110000
_cell_length_c   27.54580000
_cell_angle_alpha   90.00000000
_cell_angle_beta   90.00000000
_cell_angle_gamma   90.00000000
_symmetry_Int_Tables_number   1
_chemical_formula_structural   Li8Mg8In8Pb8C
_chemical_formula_sum   'Li8 Mg8 In8 Pb8 C1'
_cell_volume   1971.64793203
_cell_formula_units_Z   1
loop_
 _symmetry_equiv_pos_site_id
 _symmetry_equiv_pos_as_xyz
  1  'x, y, z'
loop_
 _atom_site_type_symbol
 _atom_site_label
 _atom_site_symmetry_multiplicity
 _atom_site_fract_x
 _atom_site_fract_y
 _atom_site_fract_z
 _atom_site_occupancy
  Li  Li0  1  0.24251000  0.75051000  0.04672000  1.0
  Li  Li1  1  0.24529000  0.25047000  0.04438000  1.0
  Li  Li2  1  0.25000000  0.25000000  0.86303000  1.0
  Li  Li3  1  0.25000000  0.75000000  0.86303000  1.0
  Li  Li4  1  0.75000000  0.00000000  0.95434000  1.0
  Li  Li5  1  0.75000000  0.50000000  0.95434000  1.0
  Li  Li6  1  0.75459000  0.98161000  0.14392000  1.0
  Li  Li7  1  0.75481000  0.51764000  0.14387000  1.0
  Mg  Mg8  1  0.25000000  0.00000000  0.95434000  1.0
  Mg  Mg9  1  0.25000000  0.50000000  0.95434000  1.0
  Mg  Mg10  1  0.25147000  0.46891000  0.17112000  1.0
  Mg  Mg11  1  0.25187000  0.02949000  0.17119000  1.0
  Mg  Mg12  1  0.74884000  0.25113000  0.04293000  1.0
  Mg  Mg13  1  0.75000000  0.25000000  0.86303000  1.0
  Mg  Mg14  1  0.75000000  0.75000000  0.86303000  1.0
  Mg  Mg15  1  0.76224000  0.74947000  0.05559000  1.0
  In  In16  1  0.00000000  0.00000000  0.86303000  1.0
  In  In17  1  0.00000000  0.50000000  0.86303000  1.0
  In  In18  1  0.01760000  0.99949000  0.05689000  1.0
  In  In19  1  0.01825000  0.50090000  0.05704000  1.0
  In  In20  1  0.48473000  0.74985000  0.14916000  1.0
  In  In21  1  0.50000000  0.25000000  0.95434000  1.0
  In  In22  1  0.50000000  0.75000000  0.95434000  1.0
  In  In23  1  0.51758000  0.24965000  0.13639000  1.0
  Pb  Pb24  1  0.00000000  0.25000000  0.95434000  1.0
  Pb  Pb25  1  0.00000000  0.75000000  0.95434000  1.0
  Pb  Pb26  1  0.02745000  0.74966000  0.15483000  1.0
  Pb  Pb27  1  0.48654000  0.50308000  0.05567000  1.0
  Pb  Pb28  1  0.48755000  0.99747000  0.05547000  1.0
  Pb  Pb29  1  0.50000000  0.00000000  0.86303000  1.0
  Pb  Pb30  1  0.50000000  0.50000000  0.86303000  1.0
  Pb  Pb31  1  0.97251000  0.24937000  0.14008000  1.0
  C  C32  1  0.26130000  0.24927000  0.18197000  1.0
