data_image0
_chemical_formula_structural       Ti4Al4Au8
_chemical_formula_sum              "Ti4 Al4 Au8"
_cell_length_a       6.4988
_cell_length_b       6.4988
_cell_length_c       24.8741
_cell_angle_alpha    90
_cell_angle_beta     90
_cell_angle_gamma    90

_space_group_name_H-M_alt    "P 1"
_space_group_IT_number       1

loop_
  _space_group_symop_operation_xyz
  'x, y, z'

loop_
  _atom_site_type_symbol
  _atom_site_label
  _atom_site_symmetry_multiplicity
  _atom_site_fract_x
  _atom_site_fract_y
  _atom_site_fract_z
  _atom_site_occupancy
  Ti  Ti1       1.0  0.00000  0.00000  0.09798  1.0000
  Ti  Ti2       1.0  0.50000  0.50000  0.09798  1.0000
  Ti  Ti3       1.0  0.50000  0.00000  0.96734  1.0000
  Ti  Ti4       1.0  0.00000  0.50000  0.96734  1.0000
  Al  Al1       1.0  0.00000  0.00000  0.96734  1.0000
  Al  Al2       1.0  0.50000  0.00000  0.09798  1.0000
  Al  Al3       1.0  0.00000  0.50000  0.09798  1.0000
  Al  Al4       1.0  0.50000  0.50000  0.96734  1.0000
  Au  Au1       1.0  0.25000  0.25000  0.03266  1.0000
  Au  Au2       1.0  0.75000  0.75000  0.90202  1.0000
  Au  Au3       1.0  0.75000  0.25000  0.03266  1.0000
  Au  Au4       1.0  0.25000  0.75000  0.90202  1.0000
  Au  Au5       1.0  0.75000  0.75000  0.03266  1.0000
  Au  Au6       1.0  0.25000  0.25000  0.90202  1.0000
  Au  Au7       1.0  0.25000  0.75000  0.03266  1.0000
  Au  Au8       1.0  0.75000  0.25000  0.90202  1.0000
