# generated using pymatgen
data_Ti8Co16Ge8CO
_symmetry_space_group_name_H-M   'P 1'
_cell_length_a   8.31620000
_cell_length_b   5.88044000
_cell_length_c   26.23710000
_cell_angle_alpha   90.00000000
_cell_angle_beta   90.00000000
_cell_angle_gamma   90.00000000
_symmetry_Int_Tables_number   1
_chemical_formula_structural   Ti8Co16Ge8CO
_chemical_formula_sum   'Ti8 Co16 Ge8 C1 O1'
_cell_volume   1283.07067450
_cell_formula_units_Z   1
loop_
 _symmetry_equiv_pos_site_id
 _symmetry_equiv_pos_as_xyz
  1  'x, y, z'
loop_
 _atom_site_type_symbol
 _atom_site_label
 _atom_site_symmetry_multiplicity
 _atom_site_fract_x
 _atom_site_fract_y
 _atom_site_fract_z
 _atom_site_occupancy
  Ti  Ti0  1  0.00000000  0.00000000  0.11886000  1.0
  Ti  Ti1  1  0.25000000  0.50000000  0.03962000  1.0
  Ti  Ti2  1  0.75000000  0.50000000  0.03962000  1.0
  Ti  Ti3  1  0.50000000  0.00000000  0.11886000  1.0
  Ti  Ti4  1  0.50000000  0.00000000  0.96038000  1.0
  Ti  Ti5  1  0.75000000  0.50000000  0.88114000  1.0
  Ti  Ti6  1  0.25000000  0.50000000  0.88114000  1.0
  Ti  Ti7  1  0.00000000  0.00000000  0.96038000  1.0
  Co  Co8  1  0.00000000  0.25000000  0.03962000  1.0
  Co  Co9  1  0.50000000  0.75000000  0.03962000  1.0
  Co  Co10  1  0.00000000  0.75000000  0.03962000  1.0
  Co  Co11  1  0.50000000  0.25000000  0.03962000  1.0
  Co  Co12  1  0.75000000  0.75000000  0.11886000  1.0
  Co  Co13  1  0.25000000  0.25000000  0.11886000  1.0
  Co  Co14  1  0.75000000  0.25000000  0.11886000  1.0
  Co  Co15  1  0.25000000  0.75000000  0.11886000  1.0
  Co  Co16  1  0.50000000  0.25000000  0.88114000  1.0
  Co  Co17  1  0.00000000  0.75000000  0.88114000  1.0
  Co  Co18  1  0.50000000  0.75000000  0.88114000  1.0
  Co  Co19  1  0.00000000  0.25000000  0.88114000  1.0
  Co  Co20  1  0.25000000  0.75000000  0.96038000  1.0
  Co  Co21  1  0.75000000  0.25000000  0.96038000  1.0
  Co  Co22  1  0.25000000  0.25000000  0.96038000  1.0
  Co  Co23  1  0.75000000  0.75000000  0.96038000  1.0
  Ge  Ge24  1  0.75000000  0.00000000  0.03962000  1.0
  Ge  Ge25  1  0.00000000  0.50000000  0.11886000  1.0
  Ge  Ge26  1  0.25000000  0.00000000  0.03962000  1.0
  Ge  Ge27  1  0.50000000  0.50000000  0.11886000  1.0
  Ge  Ge28  1  0.25000000  0.00000000  0.88114000  1.0
  Ge  Ge29  1  0.50000000  0.50000000  0.96038000  1.0
  Ge  Ge30  1  0.75000000  0.00000000  0.88114000  1.0
  Ge  Ge31  1  0.00000000  0.50000000  0.96038000  1.0
  C  C32  1  0.00000000  0.25000000  0.80872000  1.0
  O  O33  1  0.00000000  0.25000000  0.76489000  1.0
