# generated using pymatgen
data_Li8Zn4Ge4C
_symmetry_space_group_name_H-M   'P 1'
_cell_length_a   6.18893000
_cell_length_b   6.18893000
_cell_length_c   24.64170000
_cell_angle_alpha   90.00000000
_cell_angle_beta   90.00000000
_cell_angle_gamma   90.00000000
_symmetry_Int_Tables_number   1
_chemical_formula_structural   Li8Zn4Ge4C
_chemical_formula_sum   'Li8 Zn4 Ge4 C1'
_cell_volume   943.84745084
_cell_formula_units_Z   1
loop_
 _symmetry_equiv_pos_site_id
 _symmetry_equiv_pos_as_xyz
  1  'x, y, z'
loop_
 _atom_site_type_symbol
 _atom_site_label
 _atom_site_symmetry_multiplicity
 _atom_site_fract_x
 _atom_site_fract_y
 _atom_site_fract_z
 _atom_site_occupancy
  Li  Li0  1  0.00000000  0.00000000  0.09418000  1.0
  Li  Li1  1  0.50000000  0.50000000  0.09418000  1.0
  Li  Li2  1  0.50000000  0.00000000  0.96312000  1.0
  Li  Li3  1  0.00000000  0.50000000  0.97368000  1.0
  Li  Li4  1  0.23565000  0.26208000  0.88690000  1.0
  Li  Li5  1  0.25000000  0.75000000  0.03139000  1.0
  Li  Li6  1  0.76435000  0.73792000  0.88690000  1.0
  Li  Li7  1  0.75000000  0.25000000  0.03139000  1.0
  Zn  Zn8  1  0.25000000  0.25000000  0.03139000  1.0
  Zn  Zn9  1  0.21630000  0.71526000  0.90395000  1.0
  Zn  Zn10  1  0.75000000  0.75000000  0.03139000  1.0
  Zn  Zn11  1  0.78370000  0.28474000  0.90395000  1.0
  Ge  Ge12  1  0.00000000  0.00000000  0.96509000  1.0
  Ge  Ge13  1  0.50000000  0.00000000  0.09418000  1.0
  Ge  Ge14  1  0.00000000  0.50000000  0.09418000  1.0
  Ge  Ge15  1  0.50000000  0.50000000  0.96507000  1.0
  C  C16  1  0.00000000  0.50000000  0.88479000  1.0
