# generated using pymatgen
data_Li8Zn4Ge4C
_symmetry_space_group_name_H-M   P2
_cell_length_a   6.18893000
_cell_length_b   24.64170000
_cell_length_c   6.18893000
_cell_angle_alpha   90.00000000
_cell_angle_beta   90.00000000
_cell_angle_gamma   90.00000000
_symmetry_Int_Tables_number   3
_chemical_formula_structural   Li8Zn4Ge4C
_chemical_formula_sum   'Li8 Zn4 Ge4 C1'
_cell_volume   943.84745084
_cell_formula_units_Z   1
loop_
 _symmetry_equiv_pos_site_id
 _symmetry_equiv_pos_as_xyz
  1  'x, y, z'
  2  '-x, y, -z'
loop_
 _atom_site_type_symbol
 _atom_site_label
 _atom_site_symmetry_multiplicity
 _atom_site_fract_x
 _atom_site_fract_y
 _atom_site_fract_z
 _atom_site_occupancy
  Li  Li0  2  0.25000000  0.96861000  0.75000000  1.0
  Li  Li1  2  0.26208000  0.11310000  0.23565000  1.0
  Li  Li2  1  0.00000000  0.03688000  0.50000000  1.0
  Li  Li3  1  0.00000000  0.90582000  0.00000000  1.0
  Li  Li4  1  0.50000000  0.02632000  0.00000000  1.0
  Li  Li5  1  0.50000000  0.90582000  0.50000000  1.0
  Zn  Zn6  2  0.25000000  0.96861000  0.25000000  1.0
  Zn  Zn7  2  0.28474000  0.09605000  0.78370000  1.0
  Ge  Ge8  1  0.00000000  0.03491000  0.00000000  1.0
  Ge  Ge9  1  0.00000000  0.90582000  0.50000000  1.0
  Ge  Ge10  1  0.50000000  0.03493000  0.50000000  1.0
  Ge  Ge11  1  0.50000000  0.90582000  0.00000000  1.0
  C  C12  1  0.50000000  0.11521000  0.00000000  1.0
