# generated using pymatgen
data_Li8Al8In8Pd8C
_symmetry_space_group_name_H-M   'P 1'
_cell_length_a   9.04374000
_cell_length_b   6.39489000
_cell_length_c   26.78280000
_cell_angle_alpha   90.00000000
_cell_angle_beta   90.00000000
_cell_angle_gamma   90.00000000
_symmetry_Int_Tables_number   1
_chemical_formula_structural   Li8Al8In8Pd8C
_chemical_formula_sum   'Li8 Al8 In8 Pd8 C1'
_cell_volume   1548.94902267
_cell_formula_units_Z   1
loop_
 _symmetry_equiv_pos_site_id
 _symmetry_equiv_pos_as_xyz
  1  'x, y, z'
loop_
 _atom_site_type_symbol
 _atom_site_label
 _atom_site_symmetry_multiplicity
 _atom_site_fract_x
 _atom_site_fract_y
 _atom_site_fract_z
 _atom_site_occupancy
  Li  Li0  1  0.00000000  0.75000000  0.04221000  1.0
  Li  Li1  1  0.50000000  0.75000000  0.04221000  1.0
  Li  Li2  1  0.25000000  0.25000000  0.12663000  1.0
  Li  Li3  1  0.75000000  0.25000000  0.12663000  1.0
  Li  Li4  1  0.50000000  0.67649000  0.84983000  1.0
  Li  Li5  1  0.00000000  0.79002000  0.82607000  1.0
  Li  Li6  1  0.75105000  0.22047000  0.94988000  1.0
  Li  Li7  1  0.24895000  0.22047000  0.94988000  1.0
  Al  Al8  1  0.00000000  0.00000000  0.12663000  1.0
  Al  Al9  1  0.50000000  0.00000000  0.12663000  1.0
  Al  Al10  1  0.75000000  0.50000000  0.04221000  1.0
  Al  Al11  1  0.25000000  0.50000000  0.04221000  1.0
  Al  Al12  1  0.50000000  0.97171000  0.94908000  1.0
  Al  Al13  1  0.00000000  0.94987000  0.94925000  1.0
  Al  Al14  1  0.21673000  0.52042000  0.87041000  1.0
  Al  Al15  1  0.78327000  0.52042000  0.87041000  1.0
  In  In16  1  0.25000000  0.00000000  0.04221000  1.0
  In  In17  1  0.75000000  0.00000000  0.04221000  1.0
  In  In18  1  0.50000000  0.50000000  0.12663000  1.0
  In  In19  1  0.00000000  0.50000000  0.12663000  1.0
  In  In20  1  0.73431000  0.98248000  0.85485000  1.0
  In  In21  1  0.26569000  0.98248000  0.85485000  1.0
  In  In22  1  0.00000000  0.49276000  0.95614000  1.0
  In  In23  1  0.50000000  0.49693000  0.95793000  1.0
  Pd  Pd24  1  0.00000000  0.25000000  0.04221000  1.0
  Pd  Pd25  1  0.50000000  0.25000000  0.04221000  1.0
  Pd  Pd26  1  0.25000000  0.75000000  0.12663000  1.0
  Pd  Pd27  1  0.75000000  0.75000000  0.12663000  1.0
  Pd  Pd28  1  0.50000000  0.24703000  0.87827000  1.0
  Pd  Pd29  1  0.00000000  0.18249000  0.87612000  1.0
  Pd  Pd30  1  0.74651000  0.74801000  0.95999000  1.0
  Pd  Pd31  1  0.25349000  0.74801000  0.95999000  1.0
  C  C32  1  0.00000000  0.51262000  0.86472000  1.0
