# generated using pymatgen
data_Li8Al8In8Pd8C
_symmetry_space_group_name_H-M   Pm
_cell_length_a   6.39489000
_cell_length_b   9.04374000
_cell_length_c   26.78280000
_cell_angle_alpha   90.00000000
_cell_angle_beta   90.00000000
_cell_angle_gamma   90.00000000
_symmetry_Int_Tables_number   6
_chemical_formula_structural   Li8Al8In8Pd8C
_chemical_formula_sum   'Li8 Al8 In8 Pd8 C1'
_cell_volume   1548.94902267
_cell_formula_units_Z   1
loop_
 _symmetry_equiv_pos_site_id
 _symmetry_equiv_pos_as_xyz
  1  'x, y, z'
  2  'x, -y, z'
loop_
 _atom_site_type_symbol
 _atom_site_label
 _atom_site_symmetry_multiplicity
 _atom_site_fract_x
 _atom_site_fract_y
 _atom_site_fract_z
 _atom_site_occupancy
  Li  Li0  2  0.22047000  0.24895000  0.05012000  1.0
  Li  Li1  2  0.25000000  0.25000000  0.87337000  1.0
  Li  Li2  1  0.67649000  0.50000000  0.15017000  1.0
  Li  Li3  1  0.75000000  0.00000000  0.95779000  1.0
  Li  Li4  1  0.75000000  0.50000000  0.95779000  1.0
  Li  Li5  1  0.79002000  0.00000000  0.17393000  1.0
  Al  Al6  2  0.50000000  0.25000000  0.95779000  1.0
  Al  Al7  2  0.52042000  0.21673000  0.12959000  1.0
  Al  Al8  1  0.00000000  0.00000000  0.87337000  1.0
  Al  Al9  1  0.00000000  0.50000000  0.87337000  1.0
  Al  Al10  1  0.94987000  0.00000000  0.05075000  1.0
  Al  Al11  1  0.97171000  0.50000000  0.05092000  1.0
  In  In12  2  0.00000000  0.25000000  0.95779000  1.0
  In  In13  2  0.98248000  0.26569000  0.14515000  1.0
  In  In14  1  0.49276000  0.00000000  0.04386000  1.0
  In  In15  1  0.49693000  0.50000000  0.04207000  1.0
  In  In16  1  0.50000000  0.00000000  0.87337000  1.0
  In  In17  1  0.50000000  0.50000000  0.87337000  1.0
  Pd  Pd18  2  0.74801000  0.25349000  0.04001000  1.0
  Pd  Pd19  2  0.75000000  0.25000000  0.87337000  1.0
  Pd  Pd20  1  0.18249000  0.00000000  0.12388000  1.0
  Pd  Pd21  1  0.24703000  0.50000000  0.12173000  1.0
  Pd  Pd22  1  0.25000000  0.00000000  0.95779000  1.0
  Pd  Pd23  1  0.25000000  0.50000000  0.95779000  1.0
  C  C24  1  0.51262000  0.00000000  0.13528000  1.0
