data_image0
_chemical_formula_structural       Mn8Ga8Co16CO
_chemical_formula_sum              "Mn8 Ga8 Co16 C1 O1"
_cell_length_a       5.73361
_cell_length_b       8.10855
_cell_length_c       26.0814
_cell_angle_alpha    90
_cell_angle_beta     90
_cell_angle_gamma    90

_space_group_name_H-M_alt    "P 1"
_space_group_IT_number       1

loop_
  _space_group_symop_operation_xyz
  'x, y, z'

loop_
  _atom_site_type_symbol
  _atom_site_label
  _atom_site_symmetry_multiplicity
  _atom_site_fract_x
  _atom_site_fract_y
  _atom_site_fract_z
  _atom_site_occupancy
  Mn  Mn1       1.0  0.00000  0.00000  0.88341  1.0000
  Mn  Mn2       1.0  0.50000  0.25000  0.96114  1.0000
  Mn  Mn3       1.0  0.50000  0.75000  0.96114  1.0000
  Mn  Mn4       1.0  0.00000  0.50000  0.88341  1.0000
  Mn  Mn5       1.0  1.00000  0.49999  0.03977  1.0000
  Mn  Mn6       1.0  0.50000  0.75001  0.11731  1.0000
  Mn  Mn7       1.0  0.50000  0.24999  0.11565  1.0000
  Mn  Mn8       1.0  1.00000  0.00001  0.03977  1.0000
  Ga  Ga1       1.0  0.00000  0.75000  0.96114  1.0000
  Ga  Ga2       1.0  0.50000  0.00000  0.88341  1.0000
  Ga  Ga3       1.0  0.00000  0.25000  0.96114  1.0000
  Ga  Ga4       1.0  0.50000  0.50000  0.88341  1.0000
  Ga  Ga5       1.0  0.00002  0.24999  0.11911  1.0000
  Ga  Ga6       1.0  0.49999  0.49973  0.03938  1.0000
  Ga  Ga7       1.0  0.00002  0.75001  0.11991  1.0000
  Ga  Ga8       1.0  0.49999  0.00027  0.03938  1.0000
  Co  Co1       1.0  0.25000  0.00000  0.96114  1.0000
  Co  Co2       1.0  0.75000  0.50000  0.96114  1.0000
  Co  Co3       1.0  0.75000  0.00000  0.96114  1.0000
  Co  Co4       1.0  0.25000  0.50000  0.96114  1.0000
  Co  Co5       1.0  0.75000  0.75000  0.88341  1.0000
  Co  Co6       1.0  0.25000  0.25000  0.88341  1.0000
  Co  Co7       1.0  0.25000  0.75000  0.88341  1.0000
  Co  Co8       1.0  0.75000  0.25000  0.88341  1.0000
  Co  Co9       1.0  0.24180  0.49703  0.11699  1.0000
  Co  Co10      1.0  0.75823  0.00297  0.11698  1.0000
  Co  Co11      1.0  0.75821  0.49703  0.11698  1.0000
  Co  Co12      1.0  0.24179  0.00296  0.11698  1.0000
  Co  Co13      1.0  0.74898  0.24999  0.03908  1.0000
  Co  Co14      1.0  0.24960  0.75001  0.03948  1.0000
  Co  Co15      1.0  0.25101  0.24999  0.03908  1.0000
  Co  Co16      1.0  0.75040  0.75001  0.03948  1.0000
  C   C1        1.0  0.50000  0.25000  0.18691  1.0000
  O   O1        1.0  0.50000  0.25000  0.23142  1.0000
