# generated using pymatgen
data_Li8In8Ir8Pd8C
_symmetry_space_group_name_H-M   'P 1'
_cell_length_a   8.95988000
_cell_length_b   6.33559000
_cell_length_c   26.71990000
_cell_angle_alpha   90.00000000
_cell_angle_beta   90.00000000
_cell_angle_gamma   90.00000000
_symmetry_Int_Tables_number   1
_chemical_formula_structural   Li8In8Ir8Pd8C
_chemical_formula_sum   'Li8 In8 Ir8 Pd8 C1'
_cell_volume   1516.78521356
_cell_formula_units_Z   1
loop_
 _symmetry_equiv_pos_site_id
 _symmetry_equiv_pos_as_xyz
  1  'x, y, z'
loop_
 _atom_site_type_symbol
 _atom_site_label
 _atom_site_symmetry_multiplicity
 _atom_site_fract_x
 _atom_site_fract_y
 _atom_site_fract_z
 _atom_site_occupancy
  Li  Li0  1  0.00000000  0.00000000  0.04192000  1.0
  Li  Li1  1  0.50000000  0.00000000  0.04192000  1.0
  Li  Li2  1  0.25000000  0.50000000  0.12575000  1.0
  Li  Li3  1  0.75000000  0.50000000  0.12575000  1.0
  Li  Li4  1  0.50000000  0.00730000  0.86777000  1.0
  Li  Li5  1  0.00000000  0.01953000  0.86448000  1.0
  Li  Li6  1  0.75330000  0.49659000  0.95980000  1.0
  Li  Li7  1  0.24670000  0.49659000  0.95980000  1.0
  In  In8  1  0.75000000  0.00000000  0.12575000  1.0
  In  In9  1  0.25000000  0.00000000  0.12575000  1.0
  In  In10  1  0.50000000  0.50000000  0.04192000  1.0
  In  In11  1  0.00000000  0.50000000  0.04192000  1.0
  In  In12  1  0.25983000  0.00469000  0.95877000  1.0
  In  In13  1  0.74017000  0.00469000  0.95877000  1.0
  In  In14  1  0.00000000  0.41214000  0.83597000  1.0
  In  In15  1  0.50000000  0.50276000  0.86412000  1.0
  Ir  Ir16  1  0.75000000  0.25000000  0.04192000  1.0
  Ir  Ir17  1  0.25000000  0.25000000  0.04192000  1.0
  Ir  Ir18  1  0.00000000  0.75000000  0.12575000  1.0
  Ir  Ir19  1  0.50000000  0.75000000  0.12575000  1.0
  Ir  Ir20  1  0.25344000  0.26219000  0.87844000  1.0
  Ir  Ir21  1  0.74656000  0.26219000  0.87844000  1.0
  Ir  Ir22  1  0.50000000  0.74121000  0.95220000  1.0
  Ir  Ir23  1  0.00000000  0.76670000  0.95774000  1.0
  Pd  Pd24  1  0.75000000  0.75000000  0.04192000  1.0
  Pd  Pd25  1  0.25000000  0.75000000  0.04192000  1.0
  Pd  Pd26  1  0.00000000  0.25000000  0.12575000  1.0
  Pd  Pd27  1  0.50000000  0.25000000  0.12575000  1.0
  Pd  Pd28  1  0.22726000  0.72517000  0.87841000  1.0
  Pd  Pd29  1  0.77274000  0.72517000  0.87841000  1.0
  Pd  Pd30  1  0.50000000  0.26706000  0.95522000  1.0
  Pd  Pd31  1  0.00000000  0.25211000  0.95470000  1.0
  C  C32  1  0.00000000  0.71137000  0.89033000  1.0
