# generated using pymatgen
data_Li8In8Ir8Pd8C
_symmetry_space_group_name_H-M   Pm
_cell_length_a   6.33559000
_cell_length_b   8.95988000
_cell_length_c   26.71990000
_cell_angle_alpha   90.00000000
_cell_angle_beta   90.00000000
_cell_angle_gamma   90.00000000
_symmetry_Int_Tables_number   6
_chemical_formula_structural   Li8In8Ir8Pd8C
_chemical_formula_sum   'Li8 In8 Ir8 Pd8 C1'
_cell_volume   1516.78521356
_cell_formula_units_Z   1
loop_
 _symmetry_equiv_pos_site_id
 _symmetry_equiv_pos_as_xyz
  1  'x, y, z'
  2  'x, -y, z'
loop_
 _atom_site_type_symbol
 _atom_site_label
 _atom_site_symmetry_multiplicity
 _atom_site_fract_x
 _atom_site_fract_y
 _atom_site_fract_z
 _atom_site_occupancy
  Li  Li0  2  0.49659000  0.24670000  0.04020000  1.0
  Li  Li1  2  0.50000000  0.25000000  0.87425000  1.0
  Li  Li2  1  0.00000000  0.00000000  0.95808000  1.0
  Li  Li3  1  0.00000000  0.50000000  0.95808000  1.0
  Li  Li4  1  0.00730000  0.50000000  0.13223000  1.0
  Li  Li5  1  0.01953000  0.00000000  0.13552000  1.0
  In  In6  2  0.00000000  0.25000000  0.87425000  1.0
  In  In7  2  0.00469000  0.25983000  0.04123000  1.0
  In  In8  1  0.41214000  0.00000000  0.16403000  1.0
  In  In9  1  0.50000000  0.00000000  0.95808000  1.0
  In  In10  1  0.50000000  0.50000000  0.95808000  1.0
  In  In11  1  0.50276000  0.50000000  0.13588000  1.0
  Ir  Ir12  2  0.25000000  0.25000000  0.95808000  1.0
  Ir  Ir13  2  0.26219000  0.25344000  0.12156000  1.0
  Pd  Pd14  2  0.72517000  0.22726000  0.12159000  1.0
  Pd  Pd15  2  0.75000000  0.25000000  0.95808000  1.0
  Pd  Pd16  1  0.25000000  0.00000000  0.87425000  1.0
  Pd  Pd17  1  0.25000000  0.50000000  0.87425000  1.0
  Pd  Pd18  1  0.25211000  0.00000000  0.04530000  1.0
  Pd  Pd19  1  0.26706000  0.50000000  0.04478000  1.0
  Ir  Ir20  1  0.74121000  0.50000000  0.04780000  1.0
  Ir  Ir21  1  0.75000000  0.00000000  0.87425000  1.0
  Ir  Ir22  1  0.75000000  0.50000000  0.87425000  1.0
  Ir  Ir23  1  0.76670000  0.00000000  0.04226000  1.0
  C  C24  1  0.71137000  0.00000000  0.10967000  1.0
