# generated using pymatgen
data_Y8In8Sn8Pd8CO
_symmetry_space_group_name_H-M   'P 1'
_cell_length_a   8.73372000
_cell_length_b   9.16402000
_cell_length_c   26.79800000
_cell_angle_alpha   90.00000000
_cell_angle_beta   90.00000000
_cell_angle_gamma   90.00000000
_symmetry_Int_Tables_number   1
_chemical_formula_structural   Y8In8Sn8Pd8CO
_chemical_formula_sum   'Y8 In8 Sn8 Pd8 C1 O1'
_cell_volume   2144.80431945
_cell_formula_units_Z   1
loop_
 _symmetry_equiv_pos_site_id
 _symmetry_equiv_pos_as_xyz
  1  'x, y, z'
loop_
 _atom_site_type_symbol
 _atom_site_label
 _atom_site_symmetry_multiplicity
 _atom_site_fract_x
 _atom_site_fract_y
 _atom_site_fract_z
 _atom_site_occupancy
  Y  Y0  1  0.75000000  0.25000000  0.04228000  1.0
  Y  Y1  1  0.73537000  0.26022000  0.86807000  1.0
  Y  Y2  1  0.25000000  0.25000000  0.04228000  1.0
  Y  Y3  1  0.26463000  0.26022000  0.86807000  1.0
  Y  Y4  1  0.75000000  0.75000000  0.04228000  1.0
  Y  Y5  1  0.73537000  0.73978000  0.86807000  1.0
  Y  Y6  1  0.25000000  0.75000000  0.04228000  1.0
  Y  Y7  1  0.26463000  0.73978000  0.86807000  1.0
  In  In8  1  0.75000000  0.00000000  0.12684000  1.0
  In  In9  1  0.75298000  0.00000000  0.95606000  1.0
  In  In10  1  0.25000000  0.00000000  0.12684000  1.0
  In  In11  1  0.24702000  0.00000000  0.95606000  1.0
  In  In12  1  0.75000000  0.50000000  0.12684000  1.0
  In  In13  1  0.75268000  0.50000000  0.95864000  1.0
  In  In14  1  0.25000000  0.50000000  0.12684000  1.0
  In  In15  1  0.24732000  0.50000000  0.95864000  1.0
  Sn  Sn16  1  0.00000000  0.25000000  0.12684000  1.0
  Sn  Sn17  1  0.00000000  0.24436000  0.95341000  1.0
  Sn  Sn18  1  0.50000000  0.25000000  0.12684000  1.0
  Sn  Sn19  1  0.50000000  0.24926000  0.95782000  1.0
  Sn  Sn20  1  0.00000000  0.75000000  0.12684000  1.0
  Sn  Sn21  1  0.00000000  0.75564000  0.95341000  1.0
  Sn  Sn22  1  0.50000000  0.75000000  0.12684000  1.0
  Sn  Sn23  1  0.50000000  0.75074000  0.95782000  1.0
  Pd  Pd24  1  0.00000000  0.00000000  0.04228000  1.0
  Pd  Pd25  1  0.00000000  0.00000000  0.87508000  1.0
  Pd  Pd26  1  0.50000000  0.00000000  0.04228000  1.0
  Pd  Pd27  1  0.50000000  0.00000000  0.88322000  1.0
  Pd  Pd28  1  0.00000000  0.50000000  0.04228000  1.0
  Pd  Pd29  1  0.00000000  0.50000000  0.88430000  1.0
  Pd  Pd30  1  0.50000000  0.50000000  0.04228000  1.0
  Pd  Pd31  1  0.50000000  0.50000000  0.88182000  1.0
  C  C32  1  0.00000000  0.00000000  0.80386000  1.0
  O  O33  1  0.00000000  0.00000000  0.76029000  1.0
