# generated using pymatgen
data_Y8In8Sn8Pd8CO
_symmetry_space_group_name_H-M   Pmm2
_cell_length_a   8.73372000
_cell_length_b   9.16402000
_cell_length_c   26.79800000
_cell_angle_alpha   90.00000000
_cell_angle_beta   90.00000000
_cell_angle_gamma   90.00000000
_symmetry_Int_Tables_number   25
_chemical_formula_structural   Y8In8Sn8Pd8CO
_chemical_formula_sum   'Y8 In8 Sn8 Pd8 C1 O1'
_cell_volume   2144.80431945
_cell_formula_units_Z   1
loop_
 _symmetry_equiv_pos_site_id
 _symmetry_equiv_pos_as_xyz
  1  'x, y, z'
  2  '-x, -y, z'
  3  '-x, y, z'
  4  'x, -y, z'
loop_
 _atom_site_type_symbol
 _atom_site_label
 _atom_site_symmetry_multiplicity
 _atom_site_fract_x
 _atom_site_fract_y
 _atom_site_fract_z
 _atom_site_occupancy
  Y  Y0  4  0.25000000  0.25000000  0.04228000  1.0
  Y  Y1  4  0.26463000  0.26022000  0.86807000  1.0
  In  In2  2  0.24702000  0.00000000  0.95606000  1.0
  In  In3  2  0.24732000  0.50000000  0.95864000  1.0
  In  In4  2  0.25000000  0.00000000  0.12684000  1.0
  In  In5  2  0.25000000  0.50000000  0.12684000  1.0
  Sn  Sn6  2  0.00000000  0.24436000  0.95341000  1.0
  Sn  Sn7  2  0.00000000  0.25000000  0.12684000  1.0
  Sn  Sn8  2  0.50000000  0.24926000  0.95782000  1.0
  Sn  Sn9  2  0.50000000  0.25000000  0.12684000  1.0
  Pd  Pd10  1  0.00000000  0.00000000  0.04228000  1.0
  Pd  Pd11  1  0.00000000  0.00000000  0.87508000  1.0
  Pd  Pd12  1  0.00000000  0.50000000  0.04228000  1.0
  Pd  Pd13  1  0.00000000  0.50000000  0.88430000  1.0
  Pd  Pd14  1  0.50000000  0.00000000  0.04228000  1.0
  Pd  Pd15  1  0.50000000  0.00000000  0.88322000  1.0
  Pd  Pd16  1  0.50000000  0.50000000  0.04228000  1.0
  Pd  Pd17  1  0.50000000  0.50000000  0.88182000  1.0
  C  C18  1  0.00000000  0.00000000  0.80386000  1.0
  O  O19  1  0.00000000  0.00000000  0.76029000  1.0
