data_image0
_chemical_formula_structural       FeNi3FeNi3FeNi3FeNi3
_chemical_formula_sum              "Fe4 Ni12"
_cell_length_a       7.13466
_cell_length_b       5.04497
_cell_length_c       23.7837
_cell_angle_alpha    90
_cell_angle_beta     90
_cell_angle_gamma    90

_space_group_name_H-M_alt    "P 1"
_space_group_IT_number       1

loop_
  _space_group_symop_operation_xyz
  'x, y, z'

loop_
  _atom_site_type_symbol
  _atom_site_label
  _atom_site_symmetry_multiplicity
  _atom_site_fract_x
  _atom_site_fract_y
  _atom_site_fract_z
  _atom_site_occupancy
  Fe  Fe1       1.0  0.00000  0.00000  0.07954  1.0000
  Ni  Ni1       1.0  0.00000  0.50000  0.07954  1.0000
  Ni  Ni2       1.0  0.25000  0.75000  0.02651  1.0000
  Ni  Ni3       1.0  0.25000  0.25000  0.02651  1.0000
  Fe  Fe2       1.0  0.00000  0.50000  0.97349  1.0000
  Ni  Ni4       1.0  0.00000  0.00000  0.97349  1.0000
  Ni  Ni5       1.0  0.25000  0.25000  0.92046  1.0000
  Ni  Ni6       1.0  0.25000  0.75000  0.92046  1.0000
  Fe  Fe3       1.0  0.50000  0.00000  0.07954  1.0000
  Ni  Ni7       1.0  0.50000  0.50000  0.07954  1.0000
  Ni  Ni8       1.0  0.75000  0.75000  0.02651  1.0000
  Ni  Ni9       1.0  0.75000  0.25000  0.02651  1.0000
  Fe  Fe4       1.0  0.50000  0.50000  0.97349  1.0000
  Ni  Ni10      1.0  0.50000  0.00000  0.97349  1.0000
  Ni  Ni11      1.0  0.75000  0.25000  0.92046  1.0000
  Ni  Ni12      1.0  0.75000  0.75000  0.92046  1.0000
