# generated using pymatgen
data_FeNi3
_symmetry_space_group_name_H-M   Pmm2
_cell_length_a   3.56733000
_cell_length_b   5.04497000
_cell_length_c   23.78370000
_cell_angle_alpha   90.00000000
_cell_angle_beta   90.00000000
_cell_angle_gamma   90.00000000
_symmetry_Int_Tables_number   25
_chemical_formula_structural   FeNi3
_chemical_formula_sum   'Fe2 Ni6'
_cell_volume   428.03698107
_cell_formula_units_Z   2
loop_
 _symmetry_equiv_pos_site_id
 _symmetry_equiv_pos_as_xyz
  1  'x, y, z'
  2  '-x, -y, z'
  3  '-x, y, z'
  4  'x, -y, z'
loop_
 _atom_site_type_symbol
 _atom_site_label
 _atom_site_symmetry_multiplicity
 _atom_site_fract_x
 _atom_site_fract_y
 _atom_site_fract_z
 _atom_site_occupancy
  Fe  Fe0  1  0.00000000  0.00000000  0.07954000  1.0
  Fe  Fe1  1  0.00000000  0.50000000  0.97349000  1.0
  Ni  Ni2  2  0.50000000  0.25000000  0.02651000  1.0
  Ni  Ni3  2  0.50000000  0.25000000  0.92046000  1.0
  Ni  Ni4  1  0.00000000  0.00000000  0.97349000  1.0
  Ni  Ni5  1  0.00000000  0.50000000  0.07954000  1.0
