data_image0
_chemical_formula_structural       Li8In8Pd8Rh8CO
_chemical_formula_sum              "Li8 In8 Pd8 Rh8 C1 O1"
_cell_length_a       6.29773
_cell_length_b       8.90634
_cell_length_c       26.6798
_cell_angle_alpha    90
_cell_angle_beta     90
_cell_angle_gamma    90

_space_group_name_H-M_alt    "P 1"
_space_group_IT_number       1

loop_
  _space_group_symop_operation_xyz
  'x, y, z'

loop_
  _atom_site_type_symbol
  _atom_site_label
  _atom_site_symmetry_multiplicity
  _atom_site_fract_x
  _atom_site_fract_y
  _atom_site_fract_z
  _atom_site_occupancy
  Li  Li1       1.0  0.00000  0.25000  0.95827  1.0000
  Li  Li2       1.0  0.00000  0.75000  0.95827  1.0000
  Li  Li3       1.0  0.50000  0.50000  0.87482  1.0000
  Li  Li4       1.0  0.50000  0.00000  0.87482  1.0000
  Li  Li5       1.0  0.99984  0.75000  0.13366  1.0000
  Li  Li6       1.0  0.99557  0.25000  0.13276  1.0000
  Li  Li7       1.0  0.49882  0.99994  0.04197  1.0000
  Li  Li8       1.0  0.49882  0.50006  0.04197  1.0000
  In  In1       1.0  0.00000  0.00000  0.87482  1.0000
  In  In2       1.0  0.00000  0.50000  0.87482  1.0000
  In  In3       1.0  0.50000  0.75000  0.95827  1.0000
  In  In4       1.0  0.50000  0.25000  0.95827  1.0000
  In  In5       1.0  0.99827  0.50000  0.04108  1.0000
  In  In6       1.0  0.99827  1.00000  0.04108  1.0000
  In  In7       1.0  0.49094  0.25000  0.13283  1.0000
  In  In8       1.0  0.49136  0.75000  0.13349  1.0000
  Pd  Pd1       1.0  0.75000  0.00000  0.95827  1.0000
  Pd  Pd2       1.0  0.75000  0.50000  0.95827  1.0000
  Pd  Pd3       1.0  0.25000  0.25000  0.87482  1.0000
  Pd  Pd4       1.0  0.25000  0.75000  0.87482  1.0000
  Pd  Pd5       1.0  0.74438  0.50026  0.12265  1.0000
  Pd  Pd6       1.0  0.74439  0.99974  0.12265  1.0000
  Pd  Pd7       1.0  0.25202  0.75000  0.04381  1.0000
  Pd  Pd8       1.0  0.25166  0.25000  0.04363  1.0000
  Rh  Rh1       1.0  0.25000  0.00000  0.95827  1.0000
  Rh  Rh2       1.0  0.25000  0.50000  0.95827  1.0000
  Rh  Rh3       1.0  0.75000  0.25000  0.87482  1.0000
  Rh  Rh4       1.0  0.75000  0.75000  0.87482  1.0000
  Rh  Rh5       1.0  0.25333  0.50000  0.12111  1.0000
  Rh  Rh6       1.0  0.25333  1.00000  0.12111  1.0000
  Rh  Rh7       1.0  0.74488  0.75000  0.04562  1.0000
  Rh  Rh8       1.0  0.74512  0.25000  0.04543  1.0000
  C   C1        1.0  0.56978  0.25001  0.27372  1.0000
  O   O1        1.0  0.45315  0.25000  0.30617  1.0000
