# generated using pymatgen
data_Sc4In4Ge4Pd4C
_symmetry_space_group_name_H-M   P1
_cell_length_a   6.05174000
_cell_length_b   8.38060000
_cell_length_c   24.46740000
_cell_angle_alpha   90.00000000
_cell_angle_beta   90.00000000
_cell_angle_gamma   90.00000000
_symmetry_Int_Tables_number   1
_chemical_formula_structural   Sc4In4Ge4Pd4C
_chemical_formula_sum   'Sc4 In4 Ge4 Pd4 C1'
_cell_volume   1240.91831886
_cell_formula_units_Z   1
loop_
 _symmetry_equiv_pos_site_id
 _symmetry_equiv_pos_as_xyz
  1  'x, y, z'
loop_
 _atom_site_type_symbol
 _atom_site_label
 _atom_site_symmetry_multiplicity
 _atom_site_fract_x
 _atom_site_fract_y
 _atom_site_fract_z
 _atom_site_occupancy
  Sc  Sc0  1  0.20584000  0.25000000  0.96957000  1.0
  Sc  Sc1  1  0.20584000  0.75000000  0.96957000  1.0
  Sc  Sc2  1  0.64812000  0.75515000  0.08900000  1.0
  Sc  Sc3  1  0.64983000  0.24532000  0.08939000  1.0
  In  In4  1  0.50000000  0.00000000  0.90871000  1.0
  In  In5  1  0.50000000  0.50000000  0.90871000  1.0
  In  In6  1  0.90431000  0.50014000  0.02755000  1.0
  In  In7  1  0.90947000  0.00005000  0.02916000  1.0
  Ge  Ge8  1  -0.00000000  0.50000000  0.90871000  1.0
  Ge  Ge9  1  0.00000000  0.00000000  0.90871000  1.0
  Ge  Ge10  1  0.39269000  0.49933000  0.04667000  1.0
  Ge  Ge11  1  0.39515000  0.00118000  0.04196000  1.0
  Pd  Pd12  1  0.15011000  0.25088000  0.07758000  1.0
  Pd  Pd13  1  0.15203000  0.74969000  0.07726000  1.0
  Pd  Pd14  1  0.70584000  0.25000000  0.96957000  1.0
  Pd  Pd15  1  0.70584000  0.75000000  0.96957000  1.0
  C  C16  1  0.63352000  0.00017000  0.09944000  1.0
