# generated using pymatgen
data_Li8In16Ru8C
_symmetry_space_group_name_H-M   Pmm2
_cell_length_a   6.56971000
_cell_length_b   9.29097000
_cell_length_c   26.96820000
_cell_angle_alpha   90.00000000
_cell_angle_beta   90.00000000
_cell_angle_gamma   90.00000000
_symmetry_Int_Tables_number   25
_chemical_formula_structural   Li8In16Ru8C
_chemical_formula_sum   'Li8 In16 Ru8 C1'
_cell_volume   1646.11138049
_cell_formula_units_Z   1
loop_
 _symmetry_equiv_pos_site_id
 _symmetry_equiv_pos_as_xyz
  1  'x, y, z'
  2  '-x, -y, z'
  3  '-x, y, z'
  4  'x, -y, z'
loop_
 _atom_site_type_symbol
 _atom_site_label
 _atom_site_symmetry_multiplicity
 _atom_site_fract_x
 _atom_site_fract_y
 _atom_site_fract_z
 _atom_site_occupancy
  Li  Li0  2  0.50000000  0.24999000  0.95694000  1.0
  Li  Li1  2  0.50000000  0.27230000  0.13689000  1.0
  Li  Li2  1  0.00000000  0.00000000  0.04743000  1.0
  Li  Li3  1  0.00000000  0.00000000  0.87081000  1.0
  Li  Li4  1  0.00000000  0.50000000  0.03892000  1.0
  Li  Li5  1  0.00000000  0.50000000  0.87081000  1.0
  In  In6  4  0.24766000  0.25082000  0.04554000  1.0
  In  In7  4  0.25000000  0.25001000  0.87081000  1.0
  In  In8  2  0.22280000  0.50000000  0.13287000  1.0
  In  In9  2  0.25000000  0.00000000  0.95694000  1.0
  In  In10  2  0.25000000  0.50000000  0.95694000  1.0
  In  In11  2  0.30371000  0.00000000  0.12718000  1.0
  Ru  Ru12  2  0.00000000  0.20404000  0.13242000  1.0
  Ru  Ru13  2  0.00000000  0.25001000  0.95694000  1.0
  Ru  Ru14  1  0.50000000  0.00000000  0.03623000  1.0
  Ru  Ru15  1  0.50000000  0.00000000  0.87081000  1.0
  Ru  Ru16  1  0.50000000  0.50000000  0.04520000  1.0
  Ru  Ru17  1  0.50000000  0.50000000  0.87081000  1.0
  C  C18  1  0.00000000  0.00000000  0.15174000  1.0
