# generated using pymatgen
data_Y8In8Ag8Pd8CO
_symmetry_space_group_name_H-M   'P 1'
_cell_length_a   9.79574000
_cell_length_b   6.92663000
_cell_length_c   27.34680000
_cell_angle_alpha   90.00000000
_cell_angle_beta   90.00000000
_cell_angle_gamma   90.00000000
_symmetry_Int_Tables_number   1
_chemical_formula_structural   Y8In8Ag8Pd8CO
_chemical_formula_sum   'Y8 In8 Ag8 Pd8 C1 O1'
_cell_volume   1855.52048562
_cell_formula_units_Z   1
loop_
 _symmetry_equiv_pos_site_id
 _symmetry_equiv_pos_as_xyz
  1  'x, y, z'
loop_
 _atom_site_type_symbol
 _atom_site_label
 _atom_site_symmetry_multiplicity
 _atom_site_fract_x
 _atom_site_fract_y
 _atom_site_fract_z
 _atom_site_occupancy
  Y  Y0  1  0.00000000  0.75000000  0.04478000  1.0
  Y  Y1  1  0.50000000  0.75000000  0.04478000  1.0
  Y  Y2  1  0.25000000  0.25000000  0.13433000  1.0
  Y  Y3  1  0.75000000  0.25000000  0.13433000  1.0
  Y  Y4  1  0.50000000  0.70348000  0.86950000  1.0
  Y  Y5  1  0.00000000  0.70509000  0.87043000  1.0
  Y  Y6  1  0.74797000  0.26493000  0.94712000  1.0
  Y  Y7  1  0.25203000  0.26493000  0.94712000  1.0
  In  In8  1  0.00000000  0.25000000  0.04478000  1.0
  In  In9  1  0.50000000  0.25000000  0.04478000  1.0
  In  In10  1  0.25000000  0.75000000  0.13433000  1.0
  In  In11  1  0.75000000  0.75000000  0.13433000  1.0
  In  In12  1  0.50000000  0.20746000  0.85872000  1.0
  In  In13  1  0.00000000  0.20186000  0.85752000  1.0
  In  In14  1  0.75190000  0.75020000  0.95627000  1.0
  In  In15  1  0.24810000  0.75020000  0.95627000  1.0
  Ag  Ag16  1  0.00000000  0.00000000  0.13433000  1.0
  Ag  Ag17  1  0.50000000  0.00000000  0.13433000  1.0
  Ag  Ag18  1  0.75000000  0.50000000  0.04478000  1.0
  Ag  Ag19  1  0.25000000  0.50000000  0.04478000  1.0
  Ag  Ag20  1  0.50000000  0.99913000  0.95352000  1.0
  Ag  Ag21  1  0.00000000  0.00810000  0.95416000  1.0
  Ag  Ag22  1  0.24887000  0.43045000  0.84185000  1.0
  Ag  Ag23  1  0.75113000  0.43045000  0.84185000  1.0
  Pd  Pd24  1  0.25000000  0.00000000  0.04478000  1.0
  Pd  Pd25  1  0.75000000  0.00000000  0.04478000  1.0
  Pd  Pd26  1  0.50000000  0.50000000  0.13433000  1.0
  Pd  Pd27  1  0.00000000  0.50000000  0.13433000  1.0
  Pd  Pd28  1  0.74726000  0.97918000  0.87193000  1.0
  Pd  Pd29  1  0.25274000  0.97918000  0.87193000  1.0
  Pd  Pd30  1  0.00000000  0.48996000  0.96027000  1.0
  Pd  Pd31  1  0.50000000  0.50033000  0.95871000  1.0
  C  C32  1  0.00000000  0.71816000  0.77918000  1.0
  O  O33  1  0.00000000  0.73037000  0.73733000  1.0
