# generated using pymatgen
data_Y8In8Ag8Pd8CO
_symmetry_space_group_name_H-M   Pm
_cell_length_a   6.92663000
_cell_length_b   9.79574000
_cell_length_c   27.34680000
_cell_angle_alpha   90.00000000
_cell_angle_beta   90.00000000
_cell_angle_gamma   90.00000000
_symmetry_Int_Tables_number   6
_chemical_formula_structural   Y8In8Ag8Pd8CO
_chemical_formula_sum   'Y8 In8 Ag8 Pd8 C1 O1'
_cell_volume   1855.52048562
_cell_formula_units_Z   1
loop_
 _symmetry_equiv_pos_site_id
 _symmetry_equiv_pos_as_xyz
  1  'x, y, z'
  2  'x, -y, z'
loop_
 _atom_site_type_symbol
 _atom_site_label
 _atom_site_symmetry_multiplicity
 _atom_site_fract_x
 _atom_site_fract_y
 _atom_site_fract_z
 _atom_site_occupancy
  Y  Y0  2  0.25000000  0.25000000  0.86567000  1.0
  Y  Y1  2  0.26493000  0.25203000  0.05288000  1.0
  Y  Y2  1  0.70348000  0.50000000  0.13050000  1.0
  Y  Y3  1  0.70509000  0.00000000  0.12957000  1.0
  Y  Y4  1  0.75000000  0.00000000  0.95522000  1.0
  Y  Y5  1  0.75000000  0.50000000  0.95522000  1.0
  In  In6  2  0.75000000  0.25000000  0.86567000  1.0
  In  In7  2  0.75020000  0.24810000  0.04373000  1.0
  In  In8  1  0.20186000  0.00000000  0.14248000  1.0
  In  In9  1  0.20746000  0.50000000  0.14128000  1.0
  In  In10  1  0.25000000  0.00000000  0.95522000  1.0
  In  In11  1  0.25000000  0.50000000  0.95522000  1.0
  Ag  Ag12  2  0.43045000  0.24887000  0.15815000  1.0
  Ag  Ag13  2  0.50000000  0.25000000  0.95522000  1.0
  Ag  Ag14  1  0.00000000  0.00000000  0.86567000  1.0
  Ag  Ag15  1  0.00000000  0.50000000  0.86567000  1.0
  Ag  Ag16  1  0.00810000  0.00000000  0.04584000  1.0
  Ag  Ag17  1  0.99913000  0.50000000  0.04648000  1.0
  Pd  Pd18  2  0.00000000  0.25000000  0.95522000  1.0
  Pd  Pd19  2  0.97918000  0.25274000  0.12807000  1.0
  Pd  Pd20  1  0.48996000  0.00000000  0.03973000  1.0
  Pd  Pd21  1  0.50000000  0.00000000  0.86567000  1.0
  Pd  Pd22  1  0.50000000  0.50000000  0.86567000  1.0
  Pd  Pd23  1  0.50033000  0.50000000  0.04129000  1.0
  C  C24  1  0.71816000  0.00000000  0.22082000  1.0
  O  O25  1  0.73037000  0.00000000  0.26267000  1.0
