data_image0
_chemical_formula_structural       Li16Bi16C
_chemical_formula_sum              "Li16 Bi16 C1"
_cell_length_a       9.62191
_cell_length_b       8.50772
_cell_length_c       27.2164
_cell_angle_alpha    90
_cell_angle_beta     90
_cell_angle_gamma    90

_space_group_name_H-M_alt    "P 1"
_space_group_IT_number       1

loop_
  _space_group_symop_operation_xyz
  'x, y, z'

loop_
  _atom_site_type_symbol
  _atom_site_label
  _atom_site_symmetry_multiplicity
  _atom_site_fract_x
  _atom_site_fract_y
  _atom_site_fract_z
  _atom_site_occupancy
  Li  Li1       1.0  0.25000  0.25000  0.86743  1.0000
  Li  Li2       1.0  0.50000  0.25000  0.95581  1.0000
  Li  Li3       1.0  0.25820  0.24898  0.04701  1.0000
  Li  Li4       1.0  0.50001  0.27598  0.12778  1.0000
  Li  Li5       1.0  0.25000  0.75000  0.86743  1.0000
  Li  Li6       1.0  0.50000  0.75000  0.95581  1.0000
  Li  Li7       1.0  0.25819  0.75102  0.04701  1.0000
  Li  Li8       1.0  0.50000  0.72402  0.12778  1.0000
  Li  Li9       1.0  0.75000  0.25000  0.86743  1.0000
  Li  Li10      1.0  0.00000  0.25000  0.95581  1.0000
  Li  Li11      1.0  0.74181  0.24899  0.04701  1.0000
  Li  Li12      1.0  1.00000  0.25414  0.13303  1.0000
  Li  Li13      1.0  0.75000  0.75000  0.86743  1.0000
  Li  Li14      1.0  0.00000  0.75000  0.95581  1.0000
  Li  Li15      1.0  0.74180  0.75102  0.04701  1.0000
  Li  Li16      1.0  0.00000  0.74587  0.13303  1.0000
  Bi  Bi1       1.0  0.00000  0.00000  0.86743  1.0000
  Bi  Bi2       1.0  0.25000  0.00000  0.95581  1.0000
  Bi  Bi3       1.0  0.50000  0.00000  0.05951  1.0000
  Bi  Bi4       1.0  0.23695  0.00001  0.14290  1.0000
  Bi  Bi5       1.0  0.00000  0.50000  0.86743  1.0000
  Bi  Bi6       1.0  0.25000  0.50000  0.95581  1.0000
  Bi  Bi7       1.0  0.49999  0.50001  0.04547  1.0000
  Bi  Bi8       1.0  0.24151  0.49998  0.13359  1.0000
  Bi  Bi9       1.0  0.50000  0.00000  0.86743  1.0000
  Bi  Bi10      1.0  0.75000  0.00000  0.95581  1.0000
  Bi  Bi11      1.0  1.00000  1.00000  0.03984  1.0000
  Bi  Bi12      1.0  0.76305  1.00000  0.14290  1.0000
  Bi  Bi13      1.0  0.50000  0.50000  0.86743  1.0000
  Bi  Bi14      1.0  0.75000  0.50000  0.95581  1.0000
  Bi  Bi15      1.0  0.00001  0.50003  0.04777  1.0000
  Bi  Bi16      1.0  0.75849  0.49999  0.13357  1.0000
  C   C1        1.0  0.00000  0.00000  0.12502  1.0000
