# generated using pymatgen
data_Li16Bi16C
_symmetry_space_group_name_H-M   Pmm2
_cell_length_a   8.50772000
_cell_length_b   9.62191000
_cell_length_c   27.21640000
_cell_angle_alpha   90.00000000
_cell_angle_beta   90.00000000
_cell_angle_gamma   90.00000000
_symmetry_Int_Tables_number   25
_chemical_formula_structural   Li16Bi16C
_chemical_formula_sum   'Li16 Bi16 C1'
_cell_volume   2227.94855161
_cell_formula_units_Z   1
loop_
 _symmetry_equiv_pos_site_id
 _symmetry_equiv_pos_as_xyz
  1  'x, y, z'
  2  '-x, -y, z'
  3  '-x, y, z'
  4  'x, -y, z'
loop_
 _atom_site_type_symbol
 _atom_site_label
 _atom_site_symmetry_multiplicity
 _atom_site_fract_x
 _atom_site_fract_y
 _atom_site_fract_z
 _atom_site_occupancy
  Li  Li0  4  0.24898000  0.25820000  0.95299000  1.0
  Li  Li1  4  0.25000000  0.25000000  0.13257000  1.0
  Li  Li2  2  0.25000000  0.00000000  0.04419000  1.0
  Li  Li3  2  0.25000000  0.50000000  0.04419000  1.0
  Li  Li4  2  0.25414000  0.00000000  0.86697000  1.0
  Li  Li5  2  0.27598000  0.50000000  0.87222000  1.0
  Bi  Bi6  2  0.00000000  0.23695000  0.85710000  1.0
  Bi  Bi7  2  0.00000000  0.25000000  0.04419000  1.0
  Bi  Bi8  2  0.50000000  0.24151000  0.86641000  1.0
  Bi  Bi9  2  0.50000000  0.25000000  0.04419000  1.0
  Bi  Bi10  1  0.00000000  0.00000000  0.13257000  1.0
  Bi  Bi11  1  0.00000000  0.00000000  0.96016000  1.0
  Bi  Bi12  1  0.00000000  0.50000000  0.13257000  1.0
  Bi  Bi13  1  0.00000000  0.50000000  0.94049000  1.0
  Bi  Bi14  1  0.50000000  0.00000000  0.13257000  1.0
  Bi  Bi15  1  0.50000000  0.00000000  0.95223000  1.0
  Bi  Bi16  1  0.50000000  0.50000000  0.13257000  1.0
  Bi  Bi17  1  0.50000000  0.50000000  0.95453000  1.0
  C  C18  1  0.00000000  0.00000000  0.87498000  1.0
