# generated using pymatgen
data_Y4Mn4In4Pd4C
_symmetry_space_group_name_H-M   'P 1'
_cell_length_a   6.85874000
_cell_length_b   6.85874000
_cell_length_c   25.14410000
_cell_angle_alpha   90.00000000
_cell_angle_beta   90.00000000
_cell_angle_gamma   90.00000000
_symmetry_Int_Tables_number   1
_chemical_formula_structural   Y4Mn4In4Pd4C
_chemical_formula_sum   'Y4 Mn4 In4 Pd4 C1'
_cell_volume   1182.83665719
_cell_formula_units_Z   1
loop_
 _symmetry_equiv_pos_site_id
 _symmetry_equiv_pos_as_xyz
  1  'x, y, z'
loop_
 _atom_site_type_symbol
 _atom_site_label
 _atom_site_symmetry_multiplicity
 _atom_site_fract_x
 _atom_site_fract_y
 _atom_site_fract_z
 _atom_site_occupancy
  Y  Y0  1  0.50000000  0.50000000  0.89771000  1
  Y  Y1  1  0.00000000  0.50000000  0.03410000  1
  Y  Y2  1  0.50000000  0.00000000  0.03410000  1
  Y  Y3  1  0.00000000  0.00000000  0.89771000  1
  Mn  Mn4  1  0.75000000  0.25000000  0.96590000  1
  Mn  Mn5  1  0.25000000  0.25000000  0.10229000  1
  Mn  Mn6  1  0.75000000  0.75000000  0.10229000  1
  Mn  Mn7  1  0.25000000  0.75000000  0.96590000  1
  In  In8  1  0.00000000  0.50000000  0.89771000  1
  In  In9  1  0.50000000  0.50000000  0.03410000  1
  In  In10  1  0.00000000  0.00000000  0.03410000  1
  In  In11  1  0.50000000  0.00000000  0.89771000  1
  Pd  Pd12  1  0.75000000  0.75000000  0.96590000  1
  Pd  Pd13  1  0.25000000  0.75000000  0.10229000  1
  Pd  Pd14  1  0.75000000  0.25000000  0.10229000  1
  Pd  Pd15  1  0.25000000  0.25000000  0.96590000  1
  C  C16  1  0.50000000  0.50000000  0.13411000  1
