# generated using pymatgen
data_Sc16Ru16CO
_symmetry_space_group_name_H-M   Pmm2
_cell_length_a   6.43815000
_cell_length_b   9.10491000
_cell_length_c   26.82870000
_cell_angle_alpha   90.00000000
_cell_angle_beta   90.00000000
_cell_angle_gamma   90.00000000
_symmetry_Int_Tables_number   25
_chemical_formula_structural   Sc16Ru16CO
_chemical_formula_sum   'Sc16 Ru16 C1 O1'
_cell_volume   1572.66556416
_cell_formula_units_Z   1
loop_
 _symmetry_equiv_pos_site_id
 _symmetry_equiv_pos_as_xyz
  1  'x, y, z'
  2  '-x, -y, z'
  3  '-x, y, z'
  4  'x, -y, z'
loop_
 _atom_site_type_symbol
 _atom_site_label
 _atom_site_symmetry_multiplicity
 _atom_site_fract_x
 _atom_site_fract_y
 _atom_site_fract_z
 _atom_site_occupancy
  Sc  Sc0  4  0.24780000  0.24909000  0.12629000  1.0
  Sc  Sc1  4  0.25000000  0.25000000  0.95758000  1.0
  Sc  Sc2  2  0.24996000  0.50000000  0.04250000  1.0
  Sc  Sc3  2  0.25000000  0.00000000  0.87274000  1.0
  Sc  Sc4  2  0.25000000  0.50000000  0.87274000  1.0
  Sc  Sc5  2  0.25474000  0.00000000  0.04173000  1.0
  Ru  Ru6  2  0.00000000  0.24874000  0.04361000  1.0
  Ru  Ru7  2  0.00000000  0.25000000  0.87274000  1.0
  Ru  Ru8  2  0.50000000  0.25000000  0.87274000  1.0
  Ru  Ru9  2  0.50000000  0.25088000  0.04291000  1.0
  Ru  Ru10  1  0.00000000  0.00000000  0.12909000  1.0
  Ru  Ru11  1  0.00000000  0.00000000  0.95758000  1.0
  Ru  Ru12  1  0.00000000  0.50000000  0.12468000  1.0
  Ru  Ru13  1  0.00000000  0.50000000  0.95758000  1.0
  Ru  Ru14  1  0.50000000  0.00000000  0.12395000  1.0
  Ru  Ru15  1  0.50000000  0.00000000  0.95758000  1.0
  Ru  Ru16  1  0.50000000  0.50000000  0.12485000  1.0
  Ru  Ru17  1  0.50000000  0.50000000  0.95758000  1.0
  C  C18  1  0.00000000  0.00000000  0.19879000  1.0
  O  O19  1  0.00000000  0.00000000  0.24255000  1.0
