data_image0
_chemical_formula_structural       Mn8Al8Fe16C
_chemical_formula_sum              "Mn8 Al8 Fe16 C1"
_cell_length_a       5.79866
_cell_length_b       8.20054
_cell_length_c       26.1504
_cell_angle_alpha    90
_cell_angle_beta     90
_cell_angle_gamma    90

_space_group_name_H-M_alt    "P 1"
_space_group_IT_number       1

loop_
  _space_group_symop_operation_xyz
  'x, y, z'

loop_
  _atom_site_type_symbol
  _atom_site_label
  _atom_site_symmetry_multiplicity
  _atom_site_fract_x
  _atom_site_fract_y
  _atom_site_fract_z
  _atom_site_occupancy
  Mn  Mn1       1.0  0.00000  0.00000  0.88240  1.0000
  Mn  Mn2       1.0  0.50000  0.25000  0.96080  1.0000
  Mn  Mn3       1.0  0.50000  0.75000  0.96080  1.0000
  Mn  Mn4       1.0  0.00000  0.50000  0.88240  1.0000
  Mn  Mn5       1.0  0.00078  0.50520  0.03754  1.0000
  Mn  Mn6       1.0  0.47941  0.74999  0.11750  1.0000
  Mn  Mn7       1.0  0.55877  0.25001  0.11160  1.0000
  Mn  Mn8       1.0  0.00078  0.99479  0.03755  1.0000
  Al  Al1       1.0  0.00000  0.75000  0.96080  1.0000
  Al  Al2       1.0  0.50000  0.00000  0.88240  1.0000
  Al  Al3       1.0  0.00000  0.25000  0.96080  1.0000
  Al  Al4       1.0  0.50000  0.50000  0.88240  1.0000
  Al  Al5       1.0  0.94069  0.25000  0.14103  1.0000
  Al  Al6       1.0  0.49599  0.49668  0.03752  1.0000
  Al  Al7       1.0  0.01768  0.74999  0.11898  1.0000
  Al  Al8       1.0  0.49599  0.00331  0.03753  1.0000
  Fe  Fe1       1.0  0.25000  0.00000  0.96080  1.0000
  Fe  Fe2       1.0  0.75000  0.50000  0.96080  1.0000
  Fe  Fe3       1.0  0.75000  0.00000  0.96080  1.0000
  Fe  Fe4       1.0  0.25000  0.50000  0.96080  1.0000
  Fe  Fe5       1.0  0.75000  0.75000  0.88240  1.0000
  Fe  Fe6       1.0  0.25000  0.25000  0.88240  1.0000
  Fe  Fe7       1.0  0.25000  0.75000  0.88240  1.0000
  Fe  Fe8       1.0  0.75000  0.25000  0.88240  1.0000
  Fe  Fe9       1.0  0.24040  0.47807  0.11661  1.0000
  Fe  Fe10      1.0  0.75273  0.99159  0.11391  1.0000
  Fe  Fe11      1.0  0.75273  0.50840  0.11392  1.0000
  Fe  Fe12      1.0  0.24039  0.02192  0.11660  1.0000
  Fe  Fe13      1.0  0.76892  0.25001  0.04029  1.0000
  Fe  Fe14      1.0  0.24844  0.75000  0.03792  1.0000
  Fe  Fe15      1.0  0.22205  0.25000  0.04966  1.0000
  Fe  Fe16      1.0  0.75108  0.74999  0.04115  1.0000
  C   C1        1.0  0.26720  0.24999  0.13155  1.0000
