# generated using pymatgen
data_Cu3Au
_symmetry_space_group_name_H-M   'P 1'
_cell_length_a   3.82220500
_cell_length_b   5.40542000
_cell_length_c   24.05410000
_cell_angle_alpha   90.00000000
_cell_angle_beta   90.00000000
_cell_angle_gamma   90.00000000
_symmetry_Int_Tables_number   1
_chemical_formula_structural   Cu3Au
_chemical_formula_sum   'Cu6 Au2'
_cell_volume   496.97270015
_cell_formula_units_Z   2
loop_
 _symmetry_equiv_pos_site_id
 _symmetry_equiv_pos_as_xyz
  1  'x, y, z'
loop_
 _atom_site_type_symbol
 _atom_site_label
 _atom_site_symmetry_multiplicity
 _atom_site_fract_x
 _atom_site_fract_y
 _atom_site_fract_z
 _atom_site_occupancy
  Cu  Cu0  1  0.00000000  0.50000000  0.08149000  1.0
  Cu  Cu1  1  0.50000000  0.74926000  0.03026000  1.0
  Cu  Cu2  1  0.50000000  0.25074000  0.03026000  1.0
  Cu  Cu3  1  0.00000000  0.00000000  0.97191000  1.0
  Cu  Cu4  1  0.50000000  0.25000000  0.91573000  1.0
  Cu  Cu5  1  0.50000000  0.75000000  0.91573000  1.0
  Au  Au6  1  0.00000000  0.00000000  0.08483000  1.0
  Au  Au7  1  0.00000000  0.50000000  0.97191000  1.0
