data_image0
_chemical_formula_structural       Y4Sn4Ge4Pd4CO
_chemical_formula_sum              "Y4 Sn4 Ge4 Pd4 C1 O1"
_cell_length_a       5.93056
_cell_length_b       9.60308
_cell_length_c       24.4388
_cell_angle_alpha    90
_cell_angle_beta     90
_cell_angle_gamma    90

_space_group_name_H-M_alt    "P 1"
_space_group_IT_number       1

loop_
  _space_group_symop_operation_xyz
  'x, y, z'

loop_
  _atom_site_type_symbol
  _atom_site_label
  _atom_site_symmetry_multiplicity
  _atom_site_fract_x
  _atom_site_fract_y
  _atom_site_fract_z
  _atom_site_occupancy
  Y   Y1        1.0  0.48721  0.00016  0.09060  1.0000
  Y   Y2        1.0  0.96804  0.00000  0.96973  1.0000
  Y   Y3        1.0  0.52292  0.50021  0.08803  1.0000
  Y   Y4        1.0  0.96804  0.50000  0.96973  1.0000
  Sn  Sn1       1.0  0.18107  0.25226  0.04168  1.0000
  Sn  Sn2       1.0  0.70205  0.25000  0.90919  1.0000
  Sn  Sn3       1.0  0.18174  0.74688  0.04155  1.0000
  Sn  Sn4       1.0  0.70205  0.75000  0.90919  1.0000
  Ge  Ge1       1.0  0.98512  0.99782  0.09839  1.0000
  Ge  Ge2       1.0  0.46804  0.00000  0.96973  1.0000
  Ge  Ge3       1.0  0.02444  0.49894  0.10160  1.0000
  Ge  Ge4       1.0  0.46804  0.50000  0.96973  1.0000
  Pd  Pd1       1.0  0.68529  0.24870  0.03048  1.0000
  Pd  Pd2       1.0  0.20205  0.25000  0.90919  1.0000
  Pd  Pd3       1.0  0.68529  0.75287  0.03060  1.0000
  Pd  Pd4       1.0  0.20205  0.75000  0.90919  1.0000
  C   C1        1.0  0.34089  0.00067  0.18642  1.0000
  O   O1        1.0  0.27417  0.00049  0.23060  1.0000
