# generated using pymatgen
data_Y4Sn4Ge4Pd4CO
_symmetry_space_group_name_H-M   'P 1'
_cell_length_a   5.93056000
_cell_length_b   9.60308000
_cell_length_c   24.43880000
_cell_angle_alpha   90.00000000
_cell_angle_beta   90.00000000
_cell_angle_gamma   90.00000000
_symmetry_Int_Tables_number   1
_chemical_formula_structural   Y4Sn4Ge4Pd4CO
_chemical_formula_sum   'Y4 Sn4 Ge4 Pd4 C1 O1'
_cell_volume   1391.82979156
_cell_formula_units_Z   1
loop_
 _symmetry_equiv_pos_site_id
 _symmetry_equiv_pos_as_xyz
  1  'x, y, z'
loop_
 _atom_site_type_symbol
 _atom_site_label
 _atom_site_symmetry_multiplicity
 _atom_site_fract_x
 _atom_site_fract_y
 _atom_site_fract_z
 _atom_site_occupancy
  Y  Y0  1  0.51279000  0.99984000  0.09060000  1.0
  Y  Y1  1  0.03196000  0.00000000  0.96973000  1.0
  Y  Y2  1  0.47708000  0.49979000  0.08803000  1.0
  Y  Y3  1  0.03196000  0.50000000  0.96973000  1.0
  Sn  Sn4  1  0.81893000  0.74774000  0.04168000  1.0
  Sn  Sn5  1  0.29795000  0.75000000  0.90919000  1.0
  Sn  Sn6  1  0.81826000  0.25312000  0.04155000  1.0
  Sn  Sn7  1  0.29795000  0.25000000  0.90919000  1.0
  Ge  Ge8  1  0.01488000  0.00218000  0.09839000  1.0
  Ge  Ge9  1  0.53196000  0.00000000  0.96973000  1.0
  Ge  Ge10  1  0.97556000  0.50106000  0.10160000  1.0
  Ge  Ge11  1  0.53196000  0.50000000  0.96973000  1.0
  Pd  Pd12  1  0.31471000  0.75130000  0.03048000  1.0
  Pd  Pd13  1  0.79795000  0.75000000  0.90919000  1.0
  Pd  Pd14  1  0.31471000  0.24713000  0.03060000  1.0
  Pd  Pd15  1  0.79795000  0.25000000  0.90919000  1.0
  C  C16  1  0.65911000  0.99933000  0.18642000  1.0
  O  O17  1  0.72583000  0.99951000  0.23060000  1.0
