# generated using pymatgen
data_Y4Sn4Ge4Pd4CO
_symmetry_space_group_name_H-M   P1
_cell_length_a   5.93056000
_cell_length_b   9.60308000
_cell_length_c   24.43880000
_cell_angle_alpha   90.00000000
_cell_angle_beta   90.00000000
_cell_angle_gamma   90.00000000
_symmetry_Int_Tables_number   1
_chemical_formula_structural   Y4Sn4Ge4Pd4CO
_chemical_formula_sum   'Y4 Sn4 Ge4 Pd4 C1 O1'
_cell_volume   1391.82979156
_cell_formula_units_Z   1
loop_
 _symmetry_equiv_pos_site_id
 _symmetry_equiv_pos_as_xyz
  1  'x, y, z'
loop_
 _atom_site_type_symbol
 _atom_site_label
 _atom_site_symmetry_multiplicity
 _atom_site_fract_x
 _atom_site_fract_y
 _atom_site_fract_z
 _atom_site_occupancy
  Y  Y0  1  0.48721000  0.00016000  0.09060000  1.0
  Y  Y1  1  0.52292000  0.50021000  0.08803000  1.0
  Y  Y2  1  0.96804000  0.00000000  0.96973000  1.0
  Y  Y3  1  0.96804000  0.50000000  0.96973000  1.0
  Sn  Sn4  1  0.18107000  0.25226000  0.04168000  1.0
  Sn  Sn5  1  0.18174000  0.74688000  0.04155000  1.0
  Sn  Sn6  1  0.70205000  0.25000000  0.90919000  1.0
  Sn  Sn7  1  0.70205000  0.75000000  0.90919000  1.0
  Ge  Ge8  1  0.02444000  0.49894000  0.10160000  1.0
  Ge  Ge9  1  0.46804000  0.00000000  0.96973000  1.0
  Ge  Ge10  1  0.46804000  0.50000000  0.96973000  1.0
  Ge  Ge11  1  0.98512000  0.99782000  0.09839000  1.0
  Pd  Pd12  1  0.20205000  0.25000000  0.90919000  1.0
  Pd  Pd13  1  0.20205000  0.75000000  0.90919000  1.0
  Pd  Pd14  1  0.68529000  0.24870000  0.03048000  1.0
  Pd  Pd15  1  0.68529000  0.75287000  0.03060000  1.0
  C  C16  1  0.34089000  0.00067000  0.18642000  1.0
  O  O17  1  0.27417000  0.00049000  0.23060000  1.0
