data_image0
_chemical_formula_structural       Ti4Ir12C
_chemical_formula_sum              "Ti4 Ir12 C1"
_cell_length_a       7.78093
_cell_length_b       5.50195
_cell_length_c       24.1265
_cell_angle_alpha    90
_cell_angle_beta     90
_cell_angle_gamma    90

_space_group_name_H-M_alt    "P 1"
_space_group_IT_number       1

loop_
  _space_group_symop_operation_xyz
  'x, y, z'

loop_
  _atom_site_type_symbol
  _atom_site_label
  _atom_site_symmetry_multiplicity
  _atom_site_fract_x
  _atom_site_fract_y
  _atom_site_fract_z
  _atom_site_occupancy
  Ti  Ti1       1.0  0.00000  0.00000  0.91448  1.0000
  Ti  Ti2       1.0  0.00000  0.50000  0.01586  1.0000
  Ti  Ti3       1.0  0.50000  0.00000  0.91448  1.0000
  Ti  Ti4       1.0  0.50000  0.50000  0.03657  1.0000
  Ir  Ir1       1.0  0.00000  0.50000  0.91448  1.0000
  Ir  Ir2       1.0  0.25000  0.75000  0.97149  1.0000
  Ir  Ir3       1.0  0.25000  0.25000  0.97149  1.0000
  Ir  Ir4       1.0  0.00001  1.00000  0.01902  1.0000
  Ir  Ir5       1.0  0.20771  0.25090  0.08417  1.0000
  Ir  Ir6       1.0  0.20771  0.74910  0.08417  1.0000
  Ir  Ir7       1.0  0.50000  0.50000  0.91448  1.0000
  Ir  Ir8       1.0  0.75000  0.75000  0.97149  1.0000
  Ir  Ir9       1.0  0.75000  0.25000  0.97149  1.0000
  Ir  Ir10      1.0  0.49999  1.00000  0.03047  1.0000
  Ir  Ir11      1.0  0.79229  0.25090  0.08417  1.0000
  Ir  Ir12      1.0  0.79229  0.74910  0.08417  1.0000
  C   C1        1.0  0.00000  0.50000  0.10528  1.0000
