# generated using pymatgen
data_ScGaCuPd
_symmetry_space_group_name_H-M   Pmm2
_cell_length_a   4.47617684
_cell_length_b   4.47617684
_cell_length_c   24.74770000
_cell_angle_alpha   90.00000000
_cell_angle_beta   90.00000000
_cell_angle_gamma   90.00000000
_symmetry_Int_Tables_number   25
_chemical_formula_structural   ScGaCuPd
_chemical_formula_sum   'Sc2 Ga2 Cu2 Pd2'
_cell_volume   495.84885546
_cell_formula_units_Z   2
loop_
 _symmetry_equiv_pos_site_id
 _symmetry_equiv_pos_as_xyz
  1  'x, y, z'
  2  '-x, -y, z'
  3  '-x, y, z'
  4  'x, -y, z'
loop_
 _atom_site_type_symbol
 _atom_site_label
 _atom_site_symmetry_multiplicity
 _atom_site_fract_x
 _atom_site_fract_y
 _atom_site_fract_z
 _atom_site_occupancy
  Sc  Sc0  1  0.00000000  0.50000000  0.96803000  1.0
  Sc  Sc1  1  0.50000000  0.00000000  0.09592000  1.0
  Ga  Ga2  1  0.00000000  0.50000000  0.09592000  1.0
  Ga  Ga3  1  0.50000000  0.00000000  0.96803000  1.0
  Cu  Cu4  1  0.00000000  0.00000000  0.90408000  1.0
  Cu  Cu5  1  0.50000000  0.50000000  0.03197000  1.0
  Pd  Pd6  1  0.00000000  0.00000000  0.03197000  1.0
  Pd  Pd7  1  0.50000000  0.50000000  0.90408000  1.0
