# generated using pymatgen
data_YInSnPd
_symmetry_space_group_name_H-M   'P 1'
_cell_length_a   6.29351000
_cell_length_b   4.58201000
_cell_length_c   24.71690000
_cell_angle_alpha   90.00000000
_cell_angle_beta   90.00000000
_cell_angle_gamma   90.00000000
_symmetry_Int_Tables_number   1
_chemical_formula_structural   YInSnPd
_chemical_formula_sum   'Y2 In2 Sn2 Pd2'
_cell_volume   712.75941020
_cell_formula_units_Z   2
loop_
 _symmetry_equiv_pos_site_id
 _symmetry_equiv_pos_as_xyz
  1  'x, y, z'
loop_
 _atom_site_type_symbol
 _atom_site_label
 _atom_site_symmetry_multiplicity
 _atom_site_fract_x
 _atom_site_fract_y
 _atom_site_fract_z
 _atom_site_occupancy
  Y  Y0  1  0.25927000  0.50000000  0.96819000  1.0
  Y  Y1  1  0.79298000  0.50000000  0.09235000  1.0
  In  In2  1  0.00000000  0.00000000  0.90458000  1.0
  In  In3  1  0.50528000  0.00000000  0.03912000  1.0
  Sn  Sn4  1  0.75927000  0.50000000  0.96819000  1.0
  Sn  Sn5  1  0.28364000  0.50000000  0.10250000  1.0
  Pd  Pd6  1  0.50000000  0.00000000  0.90458000  1.0
  Pd  Pd7  1  0.02391000  0.00000000  0.03698000  1.0
