# generated using pymatgen
data_Y8In8Ag16C
_symmetry_space_group_name_H-M   'P 1'
_cell_length_a   7.06522000
_cell_length_b   9.99173000
_cell_length_c   27.49380000
_cell_angle_alpha   90.00000000
_cell_angle_beta   90.00000000
_cell_angle_gamma   90.00000000
_symmetry_Int_Tables_number   1
_chemical_formula_structural   Y8In8Ag16C
_chemical_formula_sum   'Y8 In8 Ag16 C1'
_cell_volume   1940.89101096
_cell_formula_units_Z   1
loop_
 _symmetry_equiv_pos_site_id
 _symmetry_equiv_pos_as_xyz
  1  'x, y, z'
loop_
 _atom_site_type_symbol
 _atom_site_label
 _atom_site_symmetry_multiplicity
 _atom_site_fract_x
 _atom_site_fract_y
 _atom_site_fract_z
 _atom_site_occupancy
  Y  Y0  1  0.00000000  0.00000000  0.86372000  1.0
  Y  Y1  1  0.50000000  0.25000000  0.95457000  1.0
  Y  Y2  1  0.50000000  0.75000000  0.95457000  1.0
  Y  Y3  1  0.00000000  0.50000000  0.86372000  1.0
  Y  Y4  1  0.00048000  0.50468000  0.04734000  1.0
  Y  Y5  1  0.47202000  0.75010000  0.13263000  1.0
  Y  Y6  1  0.51392000  0.25010000  0.12993000  1.0
  Y  Y7  1  0.00047000  0.99531000  0.04730000  1.0
  In  In8  1  1.00000000  0.75000000  0.95457000  1.0
  In  In9  1  0.50000000  0.00000000  0.86372000  1.0
  In  In10  1  1.00000000  0.25000000  0.95457000  1.0
  In  In11  1  0.50000000  0.50000000  0.86372000  1.0
  In  In12  1  0.92122000  0.25009000  0.16822000  1.0
  In  In13  1  0.50118000  0.49805000  0.04581000  1.0
  In  In14  1  0.01269000  0.75010000  0.13525000  1.0
  In  In15  1  0.50118000  0.00205000  0.04582000  1.0
  Ag  Ag16  1  0.25000000  0.00000000  0.95457000  1.0
  Ag  Ag17  1  0.75000000  0.50000000  0.95457000  1.0
  Ag  Ag18  1  0.75000000  0.00000000  0.95457000  1.0
  Ag  Ag19  1  0.25000000  0.50000000  0.95457000  1.0
  Ag  Ag20  1  0.75000000  0.75000000  0.86372000  1.0
  Ag  Ag21  1  0.25000000  0.25000000  0.86372000  1.0
  Ag  Ag22  1  0.25000000  0.75000000  0.86372000  1.0
  Ag  Ag23  1  0.75000000  0.25000000  0.86372000  1.0
  Ag  Ag24  1  0.21807000  0.48853000  0.14450000  1.0
  Ag  Ag25  1  0.75560000  0.98592000  0.14165000  1.0
  Ag  Ag26  1  0.75561000  0.51433000  0.14167000  1.0
  Ag  Ag27  1  0.21808000  0.01179000  0.14445000  1.0
  Ag  Ag28  1  0.76778000  0.25000000  0.04244000  1.0
  Ag  Ag29  1  0.24971000  0.75000000  0.04136000  1.0
  Ag  Ag30  1  0.22848000  0.25001000  0.04870000  1.0
  Ag  Ag31  1  0.74325000  0.75000000  0.04617000  1.0
  C  C32  1  0.20679000  0.25035000  0.14125000  1.0
