# generated using pymatgen
data_Li8Mg8Cu8Sn8CO
_symmetry_space_group_name_H-M   'P 1'
_cell_length_a   9.16858000
_cell_length_b   6.48317000
_cell_length_c   26.87640000
_cell_angle_alpha   90.00000000
_cell_angle_beta   90.00000000
_cell_angle_gamma   90.00000000
_symmetry_Int_Tables_number   1
_chemical_formula_structural   Li8Mg8Cu8Sn8CO
_chemical_formula_sum   'Li8 Mg8 Cu8 Sn8 C1 O1'
_cell_volume   1597.57253076
_cell_formula_units_Z   1
loop_
 _symmetry_equiv_pos_site_id
 _symmetry_equiv_pos_as_xyz
  1  'x, y, z'
loop_
 _atom_site_type_symbol
 _atom_site_label
 _atom_site_symmetry_multiplicity
 _atom_site_fract_x
 _atom_site_fract_y
 _atom_site_fract_z
 _atom_site_occupancy
  Li  Li0  1  0.25000000  1.00000000  0.04264000  1.0
  Li  Li1  1  0.75000000  1.00000000  0.04264000  1.0
  Li  Li2  1  0.50000000  0.50000000  0.12793000  1.0
  Li  Li3  1  0.00000000  0.50000000  0.12793000  1.0
  Li  Li4  1  0.75006000  0.04416000  0.84272000  1.0
  Li  Li5  1  0.24994000  0.04416000  0.84272000  1.0
  Li  Li6  1  0.00000000  0.49962000  0.95546000  1.0
  Li  Li7  1  0.50000000  0.49952000  0.95541000  1.0
  Mg  Mg8  1  0.00000000  0.75000000  0.04264000  1.0
  Mg  Mg9  1  0.50000000  0.75000000  0.04264000  1.0
  Mg  Mg10  1  0.25000000  0.25000000  0.12793000  1.0
  Mg  Mg11  1  0.75000000  0.25000000  0.12793000  1.0
  Mg  Mg12  1  0.50000000  0.74725000  0.86681000  1.0
  Mg  Mg13  1  0.00000000  0.74737000  0.86664000  1.0
  Mg  Mg14  1  0.74976000  0.23358000  0.95190000  1.0
  Mg  Mg15  1  0.25024000  0.23358000  0.95190000  1.0
  Cu  Cu16  1  0.00000000  0.00000000  0.12793000  1.0
  Cu  Cu17  1  0.50000000  1.00000000  0.12793000  1.0
  Cu  Cu18  1  0.75000000  0.50000000  0.04264000  1.0
  Cu  Cu19  1  0.25000000  0.50000000  0.04264000  1.0
  Cu  Cu20  1  0.50000000  0.99862000  0.95899000  1.0
  Cu  Cu21  1  0.00000000  0.99898000  0.95877000  1.0
  Cu  Cu22  1  0.25008000  0.48992000  0.87450000  1.0
  Cu  Cu23  1  0.74992000  0.48992000  0.87450000  1.0
  Sn  Sn24  1  0.00000000  0.25000000  0.04264000  1.0
  Sn  Sn25  1  0.50000000  0.25000000  0.04264000  1.0
  Sn  Sn26  1  0.25000000  0.75000000  0.12793000  1.0
  Sn  Sn27  1  0.75000000  0.75000000  0.12793000  1.0
  Sn  Sn28  1  0.50000000  0.25853000  0.86703000  1.0
  Sn  Sn29  1  0.00000000  0.25871000  0.86717000  1.0
  Sn  Sn30  1  0.75021000  0.75770000  0.95243000  1.0
  Sn  Sn31  1  0.24979000  0.75770000  0.95243000  1.0
  C  C32  1  0.00000000  0.38185000  0.71727000  1.0
  O  O33  1  0.00000000  0.22513000  0.69835000  1.0
