# generated using pymatgen
data_Li16Cu8Sn8C
_symmetry_space_group_name_H-M   'P 1'
_cell_length_a   8.97987000
_cell_length_b   6.34973000
_cell_length_c   26.73490000
_cell_angle_alpha   90.00000000
_cell_angle_beta   90.00000000
_cell_angle_gamma   90.00000000
_symmetry_Int_Tables_number   1
_chemical_formula_structural   Li16Cu8Sn8C
_chemical_formula_sum   'Li16 Cu8 Sn8 C1'
_cell_volume   1524.41731254
_cell_formula_units_Z   1
loop_
 _symmetry_equiv_pos_site_id
 _symmetry_equiv_pos_as_xyz
  1  'x, y, z'
loop_
 _atom_site_type_symbol
 _atom_site_label
 _atom_site_symmetry_multiplicity
 _atom_site_fract_x
 _atom_site_fract_y
 _atom_site_fract_z
 _atom_site_occupancy
  Li  Li0  1  0.50000000  0.00000000  0.04199000  1.0
  Li  Li1  1  0.75000000  0.50000000  0.12596000  1.0
  Li  Li2  1  0.00000000  0.00000000  0.04199000  1.0
  Li  Li3  1  0.25000000  0.50000000  0.12596000  1.0
  Li  Li4  1  0.75000000  0.25000000  0.04199000  1.0
  Li  Li5  1  0.25000000  0.25000000  0.04199000  1.0
  Li  Li6  1  0.50000000  0.75000000  0.12596000  1.0
  Li  Li7  1  0.00000000  0.75000000  0.12596000  1.0
  Li  Li8  1  0.00000000  0.04021000  0.88066000  1.0
  Li  Li9  1  0.25898000  0.48882000  0.96163000  1.0
  Li  Li10  1  0.50000000  0.00945000  0.87115000  1.0
  Li  Li11  1  0.74102000  0.48882000  0.96163000  1.0
  Li  Li12  1  0.22303000  0.30750000  0.87181000  1.0
  Li  Li13  1  0.77697000  0.30750000  0.87181000  1.0
  Li  Li14  1  0.00000000  0.68487000  0.94216000  1.0
  Li  Li15  1  0.50000000  0.74980000  0.95541000  1.0
  Cu  Cu16  1  0.00000000  0.25000000  0.12596000  1.0
  Cu  Cu17  1  0.50000000  0.25000000  0.12596000  1.0
  Cu  Cu18  1  0.25000000  0.75000000  0.04199000  1.0
  Cu  Cu19  1  0.75000000  0.75000000  0.04199000  1.0
  Cu  Cu20  1  0.50000000  0.24552000  0.95656000  1.0
  Cu  Cu21  1  0.00000000  0.26897000  0.95889000  1.0
  Cu  Cu22  1  0.73803000  0.73978000  0.88103000  1.0
  Cu  Cu23  1  0.26197000  0.73978000  0.88103000  1.0
  Sn  Sn24  1  0.75000000  0.00000000  0.12596000  1.0
  Sn  Sn25  1  0.00000000  0.50000000  0.04199000  1.0
  Sn  Sn26  1  0.50000000  0.50000000  0.04199000  1.0
  Sn  Sn27  1  0.25000000  0.00000000  0.12596000  1.0
  Sn  Sn28  1  0.24162000  0.99689000  0.95716000  1.0
  Sn  Sn29  1  0.50000000  0.49406000  0.86923000  1.0
  Sn  Sn30  1  0.00000000  0.62475000  0.83521000  1.0
  Sn  Sn31  1  0.75838000  0.99689000  0.95716000  1.0
  C  C32  1  0.00000000  0.39474000  0.89344000  1.0
