# generated using pymatgen
data_Li16Cu8Sn8C
_symmetry_space_group_name_H-M   Pm
_cell_length_a   6.34973000
_cell_length_b   8.97987000
_cell_length_c   26.73490000
_cell_angle_alpha   90.00000000
_cell_angle_beta   90.00000000
_cell_angle_gamma   90.00000000
_symmetry_Int_Tables_number   6
_chemical_formula_structural   Li16Cu8Sn8C
_chemical_formula_sum   'Li16 Cu8 Sn8 C1'
_cell_volume   1524.41731254
_cell_formula_units_Z   1
loop_
 _symmetry_equiv_pos_site_id
 _symmetry_equiv_pos_as_xyz
  1  'x, y, z'
  2  'x, -y, z'
loop_
 _atom_site_type_symbol
 _atom_site_label
 _atom_site_symmetry_multiplicity
 _atom_site_fract_x
 _atom_site_fract_y
 _atom_site_fract_z
 _atom_site_occupancy
  Li  Li0  2  0.25000000  0.25000000  0.95801000  1.0
  Li  Li1  2  0.30750000  0.22303000  0.12819000  1.0
  Li  Li2  2  0.48882000  0.25898000  0.03837000  1.0
  Li  Li3  2  0.50000000  0.25000000  0.87404000  1.0
  Li  Li4  1  0.00000000  0.00000000  0.95801000  1.0
  Li  Li5  1  0.00000000  0.50000000  0.95801000  1.0
  Li  Li6  1  0.00945000  0.50000000  0.12885000  1.0
  Li  Li7  1  0.04021000  0.00000000  0.11934000  1.0
  Li  Li8  1  0.68487000  0.00000000  0.05784000  1.0
  Li  Li9  1  0.74980000  0.50000000  0.04459000  1.0
  Li  Li10  1  0.75000000  0.00000000  0.87404000  1.0
  Li  Li11  1  0.75000000  0.50000000  0.87404000  1.0
  Cu  Cu12  2  0.73978000  0.26197000  0.11897000  1.0
  Cu  Cu13  2  0.75000000  0.25000000  0.95801000  1.0
  Cu  Cu14  1  0.24552000  0.50000000  0.04344000  1.0
  Cu  Cu15  1  0.25000000  0.00000000  0.87404000  1.0
  Cu  Cu16  1  0.25000000  0.50000000  0.87404000  1.0
  Cu  Cu17  1  0.26897000  0.00000000  0.04111000  1.0
  Sn  Sn18  2  0.00000000  0.25000000  0.87404000  1.0
  Sn  Sn19  2  0.99689000  0.24162000  0.04284000  1.0
  Sn  Sn20  1  0.49406000  0.50000000  0.13077000  1.0
  Sn  Sn21  1  0.50000000  0.00000000  0.95801000  1.0
  Sn  Sn22  1  0.50000000  0.50000000  0.95801000  1.0
  Sn  Sn23  1  0.62475000  0.00000000  0.16479000  1.0
  C  C24  1  0.39474000  0.00000000  0.10656000  1.0
