# generated using pymatgen
data_Ti8Co16Sn8C
_symmetry_space_group_name_H-M   'P 1'
_cell_length_a   6.11439000
_cell_length_b   8.64705000
_cell_length_c   26.48530000
_cell_angle_alpha   90.00000000
_cell_angle_beta   90.00000000
_cell_angle_gamma   90.00000000
_symmetry_Int_Tables_number   1
_chemical_formula_structural   Ti8Co16Sn8C
_chemical_formula_sum   'Ti8 Co16 Sn8 C1'
_cell_volume   1400.31584520
_cell_formula_units_Z   1
loop_
 _symmetry_equiv_pos_site_id
 _symmetry_equiv_pos_as_xyz
  1  'x, y, z'
loop_
 _atom_site_type_symbol
 _atom_site_label
 _atom_site_symmetry_multiplicity
 _atom_site_fract_x
 _atom_site_fract_y
 _atom_site_fract_z
 _atom_site_occupancy
  Ti  Ti0  1  0.00000000  0.00000000  0.87757000  1.0
  Ti  Ti1  1  0.50000000  0.25000000  0.95919000  1.0
  Ti  Ti2  1  0.50000000  0.75000000  0.95919000  1.0
  Ti  Ti3  1  0.00000000  0.50000000  0.87757000  1.0
  Ti  Ti4  1  0.00000000  0.50000000  0.04295000  1.0
  Ti  Ti5  1  0.50000000  0.75379000  0.12076000  1.0
  Ti  Ti6  1  0.50000000  0.24621000  0.12076000  1.0
  Ti  Ti7  1  0.00000000  0.00000000  0.04063000  1.0
  Co  Co8  1  0.25000000  0.00000000  0.95919000  1.0
  Co  Co9  1  0.75000000  0.50000000  0.95919000  1.0
  Co  Co10  1  0.75000000  0.00000000  0.95919000  1.0
  Co  Co11  1  0.25000000  0.50000000  0.95919000  1.0
  Co  Co12  1  0.75000000  0.75000000  0.87757000  1.0
  Co  Co13  1  0.25000000  0.25000000  0.87757000  1.0
  Co  Co14  1  0.25000000  0.75000000  0.87757000  1.0
  Co  Co15  1  0.75000000  0.25000000  0.87757000  1.0
  Co  Co16  1  0.24012000  0.50000000  0.11665000  1.0
  Co  Co17  1  0.78149000  0.00000000  0.11855000  1.0
  Co  Co18  1  0.75988000  0.50000000  0.11665000  1.0
  Co  Co19  1  0.21851000  0.00000000  0.11855000  1.0
  Co  Co20  1  0.75081000  0.24905000  0.04326000  1.0
  Co  Co21  1  0.24919000  0.75095000  0.04326000  1.0
  Co  Co22  1  0.24919000  0.24905000  0.04326000  1.0
  Co  Co23  1  0.75081000  0.75095000  0.04326000  1.0
  Sn  Sn24  1  0.00000000  0.75000000  0.95919000  1.0
  Sn  Sn25  1  0.50000000  0.00000000  0.87757000  1.0
  Sn  Sn26  1  0.00000000  0.25000000  0.95919000  1.0
  Sn  Sn27  1  0.50000000  0.50000000  0.87757000  1.0
  Sn  Sn28  1  0.00000000  0.25357000  0.13228000  1.0
  Sn  Sn29  1  0.50000000  0.50000000  0.04025000  1.0
  Sn  Sn30  1  0.00000000  0.74643000  0.13228000  1.0
  Sn  Sn31  1  0.50000000  0.00000000  0.03984000  1.0
  C  C32  1  0.50000000  0.00000000  0.13905000  1.0
