# generated using pymatgen
data_Ti8Co16Sn8C
_symmetry_space_group_name_H-M   Pmm2
_cell_length_a   6.11439000
_cell_length_b   8.64705000
_cell_length_c   26.48530000
_cell_angle_alpha   90.00000000
_cell_angle_beta   90.00000000
_cell_angle_gamma   90.00000000
_symmetry_Int_Tables_number   25
_chemical_formula_structural   Ti8Co16Sn8C
_chemical_formula_sum   'Ti8 Co16 Sn8 C1'
_cell_volume   1400.31584520
_cell_formula_units_Z   1
loop_
 _symmetry_equiv_pos_site_id
 _symmetry_equiv_pos_as_xyz
  1  'x, y, z'
  2  '-x, -y, z'
  3  '-x, y, z'
  4  'x, -y, z'
loop_
 _atom_site_type_symbol
 _atom_site_label
 _atom_site_symmetry_multiplicity
 _atom_site_fract_x
 _atom_site_fract_y
 _atom_site_fract_z
 _atom_site_occupancy
  Ti  Ti0  2  0.50000000  0.24621000  0.12076000  1.0
  Ti  Ti1  2  0.50000000  0.25000000  0.95919000  1.0
  Ti  Ti2  1  0.00000000  0.00000000  0.04063000  1.0
  Ti  Ti3  1  0.00000000  0.00000000  0.87757000  1.0
  Ti  Ti4  1  0.00000000  0.50000000  0.04295000  1.0
  Ti  Ti5  1  0.00000000  0.50000000  0.87757000  1.0
  Co  Co6  4  0.24919000  0.24905000  0.04326000  1.0
  Co  Co7  4  0.25000000  0.25000000  0.87757000  1.0
  Co  Co8  2  0.21851000  0.00000000  0.11855000  1.0
  Co  Co9  2  0.24012000  0.50000000  0.11665000  1.0
  Co  Co10  2  0.25000000  0.00000000  0.95919000  1.0
  Co  Co11  2  0.25000000  0.50000000  0.95919000  1.0
  Sn  Sn12  2  0.00000000  0.25000000  0.95919000  1.0
  Sn  Sn13  2  0.00000000  0.25357000  0.13228000  1.0
  Sn  Sn14  1  0.50000000  0.00000000  0.03984000  1.0
  Sn  Sn15  1  0.50000000  0.00000000  0.87757000  1.0
  Sn  Sn16  1  0.50000000  0.50000000  0.04025000  1.0
  Sn  Sn17  1  0.50000000  0.50000000  0.87757000  1.0
  C  C18  1  0.50000000  0.00000000  0.13905000  1.0
