# generated using pymatgen
data_V4Pt12CO
_symmetry_space_group_name_H-M   'P 1'
_cell_length_a   7.87849000
_cell_length_b   5.57094000
_cell_length_c   24.17820000
_cell_angle_alpha   90.00000000
_cell_angle_beta   90.00000000
_cell_angle_gamma   90.00000000
_symmetry_Int_Tables_number   1
_chemical_formula_structural   V4Pt12CO
_chemical_formula_sum   'V4 Pt12 C1 O1'
_cell_volume   1061.19558598
_cell_formula_units_Z   1
loop_
 _symmetry_equiv_pos_site_id
 _symmetry_equiv_pos_as_xyz
  1  'x, y, z'
loop_
 _atom_site_type_symbol
 _atom_site_label
 _atom_site_symmetry_multiplicity
 _atom_site_fract_x
 _atom_site_fract_y
 _atom_site_fract_z
 _atom_site_occupancy
  V  V0  1  0.75001000  0.00000000  0.91360000  1.0
  V  V1  1  0.75850000  0.49301000  0.03485000  1.0
  V  V2  1  0.24999000  0.00000000  0.91360000  1.0
  V  V3  1  0.24150000  0.49301000  0.03485000  1.0
  Pt  Pt4  1  0.75001000  0.50000000  0.91360000  1.0
  Pt  Pt5  1  0.50000000  0.25000000  0.97120000  1.0
  Pt  Pt6  1  0.50000000  0.75000000  0.97120000  1.0
  Pt  Pt7  1  0.74982000  0.99971000  0.02525000  1.0
  Pt  Pt8  1  0.50000000  0.76007000  0.08648000  1.0
  Pt  Pt9  1  0.50000000  0.27499000  0.08273000  1.0
  Pt  Pt10  1  0.24999000  0.50000000  0.91360000  1.0
  Pt  Pt11  1  0.00000000  0.25000000  0.97120000  1.0
  Pt  Pt12  1  0.00000000  0.75000000  0.97120000  1.0
  Pt  Pt13  1  0.25018000  0.99971000  0.02525000  1.0
  Pt  Pt14  1  0.00000000  0.73180000  0.08467000  1.0
  Pt  Pt15  1  0.00000000  0.25486000  0.08512000  1.0
  C  C16  1  0.50000000  0.75008000  0.16397000  1.0
  O  O17  1  0.50000000  0.74420000  0.21161000  1.0
