# generated using pymatgen
data_Sc8In8Pt16C
_symmetry_space_group_name_H-M   Pmm2
_cell_length_a   6.63475000
_cell_length_b   9.38295000
_cell_length_c   27.03720000
_cell_angle_alpha   90.00000000
_cell_angle_beta   90.00000000
_cell_angle_gamma   90.00000000
_symmetry_Int_Tables_number   25
_chemical_formula_structural   Sc8In8Pt16C
_chemical_formula_sum   'Sc8 In8 Pt16 C1'
_cell_volume   1683.16107406
_cell_formula_units_Z   1
loop_
 _symmetry_equiv_pos_site_id
 _symmetry_equiv_pos_as_xyz
  1  'x, y, z'
  2  '-x, -y, z'
  3  '-x, y, z'
  4  'x, -y, z'
loop_
 _atom_site_type_symbol
 _atom_site_label
 _atom_site_symmetry_multiplicity
 _atom_site_fract_x
 _atom_site_fract_y
 _atom_site_fract_z
 _atom_site_occupancy
  Sc  Sc0  2  0.50000000  0.24570000  0.12668000  1.0
  Sc  Sc1  2  0.50000000  0.25000000  0.95662000  1.0
  Sc  Sc2  1  0.00000000  0.00000000  0.04851000  1.0
  Sc  Sc3  1  0.00000000  0.00000000  0.86986000  1.0
  Sc  Sc4  1  0.00000000  0.50000000  0.04317000  1.0
  Sc  Sc5  1  0.00000000  0.50000000  0.86986000  1.0
  In  In6  2  0.00000000  0.25000000  0.95662000  1.0
  In  In7  2  0.00000000  0.26167000  0.13783000  1.0
  In  In8  1  0.50000000  0.00000000  0.04479000  1.0
  In  In9  1  0.50000000  0.00000000  0.86986000  1.0
  In  In10  1  0.50000000  0.50000000  0.04120000  1.0
  In  In11  1  0.50000000  0.50000000  0.86986000  1.0
  Pt  Pt12  4  0.24786000  0.24933000  0.04324000  1.0
  Pt  Pt13  4  0.25000000  0.25000000  0.86986000  1.0
  Pt  Pt14  2  0.20776000  0.00000000  0.13865000  1.0
  Pt  Pt15  2  0.25000000  0.50000000  0.95662000  1.0
  Pt  Pt16  2  0.25000000  0.00000000  0.95662000  1.0
  Pt  Pt17  2  0.25121000  0.50000000  0.12253000  1.0
  C  C18  1  0.50000000  0.00000000  0.14602000  1.0
