# generated using pymatgen
data_Li16Ga8Pd8CO
_symmetry_space_group_name_H-M   P1
_cell_length_a   6.14873000
_cell_length_b   8.69561000
_cell_length_c   26.52170000
_cell_angle_alpha   90.00000000
_cell_angle_beta   90.00000000
_cell_angle_gamma   90.00000000
_symmetry_Int_Tables_number   1
_chemical_formula_structural   Li16Ga8Pd8CO
_chemical_formula_sum   'Li16 Ga8 Pd8 C1 O1'
_cell_volume   1418.03462199
_cell_formula_units_Z   1
loop_
 _symmetry_equiv_pos_site_id
 _symmetry_equiv_pos_as_xyz
  1  'x, y, z'
loop_
 _atom_site_type_symbol
 _atom_site_label
 _atom_site_symmetry_multiplicity
 _atom_site_fract_x
 _atom_site_fract_y
 _atom_site_fract_z
 _atom_site_occupancy
  Li  Li0  1  0.00000000  0.25000000  0.95902000  1.0
  Li  Li1  1  0.00000000  0.75000000  0.95902000  1.0
  Li  Li2  1  0.00389000  0.75002000  0.12401000  1.0
  Li  Li3  1  0.01519000  0.25007000  0.12300000  1.0
  Li  Li4  1  0.24209000  0.24997000  0.03613000  1.0
  Li  Li5  1  0.24617000  0.74999000  0.03762000  1.0
  Li  Li6  1  0.25000000  0.25000000  0.87705000  1.0
  Li  Li7  1  0.25000000  0.75000000  0.87705000  1.0
  Li  Li8  1  0.50000000  0.00000000  0.87705000  1.0
  Li  Li9  1  0.50000000  0.50000000  0.87705000  1.0
  Li  Li10  1  0.50788000  0.00024000  0.03923000  1.0
  Li  Li11  1  0.50815000  0.49957000  0.03923000  1.0
  Li  Li12  1  0.72755000  0.00841000  0.13111000  1.0
  Li  Li13  1  0.72759000  0.49160000  0.13112000  1.0
  Li  Li14  1  0.75000000  0.00000000  0.95902000  1.0
  Li  Li15  1  0.75000000  0.50000000  0.95902000  1.0
  Ga  Ga16  1  0.25000000  0.00000000  0.95902000  1.0
  Ga  Ga17  1  0.25000000  0.50000000  0.95902000  1.0
  Ga  Ga18  1  0.26409000  0.99704000  0.12305000  1.0
  Ga  Ga19  1  0.26420000  0.50307000  0.12303000  1.0
  Ga  Ga20  1  0.75000000  0.25000000  0.87705000  1.0
  Ga  Ga21  1  0.75000000  0.75000000  0.87705000  1.0
  Ga  Ga22  1  0.75635000  0.75007000  0.04075000  1.0
  Ga  Ga23  1  0.75664000  0.24982000  0.04081000  1.0
  Pd  Pd24  1  0.00000000  0.00000000  0.87705000  1.0
  Pd  Pd25  1  0.00000000  0.50000000  0.87705000  1.0
  Pd  Pd26  1  0.47511000  0.25003000  0.11278000  1.0
  Pd  Pd27  1  0.48944000  0.75005000  0.11476000  1.0
  Pd  Pd28  1  0.50000000  0.25000000  0.95902000  1.0
  Pd  Pd29  1  0.50000000  0.75000000  0.95902000  1.0
  Pd  Pd30  1  0.99566000  0.00035000  0.04492000  1.0
  Pd  Pd31  1  0.99576000  0.49960000  0.04492000  1.0
  C  C32  1  0.92462000  0.25005000  0.19683000  1.0
  O  O33  1  0.89569000  0.25000000  0.23964000  1.0
