# generated using pymatgen
data_Y4Sc4Ga4Pd4C
_symmetry_space_group_name_H-M   Pm
_cell_length_a   6.06401000
_cell_length_b   9.48206000
_cell_length_c   24.30750000
_cell_angle_alpha   90.00000000
_cell_angle_beta   90.00000000
_cell_angle_gamma   90.00000000
_symmetry_Int_Tables_number   6
_chemical_formula_structural   Y4Sc4Ga4Pd4C
_chemical_formula_sum   'Y4 Sc4 Ga4 Pd4 C1'
_cell_volume   1397.66439665
_cell_formula_units_Z   1
loop_
 _symmetry_equiv_pos_site_id
 _symmetry_equiv_pos_as_xyz
  1  'x, y, z'
  2  'x, -y, z'
loop_
 _atom_site_type_symbol
 _atom_site_label
 _atom_site_symmetry_multiplicity
 _atom_site_fract_x
 _atom_site_fract_y
 _atom_site_fract_z
 _atom_site_occupancy
  Y  Y0  2  0.46813000  0.19735000  0.09470000  1.0
  Y  Y1  2  0.83957000  0.25001000  0.97046000  1.0
  Sc  Sc2  1  0.15314000  0.50000000  0.02490000  1.0
  Sc  Sc3  1  0.17856000  0.00000000  0.01059000  1.0
  Sc  Sc4  1  0.50936000  0.00000000  0.91139000  1.0
  Sc  Sc5  1  0.50936000  0.50000000  0.91139000  1.0
  Ga  Ga6  2  0.33957000  0.25001000  0.97046000  1.0
  Ga  Ga7  2  0.96890000  0.15079000  0.10123000  1.0
  Pd  Pd8  1  0.00936000  0.00000000  0.91139000  1.0
  Pd  Pd9  1  0.00936000  0.50000000  0.91139000  1.0
  Pd  Pd10  1  0.59659000  0.50000000  0.01740000  1.0
  Pd  Pd11  1  0.68424000  0.00000000  0.02035000  1.0
  C  C12  1  0.23666000  0.00000000  0.10141000  1.0
