# generated using pymatgen
data_Li8V8Ge8Pd8CO
_symmetry_space_group_name_H-M   P1
_cell_length_a   8.64114000
_cell_length_b   9.40562000
_cell_length_c   24.26620000
_cell_angle_alpha   90.00000000
_cell_angle_beta   90.00000000
_cell_angle_gamma   90.00000000
_symmetry_Int_Tables_number   1
_chemical_formula_structural   Li8V8Ge8Pd8CO
_chemical_formula_sum   'Li8 V8 Ge8 Pd8 C1 O1'
_cell_volume   1972.24218029
_cell_formula_units_Z   1
loop_
 _symmetry_equiv_pos_site_id
 _symmetry_equiv_pos_as_xyz
  1  'x, y, z'
loop_
 _atom_site_type_symbol
 _atom_site_label
 _atom_site_symmetry_multiplicity
 _atom_site_fract_x
 _atom_site_fract_y
 _atom_site_fract_z
 _atom_site_occupancy
  Li  Li0  1  0.00000000  0.25000000  0.09496000  1.0
  Li  Li1  1  0.00000000  0.25000000  0.97070000  1.0
  Li  Li2  1  0.00000000  0.75000000  0.97070000  1.0
  Li  Li3  1  0.00000000  0.75001000  0.09503000  1.0
  Li  Li4  1  0.50000000  0.24998000  0.09404000  1.0
  Li  Li5  1  0.50000000  0.25000000  0.97070000  1.0
  Li  Li6  1  0.50000000  0.75000000  0.97070000  1.0
  Li  Li7  1  0.50001000  0.74999000  0.09190000  1.0
  V  V8  1  0.24993000  0.00047000  0.06694000  1.0
  V  V9  1  0.25000000  0.00000000  0.97070000  1.0
  V  V10  1  0.25000000  0.49948000  0.06690000  1.0
  V  V11  1  0.25000000  0.50000000  0.97070000  1.0
  V  V12  1  0.74999000  0.49947000  0.06692000  1.0
  V  V13  1  0.75000000  0.00000000  0.97070000  1.0
  V  V14  1  0.75000000  0.50000000  0.97070000  1.0
  V  V15  1  0.75011000  0.00053000  0.06694000  1.0
  Ge  Ge16  1  0.00000000  0.00000000  0.91210000  1.0
  Ge  Ge17  1  0.00000000  0.50000000  0.91210000  1.0
  Ge  Ge18  1  0.00005000  0.99884000  0.02319000  1.0
  Ge  Ge19  1  0.49991000  0.00208000  0.02321000  1.0
  Ge  Ge20  1  0.50000000  0.00000000  0.91210000  1.0
  Ge  Ge21  1  0.50000000  0.50000000  0.91210000  1.0
  Ge  Ge22  1  0.50001000  0.49790000  0.02323000  1.0
  Ge  Ge23  1  0.99996000  0.50119000  0.02325000  1.0
  Pd  Pd24  1  0.24719000  0.75001000  0.03488000  1.0
  Pd  Pd25  1  0.25000000  0.25000000  0.91210000  1.0
  Pd  Pd26  1  0.25000000  0.75000000  0.91210000  1.0
  Pd  Pd27  1  0.25334000  0.24997000  0.03388000  1.0
  Pd  Pd28  1  0.74667000  0.24999000  0.03388000  1.0
  Pd  Pd29  1  0.75000000  0.25000000  0.91210000  1.0
  Pd  Pd30  1  0.75000000  0.75000000  0.91210000  1.0
  Pd  Pd31  1  0.75282000  0.75000000  0.03489000  1.0
  C  C32  1  0.00001000  0.24999000  0.18169000  1.0
  O  O33  1  0.00000000  0.25000000  0.22877000  1.0
