# generated using pymatgen
data_Zr8In8Ni16CO
_symmetry_space_group_name_H-M   'P 1'
_cell_length_a   6.34973000
_cell_length_b   8.97987000
_cell_length_c   26.73490000
_cell_angle_alpha   90.00000000
_cell_angle_beta   90.00000000
_cell_angle_gamma   90.00000000
_symmetry_Int_Tables_number   1
_chemical_formula_structural   Zr8In8Ni16CO
_chemical_formula_sum   'Zr8 In8 Ni16 C1 O1'
_cell_volume   1524.41731254
_cell_formula_units_Z   1
loop_
 _symmetry_equiv_pos_site_id
 _symmetry_equiv_pos_as_xyz
  1  'x, y, z'
loop_
 _atom_site_type_symbol
 _atom_site_label
 _atom_site_symmetry_multiplicity
 _atom_site_fract_x
 _atom_site_fract_y
 _atom_site_fract_z
 _atom_site_occupancy
  Zr  Zr0  1  0.50000000  0.74999000  0.87404000  1.0
  Zr  Zr1  1  0.00000000  0.00000000  0.95801000  1.0
  Zr  Zr2  1  0.00000000  0.50000000  0.95801000  1.0
  Zr  Zr3  1  0.50000000  0.25001000  0.87404000  1.0
  Zr  Zr4  1  0.50000000  0.25008000  0.04294000  1.0
  Zr  Zr5  1  0.00000000  0.50000000  0.12543000  1.0
  Zr  Zr6  1  0.00000000  0.00000000  0.12487000  1.0
  Zr  Zr7  1  0.50000000  0.74992000  0.04294000  1.0
  In  In8  1  0.50000000  0.50000000  0.95801000  1.0
  In  In9  1  0.00000000  0.74999000  0.87404000  1.0
  In  In10  1  0.50000000  0.00000000  0.95801000  1.0
  In  In11  1  0.00000000  0.25001000  0.87404000  1.0
  In  In12  1  0.50000000  0.00000000  0.13140000  1.0
  In  In13  1  0.00000000  0.25032000  0.04032000  1.0
  In  In14  1  0.50000000  0.50000000  0.13213000  1.0
  In  In15  1  0.00000000  0.74968000  0.04032000  1.0
  Ni  Ni16  1  0.75001000  0.74999000  0.95801000  1.0
  Ni  Ni17  1  0.24999000  0.25001000  0.95801000  1.0
  Ni  Ni18  1  0.24999000  0.74999000  0.95801000  1.0
  Ni  Ni19  1  0.75001000  0.25001000  0.95801000  1.0
  Ni  Ni20  1  0.25001000  0.50000000  0.87404000  1.0
  Ni  Ni21  1  0.75001000  0.00000000  0.87404000  1.0
  Ni  Ni22  1  0.74999000  0.50000000  0.87404000  1.0
  Ni  Ni23  1  0.24999000  0.00000000  0.87404000  1.0
  Ni  Ni24  1  0.75108000  0.25020000  0.12051000  1.0
  Ni  Ni25  1  0.24892000  0.74980000  0.12051000  1.0
  Ni  Ni26  1  0.24892000  0.25020000  0.12051000  1.0
  Ni  Ni27  1  0.75108000  0.74980000  0.12051000  1.0
  Ni  Ni28  1  0.24417000  0.00000000  0.04439000  1.0
  Ni  Ni29  1  0.75564000  0.50000000  0.04498000  1.0
  Ni  Ni30  1  0.75583000  0.00000000  0.04439000  1.0
  Ni  Ni31  1  0.24436000  0.50000000  0.04498000  1.0
  C  C32  1  0.50000000  0.00000000  0.28364000  1.0
  O  O33  1  0.50000000  0.00000000  0.32610000  1.0
