# generated using pymatgen
data_Li16Ag8Pb8CO
_symmetry_space_group_name_H-M   'P 1'
_cell_length_a   6.84524000
_cell_length_b   9.68063000
_cell_length_c   27.26050000
_cell_angle_alpha   90.00000000
_cell_angle_beta   90.00000000
_cell_angle_gamma   90.00000000
_symmetry_Int_Tables_number   1
_chemical_formula_structural   Li16Ag8Pb8CO
_chemical_formula_sum   'Li16 Ag8 Pb8 C1 O1'
_cell_volume   1806.45071833
_cell_formula_units_Z   1
loop_
 _symmetry_equiv_pos_site_id
 _symmetry_equiv_pos_as_xyz
  1  'x, y, z'
loop_
 _atom_site_type_symbol
 _atom_site_label
 _atom_site_symmetry_multiplicity
 _atom_site_fract_x
 _atom_site_fract_y
 _atom_site_fract_z
 _atom_site_occupancy
  Li  Li0  1  0.00000000  0.75000000  0.95561000  1.0
  Li  Li1  1  0.50000000  0.00000000  0.86683000  1.0
  Li  Li2  1  0.00000000  0.25000000  0.95561000  1.0
  Li  Li3  1  0.50000000  0.50000000  0.86683000  1.0
  Li  Li4  1  0.25000000  0.25000000  0.86683000  1.0
  Li  Li5  1  0.25000000  0.75000000  0.86683000  1.0
  Li  Li6  1  0.75000000  0.50000000  0.95561000  1.0
  Li  Li7  1  0.75000000  0.00000000  0.95561000  1.0
  Li  Li8  1  0.01678000  0.24998000  0.12956000  1.0
  Li  Li9  1  0.50649000  0.49752000  0.03862000  1.0
  Li  Li10  1  0.02358000  0.75000000  0.13041000  1.0
  Li  Li11  1  0.50647000  0.00247000  0.03861000  1.0
  Li  Li12  1  0.27916000  0.74999000  0.05072000  1.0
  Li  Li13  1  0.26805000  0.25000000  0.04974000  1.0
  Li  Li14  1  0.72072000  0.99654000  0.12776000  1.0
  Li  Li15  1  0.72075000  0.50344000  0.12776000  1.0
  Ag  Ag16  1  0.25000000  0.00000000  0.95561000  1.0
  Ag  Ag17  1  0.25000000  0.50000000  0.95561000  1.0
  Ag  Ag18  1  0.75000000  0.75000000  0.86683000  1.0
  Ag  Ag19  1  0.75000000  0.25000000  0.86683000  1.0
  Ag  Ag20  1  0.28315000  0.50026000  0.12192000  1.0
  Ag  Ag21  1  0.28333000  0.99973000  0.12195000  1.0
  Ag  Ag22  1  0.73312000  0.24997000  0.05074000  1.0
  Ag  Ag23  1  0.71861000  0.75001000  0.05539000  1.0
  Pb  Pb24  1  0.00000000  0.00000000  0.86683000  1.0
  Pb  Pb25  1  0.50000000  0.25000000  0.95561000  1.0
  Pb  Pb26  1  0.50000000  0.75000000  0.95561000  1.0
  Pb  Pb27  1  0.00000000  0.50000000  0.86683000  1.0
  Pb  Pb28  1  0.99218000  0.50326000  0.04359000  1.0
  Pb  Pb29  1  0.49955000  0.74996000  0.15208000  1.0
  Pb  Pb30  1  0.50980000  0.25002000  0.14595000  1.0
  Pb  Pb31  1  0.99227000  0.99672000  0.04363000  1.0
  C  C32  1  0.37516000  0.24996000  0.27718000  1.0
  O  O33  1  0.51531000  0.24999000  0.29947000  1.0
