# generated using pymatgen
data_Li8Mn8Ge8Pd8CO
_symmetry_space_group_name_H-M   'P 1'
_cell_length_a   8.69336000
_cell_length_b   6.14713000
_cell_length_c   26.52000000
_cell_angle_alpha   90.00000000
_cell_angle_beta   90.00000000
_cell_angle_gamma   90.00000000
_symmetry_Int_Tables_number   1
_chemical_formula_structural   Li8Mn8Ge8Pd8CO
_chemical_formula_sum   'Li8 Mn8 Ge8 Pd8 C1 O1'
_cell_volume   1417.20795679
_cell_formula_units_Z   1
loop_
 _symmetry_equiv_pos_site_id
 _symmetry_equiv_pos_as_xyz
  1  'x, y, z'
loop_
 _atom_site_type_symbol
 _atom_site_label
 _atom_site_symmetry_multiplicity
 _atom_site_fract_x
 _atom_site_fract_y
 _atom_site_fract_z
 _atom_site_occupancy
  Li  Li0  1  0.00000000  0.00000000  0.04098000  1.0
  Li  Li1  1  0.50000000  0.00000000  0.04098000  1.0
  Li  Li2  1  0.24999000  0.50000000  0.12293000  1.0
  Li  Li3  1  0.75001000  0.50000000  0.12293000  1.0
  Li  Li4  1  0.50000000  0.97951000  0.86291000  1.0
  Li  Li5  1  0.00000000  0.96721000  0.85936000  1.0
  Li  Li6  1  0.75199000  0.49556000  0.96403000  1.0
  Li  Li7  1  0.24801000  0.49556000  0.96403000  1.0
  Mn  Mn8  1  0.74999000  0.25000000  0.04098000  1.0
  Mn  Mn9  1  0.25001000  0.25000000  0.04098000  1.0
  Mn  Mn10  1  0.00000000  0.75000000  0.12293000  1.0
  Mn  Mn11  1  0.50000000  0.75000000  0.12293000  1.0
  Mn  Mn12  1  0.25017000  0.27036000  0.87991000  1.0
  Mn  Mn13  1  0.74983000  0.27036000  0.87991000  1.0
  Mn  Mn14  1  0.50000000  0.75050000  0.95507000  1.0
  Mn  Mn15  1  0.00000000  0.75718000  0.95454000  1.0
  Ge  Ge16  1  0.74999000  0.00000000  0.12293000  1.0
  Ge  Ge17  1  0.25001000  0.00000000  0.12293000  1.0
  Ge  Ge18  1  0.50000000  0.50000000  0.04098000  1.0
  Ge  Ge19  1  0.00000000  0.50000000  0.04098000  1.0
  Ge  Ge20  1  0.25165000  0.00455000  0.95925000  1.0
  Ge  Ge21  1  0.74835000  0.00455000  0.95925000  1.0
  Ge  Ge22  1  0.00000000  0.49358000  0.87368000  1.0
  Ge  Ge23  1  0.50000000  0.49291000  0.87106000  1.0
  Pd  Pd24  1  0.74999000  0.75000000  0.04098000  1.0
  Pd  Pd25  1  0.25001000  0.75000000  0.04098000  1.0
  Pd  Pd26  1  0.00000000  0.25000000  0.12293000  1.0
  Pd  Pd27  1  0.50000000  0.25000000  0.12293000  1.0
  Pd  Pd28  1  0.25085000  0.73053000  0.88599000  1.0
  Pd  Pd29  1  0.74915000  0.73053000  0.88599000  1.0
  Pd  Pd30  1  0.50000000  0.24894000  0.95670000  1.0
  Pd  Pd31  1  0.00000000  0.24185000  0.95665000  1.0
  C  C32  1  0.00000000  0.66058000  0.74463000  1.0
  O  O33  1  0.00000000  0.48839000  0.72909000  1.0
