# generated using pymatgen
data_Li8Mn8Ge8Pd8CO
_symmetry_space_group_name_H-M   Pm
_cell_length_a   6.14713000
_cell_length_b   8.69336000
_cell_length_c   26.52000000
_cell_angle_alpha   90.00000000
_cell_angle_beta   90.00000000
_cell_angle_gamma   90.00000000
_symmetry_Int_Tables_number   6
_chemical_formula_structural   Li8Mn8Ge8Pd8CO
_chemical_formula_sum   'Li8 Mn8 Ge8 Pd8 C1 O1'
_cell_volume   1417.20795679
_cell_formula_units_Z   1
loop_
 _symmetry_equiv_pos_site_id
 _symmetry_equiv_pos_as_xyz
  1  'x, y, z'
  2  'x, -y, z'
loop_
 _atom_site_type_symbol
 _atom_site_label
 _atom_site_symmetry_multiplicity
 _atom_site_fract_x
 _atom_site_fract_y
 _atom_site_fract_z
 _atom_site_occupancy
  Li  Li0  2  0.49556000  0.24801000  0.03597000  1.0
  Li  Li1  2  0.50000000  0.24999000  0.87707000  1.0
  Li  Li2  1  0.00000000  0.00000000  0.95902000  1.0
  Li  Li3  1  0.00000000  0.50000000  0.95902000  1.0
  Li  Li4  1  0.96721000  0.00000000  0.14064000  1.0
  Li  Li5  1  0.97951000  0.50000000  0.13709000  1.0
  Mn  Mn6  2  0.25000000  0.25001000  0.95902000  1.0
  Mn  Mn7  2  0.27036000  0.25017000  0.12009000  1.0
  Mn  Mn8  1  0.75000000  0.00000000  0.87707000  1.0
  Mn  Mn9  1  0.75000000  0.50000000  0.87707000  1.0
  Mn  Mn10  1  0.75050000  0.50000000  0.04493000  1.0
  Mn  Mn11  1  0.75718000  0.00000000  0.04546000  1.0
  Ge  Ge12  2  0.00000000  0.25001000  0.87707000  1.0
  Ge  Ge13  2  0.00455000  0.25165000  0.04075000  1.0
  Ge  Ge14  1  0.49291000  0.50000000  0.12894000  1.0
  Ge  Ge15  1  0.49358000  0.00000000  0.12632000  1.0
  Ge  Ge16  1  0.50000000  0.00000000  0.95902000  1.0
  Ge  Ge17  1  0.50000000  0.50000000  0.95902000  1.0
  Pd  Pd18  2  0.73053000  0.25085000  0.11401000  1.0
  Pd  Pd19  2  0.75000000  0.25001000  0.95902000  1.0
  Pd  Pd20  1  0.24185000  0.00000000  0.04335000  1.0
  Pd  Pd21  1  0.24894000  0.50000000  0.04330000  1.0
  Pd  Pd22  1  0.25000000  0.00000000  0.87707000  1.0
  Pd  Pd23  1  0.25000000  0.50000000  0.87707000  1.0
  C  C24  1  0.66058000  0.00000000  0.25537000  1.0
  O  O25  1  0.48839000  0.00000000  0.27091000  1.0
