# generated using pymatgen
data_Ni12Pt4CO
_symmetry_space_group_name_H-M   'P 1'
_cell_length_a   7.35757000
_cell_length_b   5.20259000
_cell_length_c   23.90190000
_cell_angle_alpha   90.00000000
_cell_angle_beta   90.00000000
_cell_angle_gamma   90.00000000
_symmetry_Int_Tables_number   1
_chemical_formula_structural   Ni12Pt4CO
_chemical_formula_sum   'Ni12 Pt4 C1 O1'
_cell_volume   914.92696954
_cell_formula_units_Z   1
loop_
 _symmetry_equiv_pos_site_id
 _symmetry_equiv_pos_as_xyz
  1  'x, y, z'
loop_
 _atom_site_type_symbol
 _atom_site_label
 _atom_site_symmetry_multiplicity
 _atom_site_fract_x
 _atom_site_fract_y
 _atom_site_fract_z
 _atom_site_occupancy
  Ni  Ni0  1  0.75001000  0.50000000  0.91838000  1.0
  Ni  Ni1  1  0.50000000  0.25000000  0.97279000  1.0
  Ni  Ni2  1  0.50000000  0.75000000  0.97279000  1.0
  Ni  Ni3  1  0.74930000  0.99976000  0.02731000  1.0
  Ni  Ni4  1  0.50000000  0.75858000  0.07984000  1.0
  Ni  Ni5  1  0.50000000  0.23561000  0.07572000  1.0
  Ni  Ni6  1  0.24999000  0.50000000  0.91838000  1.0
  Ni  Ni7  1  0.00000000  0.25000000  0.97279000  1.0
  Ni  Ni8  1  0.00000000  0.75000000  0.97279000  1.0
  Ni  Ni9  1  0.25070000  0.99976000  0.02731000  1.0
  Ni  Ni10  1  0.00000000  0.76293000  0.07444000  1.0
  Ni  Ni11  1  0.00000000  0.23580000  0.07480000  1.0
  Pt  Pt12  1  0.75001000  0.00000000  0.91838000  1.0
  Pt  Pt13  1  0.74957000  0.49914000  0.02760000  1.0
  Pt  Pt14  1  0.24999000  0.00000000  0.91838000  1.0
  Pt  Pt15  1  0.25043000  0.49914000  0.02760000  1.0
  C  C16  1  0.50000000  0.77196000  0.15324000  1.0
  O  O17  1  0.50000000  0.77058000  0.20159000  1.0
