# generated using pymatgen
data_Zn16Cu8Au8C
_symmetry_space_group_name_H-M   'P 1'
_cell_length_a   8.80931000
_cell_length_b   6.22913000
_cell_length_c   26.60700000
_cell_angle_alpha   90.00000000
_cell_angle_beta   90.00000000
_cell_angle_gamma   90.00000000
_symmetry_Int_Tables_number   1
_chemical_formula_structural   Zn16Cu8Au8C
_chemical_formula_sum   'Zn16 Cu8 Au8 C1'
_cell_volume   1460.04148989
_cell_formula_units_Z   1
loop_
 _symmetry_equiv_pos_site_id
 _symmetry_equiv_pos_as_xyz
  1  'x, y, z'
loop_
 _atom_site_type_symbol
 _atom_site_label
 _atom_site_symmetry_multiplicity
 _atom_site_fract_x
 _atom_site_fract_y
 _atom_site_fract_z
 _atom_site_occupancy
  Zn  Zn0  1  0.75000000  0.25000000  0.04139000  1.0
  Zn  Zn1  1  0.25000000  0.75000000  0.04139000  1.0
  Zn  Zn2  1  0.75000000  0.75000000  0.04139000  1.0
  Zn  Zn3  1  0.25000000  0.25000000  0.04139000  1.0
  Zn  Zn4  1  0.50000000  0.75000000  0.12416000  1.0
  Zn  Zn5  1  0.00000000  0.25000000  0.12416000  1.0
  Zn  Zn6  1  0.50000000  0.25000000  0.12416000  1.0
  Zn  Zn7  1  0.00000000  0.75000000  0.12416000  1.0
  Zn  Zn8  1  0.23825000  0.26577000  0.86426000  1.0
  Zn  Zn9  1  0.72824000  0.74408000  0.87055000  1.0
  Zn  Zn10  1  0.27176000  0.74408000  0.87055000  1.0
  Zn  Zn11  1  0.76175000  0.26577000  0.86426000  1.0
  Zn  Zn12  1  0.00000000  0.74702000  0.96098000  1.0
  Zn  Zn13  1  0.50000000  0.23881000  0.95907000  1.0
  Zn  Zn14  1  0.00000000  0.24652000  0.95223000  1.0
  Zn  Zn15  1  0.50000000  0.76440000  0.95379000  1.0
  Cu  Cu16  1  0.75000000  0.00000000  0.12416000  1.0
  Cu  Cu17  1  0.00000000  0.50000000  0.04139000  1.0
  Cu  Cu18  1  0.50000000  0.50000000  0.04139000  1.0
  Cu  Cu19  1  0.25000000  0.00000000  0.12416000  1.0
  Cu  Cu20  1  0.24988000  0.00234000  0.95996000  1.0
  Cu  Cu21  1  0.50000000  0.47587000  0.87855000  1.0
  Cu  Cu22  1  0.00000000  0.54585000  0.87711000  1.0
  Cu  Cu23  1  0.75012000  0.00234000  0.95996000  1.0
  Au  Au24  1  0.50000000  0.00000000  0.04139000  1.0
  Au  Au25  1  0.75000000  0.50000000  0.12416000  1.0
  Au  Au26  1  0.00000000  0.00000000  0.04139000  1.0
  Au  Au27  1  0.25000000  0.50000000  0.12416000  1.0
  Au  Au28  1  0.00000000  0.93628000  0.87110000  1.0
  Au  Au29  1  0.25703000  0.49703000  0.95877000  1.0
  Au  Au30  1  0.50000000  0.03488000  0.86940000  1.0
  Au  Au31  1  0.74297000  0.49703000  0.95877000  1.0
  C  C32  1  0.00000000  0.25966000  0.86323000  1.0
