# generated using pymatgen
data_Zn16Cu8Au8C
_symmetry_space_group_name_H-M   Pm
_cell_length_a   6.22913000
_cell_length_b   8.80931000
_cell_length_c   26.60700000
_cell_angle_alpha   90.00000000
_cell_angle_beta   90.00000000
_cell_angle_gamma   90.00000000
_symmetry_Int_Tables_number   6
_chemical_formula_structural   Zn16Cu8Au8C
_chemical_formula_sum   'Zn16 Cu8 Au8 C1'
_cell_volume   1460.04148989
_cell_formula_units_Z   1
loop_
 _symmetry_equiv_pos_site_id
 _symmetry_equiv_pos_as_xyz
  1  'x, y, z'
  2  'x, -y, z'
loop_
 _atom_site_type_symbol
 _atom_site_label
 _atom_site_symmetry_multiplicity
 _atom_site_fract_x
 _atom_site_fract_y
 _atom_site_fract_z
 _atom_site_occupancy
  Zn  Zn0  2  0.25000000  0.25000000  0.95861000  1.0
  Zn  Zn1  2  0.26577000  0.23825000  0.13574000  1.0
  Zn  Zn2  2  0.74408000  0.27176000  0.12945000  1.0
  Zn  Zn3  2  0.75000000  0.25000000  0.95861000  1.0
  Zn  Zn4  1  0.23881000  0.50000000  0.04093000  1.0
  Zn  Zn5  1  0.24652000  0.00000000  0.04777000  1.0
  Zn  Zn6  1  0.25000000  0.00000000  0.87584000  1.0
  Zn  Zn7  1  0.25000000  0.50000000  0.87584000  1.0
  Zn  Zn8  1  0.74702000  0.00000000  0.03902000  1.0
  Zn  Zn9  1  0.75000000  0.00000000  0.87584000  1.0
  Zn  Zn10  1  0.75000000  0.50000000  0.87584000  1.0
  Zn  Zn11  1  0.76440000  0.50000000  0.04621000  1.0
  Cu  Cu12  2  0.00000000  0.25000000  0.87584000  1.0
  Cu  Cu13  2  0.00234000  0.24988000  0.04004000  1.0
  Cu  Cu14  1  0.47587000  0.50000000  0.12145000  1.0
  Cu  Cu15  1  0.50000000  0.00000000  0.95861000  1.0
  Cu  Cu16  1  0.50000000  0.50000000  0.95861000  1.0
  Cu  Cu17  1  0.54585000  0.00000000  0.12289000  1.0
  Au  Au18  2  0.49703000  0.25703000  0.04123000  1.0
  Au  Au19  2  0.50000000  0.25000000  0.87584000  1.0
  Au  Au20  1  0.00000000  0.00000000  0.95861000  1.0
  Au  Au21  1  0.00000000  0.50000000  0.95861000  1.0
  Au  Au22  1  0.03488000  0.50000000  0.13060000  1.0
  Au  Au23  1  0.93628000  0.00000000  0.12890000  1.0
  C  C24  1  0.25966000  0.00000000  0.13677000  1.0
