# generated using pymatgen
data_LiYInSn
_symmetry_space_group_name_H-M   'P 1'
_cell_length_a   6.50942000
_cell_length_b   8.86856000
_cell_length_c   24.87900000
_cell_angle_alpha   90.00000000
_cell_angle_beta   90.00000000
_cell_angle_gamma   90.00000000
_symmetry_Int_Tables_number   1
_chemical_formula_structural   LiYInSn
_chemical_formula_sum   'Li4 Y4 In4 Sn4'
_cell_volume   1436.24431488
_cell_formula_units_Z   4
loop_
 _symmetry_equiv_pos_site_id
 _symmetry_equiv_pos_as_xyz
  1  'x, y, z'
loop_
 _atom_site_type_symbol
 _atom_site_label
 _atom_site_symmetry_multiplicity
 _atom_site_fract_x
 _atom_site_fract_y
 _atom_site_fract_z
 _atom_site_occupancy
  Li  Li0  1  0.75881000  0.75000000  0.03269000  1.0
  Li  Li1  1  0.28626000  0.75002000  0.90853000  1.0
  Li  Li2  1  0.75881000  0.25000000  0.03269000  1.0
  Li  Li3  1  0.28628000  0.25002000  0.90853000  1.0
  Y  Y4  1  0.25881000  0.75000000  0.03269000  1.0
  Y  Y5  1  0.78486000  0.74981000  0.90747000  1.0
  Y  Y6  1  0.25881000  0.25000000  0.03269000  1.0
  Y  Y7  1  0.78500000  0.24965000  0.90744000  1.0
  In  In8  1  0.00000000  0.00000000  0.09806000  1.0
  In  In9  1  0.53142000  0.00017000  0.96933000  1.0
  In  In10  1  0.00000000  0.50000000  0.09806000  1.0
  In  In11  1  0.53155000  0.49985000  0.96932000  1.0
  Sn  Sn12  1  0.50000000  0.00000000  0.09806000  1.0
  Sn  Sn13  1  0.04082000  0.00043000  0.95845000  1.0
  Sn  Sn14  1  0.50000000  0.50000000  0.09806000  1.0
  Sn  Sn15  1  0.04063000  0.49990000  0.95844000  1.0
