# generated using pymatgen
data_Zn16Ag8Au8C
_symmetry_space_group_name_H-M   'P 1'
_cell_length_a   6.35005000
_cell_length_b   8.98033000
_cell_length_c   26.73520000
_cell_angle_alpha   90.00000000
_cell_angle_beta   90.00000000
_cell_angle_gamma   90.00000000
_symmetry_Int_Tables_number   1
_chemical_formula_structural   Zn16Ag8Au8C
_chemical_formula_sum   'Zn16 Ag8 Au8 C1'
_cell_volume   1524.58933776
_cell_formula_units_Z   1
loop_
 _symmetry_equiv_pos_site_id
 _symmetry_equiv_pos_as_xyz
  1  'x, y, z'
loop_
 _atom_site_type_symbol
 _atom_site_label
 _atom_site_symmetry_multiplicity
 _atom_site_fract_x
 _atom_site_fract_y
 _atom_site_fract_z
 _atom_site_occupancy
  Zn  Zn0  1  0.25000000  0.00000000  0.95801000  1.0
  Zn  Zn1  1  0.75000000  0.50000000  0.95801000  1.0
  Zn  Zn2  1  0.75000000  0.00000000  0.95801000  1.0
  Zn  Zn3  1  0.25000000  0.50000000  0.95801000  1.0
  Zn  Zn4  1  0.75000000  0.75000000  0.87404000  1.0
  Zn  Zn5  1  0.25000000  0.25000000  0.87404000  1.0
  Zn  Zn6  1  0.25000000  0.75000000  0.87404000  1.0
  Zn  Zn7  1  0.75000000  0.25000000  0.87404000  1.0
  Zn  Zn8  1  0.21279000  0.50000000  0.13702000  1.0
  Zn  Zn9  1  0.69299000  0.00000000  0.14708000  1.0
  Zn  Zn10  1  0.78721000  0.50000000  0.13702000  1.0
  Zn  Zn11  1  0.30701000  0.00000000  0.14708000  1.0
  Zn  Zn12  1  0.74342000  0.24914000  0.04616000  1.0
  Zn  Zn13  1  0.25658000  0.75086000  0.04616000  1.0
  Zn  Zn14  1  0.25658000  0.24914000  0.04616000  1.0
  Zn  Zn15  1  0.74342000  0.75086000  0.04616000  1.0
  Ag  Ag16  1  0.00000000  0.00000000  0.87404000  1.0
  Ag  Ag17  1  0.50000000  0.25000000  0.95801000  1.0
  Ag  Ag18  1  0.50000000  0.75000000  0.95801000  1.0
  Ag  Ag19  1  0.00000000  0.50000000  0.87404000  1.0
  Ag  Ag20  1  0.00000000  0.50000000  0.04227000  1.0
  Ag  Ag21  1  0.50000000  0.72362000  0.13664000  1.0
  Ag  Ag22  1  0.50000000  0.27638000  0.13664000  1.0
  Ag  Ag23  1  0.00000000  0.00000000  0.04835000  1.0
  Au  Au24  1  0.00000000  0.75000000  0.95801000  1.0
  Au  Au25  1  0.50000000  0.00000000  0.87404000  1.0
  Au  Au26  1  0.00000000  0.25000000  0.95801000  1.0
  Au  Au27  1  0.50000000  0.50000000  0.87404000  1.0
  Au  Au28  1  0.00000000  0.24482000  0.13040000  1.0
  Au  Au29  1  0.50000000  0.50000000  0.04421000  1.0
  Au  Au30  1  0.00000000  0.75518000  0.13040000  1.0
  Au  Au31  1  0.50000000  0.00000000  0.04129000  1.0
  C  C32  1  0.00000000  0.00000000  0.14067000  1.0
