# generated using pymatgen
data_Li8Au24C
_symmetry_space_group_name_H-M   'P 1'
_cell_length_a   8.24301000
_cell_length_b   8.24301000
_cell_length_c   26.18230000
_cell_angle_alpha   90.00000000
_cell_angle_beta   90.00000000
_cell_angle_gamma   90.00000000
_symmetry_Int_Tables_number   1
_chemical_formula_structural   Li8Au24C
_chemical_formula_sum   'Li8 Au24 C1'
_cell_volume   1779.01433745
_cell_formula_units_Z   1
loop_
 _symmetry_equiv_pos_site_id
 _symmetry_equiv_pos_as_xyz
  1  'x, y, z'
loop_
 _atom_site_type_symbol
 _atom_site_label
 _atom_site_symmetry_multiplicity
 _atom_site_fract_x
 _atom_site_fract_y
 _atom_site_fract_z
 _atom_site_occupancy
  Li  Li0  1  0.73100000  0.00000000  0.13096000  1.0
  Li  Li1  1  0.75000000  0.00000000  0.96065000  1.0
  Li  Li2  1  0.74206000  0.50000000  0.12322000  1.0
  Li  Li3  1  0.75000000  0.50000000  0.96065000  1.0
  Li  Li4  1  0.26900000  0.00000000  0.13096000  1.0
  Li  Li5  1  0.25000000  0.00000000  0.96065000  1.0
  Li  Li6  1  0.25794000  0.50000000  0.12322000  1.0
  Li  Li7  1  0.25000000  0.50000000  0.96065000  1.0
  Au  Au8  1  0.75037000  0.25334000  0.03955000  1.0
  Au  Au9  1  0.00000000  0.00000000  0.03251000  1.0
  Au  Au10  1  0.00000000  0.21901000  0.11912000  1.0
  Au  Au11  1  0.75000000  0.25000000  0.88194000  1.0
  Au  Au12  1  0.00000000  0.00000000  0.88194000  1.0
  Au  Au13  1  0.00000000  0.25000000  0.96065000  1.0
  Au  Au14  1  0.75037000  0.74666000  0.03955000  1.0
  Au  Au15  1  0.00000000  0.50000000  0.05577000  1.0
  Au  Au16  1  0.00000000  0.78099000  0.11912000  1.0
  Au  Au17  1  0.75000000  0.75000000  0.88194000  1.0
  Au  Au18  1  0.00000000  0.50000000  0.88194000  1.0
  Au  Au19  1  0.00000000  0.75000000  0.96065000  1.0
  Au  Au20  1  0.24963000  0.25334000  0.03955000  1.0
  Au  Au21  1  0.50000000  0.00000000  0.04136000  1.0
  Au  Au22  1  0.50000000  0.25275000  0.12172000  1.0
  Au  Au23  1  0.25000000  0.25000000  0.88194000  1.0
  Au  Au24  1  0.50000000  0.00000000  0.88194000  1.0
  Au  Au25  1  0.50000000  0.25000000  0.96065000  1.0
  Au  Au26  1  0.24963000  0.74666000  0.03955000  1.0
  Au  Au27  1  0.50000000  0.50000000  0.04040000  1.0
  Au  Au28  1  0.50000000  0.74725000  0.12172000  1.0
  Au  Au29  1  0.25000000  0.75000000  0.88194000  1.0
  Au  Au30  1  0.50000000  0.50000000  0.88194000  1.0
  Au  Au31  1  0.50000000  0.75000000  0.96065000  1.0
  C  C32  1  0.00000000  0.00000000  0.15224000  1.0
