# generated using pymatgen
data_Li8Al8Fe8Pd8C
_symmetry_space_group_name_H-M   'P 1'
_cell_length_a   8.84236000
_cell_length_b   8.60712000
_cell_length_c   24.25770000
_cell_angle_alpha   90.00000000
_cell_angle_beta   90.00000000
_cell_angle_gamma   90.00000000
_symmetry_Int_Tables_number   1
_chemical_formula_structural   Li8Al8Fe8Pd8C
_chemical_formula_sum   'Li8 Al8 Fe8 Pd8 C1'
_cell_volume   1846.18692573
_cell_formula_units_Z   1
loop_
 _symmetry_equiv_pos_site_id
 _symmetry_equiv_pos_as_xyz
  1  'x, y, z'
loop_
 _atom_site_type_symbol
 _atom_site_label
 _atom_site_symmetry_multiplicity
 _atom_site_fract_x
 _atom_site_fract_y
 _atom_site_fract_z
 _atom_site_occupancy
  Li  Li0  1  0.25000000  0.50000000  0.08776000  1.0
  Li  Li1  1  0.24993000  0.50000000  0.98731000  1.0
  Li  Li2  1  0.75000000  0.50000000  0.08776000  1.0
  Li  Li3  1  0.75002000  0.50000000  0.95864000  1.0
  Li  Li4  1  0.25000000  0.00000000  0.08776000  1.0
  Li  Li5  1  0.24998000  0.00000000  0.97528000  1.0
  Li  Li6  1  0.75000000  0.00000000  0.08776000  1.0
  Li  Li7  1  0.75000000  0.00000000  0.98504000  1.0
  Al  Al8  1  0.00000000  0.75000000  0.08776000  1.0
  Al  Al9  1  0.99505000  0.73912000  0.96968000  1.0
  Al  Al10  1  0.50000000  0.75000000  0.08776000  1.0
  Al  Al11  1  0.50498000  0.73914000  0.96968000  1.0
  Al  Al12  1  0.00000000  0.25000000  0.08776000  1.0
  Al  Al13  1  0.99505000  0.26088000  0.96968000  1.0
  Al  Al14  1  0.50000000  0.25000000  0.08776000  1.0
  Al  Al15  1  0.50498000  0.26086000  0.96968000  1.0
  Fe  Fe16  1  0.00000000  0.50000000  0.02925000  1.0
  Fe  Fe17  1  0.05627000  0.50000000  0.92286000  1.0
  Fe  Fe18  1  0.50000000  0.50000000  0.02925000  1.0
  Fe  Fe19  1  0.44375000  0.50000000  0.92292000  1.0
  Fe  Fe20  1  0.00000000  0.00000000  0.02925000  1.0
  Fe  Fe21  1  0.99499000  0.00000000  0.93813000  1.0
  Fe  Fe22  1  0.50000000  0.00000000  0.02925000  1.0
  Fe  Fe23  1  0.50500000  0.00000000  0.93813000  1.0
  Pd  Pd24  1  0.25000000  0.75000000  0.02925000  1.0
  Pd  Pd25  1  0.25002000  0.75950000  0.91337000  1.0
  Pd  Pd26  1  0.75000000  0.75000000  0.02925000  1.0
  Pd  Pd27  1  0.75001000  0.81883000  0.91075000  1.0
  Pd  Pd28  1  0.25000000  0.25000000  0.02925000  1.0
  Pd  Pd29  1  0.25002000  0.24050000  0.91337000  1.0
  Pd  Pd30  1  0.75000000  0.25000000  0.02925000  1.0
  Pd  Pd31  1  0.75001000  0.18117000  0.91075000  1.0
  C  C32  1  0.25003000  0.50000000  0.90484000  1.0
