# generated using pymatgen
data_Li8Al8Fe8Pd8C
_symmetry_space_group_name_H-M   Pm
_cell_length_a   8.84236000
_cell_length_b   8.60712000
_cell_length_c   24.25770000
_cell_angle_alpha   90.00000000
_cell_angle_beta   90.00000000
_cell_angle_gamma   90.00000000
_symmetry_Int_Tables_number   6
_chemical_formula_structural   Li8Al8Fe8Pd8C
_chemical_formula_sum   'Li8 Al8 Fe8 Pd8 C1'
_cell_volume   1846.18692573
_cell_formula_units_Z   1
loop_
 _symmetry_equiv_pos_site_id
 _symmetry_equiv_pos_as_xyz
  1  'x, y, z'
  2  'x, -y, z'
loop_
 _atom_site_type_symbol
 _atom_site_label
 _atom_site_symmetry_multiplicity
 _atom_site_fract_x
 _atom_site_fract_y
 _atom_site_fract_z
 _atom_site_occupancy
  Li  Li0  1  0.24993000  0.50000000  0.01269000  1.0
  Li  Li1  1  0.24998000  0.00000000  0.02472000  1.0
  Li  Li2  1  0.25000000  0.00000000  0.91224000  1.0
  Li  Li3  1  0.25000000  0.50000000  0.91224000  1.0
  Li  Li4  1  0.75000000  0.00000000  0.01496000  1.0
  Li  Li5  1  0.75000000  0.00000000  0.91224000  1.0
  Li  Li6  1  0.75000000  0.50000000  0.91224000  1.0
  Li  Li7  1  0.75002000  0.50000000  0.04136000  1.0
  Al  Al8  2  0.00000000  0.25000000  0.91224000  1.0
  Al  Al9  2  0.50000000  0.25000000  0.91224000  1.0
  Al  Al10  2  0.50498000  0.26086000  0.03032000  1.0
  Al  Al11  2  0.99505000  0.26088000  0.03032000  1.0
  Fe  Fe12  1  0.00000000  0.00000000  0.97075000  1.0
  Fe  Fe13  1  0.00000000  0.50000000  0.97075000  1.0
  Fe  Fe14  1  0.05627000  0.50000000  0.07714000  1.0
  Fe  Fe15  1  0.44375000  0.50000000  0.07708000  1.0
  Fe  Fe16  1  0.50000000  0.00000000  0.97075000  1.0
  Fe  Fe17  1  0.50000000  0.50000000  0.97075000  1.0
  Fe  Fe18  1  0.50500000  0.00000000  0.06187000  1.0
  Fe  Fe19  1  0.99499000  0.00000000  0.06187000  1.0
  Pd  Pd20  2  0.25000000  0.25000000  0.97075000  1.0
  Pd  Pd21  2  0.25002000  0.24050000  0.08663000  1.0
  Pd  Pd22  2  0.75000000  0.25000000  0.97075000  1.0
  Pd  Pd23  2  0.75001000  0.18117000  0.08925000  1.0
  C  C24  1  0.25003000  0.50000000  0.09516000  1.0
