# generated using pymatgen
data_Li4Sc4In4Pd4CO
_symmetry_space_group_name_H-M   'P 1'
_cell_length_a   6.59012000
_cell_length_b   6.59012000
_cell_length_c   24.94260000
_cell_angle_alpha   90.00000000
_cell_angle_beta   90.00000000
_cell_angle_gamma   90.00000000
_symmetry_Int_Tables_number   1
_chemical_formula_structural   Li4Sc4In4Pd4CO
_chemical_formula_sum   'Li4 Sc4 In4 Pd4 C1 O1'
_cell_volume   1083.24917664
_cell_formula_units_Z   1
loop_
 _symmetry_equiv_pos_site_id
 _symmetry_equiv_pos_as_xyz
  1  'x, y, z'
loop_
 _atom_site_type_symbol
 _atom_site_label
 _atom_site_symmetry_multiplicity
 _atom_site_fract_x
 _atom_site_fract_y
 _atom_site_fract_z
 _atom_site_occupancy
  Li  Li0  1  0.74999000  0.74999000  0.03303000  1
  Li  Li1  1  0.74997000  0.24995000  0.87947000  1
  Li  Li2  1  0.24995000  0.74997000  0.87947000  1
  Li  Li3  1  0.24999000  0.24999000  0.03303000  1
  Sc  Sc4  1  0.00000000  0.49998000  0.09908000  1
  Sc  Sc5  1  0.00000500  0.00000500  0.96638000  1
  Sc  Sc6  1  0.49998000  0.49998000  0.96637000  1
  Sc  Sc7  1  0.49998000  0.00000000  0.09908000  1
  In  In8  1  0.99999000  0.99999000  0.09908000  1
  In  In9  1  0.99449000  0.50547000  0.96499000  1
  In  In10  1  0.50547000  0.99449000  0.96499000  1
  In  In11  1  0.49999000  0.49999000  0.09908000  1
  Pd  Pd12  1  0.25000000  0.74998000  0.03303000  1
  Pd  Pd13  1  0.24998500  0.24998500  0.90789000  1
  Pd  Pd14  1  0.75001000  0.75001000  0.89885000  1
  Pd  Pd15  1  0.74998000  0.25000000  0.03303000  1
  C  C16  1  0.75008000  0.75008000  0.82030000  1
  O  O17  1  0.75000000  0.75000000  0.77377000  1
