# generated using pymatgen
data_Li8Y8Ag8Pb8CO
_symmetry_space_group_name_H-M   'P 1'
_cell_length_a   10.19520000
_cell_length_b   7.20907000
_cell_length_c   27.64640000
_cell_angle_alpha   90.00000000
_cell_angle_beta   90.00000000
_cell_angle_gamma   90.00000000
_symmetry_Int_Tables_number   1
_chemical_formula_structural   Li8Y8Ag8Pb8CO
_chemical_formula_sum   'Li8 Y8 Ag8 Pb8 C1 O1'
_cell_volume   2031.95263185
_cell_formula_units_Z   1
loop_
 _symmetry_equiv_pos_site_id
 _symmetry_equiv_pos_as_xyz
  1  'x, y, z'
loop_
 _atom_site_type_symbol
 _atom_site_label
 _atom_site_symmetry_multiplicity
 _atom_site_fract_x
 _atom_site_fract_y
 _atom_site_fract_z
 _atom_site_occupancy
  Li  Li0  1  0.00000000  0.25000000  0.04610000  1.0
  Li  Li1  1  0.50000000  0.25000000  0.04610000  1.0
  Li  Li2  1  0.25000000  0.75000000  0.13829000  1.0
  Li  Li3  1  0.75000000  0.75000000  0.13829000  1.0
  Li  Li4  1  0.50000000  0.23626000  0.86636000  1.0
  Li  Li5  1  0.00000000  0.24258000  0.86457000  1.0
  Li  Li6  1  0.75080000  0.75285000  0.95425000  1.0
  Li  Li7  1  0.24920000  0.75285000  0.95425000  1.0
  Y  Y8  1  0.00000000  0.75000000  0.04610000  1.0
  Y  Y9  1  0.50000000  0.75000000  0.04610000  1.0
  Y  Y10  1  0.25000000  0.25000000  0.13829000  1.0
  Y  Y11  1  0.75000000  0.25000000  0.13829000  1.0
  Y  Y12  1  0.50000000  0.76510000  0.86063000  1.0
  Y  Y13  1  0.00000000  0.76727000  0.86485000  1.0
  Y  Y14  1  0.74690000  0.24288000  0.95139000  1.0
  Y  Y15  1  0.25310000  0.24288000  0.95139000  1.0
  Ag  Ag16  1  0.00000000  0.00000000  0.13829000  1.0
  Ag  Ag17  1  0.50000000  0.00000000  0.13829000  1.0
  Ag  Ag18  1  0.75000000  0.50000000  0.04610000  1.0
  Ag  Ag19  1  0.25000000  0.50000000  0.04610000  1.0
  Ag  Ag20  1  0.50000000  0.99021000  0.95284000  1.0
  Ag  Ag21  1  0.00000000  0.00835000  0.95637000  1.0
  Ag  Ag22  1  0.25013000  0.51269000  0.86779000  1.0
  Ag  Ag23  1  0.74987000  0.51269000  0.86779000  1.0
  Pb  Pb24  1  0.25000000  0.00000000  0.04610000  1.0
  Pb  Pb25  1  0.75000000  0.00000000  0.04610000  1.0
  Pb  Pb26  1  0.50000000  0.50000000  0.13829000  1.0
  Pb  Pb27  1  0.00000000  0.50000000  0.13829000  1.0
  Pb  Pb28  1  0.75046000  0.01815000  0.85045000  1.0
  Pb  Pb29  1  0.24954000  0.01815000  0.85045000  1.0
  Pb  Pb30  1  0.00000000  0.49326000  0.95360000  1.0
  Pb  Pb31  1  0.50000000  0.50585000  0.95175000  1.0
  C  C32  1  0.00000000  0.75450000  0.77626000  1.0
  O  O33  1  0.00000000  0.75066000  0.73468000  1.0
