# generated using pymatgen
data_Nb8Al8Ru16C
_symmetry_space_group_name_H-M   Pmm2
_cell_length_a   6.19479000
_cell_length_b   8.76076000
_cell_length_c   26.57060000
_cell_angle_alpha   90.00000000
_cell_angle_beta   90.00000000
_cell_angle_gamma   90.00000000
_symmetry_Int_Tables_number   25
_chemical_formula_structural   Nb8Al8Ru16C
_chemical_formula_sum   'Nb8 Al8 Ru16 C1'
_cell_volume   1442.01485110
_cell_formula_units_Z   1
loop_
 _symmetry_equiv_pos_site_id
 _symmetry_equiv_pos_as_xyz
  1  'x, y, z'
  2  '-x, -y, z'
  3  '-x, y, z'
  4  'x, -y, z'
loop_
 _atom_site_type_symbol
 _atom_site_label
 _atom_site_symmetry_multiplicity
 _atom_site_fract_x
 _atom_site_fract_y
 _atom_site_fract_z
 _atom_site_occupancy
  Nb  Nb0  2  0.50000000  0.25000000  0.95879000  1.0
  Nb  Nb1  2  0.50000000  0.26080000  0.12673000  1.0
  Nb  Nb2  1  0.00000000  0.00000000  0.04024000  1.0
  Nb  Nb3  1  0.00000000  0.00000000  0.87636000  1.0
  Nb  Nb4  1  0.00000000  0.50000000  0.04201000  1.0
  Nb  Nb5  1  0.00000000  0.50000000  0.87636000  1.0
  Al  Al6  2  0.00000000  0.24515000  0.12587000  1.0
  Al  Al7  2  0.00000000  0.25000000  0.95879000  1.0
  Al  Al8  1  0.50000000  0.00000000  0.04077000  1.0
  Al  Al9  1  0.50000000  0.00000000  0.87636000  1.0
  Al  Al10  1  0.50000000  0.50000000  0.04274000  1.0
  Al  Al11  1  0.50000000  0.50000000  0.87636000  1.0
  Ru  Ru12  4  0.25000000  0.25000000  0.87636000  1.0
  Ru  Ru13  4  0.25288000  0.24855000  0.04210000  1.0
  Ru  Ru14  2  0.23786000  0.50000000  0.12013000  1.0
  Ru  Ru15  2  0.25000000  0.50000000  0.95879000  1.0
  Ru  Ru16  2  0.25000000  0.00000000  0.95879000  1.0
  Ru  Ru17  2  0.25864000  0.00000000  0.12081000  1.0
  C  C18  1  0.50000000  0.00000000  0.16490000  1.0
