# generated using pymatgen
data_Li8Mg8Cu8Ge8CO
_symmetry_space_group_name_H-M   'P 1'
_cell_length_a   6.17522000
_cell_length_b   8.73308000
_cell_length_c   26.54980000
_cell_angle_alpha   90.00000000
_cell_angle_beta   90.00000000
_cell_angle_gamma   90.00000000
_symmetry_Int_Tables_number   1
_chemical_formula_structural   Li8Mg8Cu8Ge8CO
_chemical_formula_sum   'Li8 Mg8 Cu8 Ge8 C1 O1'
_cell_volume   1431.79594113
_cell_formula_units_Z   1
loop_
 _symmetry_equiv_pos_site_id
 _symmetry_equiv_pos_as_xyz
  1  'x, y, z'
loop_
 _atom_site_type_symbol
 _atom_site_label
 _atom_site_symmetry_multiplicity
 _atom_site_fract_x
 _atom_site_fract_y
 _atom_site_fract_z
 _atom_site_occupancy
  Li  Li0  1  0.00000000  0.75000000  0.95888000  1.0
  Li  Li1  1  0.00000000  0.25000000  0.95888000  1.0
  Li  Li2  1  0.50000000  0.50000000  0.87665000  1.0
  Li  Li3  1  0.50000000  0.00000000  0.87665000  1.0
  Li  Li4  1  0.87759000  0.25292000  0.16673000  1.0
  Li  Li5  1  0.87775000  0.74702000  0.16672000  1.0
  Li  Li6  1  0.48630000  0.00001000  0.04474000  1.0
  Li  Li7  1  0.49026000  0.50001000  0.04329000  1.0
  Mg  Mg8  1  0.25000000  0.00000000  0.95888000  1.0
  Mg  Mg9  1  0.25000000  0.50000000  0.95888000  1.0
  Mg  Mg10  1  0.75000000  0.75000000  0.87665000  1.0
  Mg  Mg11  1  0.75000000  0.25000000  0.87665000  1.0
  Mg  Mg12  1  0.21162000  0.50000000  0.12857000  1.0
  Mg  Mg13  1  0.21063000  0.00009000  0.12916000  1.0
  Mg  Mg14  1  0.76745000  0.24819000  0.04905000  1.0
  Mg  Mg15  1  0.76741000  0.75183000  0.04904000  1.0
  Cu  Cu16  1  0.00000000  0.00000000  0.87665000  1.0
  Cu  Cu17  1  0.00000000  0.50000000  0.87665000  1.0
  Cu  Cu18  1  0.50000000  0.25000000  0.95888000  1.0
  Cu  Cu19  1  0.50000000  0.75000000  0.95888000  1.0
  Cu  Cu20  1  0.99625000  0.50003000  0.03797000  1.0
  Cu  Cu21  1  0.00293000  0.00000000  0.03890000  1.0
  Cu  Cu22  1  0.49108000  0.74831000  0.12021000  1.0
  Cu  Cu23  1  0.49109000  0.25172000  0.12020000  1.0
  Ge  Ge24  1  0.75000000  0.00000000  0.95888000  1.0
  Ge  Ge25  1  0.75000000  0.50000000  0.95888000  1.0
  Ge  Ge26  1  0.25000000  0.75000000  0.87665000  1.0
  Ge  Ge27  1  0.25000000  0.25000000  0.87665000  1.0
  Ge  Ge28  1  0.72554000  0.50000000  0.12497000  1.0
  Ge  Ge29  1  0.72463000  0.99999000  0.12689000  1.0
  Ge  Ge30  1  0.23618000  0.25206000  0.04542000  1.0
  Ge  Ge31  1  0.23618000  0.74796000  0.04543000  1.0
  C  C32  1  0.23193000  0.99997000  0.21247000  1.0
  O  O33  1  0.24005000  0.99992000  0.25585000  1.0
