# generated using pymatgen
data_YScInPd
_symmetry_space_group_name_H-M   Pm
_cell_length_a   6.98742000
_cell_length_b   7.36232000
_cell_length_c   25.23460000
_cell_angle_alpha   90.00000000
_cell_angle_beta   90.00000000
_cell_angle_gamma   90.00000000
_symmetry_Int_Tables_number   6
_chemical_formula_structural   YScInPd
_chemical_formula_sum   'Y4 Sc4 In4 Pd4'
_cell_volume   1298.15922408
_cell_formula_units_Z   4
loop_
 _symmetry_equiv_pos_site_id
 _symmetry_equiv_pos_as_xyz
  1  'x, y, z'
  2  'x, -y, z'
loop_
 _atom_site_type_symbol
 _atom_site_label
 _atom_site_symmetry_multiplicity
 _atom_site_fract_x
 _atom_site_fract_y
 _atom_site_fract_z
 _atom_site_occupancy
  Y  Y0  1  0.26196000  0.00000000  0.03457000  1.0
  Y  Y1  1  0.26196000  0.50000000  0.03457000  1.0
  Y  Y2  1  0.79635000  0.00000000  0.89225000  1.0
  Y  Y3  1  0.79648000  0.50000000  0.89231000  1.0
  Sc  Sc4  1  0.24772000  0.00000000  0.90469000  1.0
  Sc  Sc5  1  0.24774000  0.50000000  0.90471000  1.0
  Sc  Sc6  1  0.76196000  0.00000000  0.03457000  1.0
  Sc  Sc7  1  0.76196000  0.50000000  0.03457000  1.0
  In  In8  2  0.00000000  0.25000000  0.10372000  1.0
  In  In9  2  0.52791000  0.24998000  0.95670000  1.0
  Pd  Pd10  2  0.50000000  0.25000000  0.10372000  1.0
  Pd  Pd11  2  0.99512000  0.24987000  0.96213000  1.0
