# generated using pymatgen
data_ScRh
_symmetry_space_group_name_H-M   'P 1'
_cell_length_a   3.23990500
_cell_length_b   3.23990500
_cell_length_c   24.85990000
_cell_angle_alpha   90.00000000
_cell_angle_beta   90.00000000
_cell_angle_gamma   90.00000000
_symmetry_Int_Tables_number   1
_chemical_formula_structural   ScRh
_chemical_formula_sum   'Sc2 Rh2'
_cell_volume   260.95398271
_cell_formula_units_Z   2
loop_
 _symmetry_equiv_pos_site_id
 _symmetry_equiv_pos_as_xyz
  1  'x, y, z'
loop_
 _atom_site_type_symbol
 _atom_site_label
 _atom_site_symmetry_multiplicity
 _atom_site_fract_x
 _atom_site_fract_y
 _atom_site_fract_z
 _atom_site_occupancy
  Sc  Sc0  1  0.00000000  0.00000000  0.08498000  1.0
  Sc  Sc1  1  0.00000000  0.00000000  0.95465000  1.0
  Rh  Rh2  1  0.50000000  0.50000000  0.01981000  1.0
  Rh  Rh3  1  0.50000000  0.50000000  0.88949000  1.0
