# generated using pymatgen
data_Zn8Co16Ge8CO
_symmetry_space_group_name_H-M   'P 1'
_cell_length_a   8.14369000
_cell_length_b   5.75846000
_cell_length_c   26.10780000
_cell_angle_alpha   90.00000000
_cell_angle_beta   90.00000000
_cell_angle_gamma   90.00000000
_symmetry_Int_Tables_number   1
_chemical_formula_structural   Zn8Co16Ge8CO
_chemical_formula_sum   'Zn8 Co16 Ge8 C1 O1'
_cell_volume   1224.32823425
_cell_formula_units_Z   1
loop_
 _symmetry_equiv_pos_site_id
 _symmetry_equiv_pos_as_xyz
  1  'x, y, z'
loop_
 _atom_site_type_symbol
 _atom_site_label
 _atom_site_symmetry_multiplicity
 _atom_site_fract_x
 _atom_site_fract_y
 _atom_site_fract_z
 _atom_site_occupancy
  Zn  Zn0  1  0.00000000  0.00000000  0.11697000  1.0
  Zn  Zn1  1  0.25000000  0.50000000  0.03899000  1.0
  Zn  Zn2  1  0.75000000  0.50000000  0.03899000  1.0
  Zn  Zn3  1  0.50000000  0.00000000  0.11697000  1.0
  Zn  Zn4  1  0.50000000  0.00063000  0.96371000  1.0
  Zn  Zn5  1  0.74584000  0.49889000  0.87266000  1.0
  Zn  Zn6  1  0.25416000  0.49889000  0.87266000  1.0
  Zn  Zn7  1  0.00000000  0.00491000  0.96150000  1.0
  Co  Co8  1  0.00000000  0.25000000  0.03899000  1.0
  Co  Co9  1  0.50000000  0.75000000  0.03899000  1.0
  Co  Co10  1  0.00000000  0.75000000  0.03899000  1.0
  Co  Co11  1  0.50000000  0.25000000  0.03899000  1.0
  Co  Co12  1  0.75000000  0.75000000  0.11697000  1.0
  Co  Co13  1  0.25000000  0.25000000  0.11697000  1.0
  Co  Co14  1  0.75000000  0.25000000  0.11697000  1.0
  Co  Co15  1  0.25000000  0.75000000  0.11697000  1.0
  Co  Co16  1  0.50000000  0.24240000  0.88923000  1.0
  Co  Co17  1  0.00000000  0.75538000  0.88803000  1.0
  Co  Co18  1  0.50000000  0.75445000  0.88805000  1.0
  Co  Co19  1  0.00000000  0.24053000  0.87925000  1.0
  Co  Co20  1  0.24899000  0.74835000  0.96254000  1.0
  Co  Co21  1  0.75455000  0.25336000  0.96120000  1.0
  Co  Co22  1  0.24545000  0.25336000  0.96120000  1.0
  Co  Co23  1  0.75101000  0.74835000  0.96254000  1.0
  Ge  Ge24  1  0.75000000  0.00000000  0.03899000  1.0
  Ge  Ge25  1  0.00000000  0.50000000  0.11697000  1.0
  Ge  Ge26  1  0.25000000  0.00000000  0.03899000  1.0
  Ge  Ge27  1  0.50000000  0.50000000  0.11697000  1.0
  Ge  Ge28  1  0.25635000  0.99530000  0.88099000  1.0
  Ge  Ge29  1  0.50000000  0.49974000  0.96076000  1.0
  Ge  Ge30  1  0.74365000  0.99530000  0.88099000  1.0
  Ge  Ge31  1  0.00000000  0.50011000  0.95980000  1.0
  C  C32  1  0.00000000  0.25779000  0.81253000  1.0
  O  O33  1  0.00000000  0.25517000  0.76795000  1.0
