# generated using pymatgen
data_Zn8Co16Ge8CO
_symmetry_space_group_name_H-M   Pm
_cell_length_a   5.75846000
_cell_length_b   8.14369000
_cell_length_c   26.10780000
_cell_angle_alpha   90.00000000
_cell_angle_beta   90.00000000
_cell_angle_gamma   90.00000000
_symmetry_Int_Tables_number   6
_chemical_formula_structural   Zn8Co16Ge8CO
_chemical_formula_sum   'Zn8 Co16 Ge8 C1 O1'
_cell_volume   1224.32823425
_cell_formula_units_Z   1
loop_
 _symmetry_equiv_pos_site_id
 _symmetry_equiv_pos_as_xyz
  1  'x, y, z'
  2  'x, -y, z'
loop_
 _atom_site_type_symbol
 _atom_site_label
 _atom_site_symmetry_multiplicity
 _atom_site_fract_x
 _atom_site_fract_y
 _atom_site_fract_z
 _atom_site_occupancy
  Zn  Zn0  2  0.49889000  0.25416000  0.12734000  1.0
  Zn  Zn1  2  0.50000000  0.25000000  0.96101000  1.0
  Zn  Zn2  1  0.00000000  0.00000000  0.88303000  1.0
  Zn  Zn3  1  0.00000000  0.50000000  0.88303000  1.0
  Zn  Zn4  1  0.00063000  0.50000000  0.03629000  1.0
  Zn  Zn5  1  0.00491000  0.00000000  0.03850000  1.0
  Co  Co6  2  0.25000000  0.25000000  0.88303000  1.0
  Co  Co7  2  0.25336000  0.24545000  0.03880000  1.0
  Co  Co8  2  0.74835000  0.24899000  0.03746000  1.0
  Co  Co9  2  0.75000000  0.25000000  0.88303000  1.0
  Co  Co10  1  0.24053000  0.00000000  0.12075000  1.0
  Co  Co11  1  0.24240000  0.50000000  0.11077000  1.0
  Co  Co12  1  0.25000000  0.00000000  0.96101000  1.0
  Co  Co13  1  0.25000000  0.50000000  0.96101000  1.0
  Co  Co14  1  0.75000000  0.00000000  0.96101000  1.0
  Co  Co15  1  0.75000000  0.50000000  0.96101000  1.0
  Co  Co16  1  0.75445000  0.50000000  0.11195000  1.0
  Co  Co17  1  0.75538000  0.00000000  0.11197000  1.0
  Ge  Ge18  2  0.00000000  0.25000000  0.96101000  1.0
  Ge  Ge19  2  0.99530000  0.25635000  0.11901000  1.0
  Ge  Ge20  1  0.49974000  0.50000000  0.03924000  1.0
  Ge  Ge21  1  0.50000000  0.00000000  0.88303000  1.0
  Ge  Ge22  1  0.50000000  0.50000000  0.88303000  1.0
  Ge  Ge23  1  0.50011000  0.00000000  0.04020000  1.0
  C  C24  1  0.25779000  0.00000000  0.18747000  1.0
  O  O25  1  0.25517000  0.00000000  0.23205000  1.0
