# generated using pymatgen
data_Li8Ni16Ge8C
_symmetry_space_group_name_H-M   Pm
_cell_length_a   8.07854000
_cell_length_b   5.71239000
_cell_length_c   26.05890000
_cell_angle_alpha   90.00000000
_cell_angle_beta   90.00000000
_cell_angle_gamma   90.00000000
_symmetry_Int_Tables_number   6
_chemical_formula_structural   Li8Ni16Ge8C
_chemical_formula_sum   'Li8 Ni16 Ge8 C1'
_cell_volume   1202.56015259
_cell_formula_units_Z   1
loop_
 _symmetry_equiv_pos_site_id
 _symmetry_equiv_pos_as_xyz
  1  'x, y, z'
  2  'x, -y, z'
loop_
 _atom_site_type_symbol
 _atom_site_label
 _atom_site_symmetry_multiplicity
 _atom_site_fract_x
 _atom_site_fract_y
 _atom_site_fract_z
 _atom_site_occupancy
  Li  Li0  1  0.00000000  0.00000000  0.88375000  1.0
  Li  Li1  1  0.00002000  0.00000000  0.03562000  1.0
  Li  Li2  1  0.25000000  0.50000000  0.96125000  1.0
  Li  Li3  1  0.25922000  0.50000000  0.13691000  1.0
  Li  Li4  1  0.49999000  0.00000000  0.03378000  1.0
  Li  Li5  1  0.50000000  0.00000000  0.88375000  1.0
  Li  Li6  1  0.74080000  0.50000000  0.13691000  1.0
  Li  Li7  1  0.75000000  0.50000000  0.96125000  1.0
  Ni  Ni8  2  0.00000000  0.25000000  0.96125000  1.0
  Ni  Ni9  2  0.00005000  0.21035000  0.11573000  1.0
  Ni  Ni10  2  0.24723000  0.25236000  0.04026000  1.0
  Ni  Ni11  2  0.25000000  0.25000000  0.88375000  1.0
  Ni  Ni12  2  0.49997000  0.23041000  0.10821000  1.0
  Ni  Ni13  2  0.50000000  0.25000000  0.96125000  1.0
  Ni  Ni14  2  0.75000000  0.25000000  0.88375000  1.0
  Ni  Ni15  2  0.75275000  0.25232000  0.04026000  1.0
  Ge  Ge16  1  0.00000000  0.50000000  0.88375000  1.0
  Ge  Ge17  1  0.25000000  0.00000000  0.96125000  1.0
  Ge  Ge18  1  0.25757000  0.00000000  0.11816000  1.0
  Ge  Ge19  1  0.50000000  0.50000000  0.88375000  1.0
  Ge  Ge20  1  0.50001000  0.50000000  0.03879000  1.0
  Ge  Ge21  1  0.74244000  0.00000000  0.11815000  1.0
  Ge  Ge22  1  0.75000000  0.00000000  0.96125000  1.0
  Ge  Ge23  1  0.99988000  0.50000000  0.03906000  1.0
  C  C24  1  0.00002000  0.50000000  0.13288000  1.0
