# generated using pymatgen
data_LiAlFePd
_symmetry_space_group_name_H-M   Pmm2
_cell_length_a   2.83848000
_cell_length_b   4.30356000
_cell_length_c   26.63180000
_cell_angle_alpha   90.00000000
_cell_angle_beta   90.00000000
_cell_angle_gamma   90.00000000
_symmetry_Int_Tables_number   25
_chemical_formula_structural   LiAlFePd
_chemical_formula_sum   'Li2 Al2 Fe2 Pd2'
_cell_volume   325.32259020
_cell_formula_units_Z   2
loop_
 _symmetry_equiv_pos_site_id
 _symmetry_equiv_pos_as_xyz
  1  'x, y, z'
  2  '-x, -y, z'
  3  '-x, y, z'
  4  'x, -y, z'
loop_
 _atom_site_type_symbol
 _atom_site_label
 _atom_site_symmetry_multiplicity
 _atom_site_fract_x
 _atom_site_fract_y
 _atom_site_fract_z
 _atom_site_occupancy
  Li  Li0  1  0.00000000  0.50000000  0.12818500  1.0
  Li  Li1  1  0.00000000  0.50000000  0.95850000  1.0
  Al  Al2  1  0.00000000  0.00000000  0.03783000  1.0
  Al  Al3  1  0.00000000  0.00000000  0.87549000  1.0
  Fe  Fe4  1  0.50000000  0.50000000  0.04258000  1.0
  Fe  Fe5  1  0.50000000  0.50000000  0.87549000  1.0
  Pd  Pd6  1  0.50000000  0.00000000  0.11599000  1.0
  Pd  Pd7  1  0.50000000  0.00000000  0.95850000  1.0
