# generated using pymatgen
data_Zr8Zn8Cu16C
_symmetry_space_group_name_H-M   'P 1'
_cell_length_a   8.84445000
_cell_length_b   6.25397000
_cell_length_c   26.63330000
_cell_angle_alpha   90.00000000
_cell_angle_beta   90.00000000
_cell_angle_gamma   90.00000000
_symmetry_Int_Tables_number   1
_chemical_formula_structural   Zr8Zn8Cu16C
_chemical_formula_sum   'Zr8 Zn8 Cu16 C1'
_cell_volume   1473.16572451
_cell_formula_units_Z   1
loop_
 _symmetry_equiv_pos_site_id
 _symmetry_equiv_pos_as_xyz
  1  'x, y, z'
loop_
 _atom_site_type_symbol
 _atom_site_label
 _atom_site_symmetry_multiplicity
 _atom_site_fract_x
 _atom_site_fract_y
 _atom_site_fract_z
 _atom_site_occupancy
  Zr  Zr0  1  0.75000000  0.00000000  0.12453000  1.0
  Zr  Zr1  1  0.00000000  0.50000000  0.04151000  1.0
  Zr  Zr2  1  0.50000000  0.50000000  0.04151000  1.0
  Zr  Zr3  1  0.25000000  0.00000000  0.12453000  1.0
  Zr  Zr4  1  0.25995000  0.00321000  0.95289000  1.0
  Zr  Zr5  1  0.50000000  0.42864000  0.87717000  1.0
  Zr  Zr6  1  0.00000000  0.47666000  0.88263000  1.0
  Zr  Zr7  1  0.74005000  0.00321000  0.95289000  1.0
  Zn  Zn8  1  0.50000000  0.00000000  0.04151000  1.0
  Zn  Zn9  1  0.75000000  0.50000000  0.12453000  1.0
  Zn  Zn10  1  0.00000000  0.00000000  0.04151000  1.0
  Zn  Zn11  1  0.25000000  0.50000000  0.12453000  1.0
  Zn  Zn12  1  0.00000000  0.93325000  0.87522000  1.0
  Zn  Zn13  1  0.24697000  0.49549000  0.96072000  1.0
  Zn  Zn14  1  0.50000000  0.98276000  0.87415000  1.0
  Zn  Zn15  1  0.75303000  0.49549000  0.96072000  1.0
  Cu  Cu16  1  0.75000000  0.25000000  0.04151000  1.0
  Cu  Cu17  1  0.25000000  0.75000000  0.04151000  1.0
  Cu  Cu18  1  0.75000000  0.75000000  0.04151000  1.0
  Cu  Cu19  1  0.25000000  0.25000000  0.04151000  1.0
  Cu  Cu20  1  0.50000000  0.75000000  0.12453000  1.0
  Cu  Cu21  1  0.00000000  0.25000000  0.12453000  1.0
  Cu  Cu22  1  0.50000000  0.25000000  0.12453000  1.0
  Cu  Cu23  1  0.00000000  0.75000000  0.12453000  1.0
  Cu  Cu24  1  0.22795000  0.17208000  0.85345000  1.0
  Cu  Cu25  1  0.73709000  0.72583000  0.87522000  1.0
  Cu  Cu26  1  0.26291000  0.72583000  0.87522000  1.0
  Cu  Cu27  1  0.77205000  0.17208000  0.85345000  1.0
  Cu  Cu28  1  0.00000000  0.76894000  0.96241000  1.0
  Cu  Cu29  1  0.50000000  0.25275000  0.96378000  1.0
  Cu  Cu30  1  0.00000000  0.22749000  0.96381000  1.0
  Cu  Cu31  1  0.50000000  0.71951000  0.95238000  1.0
  C  C32  1  0.00000000  0.20627000  0.83894000  1.0
