# generated using pymatgen
data_Zr8Zn8Cu16C
_symmetry_space_group_name_H-M   Pm
_cell_length_a   6.25397000
_cell_length_b   8.84445000
_cell_length_c   26.63330000
_cell_angle_alpha   90.00000000
_cell_angle_beta   90.00000000
_cell_angle_gamma   90.00000000
_symmetry_Int_Tables_number   6
_chemical_formula_structural   Zr8Zn8Cu16C
_chemical_formula_sum   'Zr8 Zn8 Cu16 C1'
_cell_volume   1473.16572451
_cell_formula_units_Z   1
loop_
 _symmetry_equiv_pos_site_id
 _symmetry_equiv_pos_as_xyz
  1  'x, y, z'
  2  'x, -y, z'
loop_
 _atom_site_type_symbol
 _atom_site_label
 _atom_site_symmetry_multiplicity
 _atom_site_fract_x
 _atom_site_fract_y
 _atom_site_fract_z
 _atom_site_occupancy
  Zr  Zr0  2  0.00000000  0.25000000  0.87547000  1.0
  Zr  Zr1  2  0.00321000  0.25995000  0.04711000  1.0
  Zr  Zr2  1  0.42864000  0.50000000  0.12283000  1.0
  Zr  Zr3  1  0.47666000  0.00000000  0.11737000  1.0
  Zr  Zr4  1  0.50000000  0.00000000  0.95849000  1.0
  Zr  Zr5  1  0.50000000  0.50000000  0.95849000  1.0
  Zn  Zn6  2  0.49549000  0.24697000  0.03928000  1.0
  Zn  Zn7  2  0.50000000  0.25000000  0.87547000  1.0
  Zn  Zn8  1  0.00000000  0.00000000  0.95849000  1.0
  Zn  Zn9  1  0.00000000  0.50000000  0.95849000  1.0
  Zn  Zn10  1  0.93325000  0.00000000  0.12478000  1.0
  Zn  Zn11  1  0.98276000  0.50000000  0.12585000  1.0
  Cu  Cu12  2  0.17208000  0.22795000  0.14655000  1.0
  Cu  Cu13  2  0.25000000  0.25000000  0.95849000  1.0
  Cu  Cu14  2  0.72583000  0.26291000  0.12478000  1.0
  Cu  Cu15  2  0.75000000  0.25000000  0.95849000  1.0
  Cu  Cu16  1  0.22749000  0.00000000  0.03619000  1.0
  Cu  Cu17  1  0.25000000  0.00000000  0.87547000  1.0
  Cu  Cu18  1  0.25000000  0.50000000  0.87547000  1.0
  Cu  Cu19  1  0.25275000  0.50000000  0.03622000  1.0
  Cu  Cu20  1  0.71951000  0.50000000  0.04762000  1.0
  Cu  Cu21  1  0.75000000  0.00000000  0.87547000  1.0
  Cu  Cu22  1  0.75000000  0.50000000  0.87547000  1.0
  Cu  Cu23  1  0.76894000  0.00000000  0.03759000  1.0
  C  C24  1  0.20627000  0.00000000  0.16106000  1.0
