data_image0
_chemical_formula_structural       Sc4In4Ge4Pd4C
_chemical_formula_sum              "Sc4 In4 Ge4 Pd4 C1"
_cell_length_a       5.71274
_cell_length_b       9.28368
_cell_length_c       24.2722
_cell_angle_alpha    90
_cell_angle_beta     90
_cell_angle_gamma    90

_space_group_name_H-M_alt    "P 1"
_space_group_IT_number       1

loop_
  _space_group_symop_operation_xyz
  'x, y, z'

loop_
  _atom_site_type_symbol
  _atom_site_label
  _atom_site_symmetry_multiplicity
  _atom_site_fract_x
  _atom_site_fract_y
  _atom_site_fract_z
  _atom_site_occupancy
  Sc  Sc1       1.0  0.50000  0.00000  0.91199  1.0000
  Sc  Sc2       1.0  0.09564  1.00000  0.05967  1.0000
  Sc  Sc3       1.0  0.50000  0.50000  0.91199  1.0000
  Sc  Sc4       1.0  0.98098  0.50000  0.03363  1.0000
  In  In1       1.0  0.23099  0.25000  0.97066  1.0000
  In  In2       1.0  0.75350  0.24845  0.10331  1.0000
  In  In3       1.0  0.23099  0.75000  0.97066  1.0000
  In  In4       1.0  0.75351  0.75154  0.10331  1.0000
  Ge  Ge1       1.0  0.00000  0.00000  0.91199  1.0000
  Ge  Ge2       1.0  0.60497  0.99999  0.01592  1.0000
  Ge  Ge3       1.0  0.00000  0.50000  0.91199  1.0000
  Ge  Ge4       1.0  0.50230  0.49997  0.03532  1.0000
  Pd  Pd1       1.0  0.73099  0.25000  0.97066  1.0000
  Pd  Pd2       1.0  0.24279  0.29205  0.08488  1.0000
  Pd  Pd3       1.0  0.73099  0.75000  0.97066  1.0000
  Pd  Pd4       1.0  0.24281  0.70795  0.08487  1.0000
  C   C1        1.0  0.74277  1.00000  0.08714  1.0000
