# generated using pymatgen
data_Sc4In4Ge4Pd4C
_symmetry_space_group_name_H-M   Pm
_cell_length_a   5.71274000
_cell_length_b   9.28368000
_cell_length_c   24.27220000
_cell_angle_alpha   90.00000000
_cell_angle_beta   90.00000000
_cell_angle_gamma   90.00000000
_symmetry_Int_Tables_number   6
_chemical_formula_structural   Sc4In4Ge4Pd4C
_chemical_formula_sum   'Sc4 In4 Ge4 Pd4 C1'
_cell_volume   1287.28219707
_cell_formula_units_Z   1
loop_
 _symmetry_equiv_pos_site_id
 _symmetry_equiv_pos_as_xyz
  1  'x, y, z'
  2  'x, -y, z'
loop_
 _atom_site_type_symbol
 _atom_site_label
 _atom_site_symmetry_multiplicity
 _atom_site_fract_x
 _atom_site_fract_y
 _atom_site_fract_z
 _atom_site_occupancy
  Sc  Sc0  1  0.09564000  0.00000000  0.05967000  1.0
  Sc  Sc1  1  0.50000000  0.00000000  0.91199000  1.0
  Sc  Sc2  1  0.50000000  0.50000000  0.91199000  1.0
  Sc  Sc3  1  0.98098000  0.50000000  0.03363000  1.0
  In  In4  2  0.23099000  0.25000000  0.97066000  1.0
  In  In5  2  0.75350000  0.24845000  0.10331000  1.0
  Ge  Ge6  1  0.00000000  0.00000000  0.91199000  1.0
  Ge  Ge7  1  0.00000000  0.50000000  0.91199000  1.0
  Ge  Ge8  1  0.50230000  0.50000000  0.03532000  1.0
  Ge  Ge9  1  0.60497000  0.00000000  0.01592000  1.0
  Pd  Pd10  2  0.24279000  0.29205000  0.08488000  1.0
  Pd  Pd11  2  0.73099000  0.25000000  0.97066000  1.0
  C  C12  1  0.74277000  0.00000000  0.08714000  1.0
