# generated using pymatgen
data_Li16Ge8Pd8C
_symmetry_space_group_name_H-M   Pmm2
_cell_length_a   6.09904000
_cell_length_b   8.62534000
_cell_length_c   26.46900000
_cell_angle_alpha   90.00000000
_cell_angle_beta   90.00000000
_cell_angle_gamma   90.00000000
_symmetry_Int_Tables_number   25
_chemical_formula_structural   Li16Ge8Pd8C
_chemical_formula_sum   'Li16 Ge8 Pd8 C1'
_cell_volume   1392.43598725
_cell_formula_units_Z   1
loop_
 _symmetry_equiv_pos_site_id
 _symmetry_equiv_pos_as_xyz
  1  'x, y, z'
  2  '-x, -y, z'
  3  '-x, y, z'
  4  'x, -y, z'
loop_
 _atom_site_type_symbol
 _atom_site_label
 _atom_site_symmetry_multiplicity
 _atom_site_fract_x
 _atom_site_fract_y
 _atom_site_fract_z
 _atom_site_occupancy
  Li  Li0  4  0.25000000  0.25000000  0.87780000  1.0
  Li  Li1  4  0.25812000  0.24786000  0.04075000  1.0
  Li  Li2  2  0.18722000  0.00000000  0.12367000  1.0
  Li  Li3  2  0.25000000  0.00000000  0.95927000  1.0
  Li  Li4  2  0.25000000  0.50000000  0.95927000  1.0
  Li  Li5  2  0.27293000  0.50000000  0.12839000  1.0
  Ge  Ge6  2  0.50000000  0.21927000  0.13274000  1.0
  Ge  Ge7  2  0.50000000  0.25000000  0.95927000  1.0
  Ge  Ge8  1  0.00000000  0.00000000  0.03452000  1.0
  Ge  Ge9  1  0.00000000  0.00000000  0.87780000  1.0
  Ge  Ge10  1  0.00000000  0.50000000  0.04110000  1.0
  Ge  Ge11  1  0.00000000  0.50000000  0.87780000  1.0
  Pd  Pd12  2  0.00000000  0.25000000  0.95927000  1.0
  Pd  Pd13  2  0.00000000  0.27752000  0.11385000  1.0
  Pd  Pd14  1  0.50000000  0.00000000  0.04588000  1.0
  Pd  Pd15  1  0.50000000  0.00000000  0.87780000  1.0
  Pd  Pd16  1  0.50000000  0.50000000  0.03488000  1.0
  Pd  Pd17  1  0.50000000  0.50000000  0.87780000  1.0
  C  C18  1  0.50000000  0.00000000  0.13297000  1.0
