# generated using pymatgen
data_Li8Mn8Al8Pd8CO
_symmetry_space_group_name_H-M   'P 1'
_cell_length_a   8.62984000
_cell_length_b   6.10222000
_cell_length_c   26.47240000
_cell_angle_alpha   90.00000000
_cell_angle_beta   90.00000000
_cell_angle_gamma   90.00000000
_symmetry_Int_Tables_number   1
_chemical_formula_structural   Li8Mn8Al8Pd8CO
_chemical_formula_sum   'Li8 Mn8 Al8 Pd8 C1 O1'
_cell_volume   1394.06788086
_cell_formula_units_Z   1
loop_
 _symmetry_equiv_pos_site_id
 _symmetry_equiv_pos_as_xyz
  1  'x, y, z'
loop_
 _atom_site_type_symbol
 _atom_site_label
 _atom_site_symmetry_multiplicity
 _atom_site_fract_x
 _atom_site_fract_y
 _atom_site_fract_z
 _atom_site_occupancy
  Li  Li0  1  0.00000000  0.00000000  0.04075000  1.0
  Li  Li1  1  0.50000000  1.00000000  0.04075000  1.0
  Li  Li2  1  0.25000000  0.50000000  0.12225000  1.0
  Li  Li3  1  0.75000000  0.50000000  0.12225000  1.0
  Li  Li4  1  0.50000000  0.98724000  0.86442000  1.0
  Li  Li5  1  0.00000000  0.98681000  0.86630000  1.0
  Li  Li6  1  0.75091000  0.49560000  0.96361000  1.0
  Li  Li7  1  0.24909000  0.49560000  0.96361000  1.0
  Mn  Mn8  1  0.75000000  0.25000000  0.04075000  1.0
  Mn  Mn9  1  0.25000000  0.25000000  0.04075000  1.0
  Mn  Mn10  1  0.00000000  0.75000000  0.12225000  1.0
  Mn  Mn11  1  0.50000000  0.75000000  0.12225000  1.0
  Mn  Mn12  1  0.25038000  0.26266000  0.88031000  1.0
  Mn  Mn13  1  0.74962000  0.26266000  0.88031000  1.0
  Mn  Mn14  1  0.50000000  0.75072000  0.95671000  1.0
  Mn  Mn15  1  0.00000000  0.75601000  0.95788000  1.0
  Al  Al16  1  0.75000000  0.00000000  0.12225000  1.0
  Al  Al17  1  0.25000000  0.00000000  0.12225000  1.0
  Al  Al18  1  0.50000000  0.50000000  0.04075000  1.0
  Al  Al19  1  0.00000000  0.50000000  0.04075000  1.0
  Al  Al20  1  0.25104000  0.00388000  0.96027000  1.0
  Al  Al21  1  0.74896000  0.00388000  0.96027000  1.0
  Al  Al22  1  0.00000000  0.50484000  0.87694000  1.0
  Al  Al23  1  0.50000000  0.50157000  0.87381000  1.0
  Pd  Pd24  1  0.75000000  0.75000000  0.04075000  1.0
  Pd  Pd25  1  0.25000000  0.75000000  0.04075000  1.0
  Pd  Pd26  1  0.00000000  0.25000000  0.12225000  1.0
  Pd  Pd27  1  0.50000000  0.25000000  0.12225000  1.0
  Pd  Pd28  1  0.25175000  0.73140000  0.88655000  1.0
  Pd  Pd29  1  0.74825000  0.73140000  0.88655000  1.0
  Pd  Pd30  1  0.50000000  0.24809000  0.95867000  1.0
  Pd  Pd31  1  0.00000000  0.24543000  0.95847000  1.0
  C  C32  1  0.00000000  0.01100000  0.78710000  1.0
  O  O33  1  0.00000000  0.01927000  0.74407000  1.0
