# generated using pymatgen
data_Li8Mn8Al8Pd8CO
_symmetry_space_group_name_H-M   Pm
_cell_length_a   6.10222000
_cell_length_b   8.62984000
_cell_length_c   26.47240000
_cell_angle_alpha   90.00000000
_cell_angle_beta   90.00000000
_cell_angle_gamma   90.00000000
_symmetry_Int_Tables_number   6
_chemical_formula_structural   Li8Mn8Al8Pd8CO
_chemical_formula_sum   'Li8 Mn8 Al8 Pd8 C1 O1'
_cell_volume   1394.06788086
_cell_formula_units_Z   1
loop_
 _symmetry_equiv_pos_site_id
 _symmetry_equiv_pos_as_xyz
  1  'x, y, z'
  2  'x, -y, z'
loop_
 _atom_site_type_symbol
 _atom_site_label
 _atom_site_symmetry_multiplicity
 _atom_site_fract_x
 _atom_site_fract_y
 _atom_site_fract_z
 _atom_site_occupancy
  Li  Li0  2  0.49560000  0.24909000  0.03639000  1.0
  Li  Li1  2  0.50000000  0.25000000  0.87775000  1.0
  Li  Li2  1  -0.00000000  0.50000000  0.95925000  1.0
  Li  Li3  1  0.00000000  0.00000000  0.95925000  1.0
  Li  Li4  1  0.98681000  0.00000000  0.13370000  1.0
  Li  Li5  1  0.98724000  0.50000000  0.13558000  1.0
  Mn  Mn6  2  0.25000000  0.25000000  0.95925000  1.0
  Mn  Mn7  2  0.26266000  0.25038000  0.11969000  1.0
  Mn  Mn8  1  0.75000000  0.00000000  0.87775000  1.0
  Mn  Mn9  1  0.75000000  0.50000000  0.87775000  1.0
  Mn  Mn10  1  0.75072000  0.50000000  0.04329000  1.0
  Mn  Mn11  1  0.75601000  0.00000000  0.04212000  1.0
  Al  Al12  2  0.00000000  0.25000000  0.87775000  1.0
  Al  Al13  2  0.00388000  0.25104000  0.03973000  1.0
  Al  Al14  1  0.50000000  0.00000000  0.95925000  1.0
  Al  Al15  1  0.50000000  0.50000000  0.95925000  1.0
  Al  Al16  1  0.50157000  0.50000000  0.12619000  1.0
  Al  Al17  1  0.50484000  0.00000000  0.12306000  1.0
  Pd  Pd18  2  0.73140000  0.25175000  0.11345000  1.0
  Pd  Pd19  2  0.75000000  0.25000000  0.95925000  1.0
  Pd  Pd20  1  0.24543000  0.00000000  0.04153000  1.0
  Pd  Pd21  1  0.24809000  0.50000000  0.04133000  1.0
  Pd  Pd22  1  0.25000000  0.00000000  0.87775000  1.0
  Pd  Pd23  1  0.25000000  0.50000000  0.87775000  1.0
  C  C24  1  0.01100000  0.00000000  0.21290000  1.0
  O  O25  1  0.01927000  0.00000000  0.25593000  1.0
