# generated using pymatgen
data_Mn16Al8V8C
_symmetry_space_group_name_H-M   Pm
_cell_length_a   5.82937000
_cell_length_b   8.24397000
_cell_length_c   26.18300000
_cell_angle_alpha   90.00000000
_cell_angle_beta   90.00000000
_cell_angle_gamma   90.00000000
_symmetry_Int_Tables_number   6
_chemical_formula_structural   Mn16Al8V8C
_chemical_formula_sum   'Mn16 Al8 V8 C1'
_cell_volume   1258.28039508
_cell_formula_units_Z   1
loop_
 _symmetry_equiv_pos_site_id
 _symmetry_equiv_pos_as_xyz
  1  'x, y, z'
  2  'x, -y, z'
loop_
 _atom_site_type_symbol
 _atom_site_label
 _atom_site_symmetry_multiplicity
 _atom_site_fract_x
 _atom_site_fract_y
 _atom_site_fract_z
 _atom_site_occupancy
  Mn  Mn0  2  0.24782000  0.23507000  0.12366000  1.0
  Mn  Mn1  2  0.25000000  0.25000000  0.96064000  1.0
  Mn  Mn2  2  0.75000000  0.25000000  0.96064000  1.0
  Mn  Mn3  2  0.75963000  0.26210000  0.12111000  1.0
  Mn  Mn4  1  0.25000000  0.00000000  0.88193000  1.0
  Mn  Mn5  1  0.25000000  0.50000000  0.88193000  1.0
  Mn  Mn6  1  0.25171000  0.50000000  0.04119000  1.0
  Mn  Mn7  1  0.25605000  0.00000000  0.04161000  1.0
  Mn  Mn8  1  0.74149000  0.00000000  0.03606000  1.0
  Mn  Mn9  1  0.74953000  0.50000000  0.04067000  1.0
  Mn  Mn10  1  0.75000000  0.00000000  0.88193000  1.0
  Mn  Mn11  1  0.75000000  0.50000000  0.88193000  1.0
  Al  Al12  2  0.00000000  0.25000000  0.88193000  1.0
  Al  Al13  2  0.00120000  0.24951000  0.03976000  1.0
  Al  Al14  1  0.49094000  0.50000000  0.12320000  1.0
  Al  Al15  1  0.50000000  0.00000000  0.96064000  1.0
  Al  Al16  1  0.50000000  0.50000000  0.96064000  1.0
  Al  Al17  1  0.54065000  0.00000000  0.12335000  1.0
  V  V18  2  0.50000000  0.25000000  0.88193000  1.0
  V  V19  2  0.50087000  0.25181000  0.04101000  1.0
  V  V20  1  0.00000000  0.00000000  0.96064000  1.0
  V  V21  1  0.00000000  0.50000000  0.96064000  1.0
  V  V22  1  0.01182000  0.50000000  0.11515000  1.0
  V  V23  1  0.96385000  0.00000000  0.10947000  1.0
  C  C24  1  0.23386000  0.00000000  0.14796000  1.0
