data_image0
_chemical_formula_structural       Li8Y8Ga8Pd8CO
_chemical_formula_sum              "Li8 Y8 Ga8 Pd8 C1 O1"
_cell_length_a       6.61884
_cell_length_b       9.36046
_cell_length_c       27.0203
_cell_angle_alpha    90
_cell_angle_beta     90
_cell_angle_gamma    90

_space_group_name_H-M_alt    "P 1"
_space_group_IT_number       1

loop_
  _space_group_symop_operation_xyz
  'x, y, z'

loop_
  _atom_site_type_symbol
  _atom_site_label
  _atom_site_symmetry_multiplicity
  _atom_site_fract_x
  _atom_site_fract_y
  _atom_site_fract_z
  _atom_site_occupancy
  Li  Li1       1.0  0.75000  0.00000  0.95670  1.0000
  Li  Li2       1.0  0.75000  0.50000  0.95670  1.0000
  Li  Li3       1.0  0.25000  0.25000  0.87009  1.0000
  Li  Li4       1.0  0.25000  0.75000  0.87009  1.0000
  Li  Li5       1.0  0.53492  0.49508  0.18158  1.0000
  Li  Li6       1.0  0.53526  0.00457  0.18158  1.0000
  Li  Li7       1.0  0.22808  0.74988  0.04721  1.0000
  Li  Li8       1.0  0.21341  0.24994  0.04805  1.0000
  Y   Y1        1.0  0.00000  0.25000  0.95670  1.0000
  Y   Y2        1.0  0.00000  0.75000  0.95670  1.0000
  Y   Y3        1.0  0.50000  0.50000  0.87009  1.0000
  Y   Y4        1.0  0.50000  0.00000  0.87009  1.0000
  Y   Y5        1.0  0.91576  0.75002  0.12890  1.0000
  Y   Y6        1.0  0.91023  0.25008  0.13305  1.0000
  Y   Y7        1.0  0.50695  0.00130  0.05191  1.0000
  Y   Y8        1.0  0.50696  0.49847  0.05191  1.0000
  Ga  Ga1       1.0  0.00000  0.00000  0.87009  1.0000
  Ga  Ga2       1.0  0.00000  0.50000  0.87009  1.0000
  Ga  Ga3       1.0  0.50000  0.75000  0.95670  1.0000
  Ga  Ga4       1.0  0.50000  0.25000  0.95670  1.0000
  Ga  Ga5       1.0  0.98910  0.50032  0.04109  1.0000
  Ga  Ga6       1.0  0.98912  0.99954  0.04109  1.0000
  Ga  Ga7       1.0  0.42724  0.24972  0.13050  1.0000
  Ga  Ga8       1.0  0.42391  0.75001  0.13410  1.0000
  Pd  Pd1       1.0  0.25000  0.00000  0.95670  1.0000
  Pd  Pd2       1.0  0.25000  0.50000  0.95670  1.0000
  Pd  Pd3       1.0  0.75000  0.25000  0.87009  1.0000
  Pd  Pd4       1.0  0.75000  0.75000  0.87009  1.0000
  Pd  Pd5       1.0  0.20667  0.50139  0.12317  1.0000
  Pd  Pd6       1.0  0.20658  0.99888  0.12319  1.0000
  Pd  Pd7       1.0  0.74196  0.74990  0.03727  1.0000
  Pd  Pd8       1.0  0.74463  0.24988  0.03702  1.0000
  C   C1        1.0  0.75040  0.25005  0.21347  1.0000
  O   O1        1.0  0.69683  0.24988  0.25499  1.0000
