# generated using pymatgen
data_Li8Y8Ga8Pd8CO
_symmetry_space_group_name_H-M   'P 1'
_cell_length_a   6.61884000
_cell_length_b   9.36046000
_cell_length_c   27.02030000
_cell_angle_alpha   90.00000000
_cell_angle_beta   90.00000000
_cell_angle_gamma   90.00000000
_symmetry_Int_Tables_number   1
_chemical_formula_structural   Li8Y8Ga8Pd8CO
_chemical_formula_sum   'Li8 Y8 Ga8 Pd8 C1 O1'
_cell_volume   1674.05314515
_cell_formula_units_Z   1
loop_
 _symmetry_equiv_pos_site_id
 _symmetry_equiv_pos_as_xyz
  1  'x, y, z'
loop_
 _atom_site_type_symbol
 _atom_site_label
 _atom_site_symmetry_multiplicity
 _atom_site_fract_x
 _atom_site_fract_y
 _atom_site_fract_z
 _atom_site_occupancy
  Li  Li0  1  0.25000000  0.00000000  0.95670000  1.0
  Li  Li1  1  0.25000000  0.50000000  0.95670000  1.0
  Li  Li2  1  0.75000000  0.75000000  0.87009000  1.0
  Li  Li3  1  0.75000000  0.25000000  0.87009000  1.0
  Li  Li4  1  0.46841000  0.50880000  0.18342000  1.0
  Li  Li5  1  0.46889000  0.99102000  0.18340000  1.0
  Li  Li6  1  0.76932000  0.25004000  0.04720000  1.0
  Li  Li7  1  0.79733000  0.75004000  0.05001000  1.0
  Y  Y8  1  0.00000000  0.75000000  0.95670000  1.0
  Y  Y9  1  0.00000000  0.25000000  0.95670000  1.0
  Y  Y10  1  0.50000000  0.50000000  0.87009000  1.0
  Y  Y11  1  0.50000000  0.00000000  0.87009000  1.0
  Y  Y12  1  0.08304000  0.24991000  0.12898000  1.0
  Y  Y13  1  0.09340000  0.74977000  0.13436000  1.0
  Y  Y14  1  0.49403000  0.99821000  0.05302000  1.0
  Y  Y15  1  0.49403000  0.50171000  0.05303000  1.0
  Ga  Ga16  1  0.00000000  0.00000000  0.87009000  1.0
  Ga  Ga17  1  0.00000000  0.50000000  0.87009000  1.0
  Ga  Ga18  1  0.50000000  0.25000000  0.95670000  1.0
  Ga  Ga19  1  0.50000000  0.75000000  0.95670000  1.0
  Ga  Ga20  1  0.01316000  0.49911000  0.04152000  1.0
  Ga  Ga21  1  0.01293000  0.00093000  0.04148000  1.0
  Ga  Ga22  1  0.57243000  0.75008000  0.12909000  1.0
  Ga  Ga23  1  0.57554000  0.24995000  0.13447000  1.0
  Pd  Pd24  1  0.75000000  0.00000000  0.95670000  1.0
  Pd  Pd25  1  0.75000000  0.50000000  0.95670000  1.0
  Pd  Pd26  1  0.25000000  0.75000000  0.87009000  1.0
  Pd  Pd27  1  0.25000000  0.25000000  0.87009000  1.0
  Pd  Pd28  1  0.79911000  0.49821000  0.12314000  1.0
  Pd  Pd29  1  0.79898000  0.00201000  0.12312000  1.0
  Pd  Pd30  1  0.26129000  0.24998000  0.03719000  1.0
  Pd  Pd31  1  0.25620000  0.75008000  0.03687000  1.0
  C  C32  1  0.30281000  0.74996000  0.20633000  1.0
  O  O33  1  0.38102000  0.75004000  0.24606000  1.0
