# generated using pymatgen
data_Y8In8Sn8Pd8CO
_symmetry_space_group_name_H-M   Pmm2
_cell_length_a   8.73372000
_cell_length_b   9.06394000
_cell_length_c   26.87300000
_cell_angle_alpha   90.00000000
_cell_angle_beta   90.00000000
_cell_angle_gamma   90.00000000
_symmetry_Int_Tables_number   25
_chemical_formula_structural   Y8In8Sn8Pd8CO
_chemical_formula_sum   'Y8 In8 Sn8 Pd8 C1 O1'
_cell_volume   2127.31811645
_cell_formula_units_Z   1
loop_
 _symmetry_equiv_pos_site_id
 _symmetry_equiv_pos_as_xyz
  1  'x, y, z'
  2  '-x, -y, z'
  3  '-x, y, z'
  4  'x, -y, z'
loop_
 _atom_site_type_symbol
 _atom_site_label
 _atom_site_symmetry_multiplicity
 _atom_site_fract_x
 _atom_site_fract_y
 _atom_site_fract_z
 _atom_site_occupancy
  Y  Y0  1  0.00000000  0.00000000  0.13025000  1.0
  Y  Y1  1  0.00000000  0.00000000  0.95737000  1.0
  Y  Y2  1  0.00000000  0.50000000  0.13074000  1.0
  Y  Y3  1  0.00000000  0.50000000  0.95737000  1.0
  Y  Y4  1  0.50000000  0.00000000  0.13123000  1.0
  Y  Y5  1  0.50000000  0.00000000  0.95737000  1.0
  Y  Y6  1  0.50000000  0.50000000  0.12998000  1.0
  Y  Y7  1  0.50000000  0.50000000  0.95737000  1.0
  In  In8  2  0.00000000  0.25000000  0.87212000  1.0
  In  In9  2  0.00000000  0.25086000  0.04534000  1.0
  In  In10  2  0.50000000  0.24955000  0.04554000  1.0
  In  In11  2  0.50000000  0.25000000  0.87212000  1.0
  Sn  Sn12  4  0.24994000  0.25010000  0.13026000  1.0
  Sn  Sn13  4  0.25000000  0.25000000  0.95737000  1.0
  Pd  Pd14  2  0.25000000  0.00000000  0.87212000  1.0
  Pd  Pd15  2  0.25000000  0.50000000  0.87212000  1.0
  Pd  Pd16  2  0.25069000  0.50000000  0.05012000  1.0
  Pd  Pd17  2  0.25644000  0.00000000  0.04985000  1.0
  C  C18  1  0.00000000  0.00000000  0.22306000  1.0
  O  O19  1  0.00000000  0.00000000  0.26578000  1.0
