# generated using pymatgen
data_Nb3Ge
_symmetry_space_group_name_H-M   Pmm2
_cell_length_a   5.80737000
_cell_length_b   8.21286000
_cell_length_c   24.35550000
_cell_angle_alpha   90.00000000
_cell_angle_beta   90.00000000
_cell_angle_gamma   90.00000000
_symmetry_Int_Tables_number   25
_chemical_formula_structural   Nb3Ge
_chemical_formula_sum   'Nb12 Ge4'
_cell_volume   1161.63841669
_cell_formula_units_Z   4
loop_
 _symmetry_equiv_pos_site_id
 _symmetry_equiv_pos_as_xyz
  1  'x, y, z'
  2  '-x, -y, z'
  3  '-x, y, z'
  4  'x, -y, z'
loop_
 _atom_site_type_symbol
 _atom_site_label
 _atom_site_symmetry_multiplicity
 _atom_site_fract_x
 _atom_site_fract_y
 _atom_site_fract_z
 _atom_site_occupancy
  Nb  Nb0  2  0.00000000  0.25001000  0.96805000  1.0
  Nb  Nb1  2  0.25000000  0.00000000  0.02981000  1.0
  Nb  Nb2  2  0.25000000  0.50000000  0.02981000  1.0
  Nb  Nb3  2  0.26792000  0.00000000  0.91401000  1.0
  Nb  Nb4  2  0.26795000  0.50000000  0.91402000  1.0
  Nb  Nb5  2  0.50000000  0.25000000  0.08942000  1.0
  Ge  Ge6  2  0.00000000  0.25000000  0.08942000  1.0
  Ge  Ge7  2  0.50000000  0.24993000  0.97160000  1.0
