# generated using pymatgen
data_Sc8Al8In8Pd8CO
_symmetry_space_group_name_H-M   P1
_cell_length_a   8.30234000
_cell_length_b   8.60736000
_cell_length_c   26.25270000
_cell_angle_alpha   90.00000000
_cell_angle_beta   90.00000000
_cell_angle_gamma   90.00000000
_symmetry_Int_Tables_number   1
_chemical_formula_structural   Sc8Al8In8Pd8CO
_chemical_formula_sum   'Sc8 Al8 In8 Pd8 C1 O1'
_cell_volume   1876.05021241
_cell_formula_units_Z   1
loop_
 _symmetry_equiv_pos_site_id
 _symmetry_equiv_pos_as_xyz
  1  'x, y, z'
loop_
 _atom_site_type_symbol
 _atom_site_label
 _atom_site_symmetry_multiplicity
 _atom_site_fract_x
 _atom_site_fract_y
 _atom_site_fract_z
 _atom_site_occupancy
  Sc  Sc0  1  0.22325000  0.75000000  0.95699000  1.0
  Sc  Sc1  1  0.25000000  0.25000000  0.11909000  1.0
  Sc  Sc2  1  0.25000000  0.75000000  0.11909000  1.0
  Sc  Sc3  1  0.26790000  0.25000000  0.95883000  1.0
  Sc  Sc4  1  0.73206000  0.25001000  0.95885000  1.0
  Sc  Sc5  1  0.75000000  0.25000000  0.11909000  1.0
  Sc  Sc6  1  0.75000000  0.75000000  0.11909000  1.0
  Sc  Sc7  1  0.77673000  0.75000000  0.95697000  1.0
  Al  Al8  1  0.00000000  0.00000000  0.11909000  1.0
  Al  Al9  1  0.00000000  0.48785000  0.96108000  1.0
  Al  Al10  1  0.00000000  0.50000000  0.11909000  1.0
  Al  Al11  1  0.49998000  0.98472000  0.96214000  1.0
  Al  Al12  1  0.50000000  -0.00000000  0.11909000  1.0
  Al  Al13  1  0.50000000  0.50000000  0.11909000  1.0
  Al  Al14  1  0.50002000  0.51527000  0.96214000  1.0
  Al  Al15  1  0.99999000  0.01217000  0.96109000  1.0
  In  In16  1  0.25000000  -0.00000000  0.03970000  1.0
  In  In17  1  0.25000000  0.50000000  0.03970000  1.0
  In  In18  1  0.25481000  0.00316000  0.87011000  1.0
  In  In19  1  0.25501000  0.49686000  0.87012000  1.0
  In  In20  1  0.74504000  0.00323000  0.87012000  1.0
  In  In21  1  0.74514000  0.49676000  0.87010000  1.0
  In  In22  1  0.75000000  -0.00000000  0.03970000  1.0
  In  In23  1  0.75000000  0.50000000  0.03970000  1.0
  Pd  Pd24  1  0.00000000  0.25000000  0.03970000  1.0
  Pd  Pd25  1  0.00000000  0.75000000  0.03970000  1.0
  Pd  Pd26  1  0.00004000  0.75004000  0.87208000  1.0
  Pd  Pd27  1  0.49994000  0.74999000  0.89629000  1.0
  Pd  Pd28  1  0.50000000  0.25000000  0.03970000  1.0
  Pd  Pd29  1  0.50000000  0.75000000  0.03970000  1.0
  Pd  Pd30  1  0.50003000  0.24995000  0.88787000  1.0
  Pd  Pd31  1  0.99994000  0.25002000  0.89583000  1.0
  C  C32  1  0.99981000  0.74999000  0.79504000  1.0
  O  O33  1  0.00000000  0.74995000  0.75111000  1.0
