# generated using pymatgen
data_Nb12Ge4C
_symmetry_space_group_name_H-M   'P 1'
_cell_length_a   5.80737000
_cell_length_b   8.21286000
_cell_length_c   24.35550000
_cell_angle_alpha   90.00000000
_cell_angle_beta   90.00000000
_cell_angle_gamma   90.00000000
_symmetry_Int_Tables_number   1
_chemical_formula_structural   Nb12Ge4C
_chemical_formula_sum   'Nb12 Ge4 C1'
_cell_volume   1161.63841669
_cell_formula_units_Z   1
loop_
 _symmetry_equiv_pos_site_id
 _symmetry_equiv_pos_as_xyz
  1  'x, y, z'
loop_
 _atom_site_type_symbol
 _atom_site_label
 _atom_site_symmetry_multiplicity
 _atom_site_fract_x
 _atom_site_fract_y
 _atom_site_fract_z
 _atom_site_occupancy
  Nb  Nb0  1  0.50000000  0.00000000  0.08942000  1.0
  Nb  Nb1  1  0.75000000  0.25000000  0.02981000  1.0
  Nb  Nb2  1  0.25000000  0.25000000  0.02981000  1.0
  Nb  Nb3  1  0.00000000  0.00000000  0.97762000  1.0
  Nb  Nb4  1  0.23938000  0.19196000  0.90820000  1.0
  Nb  Nb5  1  0.76062000  0.19196000  0.90820000  1.0
  Nb  Nb6  1  0.50000000  0.50000000  0.08942000  1.0
  Nb  Nb7  1  0.75000000  0.75000000  0.02981000  1.0
  Nb  Nb8  1  0.25000000  0.75000000  0.02981000  1.0
  Nb  Nb9  1  0.00000000  0.50000000  0.96327000  1.0
  Nb  Nb10  1  0.23938000  0.80804000  0.90820000  1.0
  Nb  Nb11  1  0.76062000  0.80804000  0.90820000  1.0
  Ge  Ge12  1  0.00000000  0.00000000  0.08942000  1.0
  Ge  Ge13  1  0.50000000  0.00000000  0.97800000  1.0
  Ge  Ge14  1  0.00000000  0.50000000  0.08942000  1.0
  Ge  Ge15  1  0.50000000  0.50000000  0.96369000  1.0
  C  C16  1  0.00000000  0.00000000  0.88193000  1.0
