# generated using pymatgen
data_Y8Sc8Ga8Pd8C
_symmetry_space_group_name_H-M   Pmm2
_cell_length_a   9.48206000
_cell_length_b   9.85606000
_cell_length_c   25.30050000
_cell_angle_alpha   90.00000000
_cell_angle_beta   90.00000000
_cell_angle_gamma   90.00000000
_symmetry_Int_Tables_number   25
_chemical_formula_structural   Y8Sc8Ga8Pd8C
_chemical_formula_sum   'Y8 Sc8 Ga8 Pd8 C1'
_cell_volume   2364.47726065
_cell_formula_units_Z   1
loop_
 _symmetry_equiv_pos_site_id
 _symmetry_equiv_pos_as_xyz
  1  'x, y, z'
  2  '-x, -y, z'
  3  '-x, y, z'
  4  'x, -y, z'
loop_
 _atom_site_type_symbol
 _atom_site_label
 _atom_site_symmetry_multiplicity
 _atom_site_fract_x
 _atom_site_fract_y
 _atom_site_fract_z
 _atom_site_occupancy
  Y  Y0  2  0.00000000  0.24083000  0.11224000  1.0
  Y  Y1  2  0.00000000  0.25000000  0.96508000  1.0
  Y  Y2  2  0.50000000  0.24879000  0.11038000  1.0
  Y  Y3  2  0.50000000  0.25000000  0.96508000  1.0
  Sc  Sc4  2  0.23143000  0.00000000  0.09904000  1.0
  Sc  Sc5  2  0.24926000  0.50000000  0.09436000  1.0
  Sc  Sc6  2  0.25000000  0.00000000  0.96508000  1.0
  Sc  Sc7  2  0.25000000  0.50000000  0.96508000  1.0
  Ga  Ga8  1  0.00000000  0.00000000  0.03120000  1.0
  Ga  Ga9  1  0.00000000  0.00000000  0.89525000  1.0
  Ga  Ga10  1  0.00000000  0.50000000  0.03606000  1.0
  Ga  Ga11  1  0.00000000  0.50000000  0.89525000  1.0
  Ga  Ga12  1  0.50000000  0.00000000  0.03829000  1.0
  Ga  Ga13  1  0.50000000  0.00000000  0.89525000  1.0
  Ga  Ga14  1  0.50000000  0.50000000  0.03547000  1.0
  Ga  Ga15  1  0.50000000  0.50000000  0.89525000  1.0
  Pd  Pd16  4  0.25000000  0.25000000  0.89525000  1.0
  Pd  Pd17  4  0.25292000  0.24734000  0.04524000  1.0
  C  C18  1  0.00000000  0.00000000  0.11754000  1.0
