# generated using pymatgen
data_Ni24Sb8C
_symmetry_space_group_name_H-M   P1
_cell_length_a   5.96127000
_cell_length_b   8.43051000
_cell_length_c   26.32290000
_cell_angle_alpha   90.00000000
_cell_angle_beta   90.00000000
_cell_angle_gamma   90.00000000
_symmetry_Int_Tables_number   1
_chemical_formula_structural   Ni24Sb8C
_chemical_formula_sum   'Ni24 Sb8 C1'
_cell_volume   1322.89804386
_cell_formula_units_Z   1
loop_
 _symmetry_equiv_pos_site_id
 _symmetry_equiv_pos_as_xyz
  1  'x, y, z'
loop_
 _atom_site_type_symbol
 _atom_site_label
 _atom_site_symmetry_multiplicity
 _atom_site_fract_x
 _atom_site_fract_y
 _atom_site_fract_z
 _atom_site_occupancy
  Ni  Ni0  1  0.00000000  0.25000000  0.95997000  1.0
  Ni  Ni1  1  0.00000000  0.75000000  0.95997000  1.0
  Ni  Ni2  1  0.02843000  0.75006000  0.11417000  1.0
  Ni  Ni3  1  0.24497000  0.46425000  0.12653000  1.0
  Ni  Ni4  1  0.24502000  0.03574000  0.12652000  1.0
  Ni  Ni5  1  0.24688000  0.24994000  0.03974000  1.0
  Ni  Ni6  1  0.25000000  0.00000000  0.95997000  1.0
  Ni  Ni7  1  0.25000000  0.25000000  0.87990000  1.0
  Ni  Ni8  1  0.25000000  0.50000000  0.95997000  1.0
  Ni  Ni9  1  0.25000000  0.75000000  0.87990000  1.0
  Ni  Ni10  1  0.27217000  0.75013000  0.03863000  1.0
  Ni  Ni11  1  0.49443000  0.49451000  0.04121000  1.0
  Ni  Ni12  1  0.49446000  0.00554000  0.04123000  1.0
  Ni  Ni13  1  0.50000000  0.00000000  0.87990000  1.0
  Ni  Ni14  1  0.50000000  0.50000000  0.87990000  1.0
  Ni  Ni15  1  0.72345000  0.75008000  0.04571000  1.0
  Ni  Ni16  1  0.74731000  0.97650000  0.11706000  1.0
  Ni  Ni17  1  0.74739000  0.52347000  0.11706000  1.0
  Ni  Ni18  1  0.75000000  0.00000000  0.95997000  1.0
  Ni  Ni19  1  0.75000000  0.25000000  0.87990000  1.0
  Ni  Ni20  1  0.75000000  0.50000000  0.95997000  1.0
  Ni  Ni21  1  0.75000000  0.75000000  0.87990000  1.0
  Ni  Ni22  1  0.75630000  0.24989000  0.03320000  1.0
  Ni  Ni23  1  0.96439000  0.24984000  0.11512000  1.0
  Sb  Sb24  1  0.00000000  0.00000000  0.87990000  1.0
  Sb  Sb25  1  0.00000000  0.50000000  0.87990000  1.0
  Sb  Sb26  1  0.00569000  0.99200000  0.04114000  1.0
  Sb  Sb27  1  0.00570000  0.50803000  0.04113000  1.0
  Sb  Sb28  1  0.46052000  0.74998000  0.13061000  1.0
  Sb  Sb29  1  0.50000000  0.25000000  0.95997000  1.0
  Sb  Sb30  1  0.50000000  0.75000000  0.95997000  1.0
  Sb  Sb31  1  0.55349000  0.25000000  0.11845000  1.0
  C  C32  1  0.21332000  0.25002000  0.15105000  1.0
