data_image0
_chemical_formula_structural       Li8Al16Rh8CO
_chemical_formula_sum              "Li8 Al16 Rh8 C1 O1"
_cell_length_a       6.03986
_cell_length_b       8.54165
_cell_length_c       26.4062
_cell_angle_alpha    90
_cell_angle_beta     90
_cell_angle_gamma    90

_space_group_name_H-M_alt    "P 1"
_space_group_IT_number       1

loop_
  _space_group_symop_operation_xyz
  'x, y, z'

loop_
  _atom_site_type_symbol
  _atom_site_label
  _atom_site_symmetry_multiplicity
  _atom_site_fract_x
  _atom_site_fract_y
  _atom_site_fract_z
  _atom_site_occupancy
  Li  Li1       1.0  0.00000  0.00000  0.87870  1.0000
  Li  Li2       1.0  0.50000  0.25000  0.95957  1.0000
  Li  Li3       1.0  0.50000  0.75000  0.95957  1.0000
  Li  Li4       1.0  0.00000  0.50000  0.87870  1.0000
  Li  Li5       1.0  0.00374  0.49999  0.03807  1.0000
  Li  Li6       1.0  0.50283  0.74983  0.13821  1.0000
  Li  Li7       1.0  0.50281  0.25016  0.13821  1.0000
  Li  Li8       1.0  0.00313  0.00001  0.03612  1.0000
  Al  Al1       1.0  0.25000  0.00000  0.95957  1.0000
  Al  Al2       1.0  0.75000  0.50000  0.95957  1.0000
  Al  Al3       1.0  0.75000  0.00000  0.95957  1.0000
  Al  Al4       1.0  0.25000  0.50000  0.95957  1.0000
  Al  Al5       1.0  0.75000  0.75000  0.87870  1.0000
  Al  Al6       1.0  0.25000  0.25000  0.87870  1.0000
  Al  Al7       1.0  0.25000  0.75000  0.87870  1.0000
  Al  Al8       1.0  0.75000  0.25000  0.87870  1.0000
  Al  Al9       1.0  0.23782  0.49999  0.11971  1.0000
  Al  Al10      1.0  0.77236  1.00000  0.11646  1.0000
  Al  Al11      1.0  0.76484  0.49999  0.11870  1.0000
  Al  Al12      1.0  0.23444  1.00000  0.11841  1.0000
  Al  Al13      1.0  0.74700  0.25052  0.04181  1.0000
  Al  Al14      1.0  0.25695  0.75061  0.04235  1.0000
  Al  Al15      1.0  0.25698  0.24939  0.04234  1.0000
  Al  Al16      1.0  0.74703  0.74947  0.04182  1.0000
  Rh  Rh1       1.0  0.00000  0.75000  0.95957  1.0000
  Rh  Rh2       1.0  0.50000  0.00000  0.87870  1.0000
  Rh  Rh3       1.0  0.00000  0.25000  0.95957  1.0000
  Rh  Rh4       1.0  0.50000  0.50000  0.87870  1.0000
  Rh  Rh5       1.0  0.99991  0.25275  0.11619  1.0000
  Rh  Rh6       1.0  0.49719  0.50000  0.03919  1.0000
  Rh  Rh7       1.0  0.99990  0.74723  0.11620  1.0000
  Rh  Rh8       1.0  0.49899  0.99998  0.04092  1.0000
  C   C1        1.0  0.34646  0.00001  0.18960  1.0000
  O   O1        1.0  0.36561  0.00001  0.23353  1.0000
