# generated using pymatgen
data_Li8Al16Rh8CO
_symmetry_space_group_name_H-M   'P 1'
_cell_length_a   8.54165000
_cell_length_b   6.03986000
_cell_length_c   26.40620000
_cell_angle_alpha   90.00000000
_cell_angle_beta   90.00000000
_cell_angle_gamma   90.00000000
_symmetry_Int_Tables_number   1
_chemical_formula_structural   Li8Al16Rh8CO
_chemical_formula_sum   'Li8 Al16 Rh8 C1 O1'
_cell_volume   1362.30563276
_cell_formula_units_Z   1
loop_
 _symmetry_equiv_pos_site_id
 _symmetry_equiv_pos_as_xyz
  1  'x, y, z'
loop_
 _atom_site_type_symbol
 _atom_site_label
 _atom_site_symmetry_multiplicity
 _atom_site_fract_x
 _atom_site_fract_y
 _atom_site_fract_z
 _atom_site_occupancy
  Li  Li0  1  0.00000000  0.00000000  0.12130000  1.0
  Li  Li1  1  0.24999000  0.50000000  0.04043000  1.0
  Li  Li2  1  0.75001000  0.50000000  0.04043000  1.0
  Li  Li3  1  0.50000000  1.00000000  0.12130000  1.0
  Li  Li4  1  0.50000000  0.00374000  0.96193000  1.0
  Li  Li5  1  0.74982000  0.50283000  0.86179000  1.0
  Li  Li6  1  0.25018000  0.50283000  0.86179000  1.0
  Li  Li7  1  0.00000000  0.00313000  0.96388000  1.0
  Al  Al8  1  0.00000000  0.25000000  0.04043000  1.0
  Al  Al9  1  0.50000000  0.75000000  0.04043000  1.0
  Al  Al10  1  0.00000000  0.75000000  0.04043000  1.0
  Al  Al11  1  0.50000000  0.25000000  0.04043000  1.0
  Al  Al12  1  0.74999000  0.75000000  0.12130000  1.0
  Al  Al13  1  0.24999000  0.25000000  0.12130000  1.0
  Al  Al14  1  0.75001000  0.25000000  0.12130000  1.0
  Al  Al15  1  0.25001000  0.75000000  0.12130000  1.0
  Al  Al16  1  0.50000000  0.23782000  0.88029000  1.0
  Al  Al17  1  0.00000000  0.77236000  0.88354000  1.0
  Al  Al18  1  0.50000000  0.76484000  0.88130000  1.0
  Al  Al19  1  0.00000000  0.23444000  0.88159000  1.0
  Al  Al20  1  0.25051000  0.74700000  0.95819000  1.0
  Al  Al21  1  0.75060000  0.25695000  0.95765000  1.0
  Al  Al22  1  0.24940000  0.25695000  0.95765000  1.0
  Al  Al23  1  0.74949000  0.74700000  0.95819000  1.0
  Rh  Rh24  1  0.74999000  1.00000000  0.04043000  1.0
  Rh  Rh25  1  0.00000000  0.50000000  0.12130000  1.0
  Rh  Rh26  1  0.25001000  1.00000000  0.04043000  1.0
  Rh  Rh27  1  0.50000000  0.50000000  0.12130000  1.0
  Rh  Rh28  1  0.25274000  0.99991000  0.88381000  1.0
  Rh  Rh29  1  0.50000000  0.49719000  0.96081000  1.0
  Rh  Rh30  1  0.74726000  0.99991000  0.88381000  1.0
  Rh  Rh31  1  0.00000000  0.49899000  0.95908000  1.0
  C  C32  1  0.00000000  0.34646000  0.81040000  1.0
  O  O33  1  0.00000000  0.36561000  0.76647000  1.0
