# generated using pymatgen
data_Li8Al16Rh8CO
_symmetry_space_group_name_H-M   Pm
_cell_length_a   6.03986000
_cell_length_b   8.54165000
_cell_length_c   26.40620000
_cell_angle_alpha   90.00000000
_cell_angle_beta   90.00000000
_cell_angle_gamma   90.00000000
_symmetry_Int_Tables_number   6
_chemical_formula_structural   Li8Al16Rh8CO
_chemical_formula_sum   'Li8 Al16 Rh8 C1 O1'
_cell_volume   1362.30563276
_cell_formula_units_Z   1
loop_
 _symmetry_equiv_pos_site_id
 _symmetry_equiv_pos_as_xyz
  1  'x, y, z'
  2  'x, -y, z'
loop_
 _atom_site_type_symbol
 _atom_site_label
 _atom_site_symmetry_multiplicity
 _atom_site_fract_x
 _atom_site_fract_y
 _atom_site_fract_z
 _atom_site_occupancy
  Li  Li0  2  0.50000000  0.24999000  0.95957000  1.0
  Li  Li1  2  0.50283000  0.25018000  0.13821000  1.0
  Li  Li2  1  -0.00000000  0.50000000  0.87870000  1.0
  Li  Li3  1  0.00000000  0.00000000  0.87870000  1.0
  Li  Li4  1  0.00313000  0.00000000  0.03612000  1.0
  Li  Li5  1  0.00374000  0.50000000  0.03807000  1.0
  Al  Al6  2  0.25000000  0.24999000  0.87870000  1.0
  Al  Al7  2  0.25695000  0.24940000  0.04235000  1.0
  Al  Al8  2  0.74700000  0.25051000  0.04181000  1.0
  Al  Al9  2  0.75000000  0.25001000  0.87870000  1.0
  Al  Al10  1  0.23444000  0.00000000  0.11841000  1.0
  Al  Al11  1  0.23782000  0.50000000  0.11971000  1.0
  Al  Al12  1  0.25000000  0.00000000  0.95957000  1.0
  Al  Al13  1  0.25000000  0.50000000  0.95957000  1.0
  Al  Al14  1  0.75000000  0.00000000  0.95957000  1.0
  Al  Al15  1  0.75000000  0.50000000  0.95957000  1.0
  Al  Al16  1  0.76484000  0.50000000  0.11870000  1.0
  Al  Al17  1  0.77236000  0.00000000  0.11646000  1.0
  Rh  Rh18  2  -0.00000000  0.25001000  0.95957000  1.0
  Rh  Rh19  2  0.99991000  0.25274000  0.11619000  1.0
  Rh  Rh20  1  0.49719000  0.50000000  0.03919000  1.0
  Rh  Rh21  1  0.49899000  0.00000000  0.04092000  1.0
  Rh  Rh22  1  0.50000000  0.00000000  0.87870000  1.0
  Rh  Rh23  1  0.50000000  0.50000000  0.87870000  1.0
  C  C24  1  0.34646000  0.00000000  0.18960000  1.0
  O  O25  1  0.36561000  0.00000000  0.23353000  1.0
