# generated using pymatgen
data_Li8In8Ag16CO
_symmetry_space_group_name_H-M   'P 1'
_cell_length_a   9.53179000
_cell_length_b   6.74000000
_cell_length_c   27.14880000
_cell_angle_alpha   90.00000000
_cell_angle_beta   90.00000000
_cell_angle_gamma   90.00000000
_symmetry_Int_Tables_number   1
_chemical_formula_structural   Li8In8Ag16CO
_chemical_formula_sum   'Li8 In8 Ag16 C1 O1'
_cell_volume   1744.15469077
_cell_formula_units_Z   1
loop_
 _symmetry_equiv_pos_site_id
 _symmetry_equiv_pos_as_xyz
  1  'x, y, z'
loop_
 _atom_site_type_symbol
 _atom_site_label
 _atom_site_symmetry_multiplicity
 _atom_site_fract_x
 _atom_site_fract_y
 _atom_site_fract_z
 _atom_site_occupancy
  Li  Li0  1  0.00000000  0.00000000  0.13166000  1.0
  Li  Li1  1  0.25000000  0.50000000  0.04389000  1.0
  Li  Li2  1  0.75000000  0.50000000  0.04389000  1.0
  Li  Li3  1  0.50000000  0.00000000  0.13166000  1.0
  Li  Li4  1  0.50000000  0.99581000  0.96123000  1.0
  Li  Li5  1  0.74894000  0.50062000  0.87185000  1.0
  Li  Li6  1  0.25106000  0.50062000  0.87185000  1.0
  Li  Li7  1  0.00000000  0.00566000  0.96123000  1.0
  In  In8  1  0.75000000  0.00000000  0.04389000  1.0
  In  In9  1  0.00000000  0.50000000  0.13166000  1.0
  In  In10  1  0.25000000  0.00000000  0.04389000  1.0
  In  In11  1  0.50000000  0.50000000  0.13166000  1.0
  In  In12  1  0.25365000  0.99075000  0.85316000  1.0
  In  In13  1  0.50000000  0.49671000  0.95769000  1.0
  In  In14  1  0.74635000  0.99075000  0.85316000  1.0
  In  In15  1  0.00000000  0.49462000  0.95658000  1.0
  Ag  Ag16  1  0.00000000  0.25000000  0.04389000  1.0
  Ag  Ag17  1  0.50000000  0.75000000  0.04389000  1.0
  Ag  Ag18  1  0.00000000  0.75000000  0.04389000  1.0
  Ag  Ag19  1  0.50000000  0.25000000  0.04389000  1.0
  Ag  Ag20  1  0.75000000  0.75000000  0.13166000  1.0
  Ag  Ag21  1  0.25000000  0.25000000  0.13166000  1.0
  Ag  Ag22  1  0.75000000  0.25000000  0.13166000  1.0
  Ag  Ag23  1  0.25000000  0.75000000  0.13166000  1.0
  Ag  Ag24  1  0.50000000  0.22666000  0.87537000  1.0
  Ag  Ag25  1  0.00000000  0.77592000  0.87696000  1.0
  Ag  Ag26  1  0.50000000  0.76137000  0.87520000  1.0
  Ag  Ag27  1  0.00000000  0.22556000  0.87236000  1.0
  Ag  Ag28  1  0.24911000  0.75932000  0.95321000  1.0
  Ag  Ag29  1  0.75039000  0.23323000  0.95096000  1.0
  Ag  Ag30  1  0.24961000  0.23323000  0.95096000  1.0
  Ag  Ag31  1  0.75089000  0.75932000  0.95321000  1.0
  C  C32  1  0.00000000  0.32051000  0.78177000  1.0
  O  O33  1  0.00000000  0.24659000  0.74388000  1.0
