# generated using pymatgen
data_Ni3Ge
_symmetry_space_group_name_H-M   Pm
_cell_length_a   7.20976000
_cell_length_b   5.09807000
_cell_length_c   23.82360000
_cell_angle_alpha   90.00000000
_cell_angle_beta   90.00000000
_cell_angle_gamma   90.00000000
_symmetry_Int_Tables_number   6
_chemical_formula_structural   Ni3Ge
_chemical_formula_sum   'Ni12 Ge4'
_cell_volume   875.65693401
_cell_formula_units_Z   4
loop_
 _symmetry_equiv_pos_site_id
 _symmetry_equiv_pos_as_xyz
  1  'x, y, z'
  2  'x, -y, z'
loop_
 _atom_site_type_symbol
 _atom_site_label
 _atom_site_symmetry_multiplicity
 _atom_site_fract_x
 _atom_site_fract_y
 _atom_site_fract_z
 _atom_site_occupancy
  Ni  Ni0  2  0.25000000  0.24999000  0.91975000  1.0
  Ni  Ni1  2  0.25002000  0.24721000  0.02872000  1.0
  Ni  Ni2  2  0.74998000  0.24714000  0.02871000  1.0
  Ni  Ni3  2  0.75000000  0.24999000  0.91975000  1.0
  Ni  Ni4  1  0.00000000  0.00000000  0.97325000  1.0
  Ni  Ni5  1  0.49996000  0.50000000  0.07656000  1.0
  Ni  Ni6  1  0.50000000  0.00000000  0.97325000  1.0
  Ni  Ni7  1  0.99992000  0.50000000  0.07661000  1.0
  Ge  Ge8  1  0.00000000  0.50000000  0.97325000  1.0
  Ge  Ge9  1  0.00013000  0.00000000  0.07861000  1.0
  Ge  Ge10  1  0.49989000  0.00000000  0.07863000  1.0
  Ge  Ge11  1  0.50000000  0.50000000  0.97325000  1.0
