# generated using pymatgen
data_Li4In4Ge4Au4CO
_symmetry_space_group_name_H-M   Pm
_cell_length_a   6.00109000
_cell_length_b   8.46544000
_cell_length_c   24.49980000
_cell_angle_alpha   90.00000000
_cell_angle_beta   90.00000000
_cell_angle_gamma   90.00000000
_symmetry_Int_Tables_number   6
_chemical_formula_structural   Li4In4Ge4Au4CO
_chemical_formula_sum   'Li4 In4 Ge4 Au4 C1 O1'
_cell_volume   1244.63558920
_cell_formula_units_Z   1
loop_
 _symmetry_equiv_pos_site_id
 _symmetry_equiv_pos_as_xyz
  1  'x, y, z'
  2  'x, -y, z'
loop_
 _atom_site_type_symbol
 _atom_site_label
 _atom_site_symmetry_multiplicity
 _atom_site_fract_x
 _atom_site_fract_y
 _atom_site_fract_z
 _atom_site_occupancy
  Li  Li0  1  0.24460000  0.00000000  0.96939000  1.0
  Li  Li1  1  0.24460000  0.50000000  0.96939000  1.0
  Li  Li2  1  0.75420000  0.50000000  0.09025000  1.0
  Li  Li3  1  0.75619000  0.00000000  0.09408000  1.0
  In  In4  2  0.01297000  0.25093000  0.03870000  1.0
  In  In5  2  0.50000000  0.25001000  0.90817000  1.0
  Ge  Ge6  1  0.29721000  0.50000000  0.08708000  1.0
  Ge  Ge7  1  0.29922000  0.00000000  0.08476000  1.0
  Ge  Ge8  1  0.74460000  0.00000000  0.96939000  1.0
  Ge  Ge9  1  0.74460000  0.50000000  0.96939000  1.0
  Au  Au10  2  0.00000000  0.25001000  0.90817000  1.0
  Au  Au11  2  0.51986000  0.25120000  0.03684000  1.0
  C  C12  1  0.75067000  0.00000000  0.18030000  1.0
  O  O13  1  0.73261000  0.00000000  0.22658000  1.0
