# generated using pymatgen
data_ZrAlNi2
_symmetry_space_group_name_H-M   'P 1'
_cell_length_a   4.34780500
_cell_length_b   6.14873000
_cell_length_c   26.52170000
_cell_angle_alpha   90.00000000
_cell_angle_beta   90.00000000
_cell_angle_gamma   90.00000000
_symmetry_Int_Tables_number   1
_chemical_formula_structural   ZrAlNi2
_chemical_formula_sum   'Zr4 Al4 Ni8'
_cell_volume   709.01731099
_cell_formula_units_Z   4
loop_
 _symmetry_equiv_pos_site_id
 _symmetry_equiv_pos_as_xyz
  1  'x, y, z'
loop_
 _atom_site_type_symbol
 _atom_site_label
 _atom_site_symmetry_multiplicity
 _atom_site_fract_x
 _atom_site_fract_y
 _atom_site_fract_z
 _atom_site_occupancy
  Zr  Zr0  1  0.00000000  0.00000000  0.12295000  1.0
  Zr  Zr1  1  0.50000000  0.50000000  0.04098000  1.0
  Zr  Zr2  1  0.00000000  0.00000000  0.96066000  1.0
  Zr  Zr3  1  0.50000000  0.50000000  0.87264000  1.0
  Al  Al4  1  0.50000000  0.00000000  0.04098000  1.0
  Al  Al5  1  0.00000000  0.50000000  0.12295000  1.0
  Al  Al6  1  0.50000000  0.00000000  0.88038000  1.0
  Al  Al7  1  0.00000000  0.50000000  0.95695000  1.0
  Ni  Ni8  1  0.00000000  0.75000000  0.04098000  1.0
  Ni  Ni9  1  0.00000000  0.25000000  0.04098000  1.0
  Ni  Ni10  1  0.50000000  0.25000000  0.12295000  1.0
  Ni  Ni11  1  0.50000000  0.75000000  0.12295000  1.0
  Ni  Ni12  1  0.00000000  0.76406000  0.88244000  1.0
  Ni  Ni13  1  0.00000000  0.23594000  0.88244000  1.0
  Ni  Ni14  1  0.50000000  0.27046000  0.95564000  1.0
  Ni  Ni15  1  0.50000000  0.72954000  0.95564000  1.0
