# generated using pymatgen
data_V16Ru16CO
_symmetry_space_group_name_H-M   'P 1'
_cell_length_a   8.53670000
_cell_length_b   6.03636000
_cell_length_c   26.40250000
_cell_angle_alpha   90.00000000
_cell_angle_beta   90.00000000
_cell_angle_gamma   90.00000000
_symmetry_Int_Tables_number   1
_chemical_formula_structural   V16Ru16CO
_chemical_formula_sum   'V16 Ru16 C1 O1'
_cell_volume   1360.53651896
_cell_formula_units_Z   1
loop_
 _symmetry_equiv_pos_site_id
 _symmetry_equiv_pos_as_xyz
  1  'x, y, z'
loop_
 _atom_site_type_symbol
 _atom_site_label
 _atom_site_symmetry_multiplicity
 _atom_site_fract_x
 _atom_site_fract_y
 _atom_site_fract_z
 _atom_site_occupancy
  V  V0  1  0.25000000  0.25000000  0.12125000  1.0
  V  V1  1  0.00000000  0.25000000  0.04042000  1.0
  V  V2  1  0.24743000  0.25005000  0.95755000  1.0
  V  V3  1  0.00000000  0.24978000  0.87382000  1.0
  V  V4  1  0.75000000  0.25000000  0.12125000  1.0
  V  V5  1  0.50000000  0.25000000  0.04042000  1.0
  V  V6  1  0.75257000  0.25005000  0.95755000  1.0
  V  V7  1  0.50000000  0.25004000  0.87503000  1.0
  V  V8  1  0.25000000  0.75000000  0.12125000  1.0
  V  V9  1  0.00000000  0.75000000  0.04042000  1.0
  V  V10  1  0.25087000  0.75002000  0.95725000  1.0
  V  V11  1  0.00000000  0.74978000  0.87769000  1.0
  V  V12  1  0.75000000  0.75000000  0.12125000  1.0
  V  V13  1  0.50000000  0.75000000  0.04042000  1.0
  V  V14  1  0.74913000  0.75002000  0.95725000  1.0
  V  V15  1  0.50000000  0.74995000  0.87498000  1.0
  Ru  Ru16  1  0.00000000  0.00000000  0.12125000  1.0
  Ru  Ru17  1  0.25000000  0.00000000  0.04042000  1.0
  Ru  Ru18  1  0.00000000  0.99909000  0.95929000  1.0
  Ru  Ru19  1  0.25325000  0.00155000  0.88364000  1.0
  Ru  Ru20  1  0.50000000  0.00000000  0.12125000  1.0
  Ru  Ru21  1  0.75000000  0.00000000  0.04042000  1.0
  Ru  Ru22  1  0.50000000  0.00058000  0.95810000  1.0
  Ru  Ru23  1  0.74675000  0.00155000  0.88364000  1.0
  Ru  Ru24  1  0.00000000  0.50000000  0.12125000  1.0
  Ru  Ru25  1  0.25000000  0.50000000  0.04042000  1.0
  Ru  Ru26  1  0.00000000  0.50100000  0.95930000  1.0
  Ru  Ru27  1  0.25315000  0.49876000  0.88365000  1.0
  Ru  Ru28  1  0.50000000  0.50000000  0.12125000  1.0
  Ru  Ru29  1  0.75000000  0.50000000  0.04042000  1.0
  Ru  Ru30  1  0.50000000  0.49955000  0.95810000  1.0
  Ru  Ru31  1  0.74685000  0.49876000  0.88365000  1.0
  C  C32  1  0.00000000  0.24877000  0.79850000  1.0
  O  O33  1  0.00000000  0.24881000  0.75470000  1.0
