# generated using pymatgen
data_V16Ru16CO
_symmetry_space_group_name_H-M   Pm
_cell_length_a   6.03636000
_cell_length_b   8.53670000
_cell_length_c   26.40250000
_cell_angle_alpha   90.00000000
_cell_angle_beta   90.00000000
_cell_angle_gamma   90.00000000
_symmetry_Int_Tables_number   6
_chemical_formula_structural   V16Ru16CO
_chemical_formula_sum   'V16 Ru16 C1 O1'
_cell_volume   1360.53651896
_cell_formula_units_Z   1
loop_
 _symmetry_equiv_pos_site_id
 _symmetry_equiv_pos_as_xyz
  1  'x, y, z'
  2  'x, -y, z'
loop_
 _atom_site_type_symbol
 _atom_site_label
 _atom_site_symmetry_multiplicity
 _atom_site_fract_x
 _atom_site_fract_y
 _atom_site_fract_z
 _atom_site_occupancy
  V  V0  2  0.25000000  0.25000000  0.87875000  1.0
  V  V1  2  0.25005000  0.24743000  0.04245000  1.0
  V  V2  2  0.75000000  0.25000000  0.87875000  1.0
  V  V3  2  0.75002000  0.25087000  0.04275000  1.0
  V  V4  1  0.24978000  0.00000000  0.12618000  1.0
  V  V5  1  0.25000000  0.00000000  0.95958000  1.0
  V  V6  1  0.25000000  0.50000000  0.95958000  1.0
  V  V7  1  0.25004000  0.50000000  0.12497000  1.0
  V  V8  1  0.74978000  0.00000000  0.12231000  1.0
  V  V9  1  0.74995000  0.50000000  0.12502000  1.0
  V  V10  1  0.75000000  0.00000000  0.95958000  1.0
  V  V11  1  0.75000000  0.50000000  0.95958000  1.0
  Ru  Ru12  2  0.00000000  0.25000000  0.95958000  1.0
  Ru  Ru13  2  0.00155000  0.25325000  0.11636000  1.0
  Ru  Ru14  2  0.49876000  0.25315000  0.11635000  1.0
  Ru  Ru15  2  0.50000000  0.25000000  0.95958000  1.0
  Ru  Ru16  1  0.00000000  0.00000000  0.87875000  1.0
  Ru  Ru17  1  0.00000000  0.50000000  0.87875000  1.0
  Ru  Ru18  1  0.00058000  0.50000000  0.04190000  1.0
  Ru  Ru19  1  0.49955000  0.50000000  0.04190000  1.0
  Ru  Ru20  1  0.50000000  0.00000000  0.87875000  1.0
  Ru  Ru21  1  0.50000000  0.50000000  0.87875000  1.0
  Ru  Ru22  1  0.50100000  0.00000000  0.04070000  1.0
  Ru  Ru23  1  0.99909000  0.00000000  0.04071000  1.0
  C  C24  1  0.24877000  0.00000000  0.20150000  1.0
  O  O25  1  0.24881000  0.00000000  0.24530000  1.0
