data_image0
_chemical_formula_structural       Hf8Ga8Ni16CO
_chemical_formula_sum              "Hf8 Ga8 Ni16 C1 O1"
_cell_length_a       6.09904
_cell_length_b       8.62534
_cell_length_c       26.469
_cell_angle_alpha    90
_cell_angle_beta     90
_cell_angle_gamma    90

_space_group_name_H-M_alt    "P 1"
_space_group_IT_number       1

loop_
  _space_group_symop_operation_xyz
  'x, y, z'

loop_
  _atom_site_type_symbol
  _atom_site_label
  _atom_site_symmetry_multiplicity
  _atom_site_fract_x
  _atom_site_fract_y
  _atom_site_fract_z
  _atom_site_occupancy
  Hf  Hf1       1.0  0.00000  0.00000  0.87780  1.0000
  Hf  Hf2       1.0  0.50000  0.25000  0.95927  1.0000
  Hf  Hf3       1.0  0.50000  0.75000  0.95927  1.0000
  Hf  Hf4       1.0  0.00000  0.50000  0.87780  1.0000
  Hf  Hf5       1.0  1.00000  0.50262  0.04034  1.0000
  Hf  Hf6       1.0  0.50000  0.74999  0.12610  1.0000
  Hf  Hf7       1.0  0.50000  0.25001  0.12478  1.0000
  Hf  Hf8       1.0  0.00000  0.99738  0.04034  1.0000
  Ga  Ga1       1.0  0.00000  0.75000  0.95927  1.0000
  Ga  Ga2       1.0  0.50000  0.00000  0.87780  1.0000
  Ga  Ga3       1.0  0.00000  0.25000  0.95927  1.0000
  Ga  Ga4       1.0  0.50000  0.50000  0.87780  1.0000
  Ga  Ga5       1.0  1.00000  0.24998  0.12132  1.0000
  Ga  Ga6       1.0  0.50000  0.49817  0.04213  1.0000
  Ga  Ga7       1.0  0.00000  0.75002  0.12217  1.0000
  Ga  Ga8       1.0  0.50000  0.00183  0.04213  1.0000
  Ni  Ni1       1.0  0.25000  0.00000  0.95927  1.0000
  Ni  Ni2       1.0  0.75000  0.50000  0.95927  1.0000
  Ni  Ni3       1.0  0.75000  0.00000  0.95927  1.0000
  Ni  Ni4       1.0  0.25000  0.50000  0.95927  1.0000
  Ni  Ni5       1.0  0.75000  0.75000  0.87780  1.0000
  Ni  Ni6       1.0  0.25000  0.25000  0.87780  1.0000
  Ni  Ni7       1.0  0.25000  0.75000  0.87780  1.0000
  Ni  Ni8       1.0  0.75000  0.25000  0.87780  1.0000
  Ni  Ni9       1.0  0.24055  0.50122  0.11887  1.0000
  Ni  Ni10      1.0  0.75941  0.99878  0.11887  1.0000
  Ni  Ni11      1.0  0.75945  0.50122  0.11887  1.0000
  Ni  Ni12      1.0  0.24059  0.99879  0.11887  1.0000
  Ni  Ni13      1.0  0.74369  0.25000  0.04098  1.0000
  Ni  Ni14      1.0  0.27035  0.75000  0.04407  1.0000
  Ni  Ni15      1.0  0.25630  0.25000  0.04098  1.0000
  Ni  Ni16      1.0  0.72965  0.75000  0.04407  1.0000
  C   C1        1.0  0.50000  0.25000  0.21098  1.0000
  O   O1        1.0  0.50000  0.25000  0.25437  1.0000
