# generated using pymatgen
data_Hf8Ga8Ni16CO
_symmetry_space_group_name_H-M   Pmm2
_cell_length_a   6.09904000
_cell_length_b   8.62534000
_cell_length_c   26.46900000
_cell_angle_alpha   90.00000000
_cell_angle_beta   90.00000000
_cell_angle_gamma   90.00000000
_symmetry_Int_Tables_number   25
_chemical_formula_structural   Hf8Ga8Ni16CO
_chemical_formula_sum   'Hf8 Ga8 Ni16 C1 O1'
_cell_volume   1392.43598725
_cell_formula_units_Z   1
loop_
 _symmetry_equiv_pos_site_id
 _symmetry_equiv_pos_as_xyz
  1  'x, y, z'
  2  '-x, -y, z'
  3  '-x, y, z'
  4  'x, -y, z'
loop_
 _atom_site_type_symbol
 _atom_site_label
 _atom_site_symmetry_multiplicity
 _atom_site_fract_x
 _atom_site_fract_y
 _atom_site_fract_z
 _atom_site_occupancy
  Hf  Hf0  2  0.00000000  0.25000000  0.87780000  1.0
  Hf  Hf1  2  0.00000000  0.25262000  0.04034000  1.0
  Hf  Hf2  1  0.50000000  0.00000000  0.12478000  1.0
  Hf  Hf3  1  0.50000000  0.00000000  0.95927000  1.0
  Hf  Hf4  1  0.50000000  0.50000000  0.12610000  1.0
  Hf  Hf5  1  0.50000000  0.50000000  0.95927000  1.0
  Ga  Ga6  2  0.50000000  0.24817000  0.04213000  1.0
  Ga  Ga7  2  0.50000000  0.25000000  0.87780000  1.0
  Ga  Ga8  1  0.00000000  0.00000000  0.12132000  1.0
  Ga  Ga9  1  0.00000000  0.00000000  0.95927000  1.0
  Ga  Ga10  1  0.00000000  0.50000000  0.12217000  1.0
  Ga  Ga11  1  0.00000000  0.50000000  0.95927000  1.0
  Ni  Ni12  4  0.24055000  0.25122000  0.11887000  1.0
  Ni  Ni13  4  0.25000000  0.25000000  0.95927000  1.0
  Ni  Ni14  2  0.25000000  0.00000000  0.87780000  1.0
  Ni  Ni15  2  0.25000000  0.50000000  0.87780000  1.0
  Ni  Ni16  2  0.25631000  0.00000000  0.04098000  1.0
  Ni  Ni17  2  0.27035000  0.50000000  0.04407000  1.0
  C  C18  1  0.50000000  0.00000000  0.21098000  1.0
  O  O19  1  0.50000000  0.00000000  0.25437000  1.0
