data_image0
_chemical_formula_structural       V4Ga4Fe8C
_chemical_formula_sum              "V4 Ga4 Fe8 C1"
_cell_length_a       5.73361
_cell_length_b       5.73361
_cell_length_c       24.3002
_cell_angle_alpha    90
_cell_angle_beta     90
_cell_angle_gamma    90

_space_group_name_H-M_alt    "P 1"
_space_group_IT_number       1

loop_
  _space_group_symop_operation_xyz
  'x, y, z'

loop_
  _atom_site_type_symbol
  _atom_site_label
  _atom_site_symmetry_multiplicity
  _atom_site_fract_x
  _atom_site_fract_y
  _atom_site_fract_z
  _atom_site_occupancy
  V   V1        1.0  0.00000  0.00000  0.91152  1.0000
  V   V2        1.0  0.50000  0.50000  0.91152  1.0000
  V   V3        1.0  0.50000  0.00000  0.02887  1.0000
  V   V4        1.0  0.00000  0.50002  0.02987  1.0000
  Ga  Ga1       1.0  1.00000  0.99998  0.02952  1.0000
  Ga  Ga2       1.0  0.50000  0.00000  0.91152  1.0000
  Ga  Ga3       1.0  0.00000  0.50000  0.91152  1.0000
  Ga  Ga4       1.0  0.50000  0.50002  0.02953  1.0000
  Fe  Fe1       1.0  0.25000  0.25000  0.97051  1.0000
  Fe  Fe2       1.0  0.75266  0.74734  0.09087  1.0000
  Fe  Fe3       1.0  0.75000  0.25000  0.97051  1.0000
  Fe  Fe4       1.0  0.24733  0.74734  0.09087  1.0000
  Fe  Fe5       1.0  0.75000  0.75000  0.97051  1.0000
  Fe  Fe6       1.0  0.24735  0.25265  0.09087  1.0000
  Fe  Fe7       1.0  0.25000  0.75000  0.97051  1.0000
  Fe  Fe8       1.0  0.75265  0.25265  0.09087  1.0000
  C   C1        1.0  1.00000  0.50000  0.11632  1.0000
