# generated using pymatgen
data_Hf4In4Ni8CO
_symmetry_space_group_name_H-M   'P 1'
_cell_length_a   6.30953000
_cell_length_b   6.30953000
_cell_length_c   24.73210000
_cell_angle_alpha   90.00000000
_cell_angle_beta   90.00000000
_cell_angle_gamma   90.00000000
_symmetry_Int_Tables_number   1
_chemical_formula_structural   Hf4In4Ni8CO
_chemical_formula_sum   'Hf4 In4 Ni8 C1 O1'
_cell_volume   984.58907630
_cell_formula_units_Z   1
loop_
 _symmetry_equiv_pos_site_id
 _symmetry_equiv_pos_as_xyz
  1  'x, y, z'
loop_
 _atom_site_type_symbol
 _atom_site_label
 _atom_site_symmetry_multiplicity
 _atom_site_fract_x
 _atom_site_fract_y
 _atom_site_fract_z
 _atom_site_occupancy
  Hf  Hf0  1  0.00013000  0.99983000  0.09183000  1.0
  Hf  Hf1  1  0.49970000  0.50012000  0.09189000  1.0
  Hf  Hf2  1  0.50000000  0.00000000  0.96811000  1.0
  Hf  Hf3  1  0.00000000  0.50000000  0.96811000  1.0
  In  In4  1  0.00000000  0.00000000  0.96811000  1.0
  In  In5  1  0.49992000  0.99999000  0.10476000  1.0
  In  In6  1  0.99972000  0.49994000  0.10241000  1.0
  In  In7  1  0.50000000  0.50000000  0.96811000  1.0
  Ni  Ni8  1  0.25302000  0.24689000  0.03491000  1.0
  Ni  Ni9  1  0.75000000  0.75000000  0.90433000  1.0
  Ni  Ni10  1  0.74679000  0.24671000  0.03495000  1.0
  Ni  Ni11  1  0.25000000  0.75000000  0.90433000  1.0
  Ni  Ni12  1  0.74680000  0.75324000  0.03492000  1.0
  Ni  Ni13  1  0.25000000  0.25000000  0.90433000  1.0
  Ni  Ni14  1  0.25297000  0.75302000  0.03486000  1.0
  Ni  Ni15  1  0.75000000  0.25000000  0.90433000  1.0
  C  C16  1  0.00222000  0.49998000  0.29696000  1.0
  O  O17  1  0.99916000  0.50011000  0.34284000  1.0
