data_image0
_chemical_formula_structural       Mn24Pt8CO
_chemical_formula_sum              "Mn24 Pt8 C1 O1"
_cell_length_a       8.81047
_cell_length_b       8.81047
_cell_length_c       26.6079
_cell_angle_alpha    90
_cell_angle_beta     90
_cell_angle_gamma    90

_space_group_name_H-M_alt    "P 1"
_space_group_IT_number       1

loop_
  _space_group_symop_operation_xyz
  'x, y, z'

loop_
  _atom_site_type_symbol
  _atom_site_label
  _atom_site_symmetry_multiplicity
  _atom_site_fract_x
  _atom_site_fract_y
  _atom_site_fract_z
  _atom_site_occupancy
  Mn  Mn1       1.0  0.00193  0.24269  0.02110  1.0000
  Mn  Mn2       1.0  0.24457  0.99821  0.01934  1.0000
  Mn  Mn3       1.0  0.25267  0.25268  0.08405  1.0000
  Mn  Mn4       1.0  0.00000  0.25000  0.87583  1.0000
  Mn  Mn5       1.0  0.25000  0.00000  0.87583  1.0000
  Mn  Mn6       1.0  0.25000  0.25000  0.95861  1.0000
  Mn  Mn7       1.0  0.00180  0.75543  0.01933  1.0000
  Mn  Mn8       1.0  0.25059  0.50402  0.01590  1.0000
  Mn  Mn9       1.0  0.25176  0.74826  0.08594  1.0000
  Mn  Mn10      1.0  0.00000  0.75000  0.87583  1.0000
  Mn  Mn11      1.0  0.25000  0.50000  0.87583  1.0000
  Mn  Mn12      1.0  0.25000  0.75000  0.95861  1.0000
  Mn  Mn13      1.0  0.49756  0.25058  0.01830  1.0000
  Mn  Mn14      1.0  0.75733  0.99809  0.02111  1.0000
  Mn  Mn15      1.0  0.74688  0.25316  0.08317  1.0000
  Mn  Mn16      1.0  0.50000  0.25000  0.87583  1.0000
  Mn  Mn17      1.0  0.75000  0.00000  0.87583  1.0000
  Mn  Mn18      1.0  0.75000  0.25000  0.95861  1.0000
  Mn  Mn19      1.0  0.49597  0.74942  0.01590  1.0000
  Mn  Mn20      1.0  0.74945  0.50245  0.01830  1.0000
  Mn  Mn21      1.0  0.74732  0.74730  0.08405  1.0000
  Mn  Mn22      1.0  0.50000  0.75000  0.87583  1.0000
  Mn  Mn23      1.0  0.75000  0.50000  0.87583  1.0000
  Mn  Mn24      1.0  0.75000  0.75000  0.95861  1.0000
  Pt  Pt1       1.0  0.00370  0.99630  0.09076  1.0000
  Pt  Pt2       1.0  0.00000  0.00000  0.95861  1.0000
  Pt  Pt3       1.0  0.00346  0.50083  0.07137  1.0000
  Pt  Pt4       1.0  0.00000  0.50000  0.95861  1.0000
  Pt  Pt5       1.0  0.49916  0.99650  0.07137  1.0000
  Pt  Pt6       1.0  0.50000  0.00000  0.95861  1.0000
  Pt  Pt7       1.0  0.49634  0.50369  0.07135  1.0000
  Pt  Pt8       1.0  0.50000  0.50000  0.95861  1.0000
  C   C1        1.0  0.00097  0.99904  0.16655  1.0000
  O   O1        1.0  0.99940  0.00060  0.21033  1.0000
