# generated using pymatgen
data_Mn24Pt8CO
_symmetry_space_group_name_H-M   Cm
_cell_length_a   12.45988616
_cell_length_b   12.45988616
_cell_length_c   26.60790000
_cell_angle_alpha   90.00000000
_cell_angle_beta   90.00000000
_cell_angle_gamma   90.00000000
_symmetry_Int_Tables_number   8
_chemical_formula_structural   Mn24Pt8CO
_chemical_formula_sum   'Mn48 Pt16 C2 O2'
_cell_volume   4130.84356746
_cell_formula_units_Z   2
loop_
 _symmetry_equiv_pos_site_id
 _symmetry_equiv_pos_as_xyz
  1  'x, y, z'
  2  'x, -y, z'
  3  'x+1/2, y+1/2, z'
  4  'x+1/2, -y+1/2, z'
loop_
 _atom_site_type_symbol
 _atom_site_label
 _atom_site_symmetry_multiplicity
 _atom_site_fract_x
 _atom_site_fract_y
 _atom_site_fract_z
 _atom_site_occupancy
  Mn  Mn0  4  0.00000000  0.25267000  0.08405000  1.0
  Mn  Mn1  4  0.00000500  0.24999500  0.95861000  1.0
  Mn  Mn2  4  0.12318500  0.12138500  0.01934000  1.0
  Mn  Mn3  4  0.12349500  0.37406500  0.01830000  1.0
  Mn  Mn4  4  0.12500500  0.37499500  0.87583000  1.0
  Mn  Mn5  4  0.12500500  0.87500500  0.87583000  1.0
  Mn  Mn6  4  0.37329000  0.12270000  0.01590000  1.0
  Mn  Mn7  4  0.37500500  0.12500500  0.87583000  1.0
  Mn  Mn8  4  0.37500500  0.37500500  0.87583000  1.0
  Mn  Mn9  4  0.37962500  0.37769500  0.02110000  1.0
  Mn  Mn10  2  0.24686500  0.50000000  0.08317000  1.0
  Mn  Mn11  2  0.25000500  0.00000000  0.95861000  1.0
  Mn  Mn12  2  0.25000500  0.50000000  0.95861000  1.0
  Mn  Mn13  2  0.25175500  0.00000000  0.08594000  1.0
  Pt  Pt14  4  0.25000500  0.25000500  0.95861000  1.0
  Pt  Pt15  4  0.25132000  0.24786000  0.07137000  1.0
  Pt  Pt16  2  0.00000500  0.00000000  0.95861000  1.0
  Pt  Pt17  2  0.00000500  0.50000000  0.95861000  1.0
  Pt  Pt18  2  0.00370500  0.00000000  0.09076000  1.0
  Pt  Pt19  2  0.49633000  0.00000000  0.07135000  1.0
  C  C20  2  0.00097000  0.00000000  0.16655000  1.0
  O  O21  2  0.49940500  0.50000000  0.21033000  1.0
