# generated using pymatgen
data_Hf8Ga8Ni16CO
_symmetry_space_group_name_H-M   'P 1'
_cell_length_a   6.08368000
_cell_length_b   8.60362000
_cell_length_c   26.45270000
_cell_angle_alpha   90.00000000
_cell_angle_beta   90.00000000
_cell_angle_gamma   90.00000000
_symmetry_Int_Tables_number   1
_chemical_formula_structural   Hf8Ga8Ni16CO
_chemical_formula_sum   'Hf8 Ga8 Ni16 C1 O1'
_cell_volume   1384.57851839
_cell_formula_units_Z   1
loop_
 _symmetry_equiv_pos_site_id
 _symmetry_equiv_pos_as_xyz
  1  'x, y, z'
loop_
 _atom_site_type_symbol
 _atom_site_label
 _atom_site_symmetry_multiplicity
 _atom_site_fract_x
 _atom_site_fract_y
 _atom_site_fract_z
 _atom_site_occupancy
  Hf  Hf0  1  0.00000000  0.74997000  0.87803000  1.0
  Hf  Hf1  1  0.50000000  0.00000000  0.95934000  1.0
  Hf  Hf2  1  0.50000000  0.50000000  0.95934000  1.0
  Hf  Hf3  1  0.00000000  0.25003000  0.87803000  1.0
  Hf  Hf4  1  0.00000000  0.25061000  0.04066000  1.0
  Hf  Hf5  1  0.50000000  0.50000000  0.12498000  1.0
  Hf  Hf6  1  0.50000000  0.00000000  0.12372000  1.0
  Hf  Hf7  1  0.00000000  0.74939000  0.04066000  1.0
  Ga  Ga8  1  0.00000000  0.50000000  0.95934000  1.0
  Ga  Ga9  1  0.50000000  0.74997000  0.87803000  1.0
  Ga  Ga10  1  0.00000000  0.00000000  0.95934000  1.0
  Ga  Ga11  1  0.50000000  0.25003000  0.87803000  1.0
  Ga  Ga12  1  0.00000000  0.00000000  0.12405000  1.0
  Ga  Ga13  1  0.50000000  0.25011000  0.04129000  1.0
  Ga  Ga14  1  0.00000000  0.50000000  0.12298000  1.0
  Ga  Ga15  1  0.50000000  0.74989000  0.04129000  1.0
  Ni  Ni16  1  0.25000000  0.74997000  0.95934000  1.0
  Ni  Ni17  1  0.75000000  0.25003000  0.95934000  1.0
  Ni  Ni18  1  0.75000000  0.74997000  0.95934000  1.0
  Ni  Ni19  1  0.25000000  0.25003000  0.95934000  1.0
  Ni  Ni20  1  0.75000000  0.50000000  0.87803000  1.0
  Ni  Ni21  1  0.25000000  0.00000000  0.87803000  1.0
  Ni  Ni22  1  0.25000000  0.50000000  0.87803000  1.0
  Ni  Ni23  1  0.75000000  0.00000000  0.87803000  1.0
  Ni  Ni24  1  0.24543000  0.25104000  0.11801000  1.0
  Ni  Ni25  1  0.75457000  0.74896000  0.11801000  1.0
  Ni  Ni26  1  0.75457000  0.25104000  0.11801000  1.0
  Ni  Ni27  1  0.24543000  0.74896000  0.11801000  1.0
  Ni  Ni28  1  0.73681000  0.00000000  0.04291000  1.0
  Ni  Ni29  1  0.26490000  0.50000000  0.04296000  1.0
  Ni  Ni30  1  0.26319000  0.00000000  0.04291000  1.0
  Ni  Ni31  1  0.73510000  0.50000000  0.04296000  1.0
  C  C32  1  0.00000000  0.00000000  0.20630000  1.0
  O  O33  1  0.00000000  0.00000000  0.24977000  1.0
