# generated using pymatgen
data_Al16Pd16C
_symmetry_space_group_name_H-M   Pmm2
_cell_length_a   6.18271000
_cell_length_b   8.74368000
_cell_length_c   26.55780000
_cell_angle_alpha   90.00000000
_cell_angle_beta   90.00000000
_cell_angle_gamma   90.00000000
_symmetry_Int_Tables_number   25
_chemical_formula_structural   Al16Pd16C
_chemical_formula_sum   'Al16 Pd16 C1'
_cell_volume   1435.70504804
_cell_formula_units_Z   1
loop_
 _symmetry_equiv_pos_site_id
 _symmetry_equiv_pos_as_xyz
  1  'x, y, z'
  2  '-x, -y, z'
  3  '-x, y, z'
  4  'x, -y, z'
loop_
 _atom_site_type_symbol
 _atom_site_label
 _atom_site_symmetry_multiplicity
 _atom_site_fract_x
 _atom_site_fract_y
 _atom_site_fract_z
 _atom_site_occupancy
  Al  Al0  2  0.00000000  0.23318000  0.13136000  1.0
  Al  Al1  2  0.00000000  0.25000000  0.95885000  1.0
  Al  Al2  2  0.50000000  0.25000000  0.95885000  1.0
  Al  Al3  2  0.50000000  0.26161000  0.12304000  1.0
  Al  Al4  1  0.00000000  0.00000000  0.04251000  1.0
  Al  Al5  1  0.00000000  0.00000000  0.87654000  1.0
  Al  Al6  1  0.00000000  0.50000000  0.04144000  1.0
  Al  Al7  1  0.00000000  0.50000000  0.87654000  1.0
  Al  Al8  1  0.50000000  0.00000000  0.03616000  1.0
  Al  Al9  1  0.50000000  0.00000000  0.87654000  1.0
  Al  Al10  1  0.50000000  0.50000000  0.04242000  1.0
  Al  Al11  1  0.50000000  0.50000000  0.87654000  1.0
  Pd  Pd12  4  0.24451000  0.25364000  0.03997000  1.0
  Pd  Pd13  4  0.25000000  0.25000000  0.87654000  1.0
  Pd  Pd14  2  0.24037000  0.50000000  0.12126000  1.0
  Pd  Pd15  2  0.25000000  0.00000000  0.95885000  1.0
  Pd  Pd16  2  0.25000000  0.50000000  0.95885000  1.0
  Pd  Pd17  2  0.28965000  0.00000000  0.11712000  1.0
  C  C18  1  0.00000000  0.00000000  0.15081000  1.0
