# generated using pymatgen
data_YMg
_symmetry_space_group_name_H-M   Pm
_cell_length_a   10.72040000
_cell_length_b   3.79024500
_cell_length_c   28.04030000
_cell_angle_alpha   90.00000000
_cell_angle_beta   90.00000000
_cell_angle_gamma   90.00000000
_symmetry_Int_Tables_number   6
_chemical_formula_structural   YMg
_chemical_formula_sum   'Y8 Mg8'
_cell_volume   1139.35989753
_cell_formula_units_Z   8
loop_
 _symmetry_equiv_pos_site_id
 _symmetry_equiv_pos_as_xyz
  1  'x, y, z'
  2  'x, -y, z'
loop_
 _atom_site_type_symbol
 _atom_site_label
 _atom_site_symmetry_multiplicity
 _atom_site_fract_x
 _atom_site_fract_y
 _atom_site_fract_z
 _atom_site_occupancy
  Y  Y0  1  0.00000000  0.00000000  0.85663000  1.0
  Y  Y1  1  0.00005000  0.00000000  0.04899000  1.0
  Y  Y2  1  0.25000000  0.00000000  0.95221000  1.0
  Y  Y3  1  0.25010000  0.00000000  0.13787000  1.0
  Y  Y4  1  0.49995000  0.00000000  0.04912500  1.0
  Y  Y5  1  0.50000000  0.00000000  0.85663000  1.0
  Y  Y6  1  0.74996000  0.00000000  0.13781500  1.0
  Y  Y7  1  0.75000000  0.00000000  0.95221000  1.0
  Mg  Mg8  1  0.00000000  0.50000000  0.95221000  1.0
  Mg  Mg9  1  0.24976000  0.50000000  0.04518500  1.0
  Mg  Mg10  1  0.25000000  0.50000000  0.85663000  1.0
  Mg  Mg11  1  0.50000000  0.50000000  0.95221000  1.0
  Mg  Mg12  1  0.50005000  0.50000000  0.14608000  1.0
  Mg  Mg13  1  0.75000000  0.50000000  0.85663000  1.0
  Mg  Mg14  1  0.75022500  0.50000000  0.04518500  1.0
  Mg  Mg15  1  0.99999000  0.50000000  0.14598000  1.0
