# generated using pymatgen
data_Li4Mg4Ag4Sn4C
_symmetry_space_group_name_H-M   P2
_cell_length_a   6.75899000
_cell_length_b   25.06920000
_cell_length_c   6.75899000
_cell_angle_alpha   90.00000000
_cell_angle_beta   90.00000000
_cell_angle_gamma   90.00000000
_symmetry_Int_Tables_number   3
_chemical_formula_structural   Li4Mg4Ag4Sn4C
_chemical_formula_sum   'Li4 Mg4 Ag4 Sn4 C1'
_cell_volume   1145.25997455
_cell_formula_units_Z   1
loop_
 _symmetry_equiv_pos_site_id
 _symmetry_equiv_pos_as_xyz
  1  'x, y, z'
  2  '-x, y, -z'
loop_
 _atom_site_type_symbol
 _atom_site_label
 _atom_site_symmetry_multiplicity
 _atom_site_fract_x
 _atom_site_fract_y
 _atom_site_fract_z
 _atom_site_occupancy
  Li  Li0  2  0.25000000  0.96630000  0.74999000  1.0
  Li  Li1  2  0.28028000  0.10927000  0.21845000  1.0
  Mg  Mg2  2  0.25000000  0.96630000  0.24999000  1.0
  Mg  Mg3  2  0.27877000  0.11081000  0.78008000  1.0
  Ag  Ag4  1  0.00000000  0.03742000  0.50000000  1.0
  Ag  Ag5  1  0.00000000  0.89890000  0.00000000  1.0
  Ag  Ag6  1  0.50000000  0.02547000  0.00000000  1.0
  Ag  Ag7  1  0.50000000  0.89890000  0.50000000  1.0
  Sn  Sn8  1  0.00000000  0.03993000  0.00000000  1.0
  Sn  Sn9  1  0.00000000  0.89890000  0.50000000  1.0
  Sn  Sn10  1  0.50000000  0.04051000  0.50000000  1.0
  Sn  Sn11  1  0.50000000  0.89890000  0.00000000  1.0
  C  C12  1  0.50000000  0.11847000  0.00000000  1.0
