# generated using pymatgen
data_Ga16Ni16CO
_symmetry_space_group_name_H-M   Pm
_cell_length_a   8.24446000
_cell_length_b   5.82971000
_cell_length_c   26.18330000
_cell_angle_alpha   90.00000000
_cell_angle_beta   90.00000000
_cell_angle_gamma   90.00000000
_symmetry_Int_Tables_number   6
_chemical_formula_structural   Ga16Ni16CO
_chemical_formula_sum   'Ga16 Ni16 C1 O1'
_cell_volume   1258.44299681
_cell_formula_units_Z   1
loop_
 _symmetry_equiv_pos_site_id
 _symmetry_equiv_pos_as_xyz
  1  'x, y, z'
  2  'x, -y, z'
loop_
 _atom_site_type_symbol
 _atom_site_label
 _atom_site_symmetry_multiplicity
 _atom_site_fract_x
 _atom_site_fract_y
 _atom_site_fract_z
 _atom_site_occupancy
  Ga  Ga0  1  0.00000000  0.00000000  0.88192000  1.0
  Ga  Ga1  1  0.00000000  0.50000000  0.88192000  1.0
  Ga  Ga2  1  0.00198000  0.50000000  0.04262000  1.0
  Ga  Ga3  1  0.25000000  0.00000000  0.96064000  1.0
  Ga  Ga4  1  0.25000000  0.50000000  0.96064000  1.0
  Ga  Ga5  1  0.25005000  0.50000000  0.12737000  1.0
  Ga  Ga6  1  0.25006000  0.00000000  0.13258000  1.0
  Ga  Ga7  1  0.49802000  0.50000000  0.04265000  1.0
  Ga  Ga8  1  0.50000000  0.00000000  0.88192000  1.0
  Ga  Ga9  1  0.50000000  0.50000000  0.88192000  1.0
  Ga  Ga10  1  0.50775000  0.00000000  0.04103000  1.0
  Ga  Ga11  1  0.74989000  0.50000000  0.12381000  1.0
  Ga  Ga12  1  0.74993000  0.00000000  0.13092000  1.0
  Ga  Ga13  1  0.75000000  0.00000000  0.96064000  1.0
  Ga  Ga14  1  0.75000000  0.50000000  0.96064000  1.0
  Ga  Ga15  1  0.99226000  0.00000000  0.04098000  1.0
  Ni  Ni16  2  0.00000000  0.25000000  0.96064000  1.0
  Ni  Ni17  2  0.25000000  0.24725000  0.04073000  1.0
  Ni  Ni18  2  0.25000000  0.25000000  0.88192000  1.0
  Ni  Ni19  2  0.50000000  0.25000000  0.96064000  1.0
  Ni  Ni20  2  0.50077000  0.24591000  0.11613000  1.0
  Ni  Ni21  2  0.74999000  0.24706000  0.03930000  1.0
  Ni  Ni22  2  0.75000000  0.25000000  0.88192000  1.0
  Ni  Ni23  2  0.99923000  0.24591000  0.11615000  1.0
  C  C24  1  0.25010000  0.00000000  0.23724000  1.0
  O  O25  1  0.25001000  0.00000000  0.28050000  1.0
