# generated using pymatgen
data_Li4Al4Ge4Pd4CO
_symmetry_space_group_name_H-M   Pm
_cell_length_a   5.49423000
_cell_length_b   8.01128000
_cell_length_c   24.10550000
_cell_angle_alpha   90.00000000
_cell_angle_beta   90.00000000
_cell_angle_gamma   90.00000000
_symmetry_Int_Tables_number   6
_chemical_formula_structural   Li4Al4Ge4Pd4CO
_chemical_formula_sum   'Li4 Al4 Ge4 Pd4 C1 O1'
_cell_volume   1061.02322642
_cell_formula_units_Z   1
loop_
 _symmetry_equiv_pos_site_id
 _symmetry_equiv_pos_as_xyz
  1  'x, y, z'
  2  'x, -y, z'
loop_
 _atom_site_type_symbol
 _atom_site_label
 _atom_site_symmetry_multiplicity
 _atom_site_fract_x
 _atom_site_fract_y
 _atom_site_fract_z
 _atom_site_occupancy
  Li  Li0  2  0.18570000  0.24999000  0.91484000  1.0
  Li  Li1  2  0.75715000  0.24820000  0.02615000  1.0
  Al  Al2  1  0.02342000  0.50000000  0.08003000  1.0
  Al  Al3  1  0.02594000  0.00000000  0.07951000  1.0
  Al  Al4  1  0.45713000  0.00000000  0.97161000  1.0
  Al  Al5  1  0.45713000  0.50000000  0.97161000  1.0
  Ge  Ge6  1  0.52186000  0.00000000  0.08397000  1.0
  Ge  Ge7  1  0.54090000  0.50000000  0.08763000  1.0
  Ge  Ge8  1  0.95713000  0.00000000  0.97161000  1.0
  Ge  Ge9  1  0.95713000  0.50000000  0.97161000  1.0
  Pd  Pd10  2  0.27556000  0.25602000  0.04340000  1.0
  Pd  Pd11  2  0.68570000  0.24999000  0.91484000  1.0
  C  C12  1  0.46384000  0.50000000  0.17236000  1.0
  O  O13  1  0.48158000  0.50000000  0.21996000  1.0
