# generated using pymatgen
data_Li4Mn4Ge4Pd4C
_symmetry_space_group_name_H-M   P2
_cell_length_a   6.14713000
_cell_length_b   24.61040000
_cell_length_c   6.14713000
_cell_angle_alpha   90.00000000
_cell_angle_beta   90.00000000
_cell_angle_gamma   90.00000000
_symmetry_Int_Tables_number   3
_chemical_formula_structural   Li4Mn4Ge4Pd4C
_chemical_formula_sum   'Li4 Mn4 Ge4 Pd4 C1'
_cell_volume   929.95828498
_cell_formula_units_Z   1
loop_
 _symmetry_equiv_pos_site_id
 _symmetry_equiv_pos_as_xyz
  1  'x, y, z'
  2  '-x, y, -z'
loop_
 _atom_site_type_symbol
 _atom_site_label
 _atom_site_symmetry_multiplicity
 _atom_site_fract_x
 _atom_site_fract_y
 _atom_site_fract_z
 _atom_site_occupancy
  Li  Li0  1  0.00000000  0.03160000  0.00000000  1.0
  Li  Li1  1  0.00000000  0.90633000  0.50000000  1.0
  Li  Li2  1  0.50000000  0.03131000  0.50000000  1.0
  Li  Li3  1  0.50000000  0.90633000  0.00000000  1.0
  Mn  Mn4  2  0.25000000  0.96878000  0.25000000  1.0
  Mn  Mn5  2  0.27032000  0.10263000  0.76961000  1.0
  Ge  Ge6  1  0.00000000  0.03604000  0.50000000  1.0
  Ge  Ge7  1  0.00000000  0.90633000  0.00000000  1.0
  Ge  Ge8  1  0.50000000  0.02186000  0.00000000  1.0
  Ge  Ge9  1  0.50000000  0.90633000  0.50000000  1.0
  Pd  Pd10  2  0.24736000  0.09148000  0.25328000  1.0
  Pd  Pd11  2  0.25000000  0.96878000  0.75000000  1.0
  C  C12  1  0.50000000  0.10740000  0.00000000  1.0
