# generated using pymatgen
data_Cu2NiSn
_symmetry_space_group_name_H-M   'P 1'
_cell_length_a   4.34780500
_cell_length_b   6.14873000
_cell_length_c   26.52170000
_cell_angle_alpha   90.00000000
_cell_angle_beta   90.00000000
_cell_angle_gamma   90.00000000
_symmetry_Int_Tables_number   1
_chemical_formula_structural   Cu2NiSn
_chemical_formula_sum   'Cu8 Ni4 Sn4'
_cell_volume   709.01731099
_cell_formula_units_Z   4
loop_
 _symmetry_equiv_pos_site_id
 _symmetry_equiv_pos_as_xyz
  1  'x, y, z'
loop_
 _atom_site_type_symbol
 _atom_site_label
 _atom_site_symmetry_multiplicity
 _atom_site_fract_x
 _atom_site_fract_y
 _atom_site_fract_z
 _atom_site_occupancy
  Cu  Cu0  1  0.00000000  0.75000000  0.04098000  1.0
  Cu  Cu1  1  0.00000000  0.25000000  0.04098000  1.0
  Cu  Cu2  1  0.50000000  0.25000000  0.12295000  1.0
  Cu  Cu3  1  0.50000000  0.75000000  0.12295000  1.0
  Cu  Cu4  1  0.00000000  0.77647500  0.88392500  1.0
  Cu  Cu5  1  0.00000000  0.22352500  0.88392500  1.0
  Cu  Cu6  1  0.50000000  0.21187000  0.95110000  1.0
  Cu  Cu7  1  0.50000000  0.78813000  0.95110000  1.0
  Ni  Ni8  1  0.00000000  0.00000000  0.12295000  1.0
  Ni  Ni9  1  0.50000000  0.50000000  0.04098000  1.0
  Ni  Ni10  1  0.00000000  0.00000000  0.96625000  1.0
  Ni  Ni11  1  0.50000000  0.50000000  0.88769000  1.0
  Sn  Sn12  1  0.50000000  0.00000000  0.04098000  1.0
  Sn  Sn13  1  0.00000000  0.50000000  0.12295000  1.0
  Sn  Sn14  1  0.50000000  0.00000000  0.85360500  1.0
  Sn  Sn15  1  0.00000000  0.50000000  0.95969000  1.0
