# generated using pymatgen
data_Na3As
_symmetry_space_group_name_H-M   'P 1'
_cell_length_a   7.20118000
_cell_length_b   10.18400000
_cell_length_c   27.63800000
_cell_angle_alpha   90.00000000
_cell_angle_beta   90.00000000
_cell_angle_gamma   90.00000000
_symmetry_Int_Tables_number   1
_chemical_formula_structural   Na3As
_chemical_formula_sum   'Na24 As8'
_cell_volume   2026.88295156
_cell_formula_units_Z   8
loop_
 _symmetry_equiv_pos_site_id
 _symmetry_equiv_pos_as_xyz
  1  'x, y, z'
loop_
 _atom_site_type_symbol
 _atom_site_label
 _atom_site_symmetry_multiplicity
 _atom_site_fract_x
 _atom_site_fract_y
 _atom_site_fract_z
 _atom_site_occupancy
  Na  Na0  1  0.25000000  0.00000000  0.95394000  1.0
  Na  Na1  1  0.75000000  0.50000000  0.95394000  1.0
  Na  Na2  1  0.75000000  0.00000000  0.95394000  1.0
  Na  Na3  1  0.25000000  0.50000000  0.95394000  1.0
  Na  Na4  1  0.75000000  0.75000000  0.86182000  1.0
  Na  Na5  1  0.25000000  0.25000000  0.86182000  1.0
  Na  Na6  1  0.25000000  0.75000000  0.86182000  1.0
  Na  Na7  1  0.75000000  0.25000000  0.86182000  1.0
  Na  Na8  1  0.00000000  0.75000000  0.95394000  1.0
  Na  Na9  1  0.50000000  0.00000000  0.86182000  1.0
  Na  Na10  1  0.00000000  0.25000000  0.95394000  1.0
  Na  Na11  1  0.50000000  0.50000000  0.86182000  1.0
  Na  Na12  1  0.28468000  0.50000000  0.14876000  1.0
  Na  Na13  1  0.71540000  0.00000000  0.14879000  1.0
  Na  Na14  1  0.71532000  0.50000000  0.14876000  1.0
  Na  Na15  1  0.28460000  0.00000000  0.14879000  1.0
  Na  Na16  1  0.74819000  0.24998000  0.04601000  1.0
  Na  Na17  1  0.25181000  0.75002000  0.04601000  1.0
  Na  Na18  1  0.25181000  0.24998000  0.04601000  1.0
  Na  Na19  1  0.74819000  0.75002000  0.04601000  1.0
  Na  Na20  1  0.00000000  0.24988000  0.13145000  1.0
  Na  Na21  1  0.50000000  0.50000000  0.05219000  1.0
  Na  Na22  1  0.00000000  0.75012000  0.13145000  1.0
  Na  Na23  1  0.50000000  0.00000000  0.05224000  1.0
  As  As24  1  0.00000000  0.00000000  0.86182000  1.0
  As  As25  1  0.50000000  0.25000000  0.95394000  1.0
  As  As26  1  0.50000000  0.75000000  0.95394000  1.0
  As  As27  1  0.00000000  0.50000000  0.86182000  1.0
  As  As28  1  0.00000000  0.50000000  0.05485000  1.0
  As  As29  1  0.50000000  0.75003000  0.13238000  1.0
  As  As30  1  0.50000000  0.24997000  0.13238000  1.0
  As  As31  1  0.00000000  0.00000000  0.05483000  1.0
