# generated using pymatgen
data_Li4Zn4Ag4Ge4CO
_symmetry_space_group_name_H-M   P2
_cell_length_a   6.35563000
_cell_length_b   24.76670000
_cell_length_c   6.35563000
_cell_angle_alpha   90.00000000
_cell_angle_beta   90.00000000
_cell_angle_gamma   90.00000000
_symmetry_Int_Tables_number   3
_chemical_formula_structural   Li4Zn4Ag4Ge4CO
_chemical_formula_sum   'Li4 Zn4 Ag4 Ge4 C1 O1'
_cell_volume   1000.42688959
_cell_formula_units_Z   1
loop_
 _symmetry_equiv_pos_site_id
 _symmetry_equiv_pos_as_xyz
  1  'x, y, z'
  2  '-x, y, -z'
loop_
 _atom_site_type_symbol
 _atom_site_label
 _atom_site_symmetry_multiplicity
 _atom_site_fract_x
 _atom_site_fract_y
 _atom_site_fract_z
 _atom_site_occupancy
  Li  Li0  1  0.00000000  0.10598000  0.00000000  1.0
  Li  Li1  1  0.00000000  0.96792000  0.50000000  1.0
  Li  Li2  1  0.50000000  0.10495000  0.50000000  1.0
  Li  Li3  1  0.50000000  0.96792000  0.00000000  1.0
  Zn  Zn4  1  0.00000000  0.09394000  0.50000000  1.0
  Zn  Zn5  1  0.00000000  0.96792000  0.00000000  1.0
  Zn  Zn6  1  0.50000000  0.09399000  0.00000000  1.0
  Zn  Zn7  1  0.50000000  0.96792000  0.50000000  1.0
  Ag  Ag8  2  0.24942000  0.03183000  0.75060000  1.0
  Ag  Ag9  2  0.24999000  0.90377000  0.25001000  1.0
  Ge  Ge10  2  0.25001000  0.90377000  0.74999000  1.0
  Ge  Ge11  2  0.25089000  0.04364000  0.25089000  1.0
  C  C12  1  0.00000000  0.19074000  0.00000000  1.0
  O  O13  1  0.00000000  0.23684000  0.00000000  1.0
