# generated using pymatgen
data_Li4Y4Ge4Pb4CO
_symmetry_space_group_name_H-M   Pm
_cell_length_a   6.08443000
_cell_length_b   9.86128000
_cell_length_c   24.56300000
_cell_angle_alpha   90.00000000
_cell_angle_beta   90.00000000
_cell_angle_gamma   90.00000000
_symmetry_Int_Tables_number   6
_chemical_formula_structural   Li4Y4Ge4Pb4CO
_chemical_formula_sum   'Li4 Y4 Ge4 Pb4 C1 O1'
_cell_volume   1473.78657970
_cell_formula_units_Z   1
loop_
 _symmetry_equiv_pos_site_id
 _symmetry_equiv_pos_as_xyz
  1  'x, y, z'
  2  'x, -y, z'
loop_
 _atom_site_type_symbol
 _atom_site_label
 _atom_site_symmetry_multiplicity
 _atom_site_fract_x
 _atom_site_fract_y
 _atom_site_fract_z
 _atom_site_occupancy
  Li  Li0  1  0.24707000  0.00000000  0.96904000  1.0
  Li  Li1  1  0.24707000  0.50000000  0.96904000  1.0
  Li  Li2  1  0.74673000  0.50000000  0.09514000  1.0
  Li  Li3  1  0.74757000  0.00000000  0.09582000  1.0
  Y  Y4  2  0.00542000  0.24985000  0.02727000  1.0
  Y  Y5  2  0.50000000  0.25004000  0.90712000  1.0
  Ge  Ge6  2  0.00000000  0.25004000  0.90712000  1.0
  Ge  Ge7  2  0.50229000  0.25125000  0.03934000  1.0
  Pb  Pb8  1  0.27801000  0.50000000  0.09689000  1.0
  Pb  Pb9  1  0.27847000  0.00000000  0.09659000  1.0
  Pb  Pb10  1  0.74707000  0.00000000  0.96904000  1.0
  Pb  Pb11  1  0.74707000  0.50000000  0.96904000  1.0
  C  C12  1  0.13865000  0.00000000  0.24562000  1.0
  O  O13  1  0.26571000  0.00000000  0.27959000  1.0
