# generated using pymatgen
data_Li4Al4Cu4Ge4C
_symmetry_space_group_name_H-M   P1
_cell_length_a   5.44163000
_cell_length_b   7.78580000
_cell_length_c   24.08040000
_cell_angle_alpha   90.00000000
_cell_angle_beta   90.00000000
_cell_angle_gamma   90.00000000
_symmetry_Int_Tables_number   1
_chemical_formula_structural   Li4Al4Cu4Ge4C
_chemical_formula_sum   'Li4 Al4 Cu4 Ge4 C1'
_cell_volume   1020.22497090
_cell_formula_units_Z   1
loop_
 _symmetry_equiv_pos_site_id
 _symmetry_equiv_pos_as_xyz
  1  'x, y, z'
loop_
 _atom_site_type_symbol
 _atom_site_label
 _atom_site_symmetry_multiplicity
 _atom_site_fract_x
 _atom_site_fract_y
 _atom_site_fract_z
 _atom_site_occupancy
  Li  Li0  1  0.23462000  0.25000000  0.91528000  1.0
  Li  Li1  1  0.23462000  0.75000000  0.91528000  1.0
  Li  Li2  1  0.76160000  0.25002000  0.01805000  1.0
  Li  Li3  1  0.77888000  0.75005000  0.03826000  1.0
  Al  Al4  1  0.02745000  0.04324000  0.08918000  1.0
  Al  Al5  1  0.02759000  0.45682000  0.08914000  1.0
  Al  Al6  1  0.48975000  0.00000000  0.97176000  1.0
  Al  Al7  1  0.48975000  0.50000000  0.97176000  1.0
  Cu  Cu8  1  0.26126000  0.75028000  0.07294000  1.0
  Cu  Cu9  1  0.26895000  0.24988000  0.01822000  1.0
  Cu  Cu10  1  0.73462000  0.25000000  0.91528000  1.0
  Cu  Cu11  1  0.73462000  0.75000000  0.91528000  1.0
  Ge  Ge12  1  0.51286000  0.45677000  0.08765000  1.0
  Ge  Ge13  1  0.51305000  0.04303000  0.08761000  1.0
  Ge  Ge14  1  0.98975000  0.00000000  0.97176000  1.0
  Ge  Ge15  1  0.98975000  0.50000000  0.97176000  1.0
  C  C16  1  0.25140000  0.24996000  0.10538000  1.0
