# generated using pymatgen
data_Sc8In8Cu8Pd8CO
_symmetry_space_group_name_H-M   'P 1'
_cell_length_a   9.24656000
_cell_length_b   6.53831000
_cell_length_c   26.93490000
_cell_angle_alpha   90.00000000
_cell_angle_beta   90.00000000
_cell_angle_gamma   90.00000000
_symmetry_Int_Tables_number   1
_chemical_formula_structural   Sc8In8Cu8Pd8CO
_chemical_formula_sum   'Sc8 In8 Cu8 Pd8 C1 O1'
_cell_volume   1628.39990166
_cell_formula_units_Z   1
loop_
 _symmetry_equiv_pos_site_id
 _symmetry_equiv_pos_as_xyz
  1  'x, y, z'
loop_
 _atom_site_type_symbol
 _atom_site_label
 _atom_site_symmetry_multiplicity
 _atom_site_fract_x
 _atom_site_fract_y
 _atom_site_fract_z
 _atom_site_occupancy
  Sc  Sc0  1  0.75000000  0.75000000  0.04291000  1.0
  Sc  Sc1  1  0.25000000  0.75000000  0.04291000  1.0
  Sc  Sc2  1  0.00000000  0.25000000  0.12873000  1.0
  Sc  Sc3  1  0.50000000  0.25000000  0.12873000  1.0
  Sc  Sc4  1  0.25562000  0.74983000  0.87208000  1.0
  Sc  Sc5  1  0.74438000  0.74983000  0.87208000  1.0
  Sc  Sc6  1  0.50000000  0.24882000  0.95677000  1.0
  Sc  Sc7  1  0.00000000  0.24193000  0.95452000  1.0
  In  In8  1  0.75000000  0.25000000  0.04291000  1.0
  In  In9  1  0.25000000  0.25000000  0.04291000  1.0
  In  In10  1  0.00000000  0.75000000  0.12873000  1.0
  In  In11  1  0.50000000  0.75000000  0.12873000  1.0
  In  In12  1  0.24559000  0.25270000  0.86665000  1.0
  In  In13  1  0.75441000  0.25270000  0.86665000  1.0
  In  In14  1  0.50000000  0.74708000  0.95697000  1.0
  In  In15  1  0.00000000  0.76044000  0.95534000  1.0
  Cu  Cu16  1  0.75000000  0.00000000  0.12873000  1.0
  Cu  Cu17  1  0.25000000  0.00000000  0.12873000  1.0
  Cu  Cu18  1  0.50000000  0.50000000  0.04291000  1.0
  Cu  Cu19  1  0.00000000  0.50000000  0.04291000  1.0
  Cu  Cu20  1  0.25198000  0.99986000  0.95561000  1.0
  Cu  Cu21  1  0.74802000  0.99986000  0.95561000  1.0
  Cu  Cu22  1  0.00000000  0.50119000  0.87569000  1.0
  Cu  Cu23  1  0.50000000  0.48467000  0.87220000  1.0
  Pd  Pd24  1  0.00000000  0.00000000  0.04291000  1.0
  Pd  Pd25  1  0.50000000  0.00000000  0.04291000  1.0
  Pd  Pd26  1  0.25000000  0.50000000  0.12873000  1.0
  Pd  Pd27  1  0.75000000  0.50000000  0.12873000  1.0
  Pd  Pd28  1  0.50000000  0.01040000  0.87429000  1.0
  Pd  Pd29  1  0.00000000  0.97533000  0.85990000  1.0
  Pd  Pd30  1  0.75241000  0.50127000  0.95589000  1.0
  Pd  Pd31  1  0.24759000  0.50127000  0.95589000  1.0
  C  C32  1  0.00000000  0.91721000  0.78879000  1.0
  O  O33  1  0.00000000  0.90006000  0.74609000  1.0
