# generated using pymatgen
data_Sc8In8Cu8Pd8CO
_symmetry_space_group_name_H-M   Pm
_cell_length_a   6.53831000
_cell_length_b   9.24656000
_cell_length_c   26.93490000
_cell_angle_alpha   90.00000000
_cell_angle_beta   90.00000000
_cell_angle_gamma   90.00000000
_symmetry_Int_Tables_number   6
_chemical_formula_structural   Sc8In8Cu8Pd8CO
_chemical_formula_sum   'Sc8 In8 Cu8 Pd8 C1 O1'
_cell_volume   1628.39990166
_cell_formula_units_Z   1
loop_
 _symmetry_equiv_pos_site_id
 _symmetry_equiv_pos_as_xyz
  1  'x, y, z'
  2  'x, -y, z'
loop_
 _atom_site_type_symbol
 _atom_site_label
 _atom_site_symmetry_multiplicity
 _atom_site_fract_x
 _atom_site_fract_y
 _atom_site_fract_z
 _atom_site_occupancy
  Sc  Sc0  2  0.74983000  0.25562000  0.12792000  1.0
  Sc  Sc1  2  0.75000000  0.25000000  0.95709000  1.0
  Sc  Sc2  1  0.24193000  0.00000000  0.04548000  1.0
  Sc  Sc3  1  0.24882000  0.50000000  0.04323000  1.0
  Sc  Sc4  1  0.25000000  0.00000000  0.87127000  1.0
  Sc  Sc5  1  0.25000000  0.50000000  0.87127000  1.0
  In  In6  2  0.25000000  0.25000000  0.95709000  1.0
  In  In7  2  0.25270000  0.24559000  0.13335000  1.0
  In  In8  1  0.74708000  0.50000000  0.04303000  1.0
  In  In9  1  0.75000000  0.00000000  0.87127000  1.0
  In  In10  1  0.75000000  0.50000000  0.87127000  1.0
  In  In11  1  0.76044000  0.00000000  0.04466000  1.0
  Cu  Cu12  2  0.00000000  0.25000000  0.87127000  1.0
  Cu  Cu13  2  0.99986000  0.25198000  0.04439000  1.0
  Cu  Cu14  1  0.48467000  0.50000000  0.12780000  1.0
  Cu  Cu15  1  0.50000000  0.00000000  0.95709000  1.0
  Cu  Cu16  1  0.50000000  0.50000000  0.95709000  1.0
  Cu  Cu17  1  0.50119000  0.00000000  0.12431000  1.0
  Pd  Pd18  2  0.50000000  0.25000000  0.87127000  1.0
  Pd  Pd19  2  0.50127000  0.24759000  0.04411000  1.0
  Pd  Pd20  1  0.00000000  0.00000000  0.95709000  1.0
  Pd  Pd21  1  0.00000000  0.50000000  0.95709000  1.0
  Pd  Pd22  1  0.01040000  0.50000000  0.12571000  1.0
  Pd  Pd23  1  0.97533000  0.00000000  0.14010000  1.0
  C  C24  1  0.91721000  0.00000000  0.21121000  1.0
  O  O25  1  0.90006000  0.00000000  0.25391000  1.0
