# generated using pymatgen
data_Y8In8Cu8Sn8CO
_symmetry_space_group_name_H-M   P1
_cell_length_a   8.84740000
_cell_length_b   9.14612000
_cell_length_c   26.62140000
_cell_angle_alpha   90.00000000
_cell_angle_beta   90.00000000
_cell_angle_gamma   90.00000000
_symmetry_Int_Tables_number   1
_chemical_formula_structural   Y8In8Cu8Sn8CO
_chemical_formula_sum   'Y8 In8 Cu8 Sn8 C1 O1'
_cell_volume   2154.18723832
_cell_formula_units_Z   1
loop_
 _symmetry_equiv_pos_site_id
 _symmetry_equiv_pos_as_xyz
  1  'x, y, z'
loop_
 _atom_site_type_symbol
 _atom_site_label
 _atom_site_symmetry_multiplicity
 _atom_site_fract_x
 _atom_site_fract_y
 _atom_site_fract_z
 _atom_site_occupancy
  Y  Y0  1  0.00000000  0.25000000  0.87564000  1.0
  Y  Y1  1  0.00000000  0.75000000  0.87564000  1.0
  Y  Y2  1  0.00044000  0.74986000  0.04232000  1.0
  Y  Y3  1  0.49968000  0.74987000  0.04231000  1.0
  Y  Y4  1  0.50000000  0.25000000  0.87564000  1.0
  Y  Y5  1  0.50000000  0.75000000  0.87564000  1.0
  Y  Y6  1  0.50066000  0.24995000  0.04243000  1.0
  Y  Y7  1  0.99951000  0.24994000  0.04245000  1.0
  In  In8  1  0.25000000  0.00000000  0.87564000  1.0
  In  In9  1  0.25000000  0.50000000  0.87564000  1.0
  In  In10  1  0.25011000  0.49969000  0.05077000  1.0
  In  In11  1  0.25011000  0.99985000  0.04895000  1.0
  In  In12  1  0.75000000  0.00000000  0.87564000  1.0
  In  In13  1  0.75000000  0.50000000  0.87564000  1.0
  In  In14  1  0.75011000  0.50034000  0.05019000  1.0
  In  In15  1  0.75011000  0.99959000  0.05049000  1.0
  Cu  Cu16  1  0.00000000  0.00000000  0.95855000  1.0
  Cu  Cu17  1  0.00000000  0.50000000  0.95855000  1.0
  Cu  Cu18  1  0.00022000  0.49956000  0.11509000  1.0
  Cu  Cu19  1  0.00236000  0.00034000  0.11526000  1.0
  Cu  Cu20  1  0.49792000  0.00036000  0.11526000  1.0
  Cu  Cu21  1  0.50000000  0.00000000  0.95855000  1.0
  Cu  Cu22  1  0.50000000  0.50000000  0.95855000  1.0
  Cu  Cu23  1  0.50003000  0.49953000  0.11509000  1.0
  Sn  Sn24  1  0.25000000  0.25000000  0.95855000  1.0
  Sn  Sn25  1  0.25000000  0.75000000  0.95855000  1.0
  Sn  Sn26  1  0.25009000  0.75379000  0.13387000  1.0
  Sn  Sn27  1  0.25016000  0.24487000  0.13372000  1.0
  Sn  Sn28  1  0.75000000  0.25000000  0.95855000  1.0
  Sn  Sn29  1  0.75000000  0.75000000  0.95855000  1.0
  Sn  Sn30  1  0.75009000  0.75092000  0.13416000  1.0
  Sn  Sn31  1  0.75013000  0.24944000  0.13425000  1.0
  C  C32  1  0.24260000  0.26546000  0.28840000  1.0
  O  O33  1  0.25153000  0.24331000  0.33019000  1.0
