# generated using pymatgen
data_Li16Mg8Pb8C
_symmetry_space_group_name_H-M   P1
_cell_length_a   6.88544000
_cell_length_b   9.73748000
_cell_length_c   27.30310000
_cell_angle_alpha   90.00000000
_cell_angle_beta   90.00000000
_cell_angle_gamma   90.00000000
_symmetry_Int_Tables_number   1
_chemical_formula_structural   Li16Mg8Pb8C
_chemical_formula_sum   'Li16 Mg8 Pb8 C1'
_cell_volume   1830.58642134
_cell_formula_units_Z   1
loop_
 _symmetry_equiv_pos_site_id
 _symmetry_equiv_pos_as_xyz
  1  'x, y, z'
loop_
 _atom_site_type_symbol
 _atom_site_label
 _atom_site_symmetry_multiplicity
 _atom_site_fract_x
 _atom_site_fract_y
 _atom_site_fract_z
 _atom_site_occupancy
  Li  Li0  1  0.23100000  0.50001000  0.13332000  1.0
  Li  Li1  1  0.24993000  0.74880000  0.04477000  1.0
  Li  Li2  1  0.25000000  0.00000000  0.95542000  1.0
  Li  Li3  1  0.25000000  0.25000000  0.86626000  1.0
  Li  Li4  1  0.25000000  0.50000000  0.95542000  1.0
  Li  Li5  1  0.25000000  0.75000000  0.86626000  1.0
  Li  Li6  1  0.25020000  0.25122000  0.04478000  1.0
  Li  Li7  1  0.28908000  0.00000000  0.13855000  1.0
  Li  Li8  1  0.71090000  0.00000000  0.13855000  1.0
  Li  Li9  1  0.74979000  0.25120000  0.04478000  1.0
  Li  Li10  1  0.75000000  0.00000000  0.95542000  1.0
  Li  Li11  1  0.75000000  0.25000000  0.86626000  1.0
  Li  Li12  1  0.75000000  0.50000000  0.95542000  1.0
  Li  Li13  1  0.75000000  0.75000000  0.86626000  1.0
  Li  Li14  1  0.75007000  0.74882000  0.04477000  1.0
  Li  Li15  1  0.76900000  0.50002000  0.13333000  1.0
  Mg  Mg16  1  0.00000000  0.00000000  0.86626000  1.0
  Mg  Mg17  1  0.00000000  0.50000000  0.86626000  1.0
  Mg  Mg18  1  0.49999000  0.26306000  0.13416000  1.0
  Mg  Mg19  1  0.50000000  0.25000000  0.95542000  1.0
  Mg  Mg20  1  0.50000000  0.73695000  0.13412000  1.0
  Mg  Mg21  1  0.50000000  0.75000000  0.95542000  1.0
  Mg  Mg22  1  0.99999000  0.00010000  0.04973000  1.0
  Mg  Mg23  1  0.99999000  0.49995000  0.04179000  1.0
  Pb  Pb24  1  0.00000000  0.25000000  0.95542000  1.0
  Pb  Pb25  1  0.00000000  0.75000000  0.95542000  1.0
  Pb  Pb26  1  0.50000000  0.00000000  0.86626000  1.0
  Pb  Pb27  1  0.50000000  0.50000000  0.86626000  1.0
  Pb  Pb28  1  0.50000000  0.99991000  0.04394000  1.0
  Pb  Pb29  1  0.50025000  0.50011000  0.04813000  1.0
  Pb  Pb30  1  0.99998000  0.23083000  0.14898000  1.0
  Pb  Pb31  1  0.99998000  0.76917000  0.14897000  1.0
  C  C32  1  0.99999000  0.99999000  0.12904000  1.0
