data_image0
_chemical_formula_structural       Li8Al4Ag4CO
_chemical_formula_sum              "Li8 Al4 Ag4 C1 O1"
_cell_length_a       6.34834
_cell_length_b       6.34834
_cell_length_c       24.7613
_cell_angle_alpha    90
_cell_angle_beta     90
_cell_angle_gamma    90

_space_group_name_H-M_alt    "P 1"
_space_group_IT_number       1

loop_
  _space_group_symop_operation_xyz
  'x, y, z'

loop_
  _atom_site_type_symbol
  _atom_site_label
  _atom_site_symmetry_multiplicity
  _atom_site_fract_x
  _atom_site_fract_y
  _atom_site_fract_z
  _atom_site_occupancy
  Li  Li1       1.0  0.99911  0.00087  0.03118  1.0000
  Li  Li2       1.0  0.50000  0.00000  0.90386  1.0000
  Li  Li3       1.0  0.00000  0.50000  0.90386  1.0000
  Li  Li4       1.0  0.50088  0.49913  0.03118  1.0000
  Li  Li5       1.0  0.25000  0.25000  0.96795  1.0000
  Li  Li6       1.0  0.24999  0.75001  0.10486  1.0000
  Li  Li7       1.0  0.75000  0.75000  0.96795  1.0000
  Li  Li8       1.0  0.75000  0.25000  0.10608  1.0000
  Al  Al1       1.0  0.00000  0.00000  0.90386  1.0000
  Al  Al2       1.0  0.50000  0.50000  0.90386  1.0000
  Al  Al3       1.0  0.50020  0.00021  0.03134  1.0000
  Al  Al4       1.0  0.99979  0.49979  0.03134  1.0000
  Ag  Ag1       1.0  0.24999  0.25000  0.08941  1.0000
  Ag  Ag2       1.0  0.25000  0.75000  0.96795  1.0000
  Ag  Ag3       1.0  0.74999  0.75000  0.08942  1.0000
  Ag  Ag4       1.0  0.75000  0.25000  0.96795  1.0000
  C   C1        1.0  0.75003  0.25000  0.19037  1.0000
  O   O1        1.0  0.75003  0.25000  0.23650  1.0000
