# generated using pymatgen
data_MgSc
_symmetry_space_group_name_H-M   'P 1'
_cell_length_a   3.59866500
_cell_length_b   10.17860000
_cell_length_c   27.63390000
_cell_angle_alpha   90.00000000
_cell_angle_beta   90.00000000
_cell_angle_gamma   90.00000000
_symmetry_Int_Tables_number   1
_chemical_formula_structural   MgSc
_chemical_formula_sum   'Mg8 Sc8'
_cell_volume   1012.21239100
_cell_formula_units_Z   8
loop_
 _symmetry_equiv_pos_site_id
 _symmetry_equiv_pos_as_xyz
  1  'x, y, z'
loop_
 _atom_site_type_symbol
 _atom_site_label
 _atom_site_symmetry_multiplicity
 _atom_site_fract_x
 _atom_site_fract_y
 _atom_site_fract_z
 _atom_site_occupancy
  Mg  Mg0  1  0.00000000  0.00000000  0.86187000  1.0
  Mg  Mg1  1  0.00000000  0.25000000  0.95396000  1.0
  Mg  Mg2  1  0.00000000  0.50000000  0.04268000  1.0
  Mg  Mg3  1  0.00000000  0.25047000  0.14243000  1.0
  Mg  Mg4  1  0.00000000  0.50000000  0.86187000  1.0
  Mg  Mg5  1  0.00000000  0.75000000  0.95396000  1.0
  Mg  Mg6  1  0.00000000  0.00000000  0.04266000  1.0
  Mg  Mg7  1  0.00000000  0.74953000  0.14243000  1.0
  Sc  Sc8  1  0.50000000  0.25000000  0.86187000  1.0
  Sc  Sc9  1  0.50000000  0.00000000  0.95396000  1.0
  Sc  Sc10  1  0.50000000  0.25006500  0.04894000  1.0
  Sc  Sc11  1  0.50000000  0.50000000  0.13072500  1.0
  Sc  Sc12  1  0.50000000  0.75000000  0.86187000  1.0
  Sc  Sc13  1  0.50000000  0.50000000  0.95396000  1.0
  Sc  Sc14  1  0.50000000  0.74993500  0.04894000  1.0
  Sc  Sc15  1  0.50000000  0.00000000  0.13070500  1.0
