data_image0
_chemical_formula_structural       MgScMgScMgScMgScMgScMgScMgScMgScMgScMgScMgScMgScMgScMgScMgScMgSc
_chemical_formula_sum              "Mg16 Sc16"
_cell_length_a       7.19733
_cell_length_b       10.1786
_cell_length_c       27.6339
_cell_angle_alpha    90
_cell_angle_beta     90
_cell_angle_gamma    90

_space_group_name_H-M_alt    "P 1"
_space_group_IT_number       1

loop_
  _space_group_symop_operation_xyz
  'x, y, z'

loop_
  _atom_site_type_symbol
  _atom_site_label
  _atom_site_symmetry_multiplicity
  _atom_site_fract_x
  _atom_site_fract_y
  _atom_site_fract_z
  _atom_site_occupancy
  Mg  Mg1       1.0  0.00000  0.00000  0.86187  1.0000
  Sc  Sc1       1.0  0.25000  0.25000  0.86187  1.0000
  Mg  Mg2       1.0  0.00000  0.25000  0.95396  1.0000
  Sc  Sc2       1.0  0.25000  0.00000  0.95396  1.0000
  Mg  Mg3       1.0  0.00000  0.50000  0.04604  1.0000
  Sc  Sc3       1.0  0.25000  0.25000  0.04604  1.0000
  Mg  Mg4       1.0  0.00000  0.25000  0.13813  1.0000
  Sc  Sc4       1.0  0.25000  0.50000  0.13813  1.0000
  Mg  Mg5       1.0  0.00000  0.50000  0.86187  1.0000
  Sc  Sc5       1.0  0.25000  0.75000  0.86187  1.0000
  Mg  Mg6       1.0  0.00000  0.75000  0.95396  1.0000
  Sc  Sc6       1.0  0.25000  0.50000  0.95396  1.0000
  Mg  Mg7       1.0  0.00000  0.00000  0.04604  1.0000
  Sc  Sc7       1.0  0.25000  0.75000  0.04604  1.0000
  Mg  Mg8       1.0  0.00000  0.75000  0.13813  1.0000
  Sc  Sc8       1.0  0.25000  1.00000  0.13813  1.0000
  Mg  Mg9       1.0  0.50000  0.00000  0.86187  1.0000
  Sc  Sc9       1.0  0.75000  0.25000  0.86187  1.0000
  Mg  Mg10      1.0  0.50000  0.25000  0.95396  1.0000
  Sc  Sc10      1.0  0.75000  0.00000  0.95396  1.0000
  Mg  Mg11      1.0  0.50000  0.50000  0.04604  1.0000
  Sc  Sc11      1.0  0.75000  0.25000  0.04604  1.0000
  Mg  Mg12      1.0  0.50000  0.25000  0.13813  1.0000
  Sc  Sc12      1.0  0.75000  0.50000  0.13813  1.0000
  Mg  Mg13      1.0  0.50000  0.50000  0.86187  1.0000
  Sc  Sc13      1.0  0.75000  0.75000  0.86187  1.0000
  Mg  Mg14      1.0  0.50000  0.75000  0.95396  1.0000
  Sc  Sc14      1.0  0.75000  0.50000  0.95396  1.0000
  Mg  Mg15      1.0  0.50000  0.00000  0.04604  1.0000
  Sc  Sc15      1.0  0.75000  0.75000  0.04604  1.0000
  Mg  Mg16      1.0  0.50000  0.75000  0.13813  1.0000
  Sc  Sc16      1.0  0.75000  1.00000  0.13813  1.0000
