# generated using pymatgen
data_Li16Mg8In8CO
_symmetry_space_group_name_H-M   Pmm2
_cell_length_a   6.75535000
_cell_length_b   9.55351000
_cell_length_c   27.16510000
_cell_angle_alpha   90.00000000
_cell_angle_beta   90.00000000
_cell_angle_gamma   90.00000000
_symmetry_Int_Tables_number   25
_chemical_formula_structural   Li16Mg8In8CO
_chemical_formula_sum   'Li16 Mg8 In8 C1 O1'
_cell_volume   1753.16231087
_cell_formula_units_Z   1
loop_
 _symmetry_equiv_pos_site_id
 _symmetry_equiv_pos_as_xyz
  1  'x, y, z'
  2  '-x, -y, z'
  3  '-x, y, z'
  4  'x, -y, z'
loop_
 _atom_site_type_symbol
 _atom_site_label
 _atom_site_symmetry_multiplicity
 _atom_site_fract_x
 _atom_site_fract_y
 _atom_site_fract_z
 _atom_site_occupancy
  Li  Li0  4  0.23487000  0.25173000  0.13873000  1.0
  Li  Li1  4  0.25000000  0.25000000  0.95604000  1.0
  Li  Li2  2  0.25000000  0.00000000  0.86812000  1.0
  Li  Li3  2  0.25000000  0.50000000  0.86812000  1.0
  Li  Li4  2  0.25005000  0.00000000  0.04150000  1.0
  Li  Li5  2  0.25182000  0.50000000  0.04203000  1.0
  Mg  Mg6  2  0.00000000  0.25000000  0.86812000  1.0
  Mg  Mg7  2  0.00000000  0.25151000  0.04607000  1.0
  Mg  Mg8  1  0.50000000  0.00000000  0.12508000  1.0
  Mg  Mg9  1  0.50000000  0.00000000  0.95604000  1.0
  Mg  Mg10  1  0.50000000  0.50000000  0.13050000  1.0
  Mg  Mg11  1  0.50000000  0.50000000  0.95604000  1.0
  In  In12  2  0.50000000  0.25000000  0.86812000  1.0
  In  In13  2  0.50000000  0.25062000  0.04864000  1.0
  In  In14  1  0.00000000  0.00000000  0.12818000  1.0
  In  In15  1  0.00000000  0.00000000  0.95604000  1.0
  In  In16  1  0.00000000  0.50000000  0.12983000  1.0
  In  In17  1  0.00000000  0.50000000  0.95604000  1.0
  C  C18  1  0.50000000  0.00000000  0.20584000  1.0
  O  O19  1  0.50000000  0.00000000  0.24834000  1.0
