data_image0
_chemical_formula_structural       Li8Ag8Sn8Pd8C
_chemical_formula_sum              "Li8 Ag8 Sn8 Pd8 C1"
_cell_length_a       6.55175
_cell_length_b       9.26558
_cell_length_c       26.9492
_cell_angle_alpha    90
_cell_angle_beta     90
_cell_angle_gamma    90

_space_group_name_H-M_alt    "P 1"
_space_group_IT_number       1

loop_
  _space_group_symop_operation_xyz
  'x, y, z'

loop_
  _atom_site_type_symbol
  _atom_site_label
  _atom_site_symmetry_multiplicity
  _atom_site_fract_x
  _atom_site_fract_y
  _atom_site_fract_z
  _atom_site_occupancy
  Li  Li1       1.0  0.25000  0.00000  0.95702  1.0000
  Li  Li2       1.0  0.25000  0.50000  0.95702  1.0000
  Li  Li3       1.0  0.75000  0.25000  0.87107  1.0000
  Li  Li4       1.0  0.75000  0.75000  0.87107  1.0000
  Li  Li5       1.0  0.24492  0.50000  0.13344  1.0000
  Li  Li6       1.0  0.24383  0.00000  0.13289  1.0000
  Li  Li7       1.0  0.74510  0.74751  0.04000  1.0000
  Li  Li8       1.0  0.74510  0.25249  0.04000  1.0000
  Ag  Ag1       1.0  0.00000  0.00000  0.87107  1.0000
  Ag  Ag2       1.0  0.00000  0.50000  0.87107  1.0000
  Ag  Ag3       1.0  0.50000  0.75000  0.95702  1.0000
  Ag  Ag4       1.0  0.50000  0.25000  0.95702  1.0000
  Ag  Ag5       1.0  0.97666  0.50000  0.04841  1.0000
  Ag  Ag6       1.0  0.97983  0.00000  0.04957  1.0000
  Ag  Ag7       1.0  0.52475  0.24451  0.12582  1.0000
  Ag  Ag8       1.0  0.52475  0.75549  0.12582  1.0000
  Sn  Sn1       1.0  0.75000  0.00000  0.95702  1.0000
  Sn  Sn2       1.0  0.75000  0.50000  0.95702  1.0000
  Sn  Sn3       1.0  0.25000  0.25000  0.87107  1.0000
  Sn  Sn4       1.0  0.25000  0.75000  0.87107  1.0000
  Sn  Sn5       1.0  0.75327  0.50000  0.14514  1.0000
  Sn  Sn6       1.0  0.83919  1.00000  0.15892  1.0000
  Sn  Sn7       1.0  0.25011  0.74697  0.04218  1.0000
  Sn  Sn8       1.0  0.25011  0.25303  0.04218  1.0000
  Pd  Pd1       1.0  0.00000  0.25000  0.95702  1.0000
  Pd  Pd2       1.0  0.00000  0.75000  0.95702  1.0000
  Pd  Pd3       1.0  0.50000  0.50000  0.87107  1.0000
  Pd  Pd4       1.0  0.50000  0.00000  0.87107  1.0000
  Pd  Pd5       1.0  0.98477  0.74158  0.11948  1.0000
  Pd  Pd6       1.0  0.98477  0.25842  0.11948  1.0000
  Pd  Pd7       1.0  0.51833  0.00000  0.04724  1.0000
  Pd  Pd8       1.0  0.50278  0.50000  0.05351  1.0000
  C   C1        1.0  0.54881  0.00000  0.12455  1.0000
