# generated using pymatgen
data_Li8Ag8Sn8Pd8C
_symmetry_space_group_name_H-M   'P 1'
_cell_length_a   9.26558000
_cell_length_b   6.55175000
_cell_length_c   26.94920000
_cell_angle_alpha   90.00000000
_cell_angle_beta   90.00000000
_cell_angle_gamma   90.00000000
_symmetry_Int_Tables_number   1
_chemical_formula_structural   Li8Ag8Sn8Pd8C
_chemical_formula_sum   'Li8 Ag8 Sn8 Pd8 C1'
_cell_volume   1635.97176886
_cell_formula_units_Z   1
loop_
 _symmetry_equiv_pos_site_id
 _symmetry_equiv_pos_as_xyz
  1  'x, y, z'
loop_
 _atom_site_type_symbol
 _atom_site_label
 _atom_site_symmetry_multiplicity
 _atom_site_fract_x
 _atom_site_fract_y
 _atom_site_fract_z
 _atom_site_occupancy
  Li  Li0  1  0.00000000  0.25000000  0.04298000  1.0
  Li  Li1  1  0.50000000  0.25000000  0.04298000  1.0
  Li  Li2  1  0.25000000  0.75000000  0.12893000  1.0
  Li  Li3  1  0.75000000  0.75000000  0.12893000  1.0
  Li  Li4  1  0.50000000  0.24492000  0.86656000  1.0
  Li  Li5  1  0.00000000  0.24383000  0.86711000  1.0
  Li  Li6  1  0.74751000  0.74510000  0.96000000  1.0
  Li  Li7  1  0.25249000  0.74510000  0.96000000  1.0
  Ag  Ag8  1  0.00000000  0.00000000  0.12893000  1.0
  Ag  Ag9  1  0.50000000  0.00000000  0.12893000  1.0
  Ag  Ag10  1  0.75000000  0.50000000  0.04298000  1.0
  Ag  Ag11  1  0.25000000  0.50000000  0.04298000  1.0
  Ag  Ag12  1  0.50000000  0.97666000  0.95159000  1.0
  Ag  Ag13  1  0.00000000  0.97983000  0.95043000  1.0
  Ag  Ag14  1  0.24451000  0.52475000  0.87418000  1.0
  Ag  Ag15  1  0.75549000  0.52475000  0.87418000  1.0
  Sn  Sn16  1  0.00000000  0.75000000  0.04298000  1.0
  Sn  Sn17  1  0.50000000  0.75000000  0.04298000  1.0
  Sn  Sn18  1  0.25000000  0.25000000  0.12893000  1.0
  Sn  Sn19  1  0.75000000  0.25000000  0.12893000  1.0
  Sn  Sn20  1  0.50000000  0.75327000  0.85486000  1.0
  Sn  Sn21  1  0.00000000  0.83919000  0.84108000  1.0
  Sn  Sn22  1  0.74697000  0.25011000  0.95782000  1.0
  Sn  Sn23  1  0.25303000  0.25011000  0.95782000  1.0
  Pd  Pd24  1  0.25000000  0.00000000  0.04298000  1.0
  Pd  Pd25  1  0.75000000  0.00000000  0.04298000  1.0
  Pd  Pd26  1  0.50000000  0.50000000  0.12893000  1.0
  Pd  Pd27  1  0.00000000  0.50000000  0.12893000  1.0
  Pd  Pd28  1  0.74158000  0.98477000  0.88052000  1.0
  Pd  Pd29  1  0.25842000  0.98477000  0.88052000  1.0
  Pd  Pd30  1  0.00000000  0.51833000  0.95276000  1.0
  Pd  Pd31  1  0.50000000  0.50278000  0.94649000  1.0
  C  C32  1  0.00000000  0.54881000  0.87545000  1.0
