# generated using pymatgen
data_Mg16Pd16C
_symmetry_space_group_name_H-M   Pmm2
_cell_length_a   6.43103000
_cell_length_b   9.09485000
_cell_length_c   26.82110000
_cell_angle_alpha   90.00000000
_cell_angle_beta   90.00000000
_cell_angle_gamma   90.00000000
_symmetry_Int_Tables_number   25
_chemical_formula_structural   Mg16Pd16C
_chemical_formula_sum   'Mg16 Pd16 C1'
_cell_volume   1568.74610888
_cell_formula_units_Z   1
loop_
 _symmetry_equiv_pos_site_id
 _symmetry_equiv_pos_as_xyz
  1  'x, y, z'
  2  '-x, -y, z'
  3  '-x, y, z'
  4  'x, -y, z'
loop_
 _atom_site_type_symbol
 _atom_site_label
 _atom_site_symmetry_multiplicity
 _atom_site_fract_x
 _atom_site_fract_y
 _atom_site_fract_z
 _atom_site_occupancy
  Mg  Mg0  2  0.00000000  0.24955000  0.13361000  1.0
  Mg  Mg1  2  0.00000000  0.25000000  0.95761000  1.0
  Mg  Mg2  2  0.50000000  0.25000000  0.95761000  1.0
  Mg  Mg3  2  0.50000000  0.26210000  0.13111000  1.0
  Mg  Mg4  1  0.00000000  0.00000000  0.04460000  1.0
  Mg  Mg5  1  0.00000000  0.00000000  0.87284000  1.0
  Mg  Mg6  1  0.00000000  0.50000000  0.04120000  1.0
  Mg  Mg7  1  0.00000000  0.50000000  0.87284000  1.0
  Mg  Mg8  1  0.50000000  0.00000000  0.03797000  1.0
  Mg  Mg9  1  0.50000000  0.00000000  0.87284000  1.0
  Mg  Mg10  1  0.50000000  0.50000000  0.04181000  1.0
  Mg  Mg11  1  0.50000000  0.50000000  0.87284000  1.0
  Pd  Pd12  4  0.24977000  0.24800000  0.04393000  1.0
  Pd  Pd13  4  0.25000000  0.25000000  0.87284000  1.0
  Pd  Pd14  2  0.24141000  0.50000000  0.12209000  1.0
  Pd  Pd15  2  0.25000000  0.00000000  0.95761000  1.0
  Pd  Pd16  2  0.25000000  0.50000000  0.95761000  1.0
  Pd  Pd17  2  0.28365000  0.00000000  0.12423000  1.0
  C  C18  1  0.00000000  0.00000000  0.14804000  1.0
