# generated using pymatgen
data_Y8Mn8In8Pd8C
_symmetry_space_group_name_H-M   'P 1'
_cell_length_a   6.85874000
_cell_length_b   9.69972000
_cell_length_c   27.27480000
_cell_angle_alpha   90.00000000
_cell_angle_beta   90.00000000
_cell_angle_gamma   90.00000000
_symmetry_Int_Tables_number   1
_chemical_formula_structural   Y8Mn8In8Pd8C
_chemical_formula_sum   'Y8 Mn8 In8 Pd8 C1'
_cell_volume   1814.53400918
_cell_formula_units_Z   1
loop_
 _symmetry_equiv_pos_site_id
 _symmetry_equiv_pos_as_xyz
  1  'x, y, z'
loop_
 _atom_site_type_symbol
 _atom_site_label
 _atom_site_symmetry_multiplicity
 _atom_site_fract_x
 _atom_site_fract_y
 _atom_site_fract_z
 _atom_site_occupancy
  Y  Y0  1  0.00000000  0.25000000  0.95555000  1.0
  Y  Y1  1  0.00000000  0.75000000  0.95555000  1.0
  Y  Y2  1  0.50000000  0.50000000  0.86664000  1.0
  Y  Y3  1  0.50000000  0.00000000  0.86664000  1.0
  Y  Y4  1  0.94688000  0.73041000  0.13514000  1.0
  Y  Y5  1  0.94451000  0.31852000  0.14478000  1.0
  Y  Y6  1  0.48485000  0.00841000  0.04628000  1.0
  Y  Y7  1  0.51460000  0.49125000  0.04952000  1.0
  Mn  Mn8  1  0.75000000  0.00000000  0.95555000  1.0
  Mn  Mn9  1  0.75000000  0.50000000  0.95555000  1.0
  Mn  Mn10  1  0.25000000  0.25000000  0.86664000  1.0
  Mn  Mn11  1  0.25000000  0.75000000  0.86664000  1.0
  Mn  Mn12  1  0.58451000  0.52555000  0.17142000  1.0
  Mn  Mn13  1  0.77823000  0.02490000  0.13511000  1.0
  Mn  Mn14  1  0.24427000  0.74309000  0.05172000  1.0
  Mn  Mn15  1  0.19783000  0.25032000  0.06060000  1.0
  In  In16  1  0.00000000  0.00000000  0.86664000  1.0
  In  In17  1  0.00000000  0.50000000  0.86664000  1.0
  In  In18  1  0.50000000  0.75000000  0.95555000  1.0
  In  In19  1  0.50000000  0.25000000  0.95555000  1.0
  In  In20  1  0.99297000  0.50389000  0.04142000  1.0
  In  In21  1  0.99081000  0.98909000  0.04070000  1.0
  In  In22  1  0.46126000  0.23991000  0.14580000  1.0
  In  In23  1  0.47460000  0.79314000  0.13876000  1.0
  Pd  Pd24  1  0.25000000  0.00000000  0.95555000  1.0
  Pd  Pd25  1  0.25000000  0.50000000  0.95555000  1.0
  Pd  Pd26  1  0.75000000  0.25000000  0.86664000  1.0
  Pd  Pd27  1  0.75000000  0.75000000  0.86664000  1.0
  Pd  Pd28  1  0.24245000  0.52166000  0.12644000  1.0
  Pd  Pd29  1  0.18047000  0.01639000  0.12899000  1.0
  Pd  Pd30  1  0.73940000  0.75408000  0.04244000  1.0
  Pd  Pd31  1  0.78231000  0.24219000  0.04993000  1.0
  C  C32  1  0.46887000  0.25034000  0.05392000  1.0
