# generated using pymatgen
data_Li4Y4In4Pb4C
_symmetry_space_group_name_H-M   Pm
_cell_length_a   6.48172000
_cell_length_b   9.42336000
_cell_length_c   24.85820000
_cell_angle_alpha   90.00000000
_cell_angle_beta   90.00000000
_cell_angle_gamma   90.00000000
_symmetry_Int_Tables_number   6
_chemical_formula_structural   Li4Y4In4Pb4C
_chemical_formula_sum   'Li4 Y4 In4 Pb4 C1'
_cell_volume   1518.32843990
_cell_formula_units_Z   1
loop_
 _symmetry_equiv_pos_site_id
 _symmetry_equiv_pos_as_xyz
  1  'x, y, z'
  2  'x, -y, z'
loop_
 _atom_site_type_symbol
 _atom_site_label
 _atom_site_symmetry_multiplicity
 _atom_site_fract_x
 _atom_site_fract_y
 _atom_site_fract_z
 _atom_site_occupancy
  Li  Li0  1  0.50000000  0.00000000  0.90228000  1.0
  Li  Li1  1  0.50000000  0.50000000  0.90228000  1.0
  Li  Li2  1  0.95844000  0.00000000  0.02535000  1.0
  Li  Li3  1  0.97006000  0.50000000  0.04155000  1.0
  Y  Y4  2  0.24106000  0.25000000  0.96743000  1.0
  Y  Y5  2  0.70184000  0.19591000  0.10094000  1.0
  In  In6  1  0.00000000  0.00000000  0.90228000  1.0
  In  In7  1  0.00000000  0.50000000  0.90228000  1.0
  In  In8  1  0.41509000  0.00000000  0.02978000  1.0
  In  In9  1  0.45327000  0.50000000  0.04229000  1.0
  Pb  Pb10  2  0.18787000  0.20430000  0.11335000  1.0
  Pb  Pb11  2  0.74106000  0.25000000  0.96743000  1.0
  C  C12  1  0.89405000  0.00000000  0.10817000  1.0
