# generated using pymatgen
data_Li8Y8Sn8Pb8CO
_symmetry_space_group_name_H-M   Pm
_cell_length_a   8.87168000
_cell_length_b   9.64462000
_cell_length_c   27.02620000
_cell_angle_alpha   90.00000000
_cell_angle_beta   90.00000000
_cell_angle_gamma   90.00000000
_symmetry_Int_Tables_number   6
_chemical_formula_structural   Li8Y8Sn8Pb8CO
_chemical_formula_sum   'Li8 Y8 Sn8 Pb8 C1 O1'
_cell_volume   2312.46930010
_cell_formula_units_Z   1
loop_
 _symmetry_equiv_pos_site_id
 _symmetry_equiv_pos_as_xyz
  1  'x, y, z'
  2  'x, -y, z'
loop_
 _atom_site_type_symbol
 _atom_site_label
 _atom_site_symmetry_multiplicity
 _atom_site_fract_x
 _atom_site_fract_y
 _atom_site_fract_z
 _atom_site_occupancy
  Li  Li0  1  0.00000000  0.00000000  0.12999000  1.0
  Li  Li1  1  0.00000000  0.50000000  0.12999000  1.0
  Li  Li2  1  0.00419000  0.00000000  0.95591000  1.0
  Li  Li3  1  0.49582000  0.00000000  0.95591000  1.0
  Li  Li4  1  0.50000000  0.00000000  0.12999000  1.0
  Li  Li5  1  0.50000000  0.50000000  0.12999000  1.0
  Li  Li6  1  0.50337000  0.50000000  0.95567000  1.0
  Li  Li7  1  0.99664000  0.50000000  0.95567000  1.0
  Y  Y8  2  0.00000000  0.25004000  0.04333000  1.0
  Y  Y9  2  0.00132000  0.24966000  0.87292000  1.0
  Y  Y10  2  0.49869000  0.24966000  0.87292000  1.0
  Y  Y11  2  0.50000000  0.25004000  0.04333000  1.0
  Sn  Sn12  2  0.25000000  0.24891000  0.95467000  1.0
  Sn  Sn13  2  0.25000000  0.25004000  0.12999000  1.0
  Sn  Sn14  2  0.75000000  0.25004000  0.12999000  1.0
  Sn  Sn15  2  0.75000000  0.25011000  0.95448000  1.0
  Pb  Pb16  1  0.25000000  0.00000000  0.04333000  1.0
  Pb  Pb17  1  0.25000000  0.00000000  0.86177000  1.0
  Pb  Pb18  1  0.25000000  0.50000000  0.04333000  1.0
  Pb  Pb19  1  0.25000000  0.50000000  0.86528000  1.0
  Pb  Pb20  1  0.75000000  0.00000000  0.04333000  1.0
  Pb  Pb21  1  0.75000000  0.00000000  0.86758000  1.0
  Pb  Pb22  1  0.75000000  0.50000000  0.04333000  1.0
  Pb  Pb23  1  0.75000000  0.50000000  0.86426000  1.0
  C  C24  1  0.74986000  0.00000000  0.71054000  1.0
  O  O25  1  0.75002000  0.00000000  0.66854000  1.0
