# generated using pymatgen
data_Al8Cu24C
_symmetry_space_group_name_H-M   Pmm2
_cell_length_a   5.88044000
_cell_length_b   8.31620000
_cell_length_c   26.23710000
_cell_angle_alpha   90.00000000
_cell_angle_beta   90.00000000
_cell_angle_gamma   90.00000000
_symmetry_Int_Tables_number   25
_chemical_formula_structural   Al8Cu24C
_chemical_formula_sum   'Al8 Cu24 C1'
_cell_volume   1283.07067450
_cell_formula_units_Z   1
loop_
 _symmetry_equiv_pos_site_id
 _symmetry_equiv_pos_as_xyz
  1  'x, y, z'
  2  '-x, -y, z'
  3  '-x, y, z'
  4  'x, -y, z'
loop_
 _atom_site_type_symbol
 _atom_site_label
 _atom_site_symmetry_multiplicity
 _atom_site_fract_x
 _atom_site_fract_y
 _atom_site_fract_z
 _atom_site_occupancy
  Al  Al0  2  0.50000000  0.25000000  0.96038000  1.0
  Al  Al1  2  0.50000000  0.26768000  0.12163000  1.0
  Al  Al2  1  0.00000000  0.00000000  0.04287000  1.0
  Al  Al3  1  0.00000000  0.00000000  0.88114000  1.0
  Al  Al4  1  0.00000000  0.50000000  0.03917000  1.0
  Al  Al5  1  0.00000000  0.50000000  0.88114000  1.0
  Cu  Cu6  4  0.25000000  0.25000000  0.88114000  1.0
  Cu  Cu7  4  0.25345000  0.25198000  0.03909000  1.0
  Cu  Cu8  2  0.00000000  0.23604000  0.11950000  1.0
  Cu  Cu9  2  0.00000000  0.25000000  0.96038000  1.0
  Cu  Cu10  2  0.22917000  0.50000000  0.11863000  1.0
  Cu  Cu11  2  0.25000000  0.00000000  0.96038000  1.0
  Cu  Cu12  2  0.25000000  0.50000000  0.96038000  1.0
  Cu  Cu13  2  0.30681000  0.00000000  0.12427000  1.0
  Cu  Cu14  1  0.50000000  0.00000000  0.03689000  1.0
  Cu  Cu15  1  0.50000000  0.00000000  0.88114000  1.0
  Cu  Cu16  1  0.50000000  0.50000000  0.03946000  1.0
  Cu  Cu17  1  0.50000000  0.50000000  0.88114000  1.0
  C  C18  1  0.00000000  0.00000000  0.12597000  1.0
