# generated using pymatgen
data_LiAlAgSn
_symmetry_space_group_name_H-M   'P 1'
_cell_length_a   4.28010000
_cell_length_b   4.33343000
_cell_length_c   26.12070000
_cell_angle_alpha   90.00000000
_cell_angle_beta   90.00000000
_cell_angle_gamma   90.00000000
_symmetry_Int_Tables_number   1
_chemical_formula_structural   LiAlAgSn
_chemical_formula_sum   'Li2 Al2 Ag2 Sn2'
_cell_volume   484.47404223
_cell_formula_units_Z   2
loop_
 _symmetry_equiv_pos_site_id
 _symmetry_equiv_pos_as_xyz
  1  'x, y, z'
loop_
 _atom_site_type_symbol
 _atom_site_label
 _atom_site_symmetry_multiplicity
 _atom_site_fract_x
 _atom_site_fract_y
 _atom_site_fract_z
 _atom_site_occupancy
  Li  Li0  1  0.50000000  0.00000000  0.96095000  1.0
  Li  Li1  1  0.50000000  0.00000000  0.12002000  1.0
  Al  Al2  1  0.00000000  0.50000000  0.96095000  1.0
  Al  Al3  1  0.00000000  0.50000000  0.11495000  1.0
  Ag  Ag4  1  0.00000000  0.00000000  0.88284000  1.0
  Ag  Ag5  1  0.00000000  0.00000000  0.03771000  1.0
  Sn  Sn6  1  0.50000000  0.50000000  0.88284000  1.0
  Sn  Sn7  1  0.50000000  0.50000000  0.04016000  1.0
