data_image0
_chemical_formula_structural       Na24As8CO
_chemical_formula_sum              "Na24 As8 C1 O1"
_cell_length_a       7.20118
_cell_length_b       10.184
_cell_length_c       27.638
_cell_angle_alpha    90
_cell_angle_beta     90
_cell_angle_gamma    90

_space_group_name_H-M_alt    "P 1"
_space_group_IT_number       1

loop_
  _space_group_symop_operation_xyz
  'x, y, z'

loop_
  _atom_site_type_symbol
  _atom_site_label
  _atom_site_symmetry_multiplicity
  _atom_site_fract_x
  _atom_site_fract_y
  _atom_site_fract_z
  _atom_site_occupancy
  Na  Na1       1.0  0.25000  0.00000  0.95394  1.0000
  Na  Na2       1.0  0.75000  0.50000  0.95394  1.0000
  Na  Na3       1.0  0.75000  0.00000  0.95394  1.0000
  Na  Na4       1.0  0.25000  0.50000  0.95394  1.0000
  Na  Na5       1.0  0.75000  0.75000  0.86182  1.0000
  Na  Na6       1.0  0.25000  0.25000  0.86182  1.0000
  Na  Na7       1.0  0.25000  0.75000  0.86182  1.0000
  Na  Na8       1.0  0.75000  0.25000  0.86182  1.0000
  Na  Na9       1.0  0.00000  0.75000  0.95394  1.0000
  Na  Na10      1.0  0.50000  0.00000  0.86182  1.0000
  Na  Na11      1.0  0.00000  0.25000  0.95394  1.0000
  Na  Na12      1.0  0.50000  0.50000  0.86182  1.0000
  Na  Na13      1.0  0.28015  0.49999  0.15937  1.0000
  Na  Na14      1.0  0.69388  0.99999  0.16853  1.0000
  Na  Na15      1.0  0.71539  0.50002  0.15125  1.0000
  Na  Na16      1.0  0.26835  0.00001  0.14619  1.0000
  Na  Na17      1.0  0.74119  0.26700  0.04397  1.0000
  Na  Na18      1.0  0.25818  0.76813  0.04635  1.0000
  Na  Na19      1.0  0.25813  0.23189  0.04636  1.0000
  Na  Na20      1.0  0.74116  0.73299  0.04396  1.0000
  Na  Na21      1.0  0.97631  0.24949  0.12839  1.0000
  Na  Na22      1.0  0.45116  0.50000  0.05880  1.0000
  Na  Na23      1.0  0.97649  0.75051  0.12839  1.0000
  Na  Na24      1.0  0.56336  0.99999  0.06339  1.0000
  As  As1       1.0  0.00000  0.00000  0.86182  1.0000
  As  As2       1.0  0.50000  0.25000  0.95394  1.0000
  As  As3       1.0  0.50000  0.75000  0.95394  1.0000
  As  As4       1.0  0.00000  0.50000  0.86182  1.0000
  As  As5       1.0  0.01213  0.49999  0.05622  1.0000
  As  As6       1.0  0.50618  0.75123  0.13546  1.0000
  As  As7       1.0  0.50620  0.24878  0.13546  1.0000
  As  As8       1.0  0.98509  0.00000  0.05484  1.0000
  C   C1        1.0  0.21955  0.00001  0.24283  1.0000
  O   O1        1.0  0.23982  0.00000  0.28377  1.0000
