# generated using pymatgen
data_Na24As8CO
_symmetry_space_group_name_H-M   'P 1'
_cell_length_a   7.20118000
_cell_length_b   10.18400000
_cell_length_c   27.63800000
_cell_angle_alpha   90.00000000
_cell_angle_beta   90.00000000
_cell_angle_gamma   90.00000000
_symmetry_Int_Tables_number   1
_chemical_formula_structural   Na24As8CO
_chemical_formula_sum   'Na24 As8 C1 O1'
_cell_volume   2026.88295156
_cell_formula_units_Z   1
loop_
 _symmetry_equiv_pos_site_id
 _symmetry_equiv_pos_as_xyz
  1  'x, y, z'
loop_
 _atom_site_type_symbol
 _atom_site_label
 _atom_site_symmetry_multiplicity
 _atom_site_fract_x
 _atom_site_fract_y
 _atom_site_fract_z
 _atom_site_occupancy
  Na  Na0  1  0.25000000  0.00000000  0.95394000  1.0
  Na  Na1  1  0.75000000  0.50000000  0.95394000  1.0
  Na  Na2  1  0.75000000  0.00000000  0.95394000  1.0
  Na  Na3  1  0.25000000  0.50000000  0.95394000  1.0
  Na  Na4  1  0.75000000  0.75000000  0.86182000  1.0
  Na  Na5  1  0.25000000  0.25000000  0.86182000  1.0
  Na  Na6  1  0.25000000  0.75000000  0.86182000  1.0
  Na  Na7  1  0.75000000  0.25000000  0.86182000  1.0
  Na  Na8  1  0.00000000  0.75000000  0.95394000  1.0
  Na  Na9  1  0.50000000  0.00000000  0.86182000  1.0
  Na  Na10  1  0.00000000  0.25000000  0.95394000  1.0
  Na  Na11  1  0.50000000  0.50000000  0.86182000  1.0
  Na  Na12  1  0.28041000  0.49997000  0.15686000  1.0
  Na  Na13  1  0.62575000  0.99994000  0.19174000  1.0
  Na  Na14  1  0.72564000  0.49997000  0.14594000  1.0
  Na  Na15  1  0.25659000  0.99996000  0.13562000  1.0
  Na  Na16  1  0.74059000  0.27087000  0.04142000  1.0
  Na  Na17  1  0.26114000  0.77100000  0.04748000  1.0
  Na  Na18  1  0.26113000  0.22911000  0.04750000  1.0
  Na  Na19  1  0.74069000  0.72917000  0.04140000  1.0
  Na  Na20  1  0.94562000  0.22676000  0.12952000  1.0
  Na  Na21  1  0.44324000  0.50013000  0.05611000  1.0
  Na  Na22  1  0.94563000  0.77313000  0.12948000  1.0
  Na  Na23  1  0.60872000  0.00000000  0.07512000  1.0
  As  As24  1  0.00000000  0.00000000  0.86182000  1.0
  As  As25  1  0.50000000  0.25000000  0.95394000  1.0
  As  As26  1  0.50000000  0.75000000  0.95394000  1.0
  As  As27  1  0.00000000  0.50000000  0.86182000  1.0
  As  As28  1  0.01233000  0.50000000  0.05704000  1.0
  As  As29  1  0.51168000  0.75369000  0.13691000  1.0
  As  As30  1  0.51168000  0.24624000  0.13693000  1.0
  As  As31  1  0.99909000  0.00001000  0.04835000  1.0
  C  C32  1  0.20534000  0.00003000  0.23012000  1.0
  O  O33  1  0.23224000  0.00002000  0.27107000  1.0
