# generated using pymatgen
data_Y8Cu8Ge8Pd8C
_symmetry_space_group_name_H-M   'P 1'
_cell_length_a   9.30776000
_cell_length_b   6.58158000
_cell_length_c   26.98080000
_cell_angle_alpha   90.00000000
_cell_angle_beta   90.00000000
_cell_angle_gamma   90.00000000
_symmetry_Int_Tables_number   1
_chemical_formula_structural   Y8Cu8Ge8Pd8C
_chemical_formula_sum   'Y8 Cu8 Ge8 Pd8 C1'
_cell_volume   1652.83752311
_cell_formula_units_Z   1
loop_
 _symmetry_equiv_pos_site_id
 _symmetry_equiv_pos_as_xyz
  1  'x, y, z'
loop_
 _atom_site_type_symbol
 _atom_site_label
 _atom_site_symmetry_multiplicity
 _atom_site_fract_x
 _atom_site_fract_y
 _atom_site_fract_z
 _atom_site_occupancy
  Y  Y0  1  0.75000000  0.75000000  0.04312000  1.0
  Y  Y1  1  0.25000000  0.75000000  0.04312000  1.0
  Y  Y2  1  0.00000000  0.25000000  0.12937000  1.0
  Y  Y3  1  0.50000000  0.25000000  0.12937000  1.0
  Y  Y4  1  0.28676000  0.68231000  0.85854000  1.0
  Y  Y5  1  0.71324000  0.68231000  0.85854000  1.0
  Y  Y6  1  0.50000000  0.25040000  0.95277000  1.0
  Y  Y7  1  0.00000000  0.23220000  0.95831000  1.0
  Cu  Cu8  1  0.75000000  0.00000000  0.12937000  1.0
  Cu  Cu9  1  0.25000000  0.00000000  0.12937000  1.0
  Cu  Cu10  1  0.50000000  0.50000000  0.04312000  1.0
  Cu  Cu11  1  0.00000000  0.50000000  0.04312000  1.0
  Cu  Cu12  1  0.25083000  0.94684000  0.94328000  1.0
  Cu  Cu13  1  0.74917000  0.94684000  0.94328000  1.0
  Cu  Cu14  1  0.00000000  0.51923000  0.87441000  1.0
  Cu  Cu15  1  0.50000000  0.36951000  0.83700000  1.0
  Ge  Ge16  1  0.75000000  0.25000000  0.04312000  1.0
  Ge  Ge17  1  0.25000000  0.25000000  0.04312000  1.0
  Ge  Ge18  1  0.00000000  0.75000000  0.12937000  1.0
  Ge  Ge19  1  0.50000000  0.75000000  0.12937000  1.0
  Ge  Ge20  1  0.22548000  0.21441000  0.87195000  1.0
  Ge  Ge21  1  0.77452000  0.21441000  0.87195000  1.0
  Ge  Ge22  1  0.50000000  0.74642000  0.95722000  1.0
  Ge  Ge23  1  0.00000000  0.73590000  0.96027000  1.0
  Pd  Pd24  1  0.00000000  0.00000000  0.04312000  1.0
  Pd  Pd25  1  0.50000000  0.00000000  0.04312000  1.0
  Pd  Pd26  1  0.25000000  0.50000000  0.12937000  1.0
  Pd  Pd27  1  0.75000000  0.50000000  0.12937000  1.0
  Pd  Pd28  1  0.50000000  0.98508000  0.87176000  1.0
  Pd  Pd29  1  0.00000000  0.91122000  0.87267000  1.0
  Pd  Pd30  1  0.75272000  0.50688000  0.95335000  1.0
  Pd  Pd31  1  0.24728000  0.50688000  0.95335000  1.0
  C  C32  1  0.00000000  0.22771000  0.86649000  1.0
