# generated using pymatgen
data_Y8Cu8Ge8Pd8C
_symmetry_space_group_name_H-M   Pm
_cell_length_a   6.58158000
_cell_length_b   9.30776000
_cell_length_c   26.98080000
_cell_angle_alpha   90.00000000
_cell_angle_beta   90.00000000
_cell_angle_gamma   90.00000000
_symmetry_Int_Tables_number   6
_chemical_formula_structural   Y8Cu8Ge8Pd8C
_chemical_formula_sum   'Y8 Cu8 Ge8 Pd8 C1'
_cell_volume   1652.83752311
_cell_formula_units_Z   1
loop_
 _symmetry_equiv_pos_site_id
 _symmetry_equiv_pos_as_xyz
  1  'x, y, z'
  2  'x, -y, z'
loop_
 _atom_site_type_symbol
 _atom_site_label
 _atom_site_symmetry_multiplicity
 _atom_site_fract_x
 _atom_site_fract_y
 _atom_site_fract_z
 _atom_site_occupancy
  Y  Y0  2  0.68231000  0.28676000  0.14146000  1.0
  Y  Y1  2  0.75000000  0.25000000  0.95688000  1.0
  Y  Y2  1  0.23220000  0.00000000  0.04169000  1.0
  Y  Y3  1  0.25000000  0.00000000  0.87063000  1.0
  Y  Y4  1  0.25000000  0.50000000  0.87063000  1.0
  Y  Y5  1  0.25040000  0.50000000  0.04723000  1.0
  Cu  Cu6  2  0.00000000  0.25000000  0.87063000  1.0
  Cu  Cu7  2  0.94684000  0.25083000  0.05672000  1.0
  Cu  Cu8  1  0.36951000  0.50000000  0.16300000  1.0
  Cu  Cu9  1  0.50000000  0.00000000  0.95688000  1.0
  Cu  Cu10  1  0.50000000  0.50000000  0.95688000  1.0
  Cu  Cu11  1  0.51923000  0.00000000  0.12559000  1.0
  Ge  Ge12  2  0.21441000  0.22548000  0.12805000  1.0
  Ge  Ge13  2  0.25000000  0.25000000  0.95688000  1.0
  Ge  Ge14  1  0.73590000  0.00000000  0.03973000  1.0
  Ge  Ge15  1  0.74642000  0.50000000  0.04278000  1.0
  Ge  Ge16  1  0.75000000  0.00000000  0.87063000  1.0
  Ge  Ge17  1  0.75000000  0.50000000  0.87063000  1.0
  Pd  Pd18  2  0.50000000  0.25000000  0.87063000  1.0
  Pd  Pd19  2  0.50688000  0.24728000  0.04665000  1.0
  Pd  Pd20  1  0.00000000  0.00000000  0.95688000  1.0
  Pd  Pd21  1  0.00000000  0.50000000  0.95688000  1.0
  Pd  Pd22  1  0.91122000  0.00000000  0.12733000  1.0
  Pd  Pd23  1  0.98508000  0.50000000  0.12824000  1.0
  C  C24  1  0.22771000  0.00000000  0.13351000  1.0
