# generated using pymatgen
data_Ti4Fe8Sn4CO
_symmetry_space_group_name_H-M   P1
_cell_length_a   6.02174000
_cell_length_b   6.02174000
_cell_length_c   24.51630000
_cell_angle_alpha   90.00000000
_cell_angle_beta   90.00000000
_cell_angle_gamma   90.00000000
_symmetry_Int_Tables_number   1
_chemical_formula_structural   Ti4Fe8Sn4CO
_chemical_formula_sum   'Ti4 Fe8 Sn4 C1 O1'
_cell_volume   888.99419942
_cell_formula_units_Z   1
loop_
 _symmetry_equiv_pos_site_id
 _symmetry_equiv_pos_as_xyz
  1  'x, y, z'
loop_
 _atom_site_type_symbol
 _atom_site_label
 _atom_site_symmetry_multiplicity
 _atom_site_fract_x
 _atom_site_fract_y
 _atom_site_fract_z
 _atom_site_occupancy
  Ti  Ti0  1  0.00000000  0.00000000  0.90789000  1.0
  Ti  Ti1  1  0.50000000  0.50000000  0.90789000  1.0
  Ti  Ti2  1  0.50225000  0.00003000  0.03527000  1.0
  Ti  Ti3  1  0.99991000  0.50197000  0.03524000  1.0
  Fe  Fe4  1  0.21960000  0.74826000  0.10703000  1.0
  Fe  Fe5  1  0.24648000  0.24623000  0.10192000  1.0
  Fe  Fe6  1  0.25000000  0.25000000  0.96930000  1.0
  Fe  Fe7  1  0.25000000  0.75000000  0.96930000  1.0
  Fe  Fe8  1  0.74776000  0.21878000  0.10697000  1.0
  Fe  Fe9  1  0.75000000  0.25000000  0.96930000  1.0
  Fe  Fe10  1  0.75000000  0.75000000  0.96930000  1.0
  Fe  Fe11  1  0.77275000  0.77370000  0.10588000  1.0
  Sn  Sn12  1  0.00000000  0.50000000  0.90789000  1.0
  Sn  Sn13  1  0.00405000  0.00368000  0.03326000  1.0
  Sn  Sn14  1  0.50000000  0.00000000  0.90789000  1.0
  Sn  Sn15  1  0.50344000  0.50356000  0.03963000  1.0
  C  C16  1  0.24638000  0.24659000  0.17505000  1.0
  O  O17  1  0.24800000  0.24842000  0.22261000  1.0
