# generated using pymatgen
data_Li8Cu8Sn8Pd8C
_symmetry_space_group_name_H-M   Pm
_cell_length_a   6.33545000
_cell_length_b   8.95968000
_cell_length_c   26.71980000
_cell_angle_alpha   90.00000000
_cell_angle_beta   90.00000000
_cell_angle_gamma   90.00000000
_symmetry_Int_Tables_number   6
_chemical_formula_structural   Li8Cu8Sn8Pd8C
_chemical_formula_sum   'Li8 Cu8 Sn8 Pd8 C1'
_cell_volume   1516.71216369
_cell_formula_units_Z   1
loop_
 _symmetry_equiv_pos_site_id
 _symmetry_equiv_pos_as_xyz
  1  'x, y, z'
  2  'x, -y, z'
loop_
 _atom_site_type_symbol
 _atom_site_label
 _atom_site_symmetry_multiplicity
 _atom_site_fract_x
 _atom_site_fract_y
 _atom_site_fract_z
 _atom_site_occupancy
  Li  Li0  2  0.74948000  0.25440000  0.03490000  1.0
  Li  Li1  2  0.75000000  0.25000000  0.87425000  1.0
  Li  Li2  1  0.23995000  0.50000000  0.13114000  1.0
  Li  Li3  1  0.25000000  0.00000000  0.95808000  1.0
  Li  Li4  1  0.25000000  0.50000000  0.95808000  1.0
  Li  Li5  1  0.25271000  0.00000000  0.12738000  1.0
  Cu  Cu6  2  0.50000000  0.25000000  0.95808000  1.0
  Cu  Cu7  2  0.53241000  0.25881000  0.11582000  1.0
  Cu  Cu8  1  -0.00000000  0.50000000  0.87425000  1.0
  Cu  Cu9  1  0.00000000  0.00000000  0.87425000  1.0
  Cu  Cu10  1  0.97823000  0.00000000  0.04535000  1.0
  Cu  Cu11  1  0.98148000  0.50000000  0.05231000  1.0
  Sn  Sn12  2  0.25000000  0.25000000  0.87425000  1.0
  Sn  Sn13  2  0.25419000  0.25106000  0.04160000  1.0
  Sn  Sn14  1  0.65463000  0.00000000  0.16345000  1.0
  Sn  Sn15  1  0.75000000  0.00000000  0.95808000  1.0
  Sn  Sn16  1  0.75000000  0.50000000  0.95808000  1.0
  Sn  Sn17  1  0.76037000  0.50000000  0.14273000  1.0
  Pd  Pd18  2  -0.00000000  0.25000000  0.95808000  1.0
  Pd  Pd19  2  0.95849000  0.23230000  0.11502000  1.0
  Pd  Pd20  1  0.50000000  0.00000000  0.87425000  1.0
  Pd  Pd21  1  0.50000000  0.50000000  0.87425000  1.0
  Pd  Pd22  1  0.51645000  0.50000000  0.04917000  1.0
  Pd  Pd23  1  0.53216000  0.00000000  0.05217000  1.0
  C  C24  1  0.93526000  0.00000000  0.11859000  1.0
