# generated using pymatgen
data_HfAlCu2
_symmetry_space_group_name_H-M   'P 1'
_cell_length_a   4.39794500
_cell_length_b   6.21964000
_cell_length_c   26.59690000
_cell_angle_alpha   90.00000000
_cell_angle_beta   90.00000000
_cell_angle_gamma   90.00000000
_symmetry_Int_Tables_number   1
_chemical_formula_structural   HfAlCu2
_chemical_formula_sum   'Hf4 Al4 Cu8'
_cell_volume   727.52188515
_cell_formula_units_Z   4
loop_
 _symmetry_equiv_pos_site_id
 _symmetry_equiv_pos_as_xyz
  1  'x, y, z'
loop_
 _atom_site_type_symbol
 _atom_site_label
 _atom_site_symmetry_multiplicity
 _atom_site_fract_x
 _atom_site_fract_y
 _atom_site_fract_z
 _atom_site_occupancy
  Hf  Hf0  1  0.00000000  0.00000000  0.12402000  1.0
  Hf  Hf1  1  0.50000000  0.50000000  0.04134000  1.0
  Hf  Hf2  1  0.00000000  0.00000000  0.95818000  1.0
  Hf  Hf3  1  0.50000000  0.50000000  0.87638000  1.0
  Al  Al4  1  0.50000000  0.00000000  0.04134000  1.0
  Al  Al5  1  0.00000000  0.50000000  0.12402000  1.0
  Al  Al6  1  0.50000000  0.00000000  0.87549000  1.0
  Al  Al7  1  0.00000000  0.50000000  0.95763000  1.0
  Cu  Cu8  1  0.00000000  0.75000000  0.04134000  1.0
  Cu  Cu9  1  0.00000000  0.25000000  0.04134000  1.0
  Cu  Cu10  1  0.50000000  0.25000000  0.12402000  1.0
  Cu  Cu11  1  0.50000000  0.75000000  0.12402000  1.0
  Cu  Cu12  1  0.00000000  0.75368000  0.87407000  1.0
  Cu  Cu13  1  0.00000000  0.24632000  0.87407000  1.0
  Cu  Cu14  1  0.50000000  0.25327000  0.95837000  1.0
  Cu  Cu15  1  0.50000000  0.74673000  0.95837000  1.0
