# generated using pymatgen
data_Li8Mg8In8Ag8CO
_symmetry_space_group_name_H-M   Pm
_cell_length_a   6.69019000
_cell_length_b   9.46136000
_cell_length_c   27.09600000
_cell_angle_alpha   90.00000000
_cell_angle_beta   90.00000000
_cell_angle_gamma   90.00000000
_symmetry_Int_Tables_number   6
_chemical_formula_structural   Li8Mg8In8Ag8CO
_chemical_formula_sum   'Li8 Mg8 In8 Ag8 C1 O1'
_cell_volume   1715.13063000
_cell_formula_units_Z   1
loop_
 _symmetry_equiv_pos_site_id
 _symmetry_equiv_pos_as_xyz
  1  'x, y, z'
  2  'x, -y, z'
loop_
 _atom_site_type_symbol
 _atom_site_label
 _atom_site_symmetry_multiplicity
 _atom_site_fract_x
 _atom_site_fract_y
 _atom_site_fract_z
 _atom_site_occupancy
  Li  Li0  2  0.00000000  0.25000000  0.95635000  1.0
  Li  Li1  2  0.01680000  0.24867000  0.14199000  1.0
  Li  Li2  1  0.48798000  0.00000000  0.04606000  1.0
  Li  Li3  1  0.49235000  0.50000000  0.04978000  1.0
  Li  Li4  1  0.50000000  0.00000000  0.86906000  1.0
  Li  Li5  1  0.50000000  0.50000000  0.86906000  1.0
  Mg  Mg6  2  0.24317000  0.25141000  0.04601000  1.0
  Mg  Mg7  2  0.25000000  0.25000000  0.86906000  1.0
  Mg  Mg8  1  0.73586000  0.00000000  0.13169000  1.0
  Mg  Mg9  1  0.74781000  0.50000000  0.13741000  1.0
  Mg  Mg10  1  0.75000000  0.00000000  0.95635000  1.0
  Mg  Mg11  1  0.75000000  0.50000000  0.95635000  1.0
  In  In12  2  0.75000000  0.25000000  0.86906000  1.0
  In  In13  2  0.75178000  0.24977000  0.04810000  1.0
  In  In14  1  0.23494000  0.50000000  0.14631000  1.0
  In  In15  1  0.24849000  0.00000000  0.14435000  1.0
  In  In16  1  0.25000000  0.00000000  0.95635000  1.0
  In  In17  1  0.25000000  0.50000000  0.95635000  1.0
  Ag  Ag18  2  0.48643000  0.25512000  0.13146000  1.0
  Ag  Ag19  2  0.50000000  0.25000000  0.95635000  1.0
  Ag  Ag20  1  -0.00000000  0.50000000  0.86906000  1.0
  Ag  Ag21  1  0.00000000  0.00000000  0.86906000  1.0
  Ag  Ag22  1  0.00257000  0.50000000  0.04535000  1.0
  Ag  Ag23  1  0.00829000  0.00000000  0.04727000  1.0
  C  C24  1  0.75936000  0.00000000  0.21291000  1.0
  O  O25  1  0.76404000  0.00000000  0.25529000  1.0
