# generated using pymatgen
data_Li3Pb
_symmetry_space_group_name_H-M   'P 1'
_cell_length_a   4.75918926
_cell_length_b   4.75918926
_cell_length_c   25.04790000
_cell_angle_alpha   90.00000000
_cell_angle_beta   90.00000000
_cell_angle_gamma   90.00000000
_symmetry_Int_Tables_number   1
_chemical_formula_structural   Li3Pb
_chemical_formula_sum   'Li6 Pb2'
_cell_volume   567.33199012
_cell_formula_units_Z   2
loop_
 _symmetry_equiv_pos_site_id
 _symmetry_equiv_pos_as_xyz
  1  'x, y, z'
loop_
 _atom_site_type_symbol
 _atom_site_label
 _atom_site_symmetry_multiplicity
 _atom_site_fract_x
 _atom_site_fract_y
 _atom_site_fract_z
 _atom_site_occupancy
  Li  Li0  1  0.50000000  0.00000000  0.96641000  1.0
  Li  Li1  1  0.50000000  0.00000000  0.10076000  1.0
  Li  Li2  1  0.00000000  0.50000000  0.96641000  1.0
  Li  Li3  1  0.00000000  0.50000000  0.10076000  1.0
  Li  Li4  1  0.00000000  0.00000000  0.03359000  1.0
  Li  Li5  1  0.50000000  0.50000000  0.89924000  1.0
  Pb  Pb6  1  0.00000000  0.00000000  0.89924000  1.0
  Pb  Pb7  1  0.50000000  0.50000000  0.03359000  1.0
