# generated using pymatgen
data_Y8In8Sn8Pd8C
_symmetry_space_group_name_H-M   Pmm2
_cell_length_a   9.06394000
_cell_length_b   9.16402000
_cell_length_c   26.55030000
_cell_angle_alpha   90.00000000
_cell_angle_beta   90.00000000
_cell_angle_gamma   90.00000000
_symmetry_Int_Tables_number   25
_chemical_formula_structural   Y8In8Sn8Pd8C
_chemical_formula_sum   'Y8 In8 Sn8 Pd8 C1'
_cell_volume   2205.32440214
_cell_formula_units_Z   1
loop_
 _symmetry_equiv_pos_site_id
 _symmetry_equiv_pos_as_xyz
  1  'x, y, z'
  2  '-x, -y, z'
  3  '-x, y, z'
  4  'x, -y, z'
loop_
 _atom_site_type_symbol
 _atom_site_label
 _atom_site_symmetry_multiplicity
 _atom_site_fract_x
 _atom_site_fract_y
 _atom_site_fract_z
 _atom_site_occupancy
  Y  Y0  4  0.25000000  0.25000000  0.87664000  1.0
  Y  Y1  4  0.25750000  0.24952000  0.04519000  1.0
  In  In2  1  0.00000000  0.00000000  0.03251000  1.0
  In  In3  1  0.00000000  0.00000000  0.87664000  1.0
  In  In4  1  0.00000000  0.50000000  0.04490000  1.0
  In  In5  1  0.00000000  0.50000000  0.87664000  1.0
  In  In6  1  0.50000000  0.00000000  0.08228000  1.0
  In  In7  1  0.50000000  0.00000000  0.87664000  1.0
  In  In8  1  0.50000000  0.50000000  0.03536000  1.0
  In  In9  1  0.50000000  0.50000000  0.87664000  1.0
  Sn  Sn10  2  0.00000000  0.25000000  0.95888000  1.0
  Sn  Sn11  2  0.00000000  0.25513000  0.14213000  1.0
  Sn  Sn12  2  0.50000000  0.25000000  0.95888000  1.0
  Sn  Sn13  2  0.50000000  0.32815000  0.13619000  1.0
  Pd  Pd14  2  0.20679000  0.00000000  0.11104000  1.0
  Pd  Pd15  2  0.24039000  0.50000000  0.11809000  1.0
  Pd  Pd16  2  0.25000000  0.00000000  0.95888000  1.0
  Pd  Pd17  2  0.25000000  0.50000000  0.95888000  1.0
  C  C18  1  0.00000000  0.00000000  0.14235000  1.0
