data_image0
_chemical_formula_structural       Y4In4Pd4Au4CO
_chemical_formula_sum              "Y4 In4 Pd4 Au4 C1 O1"
_cell_length_a       6.93157
_cell_length_b       6.93157
_cell_length_c       25.1987
_cell_angle_alpha    90
_cell_angle_beta     90
_cell_angle_gamma    90

_space_group_name_H-M_alt    "P 1"
_space_group_IT_number       1

loop_
  _space_group_symop_operation_xyz
  'x, y, z'

loop_
  _atom_site_type_symbol
  _atom_site_label
  _atom_site_symmetry_multiplicity
  _atom_site_fract_x
  _atom_site_fract_y
  _atom_site_fract_z
  _atom_site_occupancy
  Y   Y1        1.0  0.75000  0.25000  0.96562  1.0000
  Y   Y2        1.0  0.75065  0.74905  0.10233  1.0000
  Y   Y3        1.0  0.25032  0.24909  0.10310  1.0000
  Y   Y4        1.0  0.25000  0.75000  0.96562  1.0000
  In  In1       1.0  0.25000  0.25000  0.96562  1.0000
  In  In2       1.0  0.25024  0.74880  0.10881  1.0000
  In  In3       1.0  0.75033  0.24932  0.10724  1.0000
  In  In4       1.0  0.75000  0.75000  0.96562  1.0000
  Pd  Pd1       1.0  0.00000  0.50000  0.89685  1.0000
  Pd  Pd2       1.0  0.00107  0.99999  0.04027  1.0000
  Pd  Pd3       1.0  0.49935  0.49892  0.04029  1.0000
  Pd  Pd4       1.0  0.50000  0.00000  0.89685  1.0000
  Au  Au1       1.0  0.00000  0.00000  0.89685  1.0000
  Au  Au2       1.0  0.00213  0.49982  0.03807  1.0000
  Au  Au3       1.0  0.49889  0.99887  0.03814  1.0000
  Au  Au4       1.0  0.50000  0.50000  0.89685  1.0000
  C   C1        1.0  0.64873  0.18772  0.25374  1.0000
  O   O1        1.0  0.77556  0.26563  0.27288  1.0000
