# generated using pymatgen
data_Li8Mg8Al8Pt8C
_symmetry_space_group_name_H-M   Pm
_cell_length_a   6.24880000
_cell_length_b   8.83714000
_cell_length_c   26.62790000
_cell_angle_alpha   90.00000000
_cell_angle_beta   90.00000000
_cell_angle_gamma   90.00000000
_symmetry_Int_Tables_number   6
_chemical_formula_structural   Li8Mg8Al8Pt8C
_chemical_formula_sum   'Li8 Mg8 Al8 Pt8 C1'
_cell_volume   1470.43312391
_cell_formula_units_Z   1
loop_
 _symmetry_equiv_pos_site_id
 _symmetry_equiv_pos_as_xyz
  1  'x, y, z'
  2  'x, -y, z'
loop_
 _atom_site_type_symbol
 _atom_site_label
 _atom_site_symmetry_multiplicity
 _atom_site_fract_x
 _atom_site_fract_y
 _atom_site_fract_z
 _atom_site_occupancy
  Li  Li0  2  0.25000000  0.24999000  0.95852000  1.0
  Li  Li1  2  0.29436000  0.27394000  0.14157000  1.0
  Li  Li2  1  0.75000000  0.00000000  0.87555000  1.0
  Li  Li3  1  0.75000000  0.50000000  0.87555000  1.0
  Li  Li4  1  0.76203000  0.50000000  0.03785000  1.0
  Li  Li5  1  0.77550000  0.00000000  0.05010000  1.0
  Mg  Mg6  2  0.49912000  0.24991000  0.04111000  1.0
  Mg  Mg7  2  0.50000000  0.25001000  0.87555000  1.0
  Mg  Mg8  1  0.00000000  0.00000000  0.95852000  1.0
  Mg  Mg9  1  0.00000000  0.50000000  0.95852000  1.0
  Mg  Mg10  1  0.05762000  0.00000000  0.14191000  1.0
  Mg  Mg11  1  0.98514000  0.50000000  0.12580000  1.0
  Al  Al12  2  0.00000000  0.24999000  0.87555000  1.0
  Al  Al13  2  0.00689000  0.25224000  0.04454000  1.0
  Al  Al14  1  0.45448000  0.00000000  0.11748000  1.0
  Al  Al15  1  0.50000000  0.00000000  0.95852000  1.0
  Al  Al16  1  0.50000000  0.50000000  0.95852000  1.0
  Al  Al17  1  0.54672000  0.50000000  0.11838000  1.0
  Pt  Pt18  2  0.75000000  0.24999000  0.95852000  1.0
  Pt  Pt19  2  0.75074000  0.23347000  0.11992000  1.0
  Pt  Pt20  1  0.24173000  0.00000000  0.03772000  1.0
  Pt  Pt21  1  0.25000000  0.00000000  0.87555000  1.0
  Pt  Pt22  1  0.25000000  0.50000000  0.87555000  1.0
  Pt  Pt23  1  0.25085000  0.50000000  0.04160000  1.0
  C  C24  1  0.73692000  0.00000000  0.14136000  1.0
