# generated using pymatgen
data_Li8Mg8In8Pd8C
_symmetry_space_group_name_H-M   'P 1'
_cell_length_a   9.22454000
_cell_length_b   6.52273000
_cell_length_c   26.91840000
_cell_angle_alpha   90.00000000
_cell_angle_beta   90.00000000
_cell_angle_gamma   90.00000000
_symmetry_Int_Tables_number   1
_chemical_formula_structural   Li8Mg8In8Pd8C
_chemical_formula_sum   'Li8 Mg8 In8 Pd8 C1'
_cell_volume   1619.65815705
_cell_formula_units_Z   1
loop_
 _symmetry_equiv_pos_site_id
 _symmetry_equiv_pos_as_xyz
  1  'x, y, z'
loop_
 _atom_site_type_symbol
 _atom_site_label
 _atom_site_symmetry_multiplicity
 _atom_site_fract_x
 _atom_site_fract_y
 _atom_site_fract_z
 _atom_site_occupancy
  Li  Li0  1  0.75000000  0.25000000  0.04284000  1.0
  Li  Li1  1  0.25000000  0.25000000  0.04284000  1.0
  Li  Li2  1  0.00000000  0.75000000  0.12851000  1.0
  Li  Li3  1  0.50000000  0.75000000  0.12851000  1.0
  Li  Li4  1  0.26537000  0.27357000  0.86358000  1.0
  Li  Li5  1  0.73463000  0.27357000  0.86358000  1.0
  Li  Li6  1  0.50000000  0.74538000  0.95826000  1.0
  Li  Li7  1  0.00000000  0.73287000  0.94540000  1.0
  Mg  Mg8  1  0.00000000  1.00000000  0.04284000  1.0
  Mg  Mg9  1  0.50000000  1.00000000  0.04284000  1.0
  Mg  Mg10  1  0.25000000  0.50000000  0.12851000  1.0
  Mg  Mg11  1  0.75000000  0.50000000  0.12851000  1.0
  Mg  Mg12  1  0.50000000  0.97193000  0.87161000  1.0
  Mg  Mg13  1  0.00000000  0.04106000  0.87053000  1.0
  Mg  Mg14  1  0.74792000  0.49226000  0.95739000  1.0
  Mg  Mg15  1  0.25208000  0.49226000  0.95739000  1.0
  In  In16  1  0.75000000  0.00000000  0.12851000  1.0
  In  In17  1  0.25000000  0.00000000  0.12851000  1.0
  In  In18  1  0.50000000  0.50000000  0.04284000  1.0
  In  In19  1  0.00000000  0.50000000  0.04284000  1.0
  In  In20  1  0.24891000  0.00010000  0.95440000  1.0
  In  In21  1  0.75109000  0.00010000  0.95440000  1.0
  In  In22  1  0.00000000  0.43333000  0.82530000  1.0
  In  In23  1  0.50000000  0.52509000  0.86542000  1.0
  Pd  Pd24  1  0.75000000  0.75000000  0.04284000  1.0
  Pd  Pd25  1  0.25000000  0.75000000  0.04284000  1.0
  Pd  Pd26  1  0.00000000  0.25000000  0.12851000  1.0
  Pd  Pd27  1  0.50000000  0.25000000  0.12851000  1.0
  Pd  Pd28  1  0.22300000  0.72151000  0.87552000  1.0
  Pd  Pd29  1  0.77700000  0.72151000  0.87552000  1.0
  Pd  Pd30  1  0.50000000  0.24860000  0.95489000  1.0
  Pd  Pd31  1  0.00000000  0.25040000  0.95988000  1.0
  C  C32  1  0.00000000  0.72173000  0.86306000  1.0
