data_image0
_chemical_formula_structural       Y4In4Cu4Sn4CO
_chemical_formula_sum              "Y4 In4 Cu4 Sn4 C1 O1"
_cell_length_a       6.24938
_cell_length_b       9.14612
_cell_length_c       24.687
_cell_angle_alpha    90
_cell_angle_beta     90
_cell_angle_gamma    90

_space_group_name_H-M_alt    "P 1"
_space_group_IT_number       1

loop_
  _space_group_symop_operation_xyz
  'x, y, z'

loop_
  _atom_site_type_symbol
  _atom_site_label
  _atom_site_symmetry_multiplicity
  _atom_site_fract_x
  _atom_site_fract_y
  _atom_site_fract_z
  _atom_site_occupancy
  Y   Y1        1.0  0.27882  0.24974  0.03293  1.0000
  Y   Y2        1.0  0.74840  0.25000  0.90507  1.0000
  Y   Y3        1.0  0.27881  0.75026  0.03293  1.0000
  Y   Y4        1.0  0.74840  0.75000  0.90507  1.0000
  In  In1       1.0  0.50840  1.00000  0.09904  1.0000
  In  In2       1.0  0.99893  0.00000  0.96836  1.0000
  In  In3       1.0  0.50855  0.50000  0.09916  1.0000
  In  In4       1.0  0.99893  0.50000  0.96836  1.0000
  Cu  Cu1       1.0  0.03505  0.99999  0.07816  1.0000
  Cu  Cu2       1.0  0.49893  0.00000  0.96836  1.0000
  Cu  Cu3       1.0  0.03461  0.50000  0.07789  1.0000
  Cu  Cu4       1.0  0.49893  0.50000  0.96836  1.0000
  Sn  Sn1       1.0  0.78174  0.24954  0.05505  1.0000
  Sn  Sn2       1.0  0.24840  0.25000  0.90507  1.0000
  Sn  Sn3       1.0  0.78174  0.75046  0.05505  1.0000
  Sn  Sn4       1.0  0.24840  0.75000  0.90507  1.0000
  C   C1        1.0  0.59804  1.00000  0.23851  1.0000
  O   O1        1.0  0.47378  0.99999  0.27210  1.0000
