# generated using pymatgen
data_Y4In4Ge4Pd4C
_symmetry_space_group_name_H-M   Pm
_cell_length_a   5.95203000
_cell_length_b   9.45024000
_cell_length_c   24.43650000
_cell_angle_alpha   90.00000000
_cell_angle_beta   90.00000000
_cell_angle_gamma   90.00000000
_symmetry_Int_Tables_number   6
_chemical_formula_structural   Y4In4Ge4Pd4C
_chemical_formula_sum   'Y4 In4 Ge4 Pd4 C1'
_cell_volume   1374.50698858
_cell_formula_units_Z   1
loop_
 _symmetry_equiv_pos_site_id
 _symmetry_equiv_pos_as_xyz
  1  'x, y, z'
  2  'x, -y, z'
loop_
 _atom_site_type_symbol
 _atom_site_label
 _atom_site_symmetry_multiplicity
 _atom_site_fract_x
 _atom_site_fract_y
 _atom_site_fract_z
 _atom_site_occupancy
  Y  Y0  1  0.50000000  0.00000000  0.90922000  1.0
  Y  Y1  1  0.50000000  0.50000000  0.90922000  1.0
  Y  Y2  1  0.84498000  0.50000000  0.03219000  1.0
  Y  Y3  1  0.88351000  0.00000000  0.03002000  1.0
  In  In4  2  0.22227000  0.24999000  0.96974000  1.0
  In  In5  2  0.62576000  0.22594000  0.10222000  1.0
  Ge  Ge6  1  0.00000000  0.50000000  0.90922000  1.0
  Ge  Ge7  1  0.00000000  0.00000000  0.90922000  1.0
  Ge  Ge8  1  0.36381000  0.00000000  0.05617000  1.0
  Ge  Ge9  1  0.41909000  0.50000000  0.09982000  1.0
  Pd  Pd10  2  0.12663000  0.25828000  0.08102000  1.0
  Pd  Pd11  2  0.72227000  0.24999000  0.96974000  1.0
  C  C12  1  0.11120000  0.50000000  0.09728000  1.0
