# generated using pymatgen
data_Ga8Fe16Ni8C
_symmetry_space_group_name_H-M   Pm
_cell_length_a   8.22225000
_cell_length_b   5.81401000
_cell_length_c   26.16670000
_cell_angle_alpha   90.00000000
_cell_angle_beta   90.00000000
_cell_angle_gamma   90.00000000
_symmetry_Int_Tables_number   6
_chemical_formula_structural   Ga8Fe16Ni8C
_chemical_formula_sum   'Ga8 Fe16 Ni8 C1'
_cell_volume   1250.87930421
_cell_formula_units_Z   1
loop_
 _symmetry_equiv_pos_site_id
 _symmetry_equiv_pos_as_xyz
  1  'x, y, z'
  2  'x, -y, z'
loop_
 _atom_site_type_symbol
 _atom_site_label
 _atom_site_symmetry_multiplicity
 _atom_site_fract_x
 _atom_site_fract_y
 _atom_site_fract_z
 _atom_site_occupancy
  Ga  Ga0  1  0.00000000  0.00000000  0.88217000  1.0
  Ga  Ga1  1  0.00009000  0.00000000  0.03776000  1.0
  Ga  Ga2  1  0.25000000  0.50000000  0.96072000  1.0
  Ga  Ga3  1  0.25582000  0.50000000  0.13420000  1.0
  Ga  Ga4  1  0.50000000  0.00000000  0.88217000  1.0
  Ga  Ga5  1  0.50004000  0.00000000  0.03719000  1.0
  Ga  Ga6  1  0.74412000  0.50000000  0.13420000  1.0
  Ga  Ga7  1  0.75000000  0.50000000  0.96072000  1.0
  Fe  Fe8  2  0.00000000  0.25000000  0.96072000  1.0
  Fe  Fe9  2  0.25000000  0.25000000  0.88217000  1.0
  Fe  Fe10  2  0.25074000  0.26060000  0.04718000  1.0
  Fe  Fe11  2  0.49997000  0.25545000  0.11348000  1.0
  Fe  Fe12  2  0.50000000  0.25000000  0.96072000  1.0
  Fe  Fe13  2  0.74936000  0.26054000  0.04718000  1.0
  Fe  Fe14  2  0.75000000  0.25000000  0.88217000  1.0
  Fe  Fe15  2  0.99996000  0.28727000  0.11322000  1.0
  Ni  Ni16  1  0.00000000  0.50000000  0.88217000  1.0
  Ni  Ni17  1  0.00003000  0.50000000  0.03040000  1.0
  Ni  Ni18  1  0.22903000  0.00000000  0.12420000  1.0
  Ni  Ni19  1  0.25000000  0.00000000  0.96072000  1.0
  Ni  Ni20  1  0.50000000  0.50000000  0.88217000  1.0
  Ni  Ni21  1  0.50006000  0.50000000  0.03099000  1.0
  Ni  Ni22  1  0.75000000  0.00000000  0.96072000  1.0
  Ni  Ni23  1  0.77083000  0.00000000  0.12421000  1.0
  C  C24  1  0.99996000  0.00000000  0.14188000  1.0
