# generated using pymatgen
data_Li16Ga8Pd8C
_symmetry_space_group_name_H-M   Pm
_cell_length_a   6.14873000
_cell_length_b   8.69561000
_cell_length_c   26.52170000
_cell_angle_alpha   90.00000000
_cell_angle_beta   90.00000000
_cell_angle_gamma   90.00000000
_symmetry_Int_Tables_number   6
_chemical_formula_structural   Li16Ga8Pd8C
_chemical_formula_sum   'Li16 Ga8 Pd8 C1'
_cell_volume   1418.03462199
_cell_formula_units_Z   1
loop_
 _symmetry_equiv_pos_site_id
 _symmetry_equiv_pos_as_xyz
  1  'x, y, z'
  2  'x, -y, z'
loop_
 _atom_site_type_symbol
 _atom_site_label
 _atom_site_symmetry_multiplicity
 _atom_site_fract_x
 _atom_site_fract_y
 _atom_site_fract_z
 _atom_site_occupancy
  Li  Li0  2  0.50000000  0.25000000  0.87705000  1.0
  Li  Li1  2  0.50308000  0.24688000  0.04207000  1.0
  Li  Li2  2  0.71524000  0.27402000  0.13204000  1.0
  Li  Li3  2  0.75000000  0.25000000  0.95902000  1.0
  Li  Li4  1  -0.00000000  0.50000000  0.95902000  1.0
  Li  Li5  1  0.00000000  0.00000000  0.95902000  1.0
  Li  Li6  1  0.02915000  0.50000000  0.12198000  1.0
  Li  Li7  1  0.23442000  0.00000000  0.04509000  1.0
  Li  Li8  1  0.24413000  0.50000000  0.03553000  1.0
  Li  Li9  1  0.25000000  0.00000000  0.87705000  1.0
  Li  Li10  1  0.25000000  0.50000000  0.87705000  1.0
  Li  Li11  1  0.94684000  0.00000000  0.13011000  1.0
  Ga  Ga12  2  0.24302000  0.22900000  0.12923000  1.0
  Ga  Ga13  2  0.25000000  0.25000000  0.95902000  1.0
  Ga  Ga14  1  0.74225000  0.50000000  0.04410000  1.0
  Ga  Ga15  1  0.75000000  0.00000000  0.87705000  1.0
  Ga  Ga16  1  0.75000000  0.50000000  0.87705000  1.0
  Ga  Ga17  1  0.77321000  0.00000000  0.03277000  1.0
  Pd  Pd18  2  0.00000000  0.25000000  0.87705000  1.0
  Pd  Pd19  2  0.99166000  0.25605000  0.04352000  1.0
  Pd  Pd20  1  0.44729000  0.50000000  0.11590000  1.0
  Pd  Pd21  1  0.50000000  0.00000000  0.95902000  1.0
  Pd  Pd22  1  0.50000000  0.50000000  0.95902000  1.0
  Pd  Pd23  1  0.56265000  0.00000000  0.11050000  1.0
  C  C24  1  0.25958000  0.00000000  0.13709000  1.0
