# generated using pymatgen
data_Ti16Ni16C
_symmetry_space_group_name_H-M   'P 1'
_cell_length_a   6.05499000
_cell_length_b   8.56306000
_cell_length_c   26.42230000
_cell_angle_alpha   90.00000000
_cell_angle_beta   90.00000000
_cell_angle_gamma   90.00000000
_symmetry_Int_Tables_number   1
_chemical_formula_structural   Ti16Ni16C
_chemical_formula_sum   'Ti16 Ni16 C1'
_cell_volume   1369.97624458
_cell_formula_units_Z   1
loop_
 _symmetry_equiv_pos_site_id
 _symmetry_equiv_pos_as_xyz
  1  'x, y, z'
loop_
 _atom_site_type_symbol
 _atom_site_label
 _atom_site_symmetry_multiplicity
 _atom_site_fract_x
 _atom_site_fract_y
 _atom_site_fract_z
 _atom_site_occupancy
  Ti  Ti0  1  0.25000000  0.25000000  0.87847000  1.0
  Ti  Ti1  1  0.25000000  0.50000000  0.95949000  1.0
  Ti  Ti2  1  0.24917000  0.25004000  0.04300000  1.0
  Ti  Ti3  1  0.25000000  0.49230000  0.12370000  1.0
  Ti  Ti4  1  0.25000000  0.75000000  0.87847000  1.0
  Ti  Ti5  1  0.25000000  0.00000000  0.95949000  1.0
  Ti  Ti6  1  0.25003000  0.74996000  0.03949000  1.0
  Ti  Ti7  1  0.25000000  0.00770000  0.12371000  1.0
  Ti  Ti8  1  0.75000000  0.25000000  0.87847000  1.0
  Ti  Ti9  1  0.75000000  0.50000000  0.95949000  1.0
  Ti  Ti10  1  0.74920000  0.25003000  0.03857000  1.0
  Ti  Ti11  1  0.75011000  0.51147000  0.12454000  1.0
  Ti  Ti12  1  0.75000000  0.75000000  0.87847000  1.0
  Ti  Ti13  1  0.75000000  0.00000000  0.95949000  1.0
  Ti  Ti14  1  0.74998000  0.74997000  0.03960000  1.0
  Ti  Ti15  1  0.75011000  0.98852000  0.12455000  1.0
  Ni  Ni16  1  0.00000000  0.00000000  0.87847000  1.0
  Ni  Ni17  1  0.00000000  0.25000000  0.95949000  1.0
  Ni  Ni18  1  0.99764000  0.50250000  0.04406000  1.0
  Ni  Ni19  1  0.94685000  0.24997000  0.11757000  1.0
  Ni  Ni20  1  0.00000000  0.50000000  0.87847000  1.0
  Ni  Ni21  1  0.00000000  0.75000000  0.95949000  1.0
  Ni  Ni22  1  0.99766000  0.99748000  0.04404000  1.0
  Ni  Ni23  1  0.00932000  0.75003000  0.11310000  1.0
  Ni  Ni24  1  0.50000000  0.00000000  0.87847000  1.0
  Ni  Ni25  1  0.50000000  0.25000000  0.95949000  1.0
  Ni  Ni26  1  0.50063000  0.50255000  0.04416000  1.0
  Ni  Ni27  1  0.55052000  0.24995000  0.11754000  1.0
  Ni  Ni28  1  0.50000000  0.50000000  0.87847000  1.0
  Ni  Ni29  1  0.50000000  0.75000000  0.95949000  1.0
  Ni  Ni30  1  0.50065000  0.99744000  0.04414000  1.0
  Ni  Ni31  1  0.49173000  0.75002000  0.11310000  1.0
  C  C32  1  0.24854000  0.25001000  0.12733000  1.0
