# generated using pymatgen
data_Li4Al4Fe4Pd4C
_symmetry_space_group_name_H-M   'P 1'
_cell_length_a   5.15535000
_cell_length_b   8.84236000
_cell_length_c   23.55420000
_cell_angle_alpha   90.00000000
_cell_angle_beta   90.00000000
_cell_angle_gamma   90.00000000
_symmetry_Int_Tables_number   1
_chemical_formula_structural   Li4Al4Fe4Pd4C
_chemical_formula_sum   'Li4 Al4 Fe4 Pd4 C1'
_cell_volume   1073.72905668
_cell_formula_units_Z   1
loop_
 _symmetry_equiv_pos_site_id
 _symmetry_equiv_pos_as_xyz
  1  'x, y, z'
loop_
 _atom_site_type_symbol
 _atom_site_label
 _atom_site_symmetry_multiplicity
 _atom_site_fract_x
 _atom_site_fract_y
 _atom_site_fract_z
 _atom_site_occupancy
  Li  Li0  1  0.69972000  0.24978000  0.00594000  1.0
  Li  Li1  1  0.95472000  0.25000000  0.92455000  1.0
  Li  Li2  1  0.64048000  0.75001000  0.03350000  1.0
  Li  Li3  1  0.95472000  0.75000000  0.92455000  1.0
  Al  Al4  1  0.01082000  0.99521000  0.06996000  1.0
  Al  Al5  1  0.30315000  0.00000000  0.97485000  1.0
  Al  Al6  1  0.01137000  0.50506000  0.06998000  1.0
  Al  Al7  1  0.30315000  0.50000000  0.97485000  1.0
  Fe  Fe8  1  0.54177000  0.05632000  0.06229000  1.0
  Fe  Fe9  1  0.80315000  0.00000000  0.97485000  1.0
  Fe  Fe10  1  0.54263000  0.44367000  0.06212000  1.0
  Fe  Fe11  1  0.80315000  0.50000000  0.97485000  1.0
  Pd  Pd12  1  0.15425000  0.25013000  0.02989000  1.0
  Pd  Pd13  1  0.45472000  0.25000000  0.92455000  1.0
  Pd  Pd14  1  0.13794000  0.75012000  0.02492000  1.0
  Pd  Pd15  1  0.45472000  0.75000000  0.92455000  1.0
  C  C16  1  0.51853000  0.25002000  0.07868000  1.0
