# generated using pymatgen
data_Sc8Pd24CO
_symmetry_space_group_name_H-M   'P 1'
_cell_length_a   8.08515000
_cell_length_b   8.08515000
_cell_length_c   26.06390000
_cell_angle_alpha   90.00000000
_cell_angle_beta   90.00000000
_cell_angle_gamma   90.00000000
_symmetry_Int_Tables_number   1
_chemical_formula_structural   Sc8Pd24CO
_chemical_formula_sum   'Sc8 Pd24 C1 O1'
_cell_volume   1703.78803425
_cell_formula_units_Z   1
loop_
 _symmetry_equiv_pos_site_id
 _symmetry_equiv_pos_as_xyz
  1  'x, y, z'
loop_
 _atom_site_type_symbol
 _atom_site_label
 _atom_site_symmetry_multiplicity
 _atom_site_fract_x
 _atom_site_fract_y
 _atom_site_fract_z
 _atom_site_occupancy
  Sc  Sc0  1  0.75000000  0.00000000  0.88367000  1.0
  Sc  Sc1  1  0.75000000  0.00000000  0.03878000  1.0
  Sc  Sc2  1  0.75000000  0.50000000  0.88367000  1.0
  Sc  Sc3  1  0.75000000  0.50000000  0.03878000  1.0
  Sc  Sc4  1  0.25000000  0.00000000  0.88367000  1.0
  Sc  Sc5  1  0.25000000  0.00000000  0.03878000  1.0
  Sc  Sc6  1  0.25000000  0.50000000  0.88367000  1.0
  Sc  Sc7  1  0.25000000  0.50000000  0.03878000  1.0
  Pd  Pd8  1  0.75000000  0.25000000  0.96122000  1.0
  Pd  Pd9  1  0.00000000  0.00000000  0.96122000  1.0
  Pd  Pd10  1  0.00000000  0.25000000  0.88367000  1.0
  Pd  Pd11  1  0.75000000  0.25000000  0.11633000  1.0
  Pd  Pd12  1  0.00000000  0.00000000  0.11633000  1.0
  Pd  Pd13  1  0.00000000  0.25000000  0.03878000  1.0
  Pd  Pd14  1  0.75000000  0.75000000  0.96122000  1.0
  Pd  Pd15  1  0.00000000  0.50000000  0.96122000  1.0
  Pd  Pd16  1  0.00000000  0.75000000  0.88367000  1.0
  Pd  Pd17  1  0.75000000  0.75000000  0.11633000  1.0
  Pd  Pd18  1  0.00000000  0.50000000  0.11633000  1.0
  Pd  Pd19  1  0.00000000  0.75000000  0.03878000  1.0
  Pd  Pd20  1  0.25000000  0.25000000  0.96122000  1.0
  Pd  Pd21  1  0.50000000  0.00000000  0.96122000  1.0
  Pd  Pd22  1  0.50000000  0.25000000  0.88367000  1.0
  Pd  Pd23  1  0.25000000  0.25000000  0.11633000  1.0
  Pd  Pd24  1  0.50000000  0.00000000  0.11633000  1.0
  Pd  Pd25  1  0.50000000  0.25000000  0.03878000  1.0
  Pd  Pd26  1  0.25000000  0.75000000  0.96122000  1.0
  Pd  Pd27  1  0.50000000  0.50000000  0.96122000  1.0
  Pd  Pd28  1  0.50000000  0.75000000  0.88367000  1.0
  Pd  Pd29  1  0.25000000  0.75000000  0.11633000  1.0
  Pd  Pd30  1  0.50000000  0.50000000  0.11633000  1.0
  Pd  Pd31  1  0.50000000  0.75000000  0.03878000  1.0
  C  C32  1  0.00000000  0.00000000  0.18922000  1.0
  O  O33  1  0.00000000  0.00000000  0.23335000  1.0
