# generated using pymatgen
data_Li4Mg4Cu4Pd4C
_symmetry_space_group_name_H-M   Pm
_cell_length_a   5.49079000
_cell_length_b   7.89062000
_cell_length_c   24.11290000
_cell_angle_alpha   90.00000000
_cell_angle_beta   90.00000000
_cell_angle_gamma   90.00000000
_symmetry_Int_Tables_number   6
_chemical_formula_structural   Li4Mg4Cu4Pd4C
_chemical_formula_sum   'Li4 Mg4 Cu4 Pd4 C1'
_cell_volume   1044.70917311
_cell_formula_units_Z   1
loop_
 _symmetry_equiv_pos_site_id
 _symmetry_equiv_pos_as_xyz
  1  'x, y, z'
  2  'x, -y, z'
loop_
 _atom_site_type_symbol
 _atom_site_label
 _atom_site_symmetry_multiplicity
 _atom_site_fract_x
 _atom_site_fract_y
 _atom_site_fract_z
 _atom_site_occupancy
  Li  Li0  2  0.23745000  0.25000000  0.97157000  1.0
  Li  Li1  2  0.71236000  0.25000000  0.08528000  1.0
  Mg  Mg2  1  0.50000000  0.00000000  0.91472000  1.0
  Mg  Mg3  1  0.50000000  0.50000000  0.91472000  1.0
  Mg  Mg4  1  0.97490000  0.00000000  0.02843000  1.0
  Mg  Mg5  1  0.97490000  0.50000000  0.02843000  1.0
  Cu  Cu6  1  0.00000000  0.00000000  0.91472000  1.0
  Cu  Cu7  1  0.00000000  0.50000000  0.91472000  1.0
  Cu  Cu8  1  0.47490000  0.00000000  0.02843000  1.0
  Cu  Cu9  1  0.47490000  0.50000000  0.02843000  1.0
  Pd  Pd10  2  0.21236000  0.25000000  0.08528000  1.0
  Pd  Pd11  2  0.73745000  0.25000000  0.97157000  1.0
  C  C12  1  0.47490000  0.00000000  0.11846000  1.0
