# generated using pymatgen
data_Zn4Pt12CO
_symmetry_space_group_name_H-M   Pm
_cell_length_a   7.90864000
_cell_length_b   5.59226000
_cell_length_c   24.19420000
_cell_angle_alpha   90.00000000
_cell_angle_beta   90.00000000
_cell_angle_gamma   90.00000000
_symmetry_Int_Tables_number   6
_chemical_formula_structural   Zn4Pt12CO
_chemical_formula_sum   'Zn4 Pt12 C1 O1'
_cell_volume   1070.04102367
_cell_formula_units_Z   1
loop_
 _symmetry_equiv_pos_site_id
 _symmetry_equiv_pos_as_xyz
  1  'x, y, z'
  2  'x, -y, z'
loop_
 _atom_site_type_symbol
 _atom_site_label
 _atom_site_symmetry_multiplicity
 _atom_site_fract_x
 _atom_site_fract_y
 _atom_site_fract_z
 _atom_site_occupancy
  Zn  Zn0  1  0.00000000  0.50000000  0.97111000  1.0
  Zn  Zn1  1  0.00082000  0.00000000  0.08298000  1.0
  Zn  Zn2  1  0.50000000  0.50000000  0.97111000  1.0
  Zn  Zn3  1  0.50765000  0.00000000  0.08220000  1.0
  Pt  Pt4  2  0.25000000  0.24999000  0.91332000  1.0
  Pt  Pt5  2  0.25229000  0.24640000  0.03253000  1.0
  Pt  Pt6  2  0.75000000  0.24999000  0.91332000  1.0
  Pt  Pt7  2  0.75976000  0.24950000  0.03160000  1.0
  Pt  Pt8  1  0.00000000  0.00000000  0.97111000  1.0
  Pt  Pt9  1  0.50000000  0.00000000  0.97111000  1.0
  Pt  Pt10  1  0.50757000  0.50000000  0.08087000  1.0
  Pt  Pt11  1  0.99437000  0.50000000  0.09346000  1.0
  C  C12  1  0.12893000  0.50000000  0.15759000  1.0
  O  O13  1  0.19966000  0.50000000  0.19936000  1.0
