# generated using pymatgen
data_Zr8Ga8Ni16CO
_symmetry_space_group_name_H-M   Pmm2
_cell_length_a   6.14888000
_cell_length_b   8.69583000
_cell_length_c   26.52190000
_cell_angle_alpha   90.00000000
_cell_angle_beta   90.00000000
_cell_angle_gamma   90.00000000
_symmetry_Int_Tables_number   25
_chemical_formula_structural   Zr8Ga8Ni16CO
_chemical_formula_sum   'Zr8 Ga8 Ni16 C1 O1'
_cell_volume   1418.11578659
_cell_formula_units_Z   1
loop_
 _symmetry_equiv_pos_site_id
 _symmetry_equiv_pos_as_xyz
  1  'x, y, z'
  2  '-x, -y, z'
  3  '-x, y, z'
  4  'x, -y, z'
loop_
 _atom_site_type_symbol
 _atom_site_label
 _atom_site_symmetry_multiplicity
 _atom_site_fract_x
 _atom_site_fract_y
 _atom_site_fract_z
 _atom_site_occupancy
  Zr  Zr0  2  0.00000000  0.25001000  0.87705000  1.0
  Zr  Zr1  2  0.00000000  0.25140000  0.04006000  1.0
  Zr  Zr2  1  0.50000000  0.00000000  0.12594000  1.0
  Zr  Zr3  1  0.50000000  0.00000000  0.95902000  1.0
  Zr  Zr4  1  0.50000000  0.50000000  0.12704000  1.0
  Zr  Zr5  1  0.50000000  0.50000000  0.95902000  1.0
  Ga  Ga6  2  0.50000000  0.25001000  0.87705000  1.0
  Ga  Ga7  2  0.50000000  0.25003000  0.04172000  1.0
  Ga  Ga8  1  0.00000000  0.00000000  0.12107000  1.0
  Ga  Ga9  1  0.00000000  0.00000000  0.95902000  1.0
  Ga  Ga10  1  0.00000000  0.50000000  0.12184000  1.0
  Ga  Ga11  1  0.00000000  0.50000000  0.95902000  1.0
  Ni  Ni12  4  0.24288000  0.25160000  0.11777000  1.0
  Ni  Ni13  4  0.25000000  0.25001000  0.95902000  1.0
  Ni  Ni14  2  0.25000000  0.00000000  0.87705000  1.0
  Ni  Ni15  2  0.25000000  0.50000000  0.87705000  1.0
  Ni  Ni16  2  0.26665000  0.00000000  0.04391000  1.0
  Ni  Ni17  2  0.26976000  0.50000000  0.04380000  1.0
  C  C18  1  0.00000000  0.00000000  0.20024000  1.0
  O  O19  1  0.00000000  0.00000000  0.24379000  1.0
