# generated using pymatgen
data_Li4Sc4Al4In4C
_symmetry_space_group_name_H-M   Pm
_cell_length_a   5.96334000
_cell_length_b   8.71362000
_cell_length_c   24.47210000
_cell_angle_alpha   90.00000000
_cell_angle_beta   90.00000000
_cell_angle_gamma   90.00000000
_symmetry_Int_Tables_number   6
_chemical_formula_structural   Li4Sc4Al4In4C
_chemical_formula_sum   'Li4 Sc4 Al4 In4 C1'
_cell_volume   1271.62608035
_cell_formula_units_Z   1
loop_
 _symmetry_equiv_pos_site_id
 _symmetry_equiv_pos_as_xyz
  1  'x, y, z'
  2  'x, -y, z'
loop_
 _atom_site_type_symbol
 _atom_site_label
 _atom_site_symmetry_multiplicity
 _atom_site_fract_x
 _atom_site_fract_y
 _atom_site_fract_z
 _atom_site_occupancy
  Li  Li0  1  0.23945000  0.00000000  0.90863000  1.0
  Li  Li1  1  0.23945000  0.50000000  0.90863000  1.0
  Li  Li2  1  0.70843000  0.00000000  0.02190000  1.0
  Li  Li3  1  0.73252000  0.50000000  0.04287000  1.0
  Sc  Sc4  2  0.44707000  0.19570000  0.09698000  1.0
  Sc  Sc5  2  0.99297000  0.25000000  0.96954000  1.0
  Al  Al6  2  0.49297000  0.25000000  0.96954000  1.0
  Al  Al7  2  0.95815000  0.15764000  0.09788000  1.0
  In  In8  1  0.23373000  0.00000000  0.01612000  1.0
  In  In9  1  0.24594000  0.50000000  0.04140000  1.0
  In  In10  1  0.73945000  0.00000000  0.90863000  1.0
  In  In11  1  0.73945000  0.50000000  0.90863000  1.0
  C  C12  1  0.21556000  0.00000000  0.11456000  1.0
