# generated using pymatgen
data_Li8Sb4Au4C
_symmetry_space_group_name_H-M   'P 1'
_cell_length_a   6.66546000
_cell_length_b   6.66546000
_cell_length_c   24.99910000
_cell_angle_alpha   90.00000000
_cell_angle_beta   90.00000000
_cell_angle_gamma   90.00000000
_symmetry_Int_Tables_number   1
_chemical_formula_structural   Li8Sb4Au4C
_chemical_formula_sum   'Li8 Sb4 Au4 C1'
_cell_volume   1110.66893977
_cell_formula_units_Z   1
loop_
 _symmetry_equiv_pos_site_id
 _symmetry_equiv_pos_as_xyz
  1  'x, y, z'
loop_
 _atom_site_type_symbol
 _atom_site_label
 _atom_site_symmetry_multiplicity
 _atom_site_fract_x
 _atom_site_fract_y
 _atom_site_fract_z
 _atom_site_occupancy
  Li  Li0  1  0.00000000  0.00000000  0.96776000  1.0
  Li  Li1  1  0.50000000  0.00000000  0.09999000  1.0
  Li  Li2  1  0.00000000  0.50000000  0.09999000  1.0
  Li  Li3  1  0.50000000  0.50000000  0.96831000  1.0
  Li  Li4  1  0.22223000  0.27736000  0.87172000  1.0
  Li  Li5  1  0.25000000  0.75000000  0.03333000  1.0
  Li  Li6  1  0.77777000  0.72264000  0.87172000  1.0
  Li  Li7  1  0.75000000  0.25000000  0.03333000  1.0
  Sb  Sb8  1  0.00000000  0.00000000  0.09999000  1.0
  Sb  Sb9  1  0.50000000  0.50000000  0.09999000  1.0
  Sb  Sb10  1  0.50000000  0.00000000  0.94061000  1.0
  Sb  Sb11  1  0.00000000  0.50000000  0.97337000  1.0
  Au  Au12  1  0.25000000  0.25000000  0.03333000  1.0
  Au  Au13  1  0.23469000  0.73485000  0.89148000  1.0
  Au  Au14  1  0.75000000  0.75000000  0.03333000  1.0
  Au  Au15  1  0.76531000  0.26515000  0.89148000  1.0
  C  C16  1  0.00000000  0.50000000  0.88524000  1.0
