# generated using pymatgen
data_Sc8Al8In8Pd8C
_symmetry_space_group_name_H-M   Pmm2
_cell_length_a   8.30234000
_cell_length_b   8.60736000
_cell_length_c   26.25270000
_cell_angle_alpha   90.00000000
_cell_angle_beta   90.00000000
_cell_angle_gamma   90.00000000
_symmetry_Int_Tables_number   25
_chemical_formula_structural   Sc8Al8In8Pd8C
_chemical_formula_sum   'Sc8 Al8 In8 Pd8 C1'
_cell_volume   1876.05021241
_cell_formula_units_Z   1
loop_
 _symmetry_equiv_pos_site_id
 _symmetry_equiv_pos_as_xyz
  1  'x, y, z'
  2  '-x, -y, z'
  3  '-x, y, z'
  4  'x, -y, z'
loop_
 _atom_site_type_symbol
 _atom_site_label
 _atom_site_symmetry_multiplicity
 _atom_site_fract_x
 _atom_site_fract_y
 _atom_site_fract_z
 _atom_site_occupancy
  Sc  Sc0  2  0.00000000  0.25000000  0.03970000  1.0
  Sc  Sc1  2  0.00000000  0.25000000  0.88091000  1.0
  Sc  Sc2  2  0.50000000  0.25000000  0.03970000  1.0
  Sc  Sc3  2  0.50000000  0.25000000  0.88091000  1.0
  Al  Al4  2  0.25000000  0.00000000  0.03970000  1.0
  Al  Al5  2  0.25000000  0.00000000  0.88091000  1.0
  Al  Al6  2  0.25000000  0.50000000  0.03970000  1.0
  Al  Al7  2  0.25000000  0.50000000  0.88091000  1.0
  In  In8  1  0.00000000  0.00000000  0.11909000  1.0
  In  In9  1  0.00000000  0.00000000  0.96030000  1.0
  In  In10  1  0.00000000  0.50000000  0.11909000  1.0
  In  In11  1  0.00000000  0.50000000  0.96030000  1.0
  In  In12  1  0.50000000  0.00000000  0.11909000  1.0
  In  In13  1  0.50000000  0.00000000  0.96030000  1.0
  In  In14  1  0.50000000  0.50000000  0.11909000  1.0
  In  In15  1  0.50000000  0.50000000  0.96030000  1.0
  Pd  Pd16  4  0.25000000  0.25000000  0.11909000  1.0
  Pd  Pd17  4  0.25000000  0.25000000  0.96030000  1.0
  C  C18  1  0.00000000  0.00000000  0.85044000  1.0
