# generated using pymatgen
data_Mn8Zn8CO
_symmetry_space_group_name_H-M   'P 1'
_cell_length_a   6.05499000
_cell_length_b   6.05499000
_cell_length_c   24.54120000
_cell_angle_alpha   90.00000000
_cell_angle_beta   90.00000000
_cell_angle_gamma   90.00000000
_symmetry_Int_Tables_number   1
_chemical_formula_structural   Mn8Zn8CO
_chemical_formula_sum   'Mn8 Zn8 C1 O1'
_cell_volume   899.75165719
_cell_formula_units_Z   1
loop_
 _symmetry_equiv_pos_site_id
 _symmetry_equiv_pos_as_xyz
  1  'x, y, z'
loop_
 _atom_site_type_symbol
 _atom_site_label
 _atom_site_symmetry_multiplicity
 _atom_site_fract_x
 _atom_site_fract_y
 _atom_site_fract_z
 _atom_site_occupancy
  Mn  Mn0  1  0.75000000  0.75000000  0.90480000  1.0
  Mn  Mn1  1  0.75000000  0.75000000  0.02816000  1.0
  Mn  Mn2  1  0.75000000  0.25000000  0.90480000  1.0
  Mn  Mn3  1  0.75000000  0.25000000  0.02816000  1.0
  Mn  Mn4  1  0.25000000  0.75000000  0.90480000  1.0
  Mn  Mn5  1  0.25000000  0.75000000  0.02816000  1.0
  Mn  Mn6  1  0.25000000  0.25000000  0.90480000  1.0
  Mn  Mn7  1  0.25000000  0.25000000  0.02816000  1.0
  Zn  Zn8  1  0.00000000  0.00000000  0.96648000  1.0
  Zn  Zn9  1  0.00000000  0.00000000  0.08985000  1.0
  Zn  Zn10  1  0.00000000  0.50000000  0.96648000  1.0
  Zn  Zn11  1  0.00000000  0.50000000  0.08985000  1.0
  Zn  Zn12  1  0.50000000  0.00000000  0.96648000  1.0
  Zn  Zn13  1  0.50000000  0.00000000  0.08985000  1.0
  Zn  Zn14  1  0.50000000  0.50000000  0.96648000  1.0
  Zn  Zn15  1  0.50000000  0.50000000  0.08985000  1.0
  C  C16  1  0.00000000  0.00000000  0.16727000  1.0
  O  O17  1  0.00000000  0.00000000  0.21413000  1.0
