# generated using pymatgen
data_Y8Mn8In8Pd8C
_symmetry_space_group_name_H-M   Pm
_cell_length_a   6.85874000
_cell_length_b   9.69972000
_cell_length_c   27.27480000
_cell_angle_alpha   90.00000000
_cell_angle_beta   90.00000000
_cell_angle_gamma   90.00000000
_symmetry_Int_Tables_number   6
_chemical_formula_structural   Y8Mn8In8Pd8C
_chemical_formula_sum   'Y8 Mn8 In8 Pd8 C1'
_cell_volume   1814.53400918
_cell_formula_units_Z   1
loop_
 _symmetry_equiv_pos_site_id
 _symmetry_equiv_pos_as_xyz
  1  'x, y, z'
  2  'x, -y, z'
loop_
 _atom_site_type_symbol
 _atom_site_label
 _atom_site_symmetry_multiplicity
 _atom_site_fract_x
 _atom_site_fract_y
 _atom_site_fract_z
 _atom_site_occupancy
  Y  Y0  2  0.00000000  0.25000000  0.95555000  1.0
  Y  Y1  2  0.97604000  0.24230000  0.13922000  1.0
  Y  Y2  1  0.49775000  0.00000000  0.04466000  1.0
  Y  Y3  1  0.50000000  0.00000000  0.86664000  1.0
  Y  Y4  1  0.50000000  0.50000000  0.86664000  1.0
  Y  Y5  1  0.50352000  0.50000000  0.04402000  1.0
  Mn  Mn6  2  0.22942000  0.25387000  0.05024000  1.0
  Mn  Mn7  2  0.25000000  0.25000000  0.86664000  1.0
  Mn  Mn8  1  0.66747000  0.50000000  0.15033000  1.0
  Mn  Mn9  1  0.67714000  0.00000000  0.14466000  1.0
  Mn  Mn10  1  0.75000000  0.00000000  0.95555000  1.0
  Mn  Mn11  1  0.75000000  0.50000000  0.95555000  1.0
  In  In12  2  0.48194000  0.24685000  0.13489000  1.0
  In  In13  2  0.50000000  0.25000000  0.95555000  1.0
  In  In14  1  -0.00000000  0.50000000  0.86664000  1.0
  In  In15  1  0.00000000  0.00000000  0.86664000  1.0
  In  In16  1  0.98476000  0.50000000  0.04687000  1.0
  In  In17  1  0.98890000  0.00000000  0.04563000  1.0
  Pd  Pd18  2  0.75000000  0.25000000  0.86664000  1.0
  Pd  Pd19  2  0.75630000  0.24900000  0.04317000  1.0
  Pd  Pd20  1  0.24897000  0.00000000  0.12845000  1.0
  Pd  Pd21  1  0.25000000  0.00000000  0.95555000  1.0
  Pd  Pd22  1  0.25000000  0.50000000  0.95555000  1.0
  Pd  Pd23  1  0.25611000  0.50000000  0.12409000  1.0
  C  C24  1  0.93944000  0.00000000  0.15244000  1.0
