data_image0
_chemical_formula_structural       LiMgCuPdLiMgCuPdLiMgCuPdLiMgCuPdLiMgCuPdLiMgCuPdLiMgCuPdLiMgCuPdCO
_chemical_formula_sum              "Li8 Mg8 Cu8 Pd8 C1 O1"
_cell_length_a       7.89062
_cell_length_b       7.95764
_cell_length_c       25.6758
_cell_angle_alpha    90
_cell_angle_beta     90
_cell_angle_gamma    90

_space_group_name_H-M_alt    "P 1"
_space_group_IT_number       1

loop_
  _space_group_symop_operation_xyz
  'x, y, z'

loop_
  _atom_site_type_symbol
  _atom_site_label
  _atom_site_symmetry_multiplicity
  _atom_site_fract_x
  _atom_site_fract_y
  _atom_site_fract_z
  _atom_site_occupancy
  Li  Li1       1.0  0.25000  0.00000  0.03684  1.0000
  Mg  Mg1       1.0  0.00000  0.25000  0.03684  1.0000
  Cu  Cu1       1.0  0.00000  0.00000  0.11053  1.0000
  Pd  Pd1       1.0  0.25000  0.25000  0.11053  1.0000
  Li  Li2       1.0  0.25000  0.00000  0.88947  1.0000
  Mg  Mg2       1.0  0.00000  0.25000  0.88947  1.0000
  Cu  Cu2       1.0  0.00000  0.00000  0.96316  1.0000
  Pd  Pd2       1.0  0.25000  0.25000  0.96316  1.0000
  Li  Li3       1.0  0.25000  0.50000  0.03684  1.0000
  Mg  Mg3       1.0  0.00000  0.75000  0.03684  1.0000
  Cu  Cu3       1.0  0.00000  0.50000  0.11053  1.0000
  Pd  Pd3       1.0  0.25000  0.75000  0.11053  1.0000
  Li  Li4       1.0  0.25000  0.50000  0.88947  1.0000
  Mg  Mg4       1.0  0.00000  0.75000  0.88947  1.0000
  Cu  Cu4       1.0  0.00000  0.50000  0.96316  1.0000
  Pd  Pd4       1.0  0.25000  0.75000  0.96316  1.0000
  Li  Li5       1.0  0.75000  0.00000  0.03684  1.0000
  Mg  Mg5       1.0  0.50000  0.25000  0.03684  1.0000
  Cu  Cu5       1.0  0.50000  0.00000  0.11053  1.0000
  Pd  Pd5       1.0  0.75000  0.25000  0.11053  1.0000
  Li  Li6       1.0  0.75000  0.00000  0.88947  1.0000
  Mg  Mg6       1.0  0.50000  0.25000  0.88947  1.0000
  Cu  Cu6       1.0  0.50000  0.00000  0.96316  1.0000
  Pd  Pd6       1.0  0.75000  0.25000  0.96316  1.0000
  Li  Li7       1.0  0.75000  0.50000  0.03684  1.0000
  Mg  Mg7       1.0  0.50000  0.75000  0.03684  1.0000
  Cu  Cu7       1.0  0.50000  0.50000  0.11053  1.0000
  Pd  Pd7       1.0  0.75000  0.75000  0.11053  1.0000
  Li  Li8       1.0  0.75000  0.50000  0.88947  1.0000
  Mg  Mg8       1.0  0.50000  0.75000  0.88947  1.0000
  Cu  Cu8       1.0  0.50000  0.50000  0.96316  1.0000
  Pd  Pd8       1.0  0.75000  0.75000  0.96316  1.0000
  C   C1        1.0  0.00000  0.00000  0.18453  1.0000
  O   O1        1.0  0.00000  0.00000  0.22932  1.0000
