data_image0
_chemical_formula_structural       Li16Al8Ag8CO
_chemical_formula_sum              "Li16 Al8 Ag8 C1 O1"
_cell_length_a       6.34834
_cell_length_b       8.97791
_cell_length_c       26.7334
_cell_angle_alpha    90
_cell_angle_beta     90
_cell_angle_gamma    90

_space_group_name_H-M_alt    "P 1"
_space_group_IT_number       1

loop_
  _space_group_symop_operation_xyz
  'x, y, z'

loop_
  _atom_site_type_symbol
  _atom_site_label
  _atom_site_symmetry_multiplicity
  _atom_site_fract_x
  _atom_site_fract_y
  _atom_site_fract_z
  _atom_site_occupancy
  Li  Li1       1.0  0.00000  0.75000  0.95802  1.0000
  Li  Li2       1.0  0.50000  0.00000  0.87406  1.0000
  Li  Li3       1.0  0.00000  0.25000  0.95802  1.0000
  Li  Li4       1.0  0.50000  0.50000  0.87406  1.0000
  Li  Li5       1.0  0.25000  0.00000  0.95802  1.0000
  Li  Li6       1.0  0.25000  0.50000  0.95802  1.0000
  Li  Li7       1.0  0.75000  0.75000  0.87406  1.0000
  Li  Li8       1.0  0.75000  0.25000  0.87406  1.0000
  Li  Li9       1.0  0.98603  0.24808  0.12773  1.0000
  Li  Li10      1.0  0.49232  0.50001  0.03670  1.0000
  Li  Li11      1.0  0.98602  0.75190  0.12774  1.0000
  Li  Li12      1.0  0.48872  0.00000  0.03671  1.0000
  Li  Li13      1.0  0.26239  0.50000  0.12569  1.0000
  Li  Li14      1.0  0.26073  0.99999  0.12569  1.0000
  Li  Li15      1.0  0.75406  0.24989  0.04037  1.0000
  Li  Li16      1.0  0.75407  0.75011  0.04037  1.0000
  Al  Al1       1.0  0.00000  0.00000  0.87406  1.0000
  Al  Al2       1.0  0.50000  0.25000  0.95802  1.0000
  Al  Al3       1.0  0.50000  0.75000  0.95802  1.0000
  Al  Al4       1.0  0.00000  0.50000  0.87406  1.0000
  Al  Al5       1.0  0.00249  0.50000  0.04148  1.0000
  Al  Al6       1.0  0.51126  0.74904  0.12547  1.0000
  Al  Al7       1.0  0.51128  0.25095  0.12547  1.0000
  Al  Al8       1.0  0.00321  0.00000  0.04090  1.0000
  Ag  Ag1       1.0  0.25000  0.25000  0.87406  1.0000
  Ag  Ag2       1.0  0.25000  0.75000  0.87406  1.0000
  Ag  Ag3       1.0  0.75000  0.50000  0.95802  1.0000
  Ag  Ag4       1.0  0.75000  0.00000  0.95802  1.0000
  Ag  Ag5       1.0  0.24777  0.74986  0.04385  1.0000
  Ag  Ag6       1.0  0.24777  0.25016  0.04385  1.0000
  Ag  Ag7       1.0  0.72211  0.99998  0.11682  1.0000
  Ag  Ag8       1.0  0.72780  0.50000  0.11843  1.0000
  C   C1        1.0  0.17889  0.99999  0.19985  1.0000
  O   O1        1.0  0.16270  0.99998  0.24256  1.0000
