# generated using pymatgen
data_Li16Al8Ag8CO
_symmetry_space_group_name_H-M   'P 1'
_cell_length_a   8.97791000
_cell_length_b   6.34834000
_cell_length_c   26.73340000
_cell_angle_alpha   90.00000000
_cell_angle_beta   90.00000000
_cell_angle_gamma   90.00000000
_symmetry_Int_Tables_number   1
_chemical_formula_structural   Li16Al8Ag8CO
_chemical_formula_sum   'Li16 Al8 Ag8 C1 O1'
_cell_volume   1523.66545918
_cell_formula_units_Z   1
loop_
 _symmetry_equiv_pos_site_id
 _symmetry_equiv_pos_as_xyz
  1  'x, y, z'
loop_
 _atom_site_type_symbol
 _atom_site_label
 _atom_site_symmetry_multiplicity
 _atom_site_fract_x
 _atom_site_fract_y
 _atom_site_fract_z
 _atom_site_occupancy
  Li  Li0  1  0.25001000  1.00000000  0.04198000  1.0
  Li  Li1  1  0.50000000  0.50000000  0.12594000  1.0
  Li  Li2  1  0.74999000  1.00000000  0.04198000  1.0
  Li  Li3  1  0.00000000  0.50000000  0.12594000  1.0
  Li  Li4  1  0.50000000  0.25000000  0.04198000  1.0
  Li  Li5  1  0.00000000  0.25000000  0.04198000  1.0
  Li  Li6  1  0.25001000  0.75000000  0.12594000  1.0
  Li  Li7  1  0.74999000  0.75000000  0.12594000  1.0
  Li  Li8  1  0.74809000  0.98603000  0.87227000  1.0
  Li  Li9  1  0.00000000  0.49232000  0.96330000  1.0
  Li  Li10  1  0.25191000  0.98603000  0.87227000  1.0
  Li  Li11  1  0.50000000  0.48872000  0.96329000  1.0
  Li  Li12  1  0.00000000  0.26239000  0.87431000  1.0
  Li  Li13  1  0.50000000  0.26073000  0.87431000  1.0
  Li  Li14  1  0.74990000  0.75406000  0.95963000  1.0
  Li  Li15  1  0.25010000  0.75406000  0.95963000  1.0
  Al  Al16  1  0.50000000  0.00000000  0.12594000  1.0
  Al  Al17  1  0.75001000  0.50000000  0.04198000  1.0
  Al  Al18  1  0.24999000  0.50000000  0.04198000  1.0
  Al  Al19  1  0.00000000  1.00000000  0.12594000  1.0
  Al  Al20  1  0.00000000  0.00249000  0.95852000  1.0
  Al  Al21  1  0.24905000  0.51126000  0.87453000  1.0
  Al  Al22  1  0.75095000  0.51126000  0.87453000  1.0
  Al  Al23  1  0.50000000  0.00321000  0.95910000  1.0
  Ag  Ag24  1  0.75001000  0.25000000  0.12594000  1.0
  Ag  Ag25  1  0.24999000  0.25000000  0.12594000  1.0
  Ag  Ag26  1  0.00000000  0.75000000  0.04198000  1.0
  Ag  Ag27  1  0.50000000  0.75000000  0.04198000  1.0
  Ag  Ag28  1  0.24987000  0.24777000  0.95615000  1.0
  Ag  Ag29  1  0.75013000  0.24777000  0.95615000  1.0
  Ag  Ag30  1  0.50000000  0.72211000  0.88318000  1.0
  Ag  Ag31  1  0.00000000  0.72780000  0.88157000  1.0
  C  C32  1  0.50000000  0.17889000  0.80015000  1.0
  O  O33  1  0.50000000  0.16270000  0.75744000  1.0
