# generated using pymatgen
data_Li16Al8Ag8CO
_symmetry_space_group_name_H-M   Pm
_cell_length_a   6.34834000
_cell_length_b   8.97791000
_cell_length_c   26.73340000
_cell_angle_alpha   90.00000000
_cell_angle_beta   90.00000000
_cell_angle_gamma   90.00000000
_symmetry_Int_Tables_number   6
_chemical_formula_structural   Li16Al8Ag8CO
_chemical_formula_sum   'Li16 Al8 Ag8 C1 O1'
_cell_volume   1523.66545918
_cell_formula_units_Z   1
loop_
 _symmetry_equiv_pos_site_id
 _symmetry_equiv_pos_as_xyz
  1  'x, y, z'
  2  'x, -y, z'
loop_
 _atom_site_type_symbol
 _atom_site_label
 _atom_site_symmetry_multiplicity
 _atom_site_fract_x
 _atom_site_fract_y
 _atom_site_fract_z
 _atom_site_occupancy
  Li  Li0  2  -0.00000000  0.25001000  0.95802000  1.0
  Li  Li1  2  0.75000000  0.25001000  0.87406000  1.0
  Li  Li2  2  0.75406000  0.25010000  0.04037000  1.0
  Li  Li3  2  0.98603000  0.25191000  0.12773000  1.0
  Li  Li4  1  0.25000000  0.00000000  0.95802000  1.0
  Li  Li5  1  0.25000000  0.50000000  0.95802000  1.0
  Li  Li6  1  0.26073000  0.50000000  0.12569000  1.0
  Li  Li7  1  0.26239000  0.00000000  0.12569000  1.0
  Li  Li8  1  0.48872000  0.50000000  0.03671000  1.0
  Li  Li9  1  0.49232000  0.00000000  0.03670000  1.0
  Li  Li10  1  0.50000000  0.00000000  0.87406000  1.0
  Li  Li11  1  0.50000000  0.50000000  0.87406000  1.0
  Al  Al12  2  0.50000000  0.24999000  0.95802000  1.0
  Al  Al13  2  0.51126000  0.24905000  0.12547000  1.0
  Al  Al14  1  -0.00000000  0.00000000  0.87406000  1.0
  Al  Al15  1  0.00000000  0.50000000  0.87406000  1.0
  Al  Al16  1  0.00249000  0.00000000  0.04148000  1.0
  Al  Al17  1  0.00321000  0.50000000  0.04090000  1.0
  Ag  Ag18  2  0.24777000  0.24987000  0.04385000  1.0
  Ag  Ag19  2  0.25000000  0.24999000  0.87406000  1.0
  Ag  Ag20  1  0.72211000  0.50000000  0.11682000  1.0
  Ag  Ag21  1  0.72780000  0.00000000  0.11843000  1.0
  Ag  Ag22  1  0.75000000  0.00000000  0.95802000  1.0
  Ag  Ag23  1  0.75000000  0.50000000  0.95802000  1.0
  C  C24  1  0.17889000  0.50000000  0.19985000  1.0
  O  O25  1  0.16270000  0.50000000  0.24256000  1.0
