# generated using pymatgen
data_Li8Ge4Au4CO
_symmetry_space_group_name_H-M   'P 1'
_cell_length_a   6.30953000
_cell_length_b   6.30953000
_cell_length_c   24.73210000
_cell_angle_alpha   90.00000000
_cell_angle_beta   90.00000000
_cell_angle_gamma   90.00000000
_symmetry_Int_Tables_number   1
_chemical_formula_structural   Li8Ge4Au4CO
_chemical_formula_sum   'Li8 Ge4 Au4 C1 O1'
_cell_volume   984.58907630
_cell_formula_units_Z   1
loop_
 _symmetry_equiv_pos_site_id
 _symmetry_equiv_pos_as_xyz
  1  'x, y, z'
loop_
 _atom_site_type_symbol
 _atom_site_label
 _atom_site_symmetry_multiplicity
 _atom_site_fract_x
 _atom_site_fract_y
 _atom_site_fract_z
 _atom_site_occupancy
  Li  Li0  1  0.00000000  0.00000000  0.96811000  1.0
  Li  Li1  1  0.50000000  0.99999000  0.10589000  1.0
  Li  Li2  1  0.00000000  0.50000000  0.10585000  1.0
  Li  Li3  1  0.50000000  0.50000000  0.96811000  1.0
  Li  Li4  1  0.25000000  0.25000000  0.90433000  1.0
  Li  Li5  1  0.26749000  0.73267000  0.03547000  1.0
  Li  Li6  1  0.75000000  0.75000000  0.90433000  1.0
  Li  Li7  1  0.73248000  0.26736000  0.03548000  1.0
  Ge  Ge8  1  0.00005000  0.99997000  0.08363000  1.0
  Ge  Ge9  1  0.49985000  0.50004000  0.10496000  1.0
  Ge  Ge10  1  0.50000000  0.00000000  0.96811000  1.0
  Ge  Ge11  1  0.00000000  0.50000000  0.96811000  1.0
  Au  Au12  1  0.27164000  0.27148000  0.03532000  1.0
  Au  Au13  1  0.25000000  0.75000000  0.90433000  1.0
  Au  Au14  1  0.72836000  0.72848000  0.03533000  1.0
  Au  Au15  1  0.75000000  0.25000000  0.90433000  1.0
  C  C16  1  0.00003000  0.99999000  0.16028000  1.0
  O  O17  1  0.00003000  0.99999000  0.20757000  1.0
