# generated using pymatgen
data_LiScInGe
_symmetry_space_group_name_H-M   Pm
_cell_length_a   5.77954000
_cell_length_b   4.48686000
_cell_length_c   24.33440000
_cell_angle_alpha   90.00000000
_cell_angle_beta   90.00000000
_cell_angle_gamma   90.00000000
_symmetry_Int_Tables_number   6
_chemical_formula_structural   LiScInGe
_chemical_formula_sum   'Li2 Sc2 In2 Ge2'
_cell_volume   631.03934067
_cell_formula_units_Z   2
loop_
 _symmetry_equiv_pos_site_id
 _symmetry_equiv_pos_as_xyz
  1  'x, y, z'
  2  'x, -y, z'
loop_
 _atom_site_type_symbol
 _atom_site_label
 _atom_site_symmetry_multiplicity
 _atom_site_fract_x
 _atom_site_fract_y
 _atom_site_fract_z
 _atom_site_occupancy
  Li  Li0  1  0.25865000  0.00000000  0.08906000  1.0
  Li  Li1  1  0.70455500  0.00000000  0.97124500  1.0
  Sc  Sc2  1  0.00576000  0.50000000  0.02969000  1.0
  Sc  Sc3  1  0.47037500  0.50000000  0.91205000  1.0
  In  In4  1  0.18868500  0.00000000  0.95586000  1.0
  In  In5  1  0.75865000  0.00000000  0.08906000  1.0
  Ge  Ge6  1  0.50576000  0.50000000  0.02969000  1.0
  Ge  Ge7  1  0.96998000  0.50000000  0.90653500  1.0
