# generated using pymatgen
data_Li8Si8Ni16C
_symmetry_space_group_name_H-M   'P 1'
_cell_length_a   5.57854000
_cell_length_b   7.88925000
_cell_length_c   25.91690000
_cell_angle_alpha   90.00000000
_cell_angle_beta   90.00000000
_cell_angle_gamma   90.00000000
_symmetry_Int_Tables_number   1
_chemical_formula_structural   Li8Si8Ni16C
_chemical_formula_sum   'Li8 Si8 Ni16 C1'
_cell_volume   1140.61564179
_cell_formula_units_Z   1
loop_
 _symmetry_equiv_pos_site_id
 _symmetry_equiv_pos_as_xyz
  1  'x, y, z'
loop_
 _atom_site_type_symbol
 _atom_site_label
 _atom_site_symmetry_multiplicity
 _atom_site_fract_x
 _atom_site_fract_y
 _atom_site_fract_z
 _atom_site_occupancy
  Li  Li0  1  0.00000000  0.00000000  0.88585000  1.0
  Li  Li1  1  0.50000000  0.25000000  0.96195000  1.0
  Li  Li2  1  0.50000000  0.75000000  0.96195000  1.0
  Li  Li3  1  0.00000000  0.50000000  0.88585000  1.0
  Li  Li4  1  0.00000000  0.50000000  0.03323000  1.0
  Li  Li5  1  0.50000000  0.73243000  0.14008000  1.0
  Li  Li6  1  0.50000000  0.26757000  0.14008000  1.0
  Li  Li7  1  0.00000000  0.00000000  0.03808000  1.0
  Si  Si8  1  0.00000000  0.75000000  0.96195000  1.0
  Si  Si9  1  0.50000000  0.00000000  0.88585000  1.0
  Si  Si10  1  0.00000000  0.25000000  0.96195000  1.0
  Si  Si11  1  0.50000000  0.50000000  0.88585000  1.0
  Si  Si12  1  0.00000000  0.23712000  0.11514000  1.0
  Si  Si13  1  0.50000000  0.50000000  0.04046000  1.0
  Si  Si14  1  0.00000000  0.76288000  0.11514000  1.0
  Si  Si15  1  0.50000000  0.00000000  0.03185000  1.0
  Ni  Ni16  1  0.25000000  0.00000000  0.96195000  1.0
  Ni  Ni17  1  0.75000000  0.50000000  0.96195000  1.0
  Ni  Ni18  1  0.75000000  0.00000000  0.96195000  1.0
  Ni  Ni19  1  0.25000000  0.50000000  0.96195000  1.0
  Ni  Ni20  1  0.75000000  0.75000000  0.88585000  1.0
  Ni  Ni21  1  0.25000000  0.25000000  0.88585000  1.0
  Ni  Ni22  1  0.25000000  0.75000000  0.88585000  1.0
  Ni  Ni23  1  0.75000000  0.25000000  0.88585000  1.0
  Ni  Ni24  1  0.22124000  0.50000000  0.10886000  1.0
  Ni  Ni25  1  0.71083000  0.00000000  0.10687000  1.0
  Ni  Ni26  1  0.77876000  0.50000000  0.10886000  1.0
  Ni  Ni27  1  0.28917000  0.00000000  0.10687000  1.0
  Ni  Ni28  1  0.74575000  0.25209000  0.03947000  1.0
  Ni  Ni29  1  0.25425000  0.74791000  0.03947000  1.0
  Ni  Ni30  1  0.25425000  0.25209000  0.03947000  1.0
  Ni  Ni31  1  0.74575000  0.74791000  0.03947000  1.0
  C  C32  1  0.00000000  0.00000000  0.13923000  1.0
