# generated using pymatgen
data_Li8Mg16Ge8CO
_symmetry_space_group_name_H-M   'P 1'
_cell_length_a   6.76484000
_cell_length_b   9.56693000
_cell_length_c   27.17520000
_cell_angle_alpha   90.00000000
_cell_angle_beta   90.00000000
_cell_angle_gamma   90.00000000
_symmetry_Int_Tables_number   1
_chemical_formula_structural   Li8Mg16Ge8CO
_chemical_formula_sum   'Li8 Mg16 Ge8 C1 O1'
_cell_volume   1758.74499514
_cell_formula_units_Z   1
loop_
 _symmetry_equiv_pos_site_id
 _symmetry_equiv_pos_as_xyz
  1  'x, y, z'
loop_
 _atom_site_type_symbol
 _atom_site_label
 _atom_site_symmetry_multiplicity
 _atom_site_fract_x
 _atom_site_fract_y
 _atom_site_fract_z
 _atom_site_occupancy
  Li  Li0  1  0.00000000  0.00000000  0.86798000  1.0
  Li  Li1  1  0.50000000  0.25000000  0.95599000  1.0
  Li  Li2  1  0.50000000  0.75000000  0.95599000  1.0
  Li  Li3  1  1.00000000  0.50000000  0.86798000  1.0
  Li  Li4  1  0.00012000  0.49782000  0.04984000  1.0
  Li  Li5  1  0.50005000  0.75001000  0.17834000  1.0
  Li  Li6  1  0.50006000  0.25001000  0.16935000  1.0
  Li  Li7  1  0.00006000  0.00223000  0.04984000  1.0
  Mg  Mg8  1  0.25000000  0.00000000  0.95599000  1.0
  Mg  Mg9  1  0.75000000  0.50000000  0.95599000  1.0
  Mg  Mg10  1  0.75000000  0.00000000  0.95599000  1.0
  Mg  Mg11  1  0.25000000  0.50000000  0.95599000  1.0
  Mg  Mg12  1  0.75000000  0.75000000  0.86798000  1.0
  Mg  Mg13  1  0.25000000  0.25000000  0.86798000  1.0
  Mg  Mg14  1  0.25000000  0.75000000  0.86798000  1.0
  Mg  Mg15  1  0.75000000  0.25000000  0.86798000  1.0
  Mg  Mg16  1  0.26580000  0.50326000  0.13636000  1.0
  Mg  Mg17  1  0.73432000  0.99674000  0.13636000  1.0
  Mg  Mg18  1  0.73433000  0.50328000  0.13636000  1.0
  Mg  Mg19  1  0.26580000  0.99675000  0.13637000  1.0
  Mg  Mg20  1  0.74205000  0.25004000  0.04832000  1.0
  Mg  Mg21  1  0.25485000  0.75004000  0.04736000  1.0
  Mg  Mg22  1  0.25815000  0.25001000  0.04832000  1.0
  Mg  Mg23  1  0.74528000  0.75001000  0.04736000  1.0
  Ge  Ge24  1  1.00000000  0.75000000  0.95599000  1.0
  Ge  Ge25  1  0.50000000  0.00000000  0.86798000  1.0
  Ge  Ge26  1  1.00000000  0.25000000  0.95599000  1.0
  Ge  Ge27  1  0.50000000  0.50000000  0.86798000  1.0
  Ge  Ge28  1  0.00011000  0.25004000  0.12868000  1.0
  Ge  Ge29  1  0.50004000  0.50051000  0.04024000  1.0
  Ge  Ge30  1  0.00005000  0.75000000  0.12947000  1.0
  Ge  Ge31  1  0.50007000  0.99954000  0.04024000  1.0
  C  C32  1  0.99663000  0.24925000  0.27890000  1.0
  O  O33  1  0.00055000  0.25017000  0.32067000  1.0
