# generated using pymatgen
data_Li8Al8Cu8Ag8CO
_symmetry_space_group_name_H-M   Pm
_cell_length_a   6.15237000
_cell_length_b   8.70076000
_cell_length_c   26.52560000
_cell_angle_alpha   90.00000000
_cell_angle_beta   90.00000000
_cell_angle_gamma   90.00000000
_symmetry_Int_Tables_number   6
_chemical_formula_structural   Li8Al8Cu8Ag8CO
_chemical_formula_sum   'Li8 Al8 Cu8 Ag8 C1 O1'
_cell_volume   1419.92318778
_cell_formula_units_Z   1
loop_
 _symmetry_equiv_pos_site_id
 _symmetry_equiv_pos_as_xyz
  1  'x, y, z'
  2  'x, -y, z'
loop_
 _atom_site_type_symbol
 _atom_site_label
 _atom_site_symmetry_multiplicity
 _atom_site_fract_x
 _atom_site_fract_y
 _atom_site_fract_z
 _atom_site_occupancy
  Li  Li0  2  0.75000000  0.24999000  0.95900000  1.0
  Li  Li1  2  0.75997000  0.25161000  0.13245000  1.0
  Li  Li2  1  0.24707000  0.00000000  0.03862000  1.0
  Li  Li3  1  0.25000000  0.00000000  0.87699000  1.0
  Li  Li4  1  0.25000000  0.50000000  0.87699000  1.0
  Li  Li5  1  0.25357000  0.50000000  0.03677000  1.0
  Al  Al6  2  0.24752000  0.25371000  0.12355000  1.0
  Al  Al7  2  0.25000000  0.24999000  0.95900000  1.0
  Al  Al8  1  0.74993000  0.00000000  0.04113000  1.0
  Al  Al9  1  0.75000000  0.00000000  0.87699000  1.0
  Al  Al10  1  0.75000000  0.50000000  0.87699000  1.0
  Al  Al11  1  0.75048000  0.50000000  0.04206000  1.0
  Cu  Cu12  2  0.50000000  0.25001000  0.87699000  1.0
  Cu  Cu13  2  0.50840000  0.25125000  0.04295000  1.0
  Cu  Cu14  1  -0.00000000  0.50000000  0.95900000  1.0
  Cu  Cu15  1  -0.00000000  0.00000000  0.95900000  1.0
  Cu  Cu16  1  0.01959000  0.00000000  0.12194000  1.0
  Cu  Cu17  1  0.02399000  0.50000000  0.11604000  1.0
  Ag  Ag18  2  0.00000000  0.24999000  0.87699000  1.0
  Ag  Ag19  2  0.99583000  0.24770000  0.04287000  1.0
  Ag  Ag20  1  0.48023000  0.00000000  0.12020000  1.0
  Ag  Ag21  1  0.49070000  0.50000000  0.12250000  1.0
  Ag  Ag22  1  0.50000000  0.00000000  0.95900000  1.0
  Ag  Ag23  1  0.50000000  0.50000000  0.95900000  1.0
  C  C24  1  0.91150000  0.00000000  0.18789000  1.0
  O  O25  1  0.88385000  0.00000000  0.23113000  1.0
