# generated using pymatgen
data_Li4Sc4In4Ag4C
_symmetry_space_group_name_H-M   'P 1'
_cell_length_a   6.68683000
_cell_length_b   6.68683000
_cell_length_c   25.01510000
_cell_angle_alpha   90.00000000
_cell_angle_beta   90.00000000
_cell_angle_gamma   90.00000000
_symmetry_Int_Tables_number   1
_chemical_formula_structural   Li4Sc4In4Ag4C
_chemical_formula_sum   'Li4 Sc4 In4 Ag4 C1'
_cell_volume   1118.51756302
_cell_formula_units_Z   1
loop_
 _symmetry_equiv_pos_site_id
 _symmetry_equiv_pos_as_xyz
  1  'x, y, z'
loop_
 _atom_site_type_symbol
 _atom_site_label
 _atom_site_symmetry_multiplicity
 _atom_site_fract_x
 _atom_site_fract_y
 _atom_site_fract_z
 _atom_site_occupancy
  Li  Li0  1  0.96777000  0.53305000  0.86910000  1
  Li  Li1  1  0.00000000  0.00000000  0.03341000  1
  Li  Li2  1  0.50000000  0.50000000  0.03341000  1
  Li  Li3  1  0.53305000  0.96777000  0.86910000  1
  Sc  Sc4  1  0.74960000  0.74960000  0.96059000  1
  Sc  Sc5  1  0.75000000  0.25000000  0.10024000  1
  Sc  Sc6  1  0.25000000  0.75000000  0.10024000  1
  Sc  Sc7  1  0.24961500  0.24961500  0.96055000  1
  In  In8  1  0.24987000  0.74981000  0.96136000  1
  In  In9  1  0.25000000  0.25000000  0.10024000  1
  In  In10  1  0.75000000  0.75000000  0.10024000  1
  In  In11  1  0.74981000  0.24987000  0.96136000  1
  Ag  Ag12  1  0.99097000  0.99097000  0.89202000  1
  Ag  Ag13  1  0.00000000  0.50000000  0.03341000  1
  Ag  Ag14  1  0.50000000  0.00000000  0.03341000  1
  Ag  Ag15  1  0.50747500  0.50747500  0.89208000  1
  C  C16  1  0.74931000  0.74931000  0.87976000  1
