# generated using pymatgen
data_LiMgInGe
_symmetry_space_group_name_H-M   'P 1'
_cell_length_a   4.20925000
_cell_length_b   8.75068000
_cell_length_c   26.30740000
_cell_angle_alpha   90.00000000
_cell_angle_beta   90.00000000
_cell_angle_gamma   90.00000000
_symmetry_Int_Tables_number   1
_chemical_formula_structural   LiMgInGe
_chemical_formula_sum   'Li4 Mg4 In4 Ge4'
_cell_volume   969.00150460
_cell_formula_units_Z   4
loop_
 _symmetry_equiv_pos_site_id
 _symmetry_equiv_pos_as_xyz
  1  'x, y, z'
loop_
 _atom_site_type_symbol
 _atom_site_label
 _atom_site_symmetry_multiplicity
 _atom_site_fract_x
 _atom_site_fract_y
 _atom_site_fract_z
 _atom_site_occupancy
  Li  Li0  1  0.00000000  0.75000000  0.03996000  1.0
  Li  Li1  1  0.00000000  0.74999500  0.88247500  1.0
  Li  Li2  1  0.00000000  0.25000000  0.03996000  1.0
  Li  Li3  1  0.00000000  0.25000500  0.88247500  1.0
  Mg  Mg4  1  0.50000000  0.00000000  0.03996000  1.0
  Mg  Mg5  1  0.50000000  0.00000000  0.87561000  1.0
  Mg  Mg6  1  0.50000000  0.50000000  0.03996000  1.0
  Mg  Mg7  1  0.50000000  0.50000000  0.87557500  1.0
  In  In8  1  0.50000000  0.75000000  0.11988000  1.0
  In  In9  1  0.50000000  0.75000000  0.95966000  1.0
  In  In10  1  0.50000000  0.25000000  0.11988000  1.0
  In  In11  1  0.50000000  0.25000000  0.95966000  1.0
  Ge  Ge12  1  0.00000000  0.00000000  0.11988000  1.0
  Ge  Ge13  1  0.00000000  0.00000000  0.95473000  1.0
  Ge  Ge14  1  0.00000000  0.50000000  0.11988000  1.0
  Ge  Ge15  1  0.00000000  0.50000000  0.95473000  1.0
