# generated using pymatgen
data_LiMgInGe
_symmetry_space_group_name_H-M   Pmm2
_cell_length_a   4.20925000
_cell_length_b   8.75068000
_cell_length_c   26.30740000
_cell_angle_alpha   90.00000000
_cell_angle_beta   90.00000000
_cell_angle_gamma   90.00000000
_symmetry_Int_Tables_number   25
_chemical_formula_structural   LiMgInGe
_chemical_formula_sum   'Li4 Mg4 In4 Ge4'
_cell_volume   969.00150460
_cell_formula_units_Z   4
loop_
 _symmetry_equiv_pos_site_id
 _symmetry_equiv_pos_as_xyz
  1  'x, y, z'
  2  '-x, -y, z'
  3  '-x, y, z'
  4  'x, -y, z'
  5  'x, y+1/2, z'
  6  '-x, -y+1/2, z'
  7  '-x, y+1/2, z'
  8  'x, -y+1/2, z'
loop_
 _atom_site_type_symbol
 _atom_site_label
 _atom_site_symmetry_multiplicity
 _atom_site_fract_x
 _atom_site_fract_y
 _atom_site_fract_z
 _atom_site_occupancy
  Li  Li0  2  0.00000000  0.25000000  0.03996000  1.0
  Li  Li1  2  0.00000000  0.25000500  0.88247500  1.0
  Mg  Mg2  2  0.50000000  0.00000000  0.03996000  1.0
  Mg  Mg3  2  0.50000000  0.00000000  0.87561000  1.0
  In  In4  2  0.50000000  0.25000000  0.11988000  1.0
  In  In5  2  0.50000000  0.25000000  0.95966000  1.0
  Ge  Ge6  2  0.00000000  0.00000000  0.11988000  1.0
  Ge  Ge7  2  0.00000000  0.00000000  0.95473000  1.0
