# generated using pymatgen
data_Sb16C
_symmetry_space_group_name_H-M   P4mm
_cell_length_a   7.62927000
_cell_length_b   7.62927000
_cell_length_c   25.72200000
_cell_angle_alpha   90.00000000
_cell_angle_beta   90.00000000
_cell_angle_gamma   90.00000000
_symmetry_Int_Tables_number   99
_chemical_formula_structural   Sb16C
_chemical_formula_sum   'Sb16 C1'
_cell_volume   1497.16857757
_cell_formula_units_Z   1
loop_
 _symmetry_equiv_pos_site_id
 _symmetry_equiv_pos_as_xyz
  1  'x, y, z'
  2  '-y, x, z'
  3  '-x, -y, z'
  4  'y, -x, z'
  5  '-x, y, z'
  6  'y, x, z'
  7  'x, -y, z'
  8  '-y, -x, z'
loop_
 _atom_site_type_symbol
 _atom_site_label
 _atom_site_symmetry_multiplicity
 _atom_site_fract_x
 _atom_site_fract_y
 _atom_site_fract_z
 _atom_site_occupancy
  Sb  Sb0  4  0.25000000  0.25000000  0.11123000  1.0
  Sb  Sb1  4  0.25000000  0.25000000  0.96292000  1.0
  Sb  Sb2  2  0.00000000  0.50000000  0.03708000  1.0
  Sb  Sb3  2  0.00000000  0.50000000  0.88877000  1.0
  Sb  Sb4  1  0.00000000  0.00000000  0.03708000  1.0
  Sb  Sb5  1  0.00000000  0.00000000  0.88877000  1.0
  Sb  Sb6  1  0.50000000  0.50000000  0.03708000  1.0
  Sb  Sb7  1  0.50000000  0.50000000  0.88877000  1.0
  C  C8  1  0.00000000  0.00000000  0.14233000  1.0
