# generated using pymatgen
data_Li8Ga16Ru8CO
_symmetry_space_group_name_H-M   Pmm2
_cell_length_a   6.09317000
_cell_length_b   8.61704000
_cell_length_c   26.46280000
_cell_angle_alpha   90.00000000
_cell_angle_beta   90.00000000
_cell_angle_gamma   90.00000000
_symmetry_Int_Tables_number   25
_chemical_formula_structural   Li8Ga16Ru8CO
_chemical_formula_sum   'Li8 Ga16 Ru8 C1 O1'
_cell_volume   1389.43168551
_cell_formula_units_Z   1
loop_
 _symmetry_equiv_pos_site_id
 _symmetry_equiv_pos_as_xyz
  1  'x, y, z'
  2  '-x, -y, z'
  3  '-x, y, z'
  4  'x, -y, z'
loop_
 _atom_site_type_symbol
 _atom_site_label
 _atom_site_symmetry_multiplicity
 _atom_site_fract_x
 _atom_site_fract_y
 _atom_site_fract_z
 _atom_site_occupancy
  Li  Li0  2  0.00000000  0.24990000  0.03841000  1.0
  Li  Li1  2  0.00000000  0.25000000  0.87789000  1.0
  Li  Li2  1  0.50000000  0.00000000  0.12901000  1.0
  Li  Li3  1  0.50000000  0.00000000  0.95930000  1.0
  Li  Li4  1  0.50000000  0.50000000  0.12874000  1.0
  Li  Li5  1  0.50000000  0.50000000  0.95930000  1.0
  Ga  Ga6  4  0.23068000  0.25398000  0.12276000  1.0
  Ga  Ga7  4  0.25000000  0.25000000  0.95930000  1.0
  Ga  Ga8  2  0.25000000  0.00000000  0.87789000  1.0
  Ga  Ga9  2  0.25000000  0.50000000  0.87789000  1.0
  Ga  Ga10  2  0.25135000  0.00000000  0.04084000  1.0
  Ga  Ga11  2  0.25568000  0.50000000  0.03908000  1.0
  Ru  Ru12  2  0.50000000  0.24780000  0.04208000  1.0
  Ru  Ru13  2  0.50000000  0.25000000  0.87789000  1.0
  Ru  Ru14  1  0.00000000  0.00000000  0.12448000  1.0
  Ru  Ru15  1  0.00000000  0.00000000  0.95930000  1.0
  Ru  Ru16  1  0.00000000  0.50000000  0.11381000  1.0
  Ru  Ru17  1  0.00000000  0.50000000  0.95930000  1.0
  C  C18  1  0.00000000  0.00000000  0.19563000  1.0
  O  O19  1  0.00000000  0.00000000  0.23956000  1.0
