data_image0
_chemical_formula_structural       Mg8In8Ag16CO
_chemical_formula_sum              "Mg8 In8 Ag16 C1 O1"
_cell_length_a       6.85111
_cell_length_b       9.68893
_cell_length_c       27.2667
_cell_angle_alpha    90
_cell_angle_beta     90
_cell_angle_gamma    90

_space_group_name_H-M_alt    "P 1"
_space_group_IT_number       1

loop_
  _space_group_symop_operation_xyz
  'x, y, z'

loop_
  _atom_site_type_symbol
  _atom_site_label
  _atom_site_symmetry_multiplicity
  _atom_site_fract_x
  _atom_site_fract_y
  _atom_site_fract_z
  _atom_site_occupancy
  Mg  Mg1       1.0  0.00000  0.00000  0.86675  1.0000
  Mg  Mg2       1.0  0.50000  0.25000  0.95558  1.0000
  Mg  Mg3       1.0  0.50000  0.75000  0.95558  1.0000
  Mg  Mg4       1.0  0.00000  0.50000  0.86675  1.0000
  Mg  Mg5       1.0  0.00000  0.50176  0.04585  1.0000
  Mg  Mg6       1.0  0.50000  0.75000  0.13573  1.0000
  Mg  Mg7       1.0  0.50000  0.25000  0.13400  1.0000
  Mg  Mg8       1.0  1.00000  0.99824  0.04585  1.0000
  In  In1       1.0  0.00000  0.75000  0.95558  1.0000
  In  In2       1.0  0.50000  0.00000  0.86675  1.0000
  In  In3       1.0  0.00000  0.25000  0.95558  1.0000
  In  In4       1.0  0.50000  0.50000  0.86675  1.0000
  In  In5       1.0  1.00000  0.25000  0.14972  1.0000
  In  In6       1.0  0.50000  0.49934  0.04510  1.0000
  In  In7       1.0  0.00000  0.75000  0.14855  1.0000
  In  In8       1.0  0.50000  0.00066  0.04510  1.0000
  Ag  Ag1       1.0  0.25000  0.00000  0.95558  1.0000
  Ag  Ag2       1.0  0.75000  0.50000  0.95558  1.0000
  Ag  Ag3       1.0  0.75000  0.00000  0.95558  1.0000
  Ag  Ag4       1.0  0.25000  0.50000  0.95558  1.0000
  Ag  Ag5       1.0  0.75000  0.75000  0.86675  1.0000
  Ag  Ag6       1.0  0.25000  0.25000  0.86675  1.0000
  Ag  Ag7       1.0  0.25000  0.75000  0.86675  1.0000
  Ag  Ag8       1.0  0.75000  0.25000  0.86675  1.0000
  Ag  Ag9       1.0  0.24777  0.50273  0.13320  1.0000
  Ag  Ag10      1.0  0.75223  0.99728  0.13320  1.0000
  Ag  Ag11      1.0  0.75223  0.50273  0.13320  1.0000
  Ag  Ag12      1.0  0.24777  0.99728  0.13320  1.0000
  Ag  Ag13      1.0  0.76644  0.25000  0.04945  1.0000
  Ag  Ag14      1.0  0.23885  0.75000  0.04808  1.0000
  Ag  Ag15      1.0  0.23356  0.25000  0.04945  1.0000
  Ag  Ag16      1.0  0.76115  0.75000  0.04808  1.0000
  C   C1        1.0  0.50000  0.25000  0.21624  1.0000
  O   O1        1.0  0.50000  0.25000  0.25818  1.0000
