# generated using pymatgen
data_Mg8In8Ag16CO
_symmetry_space_group_name_H-M   Pmm2
_cell_length_a   6.85111000
_cell_length_b   9.68893000
_cell_length_c   27.26670000
_cell_angle_alpha   90.00000000
_cell_angle_beta   90.00000000
_cell_angle_gamma   90.00000000
_symmetry_Int_Tables_number   25
_chemical_formula_structural   Mg8In8Ag16CO
_chemical_formula_sum   'Mg8 In8 Ag16 C1 O1'
_cell_volume   1809.96150679
_cell_formula_units_Z   1
loop_
 _symmetry_equiv_pos_site_id
 _symmetry_equiv_pos_as_xyz
  1  'x, y, z'
  2  '-x, -y, z'
  3  '-x, y, z'
  4  'x, -y, z'
loop_
 _atom_site_type_symbol
 _atom_site_label
 _atom_site_symmetry_multiplicity
 _atom_site_fract_x
 _atom_site_fract_y
 _atom_site_fract_z
 _atom_site_occupancy
  Mg  Mg0  2  0.00000000  0.25000000  0.86675000  1.0
  Mg  Mg1  2  0.00000000  0.25176000  0.04585000  1.0
  Mg  Mg2  1  0.50000000  0.00000000  0.13400000  1.0
  Mg  Mg3  1  0.50000000  0.00000000  0.95558000  1.0
  Mg  Mg4  1  0.50000000  0.50000000  0.13573000  1.0
  Mg  Mg5  1  0.50000000  0.50000000  0.95558000  1.0
  In  In6  2  0.50000000  0.24934000  0.04510000  1.0
  In  In7  2  0.50000000  0.25000000  0.86675000  1.0
  In  In8  1  0.00000000  0.00000000  0.14972000  1.0
  In  In9  1  0.00000000  0.00000000  0.95558000  1.0
  In  In10  1  0.00000000  0.50000000  0.14855000  1.0
  In  In11  1  0.00000000  0.50000000  0.95558000  1.0
  Ag  Ag12  4  0.24777000  0.25273000  0.13320000  1.0
  Ag  Ag13  4  0.25000000  0.25000000  0.95558000  1.0
  Ag  Ag14  2  0.23356000  0.00000000  0.04945000  1.0
  Ag  Ag15  2  0.23885000  0.50000000  0.04808000  1.0
  Ag  Ag16  2  0.25000000  0.00000000  0.86675000  1.0
  Ag  Ag17  2  0.25000000  0.50000000  0.86675000  1.0
  C  C18  1  0.50000000  0.00000000  0.21624000  1.0
  O  O19  1  0.50000000  0.00000000  0.25818000  1.0
