# generated using pymatgen
data_Cr8Pt24CO
_symmetry_space_group_name_H-M   P4mm
_cell_length_a   7.90097000
_cell_length_b   7.90097000
_cell_length_c   25.92570000
_cell_angle_alpha   90.00000000
_cell_angle_beta   90.00000000
_cell_angle_gamma   90.00000000
_symmetry_Int_Tables_number   99
_chemical_formula_structural   Cr8Pt24CO
_chemical_formula_sum   'Cr8 Pt24 C1 O1'
_cell_volume   1618.42029867
_cell_formula_units_Z   1
loop_
 _symmetry_equiv_pos_site_id
 _symmetry_equiv_pos_as_xyz
  1  'x, y, z'
  2  '-y, x, z'
  3  '-x, -y, z'
  4  'y, -x, z'
  5  '-x, y, z'
  6  'y, x, z'
  7  'x, -y, z'
  8  '-y, -x, z'
loop_
 _atom_site_type_symbol
 _atom_site_label
 _atom_site_symmetry_multiplicity
 _atom_site_fract_x
 _atom_site_fract_y
 _atom_site_fract_z
 _atom_site_occupancy
  Cr  Cr0  2  0.00000000  0.50000000  0.11428000  1.0
  Cr  Cr1  2  0.00000000  0.50000000  0.96191000  1.0
  Cr  Cr2  1  0.00000000  0.00000000  0.11428000  1.0
  Cr  Cr3  1  0.00000000  0.00000000  0.96191000  1.0
  Cr  Cr4  1  0.50000000  0.50000000  0.11428000  1.0
  Cr  Cr5  1  0.50000000  0.50000000  0.96191000  1.0
  Pt  Pt6  4  0.00000000  0.25000000  0.03809000  1.0
  Pt  Pt7  4  0.00000000  0.25000000  0.88572000  1.0
  Pt  Pt8  4  0.25000000  0.25000000  0.11428000  1.0
  Pt  Pt9  4  0.25000000  0.25000000  0.96191000  1.0
  Pt  Pt10  4  0.25000000  0.50000000  0.03809000  1.0
  Pt  Pt11  4  0.25000000  0.50000000  0.88572000  1.0
  C  C12  1  0.00000000  0.00000000  0.18757000  1.0
  O  O13  1  0.00000000  0.00000000  0.23193000  1.0
