# generated using pymatgen
data_YBiPd2
_symmetry_space_group_name_H-M   Pmm2
_cell_length_a   4.94731000
_cell_length_b   6.99655000
_cell_length_c   27.42100000
_cell_angle_alpha   90.00000000
_cell_angle_beta   90.00000000
_cell_angle_gamma   90.00000000
_symmetry_Int_Tables_number   25
_chemical_formula_structural   YBiPd2
_chemical_formula_sum   'Y4 Bi4 Pd8'
_cell_volume   949.15328492
_cell_formula_units_Z   4
loop_
 _symmetry_equiv_pos_site_id
 _symmetry_equiv_pos_as_xyz
  1  'x, y, z'
  2  '-x, -y, z'
  3  '-x, y, z'
  4  'x, -y, z'
loop_
 _atom_site_type_symbol
 _atom_site_label
 _atom_site_symmetry_multiplicity
 _atom_site_fract_x
 _atom_site_fract_y
 _atom_site_fract_z
 _atom_site_occupancy
  Y  Y0  1  0.00000000  0.00000000  0.13532000  1.0
  Y  Y1  1  0.00000000  0.00000000  0.95314000  1.0
  Y  Y2  1  0.50000000  0.50000000  0.04511000  1.0
  Y  Y3  1  0.50000000  0.50000000  0.86633000  1.0
  Bi  Bi4  1  0.00000000  0.50000000  0.13532000  1.0
  Bi  Bi5  1  0.00000000  0.50000000  0.95728000  1.0
  Bi  Bi6  1  0.50000000  0.00000000  0.04511000  1.0
  Bi  Bi7  1  0.50000000  0.00000000  0.85911000  1.0
  Pd  Pd8  2  0.00000000  0.25000000  0.04511000  1.0
  Pd  Pd9  2  0.00000000  0.26796000  0.87026000  1.0
  Pd  Pd10  2  0.50000000  0.24182000  0.95143000  1.0
  Pd  Pd11  2  0.50000000  0.25000000  0.13532000  1.0
