# generated using pymatgen
data_Sc8Al8Cu8Pd8CO
_symmetry_space_group_name_H-M   'P 1'
_cell_length_a   8.94626000
_cell_length_b   6.32596000
_cell_length_c   26.70970000
_cell_angle_alpha   90.00000000
_cell_angle_beta   90.00000000
_cell_angle_gamma   90.00000000
_symmetry_Int_Tables_number   1
_chemical_formula_structural   Sc8Al8Cu8Pd8CO
_chemical_formula_sum   'Sc8 Al8 Cu8 Pd8 C1 O1'
_cell_volume   1511.60029241
_cell_formula_units_Z   1
loop_
 _symmetry_equiv_pos_site_id
 _symmetry_equiv_pos_as_xyz
  1  'x, y, z'
loop_
 _atom_site_type_symbol
 _atom_site_label
 _atom_site_symmetry_multiplicity
 _atom_site_fract_x
 _atom_site_fract_y
 _atom_site_fract_z
 _atom_site_occupancy
  Sc  Sc0  1  0.24997000  1.00000000  0.04187000  1.0
  Sc  Sc1  1  0.75003000  1.00000000  0.04187000  1.0
  Sc  Sc2  1  0.50000000  0.50000000  0.12560000  1.0
  Sc  Sc3  1  0.00000000  0.50000000  0.12560000  1.0
  Sc  Sc4  1  0.75186000  0.00343000  0.86960000  1.0
  Sc  Sc5  1  0.24814000  0.00343000  0.86960000  1.0
  Sc  Sc6  1  0.00000000  0.49514000  0.95850000  1.0
  Sc  Sc7  1  0.50000000  0.50006000  0.96007000  1.0
  Al  Al8  1  0.00000000  0.00000000  0.12560000  1.0
  Al  Al9  1  0.50000000  1.00000000  0.12560000  1.0
  Al  Al10  1  0.74997000  0.50000000  0.04187000  1.0
  Al  Al11  1  0.25003000  0.50000000  0.04187000  1.0
  Al  Al12  1  0.50000000  0.00121000  0.95554000  1.0
  Al  Al13  1  0.00000000  0.00601000  0.95399000  1.0
  Al  Al14  1  0.25285000  0.50080000  0.87990000  1.0
  Al  Al15  1  0.74715000  0.50080000  0.87990000  1.0
  Cu  Cu16  1  0.00000000  0.75000000  0.04187000  1.0
  Cu  Cu17  1  0.50000000  0.75000000  0.04187000  1.0
  Cu  Cu18  1  0.24997000  0.25000000  0.12560000  1.0
  Cu  Cu19  1  0.75003000  0.25000000  0.12560000  1.0
  Cu  Cu20  1  0.50000000  0.73717000  0.87758000  1.0
  Cu  Cu21  1  0.00000000  0.72672000  0.87840000  1.0
  Cu  Cu22  1  0.75054000  0.23401000  0.95608000  1.0
  Cu  Cu23  1  0.24946000  0.23401000  0.95608000  1.0
  Pd  Pd24  1  0.00000000  0.25000000  0.04187000  1.0
  Pd  Pd25  1  0.50000000  0.25000000  0.04187000  1.0
  Pd  Pd26  1  0.24997000  0.75000000  0.12560000  1.0
  Pd  Pd27  1  0.75003000  0.75000000  0.12560000  1.0
  Pd  Pd28  1  0.50000000  0.26522000  0.87816000  1.0
  Pd  Pd29  1  0.00000000  0.27687000  0.86439000  1.0
  Pd  Pd30  1  0.75053000  0.76714000  0.95647000  1.0
  Pd  Pd31  1  0.24947000  0.76714000  0.95647000  1.0
  C  C32  1  0.00000000  0.20442000  0.79279000  1.0
  O  O33  1  0.00000000  0.19920000  0.74944000  1.0
