# generated using pymatgen
data_Sc8Al8Cu8Pd8CO
_symmetry_space_group_name_H-M   Pm
_cell_length_a   6.32596000
_cell_length_b   8.94626000
_cell_length_c   26.70970000
_cell_angle_alpha   90.00000000
_cell_angle_beta   90.00000000
_cell_angle_gamma   90.00000000
_symmetry_Int_Tables_number   6
_chemical_formula_structural   Sc8Al8Cu8Pd8CO
_chemical_formula_sum   'Sc8 Al8 Cu8 Pd8 C1 O1'
_cell_volume   1511.60029241
_cell_formula_units_Z   1
loop_
 _symmetry_equiv_pos_site_id
 _symmetry_equiv_pos_as_xyz
  1  'x, y, z'
  2  'x, -y, z'
loop_
 _atom_site_type_symbol
 _atom_site_label
 _atom_site_symmetry_multiplicity
 _atom_site_fract_x
 _atom_site_fract_y
 _atom_site_fract_z
 _atom_site_occupancy
  Sc  Sc0  2  -0.00000000  0.24997000  0.95813000  1.0
  Sc  Sc1  2  0.00343000  0.24814000  0.13040000  1.0
  Sc  Sc2  1  0.49514000  0.00000000  0.04150000  1.0
  Sc  Sc3  1  0.50000000  0.00000000  0.87440000  1.0
  Sc  Sc4  1  0.50000000  0.50000000  0.87440000  1.0
  Sc  Sc5  1  0.50006000  0.50000000  0.03993000  1.0
  Al  Al6  2  0.50000000  0.25003000  0.95813000  1.0
  Al  Al7  2  0.50080000  0.25285000  0.12010000  1.0
  Al  Al8  1  -0.00000000  0.50000000  0.87440000  1.0
  Al  Al9  1  0.00000000  0.00000000  0.87440000  1.0
  Al  Al10  1  0.00121000  0.50000000  0.04446000  1.0
  Al  Al11  1  0.00601000  0.00000000  0.04601000  1.0
  Cu  Cu12  2  0.23401000  0.24946000  0.04392000  1.0
  Cu  Cu13  2  0.25000000  0.24997000  0.87440000  1.0
  Cu  Cu14  1  0.72672000  0.00000000  0.12160000  1.0
  Cu  Cu15  1  0.73717000  0.50000000  0.12242000  1.0
  Cu  Cu16  1  0.75000000  0.00000000  0.95813000  1.0
  Cu  Cu17  1  0.75000000  0.50000000  0.95813000  1.0
  Pd  Pd18  2  0.75000000  0.24997000  0.87440000  1.0
  Pd  Pd19  2  0.76714000  0.24947000  0.04353000  1.0
  Pd  Pd20  1  0.25000000  0.00000000  0.95813000  1.0
  Pd  Pd21  1  0.25000000  0.50000000  0.95813000  1.0
  Pd  Pd22  1  0.26522000  0.50000000  0.12184000  1.0
  Pd  Pd23  1  0.27687000  0.00000000  0.13561000  1.0
  C  C24  1  0.20442000  0.00000000  0.20721000  1.0
  O  O25  1  0.19920000  0.00000000  0.25056000  1.0
