# generated using pymatgen
data_Mn8Ga8Ni16C
_symmetry_space_group_name_H-M   Pm
_cell_length_a   5.88011000
_cell_length_b   8.31574000
_cell_length_c   26.23680000
_cell_angle_alpha   90.00000000
_cell_angle_beta   90.00000000
_cell_angle_gamma   90.00000000
_symmetry_Int_Tables_number   6
_chemical_formula_structural   Mn8Ga8Ni16C
_chemical_formula_sum   'Mn8 Ga8 Ni16 C1'
_cell_volume   1282.91303415
_cell_formula_units_Z   1
loop_
 _symmetry_equiv_pos_site_id
 _symmetry_equiv_pos_as_xyz
  1  'x, y, z'
  2  'x, -y, z'
loop_
 _atom_site_type_symbol
 _atom_site_label
 _atom_site_symmetry_multiplicity
 _atom_site_fract_x
 _atom_site_fract_y
 _atom_site_fract_z
 _atom_site_occupancy
  Mn  Mn0  2  0.00000000  0.25000000  0.88114000  1.0
  Mn  Mn1  2  0.99767000  0.25430000  0.03677000  1.0
  Mn  Mn2  1  0.49119000  0.50000000  0.12064000  1.0
  Mn  Mn3  1  0.50000000  0.00000000  0.96038000  1.0
  Mn  Mn4  1  0.50000000  0.50000000  0.96038000  1.0
  Mn  Mn5  1  0.54172000  0.00000000  0.11357000  1.0
  Ga  Ga6  2  0.49819000  0.24695000  0.03846000  1.0
  Ga  Ga7  2  0.50000000  0.25000000  0.88114000  1.0
  Ga  Ga8  1  -0.00000000  0.50000000  0.96038000  1.0
  Ga  Ga9  1  -0.00000000  0.00000000  0.96038000  1.0
  Ga  Ga10  1  0.00708000  0.50000000  0.11878000  1.0
  Ga  Ga11  1  0.92546000  0.00000000  0.14207000  1.0
  Ni  Ni12  2  0.23249000  0.23334000  0.11336000  1.0
  Ni  Ni13  2  0.25000000  0.25000000  0.96038000  1.0
  Ni  Ni14  2  0.75000000  0.25000000  0.96038000  1.0
  Ni  Ni15  2  0.75765000  0.25779000  0.11229000  1.0
  Ni  Ni16  1  0.23573000  0.00000000  0.04345000  1.0
  Ni  Ni17  1  0.25000000  0.00000000  0.88114000  1.0
  Ni  Ni18  1  0.25000000  0.50000000  0.88114000  1.0
  Ni  Ni19  1  0.25501000  0.50000000  0.03928000  1.0
  Ni  Ni20  1  0.74361000  0.50000000  0.04007000  1.0
  Ni  Ni21  1  0.75000000  0.00000000  0.88114000  1.0
  Ni  Ni22  1  0.75000000  0.50000000  0.88114000  1.0
  Ni  Ni23  1  0.76205000  0.00000000  0.03640000  1.0
  C  C24  1  0.24243000  0.00000000  0.12291000  1.0
