data_image0
_chemical_formula_structural       Zr8Al24CO
_chemical_formula_sum              "Zr8 Al24 C1 O1"
_cell_length_a       8.19423
_cell_length_b       8.19423
_cell_length_c       26.1457
_cell_angle_alpha    90
_cell_angle_beta     90
_cell_angle_gamma    90

_space_group_name_H-M_alt    "P 1"
_space_group_IT_number       1

loop_
  _space_group_symop_operation_xyz
  'x, y, z'

loop_
  _atom_site_type_symbol
  _atom_site_label
  _atom_site_symmetry_multiplicity
  _atom_site_fract_x
  _atom_site_fract_y
  _atom_site_fract_z
  _atom_site_occupancy
  Zr  Zr1       1.0  0.00104  0.00096  0.11418  1.0000
  Zr  Zr2       1.0  0.00000  0.00000  0.96082  1.0000
  Zr  Zr3       1.0  0.00109  0.49905  0.11416  1.0000
  Zr  Zr4       1.0  0.00000  0.50000  0.96082  1.0000
  Zr  Zr5       1.0  0.49890  0.00093  0.11416  1.0000
  Zr  Zr6       1.0  0.50000  0.00000  0.96082  1.0000
  Zr  Zr7       1.0  0.49897  0.49905  0.11416  1.0000
  Zr  Zr8       1.0  0.50000  0.50000  0.96082  1.0000
  Al  Al1       1.0  0.99701  0.24999  0.03984  1.0000
  Al  Al2       1.0  0.24996  0.99697  0.03985  1.0000
  Al  Al3       1.0  0.25001  0.25000  0.12107  1.0000
  Al  Al4       1.0  0.00000  0.25000  0.88247  1.0000
  Al  Al5       1.0  0.25000  0.00000  0.88247  1.0000
  Al  Al6       1.0  0.25000  0.25000  0.96082  1.0000
  Al  Al7       1.0  0.99822  0.75002  0.04030  1.0000
  Al  Al8       1.0  0.25002  0.50302  0.03984  1.0000
  Al  Al9       1.0  0.24999  0.74999  0.12086  1.0000
  Al  Al10      1.0  0.00000  0.75000  0.88247  1.0000
  Al  Al11      1.0  0.25000  0.50000  0.88247  1.0000
  Al  Al12      1.0  0.25000  0.75000  0.96082  1.0000
  Al  Al13      1.0  0.50298  0.25000  0.03984  1.0000
  Al  Al14      1.0  0.74999  0.99818  0.04029  1.0000
  Al  Al15      1.0  0.74999  0.25000  0.12089  1.0000
  Al  Al16      1.0  0.50000  0.25000  0.88247  1.0000
  Al  Al17      1.0  0.75000  0.00000  0.88247  1.0000
  Al  Al18      1.0  0.75000  0.25000  0.96082  1.0000
  Al  Al19      1.0  0.50178  0.75000  0.04029  1.0000
  Al  Al20      1.0  0.75002  0.50181  0.04028  1.0000
  Al  Al21      1.0  0.75001  0.75000  0.12306  1.0000
  Al  Al22      1.0  0.50000  0.75000  0.88247  1.0000
  Al  Al23      1.0  0.75000  0.50000  0.88247  1.0000
  Al  Al24      1.0  0.75000  0.75000  0.96082  1.0000
  C   C1        1.0  0.25001  0.25007  0.19694  1.0000
  O   O1        1.0  0.24997  0.25006  0.24147  1.0000
