# generated using pymatgen
data_Zr8Al24CO
_symmetry_space_group_name_H-M   Pm
_cell_length_a   8.19423000
_cell_length_b   8.19423000
_cell_length_c   26.14570000
_cell_angle_alpha   90.00000000
_cell_angle_beta   90.00000000
_cell_angle_gamma   90.00000000
_symmetry_Int_Tables_number   6
_chemical_formula_structural   Zr8Al24CO
_chemical_formula_sum   'Zr8 Al24 C1 O1'
_cell_volume   1755.56362317
_cell_formula_units_Z   1
loop_
 _symmetry_equiv_pos_site_id
 _symmetry_equiv_pos_as_xyz
  1  'x, y, z'
  2  'x, -y, z'
loop_
 _atom_site_type_symbol
 _atom_site_label
 _atom_site_symmetry_multiplicity
 _atom_site_fract_x
 _atom_site_fract_y
 _atom_site_fract_z
 _atom_site_occupancy
  Zr  Zr0  2  0.00000000  0.24999000  0.96082000  1.0
  Zr  Zr1  2  0.00096000  0.25103000  0.11418000  1.0
  Zr  Zr2  2  0.49905000  0.25108000  0.11416000  1.0
  Zr  Zr3  2  0.50000000  0.24999000  0.96082000  1.0
  Al  Al4  2  0.24999000  0.24700000  0.03984000  1.0
  Al  Al5  2  0.25000000  0.24999000  0.88247000  1.0
  Al  Al6  2  0.75000000  0.24999000  0.88247000  1.0
  Al  Al7  2  0.75002000  0.24821000  0.04030000  1.0
  Al  Al8  1  0.00000000  0.00000000  0.88247000  1.0
  Al  Al9  1  0.00000000  0.50000000  0.88247000  1.0
  Al  Al10  1  0.25000000  0.00000000  0.12089000  1.0
  Al  Al11  1  0.25000000  0.00000000  0.96082000  1.0
  Al  Al12  1  0.25000000  0.50000000  0.12107000  1.0
  Al  Al13  1  0.25000000  0.50000000  0.96082000  1.0
  Al  Al14  1  0.50000000  0.00000000  0.88247000  1.0
  Al  Al15  1  0.50000000  0.50000000  0.88247000  1.0
  Al  Al16  1  0.50181000  0.00000000  0.04028000  1.0
  Al  Al17  1  0.50302000  0.50000000  0.03984000  1.0
  Al  Al18  1  0.74999000  0.50000000  0.12086000  1.0
  Al  Al19  1  0.75000000  0.00000000  0.12306000  1.0
  Al  Al20  1  0.75000000  0.00000000  0.96082000  1.0
  Al  Al21  1  0.75000000  0.50000000  0.96082000  1.0
  Al  Al22  1  0.99697000  0.50000000  0.03985000  1.0
  Al  Al23  1  0.99818000  0.00000000  0.04029000  1.0
  C  C24  1  0.25007000  0.50000000  0.19694000  1.0
  O  O25  1  0.25006000  0.50000000  0.24147000  1.0
