data_image0
_chemical_formula_structural       Y32CO
_chemical_formula_sum              "Y32 C1 O1"
_cell_length_a       10.102
_cell_length_b       10.102
_cell_length_c       27.5765
_cell_angle_alpha    90
_cell_angle_beta     90
_cell_angle_gamma    90

_space_group_name_H-M_alt    "P 1"
_space_group_IT_number       1

loop_
  _space_group_symop_operation_xyz
  'x, y, z'

loop_
  _atom_site_type_symbol
  _atom_site_label
  _atom_site_symmetry_multiplicity
  _atom_site_fract_x
  _atom_site_fract_y
  _atom_site_fract_z
  _atom_site_occupancy
  Y   Y1        1.0  0.00000  0.00000  0.86263  1.0000
  Y   Y2        1.0  0.25000  0.25000  0.86263  1.0000
  Y   Y3        1.0  0.25000  0.00000  0.95421  1.0000
  Y   Y4        1.0  0.00000  0.25000  0.95421  1.0000
  Y   Y5        1.0  0.99564  0.00000  0.04595  1.0000
  Y   Y6        1.0  0.24996  0.25432  0.04594  1.0000
  Y   Y7        1.0  0.25006  1.00000  0.12892  1.0000
  Y   Y8        1.0  0.00520  0.24472  0.13390  1.0000
  Y   Y9        1.0  0.00000  0.50000  0.86263  1.0000
  Y   Y10       1.0  0.25000  0.75000  0.86263  1.0000
  Y   Y11       1.0  0.25000  0.50000  0.95421  1.0000
  Y   Y12       1.0  0.00000  0.75000  0.95421  1.0000
  Y   Y13       1.0  0.99885  0.50000  0.04849  1.0000
  Y   Y14       1.0  0.24996  0.74568  0.04594  1.0000
  Y   Y15       1.0  0.24989  0.50000  0.13314  1.0000
  Y   Y16       1.0  0.00520  0.75528  0.13390  1.0000
  Y   Y17       1.0  0.50000  0.00000  0.86263  1.0000
  Y   Y18       1.0  0.75000  0.25000  0.86263  1.0000
  Y   Y19       1.0  0.75000  0.00000  0.95421  1.0000
  Y   Y20       1.0  0.50000  0.25000  0.95421  1.0000
  Y   Y21       1.0  0.50427  1.00000  0.04594  1.0000
  Y   Y22       1.0  0.74995  0.25110  0.04850  1.0000
  Y   Y23       1.0  0.74990  1.00000  0.13314  1.0000
  Y   Y24       1.0  0.49467  0.24477  0.13391  1.0000
  Y   Y25       1.0  0.50000  0.50000  0.86263  1.0000
  Y   Y26       1.0  0.75000  0.75000  0.86263  1.0000
  Y   Y27       1.0  0.75000  0.50000  0.95421  1.0000
  Y   Y28       1.0  0.50000  0.75000  0.95421  1.0000
  Y   Y29       1.0  0.50105  0.50000  0.04851  1.0000
  Y   Y30       1.0  0.74995  0.74890  0.04850  1.0000
  Y   Y31       1.0  0.74996  0.50000  0.13536  1.0000
  Y   Y32       1.0  0.49467  0.75523  0.13391  1.0000
  C   C1        1.0  0.25136  0.00000  0.21637  1.0000
  O   O1        1.0  0.25152  0.00000  0.25862  1.0000
