# generated using pymatgen
data_Y32CO
_symmetry_space_group_name_H-M   Pm
_cell_length_a   10.10200000
_cell_length_b   10.10200000
_cell_length_c   27.57650000
_cell_angle_alpha   90.00000000
_cell_angle_beta   90.00000000
_cell_angle_gamma   90.00000000
_symmetry_Int_Tables_number   6
_chemical_formula_structural   Y32CO
_chemical_formula_sum   'Y32 C1 O1'
_cell_volume   2814.19296591
_cell_formula_units_Z   1
loop_
 _symmetry_equiv_pos_site_id
 _symmetry_equiv_pos_as_xyz
  1  'x, y, z'
  2  'x, -y, z'
loop_
 _atom_site_type_symbol
 _atom_site_label
 _atom_site_symmetry_multiplicity
 _atom_site_fract_x
 _atom_site_fract_y
 _atom_site_fract_z
 _atom_site_occupancy
  Y  Y0  2  0.00000000  0.25000000  0.95421000  1.0
  Y  Y1  2  0.00520000  0.24472000  0.13390000  1.0
  Y  Y2  2  0.24996000  0.25432000  0.04594000  1.0
  Y  Y3  2  0.25000000  0.25000000  0.86263000  1.0
  Y  Y4  2  0.49467000  0.24477000  0.13391000  1.0
  Y  Y5  2  0.50000000  0.25000000  0.95421000  1.0
  Y  Y6  2  0.74995000  0.25110000  0.04850000  1.0
  Y  Y7  2  0.75000000  0.25000000  0.86263000  1.0
  Y  Y8  1  0.00000000  0.00000000  0.86263000  1.0
  Y  Y9  1  0.00000000  0.50000000  0.86263000  1.0
  Y  Y10  1  0.24989000  0.50000000  0.13314000  1.0
  Y  Y11  1  0.25000000  0.00000000  0.95421000  1.0
  Y  Y12  1  0.25000000  0.50000000  0.95421000  1.0
  Y  Y13  1  0.25006000  0.00000000  0.12892000  1.0
  Y  Y14  1  0.50000000  0.00000000  0.86263000  1.0
  Y  Y15  1  0.50000000  0.50000000  0.86263000  1.0
  Y  Y16  1  0.50105000  0.50000000  0.04851000  1.0
  Y  Y17  1  0.50427000  0.00000000  0.04594000  1.0
  Y  Y18  1  0.74990000  0.00000000  0.13314000  1.0
  Y  Y19  1  0.74996000  0.50000000  0.13536000  1.0
  Y  Y20  1  0.75000000  0.00000000  0.95421000  1.0
  Y  Y21  1  0.75000000  0.50000000  0.95421000  1.0
  Y  Y22  1  0.99564000  0.00000000  0.04595000  1.0
  Y  Y23  1  0.99885000  0.50000000  0.04849000  1.0
  C  C24  1  0.25136000  0.00000000  0.21637000  1.0
  O  O25  1  0.25152000  0.00000000  0.25862000  1.0
