# generated using pymatgen
data_Y4Sc4In4Pd4C
_symmetry_space_group_name_H-M   'P 1'
_cell_length_a   9.64246000
_cell_length_b   6.25545000
_cell_length_c   24.46440000
_cell_angle_alpha   90.00000000
_cell_angle_beta   90.00000000
_cell_angle_gamma   90.00000000
_symmetry_Int_Tables_number   1
_chemical_formula_structural   Y4Sc4In4Pd4C
_chemical_formula_sum   'Y4 Sc4 In4 Pd4 C1'
_cell_volume   1475.64187879
_cell_formula_units_Z   1
loop_
 _symmetry_equiv_pos_site_id
 _symmetry_equiv_pos_as_xyz
  1  'x, y, z'
loop_
 _atom_site_type_symbol
 _atom_site_label
 _atom_site_symmetry_multiplicity
 _atom_site_fract_x
 _atom_site_fract_y
 _atom_site_fract_z
 _atom_site_occupancy
  Y  Y0  1  0.77670000  0.43456000  0.90326000  1.0
  Y  Y1  1  0.74999000  0.84630000  0.03041000  1.0
  Y  Y2  1  0.22330000  0.43456000  0.90326000  1.0
  Y  Y3  1  0.25001000  0.84630000  0.03041000  1.0
  Sc  Sc4  1  0.00000000  0.09739000  0.96624000  1.0
  Sc  Sc5  1  0.00000000  0.51945000  0.09124000  1.0
  Sc  Sc6  1  0.50000000  0.17385000  0.98493000  1.0
  Sc  Sc7  1  0.50000000  0.51945000  0.09124000  1.0
  In  In8  1  0.66249000  0.92003000  0.90110000  1.0
  In  In9  1  0.74999000  0.34630000  0.03041000  1.0
  In  In10  1  0.33751000  0.92003000  0.90110000  1.0
  In  In11  1  0.25001000  0.34630000  0.03041000  1.0
  Pd  Pd12  1  0.00000000  0.59123000  0.98561000  1.0
  Pd  Pd13  1  0.00000000  0.01945000  0.09124000  1.0
  Pd  Pd14  1  0.50000000  0.63040000  0.98242000  1.0
  Pd  Pd15  1  0.50000000  0.01945000  0.09124000  1.0
  C  C16  1  0.00000000  0.35246000  0.91263000  1.0
