# generated using pymatgen
data_Y4Sc4In4Pd4C
_symmetry_space_group_name_H-M   Pm
_cell_length_a   6.25545000
_cell_length_b   9.64246000
_cell_length_c   24.46440000
_cell_angle_alpha   90.00000000
_cell_angle_beta   90.00000000
_cell_angle_gamma   90.00000000
_symmetry_Int_Tables_number   6
_chemical_formula_structural   Y4Sc4In4Pd4C
_chemical_formula_sum   'Y4 Sc4 In4 Pd4 C1'
_cell_volume   1475.64187879
_cell_formula_units_Z   1
loop_
 _symmetry_equiv_pos_site_id
 _symmetry_equiv_pos_as_xyz
  1  'x, y, z'
  2  'x, -y, z'
loop_
 _atom_site_type_symbol
 _atom_site_label
 _atom_site_symmetry_multiplicity
 _atom_site_fract_x
 _atom_site_fract_y
 _atom_site_fract_z
 _atom_site_occupancy
  Y  Y0  2  0.43456000  0.22330000  0.09674000  1.0
  Y  Y1  2  0.84630000  0.25001000  0.96959000  1.0
  Sc  Sc2  1  0.09739000  0.00000000  0.03376000  1.0
  Sc  Sc3  1  0.17385000  0.50000000  0.01507000  1.0
  Sc  Sc4  1  0.51945000  0.00000000  0.90876000  1.0
  Sc  Sc5  1  0.51945000  0.50000000  0.90876000  1.0
  In  In6  2  0.34630000  0.25001000  0.96959000  1.0
  In  In7  2  0.92003000  0.33751000  0.09890000  1.0
  Pd  Pd8  1  0.01945000  0.00000000  0.90876000  1.0
  Pd  Pd9  1  0.01945000  0.50000000  0.90876000  1.0
  Pd  Pd10  1  0.59123000  0.00000000  0.01439000  1.0
  Pd  Pd11  1  0.63040000  0.50000000  0.01758000  1.0
  C  C12  1  0.35246000  0.00000000  0.08737000  1.0
