# generated using pymatgen
data_Li4Y4Sn4Pb4CO
_symmetry_space_group_name_H-M   'P 1'
_cell_length_a   6.55220000
_cell_length_b   9.36828000
_cell_length_c   24.89710000
_cell_angle_alpha   90.00000000
_cell_angle_beta   90.00000000
_cell_angle_gamma   90.00000000
_symmetry_Int_Tables_number   1
_chemical_formula_structural   Li4Y4Sn4Pb4CO
_chemical_formula_sum   'Li4 Y4 Sn4 Pb4 C1 O1'
_cell_volume   1528.25481073
_cell_formula_units_Z   1
loop_
 _symmetry_equiv_pos_site_id
 _symmetry_equiv_pos_as_xyz
  1  'x, y, z'
loop_
 _atom_site_type_symbol
 _atom_site_label
 _atom_site_symmetry_multiplicity
 _atom_site_fract_x
 _atom_site_fract_y
 _atom_site_fract_z
 _atom_site_occupancy
  Li  Li0  1  0.00000000  0.00000000  0.90165000  1.0
  Li  Li1  1  0.45381000  0.99993000  0.03006000  1.0
  Li  Li2  1  0.00000000  0.50000000  0.90165000  1.0
  Li  Li3  1  0.45373000  0.50008000  0.03009000  1.0
  Y  Y4  1  0.72916000  0.25000000  0.96722000  1.0
  Y  Y5  1  0.15609000  0.24992000  0.09821000  1.0
  Y  Y6  1  0.72916000  0.75000000  0.96722000  1.0
  Y  Y7  1  0.15663000  0.74971000  0.09732000  1.0
  Sn  Sn8  1  0.50000000  0.00000000  0.90165000  1.0
  Sn  Sn9  1  0.91621000  0.99761000  0.04289000  1.0
  Sn  Sn10  1  0.50000000  0.50000000  0.90165000  1.0
  Sn  Sn11  1  0.91616000  0.50209000  0.04294000  1.0
  Pb  Pb12  1  0.22916000  0.25000000  0.96722000  1.0
  Pb  Pb13  1  0.66707000  0.24977000  0.11114000  1.0
  Pb  Pb14  1  0.22916000  0.75000000  0.96722000  1.0
  Pb  Pb15  1  0.66569000  0.75001000  0.11106000  1.0
  C  C16  1  0.29253000  0.25124000  0.18971000  1.0
  O  O17  1  0.34909000  0.25150000  0.23366000  1.0
