# generated using pymatgen
data_Mn8Al8Co16C
_symmetry_space_group_name_H-M   'P 1'
_cell_length_a   5.71239000
_cell_length_b   8.07854000
_cell_length_c   26.05890000
_cell_angle_alpha   90.00000000
_cell_angle_beta   90.00000000
_cell_angle_gamma   90.00000000
_symmetry_Int_Tables_number   1
_chemical_formula_structural   Mn8Al8Co16C
_chemical_formula_sum   'Mn8 Al8 Co16 C1'
_cell_volume   1202.56015259
_cell_formula_units_Z   1
loop_
 _symmetry_equiv_pos_site_id
 _symmetry_equiv_pos_as_xyz
  1  'x, y, z'
loop_
 _atom_site_type_symbol
 _atom_site_label
 _atom_site_symmetry_multiplicity
 _atom_site_fract_x
 _atom_site_fract_y
 _atom_site_fract_z
 _atom_site_occupancy
  Mn  Mn0  1  0.00000000  0.00000000  0.88375000  1.0
  Mn  Mn1  1  0.50000000  0.25000000  0.96125000  1.0
  Mn  Mn2  1  0.50000000  0.75000000  0.96125000  1.0
  Mn  Mn3  1  0.00000000  0.50000000  0.88375000  1.0
  Mn  Mn4  1  0.00000000  0.50000000  0.03878000  1.0
  Mn  Mn5  1  0.50000000  0.73862000  0.11806000  1.0
  Mn  Mn6  1  0.50000000  0.26138000  0.11806000  1.0
  Mn  Mn7  1  0.00000000  0.00000000  0.03964000  1.0
  Al  Al8  1  0.00000000  0.75000000  0.96125000  1.0
  Al  Al9  1  0.50000000  0.00000000  0.88375000  1.0
  Al  Al10  1  0.00000000  0.25000000  0.96125000  1.0
  Al  Al11  1  0.50000000  0.50000000  0.88375000  1.0
  Al  Al12  1  0.00000000  0.24571000  0.11954000  1.0
  Al  Al13  1  0.50000000  0.50000000  0.03929000  1.0
  Al  Al14  1  0.00000000  0.75429000  0.11954000  1.0
  Al  Al15  1  0.50000000  0.00000000  0.03549000  1.0
  Co  Co16  1  0.25000000  0.00000000  0.96125000  1.0
  Co  Co17  1  0.75000000  0.50000000  0.96125000  1.0
  Co  Co18  1  0.75000000  0.00000000  0.96125000  1.0
  Co  Co19  1  0.25000000  0.50000000  0.96125000  1.0
  Co  Co20  1  0.75000000  0.75000000  0.88375000  1.0
  Co  Co21  1  0.25000000  0.25000000  0.88375000  1.0
  Co  Co22  1  0.25000000  0.75000000  0.88375000  1.0
  Co  Co23  1  0.75000000  0.25000000  0.88375000  1.0
  Co  Co24  1  0.23391000  0.50000000  0.11570000  1.0
  Co  Co25  1  0.72282000  0.00000000  0.11657000  1.0
  Co  Co26  1  0.76609000  0.50000000  0.11570000  1.0
  Co  Co27  1  0.27718000  0.00000000  0.11657000  1.0
  Co  Co28  1  0.74994000  0.24936000  0.04021000  1.0
  Co  Co29  1  0.25006000  0.75064000  0.04021000  1.0
  Co  Co30  1  0.25006000  0.24936000  0.04021000  1.0
  Co  Co31  1  0.74994000  0.75064000  0.04021000  1.0
  C  C32  1  0.00000000  0.00000000  0.14478000  1.0
