# generated using pymatgen
data_Li8Ga16Pd8C
_symmetry_space_group_name_H-M   'P 1'
_cell_length_a   8.83103000
_cell_length_b   6.24448000
_cell_length_c   26.62330000
_cell_angle_alpha   90.00000000
_cell_angle_beta   90.00000000
_cell_angle_gamma   90.00000000
_symmetry_Int_Tables_number   1
_chemical_formula_structural   Li8Ga16Pd8C
_chemical_formula_sum   'Li8 Ga16 Pd8 C1'
_cell_volume   1468.14694264
_cell_formula_units_Z   1
loop_
 _symmetry_equiv_pos_site_id
 _symmetry_equiv_pos_as_xyz
  1  'x, y, z'
loop_
 _atom_site_type_symbol
 _atom_site_label
 _atom_site_symmetry_multiplicity
 _atom_site_fract_x
 _atom_site_fract_y
 _atom_site_fract_z
 _atom_site_occupancy
  Li  Li0  1  0.75000000  0.00000000  0.12439000  1.0
  Li  Li1  1  0.00000000  0.50000000  0.04146000  1.0
  Li  Li2  1  0.50000000  0.50000000  0.04146000  1.0
  Li  Li3  1  0.25000000  0.00000000  0.12439000  1.0
  Li  Li4  1  0.24634000  0.00335000  0.95423000  1.0
  Li  Li5  1  0.50000000  0.46639000  0.86279000  1.0
  Li  Li6  1  0.00000000  0.54766000  0.83443000  1.0
  Li  Li7  1  0.75366000  0.00335000  0.95423000  1.0
  Ga  Ga8  1  0.75000000  0.25000000  0.04146000  1.0
  Ga  Ga9  1  0.25000000  0.75000000  0.04146000  1.0
  Ga  Ga10  1  0.75000000  0.75000000  0.04146000  1.0
  Ga  Ga11  1  0.25000000  0.25000000  0.04146000  1.0
  Ga  Ga12  1  0.50000000  0.75000000  0.12439000  1.0
  Ga  Ga13  1  0.00000000  0.25000000  0.12439000  1.0
  Ga  Ga14  1  0.50000000  0.25000000  0.12439000  1.0
  Ga  Ga15  1  0.00000000  0.75000000  0.12439000  1.0
  Ga  Ga16  1  0.23161000  0.26738000  0.86381000  1.0
  Ga  Ga17  1  0.73982000  0.74818000  0.86661000  1.0
  Ga  Ga18  1  0.26018000  0.74818000  0.86661000  1.0
  Ga  Ga19  1  0.76839000  0.26738000  0.86381000  1.0
  Ga  Ga20  1  0.00000000  0.73086000  0.95936000  1.0
  Ga  Ga21  1  0.50000000  0.25605000  0.95956000  1.0
  Ga  Ga22  1  0.00000000  0.28914000  0.94970000  1.0
  Ga  Ga23  1  0.50000000  0.73990000  0.95419000  1.0
  Pd  Pd24  1  0.50000000  0.00000000  0.04146000  1.0
  Pd  Pd25  1  0.75000000  0.50000000  0.12439000  1.0
  Pd  Pd26  1  0.00000000  0.00000000  0.04146000  1.0
  Pd  Pd27  1  0.25000000  0.50000000  0.12439000  1.0
  Pd  Pd28  1  0.00000000  0.92726000  0.87807000  1.0
  Pd  Pd29  1  0.25733000  0.50096000  0.96224000  1.0
  Pd  Pd30  1  0.50000000  0.00982000  0.88142000  1.0
  Pd  Pd31  1  0.74267000  0.50096000  0.96224000  1.0
  C  C32  1  0.00000000  0.25782000  0.87149000  1.0
