data_image0
_chemical_formula_structural       Li4Ga8Pd4Li4Ga8Pd4C
_chemical_formula_sum              "Li8 Ga16 Pd8 C1"
_cell_length_a       6.24448
_cell_length_b       8.83103
_cell_length_c       26.6233
_cell_angle_alpha    90
_cell_angle_beta     90
_cell_angle_gamma    90

_space_group_name_H-M_alt    "P 1"
_space_group_IT_number       1

loop_
  _space_group_symop_operation_xyz
  'x, y, z'

loop_
  _atom_site_type_symbol
  _atom_site_label
  _atom_site_symmetry_multiplicity
  _atom_site_fract_x
  _atom_site_fract_y
  _atom_site_fract_z
  _atom_site_occupancy
  Li  Li1       1.0  0.00000  0.00000  0.87561  1.0000
  Li  Li2       1.0  0.50000  0.25000  0.95854  1.0000
  Li  Li3       1.0  0.50000  0.75000  0.95854  1.0000
  Li  Li4       1.0  0.00000  0.50000  0.87561  1.0000
  Ga  Ga1       1.0  0.25000  0.00000  0.95854  1.0000
  Ga  Ga2       1.0  0.75000  0.50000  0.95854  1.0000
  Ga  Ga3       1.0  0.75000  0.00000  0.95854  1.0000
  Ga  Ga4       1.0  0.25000  0.50000  0.95854  1.0000
  Ga  Ga5       1.0  0.75000  0.75000  0.87561  1.0000
  Ga  Ga6       1.0  0.25000  0.25000  0.87561  1.0000
  Ga  Ga7       1.0  0.25000  0.75000  0.87561  1.0000
  Ga  Ga8       1.0  0.75000  0.25000  0.87561  1.0000
  Pd  Pd1       1.0  0.00000  0.75000  0.95854  1.0000
  Pd  Pd2       1.0  0.50000  0.00000  0.87561  1.0000
  Pd  Pd3       1.0  0.00000  0.25000  0.95854  1.0000
  Pd  Pd4       1.0  0.50000  0.50000  0.87561  1.0000
  Li  Li5       1.0  0.00000  0.50000  0.04146  1.0000
  Li  Li6       1.0  0.50000  0.75000  0.12439  1.0000
  Li  Li7       1.0  0.50000  0.25000  0.12439  1.0000
  Li  Li8       1.0  0.00000  0.00000  0.04146  1.0000
  Ga  Ga9       1.0  0.25000  0.50000  0.12439  1.0000
  Ga  Ga10      1.0  0.75000  0.00000  0.12439  1.0000
  Ga  Ga11      1.0  0.75000  0.50000  0.12439  1.0000
  Ga  Ga12      1.0  0.25000  0.00000  0.12439  1.0000
  Ga  Ga13      1.0  0.75000  0.25000  0.04146  1.0000
  Ga  Ga14      1.0  0.25000  0.75000  0.04146  1.0000
  Ga  Ga15      1.0  0.25000  0.25000  0.04146  1.0000
  Ga  Ga16      1.0  0.75000  0.75000  0.04146  1.0000
  Pd  Pd5       1.0  0.00000  0.25000  0.12439  1.0000
  Pd  Pd6       1.0  0.50000  0.50000  0.04146  1.0000
  Pd  Pd7       1.0  0.00000  0.75000  0.12439  1.0000
  Pd  Pd8       1.0  0.50000  0.00000  0.04146  1.0000
  C   C1        1.0  0.25000  0.25000  0.15444  1.0000
