# generated using pymatgen
data_Nb8Al8Ni16C
_symmetry_space_group_name_H-M   P1
_cell_length_a   6.01786000
_cell_length_b   8.51054000
_cell_length_c   26.38290000
_cell_angle_alpha   90.00000000
_cell_angle_beta   90.00000000
_cell_angle_gamma   90.00000000
_symmetry_Int_Tables_number   1
_chemical_formula_structural   Nb8Al8Ni16C
_chemical_formula_sum   'Nb8 Al8 Ni16 C1'
_cell_volume   1351.20650908
_cell_formula_units_Z   1
loop_
 _symmetry_equiv_pos_site_id
 _symmetry_equiv_pos_as_xyz
  1  'x, y, z'
loop_
 _atom_site_type_symbol
 _atom_site_label
 _atom_site_symmetry_multiplicity
 _atom_site_fract_x
 _atom_site_fract_y
 _atom_site_fract_z
 _atom_site_occupancy
  Nb  Nb0  1  0.00000000  0.00000000  0.87903000  1.0
  Nb  Nb1  1  0.00000000  0.50000000  0.87903000  1.0
  Nb  Nb2  1  0.45594000  0.74995000  0.12120000  1.0
  Nb  Nb3  1  0.50000000  0.25000000  0.95968000  1.0
  Nb  Nb4  1  0.50000000  0.75000000  0.95968000  1.0
  Nb  Nb5  1  0.50108000  0.24999000  0.11544000  1.0
  Nb  Nb6  1  0.99781000  0.99153000  0.04325000  1.0
  Nb  Nb7  1  0.99786000  0.50847000  0.04327000  1.0
  Al  Al8  1  0.00000000  0.25000000  0.95968000  1.0
  Al  Al9  1  0.00000000  0.75000000  0.95968000  1.0
  Al  Al10  1  0.49064000  0.00495000  0.04057000  1.0
  Al  Al11  1  0.49068000  0.49504000  0.04058000  1.0
  Al  Al12  1  0.50000000  0.00000000  0.87903000  1.0
  Al  Al13  1  0.50000000  0.50000000  0.87903000  1.0
  Al  Al14  1  0.95164000  0.24996000  0.12224000  1.0
  Al  Al15  1  0.98759000  0.75000000  0.12237000  1.0
  Ni  Ni16  1  0.21266000  0.01418000  0.12944000  1.0
  Ni  Ni17  1  0.21271000  0.48564000  0.12948000  1.0
  Ni  Ni18  1  0.22763000  0.24999000  0.03725000  1.0
  Ni  Ni19  1  0.25000000  0.00000000  0.95968000  1.0
  Ni  Ni20  1  0.25000000  0.25000000  0.87903000  1.0
  Ni  Ni21  1  0.25000000  0.50000000  0.95968000  1.0
  Ni  Ni22  1  0.25000000  0.75000000  0.87903000  1.0
  Ni  Ni23  1  0.26777000  0.74999000  0.03702000  1.0
  Ni  Ni24  1  0.71819000  0.74999000  0.04657000  1.0
  Ni  Ni25  1  0.73146000  0.99046000  0.11679000  1.0
  Ni  Ni26  1  0.73159000  0.50955000  0.11681000  1.0
  Ni  Ni27  1  0.75000000  0.00000000  0.95968000  1.0
  Ni  Ni28  1  0.75000000  0.25000000  0.87903000  1.0
  Ni  Ni29  1  0.75000000  0.50000000  0.95968000  1.0
  Ni  Ni30  1  0.75000000  0.75000000  0.87903000  1.0
  Ni  Ni31  1  0.77421000  0.25002000  0.03377000  1.0
  C  C32  1  0.23492000  0.24998000  0.15593000  1.0
