# generated using pymatgen
data_Zr8Al8Pd16CO
_symmetry_space_group_name_H-M   Pmm2
_cell_length_a   6.48931000
_cell_length_b   9.17726000
_cell_length_c   26.88290000
_cell_angle_alpha   90.00000000
_cell_angle_beta   90.00000000
_cell_angle_gamma   90.00000000
_symmetry_Int_Tables_number   25
_chemical_formula_structural   Zr8Al8Pd16CO
_chemical_formula_sum   'Zr8 Al8 Pd16 C1 O1'
_cell_volume   1600.98651408
_cell_formula_units_Z   1
loop_
 _symmetry_equiv_pos_site_id
 _symmetry_equiv_pos_as_xyz
  1  'x, y, z'
  2  '-x, -y, z'
  3  '-x, y, z'
  4  'x, -y, z'
loop_
 _atom_site_type_symbol
 _atom_site_label
 _atom_site_symmetry_multiplicity
 _atom_site_fract_x
 _atom_site_fract_y
 _atom_site_fract_z
 _atom_site_occupancy
  Zr  Zr0  2  0.00000000  0.25000000  0.87198000  1.0
  Zr  Zr1  2  0.00000000  0.25099000  0.04207000  1.0
  Zr  Zr2  1  0.50000000  0.00000000  0.13004000  1.0
  Zr  Zr3  1  0.50000000  0.00000000  0.95733000  1.0
  Zr  Zr4  1  0.50000000  0.50000000  0.13068000  1.0
  Zr  Zr5  1  0.50000000  0.50000000  0.95733000  1.0
  Al  Al6  2  0.50000000  0.24965000  0.04442000  1.0
  Al  Al7  2  0.50000000  0.25000000  0.87198000  1.0
  Al  Al8  1  0.00000000  0.00000000  0.12550000  1.0
  Al  Al9  1  0.00000000  0.00000000  0.95733000  1.0
  Al  Al10  1  0.00000000  0.50000000  0.12314000  1.0
  Al  Al11  1  0.00000000  0.50000000  0.95733000  1.0
  Pd  Pd12  4  0.24647000  0.25242000  0.12362000  1.0
  Pd  Pd13  4  0.25000000  0.25000000  0.95733000  1.0
  Pd  Pd14  2  0.25000000  0.00000000  0.87198000  1.0
  Pd  Pd15  2  0.25000000  0.50000000  0.87198000  1.0
  Pd  Pd16  2  0.26116000  0.00000000  0.04469000  1.0
  Pd  Pd17  2  0.26607000  0.50000000  0.04358000  1.0
  C  C18  1  0.00000000  0.00000000  0.19986000  1.0
  O  O19  1  0.00000000  0.00000000  0.24294000  1.0
