# generated using pymatgen
data_Li4Ca4Ge4Pd4CO
_symmetry_space_group_name_H-M   Cm
_cell_length_a   9.36360699
_cell_length_b   9.36360699
_cell_length_c   24.96580000
_cell_angle_alpha   90.00000000
_cell_angle_beta   90.00000000
_cell_angle_gamma   90.00000000
_symmetry_Int_Tables_number   8
_chemical_formula_structural   Li4Ca4Ge4Pd4CO
_chemical_formula_sum   'Li8 Ca8 Ge8 Pd8 C2 O2'
_cell_volume   2188.92983920
_cell_formula_units_Z   2
loop_
 _symmetry_equiv_pos_site_id
 _symmetry_equiv_pos_as_xyz
  1  'x, y, z'
  2  'x, -y, z'
  3  'x+1/2, y+1/2, z'
  4  'x+1/2, -y+1/2, z'
loop_
 _atom_site_type_symbol
 _atom_site_label
 _atom_site_symmetry_multiplicity
 _atom_site_fract_x
 _atom_site_fract_y
 _atom_site_fract_z
 _atom_site_occupancy
  Li  Li0  4  0.49998000  0.25001000  0.11774000  1.0
  Li  Li1  2  0.24999000  0.00000000  0.96685000  1.0
  Li  Li2  2  0.24999000  0.50000000  0.96685000  1.0
  Ca  Ca3  4  0.24999000  0.24999000  0.90055000  1.0
  Ca  Ca4  2  0.00237500  0.00000000  0.03337000  1.0
  Ca  Ca5  2  0.49759500  0.00000000  0.03337000  1.0
  Ge  Ge6  4  0.25001000  0.24672000  0.03668000  1.0
  Ge  Ge7  2  0.49999000  0.00000000  0.90055000  1.0
  Ge  Ge8  2  0.49999000  0.50000000  0.90055000  1.0
  Pd  Pd9  4  0.49999000  0.24999000  0.96685000  1.0
  Pd  Pd10  2  0.24986000  0.00000000  0.10227000  1.0
  Pd  Pd11  2  0.25004500  0.50000000  0.08932000  1.0
  C  C12  2  0.25001000  0.00000000  0.18031000  1.0
  O  O13  2  0.24998500  0.00000000  0.22675000  1.0
