# generated using pymatgen
data_Li8In16Pt8CO
_symmetry_space_group_name_H-M   Pmm2
_cell_length_a   6.69031000
_cell_length_b   9.46152000
_cell_length_c   27.09610000
_cell_angle_alpha   90.00000000
_cell_angle_beta   90.00000000
_cell_angle_gamma   90.00000000
_symmetry_Int_Tables_number   25
_chemical_formula_structural   Li8In16Pt8CO
_chemical_formula_sum   'Li8 In16 Pt8 C1 O1'
_cell_volume   1715.19672875
_cell_formula_units_Z   1
loop_
 _symmetry_equiv_pos_site_id
 _symmetry_equiv_pos_as_xyz
  1  'x, y, z'
  2  '-x, -y, z'
  3  '-x, y, z'
  4  'x, -y, z'
loop_
 _atom_site_type_symbol
 _atom_site_label
 _atom_site_symmetry_multiplicity
 _atom_site_fract_x
 _atom_site_fract_y
 _atom_site_fract_z
 _atom_site_occupancy
  Li  Li0  2  0.00000000  0.25001000  0.86906000  1.0
  Li  Li1  2  0.00000000  0.25316000  0.04782000  1.0
  Li  Li2  1  0.50000000  0.00000000  0.14432000  1.0
  Li  Li3  1  0.50000000  0.00000000  0.95635000  1.0
  Li  Li4  1  0.50000000  0.50000000  0.16147000  1.0
  Li  Li5  1  0.50000000  0.50000000  0.95635000  1.0
  In  In6  4  0.25000000  0.25001000  0.95635000  1.0
  In  In7  4  0.25479000  0.26056000  0.13895000  1.0
  In  In8  2  0.25000000  0.00000000  0.86906000  1.0
  In  In9  2  0.25000000  0.50000000  0.86906000  1.0
  In  In10  2  0.25314000  0.00000000  0.05012000  1.0
  In  In11  2  0.26639000  0.50000000  0.04534000  1.0
  Pt  Pt12  2  0.50000000  0.24500000  0.03990000  1.0
  Pt  Pt13  2  0.50000000  0.25001000  0.86906000  1.0
  Pt  Pt14  1  0.00000000  0.00000000  0.13674000  1.0
  Pt  Pt15  1  0.00000000  0.00000000  0.95635000  1.0
  Pt  Pt16  1  0.00000000  0.50000000  0.12180000  1.0
  Pt  Pt17  1  0.00000000  0.50000000  0.95635000  1.0
  C  C18  1  0.00000000  0.00000000  0.20711000  1.0
  O  O19  1  0.00000000  0.00000000  0.24987000  1.0
