# generated using pymatgen
data_Zn8Rh8CO
_symmetry_space_group_name_H-M   P4mm
_cell_length_a   6.06651000
_cell_length_b   6.06651000
_cell_length_c   24.54990000
_cell_angle_alpha   90.00000000
_cell_angle_beta   90.00000000
_cell_angle_gamma   90.00000000
_symmetry_Int_Tables_number   99
_chemical_formula_structural   Zn8Rh8CO
_chemical_formula_sum   'Zn8 Rh8 C1 O1'
_cell_volume   903.49876464
_cell_formula_units_Z   1
loop_
 _symmetry_equiv_pos_site_id
 _symmetry_equiv_pos_as_xyz
  1  'x, y, z'
  2  '-y, x, z'
  3  '-x, -y, z'
  4  'y, -x, z'
  5  '-x, y, z'
  6  'y, x, z'
  7  'x, -y, z'
  8  '-y, -x, z'
loop_
 _atom_site_type_symbol
 _atom_site_label
 _atom_site_symmetry_multiplicity
 _atom_site_fract_x
 _atom_site_fract_y
 _atom_site_fract_z
 _atom_site_occupancy
  Zn  Zn0  4  0.25000000  0.25000000  0.03778000  1.0
  Zn  Zn1  4  0.25000000  0.25000000  0.91422000  1.0
  Rh  Rh2  2  0.00000000  0.50000000  0.09955000  1.0
  Rh  Rh3  2  0.00000000  0.50000000  0.97600000  1.0
  Rh  Rh4  1  0.00000000  0.00000000  0.09955000  1.0
  Rh  Rh5  1  0.00000000  0.00000000  0.97600000  1.0
  Rh  Rh6  1  0.50000000  0.50000000  0.09955000  1.0
  Rh  Rh7  1  0.50000000  0.50000000  0.97600000  1.0
  C  C8  1  0.00000000  0.00000000  0.17695000  1.0
  O  O9  1  0.00000000  0.00000000  0.22379000  1.0
