# generated using pymatgen
data_Li16Al8Rh8C
_symmetry_space_group_name_H-M   Pm
_cell_length_a   6.01864000
_cell_length_b   8.51164000
_cell_length_c   26.38370000
_cell_angle_alpha   90.00000000
_cell_angle_beta   90.00000000
_cell_angle_gamma   90.00000000
_symmetry_Int_Tables_number   6
_chemical_formula_structural   Li16Al8Rh8C
_chemical_formula_sum   'Li16 Al8 Rh8 C1'
_cell_volume   1351.59729550
_cell_formula_units_Z   1
loop_
 _symmetry_equiv_pos_site_id
 _symmetry_equiv_pos_as_xyz
  1  'x, y, z'
  2  'x, -y, z'
loop_
 _atom_site_type_symbol
 _atom_site_label
 _atom_site_symmetry_multiplicity
 _atom_site_fract_x
 _atom_site_fract_y
 _atom_site_fract_z
 _atom_site_occupancy
  Li  Li0  2  0.50000000  0.25000000  0.87902000  1.0
  Li  Li1  2  0.50126000  0.24186000  0.04111000  1.0
  Li  Li2  2  0.73254000  0.24242000  0.12693000  1.0
  Li  Li3  2  0.75000000  0.25000000  0.95967000  1.0
  Li  Li4  1  0.00000000  0.00000000  0.95967000  1.0
  Li  Li5  1  0.00000000  0.50000000  0.95967000  1.0
  Li  Li6  1  0.01395000  0.00000000  0.16198000  1.0
  Li  Li7  1  0.23495000  0.00000000  0.04264000  1.0
  Li  Li8  1  0.24092000  0.50000000  0.03655000  1.0
  Li  Li9  1  0.25000000  0.00000000  0.87902000  1.0
  Li  Li10  1  0.25000000  0.50000000  0.87902000  1.0
  Li  Li11  1  0.99597000  0.50000000  0.13253000  1.0
  Al  Al12  2  0.00000000  0.25000000  0.87902000  1.0
  Al  Al13  2  0.99594000  0.25556000  0.03848000  1.0
  Al  Al14  1  0.42071000  0.00000000  0.13306000  1.0
  Al  Al15  1  0.46246000  0.50000000  0.11619000  1.0
  Al  Al16  1  0.50000000  0.00000000  0.95967000  1.0
  Al  Al17  1  0.50000000  0.50000000  0.95967000  1.0
  Rh  Rh18  2  0.23132000  0.25645000  0.11519000  1.0
  Rh  Rh19  2  0.25000000  0.25000000  0.95967000  1.0
  Rh  Rh20  1  0.74735000  0.50000000  0.04422000  1.0
  Rh  Rh21  1  0.75000000  0.00000000  0.87902000  1.0
  Rh  Rh22  1  0.75000000  0.50000000  0.87902000  1.0
  Rh  Rh23  1  0.77556000  0.00000000  0.04898000  1.0
  C  C24  1  0.73545000  0.00000000  0.12030000  1.0
