# generated using pymatgen
data_Ti16Co16CO
_symmetry_space_group_name_H-M   'P 1'
_cell_length_a   8.46918000
_cell_length_b   5.98862000
_cell_length_c   26.35190000
_cell_angle_alpha   90.00000000
_cell_angle_beta   90.00000000
_cell_angle_gamma   90.00000000
_symmetry_Int_Tables_number   1
_chemical_formula_structural   Ti16Co16CO
_chemical_formula_sum   'Ti16 Co16 C1 O1'
_cell_volume   1336.53412981
_cell_formula_units_Z   1
loop_
 _symmetry_equiv_pos_site_id
 _symmetry_equiv_pos_as_xyz
  1  'x, y, z'
loop_
 _atom_site_type_symbol
 _atom_site_label
 _atom_site_symmetry_multiplicity
 _atom_site_fract_x
 _atom_site_fract_y
 _atom_site_fract_z
 _atom_site_occupancy
  Ti  Ti0  1  0.00000000  0.00000000  0.12052000  1.0
  Ti  Ti1  1  0.25000000  0.00000000  0.04017000  1.0
  Ti  Ti2  1  0.50000000  0.00060000  0.95737000  1.0
  Ti  Ti3  1  0.25297000  0.99520000  0.87662000  1.0
  Ti  Ti4  1  0.50000000  0.00000000  0.12052000  1.0
  Ti  Ti5  1  0.75000000  0.00000000  0.04017000  1.0
  Ti  Ti6  1  0.00000000  0.99683000  0.95847000  1.0
  Ti  Ti7  1  0.74703000  0.99520000  0.87662000  1.0
  Ti  Ti8  1  0.00000000  0.50000000  0.12052000  1.0
  Ti  Ti9  1  0.25000000  0.50000000  0.04017000  1.0
  Ti  Ti10  1  0.50000000  0.49940000  0.95737000  1.0
  Ti  Ti11  1  0.25297000  0.50485000  0.87662000  1.0
  Ti  Ti12  1  0.50000000  0.50000000  0.12052000  1.0
  Ti  Ti13  1  0.75000000  0.50000000  0.04017000  1.0
  Ti  Ti14  1  0.00000000  0.50322000  0.95846000  1.0
  Ti  Ti15  1  0.74703000  0.50485000  0.87662000  1.0
  Co  Co16  1  0.25000000  0.25000000  0.12052000  1.0
  Co  Co17  1  0.00000000  0.25000000  0.04017000  1.0
  Co  Co18  1  0.24474000  0.25002000  0.95738000  1.0
  Co  Co19  1  0.00000000  0.24997000  0.87713000  1.0
  Co  Co20  1  0.75000000  0.25000000  0.12052000  1.0
  Co  Co21  1  0.50000000  0.25000000  0.04017000  1.0
  Co  Co22  1  0.75526000  0.25002000  0.95738000  1.0
  Co  Co23  1  0.50000000  0.24999000  0.88700000  1.0
  Co  Co24  1  0.25000000  0.75000000  0.12052000  1.0
  Co  Co25  1  0.00000000  0.75000000  0.04017000  1.0
  Co  Co26  1  0.25042000  0.75000000  0.95826000  1.0
  Co  Co27  1  0.00000000  0.75002000  0.88809000  1.0
  Co  Co28  1  0.75000000  0.75000000  0.12052000  1.0
  Co  Co29  1  0.50000000  0.75000000  0.04017000  1.0
  Co  Co30  1  0.74958000  0.75000000  0.95826000  1.0
  Co  Co31  1  0.50000000  0.75002000  0.88696000  1.0
  C  C32  1  0.00000000  0.24977000  0.81092000  1.0
  O  O33  1  0.00000000  0.24996000  0.76669000  1.0
