# generated using pymatgen
data_Zr8In8Au16C
_symmetry_space_group_name_H-M   Pmm2
_cell_length_a   6.87009000
_cell_length_b   9.71577000
_cell_length_c   27.28680000
_cell_angle_alpha   90.00000000
_cell_angle_beta   90.00000000
_cell_angle_gamma   90.00000000
_symmetry_Int_Tables_number   25
_chemical_formula_structural   Zr8In8Au16C
_chemical_formula_sum   'Zr8 In8 Au16 C1'
_cell_volume   1821.34517449
_cell_formula_units_Z   1
loop_
 _symmetry_equiv_pos_site_id
 _symmetry_equiv_pos_as_xyz
  1  'x, y, z'
  2  '-x, -y, z'
  3  '-x, y, z'
  4  'x, -y, z'
loop_
 _atom_site_type_symbol
 _atom_site_label
 _atom_site_symmetry_multiplicity
 _atom_site_fract_x
 _atom_site_fract_y
 _atom_site_fract_z
 _atom_site_occupancy
  Zr  Zr0  2  0.50000000  0.24427000  0.12467000  1.0
  Zr  Zr1  2  0.50000000  0.25000000  0.95549000  1.0
  Zr  Zr2  1  0.00000000  0.00000000  0.05777000  1.0
  Zr  Zr3  1  0.00000000  0.00000000  0.86648000  1.0
  Zr  Zr4  1  0.00000000  0.50000000  0.04714000  1.0
  Zr  Zr5  1  0.00000000  0.50000000  0.86648000  1.0
  In  In6  2  0.00000000  0.25000000  0.95549000  1.0
  In  In7  2  0.00000000  0.26254000  0.14471000  1.0
  In  In8  1  0.50000000  0.00000000  0.04380000  1.0
  In  In9  1  0.50000000  0.00000000  0.86648000  1.0
  In  In10  1  0.50000000  0.50000000  0.04216000  1.0
  In  In11  1  0.50000000  0.50000000  0.86648000  1.0
  Au  Au12  4  0.23720000  0.25153000  0.04435000  1.0
  Au  Au13  4  0.25000000  0.25000000  0.86648000  1.0
  Au  Au14  2  0.25000000  0.00000000  0.95549000  1.0
  Au  Au15  2  0.25000000  0.50000000  0.95549000  1.0
  Au  Au16  2  0.28120000  0.50000000  0.13898000  1.0
  Au  Au17  2  0.29683000  0.00000000  0.15703000  1.0
  C  C18  1  0.00000000  0.00000000  0.13507000  1.0
