data_image0
_chemical_formula_structural       Al8Fe24CO
_chemical_formula_sum              "Al8 Fe24 C1 O1"
_cell_length_a       5.77088
_cell_length_b       8.16125
_cell_length_c       26.1209
_cell_angle_alpha    90
_cell_angle_beta     90
_cell_angle_gamma    90

_space_group_name_H-M_alt    "P 1"
_space_group_IT_number       1

loop_
  _space_group_symop_operation_xyz
  'x, y, z'

loop_
  _atom_site_type_symbol
  _atom_site_label
  _atom_site_symmetry_multiplicity
  _atom_site_fract_x
  _atom_site_fract_y
  _atom_site_fract_z
  _atom_site_occupancy
  Al  Al1       1.0  0.00000  0.00000  0.88283  1.0000
  Al  Al2       1.0  0.50000  0.25000  0.96094  1.0000
  Al  Al3       1.0  0.50000  0.75000  0.96094  1.0000
  Al  Al4       1.0  0.00000  0.50000  0.88283  1.0000
  Al  Al5       1.0  0.00015  0.49999  0.03841  1.0000
  Al  Al6       1.0  0.49192  0.75080  0.12111  1.0000
  Al  Al7       1.0  0.49193  0.24919  0.12111  1.0000
  Al  Al8       1.0  0.00226  0.00003  0.03838  1.0000
  Fe  Fe1       1.0  0.25000  0.00000  0.96094  1.0000
  Fe  Fe2       1.0  0.75000  0.50000  0.96094  1.0000
  Fe  Fe3       1.0  0.75000  0.00000  0.96094  1.0000
  Fe  Fe4       1.0  0.25000  0.50000  0.96094  1.0000
  Fe  Fe5       1.0  0.75000  0.75000  0.88283  1.0000
  Fe  Fe6       1.0  0.25000  0.25000  0.88283  1.0000
  Fe  Fe7       1.0  0.25000  0.75000  0.88283  1.0000
  Fe  Fe8       1.0  0.75000  0.25000  0.88283  1.0000
  Fe  Fe9       1.0  0.00000  0.75000  0.96094  1.0000
  Fe  Fe10      1.0  0.50000  0.00000  0.88283  1.0000
  Fe  Fe11      1.0  0.00000  0.25000  0.96094  1.0000
  Fe  Fe12      1.0  0.50000  0.50000  0.88283  1.0000
  Fe  Fe13      1.0  0.24048  0.50009  0.11895  1.0000
  Fe  Fe14      1.0  0.74382  0.99989  0.11689  1.0000
  Fe  Fe15      1.0  0.75159  0.50010  0.11822  1.0000
  Fe  Fe16      1.0  0.25015  0.99990  0.11729  1.0000
  Fe  Fe17      1.0  0.74694  0.24970  0.04051  1.0000
  Fe  Fe18      1.0  0.25222  0.75025  0.03923  1.0000
  Fe  Fe19      1.0  0.25227  0.24977  0.03924  1.0000
  Fe  Fe20      1.0  0.74699  0.75033  0.04051  1.0000
  Fe  Fe21      1.0  0.00303  0.24920  0.11364  1.0000
  Fe  Fe22      1.0  0.49825  0.50011  0.03960  1.0000
  Fe  Fe23      1.0  0.00306  0.75081  0.11362  1.0000
  Fe  Fe24      1.0  0.50195  0.99990  0.03848  1.0000
  C   C1        1.0  0.16991  0.99996  0.18279  1.0000
  O   O1        1.0  0.12457  0.99999  0.22639  1.0000
