# generated using pymatgen
data_Li8V8Ge8Pd8C
_symmetry_space_group_name_H-M   'P 1'
_cell_length_a   8.64114000
_cell_length_b   9.40562000
_cell_length_c   24.26620000
_cell_angle_alpha   90.00000000
_cell_angle_beta   90.00000000
_cell_angle_gamma   90.00000000
_symmetry_Int_Tables_number   1
_chemical_formula_structural   Li8V8Ge8Pd8C
_chemical_formula_sum   'Li8 V8 Ge8 Pd8 C1'
_cell_volume   1972.24218029
_cell_formula_units_Z   1
loop_
 _symmetry_equiv_pos_site_id
 _symmetry_equiv_pos_as_xyz
  1  'x, y, z'
loop_
 _atom_site_type_symbol
 _atom_site_label
 _atom_site_symmetry_multiplicity
 _atom_site_fract_x
 _atom_site_fract_y
 _atom_site_fract_z
 _atom_site_occupancy
  Li  Li0  1  0.00003000  0.24988000  0.02059000  1.0
  Li  Li1  1  0.00000000  0.25000000  0.91210000  1.0
  Li  Li2  1  0.00001000  0.74999000  0.04617000  1.0
  Li  Li3  1  0.00000000  0.75000000  0.91210000  1.0
  Li  Li4  1  0.50009000  0.24966000  0.03310000  1.0
  Li  Li5  1  0.50000000  0.25000000  0.91210000  1.0
  Li  Li6  1  0.50001000  0.74994000  0.01866000  1.0
  Li  Li7  1  0.50000000  0.75000000  0.91210000  1.0
  V  V8  1  0.24951000  0.99971000  0.01608000  1.0
  V  V9  1  0.25000000  0.00000000  0.91210000  1.0
  V  V10  1  0.24951000  0.50036000  0.01598000  1.0
  V  V11  1  0.25000000  0.50000000  0.91210000  1.0
  V  V12  1  0.75046000  0.99976000  0.01613000  1.0
  V  V13  1  0.75000000  0.00000000  0.91210000  1.0
  V  V14  1  0.75045000  0.50025000  0.01607000  1.0
  V  V15  1  0.75000000  0.50000000  0.91210000  1.0
  Ge  Ge16  1  0.00022000  0.03743000  0.09464000  1.0
  Ge  Ge17  1  0.00000000  0.00000000  0.97070000  1.0
  Ge  Ge18  1  0.00009000  0.46211000  0.09480000  1.0
  Ge  Ge19  1  0.00000000  0.50000000  0.97070000  1.0
  Ge  Ge20  1  0.49976000  0.98644000  0.08000000  1.0
  Ge  Ge21  1  0.50000000  0.00000000  0.97070000  1.0
  Ge  Ge22  1  0.49995000  0.51310000  0.08008000  1.0
  Ge  Ge23  1  0.50000000  0.50000000  0.97070000  1.0
  Pd  Pd24  1  0.23124000  0.25084000  0.08545000  1.0
  Pd  Pd25  1  0.25000000  0.25000000  0.97070000  1.0
  Pd  Pd26  1  0.29491000  0.75009000  0.08406000  1.0
  Pd  Pd27  1  0.25000000  0.75000000  0.97070000  1.0
  Pd  Pd28  1  0.76893000  0.25073000  0.08547000  1.0
  Pd  Pd29  1  0.75000000  0.25000000  0.97070000  1.0
  Pd  Pd30  1  0.70511000  0.75019000  0.08406000  1.0
  Pd  Pd31  1  0.75000000  0.75000000  0.97070000  1.0
  C  C32  1  0.00010000  0.24958000  0.11110000  1.0
