data_image0
_chemical_formula_structural       Ti4Pd12C
_chemical_formula_sum              "Ti4 Pd12 C1"
_cell_length_a       7.90864
_cell_length_b       5.59226
_cell_length_c       24.1942
_cell_angle_alpha    90
_cell_angle_beta     90
_cell_angle_gamma    90

_space_group_name_H-M_alt    "P 1"
_space_group_IT_number       1

loop_
  _space_group_symop_operation_xyz
  'x, y, z'

loop_
  _atom_site_type_symbol
  _atom_site_label
  _atom_site_symmetry_multiplicity
  _atom_site_fract_x
  _atom_site_fract_y
  _atom_site_fract_z
  _atom_site_occupancy
  Ti  Ti1       1.0  0.00407  0.00532  0.07884  1.0000
  Ti  Ti2       1.0  0.00000  0.50000  0.97111  1.0000
  Ti  Ti3       1.0  0.49592  0.00532  0.07884  1.0000
  Ti  Ti4       1.0  0.50000  0.50000  0.97111  1.0000
  Pd  Pd1       1.0  0.99763  0.50272  0.08296  1.0000
  Pd  Pd2       1.0  0.24999  0.75609  0.03116  1.0000
  Pd  Pd3       1.0  0.24999  0.26281  0.02526  1.0000
  Pd  Pd4       1.0  0.00000  0.00000  0.97111  1.0000
  Pd  Pd5       1.0  0.25000  0.25000  0.91332  1.0000
  Pd  Pd6       1.0  0.25000  0.75000  0.91332  1.0000
  Pd  Pd7       1.0  0.50237  0.50273  0.08297  1.0000
  Pd  Pd8       1.0  0.75000  0.75040  0.03042  1.0000
  Pd  Pd9       1.0  0.75001  0.24747  0.03079  1.0000
  Pd  Pd10      1.0  0.50000  0.00000  0.97111  1.0000
  Pd  Pd11      1.0  0.75000  0.25000  0.91332  1.0000
  Pd  Pd12      1.0  0.75000  0.75000  0.91332  1.0000
  C   C1        1.0  0.25000  0.03007  0.09676  1.0000
