# generated using pymatgen
data_Ti4Pd12C
_symmetry_space_group_name_H-M   'P 1'
_cell_length_a   7.90864000
_cell_length_b   5.59226000
_cell_length_c   24.19420000
_cell_angle_alpha   90.00000000
_cell_angle_beta   90.00000000
_cell_angle_gamma   90.00000000
_symmetry_Int_Tables_number   1
_chemical_formula_structural   Ti4Pd12C
_chemical_formula_sum   'Ti4 Pd12 C1'
_cell_volume   1070.04102367
_cell_formula_units_Z   1
loop_
 _symmetry_equiv_pos_site_id
 _symmetry_equiv_pos_as_xyz
  1  'x, y, z'
loop_
 _atom_site_type_symbol
 _atom_site_label
 _atom_site_symmetry_multiplicity
 _atom_site_fract_x
 _atom_site_fract_y
 _atom_site_fract_z
 _atom_site_occupancy
  Ti  Ti0  1  0.74593000  0.99468000  0.07884000  1.0
  Ti  Ti1  1  0.75000000  0.50000000  0.97111000  1.0
  Ti  Ti2  1  0.25407000  0.99468000  0.07884000  1.0
  Ti  Ti3  1  0.25000000  0.50000000  0.97111000  1.0
  Pd  Pd4  1  0.75237000  0.49728000  0.08296000  1.0
  Pd  Pd5  1  0.50000000  0.24391000  0.03116000  1.0
  Pd  Pd6  1  0.50000000  0.73719000  0.02526000  1.0
  Pd  Pd7  1  0.75000000  0.00000000  0.97111000  1.0
  Pd  Pd8  1  0.50000000  0.75000000  0.91332000  1.0
  Pd  Pd9  1  0.50000000  0.25000000  0.91332000  1.0
  Pd  Pd10  1  0.24763000  0.49728000  0.08296000  1.0
  Pd  Pd11  1  0.00000000  0.24960000  0.03042000  1.0
  Pd  Pd12  1  0.00000000  0.75253000  0.03079000  1.0
  Pd  Pd13  1  0.25000000  0.00000000  0.97111000  1.0
  Pd  Pd14  1  0.00000000  0.75000000  0.91332000  1.0
  Pd  Pd15  1  0.00000000  0.25000000  0.91332000  1.0
  C  C16  1  0.50000000  0.96993000  0.09676000  1.0
