# generated using pymatgen
data_Ti8Al8Fe16CO
_symmetry_space_group_name_H-M   'P 1'
_cell_length_a   5.83886000
_cell_length_b   8.25739000
_cell_length_c   26.19300000
_cell_angle_alpha   90.00000000
_cell_angle_beta   90.00000000
_cell_angle_gamma   90.00000000
_symmetry_Int_Tables_number   1
_chemical_formula_structural   Ti8Al8Fe16CO
_chemical_formula_sum   'Ti8 Al8 Fe16 C1 O1'
_cell_volume   1262.86260119
_cell_formula_units_Z   1
loop_
 _symmetry_equiv_pos_site_id
 _symmetry_equiv_pos_as_xyz
  1  'x, y, z'
loop_
 _atom_site_type_symbol
 _atom_site_label
 _atom_site_symmetry_multiplicity
 _atom_site_fract_x
 _atom_site_fract_y
 _atom_site_fract_z
 _atom_site_occupancy
  Ti  Ti0  1  0.00000000  0.75000000  0.88178000  1.0
  Ti  Ti1  1  0.50000000  0.00000000  0.96059000  1.0
  Ti  Ti2  1  0.50000000  0.50000000  0.96059000  1.0
  Ti  Ti3  1  0.00000000  0.25000000  0.88178000  1.0
  Ti  Ti4  1  0.00000000  0.24939000  0.03889000  1.0
  Ti  Ti5  1  0.50000000  0.50000000  0.11737000  1.0
  Ti  Ti6  1  0.50000000  0.00000000  0.11893000  1.0
  Ti  Ti7  1  0.00000000  0.75061000  0.03889000  1.0
  Al  Al8  1  0.00000000  0.50000000  0.96059000  1.0
  Al  Al9  1  0.50000000  0.75000000  0.88178000  1.0
  Al  Al10  1  0.00000000  0.00000000  0.96059000  1.0
  Al  Al11  1  0.50000000  0.25000000  0.88178000  1.0
  Al  Al12  1  0.00000000  0.00000000  0.11914000  1.0
  Al  Al13  1  0.50000000  0.24822000  0.03928000  1.0
  Al  Al14  1  0.00000000  0.50000000  0.12155000  1.0
  Al  Al15  1  0.50000000  0.75178000  0.03928000  1.0
  Fe  Fe16  1  0.25000000  0.75000000  0.96059000  1.0
  Fe  Fe17  1  0.75000000  0.25000000  0.96059000  1.0
  Fe  Fe18  1  0.75000000  0.75000000  0.96059000  1.0
  Fe  Fe19  1  0.25000000  0.25000000  0.96059000  1.0
  Fe  Fe20  1  0.75000000  0.50000000  0.88178000  1.0
  Fe  Fe21  1  0.25000000  0.00000000  0.88178000  1.0
  Fe  Fe22  1  0.25000000  0.50000000  0.88178000  1.0
  Fe  Fe23  1  0.75000000  0.00000000  0.88178000  1.0
  Fe  Fe24  1  0.23933000  0.25086000  0.11853000  1.0
  Fe  Fe25  1  0.76067000  0.74914000  0.11853000  1.0
  Fe  Fe26  1  0.76067000  0.25086000  0.11853000  1.0
  Fe  Fe27  1  0.23933000  0.74914000  0.11853000  1.0
  Fe  Fe28  1  0.74973000  0.00000000  0.03944000  1.0
  Fe  Fe29  1  0.25311000  0.50000000  0.04103000  1.0
  Fe  Fe30  1  0.25027000  0.00000000  0.03944000  1.0
  Fe  Fe31  1  0.74689000  0.50000000  0.04103000  1.0
  C  C32  1  0.50000000  0.00000000  0.20141000  1.0
  O  O33  1  0.50000000  0.00000000  0.24537000  1.0
