data_image0
_chemical_formula_structural       Li8Mg8Ga8Pd8CO
_chemical_formula_sum              "Li8 Mg8 Ga8 Pd8 C1 O1"
_cell_length_a       6.27706
_cell_length_b       8.8771
_cell_length_c       26.6578
_cell_angle_alpha    90
_cell_angle_beta     90
_cell_angle_gamma    90

_space_group_name_H-M_alt    "P 1"
_space_group_IT_number       1

loop_
  _space_group_symop_operation_xyz
  'x, y, z'

loop_
  _atom_site_type_symbol
  _atom_site_label
  _atom_site_symmetry_multiplicity
  _atom_site_fract_x
  _atom_site_fract_y
  _atom_site_fract_z
  _atom_site_occupancy
  Li  Li1       1.0  0.25000  0.00000  0.95837  1.0000
  Li  Li2       1.0  0.25000  0.50000  0.95837  1.0000
  Li  Li3       1.0  0.75000  0.25000  0.87512  1.0000
  Li  Li4       1.0  0.75000  0.75000  0.87512  1.0000
  Li  Li5       1.0  0.29340  0.50000  0.14421  1.0000
  Li  Li6       1.0  0.27326  1.00000  0.13583  1.0000
  Li  Li7       1.0  0.75426  0.74909  0.04161  1.0000
  Li  Li8       1.0  0.75426  0.25091  0.04161  1.0000
  Mg  Mg1       1.0  0.00000  0.25000  0.95837  1.0000
  Mg  Mg2       1.0  0.00000  0.75000  0.95837  1.0000
  Mg  Mg3       1.0  0.50000  0.50000  0.87512  1.0000
  Mg  Mg4       1.0  0.50000  0.00000  0.87512  1.0000
  Mg  Mg5       1.0  0.99560  0.74191  0.12806  1.0000
  Mg  Mg6       1.0  0.99560  0.25809  0.12805  1.0000
  Mg  Mg7       1.0  0.50160  0.00000  0.04456  1.0000
  Mg  Mg8       1.0  0.48614  0.50000  0.04127  1.0000
  Ga  Ga1       1.0  0.00000  0.00000  0.87512  1.0000
  Ga  Ga2       1.0  0.00000  0.50000  0.87512  1.0000
  Ga  Ga3       1.0  0.50000  0.75000  0.95837  1.0000
  Ga  Ga4       1.0  0.50000  0.25000  0.95837  1.0000
  Ga  Ga5       1.0  0.00633  0.50000  0.04402  1.0000
  Ga  Ga6       1.0  0.00158  1.00000  0.04508  1.0000
  Ga  Ga7       1.0  0.50701  0.25336  0.12441  1.0000
  Ga  Ga8       1.0  0.50701  0.74663  0.12441  1.0000
  Pd  Pd1       1.0  0.75000  0.00000  0.95837  1.0000
  Pd  Pd2       1.0  0.75000  0.50000  0.95837  1.0000
  Pd  Pd3       1.0  0.25000  0.25000  0.87512  1.0000
  Pd  Pd4       1.0  0.25000  0.75000  0.87512  1.0000
  Pd  Pd5       1.0  0.73675  0.50000  0.11896  1.0000
  Pd  Pd6       1.0  0.75666  1.00000  0.12988  1.0000
  Pd  Pd7       1.0  0.24457  0.75331  0.04079  1.0000
  Pd  Pd8       1.0  0.24457  0.24669  0.04079  1.0000
  C   C1        1.0  0.78069  0.99999  0.20342  1.0000
  O   O1        1.0  0.77189  0.99999  0.24672  1.0000
