# generated using pymatgen
data_Li8Mg8Ga8Pd8CO
_symmetry_space_group_name_H-M   'P 1'
_cell_length_a   8.87710000
_cell_length_b   6.27706000
_cell_length_c   26.65780000
_cell_angle_alpha   90.00000000
_cell_angle_beta   90.00000000
_cell_angle_gamma   90.00000000
_symmetry_Int_Tables_number   1
_chemical_formula_structural   Li8Mg8Ga8Pd8CO
_chemical_formula_sum   'Li8 Mg8 Ga8 Pd8 C1 O1'
_cell_volume   1485.42831283
_cell_formula_units_Z   1
loop_
 _symmetry_equiv_pos_site_id
 _symmetry_equiv_pos_as_xyz
  1  'x, y, z'
loop_
 _atom_site_type_symbol
 _atom_site_label
 _atom_site_symmetry_multiplicity
 _atom_site_fract_x
 _atom_site_fract_y
 _atom_site_fract_z
 _atom_site_occupancy
  Li  Li0  1  0.50000000  0.25000000  0.04163000  1.0
  Li  Li1  1  0.00000000  0.25000000  0.04163000  1.0
  Li  Li2  1  0.75001000  0.75000000  0.12488000  1.0
  Li  Li3  1  0.24999000  0.75000000  0.12488000  1.0
  Li  Li4  1  0.00000000  0.29340000  0.85579000  1.0
  Li  Li5  1  0.50000000  0.27326000  0.86417000  1.0
  Li  Li6  1  0.24910000  0.75426000  0.95839000  1.0
  Li  Li7  1  0.75090000  0.75426000  0.95839000  1.0
  Mg  Mg8  1  0.75001000  0.00000000  0.04163000  1.0
  Mg  Mg9  1  0.24999000  0.00000000  0.04163000  1.0
  Mg  Mg10  1  0.00000000  0.50000000  0.12488000  1.0
  Mg  Mg11  1  0.50000000  0.50000000  0.12488000  1.0
  Mg  Mg12  1  0.24192000  0.99560000  0.87194000  1.0
  Mg  Mg13  1  0.75808000  0.99560000  0.87194000  1.0
  Mg  Mg14  1  0.50000000  0.50160000  0.95544000  1.0
  Mg  Mg15  1  0.00000000  0.48614000  0.95873000  1.0
  Ga  Ga16  1  0.50000000  0.00000000  0.12488000  1.0
  Ga  Ga17  1  0.00000000  0.00000000  0.12488000  1.0
  Ga  Ga18  1  0.25001000  0.50000000  0.04163000  1.0
  Ga  Ga19  1  0.74999000  0.50000000  0.04163000  1.0
  Ga  Ga20  1  0.00000000  0.00633000  0.95598000  1.0
  Ga  Ga21  1  0.50000000  0.00158000  0.95492000  1.0
  Ga  Ga22  1  0.75337000  0.50701000  0.87559000  1.0
  Ga  Ga23  1  0.24663000  0.50701000  0.87559000  1.0
  Pd  Pd24  1  0.50000000  0.75000000  0.04163000  1.0
  Pd  Pd25  1  0.00000000  0.75000000  0.04163000  1.0
  Pd  Pd26  1  0.75001000  0.25000000  0.12488000  1.0
  Pd  Pd27  1  0.24999000  0.25000000  0.12488000  1.0
  Pd  Pd28  1  0.00000000  0.73675000  0.88104000  1.0
  Pd  Pd29  1  0.50000000  0.75666000  0.87012000  1.0
  Pd  Pd30  1  0.25332000  0.24457000  0.95921000  1.0
  Pd  Pd31  1  0.74668000  0.24457000  0.95921000  1.0
  C  C32  1  0.50000000  0.78069000  0.79658000  1.0
  O  O33  1  0.50000000  0.77189000  0.75328000  1.0
