# generated using pymatgen
data_Nb8Ga8Ni16C
_symmetry_space_group_name_H-M   Pm
_cell_length_a   8.51054000
_cell_length_b   6.01786000
_cell_length_c   26.38290000
_cell_angle_alpha   90.00000000
_cell_angle_beta   90.00000000
_cell_angle_gamma   90.00000000
_symmetry_Int_Tables_number   6
_chemical_formula_structural   Nb8Ga8Ni16C
_chemical_formula_sum   'Nb8 Ga8 Ni16 C1'
_cell_volume   1351.20650908
_cell_formula_units_Z   1
loop_
 _symmetry_equiv_pos_site_id
 _symmetry_equiv_pos_as_xyz
  1  'x, y, z'
  2  'x, -y, z'
loop_
 _atom_site_type_symbol
 _atom_site_label
 _atom_site_symmetry_multiplicity
 _atom_site_fract_x
 _atom_site_fract_y
 _atom_site_fract_z
 _atom_site_occupancy
  Nb  Nb0  1  0.00000000  0.00000000  0.87903000  1.0
  Nb  Nb1  1  0.25000000  0.50000000  0.95968000  1.0
  Nb  Nb2  1  0.25623000  0.50000000  0.11848000  1.0
  Nb  Nb3  1  0.50000000  0.00000000  0.87903000  1.0
  Nb  Nb4  1  0.50002000  0.00000000  0.04079000  1.0
  Nb  Nb5  1  0.74377000  0.50000000  0.11847000  1.0
  Nb  Nb6  1  0.75000000  0.50000000  0.95968000  1.0
  Nb  Nb7  1  0.99996000  0.00000000  0.04404000  1.0
  Ga  Ga8  1  0.00000000  0.50000000  0.87903000  1.0
  Ga  Ga9  1  0.00005000  0.50000000  0.04046000  1.0
  Ga  Ga10  1  0.25000000  0.00000000  0.95968000  1.0
  Ga  Ga11  1  0.25807000  0.00000000  0.12673000  1.0
  Ga  Ga12  1  0.49995000  0.50000000  0.03898000  1.0
  Ga  Ga13  1  0.50000000  0.50000000  0.87903000  1.0
  Ga  Ga14  1  0.74192000  0.00000000  0.12674000  1.0
  Ga  Ga15  1  0.75000000  0.00000000  0.95968000  1.0
  Ni  Ni16  2  0.00000000  0.25000000  0.95968000  1.0
  Ni  Ni17  2  0.00001000  0.29485000  0.12472000  1.0
  Ni  Ni18  2  0.25000000  0.25000000  0.87903000  1.0
  Ni  Ni19  2  0.25362000  0.24918000  0.04001000  1.0
  Ni  Ni20  2  0.49998000  0.25225000  0.11833000  1.0
  Ni  Ni21  2  0.50000000  0.25000000  0.95968000  1.0
  Ni  Ni22  2  0.74638000  0.24924000  0.04000000  1.0
  Ni  Ni23  2  0.75000000  0.25000000  0.87903000  1.0
  C  C24  1  0.99998000  0.00000000  0.12959000  1.0
