data_image0
_chemical_formula_structural       Ti8Fe16Sn8C
_chemical_formula_sum              "Ti8 Fe16 Sn8 C1"
_cell_length_a       6.02174
_cell_length_b       8.51603
_cell_length_c       26.387
_cell_angle_alpha    90
_cell_angle_beta     90
_cell_angle_gamma    90

_space_group_name_H-M_alt    "P 1"
_space_group_IT_number       1

loop_
  _space_group_symop_operation_xyz
  'x, y, z'

loop_
  _atom_site_type_symbol
  _atom_site_label
  _atom_site_symmetry_multiplicity
  _atom_site_fract_x
  _atom_site_fract_y
  _atom_site_fract_z
  _atom_site_occupancy
  Ti  Ti1       1.0  0.00000  0.00000  0.87897  1.0000
  Ti  Ti2       1.0  0.50000  0.25000  0.95966  1.0000
  Ti  Ti3       1.0  0.50000  0.75000  0.95966  1.0000
  Ti  Ti4       1.0  0.00000  0.50000  0.87897  1.0000
  Ti  Ti5       1.0  0.00069  0.49918  0.04482  1.0000
  Ti  Ti6       1.0  0.50381  0.75000  0.12223  1.0000
  Ti  Ti7       1.0  0.52855  0.25000  0.11397  1.0000
  Ti  Ti8       1.0  0.00070  0.00082  0.04482  1.0000
  Fe  Fe1       1.0  0.25000  0.00000  0.95966  1.0000
  Fe  Fe2       1.0  0.75000  0.50000  0.95966  1.0000
  Fe  Fe3       1.0  0.75000  0.00000  0.95966  1.0000
  Fe  Fe4       1.0  0.25000  0.50000  0.95966  1.0000
  Fe  Fe5       1.0  0.75000  0.75000  0.87897  1.0000
  Fe  Fe6       1.0  0.25000  0.25000  0.87897  1.0000
  Fe  Fe7       1.0  0.25000  0.75000  0.87897  1.0000
  Fe  Fe8       1.0  0.75000  0.25000  0.87897  1.0000
  Fe  Fe9       1.0  0.25653  0.47105  0.13412  1.0000
  Fe  Fe10      1.0  0.74464  0.98908  0.12262  1.0000
  Fe  Fe11      1.0  0.74463  0.51092  0.12262  1.0000
  Fe  Fe12      1.0  0.25653  0.02895  0.13412  1.0000
  Fe  Fe13      1.0  0.75823  0.25000  0.03972  1.0000
  Fe  Fe14      1.0  0.24570  0.75000  0.04455  1.0000
  Fe  Fe15      1.0  0.23858  0.25000  0.04424  1.0000
  Fe  Fe16      1.0  0.75614  0.75000  0.04500  1.0000
  Sn  Sn1       1.0  0.00000  0.75000  0.95966  1.0000
  Sn  Sn2       1.0  0.50000  0.00000  0.87897  1.0000
  Sn  Sn3       1.0  0.00000  0.25000  0.95966  1.0000
  Sn  Sn4       1.0  0.50000  0.50000  0.87897  1.0000
  Sn  Sn5       1.0  0.94012  0.25000  0.14534  1.0000
  Sn  Sn6       1.0  0.49550  0.50066  0.04159  1.0000
  Sn  Sn7       1.0  0.01621  0.75000  0.13485  1.0000
  Sn  Sn8       1.0  0.49550  0.99934  0.04159  1.0000
  C   C1        1.0  0.28369  0.25000  0.16251  1.0000
