# generated using pymatgen
data_Ti8Fe16Sn8C
_symmetry_space_group_name_H-M   'P 1'
_cell_length_a   8.51603000
_cell_length_b   6.02174000
_cell_length_c   26.38700000
_cell_angle_alpha   90.00000000
_cell_angle_beta   90.00000000
_cell_angle_gamma   90.00000000
_symmetry_Int_Tables_number   1
_chemical_formula_structural   Ti8Fe16Sn8C
_chemical_formula_sum   'Ti8 Fe16 Sn8 C1'
_cell_volume   1353.16015105
_cell_formula_units_Z   1
loop_
 _symmetry_equiv_pos_site_id
 _symmetry_equiv_pos_as_xyz
  1  'x, y, z'
loop_
 _atom_site_type_symbol
 _atom_site_label
 _atom_site_symmetry_multiplicity
 _atom_site_fract_x
 _atom_site_fract_y
 _atom_site_fract_z
 _atom_site_occupancy
  Ti  Ti0  1  0.75000000  0.00000000  0.12103000  1.0
  Ti  Ti1  1  0.00000000  0.50000000  0.04034000  1.0
  Ti  Ti2  1  0.50000000  0.50000000  0.04034000  1.0
  Ti  Ti3  1  0.25000000  0.00000000  0.12103000  1.0
  Ti  Ti4  1  0.24918000  0.00069000  0.95518000  1.0
  Ti  Ti5  1  0.50000000  0.50381000  0.87777000  1.0
  Ti  Ti6  1  0.00000000  0.52855000  0.88603000  1.0
  Ti  Ti7  1  0.75082000  0.00069000  0.95518000  1.0
  Fe  Fe8  1  0.75000000  0.25000000  0.04034000  1.0
  Fe  Fe9  1  0.25000000  0.75000000  0.04034000  1.0
  Fe  Fe10  1  0.75000000  0.75000000  0.04034000  1.0
  Fe  Fe11  1  0.25000000  0.25000000  0.04034000  1.0
  Fe  Fe12  1  0.50000000  0.75000000  0.12103000  1.0
  Fe  Fe13  1  0.00000000  0.25000000  0.12103000  1.0
  Fe  Fe14  1  0.50000000  0.25000000  0.12103000  1.0
  Fe  Fe15  1  0.00000000  0.75000000  0.12103000  1.0
  Fe  Fe16  1  0.22105000  0.25653000  0.86588000  1.0
  Fe  Fe17  1  0.73908000  0.74464000  0.87738000  1.0
  Fe  Fe18  1  0.26092000  0.74464000  0.87738000  1.0
  Fe  Fe19  1  0.77895000  0.25653000  0.86588000  1.0
  Fe  Fe20  1  0.00000000  0.75823000  0.96028000  1.0
  Fe  Fe21  1  0.50000000  0.24570000  0.95545000  1.0
  Fe  Fe22  1  0.00000000  0.23858000  0.95576000  1.0
  Fe  Fe23  1  0.50000000  0.75614000  0.95500000  1.0
  Sn  Sn24  1  0.50000000  1.00000000  0.04034000  1.0
  Sn  Sn25  1  0.75000000  0.50000000  0.12103000  1.0
  Sn  Sn26  1  0.00000000  1.00000000  0.04034000  1.0
  Sn  Sn27  1  0.25000000  0.50000000  0.12103000  1.0
  Sn  Sn28  1  0.00000000  0.94012000  0.85466000  1.0
  Sn  Sn29  1  0.25066000  0.49550000  0.95841000  1.0
  Sn  Sn30  1  0.50000000  0.01621000  0.86515000  1.0
  Sn  Sn31  1  0.74934000  0.49550000  0.95841000  1.0
  C  C32  1  0.00000000  0.28369000  0.83749000  1.0
