# generated using pymatgen
data_Ti8Fe16Sn8C
_symmetry_space_group_name_H-M   Pm
_cell_length_a   6.02174000
_cell_length_b   8.51603000
_cell_length_c   26.38700000
_cell_angle_alpha   90.00000000
_cell_angle_beta   90.00000000
_cell_angle_gamma   90.00000000
_symmetry_Int_Tables_number   6
_chemical_formula_structural   Ti8Fe16Sn8C
_chemical_formula_sum   'Ti8 Fe16 Sn8 C1'
_cell_volume   1353.16015105
_cell_formula_units_Z   1
loop_
 _symmetry_equiv_pos_site_id
 _symmetry_equiv_pos_as_xyz
  1  'x, y, z'
  2  'x, -y, z'
loop_
 _atom_site_type_symbol
 _atom_site_label
 _atom_site_symmetry_multiplicity
 _atom_site_fract_x
 _atom_site_fract_y
 _atom_site_fract_z
 _atom_site_occupancy
  Ti  Ti0  2  0.00000000  0.25000000  0.87897000  1.0
  Ti  Ti1  2  0.00069000  0.24918000  0.04482000  1.0
  Ti  Ti2  1  0.50000000  0.00000000  0.95966000  1.0
  Ti  Ti3  1  0.50000000  0.50000000  0.95966000  1.0
  Ti  Ti4  1  0.50381000  0.50000000  0.12223000  1.0
  Ti  Ti5  1  0.52855000  0.00000000  0.11397000  1.0
  Fe  Fe6  2  0.25000000  0.25000000  0.95966000  1.0
  Fe  Fe7  2  0.25653000  0.22105000  0.13412000  1.0
  Fe  Fe8  2  0.74464000  0.26092000  0.12262000  1.0
  Fe  Fe9  2  0.75000000  0.25000000  0.95966000  1.0
  Fe  Fe10  1  0.23858000  0.00000000  0.04424000  1.0
  Fe  Fe11  1  0.24570000  0.50000000  0.04455000  1.0
  Fe  Fe12  1  0.25000000  0.00000000  0.87897000  1.0
  Fe  Fe13  1  0.25000000  0.50000000  0.87897000  1.0
  Fe  Fe14  1  0.75000000  0.00000000  0.87897000  1.0
  Fe  Fe15  1  0.75000000  0.50000000  0.87897000  1.0
  Fe  Fe16  1  0.75614000  0.50000000  0.04500000  1.0
  Fe  Fe17  1  0.75823000  0.00000000  0.03972000  1.0
  Sn  Sn18  2  0.49550000  0.25066000  0.04159000  1.0
  Sn  Sn19  2  0.50000000  0.25000000  0.87897000  1.0
  Sn  Sn20  1  -0.00000000  0.50000000  0.95966000  1.0
  Sn  Sn21  1  -0.00000000  0.00000000  0.95966000  1.0
  Sn  Sn22  1  0.01621000  0.50000000  0.13485000  1.0
  Sn  Sn23  1  0.94012000  0.00000000  0.14534000  1.0
  C  C24  1  0.28369000  0.00000000  0.16251000  1.0
