# generated using pymatgen
data_Li8Mg8Sn8Pd8C
_symmetry_space_group_name_H-M   Pm
_cell_length_a   6.52546000
_cell_length_b   9.22840000
_cell_length_c   26.92130000
_cell_angle_alpha   90.00000000
_cell_angle_beta   90.00000000
_cell_angle_gamma   90.00000000
_symmetry_Int_Tables_number   6
_chemical_formula_structural   Li8Mg8Sn8Pd8C
_chemical_formula_sum   'Li8 Mg8 Sn8 Pd8 C1'
_cell_volume   1621.18870774
_cell_formula_units_Z   1
loop_
 _symmetry_equiv_pos_site_id
 _symmetry_equiv_pos_as_xyz
  1  'x, y, z'
  2  'x, -y, z'
loop_
 _atom_site_type_symbol
 _atom_site_label
 _atom_site_symmetry_multiplicity
 _atom_site_fract_x
 _atom_site_fract_y
 _atom_site_fract_z
 _atom_site_occupancy
  Li  Li0  2  0.50000000  0.25000000  0.95715000  1.0
  Li  Li1  2  0.52872000  0.26738000  0.13676000  1.0
  Li  Li2  1  -0.00000000  0.50000000  0.87145000  1.0
  Li  Li3  1  0.00000000  0.00000000  0.87145000  1.0
  Li  Li4  1  0.96445000  0.00000000  0.05757000  1.0
  Li  Li5  1  0.99695000  0.50000000  0.04171000  1.0
  Mg  Mg6  2  0.73990000  0.25750000  0.04248000  1.0
  Mg  Mg7  2  0.75000000  0.25000000  0.87145000  1.0
  Mg  Mg8  1  0.22109000  0.50000000  0.12795000  1.0
  Mg  Mg9  1  0.25000000  0.00000000  0.95715000  1.0
  Mg  Mg10  1  0.25000000  0.50000000  0.95715000  1.0
  Mg  Mg11  1  0.30208000  0.00000000  0.12654000  1.0
  Sn  Sn12  2  0.25000000  0.25000000  0.87145000  1.0
  Sn  Sn13  2  0.25006000  0.24583000  0.04670000  1.0
  Sn  Sn14  1  0.70294000  0.00000000  0.17394000  1.0
  Sn  Sn15  1  0.75000000  0.00000000  0.95715000  1.0
  Sn  Sn16  1  0.75000000  0.50000000  0.95715000  1.0
  Sn  Sn17  1  0.77299000  0.50000000  0.13658000  1.0
  Pd  Pd18  2  -0.00000000  0.25000000  0.95715000  1.0
  Pd  Pd19  2  0.97021000  0.22678000  0.12518000  1.0
  Pd  Pd20  1  0.48808000  0.50000000  0.04526000  1.0
  Pd  Pd21  1  0.50000000  0.00000000  0.87145000  1.0
  Pd  Pd22  1  0.50000000  0.50000000  0.87145000  1.0
  Pd  Pd23  1  0.50109000  0.00000000  0.03837000  1.0
  C  C24  1  0.99072000  0.00000000  0.14034000  1.0
