# generated using pymatgen
data_Li8Al8Ga8Pd8CO
_symmetry_space_group_name_H-M   'P 1'
_cell_length_a   8.69058000
_cell_length_b   6.14517000
_cell_length_c   26.51790000
_cell_angle_alpha   90.00000000
_cell_angle_beta   90.00000000
_cell_angle_gamma   90.00000000
_symmetry_Int_Tables_number   1
_chemical_formula_structural   Li8Al8Ga8Pd8CO
_chemical_formula_sum   'Li8 Al8 Ga8 Pd8 C1 O1'
_cell_volume   1416.19087585
_cell_formula_units_Z   1
loop_
 _symmetry_equiv_pos_site_id
 _symmetry_equiv_pos_as_xyz
  1  'x, y, z'
loop_
 _atom_site_type_symbol
 _atom_site_label
 _atom_site_symmetry_multiplicity
 _atom_site_fract_x
 _atom_site_fract_y
 _atom_site_fract_z
 _atom_site_occupancy
  Li  Li0  1  0.75000000  0.75000000  0.04097000  1.0
  Li  Li1  1  0.25000000  0.75000000  0.04097000  1.0
  Li  Li2  1  0.00000000  0.25000000  0.12290000  1.0
  Li  Li3  1  0.50000000  0.25000000  0.12290000  1.0
  Li  Li4  1  0.24470000  0.75724000  0.83953000  1.0
  Li  Li5  1  0.75530000  0.75724000  0.83953000  1.0
  Li  Li6  1  0.50000000  0.23509000  0.95664000  1.0
  Li  Li7  1  0.00000000  0.23381000  0.96026000  1.0
  Al  Al8  1  0.75000000  0.00000000  0.12290000  1.0
  Al  Al9  1  0.25000000  0.00000000  0.12290000  1.0
  Al  Al10  1  0.50000000  0.50000000  0.04097000  1.0
  Al  Al11  1  0.00000000  0.50000000  0.04097000  1.0
  Al  Al12  1  0.25063000  0.97252000  0.94990000  1.0
  Al  Al13  1  0.74937000  0.97252000  0.94990000  1.0
  Al  Al14  1  0.00000000  0.48329000  0.88035000  1.0
  Al  Al15  1  0.50000000  0.51463000  0.87735000  1.0
  Ga  Ga16  1  0.00000000  0.00000000  0.04097000  1.0
  Ga  Ga17  1  0.50000000  0.00000000  0.04097000  1.0
  Ga  Ga18  1  0.25000000  0.50000000  0.12290000  1.0
  Ga  Ga19  1  0.75000000  0.50000000  0.12290000  1.0
  Ga  Ga20  1  0.50000000  0.97927000  0.86916000  1.0
  Ga  Ga21  1  0.00000000  0.00794000  0.86891000  1.0
  Ga  Ga22  1  0.74714000  0.50486000  0.95591000  1.0
  Ga  Ga23  1  0.25286000  0.50486000  0.95591000  1.0
  Pd  Pd24  1  0.75000000  0.25000000  0.04097000  1.0
  Pd  Pd25  1  0.25000000  0.25000000  0.04097000  1.0
  Pd  Pd26  1  0.00000000  0.75000000  0.12290000  1.0
  Pd  Pd27  1  0.50000000  0.75000000  0.12290000  1.0
  Pd  Pd28  1  0.25762000  0.24971000  0.87982000  1.0
  Pd  Pd29  1  0.74238000  0.24971000  0.87982000  1.0
  Pd  Pd30  1  0.50000000  0.74844000  0.96344000  1.0
  Pd  Pd31  1  0.00000000  0.74425000  0.95805000  1.0
  C  C32  1  0.00000000  0.57213000  0.80922000  1.0
  O  O33  1  0.00000000  0.58565000  0.76491000  1.0
