# generated using pymatgen
data_Li8Al8Ga8Pd8CO
_symmetry_space_group_name_H-M   Pm
_cell_length_a   6.14517000
_cell_length_b   8.69058000
_cell_length_c   26.51790000
_cell_angle_alpha   90.00000000
_cell_angle_beta   90.00000000
_cell_angle_gamma   90.00000000
_symmetry_Int_Tables_number   6
_chemical_formula_structural   Li8Al8Ga8Pd8CO
_chemical_formula_sum   'Li8 Al8 Ga8 Pd8 C1 O1'
_cell_volume   1416.19087585
_cell_formula_units_Z   1
loop_
 _symmetry_equiv_pos_site_id
 _symmetry_equiv_pos_as_xyz
  1  'x, y, z'
  2  'x, -y, z'
loop_
 _atom_site_type_symbol
 _atom_site_label
 _atom_site_symmetry_multiplicity
 _atom_site_fract_x
 _atom_site_fract_y
 _atom_site_fract_z
 _atom_site_occupancy
  Li  Li0  2  0.75000000  0.25000000  0.95903000  1.0
  Li  Li1  2  0.75724000  0.24470000  0.16047000  1.0
  Li  Li2  1  0.23381000  0.00000000  0.03974000  1.0
  Li  Li3  1  0.23509000  0.50000000  0.04336000  1.0
  Li  Li4  1  0.25000000  0.00000000  0.87710000  1.0
  Li  Li5  1  0.25000000  0.50000000  0.87710000  1.0
  Al  Al6  2  0.00000000  0.25000000  0.87710000  1.0
  Al  Al7  2  0.97252000  0.25063000  0.05010000  1.0
  Al  Al8  1  0.48329000  0.00000000  0.11965000  1.0
  Al  Al9  1  0.50000000  0.00000000  0.95903000  1.0
  Al  Al10  1  0.50000000  0.50000000  0.95903000  1.0
  Al  Al11  1  0.51463000  0.50000000  0.12265000  1.0
  Ga  Ga12  2  0.50000000  0.25000000  0.87710000  1.0
  Ga  Ga13  2  0.50486000  0.25286000  0.04409000  1.0
  Ga  Ga14  1  0.00000000  0.00000000  0.95903000  1.0
  Ga  Ga15  1  0.00000000  0.50000000  0.95903000  1.0
  Ga  Ga16  1  0.00794000  0.00000000  0.13109000  1.0
  Ga  Ga17  1  0.97927000  0.50000000  0.13084000  1.0
  Pd  Pd18  2  0.24971000  0.25762000  0.12018000  1.0
  Pd  Pd19  2  0.25000000  0.25000000  0.95903000  1.0
  Pd  Pd20  1  0.74425000  0.00000000  0.04195000  1.0
  Pd  Pd21  1  0.74844000  0.50000000  0.03656000  1.0
  Pd  Pd22  1  0.75000000  0.00000000  0.87710000  1.0
  Pd  Pd23  1  0.75000000  0.50000000  0.87710000  1.0
  C  C24  1  0.57213000  0.00000000  0.19078000  1.0
  O  O25  1  0.58565000  0.00000000  0.23509000  1.0
