# generated using pymatgen
data_Zr8Ni16Sb8C
_symmetry_space_group_name_H-M   'P 1'
_cell_length_a   6.34847000
_cell_length_b   8.97809000
_cell_length_c   26.73360000
_cell_angle_alpha   90.00000000
_cell_angle_beta   90.00000000
_cell_angle_gamma   90.00000000
_symmetry_Int_Tables_number   1
_chemical_formula_structural   Zr8Ni16Sb8C
_chemical_formula_sum   'Zr8 Ni16 Sb8 C1'
_cell_volume   1523.73860883
_cell_formula_units_Z   1
loop_
 _symmetry_equiv_pos_site_id
 _symmetry_equiv_pos_as_xyz
  1  'x, y, z'
loop_
 _atom_site_type_symbol
 _atom_site_label
 _atom_site_symmetry_multiplicity
 _atom_site_fract_x
 _atom_site_fract_y
 _atom_site_fract_z
 _atom_site_occupancy
  Zr  Zr0  1  0.00000000  0.00000000  0.87406000  1.0
  Zr  Zr1  1  0.50000000  0.25000000  0.95802000  1.0
  Zr  Zr2  1  0.50000000  0.75000000  0.95802000  1.0
  Zr  Zr3  1  0.00000000  0.50000000  0.87406000  1.0
  Zr  Zr4  1  0.01715000  0.48712000  0.05110000  1.0
  Zr  Zr5  1  0.47012000  0.74997000  0.11909000  1.0
  Zr  Zr6  1  0.46411000  0.25000000  0.11773000  1.0
  Zr  Zr7  1  0.01712000  0.01279000  0.05108000  1.0
  Ni  Ni8  1  0.25000000  0.00000000  0.95802000  1.0
  Ni  Ni9  1  0.75000000  0.50000000  0.95802000  1.0
  Ni  Ni10  1  0.75000000  0.00000000  0.95802000  1.0
  Ni  Ni11  1  0.25000000  0.50000000  0.95802000  1.0
  Ni  Ni12  1  0.75000000  0.75000000  0.87406000  1.0
  Ni  Ni13  1  0.25000000  0.25000000  0.87406000  1.0
  Ni  Ni14  1  0.25000000  0.75000000  0.87406000  1.0
  Ni  Ni15  1  0.75000000  0.25000000  0.87406000  1.0
  Ni  Ni16  1  0.11963000  0.45705000  0.14416000  1.0
  Ni  Ni17  1  0.72376000  0.00388000  0.12423000  1.0
  Ni  Ni18  1  0.72383000  0.49615000  0.12425000  1.0
  Ni  Ni19  1  0.11963000  0.04301000  0.14415000  1.0
  Ni  Ni20  1  0.75186000  0.25001000  0.03562000  1.0
  Ni  Ni21  1  0.23514000  0.74996000  0.03997000  1.0
  Ni  Ni22  1  0.26355000  0.24995000  0.03342000  1.0
  Ni  Ni23  1  0.79962000  0.74990000  0.04555000  1.0
  Sb  Sb24  1  0.00000000  0.75000000  0.95802000  1.0
  Sb  Sb25  1  0.50000000  0.00000000  0.87406000  1.0
  Sb  Sb26  1  0.00000000  0.25000000  0.95802000  1.0
  Sb  Sb27  1  0.50000000  0.50000000  0.87406000  1.0
  Sb  Sb28  1  0.83682000  0.24997000  0.18444000  1.0
  Sb  Sb29  1  0.51081000  0.50700000  0.04107000  1.0
  Sb  Sb30  1  0.98403000  0.75000000  0.13716000  1.0
  Sb  Sb31  1  0.51078000  0.99295000  0.04106000  1.0
  C  C32  1  0.15152000  0.25002000  0.14941000  1.0
