# generated using pymatgen
data_Al16Pt16CO
_symmetry_space_group_name_H-M   Pm
_cell_length_a   6.19423000
_cell_length_b   8.75996000
_cell_length_c   26.57000000
_cell_angle_alpha   90.00000000
_cell_angle_beta   90.00000000
_cell_angle_gamma   90.00000000
_symmetry_Int_Tables_number   6
_chemical_formula_structural   Al16Pt16CO
_chemical_formula_sum   'Al16 Pt16 C1 O1'
_cell_volume   1441.72027081
_cell_formula_units_Z   1
loop_
 _symmetry_equiv_pos_site_id
 _symmetry_equiv_pos_as_xyz
  1  'x, y, z'
  2  'x, -y, z'
loop_
 _atom_site_type_symbol
 _atom_site_label
 _atom_site_symmetry_multiplicity
 _atom_site_fract_x
 _atom_site_fract_y
 _atom_site_fract_z
 _atom_site_occupancy
  Al  Al0  2  -0.00000000  0.25000000  0.95879000  1.0
  Al  Al1  2  0.50000000  0.25000000  0.95879000  1.0
  Al  Al2  2  0.50498000  0.25342000  0.12400000  1.0
  Al  Al3  2  0.99506000  0.25352000  0.12395000  1.0
  Al  Al4  1  -0.00000000  0.50000000  0.87636000  1.0
  Al  Al5  1  0.00000000  0.00000000  0.87636000  1.0
  Al  Al6  1  0.00003000  0.00000000  0.04467000  1.0
  Al  Al7  1  0.00577000  0.50000000  0.04083000  1.0
  Al  Al8  1  0.49435000  0.50000000  0.04083000  1.0
  Al  Al9  1  0.49994000  0.00000000  0.04466000  1.0
  Al  Al10  1  0.50000000  0.00000000  0.87636000  1.0
  Al  Al11  1  0.50000000  0.50000000  0.87636000  1.0
  Pt  Pt12  2  0.25000000  0.25000000  0.87636000  1.0
  Pt  Pt13  2  0.25004000  0.23565000  0.04151000  1.0
  Pt  Pt14  2  0.75000000  0.25000000  0.87636000  1.0
  Pt  Pt15  2  0.75003000  0.25263000  0.03668000  1.0
  Pt  Pt16  1  0.24972000  0.00000000  0.13714000  1.0
  Pt  Pt17  1  0.25000000  0.00000000  0.95879000  1.0
  Pt  Pt18  1  0.25000000  0.50000000  0.95879000  1.0
  Pt  Pt19  1  0.25014000  0.50000000  0.11837000  1.0
  Pt  Pt20  1  0.74979000  0.00000000  0.11953000  1.0
  Pt  Pt21  1  0.75000000  0.00000000  0.95879000  1.0
  Pt  Pt22  1  0.75000000  0.50000000  0.95879000  1.0
  Pt  Pt23  1  0.75006000  0.50000000  0.11762000  1.0
  C  C24  1  0.24789000  0.00000000  0.20907000  1.0
  O  O25  1  0.24708000  0.00000000  0.25241000  1.0
