# generated using pymatgen
data_Sc8Sn8Pd16C
_symmetry_space_group_name_H-M   Pm
_cell_length_a   6.62889000
_cell_length_b   9.37466000
_cell_length_c   27.03100000
_cell_angle_alpha   90.00000000
_cell_angle_beta   90.00000000
_cell_angle_gamma   90.00000000
_symmetry_Int_Tables_number   6
_chemical_formula_structural   Sc8Sn8Pd16C
_chemical_formula_sum   'Sc8 Sn8 Pd16 C1'
_cell_volume   1679.80337933
_cell_formula_units_Z   1
loop_
 _symmetry_equiv_pos_site_id
 _symmetry_equiv_pos_as_xyz
  1  'x, y, z'
  2  'x, -y, z'
loop_
 _atom_site_type_symbol
 _atom_site_label
 _atom_site_symmetry_multiplicity
 _atom_site_fract_x
 _atom_site_fract_y
 _atom_site_fract_z
 _atom_site_occupancy
  Sc  Sc0  2  0.00000000  0.25000000  0.86995000  1.0
  Sc  Sc1  2  0.99827000  0.25430000  0.04322000  1.0
  Sc  Sc2  1  0.49528000  0.50000000  0.12831000  1.0
  Sc  Sc3  1  0.50000000  0.00000000  0.95665000  1.0
  Sc  Sc4  1  0.50000000  0.50000000  0.95665000  1.0
  Sc  Sc5  1  0.53328000  0.00000000  0.12851000  1.0
  Sn  Sn6  2  0.49899000  0.24479000  0.04411000  1.0
  Sn  Sn7  2  0.50000000  0.25000000  0.86995000  1.0
  Sn  Sn8  1  0.00000000  0.00000000  0.95665000  1.0
  Sn  Sn9  1  0.00000000  0.50000000  0.95665000  1.0
  Sn  Sn10  1  0.01617000  0.50000000  0.13442000  1.0
  Sn  Sn11  1  0.93724000  0.00000000  0.16666000  1.0
  Pd  Pd12  2  0.22677000  0.23791000  0.12501000  1.0
  Pd  Pd13  2  0.25000000  0.25000000  0.95665000  1.0
  Pd  Pd14  2  0.75000000  0.25000000  0.95665000  1.0
  Pd  Pd15  2  0.76186000  0.25830000  0.12492000  1.0
  Pd  Pd16  1  0.22430000  0.00000000  0.05025000  1.0
  Pd  Pd17  1  0.25000000  0.00000000  0.86995000  1.0
  Pd  Pd18  1  0.25000000  0.50000000  0.86995000  1.0
  Pd  Pd19  1  0.26411000  0.50000000  0.04356000  1.0
  Pd  Pd20  1  0.74279000  0.50000000  0.04535000  1.0
  Pd  Pd21  1  0.75000000  0.00000000  0.86995000  1.0
  Pd  Pd22  1  0.75000000  0.50000000  0.86995000  1.0
  Pd  Pd23  1  0.76134000  0.00000000  0.04287000  1.0
  C  C24  1  0.22692000  0.00000000  0.13552000  1.0
