# generated using pymatgen
data_Li24Pb8CO
_symmetry_space_group_name_H-M   'P 1'
_cell_length_a   6.73051000
_cell_length_b   9.51837000
_cell_length_c   27.13880000
_cell_angle_alpha   90.00000000
_cell_angle_beta   90.00000000
_cell_angle_gamma   90.00000000
_symmetry_Int_Tables_number   1
_chemical_formula_structural   Li24Pb8CO
_chemical_formula_sum   'Li24 Pb8 C1 O1'
_cell_volume   1738.60609230
_cell_formula_units_Z   1
loop_
 _symmetry_equiv_pos_site_id
 _symmetry_equiv_pos_as_xyz
  1  'x, y, z'
loop_
 _atom_site_type_symbol
 _atom_site_label
 _atom_site_symmetry_multiplicity
 _atom_site_fract_x
 _atom_site_fract_y
 _atom_site_fract_z
 _atom_site_occupancy
  Li  Li0  1  0.25000000  0.75003000  0.95616000  1.0
  Li  Li1  1  0.75000000  0.24997000  0.95616000  1.0
  Li  Li2  1  0.75000000  0.75003000  0.95616000  1.0
  Li  Li3  1  0.25000000  0.24997000  0.95616000  1.0
  Li  Li4  1  0.75000000  0.50000000  0.86848000  1.0
  Li  Li5  1  0.25000000  0.00000000  0.86848000  1.0
  Li  Li6  1  0.25000000  0.50000000  0.86848000  1.0
  Li  Li7  1  0.75000000  0.00000000  0.86848000  1.0
  Li  Li8  1  0.00000000  0.50000000  0.95616000  1.0
  Li  Li9  1  0.50000000  0.75003000  0.86848000  1.0
  Li  Li10  1  0.00000000  0.00000000  0.95616000  1.0
  Li  Li11  1  0.50000000  0.24997000  0.86848000  1.0
  Li  Li12  1  0.26796000  0.24963000  0.13661000  1.0
  Li  Li13  1  0.73204000  0.75037000  0.13661000  1.0
  Li  Li14  1  0.73204000  0.24963000  0.13661000  1.0
  Li  Li15  1  0.26796000  0.75037000  0.13661000  1.0
  Li  Li16  1  0.75027000  0.00000000  0.04166000  1.0
  Li  Li17  1  0.25372000  0.50000000  0.04334000  1.0
  Li  Li18  1  0.24973000  0.00000000  0.04166000  1.0
  Li  Li19  1  0.74628000  0.50000000  0.04334000  1.0
  Li  Li20  1  0.00000000  0.00000000  0.12427000  1.0
  Li  Li21  1  0.50000000  0.24967000  0.04519000  1.0
  Li  Li22  1  0.00000000  0.50000000  0.12455000  1.0
  Li  Li23  1  0.50000000  0.75033000  0.04519000  1.0
  Pb  Pb24  1  0.00000000  0.75003000  0.86848000  1.0
  Pb  Pb25  1  0.50000000  0.00000000  0.95616000  1.0
  Pb  Pb26  1  0.50000000  0.50000000  0.95616000  1.0
  Pb  Pb27  1  0.00000000  0.24997000  0.86848000  1.0
  Pb  Pb28  1  0.00000000  0.24999000  0.05052000  1.0
  Pb  Pb29  1  0.50000000  0.50000000  0.13146000  1.0
  Pb  Pb30  1  0.50000000  0.00000000  0.12742000  1.0
  Pb  Pb31  1  0.00000000  0.75001000  0.05052000  1.0
  C  C32  1  0.00000000  0.00000000  0.19939000  1.0
  O  O33  1  0.00000000  0.00000000  0.24176000  1.0
