data_image0
_chemical_formula_structural       Ti8Ga8Fe16CO
_chemical_formula_sum              "Ti8 Ga8 Fe16 C1 O1"
_cell_length_a       5.88011
_cell_length_b       8.31574
_cell_length_c       26.2368
_cell_angle_alpha    90
_cell_angle_beta     90
_cell_angle_gamma    90

_space_group_name_H-M_alt    "P 1"
_space_group_IT_number       1

loop_
  _space_group_symop_operation_xyz
  'x, y, z'

loop_
  _atom_site_type_symbol
  _atom_site_label
  _atom_site_symmetry_multiplicity
  _atom_site_fract_x
  _atom_site_fract_y
  _atom_site_fract_z
  _atom_site_occupancy
  Ti  Ti1       1.0  0.00000  0.00000  0.88114  1.0000
  Ti  Ti2       1.0  0.50000  0.25000  0.96038  1.0000
  Ti  Ti3       1.0  0.50000  0.75000  0.96038  1.0000
  Ti  Ti4       1.0  0.00000  0.50000  0.88114  1.0000
  Ti  Ti5       1.0  0.00001  0.49810  0.03729  1.0000
  Ti  Ti6       1.0  0.50002  0.74993  0.11741  1.0000
  Ti  Ti7       1.0  0.50002  0.24998  0.11845  1.0000
  Ti  Ti8       1.0  0.99998  0.00188  0.03728  1.0000
  Ga  Ga1       1.0  0.00000  0.75000  0.96038  1.0000
  Ga  Ga2       1.0  0.50000  0.00000  0.88114  1.0000
  Ga  Ga3       1.0  0.00000  0.25000  0.96038  1.0000
  Ga  Ga4       1.0  0.50000  0.50000  0.88114  1.0000
  Ga  Ga5       1.0  0.00011  0.24987  0.12066  1.0000
  Ga  Ga6       1.0  0.50001  0.49825  0.03856  1.0000
  Ga  Ga7       1.0  0.00009  0.75005  0.12454  1.0000
  Ga  Ga8       1.0  0.49995  0.00169  0.03860  1.0000
  Fe  Fe1       1.0  0.25000  0.00000  0.96038  1.0000
  Fe  Fe2       1.0  0.75000  0.50000  0.96038  1.0000
  Fe  Fe3       1.0  0.75000  0.00000  0.96038  1.0000
  Fe  Fe4       1.0  0.25000  0.50000  0.96038  1.0000
  Fe  Fe5       1.0  0.75000  0.75000  0.88114  1.0000
  Fe  Fe6       1.0  0.25000  0.25000  0.88114  1.0000
  Fe  Fe7       1.0  0.25000  0.75000  0.88114  1.0000
  Fe  Fe8       1.0  0.75000  0.25000  0.88114  1.0000
  Fe  Fe9       1.0  0.23611  0.50163  0.11600  1.0000
  Fe  Fe10      1.0  0.76339  0.99846  0.11607  1.0000
  Fe  Fe11      1.0  0.76393  0.50160  0.11601  1.0000
  Fe  Fe12      1.0  0.23664  0.99844  0.11606  1.0000
  Fe  Fe13      1.0  0.75006  0.25004  0.03931  1.0000
  Fe  Fe14      1.0  0.25194  0.74992  0.04102  1.0000
  Fe  Fe15      1.0  0.24995  0.25004  0.03932  1.0000
  Fe  Fe16      1.0  0.74804  0.74990  0.04101  1.0000
  C   C1        1.0  0.50008  0.24997  0.20058  1.0000
  O   O1        1.0  0.49997  0.25000  0.24447  1.0000
