# generated using pymatgen
data_Ti8Ga8Fe16CO
_symmetry_space_group_name_H-M   'P 1'
_cell_length_a   5.88011000
_cell_length_b   8.31574000
_cell_length_c   26.23680000
_cell_angle_alpha   90.00000000
_cell_angle_beta   90.00000000
_cell_angle_gamma   90.00000000
_symmetry_Int_Tables_number   1
_chemical_formula_structural   Ti8Ga8Fe16CO
_chemical_formula_sum   'Ti8 Ga8 Fe16 C1 O1'
_cell_volume   1282.91303415
_cell_formula_units_Z   1
loop_
 _symmetry_equiv_pos_site_id
 _symmetry_equiv_pos_as_xyz
  1  'x, y, z'
loop_
 _atom_site_type_symbol
 _atom_site_label
 _atom_site_symmetry_multiplicity
 _atom_site_fract_x
 _atom_site_fract_y
 _atom_site_fract_z
 _atom_site_occupancy
  Ti  Ti0  1  0.00000000  0.00000000  0.88114000  1.0
  Ti  Ti1  1  0.50000000  0.25000000  0.96038000  1.0
  Ti  Ti2  1  0.50000000  0.75000000  0.96038000  1.0
  Ti  Ti3  1  0.00000000  0.50000000  0.88114000  1.0
  Ti  Ti4  1  0.00001000  0.49810000  0.03729000  1.0
  Ti  Ti5  1  0.50002000  0.74993000  0.11741000  1.0
  Ti  Ti6  1  0.50002000  0.24998000  0.11845000  1.0
  Ti  Ti7  1  0.99998000  0.00188000  0.03728000  1.0
  Ga  Ga8  1  0.00000000  0.75000000  0.96038000  1.0
  Ga  Ga9  1  0.50000000  0.00000000  0.88114000  1.0
  Ga  Ga10  1  0.00000000  0.25000000  0.96038000  1.0
  Ga  Ga11  1  0.50000000  0.50000000  0.88114000  1.0
  Ga  Ga12  1  0.00011000  0.24987000  0.12066000  1.0
  Ga  Ga13  1  0.50001000  0.49825000  0.03856000  1.0
  Ga  Ga14  1  0.00009000  0.75005000  0.12454000  1.0
  Ga  Ga15  1  0.49995000  0.00169000  0.03860000  1.0
  Fe  Fe16  1  0.25000000  0.00000000  0.96038000  1.0
  Fe  Fe17  1  0.75000000  0.50000000  0.96038000  1.0
  Fe  Fe18  1  0.75000000  0.00000000  0.96038000  1.0
  Fe  Fe19  1  0.25000000  0.50000000  0.96038000  1.0
  Fe  Fe20  1  0.75000000  0.75000000  0.88114000  1.0
  Fe  Fe21  1  0.25000000  0.25000000  0.88114000  1.0
  Fe  Fe22  1  0.25000000  0.75000000  0.88114000  1.0
  Fe  Fe23  1  0.75000000  0.25000000  0.88114000  1.0
  Fe  Fe24  1  0.23611000  0.50163000  0.11600000  1.0
  Fe  Fe25  1  0.76339000  0.99846000  0.11607000  1.0
  Fe  Fe26  1  0.76393000  0.50160000  0.11601000  1.0
  Fe  Fe27  1  0.23664000  0.99844000  0.11606000  1.0
  Fe  Fe28  1  0.75006000  0.25004000  0.03931000  1.0
  Fe  Fe29  1  0.25194000  0.74992000  0.04102000  1.0
  Fe  Fe30  1  0.24995000  0.25004000  0.03932000  1.0
  Fe  Fe31  1  0.74804000  0.74990000  0.04101000  1.0
  C  C32  1  0.50008000  0.24997000  0.20058000  1.0
  O  O33  1  0.49997000  0.25000000  0.24447000  1.0
