# generated using pymatgen
data_LiVGePd
_symmetry_space_group_name_H-M   Pm
_cell_length_a   5.49597000
_cell_length_b   4.32057000
_cell_length_c   23.65060000
_cell_angle_alpha   90.00000000
_cell_angle_beta   90.00000000
_cell_angle_gamma   90.00000000
_symmetry_Int_Tables_number   6
_chemical_formula_structural   LiVGePd
_chemical_formula_sum   'Li2 V2 Ge2 Pd2'
_cell_volume   561.60059882
_cell_formula_units_Z   2
loop_
 _symmetry_equiv_pos_site_id
 _symmetry_equiv_pos_as_xyz
  1  'x, y, z'
  2  'x, -y, z'
loop_
 _atom_site_type_symbol
 _atom_site_label
 _atom_site_symmetry_multiplicity
 _atom_site_fract_x
 _atom_site_fract_y
 _atom_site_fract_z
 _atom_site_occupancy
  Li  Li0  1  0.49945500  0.00000000  0.08161000  1.0
  Li  Li1  1  0.76781000  0.00000000  0.97427000  1.0
  V  V2  1  0.11603000  0.50000000  0.01637000  1.0
  V  V3  1  0.40171000  0.50000000  0.92282000  1.0
  Ge  Ge4  1  0.02105000  0.00000000  0.06906000  1.0
  Ge  Ge5  1  0.26781000  0.00000000  0.97427000  1.0
  Pd  Pd6  1  0.62763000  0.50000000  0.02168500  1.0
  Pd  Pd7  1  0.90171000  0.50000000  0.92282000  1.0
