data_image0
_chemical_formula_structural       Y16Mg16C
_chemical_formula_sum              "Y16 Mg16 C1"
_cell_length_a       7.58049
_cell_length_b       10.7204
_cell_length_c       28.0403
_cell_angle_alpha    90
_cell_angle_beta     90
_cell_angle_gamma    90

_space_group_name_H-M_alt    "P 1"
_space_group_IT_number       1

loop_
  _space_group_symop_operation_xyz
  'x, y, z'

loop_
  _atom_site_type_symbol
  _atom_site_label
  _atom_site_symmetry_multiplicity
  _atom_site_fract_x
  _atom_site_fract_y
  _atom_site_fract_z
  _atom_site_occupancy
  Y   Y1        1.0  0.00000  0.00000  0.85663  1.0000
  Y   Y2        1.0  0.00000  0.25000  0.95221  1.0000
  Y   Y3        1.0  0.00000  0.49999  0.04659  1.0000
  Y   Y4        1.0  1.00000  0.21547  0.14458  1.0000
  Y   Y5        1.0  0.00000  0.50000  0.85663  1.0000
  Y   Y6        1.0  0.00000  0.75000  0.95221  1.0000
  Y   Y7        1.0  1.00000  1.00000  0.05252  1.0000
  Y   Y8        1.0  0.00000  0.78454  0.14458  1.0000
  Y   Y9        1.0  0.50000  0.00000  0.85663  1.0000
  Y   Y10       1.0  0.50000  0.25000  0.95221  1.0000
  Y   Y11       1.0  0.50000  0.50000  0.04826  1.0000
  Y   Y12       1.0  0.50000  0.26952  0.13878  1.0000
  Y   Y13       1.0  0.50000  0.50000  0.85663  1.0000
  Y   Y14       1.0  0.50000  0.75000  0.95221  1.0000
  Y   Y15       1.0  0.50000  1.00000  0.04611  1.0000
  Y   Y16       1.0  0.50000  0.73049  0.13877  1.0000
  Mg  Mg1       1.0  0.25000  0.25000  0.85663  1.0000
  Mg  Mg2       1.0  0.25000  0.00000  0.95221  1.0000
  Mg  Mg3       1.0  0.24724  0.25168  0.04705  1.0000
  Mg  Mg4       1.0  0.22119  0.50000  0.14540  1.0000
  Mg  Mg5       1.0  0.25000  0.75000  0.85663  1.0000
  Mg  Mg6       1.0  0.25000  0.50000  0.95221  1.0000
  Mg  Mg7       1.0  0.24724  0.74832  0.04705  1.0000
  Mg  Mg8       1.0  0.28846  0.00001  0.14482  1.0000
  Mg  Mg9       1.0  0.75000  0.25000  0.85663  1.0000
  Mg  Mg10      1.0  0.75000  0.00000  0.95221  1.0000
  Mg  Mg11      1.0  0.75276  0.25168  0.04705  1.0000
  Mg  Mg12      1.0  0.77881  0.50000  0.14540  1.0000
  Mg  Mg13      1.0  0.75000  0.75000  0.85663  1.0000
  Mg  Mg14      1.0  0.75000  0.50000  0.95221  1.0000
  Mg  Mg15      1.0  0.75276  0.74832  0.04705  1.0000
  Mg  Mg16      1.0  0.71154  0.00001  0.14482  1.0000
  C   C1        1.0  1.00000  0.00000  0.13806  1.0000
