# generated using pymatgen
data_Y16Mg16C
_symmetry_space_group_name_H-M   Pmm2
_cell_length_a   7.58049000
_cell_length_b   10.72040000
_cell_length_c   28.04030000
_cell_angle_alpha   90.00000000
_cell_angle_beta   90.00000000
_cell_angle_gamma   90.00000000
_symmetry_Int_Tables_number   25
_chemical_formula_structural   Y16Mg16C
_chemical_formula_sum   'Y16 Mg16 C1'
_cell_volume   2278.71979505
_cell_formula_units_Z   1
loop_
 _symmetry_equiv_pos_site_id
 _symmetry_equiv_pos_as_xyz
  1  'x, y, z'
  2  '-x, -y, z'
  3  '-x, y, z'
  4  'x, -y, z'
loop_
 _atom_site_type_symbol
 _atom_site_label
 _atom_site_symmetry_multiplicity
 _atom_site_fract_x
 _atom_site_fract_y
 _atom_site_fract_z
 _atom_site_occupancy
  Y  Y0  2  0.00000000  0.21547000  0.14458000  1.0
  Y  Y1  2  0.00000000  0.25000000  0.95221000  1.0
  Y  Y2  2  0.50000000  0.25000000  0.95221000  1.0
  Y  Y3  2  0.50000000  0.26952000  0.13878000  1.0
  Y  Y4  1  0.00000000  0.00000000  0.05252000  1.0
  Y  Y5  1  0.00000000  0.00000000  0.85663000  1.0
  Y  Y6  1  0.00000000  0.50000000  0.04659000  1.0
  Y  Y7  1  0.00000000  0.50000000  0.85663000  1.0
  Y  Y8  1  0.50000000  0.00000000  0.04611000  1.0
  Y  Y9  1  0.50000000  0.00000000  0.85663000  1.0
  Y  Y10  1  0.50000000  0.50000000  0.04826000  1.0
  Y  Y11  1  0.50000000  0.50000000  0.85663000  1.0
  Mg  Mg12  4  0.24724000  0.25168000  0.04705000  1.0
  Mg  Mg13  4  0.25000000  0.25000000  0.85663000  1.0
  Mg  Mg14  2  0.22119000  0.50000000  0.14540000  1.0
  Mg  Mg15  2  0.25000000  0.00000000  0.95221000  1.0
  Mg  Mg16  2  0.25000000  0.50000000  0.95221000  1.0
  Mg  Mg17  2  0.28846000  0.00000000  0.14482000  1.0
  C  C18  1  0.00000000  0.00000000  0.13806000  1.0
