# generated using pymatgen
data_Li4Ge4Pd4Au4CO
_symmetry_space_group_name_H-M   'P 1'
_cell_length_a   6.30991000
_cell_length_b   6.30991000
_cell_length_c   24.73240000
_cell_angle_alpha   90.00000000
_cell_angle_beta   90.00000000
_cell_angle_gamma   90.00000000
_symmetry_Int_Tables_number   1
_chemical_formula_structural   Li4Ge4Pd4Au4CO
_chemical_formula_sum   'Li4 Ge4 Pd4 Au4 C1 O1'
_cell_volume   984.71962078
_cell_formula_units_Z   1
loop_
 _symmetry_equiv_pos_site_id
 _symmetry_equiv_pos_as_xyz
  1  'x, y, z'
loop_
 _atom_site_type_symbol
 _atom_site_label
 _atom_site_symmetry_multiplicity
 _atom_site_fract_x
 _atom_site_fract_y
 _atom_site_fract_z
 _atom_site_occupancy
  Li  Li0  1  0.25161000  0.24879000  0.96468000  1.0
  Li  Li1  1  0.25000000  0.75000000  0.09567000  1.0
  Li  Li2  1  0.75000000  0.25000000  0.09567000  1.0
  Li  Li3  1  0.74839000  0.75121000  0.96468000  1.0
  Ge  Ge4  1  0.74565000  0.24576000  0.96366000  1.0
  Ge  Ge5  1  0.75000000  0.75000000  0.09567000  1.0
  Ge  Ge6  1  0.25000000  0.25000000  0.09567000  1.0
  Ge  Ge7  1  0.25435000  0.75424000  0.96366000  1.0
  Pd  Pd8  1  0.00000000  0.50000000  0.90269000  1.0
  Pd  Pd9  1  0.00000000  0.00000000  0.03189000  1.0
  Pd  Pd10  1  0.50000000  0.50000000  0.03189000  1.0
  Pd  Pd11  1  0.50000000  0.00000000  0.90715000  1.0
  Au  Au12  1  0.00000000  0.00000000  0.90150000  1.0
  Au  Au13  1  0.00000000  0.50000000  0.03189000  1.0
  Au  Au14  1  0.50000000  0.00000000  0.03189000  1.0
  Au  Au15  1  0.50000000  0.50000000  0.90170000  1.0
  C  C16  1  0.00000000  0.50000000  0.82273000  1.0
  O  O17  1  0.00000000  0.50000000  0.77643000  1.0
