# generated using pymatgen
data_Li4Ge4Pd4Au4CO
_symmetry_space_group_name_H-M   P2
_cell_length_a   6.30991000
_cell_length_b   24.73240000
_cell_length_c   6.30991000
_cell_angle_alpha   90.00000000
_cell_angle_beta   90.00000000
_cell_angle_gamma   90.00000000
_symmetry_Int_Tables_number   3
_chemical_formula_structural   Li4Ge4Pd4Au4CO
_chemical_formula_sum   'Li4 Ge4 Pd4 Au4 C1 O1'
_cell_volume   984.71962078
_cell_formula_units_Z   1
loop_
 _symmetry_equiv_pos_site_id
 _symmetry_equiv_pos_as_xyz
  1  'x, y, z'
  2  '-x, y, -z'
loop_
 _atom_site_type_symbol
 _atom_site_label
 _atom_site_symmetry_multiplicity
 _atom_site_fract_x
 _atom_site_fract_y
 _atom_site_fract_z
 _atom_site_occupancy
  Li  Li0  2  0.24879000  0.03532000  0.25161000  1.0
  Li  Li1  2  0.25000000  0.90433000  0.75000000  1.0
  Ge  Ge2  2  0.24576000  0.03634000  0.74565000  1.0
  Ge  Ge3  2  0.25000000  0.90433000  0.25000000  1.0
  Pd  Pd4  1  0.00000000  0.09285000  0.50000000  1.0
  Pd  Pd5  1  0.00000000  0.96811000  0.00000000  1.0
  Pd  Pd6  1  0.50000000  0.09731000  0.00000000  1.0
  Pd  Pd7  1  0.50000000  0.96811000  0.50000000  1.0
  Au  Au8  1  0.00000000  0.09850000  0.00000000  1.0
  Au  Au9  1  0.00000000  0.96811000  0.50000000  1.0
  Au  Au10  1  0.50000000  0.09830000  0.50000000  1.0
  Au  Au11  1  0.50000000  0.96811000  0.00000000  1.0
  C  C12  1  0.50000000  0.17727000  0.00000000  1.0
  O  O13  1  0.50000000  0.22357000  0.00000000  1.0
