# generated using pymatgen
data_Mn4Pt12C
_symmetry_space_group_name_H-M   'P 1'
_cell_length_a   5.60104000
_cell_length_b   7.92107000
_cell_length_c   24.20080000
_cell_angle_alpha   90.00000000
_cell_angle_beta   90.00000000
_cell_angle_gamma   90.00000000
_symmetry_Int_Tables_number   1
_chemical_formula_structural   Mn4Pt12C
_chemical_formula_sum   'Mn4 Pt12 C1'
_cell_volume   1073.69825687
_cell_formula_units_Z   1
loop_
 _symmetry_equiv_pos_site_id
 _symmetry_equiv_pos_as_xyz
  1  'x, y, z'
loop_
 _atom_site_type_symbol
 _atom_site_label
 _atom_site_symmetry_multiplicity
 _atom_site_fract_x
 _atom_site_fract_y
 _atom_site_fract_z
 _atom_site_occupancy
  Mn  Mn0  1  0.00000000  0.00000000  0.08679000  1.0
  Mn  Mn1  1  0.50000000  0.00000000  0.97107000  1.0
  Mn  Mn2  1  0.00000000  0.50000000  0.08679000  1.0
  Mn  Mn3  1  0.50000000  0.50000000  0.97107000  1.0
  Pt  Pt4  1  0.50000000  0.00000000  0.08679000  1.0
  Pt  Pt5  1  0.75000000  0.25000000  0.02893000  1.0
  Pt  Pt6  1  0.25000000  0.25000000  0.02893000  1.0
  Pt  Pt7  1  0.00000000  0.00000000  0.97107000  1.0
  Pt  Pt8  1  0.25000000  0.25000000  0.91321000  1.0
  Pt  Pt9  1  0.75000000  0.25000000  0.91321000  1.0
  Pt  Pt10  1  0.50000000  0.50000000  0.08679000  1.0
  Pt  Pt11  1  0.75000000  0.75000000  0.02893000  1.0
  Pt  Pt12  1  0.25000000  0.75000000  0.02893000  1.0
  Pt  Pt13  1  0.00000000  0.50000000  0.97107000  1.0
  Pt  Pt14  1  0.25000000  0.75000000  0.91321000  1.0
  Pt  Pt15  1  0.75000000  0.75000000  0.91321000  1.0
  C  C16  1  0.50000000  0.00000000  0.88015000  1.0
