# generated using pymatgen
data_Mg4In12CO
_symmetry_space_group_name_H-M   P1
_cell_length_a   6.66280000
_cell_length_b   9.42262000
_cell_length_c   24.99710000
_cell_angle_alpha   90.00000000
_cell_angle_beta   90.00000000
_cell_angle_gamma   90.00000000
_symmetry_Int_Tables_number   1
_chemical_formula_structural   Mg4In12CO
_chemical_formula_sum   'Mg4 In12 C1 O1'
_cell_volume   1569.34374841
_cell_formula_units_Z   1
loop_
 _symmetry_equiv_pos_site_id
 _symmetry_equiv_pos_as_xyz
  1  'x, y, z'
loop_
 _atom_site_type_symbol
 _atom_site_label
 _atom_site_symmetry_multiplicity
 _atom_site_fract_x
 _atom_site_fract_y
 _atom_site_fract_z
 _atom_site_occupancy
  Mg  Mg0  1  0.00000000  0.00000000  0.09995000  1.0
  Mg  Mg1  1  0.00000000  0.50000000  0.09995000  1.0
  Mg  Mg2  1  0.49223000  0.00128000  0.96529000  1.0
  Mg  Mg3  1  0.49226000  0.49871000  0.96529000  1.0
  In  In4  1  0.24348000  0.74999000  0.89421000  1.0
  In  In5  1  0.25000000  0.25000000  0.03332000  1.0
  In  In6  1  0.25000000  0.75000000  0.03332000  1.0
  In  In7  1  0.25142000  0.24999000  0.89553000  1.0
  In  In8  1  0.50000000  0.00000000  0.09995000  1.0
  In  In9  1  0.50000000  0.50000000  0.09995000  1.0
  In  In10  1  0.73136000  0.75001000  0.89494000  1.0
  In  In11  1  0.73878000  0.25000000  0.89421000  1.0
  In  In12  1  0.75000000  0.25000000  0.03332000  1.0
  In  In13  1  0.75000000  0.75000000  0.03332000  1.0
  In  In14  1  0.99071000  0.49913000  0.96023000  1.0
  In  In15  1  0.99073000  0.00087000  0.96023000  1.0
  C  C16  1  0.81476000  0.74997000  0.73980000  1.0
  O  O17  1  0.70913000  0.75003000  0.70412000  1.0
