# generated using pymatgen
data_Sc8Al8Cu16CO
_symmetry_space_group_name_H-M   'P 1'
_cell_length_a   8.81761000
_cell_length_b   6.23499000
_cell_length_c   26.61320000
_cell_angle_alpha   90.00000000
_cell_angle_beta   90.00000000
_cell_angle_gamma   90.00000000
_symmetry_Int_Tables_number   1
_chemical_formula_structural   Sc8Al8Cu16CO
_chemical_formula_sum   'Sc8 Al8 Cu16 C1 O1'
_cell_volume   1463.13279640
_cell_formula_units_Z   1
loop_
 _symmetry_equiv_pos_site_id
 _symmetry_equiv_pos_as_xyz
  1  'x, y, z'
loop_
 _atom_site_type_symbol
 _atom_site_label
 _atom_site_symmetry_multiplicity
 _atom_site_fract_x
 _atom_site_fract_y
 _atom_site_fract_z
 _atom_site_occupancy
  Sc  Sc0  1  0.50000000  0.00000000  0.12425000  1.0
  Sc  Sc1  1  0.75003000  0.50000000  0.04142000  1.0
  Sc  Sc2  1  0.24997000  0.50000000  0.04142000  1.0
  Sc  Sc3  1  0.00000000  0.00000000  0.12425000  1.0
  Sc  Sc4  1  0.00000000  0.99528000  0.96019000  1.0
  Sc  Sc5  1  0.25830000  0.48835000  0.87039000  1.0
  Sc  Sc6  1  0.74170000  0.48835000  0.87039000  1.0
  Sc  Sc7  1  0.50000000  0.00581000  0.96019000  1.0
  Al  Al8  1  0.25003000  0.00000000  0.04142000  1.0
  Al  Al9  1  0.50000000  0.50000000  0.12425000  1.0
  Al  Al10  1  0.74997000  0.00000000  0.04142000  1.0
  Al  Al11  1  0.00000000  0.50000000  0.12425000  1.0
  Al  Al12  1  0.75622000  0.99405000  0.88074000  1.0
  Al  Al13  1  0.00000000  0.49767000  0.95848000  1.0
  Al  Al14  1  0.24378000  0.99405000  0.88074000  1.0
  Al  Al15  1  0.50000000  0.49738000  0.95660000  1.0
  Cu  Cu16  1  0.50000000  0.25000000  0.04142000  1.0
  Cu  Cu17  1  0.00000000  0.75000000  0.04142000  1.0
  Cu  Cu18  1  0.50000000  0.75000000  0.04142000  1.0
  Cu  Cu19  1  0.00000000  0.25000000  0.04142000  1.0
  Cu  Cu20  1  0.25003000  0.75000000  0.12425000  1.0
  Cu  Cu21  1  0.75003000  0.25000000  0.12425000  1.0
  Cu  Cu22  1  0.24997000  0.25000000  0.12425000  1.0
  Cu  Cu23  1  0.74997000  0.75000000  0.12425000  1.0
  Cu  Cu24  1  0.00000000  0.24464000  0.87908000  1.0
  Cu  Cu25  1  0.50000000  0.77078000  0.88008000  1.0
  Cu  Cu26  1  0.00000000  0.74228000  0.87818000  1.0
  Cu  Cu27  1  0.50000000  0.18528000  0.86436000  1.0
  Cu  Cu28  1  0.74924000  0.73126000  0.95595000  1.0
  Cu  Cu29  1  0.24645000  0.26295000  0.95696000  1.0
  Cu  Cu30  1  0.75355000  0.26295000  0.95696000  1.0
  Cu  Cu31  1  0.25076000  0.73126000  0.95595000  1.0
  C  C32  1  0.50000000  0.32786000  0.80343000  1.0
  O  O33  1  0.50000000  0.38383000  0.76157000  1.0
