# generated using pymatgen
data_Sc8Al8Cu16CO
_symmetry_space_group_name_H-M   Pm
_cell_length_a   6.23499000
_cell_length_b   8.81761000
_cell_length_c   26.61320000
_cell_angle_alpha   90.00000000
_cell_angle_beta   90.00000000
_cell_angle_gamma   90.00000000
_symmetry_Int_Tables_number   6
_chemical_formula_structural   Sc8Al8Cu16CO
_chemical_formula_sum   'Sc8 Al8 Cu16 C1 O1'
_cell_volume   1463.13279640
_cell_formula_units_Z   1
loop_
 _symmetry_equiv_pos_site_id
 _symmetry_equiv_pos_as_xyz
  1  'x, y, z'
  2  'x, -y, z'
loop_
 _atom_site_type_symbol
 _atom_site_label
 _atom_site_symmetry_multiplicity
 _atom_site_fract_x
 _atom_site_fract_y
 _atom_site_fract_z
 _atom_site_occupancy
  Sc  Sc0  2  0.48835000  0.25830000  0.12961000  1.0
  Sc  Sc1  2  0.50000000  0.24997000  0.95858000  1.0
  Sc  Sc2  1  0.00000000  0.00000000  0.87575000  1.0
  Sc  Sc3  1  0.00000000  0.50000000  0.87575000  1.0
  Sc  Sc4  1  0.00581000  0.50000000  0.03981000  1.0
  Sc  Sc5  1  0.99528000  0.00000000  0.03981000  1.0
  Al  Al6  2  0.00000000  0.25003000  0.95858000  1.0
  Al  Al7  2  0.99405000  0.24378000  0.11926000  1.0
  Al  Al8  1  0.49738000  0.50000000  0.04340000  1.0
  Al  Al9  1  0.49767000  0.00000000  0.04152000  1.0
  Al  Al10  1  0.50000000  0.00000000  0.87575000  1.0
  Al  Al11  1  0.50000000  0.50000000  0.87575000  1.0
  Cu  Cu12  2  0.25000000  0.24997000  0.87575000  1.0
  Cu  Cu13  2  0.26295000  0.24645000  0.04304000  1.0
  Cu  Cu14  2  0.73126000  0.25076000  0.04405000  1.0
  Cu  Cu15  2  0.75000000  0.25003000  0.87575000  1.0
  Cu  Cu16  1  0.18528000  0.50000000  0.13564000  1.0
  Cu  Cu17  1  0.24464000  0.00000000  0.12092000  1.0
  Cu  Cu18  1  0.25000000  0.00000000  0.95858000  1.0
  Cu  Cu19  1  0.25000000  0.50000000  0.95858000  1.0
  Cu  Cu20  1  0.74228000  0.00000000  0.12182000  1.0
  Cu  Cu21  1  0.75000000  0.00000000  0.95858000  1.0
  Cu  Cu22  1  0.75000000  0.50000000  0.95858000  1.0
  Cu  Cu23  1  0.77078000  0.50000000  0.11992000  1.0
  C  C24  1  0.32786000  0.50000000  0.19657000  1.0
  O  O25  1  0.38383000  0.50000000  0.23843000  1.0
