# generated using pymatgen
data_Ta8Ga8Ni16C
_symmetry_space_group_name_H-M   'P 1'
_cell_length_a   8.46821000
_cell_length_b   5.98793000
_cell_length_c   26.35120000
_cell_angle_alpha   90.00000000
_cell_angle_beta   90.00000000
_cell_angle_gamma   90.00000000
_symmetry_Int_Tables_number   1
_chemical_formula_structural   Ta8Ga8Ni16C
_chemical_formula_sum   'Ta8 Ga8 Ni16 C1'
_cell_volume   1336.19158184
_cell_formula_units_Z   1
loop_
 _symmetry_equiv_pos_site_id
 _symmetry_equiv_pos_as_xyz
  1  'x, y, z'
loop_
 _atom_site_type_symbol
 _atom_site_label
 _atom_site_symmetry_multiplicity
 _atom_site_fract_x
 _atom_site_fract_y
 _atom_site_fract_z
 _atom_site_occupancy
  Ta  Ta0  1  0.75000000  0.00000000  0.12051000  1.0
  Ta  Ta1  1  0.00000000  0.50000000  0.04017000  1.0
  Ta  Ta2  1  0.50000000  0.50000000  0.04017000  1.0
  Ta  Ta3  1  0.25000000  0.00000000  0.12051000  1.0
  Ta  Ta4  1  0.25553000  0.99646000  0.95596000  1.0
  Ta  Ta5  1  0.50000000  0.45621000  0.88263000  1.0
  Ta  Ta6  1  0.00000000  0.51138000  0.88705000  1.0
  Ta  Ta7  1  0.74447000  0.99646000  0.95596000  1.0
  Ga  Ga8  1  0.50000000  0.00000000  0.04017000  1.0
  Ga  Ga9  1  0.75000000  0.50000000  0.12051000  1.0
  Ga  Ga10  1  0.00000000  1.00000000  0.04017000  1.0
  Ga  Ga11  1  0.25000000  0.50000000  0.12051000  1.0
  Ga  Ga12  1  0.00000000  0.90756000  0.84945000  1.0
  Ga  Ga13  1  0.24518000  0.49272000  0.96049000  1.0
  Ga  Ga14  1  0.50000000  0.99418000  0.87441000  1.0
  Ga  Ga15  1  0.75482000  0.49272000  0.96049000  1.0
  Ni  Ni16  1  0.75000000  0.25000000  0.04017000  1.0
  Ni  Ni17  1  0.25000000  0.75000000  0.04017000  1.0
  Ni  Ni18  1  0.75000000  0.75000000  0.04017000  1.0
  Ni  Ni19  1  0.25000000  0.25000000  0.04017000  1.0
  Ni  Ni20  1  0.50000000  0.75000000  0.12051000  1.0
  Ni  Ni21  1  0.00000000  0.25000000  0.12051000  1.0
  Ni  Ni22  1  0.50000000  0.25000000  0.12051000  1.0
  Ni  Ni23  1  0.00000000  0.75000000  0.12051000  1.0
  Ni  Ni24  1  0.23185000  0.21435000  0.87347000  1.0
  Ni  Ni25  1  0.73569000  0.72260000  0.88186000  1.0
  Ni  Ni26  1  0.26431000  0.72260000  0.88186000  1.0
  Ni  Ni27  1  0.76815000  0.21435000  0.87347000  1.0
  Ni  Ni28  1  0.00000000  0.77857000  0.96422000  1.0
  Ni  Ni29  1  0.50000000  0.25614000  0.96428000  1.0
  Ni  Ni30  1  0.00000000  0.22586000  0.96029000  1.0
  Ni  Ni31  1  0.50000000  0.73492000  0.95575000  1.0
  C  C32  1  0.00000000  0.22729000  0.84999000  1.0
