# generated using pymatgen
data_Ta8Ga8Ni16C
_symmetry_space_group_name_H-M   Pm
_cell_length_a   5.98793000
_cell_length_b   8.46821000
_cell_length_c   26.35120000
_cell_angle_alpha   90.00000000
_cell_angle_beta   90.00000000
_cell_angle_gamma   90.00000000
_symmetry_Int_Tables_number   6
_chemical_formula_structural   Ta8Ga8Ni16C
_chemical_formula_sum   'Ta8 Ga8 Ni16 C1'
_cell_volume   1336.19158184
_cell_formula_units_Z   1
loop_
 _symmetry_equiv_pos_site_id
 _symmetry_equiv_pos_as_xyz
  1  'x, y, z'
  2  'x, -y, z'
loop_
 _atom_site_type_symbol
 _atom_site_label
 _atom_site_symmetry_multiplicity
 _atom_site_fract_x
 _atom_site_fract_y
 _atom_site_fract_z
 _atom_site_occupancy
  Ta  Ta0  2  0.00000000  0.25000000  0.87949000  1.0
  Ta  Ta1  2  0.99646000  0.25553000  0.04404000  1.0
  Ta  Ta2  1  0.45621000  0.50000000  0.11737000  1.0
  Ta  Ta3  1  0.50000000  0.00000000  0.95983000  1.0
  Ta  Ta4  1  0.50000000  0.50000000  0.95983000  1.0
  Ta  Ta5  1  0.51138000  0.00000000  0.11295000  1.0
  Ga  Ga6  2  0.49272000  0.24518000  0.03951000  1.0
  Ga  Ga7  2  0.50000000  0.25000000  0.87949000  1.0
  Ga  Ga8  1  -0.00000000  0.00000000  0.95983000  1.0
  Ga  Ga9  1  0.00000000  0.50000000  0.95983000  1.0
  Ga  Ga10  1  0.90756000  0.00000000  0.15055000  1.0
  Ga  Ga11  1  0.99418000  0.50000000  0.12559000  1.0
  Ni  Ni12  2  0.21435000  0.23185000  0.12653000  1.0
  Ni  Ni13  2  0.25000000  0.25000000  0.95983000  1.0
  Ni  Ni14  2  0.72260000  0.26431000  0.11814000  1.0
  Ni  Ni15  2  0.75000000  0.25000000  0.95983000  1.0
  Ni  Ni16  1  0.22586000  0.00000000  0.03971000  1.0
  Ni  Ni17  1  0.25000000  0.00000000  0.87949000  1.0
  Ni  Ni18  1  0.25000000  0.50000000  0.87949000  1.0
  Ni  Ni19  1  0.25614000  0.50000000  0.03572000  1.0
  Ni  Ni20  1  0.73492000  0.50000000  0.04425000  1.0
  Ni  Ni21  1  0.75000000  0.00000000  0.87949000  1.0
  Ni  Ni22  1  0.75000000  0.50000000  0.87949000  1.0
  Ni  Ni23  1  0.77857000  0.00000000  0.03578000  1.0
  C  C24  1  0.22729000  0.00000000  0.15001000  1.0
