# generated using pymatgen
data_LiScInGe
_symmetry_space_group_name_H-M   'P 1'
_cell_length_a   8.12626000
_cell_length_b   6.08490000
_cell_length_c   24.54620000
_cell_angle_alpha   90.00000000
_cell_angle_beta   90.00000000
_cell_angle_gamma   90.00000000
_symmetry_Int_Tables_number   1
_chemical_formula_structural   LiScInGe
_chemical_formula_sum   'Li4 Sc4 In4 Ge4'
_cell_volume   1213.74772066
_cell_formula_units_Z   4
loop_
 _symmetry_equiv_pos_site_id
 _symmetry_equiv_pos_as_xyz
  1  'x, y, z'
loop_
 _atom_site_type_symbol
 _atom_site_label
 _atom_site_symmetry_multiplicity
 _atom_site_fract_x
 _atom_site_fract_y
 _atom_site_fract_z
 _atom_site_occupancy
  Li  Li0  1  0.50000000  0.23961000  0.04329000  1.0
  Li  Li1  1  0.50000000  0.81559000  0.90740000  1.0
  Li  Li2  1  0.00000000  0.23958000  0.04328000  1.0
  Li  Li3  1  0.00000000  0.81559000  0.90740000  1.0
  Sc  Sc4  1  0.50000000  0.75387000  0.03394000  1.0
  Sc  Sc5  1  0.50000000  0.31559000  0.90740000  1.0
  Sc  Sc6  1  0.00000000  0.75381000  0.03394000  1.0
  Sc  Sc7  1  0.00000000  0.31559000  0.90740000  1.0
  In  In8  1  0.75000000  0.47666000  0.10052000  1.0
  In  In9  1  0.74999000  0.04372000  0.96913000  1.0
  In  In10  1  0.25000000  0.47666000  0.10052000  1.0
  In  In11  1  0.25001000  0.04372000  0.96913000  1.0
  Ge  Ge12  1  0.75005000  0.99516000  0.08347000  1.0
  Ge  Ge13  1  0.74999000  0.54372000  0.96913000  1.0
  Ge  Ge14  1  0.24995000  0.99516000  0.08347000  1.0
  Ge  Ge15  1  0.25001000  0.54372000  0.96913000  1.0
