# generated using pymatgen
data_LiScInGe
_symmetry_space_group_name_H-M   Pm
_cell_length_a   6.08490000
_cell_length_b   8.12626000
_cell_length_c   24.54620000
_cell_angle_alpha   90.00000000
_cell_angle_beta   90.00000000
_cell_angle_gamma   90.00000000
_symmetry_Int_Tables_number   6
_chemical_formula_structural   LiScInGe
_chemical_formula_sum   'Li4 Sc4 In4 Ge4'
_cell_volume   1213.74772066
_cell_formula_units_Z   4
loop_
 _symmetry_equiv_pos_site_id
 _symmetry_equiv_pos_as_xyz
  1  'x, y, z'
  2  'x, -y, z'
  3  'x, y+1/2, z'
  4  'x, -y+1/2, z'
loop_
 _atom_site_type_symbol
 _atom_site_label
 _atom_site_symmetry_multiplicity
 _atom_site_fract_x
 _atom_site_fract_y
 _atom_site_fract_z
 _atom_site_occupancy
  Li  Li0  2  0.23958000  0.00000000  0.95672000  1.0
  Li  Li1  2  0.81559000  0.00000000  0.09260000  1.0
  Sc  Sc2  2  0.31559000  0.00000000  0.09260000  1.0
  Sc  Sc3  2  0.75381000  0.00000000  0.96606000  1.0
  In  In4  2  0.04372000  0.25001000  0.03087000  1.0
  In  In5  2  0.47666000  0.25000000  0.89948000  1.0
  Ge  Ge6  2  0.54372000  0.25001000  0.03087000  1.0
  Ge  Ge7  2  0.99516000  0.24995000  0.91653000  1.0
