# generated using pymatgen
data_YGaSnPd
_symmetry_space_group_name_H-M   Pm
_cell_length_a   6.26088000
_cell_length_b   4.27275000
_cell_length_c   24.69560000
_cell_angle_alpha   90.00000000
_cell_angle_beta   90.00000000
_cell_angle_gamma   90.00000000
_symmetry_Int_Tables_number   6
_chemical_formula_structural   YGaSnPd
_chemical_formula_sum   'Y2 Ga2 Sn2 Pd2'
_cell_volume   660.63631782
_cell_formula_units_Z   2
loop_
 _symmetry_equiv_pos_site_id
 _symmetry_equiv_pos_as_xyz
  1  'x, y, z'
  2  'x, -y, z'
loop_
 _atom_site_type_symbol
 _atom_site_label
 _atom_site_symmetry_multiplicity
 _atom_site_fract_x
 _atom_site_fract_y
 _atom_site_fract_z
 _atom_site_occupancy
  Y  Y0  1  0.24505000  0.50000000  0.09507000  1.0
  Y  Y1  1  0.74835000  0.50000000  0.96831000  1.0
  Ga  Ga2  1  0.00000000  0.00000000  0.90493000  1.0
  Ga  Ga3  1  0.49670000  0.00000000  0.03169000  1.0
  Sn  Sn4  1  0.24835000  0.50000000  0.96831000  1.0
  Sn  Sn5  1  0.74505000  0.50000000  0.09507000  1.0
  Pd  Pd6  1  0.50000000  0.00000000  0.90493000  1.0
  Pd  Pd7  1  0.99670000  0.00000000  0.03169000  1.0
