# generated using pymatgen
data_LiCaGePd
_symmetry_space_group_name_H-M   'P 1'
_cell_length_a   6.62107000
_cell_length_b   6.62107000
_cell_length_c   24.96580000
_cell_angle_alpha   90.00000000
_cell_angle_beta   90.00000000
_cell_angle_gamma   90.00000000
_symmetry_Int_Tables_number   1
_chemical_formula_structural   LiCaGePd
_chemical_formula_sum   'Li4 Ca4 Ge4 Pd4'
_cell_volume   1094.46491960
_cell_formula_units_Z   4
loop_
 _symmetry_equiv_pos_site_id
 _symmetry_equiv_pos_as_xyz
  1  'x, y, z'
loop_
 _atom_site_type_symbol
 _atom_site_label
 _atom_site_symmetry_multiplicity
 _atom_site_fract_x
 _atom_site_fract_y
 _atom_site_fract_z
 _atom_site_occupancy
  Li  Li0  1  0.75002000  0.25003000  0.03521000  1.0
  Li  Li1  1  0.75000000  0.75000000  0.90055000  1.0
  Li  Li2  1  0.25000000  0.25000000  0.90055000  1.0
  Li  Li3  1  0.25014000  0.74989000  0.03521000  1.0
  Ca  Ca4  1  0.00002000  0.99994000  0.11208000  1.0
  Ca  Ca5  1  0.00000000  0.50000000  0.96685000  1.0
  Ca  Ca6  1  0.50000000  0.00000000  0.96685000  1.0
  Ca  Ca7  1  0.50004000  0.50000000  0.11214000  1.0
  Ge  Ge8  1  0.99993000  0.50009000  0.09281000  1.0
  Ge  Ge9  1  0.00000000  0.00000000  0.96685000  1.0
  Ge  Ge10  1  0.50000000  0.50000000  0.96685000  1.0
  Ge  Ge11  1  0.50001000  0.00002000  0.09280000  1.0
  Pd  Pd12  1  0.24988000  0.25053000  0.03623000  1.0
  Pd  Pd13  1  0.25000000  0.75000000  0.90055000  1.0
  Pd  Pd14  1  0.75000000  0.25000000  0.90055000  1.0
  Pd  Pd15  1  0.74974000  0.74958000  0.03617000  1.0
