data_image0
_chemical_formula_structural       Li8Ga4Au4C
_chemical_formula_sum              "Li8 Ga4 Au4 C1"
_cell_length_a       6.29417
_cell_length_b       6.29417
_cell_length_c       24.7206
_cell_angle_alpha    90
_cell_angle_beta     90
_cell_angle_gamma    90

_space_group_name_H-M_alt    "P 1"
_space_group_IT_number       1

loop_
  _space_group_symop_operation_xyz
  'x, y, z'

loop_
  _atom_site_type_symbol
  _atom_site_label
  _atom_site_symmetry_multiplicity
  _atom_site_fract_x
  _atom_site_fract_y
  _atom_site_fract_z
  _atom_site_occupancy
  Li  Li1       1.0  0.00000  0.00000  0.96817  1.0000
  Li  Li2       1.0  0.49732  0.00290  0.11568  1.0000
  Li  Li3       1.0  0.00290  0.49732  0.11569  1.0000
  Li  Li4       1.0  0.50000  0.50000  0.96817  1.0000
  Li  Li5       1.0  0.25000  0.25000  0.90452  1.0000
  Li  Li6       1.0  0.25098  0.75116  0.04074  1.0000
  Li  Li7       1.0  0.75000  0.75000  0.90452  1.0000
  Li  Li8       1.0  0.75116  0.25099  0.04074  1.0000
  Ga  Ga1       1.0  0.02185  0.02185  0.11226  1.0000
  Ga  Ga2       1.0  0.47359  0.47359  0.11227  1.0000
  Ga  Ga3       1.0  0.50000  0.00000  0.96817  1.0000
  Ga  Ga4       1.0  0.00000  0.50000  0.96817  1.0000
  Au  Au1       1.0  0.24940  0.24940  0.02147  1.0000
  Au  Au2       1.0  0.25000  0.75000  0.90452  1.0000
  Au  Au3       1.0  0.75095  0.75095  0.03506  1.0000
  Au  Au4       1.0  0.75000  0.25000  0.90452  1.0000
  C   C1        1.0  0.24757  0.24757  0.11141  1.0000
