# generated using pymatgen
data_Li8Ag16Ge8C
_symmetry_space_group_name_H-M   'P 1'
_cell_length_a   6.51415000
_cell_length_b   9.21240000
_cell_length_c   26.90930000
_cell_angle_alpha   90.00000000
_cell_angle_beta   90.00000000
_cell_angle_gamma   90.00000000
_symmetry_Int_Tables_number   1
_chemical_formula_structural   Li8Ag16Ge8C
_chemical_formula_sum   'Li8 Ag16 Ge8 C1'
_cell_volume   1614.85280376
_cell_formula_units_Z   1
loop_
 _symmetry_equiv_pos_site_id
 _symmetry_equiv_pos_as_xyz
  1  'x, y, z'
loop_
 _atom_site_type_symbol
 _atom_site_label
 _atom_site_symmetry_multiplicity
 _atom_site_fract_x
 _atom_site_fract_y
 _atom_site_fract_z
 _atom_site_occupancy
  Li  Li0  1  0.00000000  0.00000000  0.87162000  1.0
  Li  Li1  1  0.50000000  0.25000000  0.95721000  1.0
  Li  Li2  1  0.50000000  0.75000000  0.95721000  1.0
  Li  Li3  1  0.00000000  0.50000000  0.87162000  1.0
  Li  Li4  1  0.00000000  0.50000000  0.04351000  1.0
  Li  Li5  1  0.50000000  0.76800000  0.13131000  1.0
  Li  Li6  1  0.50000000  0.23200000  0.13131000  1.0
  Li  Li7  1  0.00000000  0.00000000  0.04710000  1.0
  Ag  Ag8  1  0.25000000  0.00000000  0.95721000  1.0
  Ag  Ag9  1  0.75000000  0.50000000  0.95721000  1.0
  Ag  Ag10  1  0.75000000  0.00000000  0.95721000  1.0
  Ag  Ag11  1  0.25000000  0.50000000  0.95721000  1.0
  Ag  Ag12  1  0.75000000  0.75000000  0.87162000  1.0
  Ag  Ag13  1  0.25000000  0.25000000  0.87162000  1.0
  Ag  Ag14  1  0.25000000  0.75000000  0.87162000  1.0
  Ag  Ag15  1  0.75000000  0.25000000  0.87162000  1.0
  Ag  Ag16  1  0.25423000  0.50000000  0.12861000  1.0
  Ag  Ag17  1  0.79417000  0.00000000  0.14115000  1.0
  Ag  Ag18  1  0.74577000  0.50000000  0.12861000  1.0
  Ag  Ag19  1  0.20583000  0.00000000  0.14115000  1.0
  Ag  Ag20  1  0.76557000  0.25236000  0.04668000  1.0
  Ag  Ag21  1  0.23443000  0.74764000  0.04668000  1.0
  Ag  Ag22  1  0.23443000  0.25236000  0.04668000  1.0
  Ag  Ag23  1  0.76557000  0.74764000  0.04668000  1.0
  Ge  Ge24  1  0.00000000  0.75000000  0.95721000  1.0
  Ge  Ge25  1  0.50000000  0.00000000  0.87162000  1.0
  Ge  Ge26  1  0.00000000  0.25000000  0.95721000  1.0
  Ge  Ge27  1  0.50000000  0.50000000  0.87162000  1.0
  Ge  Ge28  1  0.00000000  0.26050000  0.13551000  1.0
  Ge  Ge29  1  0.50000000  0.50000000  0.04427000  1.0
  Ge  Ge30  1  0.00000000  0.73950000  0.13551000  1.0
  Ge  Ge31  1  0.50000000  0.00000000  0.03811000  1.0
  C  C32  1  0.50000000  0.00000000  0.10887000  1.0
