# generated using pymatgen
data_Li4Sc4In4Ga4C
_symmetry_space_group_name_H-M   'P 1'
_cell_length_a   8.86716000
_cell_length_b   5.87074000
_cell_length_c   24.40240000
_cell_angle_alpha   90.00000000
_cell_angle_beta   90.00000000
_cell_angle_gamma   90.00000000
_symmetry_Int_Tables_number   1
_chemical_formula_structural   Li4Sc4In4Ga4C
_chemical_formula_sum   'Li4 Sc4 In4 Ga4 C1'
_cell_volume   1270.31063422
_cell_formula_units_Z   1
loop_
 _symmetry_equiv_pos_site_id
 _symmetry_equiv_pos_as_xyz
  1  'x, y, z'
loop_
 _atom_site_type_symbol
 _atom_site_label
 _atom_site_symmetry_multiplicity
 _atom_site_fract_x
 _atom_site_fract_y
 _atom_site_fract_z
 _atom_site_occupancy
  Li  Li0  1  0.24999000  0.74572000  0.03007000  1.0
  Li  Li1  1  0.16692000  0.28984000  0.88421000  1.0
  Li  Li2  1  0.75001000  0.74572000  0.03007000  1.0
  Li  Li3  1  0.83308000  0.28984000  0.88421000  1.0
  Sc  Sc4  1  0.00000000  0.50000000  0.09020000  1.0
  Sc  Sc5  1  0.00000000  0.02162000  0.97096000  1.0
  Sc  Sc6  1  0.50000000  0.50000000  0.09020000  1.0
  Sc  Sc7  1  0.50000000  0.97574000  0.95910000  1.0
  In  In8  1  0.24999000  0.24572000  0.03007000  1.0
  In  In9  1  0.20290000  0.79056000  0.88879000  1.0
  In  In10  1  0.75001000  0.24572000  0.03007000  1.0
  In  In11  1  0.79710000  0.79056000  0.88879000  1.0
  Ga  Ga12  1  0.00000000  0.00000000  0.09020000  1.0
  Ga  Ga13  1  0.00000000  0.52951000  0.97372000  1.0
  Ga  Ga14  1  0.50000000  0.00000000  0.09020000  1.0
  Ga  Ga15  1  0.50000000  0.46608000  0.96618000  1.0
  C  C16  1  0.00000000  0.03871000  0.88631000  1.0
