# generated using pymatgen
data_Li4Sc4In4Ga4C
_symmetry_space_group_name_H-M   Pm
_cell_length_a   5.87074000
_cell_length_b   8.86716000
_cell_length_c   24.40240000
_cell_angle_alpha   90.00000000
_cell_angle_beta   90.00000000
_cell_angle_gamma   90.00000000
_symmetry_Int_Tables_number   6
_chemical_formula_structural   Li4Sc4In4Ga4C
_chemical_formula_sum   'Li4 Sc4 In4 Ga4 C1'
_cell_volume   1270.31063422
_cell_formula_units_Z   1
loop_
 _symmetry_equiv_pos_site_id
 _symmetry_equiv_pos_as_xyz
  1  'x, y, z'
  2  'x, -y, z'
loop_
 _atom_site_type_symbol
 _atom_site_label
 _atom_site_symmetry_multiplicity
 _atom_site_fract_x
 _atom_site_fract_y
 _atom_site_fract_z
 _atom_site_occupancy
  Li  Li0  2  0.28984000  0.16692000  0.11579000  1.0
  Li  Li1  2  0.74572000  0.24999000  0.96993000  1.0
  Sc  Sc2  1  0.02162000  0.00000000  0.02904000  1.0
  Sc  Sc3  1  0.50000000  0.00000000  0.90980000  1.0
  Sc  Sc4  1  0.50000000  0.50000000  0.90980000  1.0
  Sc  Sc5  1  0.97574000  0.50000000  0.04090000  1.0
  In  In6  2  0.24572000  0.24999000  0.96993000  1.0
  In  In7  2  0.79056000  0.20290000  0.11121000  1.0
  Ga  Ga8  1  0.00000000  0.00000000  0.90980000  1.0
  Ga  Ga9  1  0.00000000  0.50000000  0.90980000  1.0
  Ga  Ga10  1  0.46608000  0.50000000  0.03382000  1.0
  Ga  Ga11  1  0.52951000  0.00000000  0.02628000  1.0
  C  C12  1  0.03871000  0.00000000  0.11369000  1.0
