# generated using pymatgen
data_Li16Cu8Sn8CO
_symmetry_space_group_name_H-M   Pm
_cell_length_a   6.34973000
_cell_length_b   8.97987000
_cell_length_c   26.73490000
_cell_angle_alpha   90.00000000
_cell_angle_beta   90.00000000
_cell_angle_gamma   90.00000000
_symmetry_Int_Tables_number   6
_chemical_formula_structural   Li16Cu8Sn8CO
_chemical_formula_sum   'Li16 Cu8 Sn8 C1 O1'
_cell_volume   1524.41731254
_cell_formula_units_Z   1
loop_
 _symmetry_equiv_pos_site_id
 _symmetry_equiv_pos_as_xyz
  1  'x, y, z'
  2  'x, -y, z'
loop_
 _atom_site_type_symbol
 _atom_site_label
 _atom_site_symmetry_multiplicity
 _atom_site_fract_x
 _atom_site_fract_y
 _atom_site_fract_z
 _atom_site_occupancy
  Li  Li0  2  0.25000000  0.24999000  0.95801000  1.0
  Li  Li1  2  0.26347000  0.25066000  0.13742000  1.0
  Li  Li2  2  0.48690000  0.24934000  0.03938000  1.0
  Li  Li3  2  0.50000000  0.24999000  0.87404000  1.0
  Li  Li4  1  0.00000000  0.00000000  0.95801000  1.0
  Li  Li5  1  0.00000000  0.50000000  0.95801000  1.0
  Li  Li6  1  0.74241000  0.50000000  0.04321000  1.0
  Li  Li7  1  0.74915000  0.00000000  0.04216000  1.0
  Li  Li8  1  0.75000000  0.00000000  0.87404000  1.0
  Li  Li9  1  0.75000000  0.50000000  0.87404000  1.0
  Li  Li10  1  0.98151000  0.50000000  0.12494000  1.0
  Li  Li11  1  0.98645000  0.00000000  0.12544000  1.0
  Cu  Cu12  2  0.71752000  0.25041000  0.11601000  1.0
  Cu  Cu13  2  0.75000000  0.25001000  0.95801000  1.0
  Cu  Cu14  1  0.25000000  0.00000000  0.87404000  1.0
  Cu  Cu15  1  0.25000000  0.50000000  0.87404000  1.0
  Cu  Cu16  1  0.25395000  0.00000000  0.04257000  1.0
  Cu  Cu17  1  0.25799000  0.50000000  0.04328000  1.0
  Sn  Sn18  2  0.00000000  0.24999000  0.87404000  1.0
  Sn  Sn19  2  0.01071000  0.25107000  0.04633000  1.0
  Sn  Sn20  1  0.49847000  0.00000000  0.12818000  1.0
  Sn  Sn21  1  0.50000000  0.00000000  0.95801000  1.0
  Sn  Sn22  1  0.50000000  0.50000000  0.95801000  1.0
  Sn  Sn23  1  0.50151000  0.50000000  0.13056000  1.0
  C  C24  1  0.63154000  0.00000000  0.26188000  1.0
  O  O25  1  0.47005000  0.00000000  0.28027000  1.0
