# generated using pymatgen
data_Li8Mg8In8Sn8C
_symmetry_space_group_name_H-M   Pm
_cell_length_a   7.01918000
_cell_length_b   9.92662000
_cell_length_c   27.44500000
_cell_angle_alpha   90.00000000
_cell_angle_beta   90.00000000
_cell_angle_gamma   90.00000000
_symmetry_Int_Tables_number   6
_chemical_formula_structural   Li8Mg8In8Sn8C
_chemical_formula_sum   'Li8 Mg8 In8 Sn8 C1'
_cell_volume   1912.27792543
_cell_formula_units_Z   1
loop_
 _symmetry_equiv_pos_site_id
 _symmetry_equiv_pos_as_xyz
  1  'x, y, z'
  2  'x, -y, z'
loop_
 _atom_site_type_symbol
 _atom_site_label
 _atom_site_symmetry_multiplicity
 _atom_site_fract_x
 _atom_site_fract_y
 _atom_site_fract_z
 _atom_site_occupancy
  Li  Li0  2  0.25000000  0.25000000  0.86437000  1.0
  Li  Li1  2  0.25894000  0.24884000  0.04732000  1.0
  Li  Li2  1  0.73076000  0.50000000  0.13930000  1.0
  Li  Li3  1  0.75000000  0.00000000  0.95479000  1.0
  Li  Li4  1  0.75000000  0.50000000  0.95479000  1.0
  Li  Li5  1  0.78990000  0.00000000  0.14316000  1.0
  Mg  Mg6  2  0.74306000  0.25443000  0.04871000  1.0
  Mg  Mg7  2  0.75000000  0.25000000  0.86437000  1.0
  Mg  Mg8  1  0.19713000  0.00000000  0.14987000  1.0
  Mg  Mg9  1  0.25000000  0.00000000  0.95479000  1.0
  Mg  Mg10  1  0.25000000  0.50000000  0.95479000  1.0
  Mg  Mg11  1  0.26830000  0.50000000  0.14504000  1.0
  In  In12  2  0.50000000  0.25000000  0.95479000  1.0
  In  In13  2  0.52914000  0.22925000  0.16250000  1.0
  In  In14  1  0.00000000  0.00000000  0.86437000  1.0
  In  In15  1  0.00000000  0.50000000  0.86437000  1.0
  In  In16  1  0.00159000  0.00000000  0.04783000  1.0
  In  In17  1  0.01156000  0.50000000  0.05055000  1.0
  Sn  Sn18  2  0.00000000  0.25000000  0.95479000  1.0
  Sn  Sn19  2  0.99561000  0.26295000  0.13798000  1.0
  Sn  Sn20  1  0.49074000  0.50000000  0.04787000  1.0
  Sn  Sn21  1  0.50000000  0.00000000  0.86437000  1.0
  Sn  Sn22  1  0.50000000  0.50000000  0.86437000  1.0
  Sn  Sn23  1  0.50268000  0.00000000  0.06152000  1.0
  C  C24  1  0.49791000  0.00000000  0.14524000  1.0
