# generated using pymatgen
data_Ta8Ga8Co16CO
_symmetry_space_group_name_H-M   Pm
_cell_length_a   5.95946000
_cell_length_b   8.42794000
_cell_length_c   26.32100000
_cell_angle_alpha   90.00000000
_cell_angle_beta   90.00000000
_cell_angle_gamma   90.00000000
_symmetry_Int_Tables_number   6
_chemical_formula_structural   Ta8Ga8Co16CO
_chemical_formula_sum   'Ta8 Ga8 Co16 C1 O1'
_cell_volume   1321.99779091
_cell_formula_units_Z   1
loop_
 _symmetry_equiv_pos_site_id
 _symmetry_equiv_pos_as_xyz
  1  'x, y, z'
  2  'x, -y, z'
loop_
 _atom_site_type_symbol
 _atom_site_label
 _atom_site_symmetry_multiplicity
 _atom_site_fract_x
 _atom_site_fract_y
 _atom_site_fract_z
 _atom_site_occupancy
  Ta  Ta0  2  0.50000000  0.25000000  0.95998000  1.0
  Ta  Ta1  2  0.50238000  0.25148000  0.11955000  1.0
  Ta  Ta2  1  0.00000000  0.00000000  0.87993000  1.0
  Ta  Ta3  1  0.00000000  0.50000000  0.87993000  1.0
  Ta  Ta4  1  0.99654000  0.00000000  0.04105000  1.0
  Ta  Ta5  1  0.99978000  0.50000000  0.04147000  1.0
  Ga  Ga6  2  0.00000000  0.25000000  0.95998000  1.0
  Ga  Ga7  2  0.99738000  0.25152000  0.12116000  1.0
  Ga  Ga8  1  0.50000000  0.00000000  0.87993000  1.0
  Ga  Ga9  1  0.50000000  0.50000000  0.87993000  1.0
  Ga  Ga10  1  0.50016000  0.50000000  0.04076000  1.0
  Ga  Ga11  1  0.50070000  0.00000000  0.04055000  1.0
  Co  Co12  2  0.25000000  0.25000000  0.87993000  1.0
  Co  Co13  2  0.25270000  0.24880000  0.04052000  1.0
  Co  Co14  2  0.74662000  0.24980000  0.04051000  1.0
  Co  Co15  2  0.75000000  0.25000000  0.87993000  1.0
  Co  Co16  1  0.24949000  0.50000000  0.11807000  1.0
  Co  Co17  1  0.25000000  0.00000000  0.95998000  1.0
  Co  Co18  1  0.25000000  0.50000000  0.95998000  1.0
  Co  Co19  1  0.25195000  0.00000000  0.12474000  1.0
  Co  Co20  1  0.74922000  0.00000000  0.11739000  1.0
  Co  Co21  1  0.75000000  0.00000000  0.95998000  1.0
  Co  Co22  1  0.75000000  0.50000000  0.95998000  1.0
  Co  Co23  1  0.75018000  0.50000000  0.11843000  1.0
  C  C24  1  0.25483000  0.00000000  0.18974000  1.0
  O  O25  1  0.24846000  0.00000000  0.23440000  1.0
