# generated using pymatgen
data_Ti16Pd16CO
_symmetry_space_group_name_H-M   'P 1'
_cell_length_a   9.00957000
_cell_length_b   6.37073000
_cell_length_c   26.75720000
_cell_angle_alpha   90.00000000
_cell_angle_beta   90.00000000
_cell_angle_gamma   90.00000000
_symmetry_Int_Tables_number   1
_chemical_formula_structural   Ti16Pd16CO
_chemical_formula_sum   'Ti16 Pd16 C1 O1'
_cell_volume   1535.79740073
_cell_formula_units_Z   1
loop_
 _symmetry_equiv_pos_site_id
 _symmetry_equiv_pos_as_xyz
  1  'x, y, z'
loop_
 _atom_site_type_symbol
 _atom_site_label
 _atom_site_symmetry_multiplicity
 _atom_site_fract_x
 _atom_site_fract_y
 _atom_site_fract_z
 _atom_site_occupancy
  Ti  Ti0  1  0.00000000  0.25000000  0.12627000  1.0
  Ti  Ti1  1  0.75000000  0.25000000  0.04209000  1.0
  Ti  Ti2  1  0.00000000  0.25654000  0.95826000  1.0
  Ti  Ti3  1  0.74678000  0.25888000  0.87445000  1.0
  Ti  Ti4  1  0.50000000  0.25000000  0.12627000  1.0
  Ti  Ti5  1  0.25000000  0.25000000  0.04209000  1.0
  Ti  Ti6  1  0.50000000  0.23761000  0.95980000  1.0
  Ti  Ti7  1  0.25322000  0.25888000  0.87445000  1.0
  Ti  Ti8  1  0.00000000  0.75000000  0.12627000  1.0
  Ti  Ti9  1  0.75000000  0.75000000  0.04209000  1.0
  Ti  Ti10  1  0.00000000  0.74338000  0.95826000  1.0
  Ti  Ti11  1  0.74677000  0.74108000  0.87441000  1.0
  Ti  Ti12  1  0.50000000  0.75000000  0.12627000  1.0
  Ti  Ti13  1  0.25000000  0.75000000  0.04209000  1.0
  Ti  Ti14  1  0.50000000  0.76245000  0.95980000  1.0
  Ti  Ti15  1  0.25323000  0.74108000  0.87441000  1.0
  Pd  Pd16  1  0.75000000  0.00000000  0.12627000  1.0
  Pd  Pd17  1  0.00000000  0.00000000  0.04209000  1.0
  Pd  Pd18  1  0.77042000  0.99985000  0.95144000  1.0
  Pd  Pd19  1  0.00000000  0.99999000  0.86628000  1.0
  Pd  Pd20  1  0.25000000  0.00000000  0.12627000  1.0
  Pd  Pd21  1  0.50000000  0.00000000  0.04209000  1.0
  Pd  Pd22  1  0.22958000  0.99985000  0.95144000  1.0
  Pd  Pd23  1  0.50000000  0.00000000  0.87771000  1.0
  Pd  Pd24  1  0.75000000  0.50000000  0.12627000  1.0
  Pd  Pd25  1  0.00000000  0.50000000  0.04209000  1.0
  Pd  Pd26  1  0.73427000  0.50012000  0.95878000  1.0
  Pd  Pd27  1  0.00000000  0.49999000  0.87775000  1.0
  Pd  Pd28  1  0.25000000  0.50000000  0.12627000  1.0
  Pd  Pd29  1  0.50000000  0.50000000  0.04209000  1.0
  Pd  Pd30  1  0.26573000  0.50012000  0.95878000  1.0
  Pd  Pd31  1  0.50000000  0.50001000  0.88007000  1.0
  C  C32  1  0.00000000  0.99999000  0.79375000  1.0
  O  O33  1  0.00000000  0.00001000  0.75054000  1.0
