# generated using pymatgen
data_Ti16Pd16CO
_symmetry_space_group_name_H-M   Pm
_cell_length_a   6.37073000
_cell_length_b   9.00957000
_cell_length_c   26.75720000
_cell_angle_alpha   90.00000000
_cell_angle_beta   90.00000000
_cell_angle_gamma   90.00000000
_symmetry_Int_Tables_number   6
_chemical_formula_structural   Ti16Pd16CO
_chemical_formula_sum   'Ti16 Pd16 C1 O1'
_cell_volume   1535.79740073
_cell_formula_units_Z   1
loop_
 _symmetry_equiv_pos_site_id
 _symmetry_equiv_pos_as_xyz
  1  'x, y, z'
  2  'x, -y, z'
loop_
 _atom_site_type_symbol
 _atom_site_label
 _atom_site_symmetry_multiplicity
 _atom_site_fract_x
 _atom_site_fract_y
 _atom_site_fract_z
 _atom_site_occupancy
  Ti  Ti0  2  0.25000000  0.25000000  0.95791000  1.0
  Ti  Ti1  2  0.25888000  0.25322000  0.12555000  1.0
  Ti  Ti2  2  0.74108000  0.25323000  0.12559000  1.0
  Ti  Ti3  2  0.75000000  0.25000000  0.95791000  1.0
  Ti  Ti4  1  0.23761000  0.50000000  0.04020000  1.0
  Ti  Ti5  1  0.25000000  0.00000000  0.87373000  1.0
  Ti  Ti6  1  0.25000000  0.50000000  0.87373000  1.0
  Ti  Ti7  1  0.25654000  0.00000000  0.04174000  1.0
  Ti  Ti8  1  0.74338000  0.00000000  0.04174000  1.0
  Ti  Ti9  1  0.75000000  0.00000000  0.87373000  1.0
  Ti  Ti10  1  0.75000000  0.50000000  0.87373000  1.0
  Ti  Ti11  1  0.76245000  0.50000000  0.04020000  1.0
  Pd  Pd12  2  0.00000000  0.25000000  0.87373000  1.0
  Pd  Pd13  2  0.50000000  0.25000000  0.87373000  1.0
  Pd  Pd14  2  0.50012000  0.26573000  0.04122000  1.0
  Pd  Pd15  2  0.99985000  0.22958000  0.04856000  1.0
  Pd  Pd16  1  0.00000000  0.00000000  0.95791000  1.0
  Pd  Pd17  1  0.00000000  0.50000000  0.12229000  1.0
  Pd  Pd18  1  0.00000000  0.50000000  0.95791000  1.0
  Pd  Pd19  1  0.49999000  0.00000000  0.12225000  1.0
  Pd  Pd20  1  0.50000000  0.00000000  0.95791000  1.0
  Pd  Pd21  1  0.50000000  0.50000000  0.95791000  1.0
  Pd  Pd22  1  0.50001000  0.50000000  0.11993000  1.0
  Pd  Pd23  1  0.99999000  0.00000000  0.13372000  1.0
  C  C24  1  0.99999000  0.00000000  0.20625000  1.0
  O  O25  1  0.00001000  0.00000000  0.24946000  1.0
