# generated using pymatgen
data_LiMgAlPd
_symmetry_space_group_name_H-M   Pm
_cell_length_a   6.28130000
_cell_length_b   4.44155000
_cell_length_c   26.66230000
_cell_angle_alpha   90.00000000
_cell_angle_beta   90.00000000
_cell_angle_gamma   90.00000000
_symmetry_Int_Tables_number   6
_chemical_formula_structural   LiMgAlPd
_chemical_formula_sum   'Li4 Mg4 Al4 Pd4'
_cell_volume   743.84372271
_cell_formula_units_Z   4
loop_
 _symmetry_equiv_pos_site_id
 _symmetry_equiv_pos_as_xyz
  1  'x, y, z'
  2  'x, -y, z'
loop_
 _atom_site_type_symbol
 _atom_site_label
 _atom_site_symmetry_multiplicity
 _atom_site_fract_x
 _atom_site_fract_y
 _atom_site_fract_z
 _atom_site_occupancy
  Li  Li0  1  0.24545000  0.50000000  0.95993000  1.0
  Li  Li1  1  0.25000000  0.50000000  0.12494000  1.0
  Li  Li2  1  0.72637000  0.00000000  0.86586000  1.0
  Li  Li3  1  0.75000000  0.00000000  0.04165000  1.0
  Mg  Mg4  1  0.00000000  0.50000000  0.04165000  1.0
  Mg  Mg5  1  0.01104500  0.50000000  0.87102000  1.0
  Mg  Mg6  1  0.50000000  0.00000000  0.12494000  1.0
  Mg  Mg7  1  0.50732000  0.00000000  0.96002500  1.0
  Al  Al8  1  0.00000000  0.00000000  0.12494000  1.0
  Al  Al9  1  0.48285500  0.50000000  0.87756000  1.0
  Al  Al10  1  0.50000000  0.50000000  0.04165000  1.0
  Al  Al11  1  0.99679000  0.00000000  0.95600000  1.0
  Pd  Pd12  1  0.25000000  0.00000000  0.04165000  1.0
  Pd  Pd13  1  0.26287500  0.00000000  0.88114500  1.0
  Pd  Pd14  1  0.75000000  0.50000000  0.12494000  1.0
  Pd  Pd15  1  0.75513500  0.50000000  0.95743000  1.0
