# generated using pymatgen
data_Li4Y4Sn4Pb4C
_symmetry_space_group_name_H-M   'P 1'
_cell_length_a   6.55220000
_cell_length_b   9.36828000
_cell_length_c   24.89710000
_cell_angle_alpha   90.00000000
_cell_angle_beta   90.00000000
_cell_angle_gamma   90.00000000
_symmetry_Int_Tables_number   1
_chemical_formula_structural   Li4Y4Sn4Pb4C
_chemical_formula_sum   'Li4 Y4 Sn4 Pb4 C1'
_cell_volume   1528.25481073
_cell_formula_units_Z   1
loop_
 _symmetry_equiv_pos_site_id
 _symmetry_equiv_pos_as_xyz
  1  'x, y, z'
loop_
 _atom_site_type_symbol
 _atom_site_label
 _atom_site_symmetry_multiplicity
 _atom_site_fract_x
 _atom_site_fract_y
 _atom_site_fract_z
 _atom_site_occupancy
  Li  Li0  1  0.04923000  0.99582000  0.10622000  1.0
  Li  Li1  1  0.45833000  0.00000000  0.96722000  1.0
  Li  Li2  1  0.04929000  0.50416000  0.10621000  1.0
  Li  Li3  1  0.45833000  0.50000000  0.96722000  1.0
  Y  Y4  1  0.78152000  0.24996000  0.03151000  1.0
  Y  Y5  1  0.18749000  0.25000000  0.90165000  1.0
  Y  Y6  1  0.72719000  0.74999000  0.03821000  1.0
  Y  Y7  1  0.18749000  0.75000000  0.90165000  1.0
  Sn  Sn8  1  0.54675000  0.02447000  0.11522000  1.0
  Sn  Sn9  1  0.95833000  0.00000000  0.96722000  1.0
  Sn  Sn10  1  0.54687000  0.47558000  0.11519000  1.0
  Sn  Sn11  1  0.95833000  0.50000000  0.96722000  1.0
  Pb  Pb12  1  0.26591000  0.24996000  0.04139000  1.0
  Pb  Pb13  1  0.68749000  0.25000000  0.90165000  1.0
  Pb  Pb14  1  0.23487000  0.75000000  0.04121000  1.0
  Pb  Pb15  1  0.68749000  0.75000000  0.90165000  1.0
  C  C16  1  0.57289000  0.25004000  0.10368000  1.0
