# generated using pymatgen
data_Li4Al4Ge4Pd4CO
_symmetry_space_group_name_H-M   Pm
_cell_length_a   5.49423000
_cell_length_b   8.01128000
_cell_length_c   24.10550000
_cell_angle_alpha   90.00000000
_cell_angle_beta   90.00000000
_cell_angle_gamma   90.00000000
_symmetry_Int_Tables_number   6
_chemical_formula_structural   Li4Al4Ge4Pd4CO
_chemical_formula_sum   'Li4 Al4 Ge4 Pd4 C1 O1'
_cell_volume   1061.02322642
_cell_formula_units_Z   1
loop_
 _symmetry_equiv_pos_site_id
 _symmetry_equiv_pos_as_xyz
  1  'x, y, z'
  2  'x, -y, z'
loop_
 _atom_site_type_symbol
 _atom_site_label
 _atom_site_symmetry_multiplicity
 _atom_site_fract_x
 _atom_site_fract_y
 _atom_site_fract_z
 _atom_site_occupancy
  Li  Li0  1  0.18141000  0.50000000  0.08745000  1.0
  Li  Li1  1  0.18533000  0.00000000  0.09187000  1.0
  Li  Li2  1  0.72857000  0.00000000  0.97161000  1.0
  Li  Li3  1  0.72857000  0.50000000  0.97161000  1.0
  Al  Al4  2  0.00000000  0.25000000  0.91484000  1.0
  Al  Al5  2  0.45877000  0.24528000  0.02808000  1.0
  Ge  Ge6  2  0.50000000  0.25000000  0.91484000  1.0
  Ge  Ge7  2  0.96577000  0.24564000  0.03062000  1.0
  Pd  Pd8  1  0.22857000  0.00000000  0.97161000  1.0
  Pd  Pd9  1  0.22857000  0.50000000  0.97161000  1.0
  Pd  Pd10  1  0.66812000  0.50000000  0.07080000  1.0
  Pd  Pd11  1  0.67918000  0.00000000  0.08290000  1.0
  C  C12  1  0.68152000  0.00000000  0.16499000  1.0
  O  O13  1  0.68070000  0.00000000  0.21289000  1.0
