# generated using pymatgen
data_K24Bi8CO
_symmetry_space_group_name_H-M   'P 1'
_cell_length_a   12.50030000
_cell_length_b   8.83903000
_cell_length_c   29.37520000
_cell_angle_alpha   90.00000000
_cell_angle_beta   90.00000000
_cell_angle_gamma   90.00000000
_symmetry_Int_Tables_number   1
_chemical_formula_structural   K24Bi8CO
_chemical_formula_sum   'K24 Bi8 C1 O1'
_cell_volume   3245.68132018
_cell_formula_units_Z   1
loop_
 _symmetry_equiv_pos_site_id
 _symmetry_equiv_pos_as_xyz
  1  'x, y, z'
loop_
 _atom_site_type_symbol
 _atom_site_label
 _atom_site_symmetry_multiplicity
 _atom_site_fract_x
 _atom_site_fract_y
 _atom_site_fract_z
 _atom_site_occupancy
  K  K0  1  0.00000000  0.74997000  0.05319000  1.0
  K  K1  1  0.50000000  0.24997000  0.05319000  1.0
  K  K2  1  0.00000000  0.25003000  0.05319000  1.0
  K  K3  1  0.50000000  0.75003000  0.05319000  1.0
  K  K4  1  0.75000000  0.24997000  0.15958000  1.0
  K  K5  1  0.25000000  0.74997000  0.15958000  1.0
  K  K6  1  0.75000000  0.75003000  0.15958000  1.0
  K  K7  1  0.25000000  0.25003000  0.15958000  1.0
  K  K8  1  0.75000000  0.00000000  0.05319000  1.0
  K  K9  1  0.00000000  0.50000000  0.15958000  1.0
  K  K10  1  0.25000000  0.00000000  0.05319000  1.0
  K  K11  1  0.50000000  0.50000000  0.15958000  1.0
  K  K12  1  0.49735000  0.72107000  0.82477000  1.0
  K  K13  1  0.00265000  0.27887000  0.82476000  1.0
  K  K14  1  0.49735000  0.27893000  0.82477000  1.0
  K  K15  1  0.00265000  0.72113000  0.82476000  1.0
  K  K16  1  0.25000000  0.25832000  0.95027000  1.0
  K  K17  1  0.75000000  0.74715000  0.94893000  1.0
  K  K18  1  0.25000000  0.74168000  0.95027000  1.0
  K  K19  1  0.75000000  0.25285000  0.94893000  1.0
  K  K20  1  0.25000000  0.00000000  0.85765000  1.0
  K  K21  1  0.50330000  0.50000000  0.93678000  1.0
  K  K22  1  0.75000000  0.00000000  0.85191000  1.0
  K  K23  1  0.99669000  0.50000000  0.93678000  1.0
  Bi  Bi24  1  0.00000000  0.00000000  0.15958000  1.0
  Bi  Bi25  1  0.25000000  0.50000000  0.05319000  1.0
  Bi  Bi26  1  0.75000000  0.50000000  0.05319000  1.0
  Bi  Bi27  1  0.50000000  0.00000000  0.15958000  1.0
  Bi  Bi28  1  0.50064000  0.00000000  0.93824000  1.0
  Bi  Bi29  1  0.75000000  0.50000000  0.84828000  1.0
  Bi  Bi30  1  0.24999000  0.50000000  0.84947000  1.0
  Bi  Bi31  1  0.99935000  0.00000000  0.93823000  1.0
  C  C32  1  0.25002000  0.00000000  0.75404000  1.0
  O  O33  1  0.25000000  0.00000000  0.71512000  1.0
