# generated using pymatgen
data_K24Bi8CO
_symmetry_space_group_name_H-M   Pm
_cell_length_a   12.50030000
_cell_length_b   8.83903000
_cell_length_c   29.37520000
_cell_angle_alpha   90.00000000
_cell_angle_beta   90.00000000
_cell_angle_gamma   90.00000000
_symmetry_Int_Tables_number   6
_chemical_formula_structural   K24Bi8CO
_chemical_formula_sum   'K24 Bi8 C1 O1'
_cell_volume   3245.68132018
_cell_formula_units_Z   1
loop_
 _symmetry_equiv_pos_site_id
 _symmetry_equiv_pos_as_xyz
  1  'x, y, z'
  2  '-x+1/2, -y, z'
  3  'x, -y, z'
  4  '-x+1/2, y, z'
loop_
 _atom_site_type_symbol
 _atom_site_label
 _atom_site_symmetry_multiplicity
 _atom_site_fract_x
 _atom_site_fract_y
 _atom_site_fract_z
 _atom_site_occupancy
  K  K0  4  0.00000000  0.25003000  0.94681000  1.0
  K  K1  4  0.00265000  0.27887000  0.17524000  1.0
  K  K2  2  0.00000000  0.50000000  0.84042000  1.0
  K  K3  2  0.25000000  0.25003000  0.84042000  1.0
  K  K4  2  0.25000000  0.25832000  0.04973000  1.0
  K  K5  2  0.50330000  0.50000000  0.06322000  1.0
  K  K6  2  0.75000000  0.24997000  0.84042000  1.0
  K  K7  2  0.75000000  0.25285000  0.05107000  1.0
  K  K8  1  0.25000000  0.00000000  0.14235000  1.0
  K  K9  1  0.25000000  0.00000000  0.94681000  1.0
  K  K10  1  0.75000000  0.00000000  0.14809000  1.0
  K  K11  1  0.75000000  0.00000000  0.94681000  1.0
  Bi  Bi12  2  0.00000000  0.00000000  0.84042000  1.0
  Bi  Bi13  2  0.50064000  0.00000000  0.06176000  1.0
  Bi  Bi14  1  0.24999000  0.50000000  0.15053000  1.0
  Bi  Bi15  1  0.25000000  0.50000000  0.94681000  1.0
  Bi  Bi16  1  0.75000000  0.50000000  0.15172000  1.0
  Bi  Bi17  1  0.75000000  0.50000000  0.94681000  1.0
  C  C18  1  0.25002000  0.00000000  0.24596000  1.0
  O  O19  1  0.25000000  0.00000000  0.28488000  1.0
