data_image0
_chemical_formula_structural       Sc4Pt12C
_chemical_formula_sum              "Sc4 Pt12 C1"
_cell_length_a       8.06651
_cell_length_b       5.70388
_cell_length_c       24.2779
_cell_angle_alpha    90
_cell_angle_beta     90
_cell_angle_gamma    90

_space_group_name_H-M_alt    "P 1"
_space_group_IT_number       1

loop_
  _space_group_symop_operation_xyz
  'x, y, z'

loop_
  _atom_site_type_symbol
  _atom_site_label
  _atom_site_symmetry_multiplicity
  _atom_site_fract_x
  _atom_site_fract_y
  _atom_site_fract_z
  _atom_site_occupancy
  Sc  Sc1       1.0  0.00000  0.00000  0.91190  1.0000
  Sc  Sc2       1.0  0.00000  0.50000  0.02440  1.0000
  Sc  Sc3       1.0  0.50000  0.00000  0.91190  1.0000
  Sc  Sc4       1.0  0.50002  0.50001  0.03152  1.0000
  Pt  Pt1       1.0  0.00000  0.50000  0.91190  1.0000
  Pt  Pt2       1.0  0.25000  0.75000  0.97063  1.0000
  Pt  Pt3       1.0  0.25000  0.25000  0.97063  1.0000
  Pt  Pt4       1.0  1.00000  1.00000  0.01997  1.0000
  Pt  Pt5       1.0  0.19636  0.25053  0.09343  1.0000
  Pt  Pt6       1.0  0.19636  0.74947  0.09342  1.0000
  Pt  Pt7       1.0  0.50000  0.50000  0.91190  1.0000
  Pt  Pt8       1.0  0.75000  0.75000  0.97063  1.0000
  Pt  Pt9       1.0  0.75000  0.25000  0.97063  1.0000
  Pt  Pt10      1.0  0.50000  0.00000  0.03249  1.0000
  Pt  Pt11      1.0  0.80364  0.25052  0.09342  1.0000
  Pt  Pt12      1.0  0.80362  0.74946  0.09342  1.0000
  C   C1        1.0  0.00004  0.00003  0.10725  1.0000
