# generated using pymatgen
data_Sc4Pt12C
_symmetry_space_group_name_H-M   'P 1'
_cell_length_a   5.70388000
_cell_length_b   8.06651000
_cell_length_c   24.27790000
_cell_angle_alpha   90.00000000
_cell_angle_beta   90.00000000
_cell_angle_gamma   90.00000000
_symmetry_Int_Tables_number   1
_chemical_formula_structural   Sc4Pt12C
_chemical_formula_sum   'Sc4 Pt12 C1'
_cell_volume   1117.03601298
_cell_formula_units_Z   1
loop_
 _symmetry_equiv_pos_site_id
 _symmetry_equiv_pos_as_xyz
  1  'x, y, z'
loop_
 _atom_site_type_symbol
 _atom_site_label
 _atom_site_symmetry_multiplicity
 _atom_site_fract_x
 _atom_site_fract_y
 _atom_site_fract_z
 _atom_site_occupancy
  Sc  Sc0  1  0.00000000  0.00000000  0.08810000  1.0
  Sc  Sc1  1  0.50000000  0.00000000  0.97560000  1.0
  Sc  Sc2  1  0.00000000  0.50000000  0.08810000  1.0
  Sc  Sc3  1  0.50000000  0.50000000  0.96848000  1.0
  Pt  Pt4  1  0.50000000  0.00000000  0.08810000  1.0
  Pt  Pt5  1  0.74997000  0.24996000  0.02937000  1.0
  Pt  Pt6  1  0.25003000  0.24996000  0.02937000  1.0
  Pt  Pt7  1  0.00000000  0.00000000  0.98003000  1.0
  Pt  Pt8  1  0.25050000  0.19632000  0.90657000  1.0
  Pt  Pt9  1  0.74950000  0.19632000  0.90657000  1.0
  Pt  Pt10  1  0.50000000  0.50000000  0.08810000  1.0
  Pt  Pt11  1  0.74997000  0.75004000  0.02937000  1.0
  Pt  Pt12  1  0.25003000  0.75004000  0.02937000  1.0
  Pt  Pt13  1  0.00000000  0.50000000  0.96751000  1.0
  Pt  Pt14  1  0.25050000  0.80368000  0.90657000  1.0
  Pt  Pt15  1  0.74950000  0.80368000  0.90657000  1.0
  C  C16  1  0.00000000  0.00000000  0.89275000  1.0
