# generated using pymatgen
data_Sc32CO
_symmetry_space_group_name_H-M   'P 1'
_cell_length_a   9.21507000
_cell_length_b   9.21507000
_cell_length_c   26.91130000
_cell_angle_alpha   90.00000000
_cell_angle_beta   90.00000000
_cell_angle_gamma   90.00000000
_symmetry_Int_Tables_number   1
_chemical_formula_structural   Sc32CO
_chemical_formula_sum   'Sc32 C1 O1'
_cell_volume   2285.24072424
_cell_formula_units_Z   1
loop_
 _symmetry_equiv_pos_site_id
 _symmetry_equiv_pos_as_xyz
  1  'x, y, z'
loop_
 _atom_site_type_symbol
 _atom_site_label
 _atom_site_symmetry_multiplicity
 _atom_site_fract_x
 _atom_site_fract_y
 _atom_site_fract_z
 _atom_site_occupancy
  Sc  Sc0  1  0.75000000  0.00000000  0.12841000  1.0
  Sc  Sc1  1  0.00000000  0.25000000  0.12841000  1.0
  Sc  Sc2  1  0.00000000  0.00000000  0.04280000  1.0
  Sc  Sc3  1  0.75000000  0.25000000  0.04280000  1.0
  Sc  Sc4  1  0.74494000  0.00001000  0.95656000  1.0
  Sc  Sc5  1  0.00000000  0.25509000  0.95654000  1.0
  Sc  Sc6  1  0.00000000  0.00000000  0.88014000  1.0
  Sc  Sc7  1  0.75548000  0.24452000  0.87446000  1.0
  Sc  Sc8  1  0.75000000  0.50000000  0.12841000  1.0
  Sc  Sc9  1  0.00000000  0.75000000  0.12841000  1.0
  Sc  Sc10  1  0.00000000  0.50000000  0.04280000  1.0
  Sc  Sc11  1  0.75000000  0.75000000  0.04280000  1.0
  Sc  Sc12  1  0.74924000  0.49998000  0.95391000  1.0
  Sc  Sc13  1  0.00000000  0.74491000  0.95654000  1.0
  Sc  Sc14  1  0.00000000  0.50000000  0.87538000  1.0
  Sc  Sc15  1  0.75546000  0.75545000  0.87446000  1.0
  Sc  Sc16  1  0.25000000  0.00000000  0.12841000  1.0
  Sc  Sc17  1  0.50000000  0.25000000  0.12841000  1.0
  Sc  Sc18  1  0.50000000  0.00000000  0.04280000  1.0
  Sc  Sc19  1  0.25000000  0.25000000  0.04280000  1.0
  Sc  Sc20  1  0.25506000  0.99999000  0.95656000  1.0
  Sc  Sc21  1  0.50001000  0.25075000  0.95393000  1.0
  Sc  Sc22  1  0.50000000  0.00000000  0.87539000  1.0
  Sc  Sc23  1  0.24454000  0.24455000  0.87446000  1.0
  Sc  Sc24  1  0.25000000  0.50000000  0.12841000  1.0
  Sc  Sc25  1  0.50000000  0.75000000  0.12841000  1.0
  Sc  Sc26  1  0.50000000  0.50000000  0.04280000  1.0
  Sc  Sc27  1  0.25000000  0.75000000  0.04280000  1.0
  Sc  Sc28  1  0.25076000  0.50002000  0.95391000  1.0
  Sc  Sc29  1  0.49999000  0.74925000  0.95393000  1.0
  Sc  Sc30  1  0.50000000  0.50000000  0.87419000  1.0
  Sc  Sc31  1  0.24452000  0.75548000  0.87446000  1.0
  C  C32  1  0.00000000  0.00000000  0.79676000  1.0
  O  O33  1  0.00000000  0.00000000  0.75333000  1.0
