# generated using pymatgen
data_Sc32CO
_symmetry_space_group_name_H-M   P2
_cell_length_a   9.21507000
_cell_length_b   26.91130000
_cell_length_c   9.21507000
_cell_angle_alpha   90.00000000
_cell_angle_beta   90.00000000
_cell_angle_gamma   90.00000000
_symmetry_Int_Tables_number   3
_chemical_formula_structural   Sc32CO
_chemical_formula_sum   'Sc32 C1 O1'
_cell_volume   2285.24072424
_cell_formula_units_Z   1
loop_
 _symmetry_equiv_pos_site_id
 _symmetry_equiv_pos_as_xyz
  1  'x, y, z'
  2  '-z, y, x'
  3  '-x, y, -z'
  4  'z, y, -x'
  5  '-x, y, z'
  6  'z, y, x'
  7  'x, y, -z'
  8  '-z, y, -x'
loop_
 _atom_site_type_symbol
 _atom_site_label
 _atom_site_symmetry_multiplicity
 _atom_site_fract_x
 _atom_site_fract_y
 _atom_site_fract_z
 _atom_site_occupancy
  Sc  Sc0  4  0.00000000  0.87159000  0.25000000  1.0
  Sc  Sc1  4  0.00001000  0.04344000  0.74494000  1.0
  Sc  Sc2  4  0.24452000  0.12554000  0.75548000  1.0
  Sc  Sc3  4  0.25000000  0.87159000  0.50000000  1.0
  Sc  Sc4  4  0.25000000  0.95720000  0.75000000  1.0
  Sc  Sc5  4  0.25075000  0.04607000  0.50001000  1.0
  Sc  Sc6  2  0.00000000  0.12461000  0.50000000  1.0
  Sc  Sc7  2  0.00000000  0.95720000  0.50000000  1.0
  Sc  Sc8  1  0.00000000  0.11986000  0.00000000  1.0
  Sc  Sc9  1  0.00000000  0.95720000  0.00000000  1.0
  Sc  Sc10  1  0.50000000  0.12581000  0.50000000  1.0
  Sc  Sc11  1  0.50000000  0.95720000  0.50000000  1.0
  C  C12  1  0.00000000  0.20324000  0.00000000  1.0
  O  O13  1  0.00000000  0.24667000  0.00000000  1.0
