# generated using pymatgen
data_Ca16Ni16C
_symmetry_space_group_name_H-M   Pmm2
_cell_length_a   6.91175000
_cell_length_b   9.77469000
_cell_length_c   27.33100000
_cell_angle_alpha   90.00000000
_cell_angle_beta   90.00000000
_cell_angle_gamma   90.00000000
_symmetry_Int_Tables_number   25
_chemical_formula_structural   Ca16Ni16C
_chemical_formula_sum   'Ca16 Ni16 C1'
_cell_volume   1846.48819811
_cell_formula_units_Z   1
loop_
 _symmetry_equiv_pos_site_id
 _symmetry_equiv_pos_as_xyz
  1  'x, y, z'
  2  '-x, -y, z'
  3  '-x, y, z'
  4  'x, -y, z'
loop_
 _atom_site_type_symbol
 _atom_site_label
 _atom_site_symmetry_multiplicity
 _atom_site_fract_x
 _atom_site_fract_y
 _atom_site_fract_z
 _atom_site_occupancy
  Ca  Ca0  4  0.24551000  0.25251000  0.04342000  1.0
  Ca  Ca1  4  0.25000000  0.25000000  0.86588000  1.0
  Ca  Ca2  2  0.24500000  0.50000000  0.14064000  1.0
  Ca  Ca3  2  0.25000000  0.00000000  0.95529000  1.0
  Ca  Ca4  2  0.25000000  0.50000000  0.95529000  1.0
  Ca  Ca5  2  0.30144000  0.00000000  0.12904000  1.0
  Ni  Ni6  2  0.00000000  0.16984000  0.13989000  1.0
  Ni  Ni7  2  0.00000000  0.25000000  0.95529000  1.0
  Ni  Ni8  2  0.50000000  0.25000000  0.95529000  1.0
  Ni  Ni9  2  0.50000000  0.28153000  0.12059000  1.0
  Ni  Ni10  1  0.00000000  0.00000000  0.05476000  1.0
  Ni  Ni11  1  0.00000000  0.00000000  0.86588000  1.0
  Ni  Ni12  1  0.00000000  0.50000000  0.04872000  1.0
  Ni  Ni13  1  0.00000000  0.50000000  0.86588000  1.0
  Ni  Ni14  1  0.50000000  0.00000000  0.03732000  1.0
  Ni  Ni15  1  0.50000000  0.00000000  0.86588000  1.0
  Ni  Ni16  1  0.50000000  0.50000000  0.06016000  1.0
  Ni  Ni17  1  0.50000000  0.50000000  0.86588000  1.0
  C  C18  1  0.00000000  0.00000000  0.16497000  1.0
