data_image0
_chemical_formula_structural       Zr4Al4Cu8CO
_chemical_formula_sum              "Zr4 Al4 Cu8 C1 O1"
_cell_length_a       6.27295
_cell_length_b       6.27295
_cell_length_c       24.7047
_cell_angle_alpha    90
_cell_angle_beta     90
_cell_angle_gamma    90

_space_group_name_H-M_alt    "P 1"
_space_group_IT_number       1

loop_
  _space_group_symop_operation_xyz
  'x, y, z'

loop_
  _atom_site_type_symbol
  _atom_site_label
  _atom_site_symmetry_multiplicity
  _atom_site_fract_x
  _atom_site_fract_y
  _atom_site_fract_z
  _atom_site_occupancy
  Zr  Zr1       1.0  0.00000  0.00000  0.09522  1.0000
  Zr  Zr2       1.0  0.50000  0.50000  0.09522  1.0000
  Zr  Zr3       1.0  0.50000  0.00000  0.96826  1.0000
  Zr  Zr4       1.0  0.00000  0.50000  0.96826  1.0000
  Al  Al1       1.0  0.00000  0.00000  0.96826  1.0000
  Al  Al2       1.0  0.50000  0.00000  0.09522  1.0000
  Al  Al3       1.0  0.00000  0.50000  0.09522  1.0000
  Al  Al4       1.0  0.50000  0.50000  0.96826  1.0000
  Cu  Cu1       1.0  0.25000  0.25000  0.03174  1.0000
  Cu  Cu2       1.0  0.75000  0.75000  0.90478  1.0000
  Cu  Cu3       1.0  0.75000  0.25000  0.03174  1.0000
  Cu  Cu4       1.0  0.25000  0.75000  0.90478  1.0000
  Cu  Cu5       1.0  0.75000  0.75000  0.03174  1.0000
  Cu  Cu6       1.0  0.25000  0.25000  0.90478  1.0000
  Cu  Cu7       1.0  0.25000  0.75000  0.03174  1.0000
  Cu  Cu8       1.0  0.75000  0.25000  0.90478  1.0000
  C   C1        1.0  0.00000  0.00000  0.17213  1.0000
  O   O1        1.0  0.00000  0.00000  0.21868  1.0000
