# generated using pymatgen
data_InRh
_symmetry_space_group_name_H-M   Pmm2
_cell_length_a   3.25854000
_cell_length_b   4.60827000
_cell_length_c   26.91240000
_cell_angle_alpha   90.00000000
_cell_angle_beta   90.00000000
_cell_angle_gamma   90.00000000
_symmetry_Int_Tables_number   25
_chemical_formula_structural   InRh
_chemical_formula_sum   'In4 Rh4'
_cell_volume   404.12284546
_cell_formula_units_Z   4
loop_
 _symmetry_equiv_pos_site_id
 _symmetry_equiv_pos_as_xyz
  1  'x, y, z'
  2  '-x, -y, z'
  3  '-x, y, z'
  4  'x, -y, z'
loop_
 _atom_site_type_symbol
 _atom_site_label
 _atom_site_symmetry_multiplicity
 _atom_site_fract_x
 _atom_site_fract_y
 _atom_site_fract_z
 _atom_site_occupancy
  In  In0  1  0.00000000  0.00000000  0.04227000  1.0
  In  In1  1  0.00000000  0.00000000  0.87158000  1.0
  In  In2  1  0.00000000  0.50000000  0.13560000  1.0
  In  In3  1  0.00000000  0.50000000  0.95719000  1.0
  Rh  Rh4  1  0.50000000  0.00000000  0.12295000  1.0
  Rh  Rh5  1  0.50000000  0.00000000  0.95719000  1.0
  Rh  Rh6  1  0.50000000  0.50000000  0.04102000  1.0
  Rh  Rh7  1  0.50000000  0.50000000  0.87158000  1.0
