# generated using pymatgen
data_Li8In8Ge8Au8C
_symmetry_space_group_name_H-M   Pmm2
_cell_length_a   8.39470000
_cell_length_b   8.57796000
_cell_length_c   26.34910000
_cell_angle_alpha   90.00000000
_cell_angle_beta   90.00000000
_cell_angle_gamma   90.00000000
_symmetry_Int_Tables_number   25
_chemical_formula_structural   Li8In8Ge8Au8C
_chemical_formula_sum   'Li8 In8 Ge8 Au8 C1'
_cell_volume   1897.38290294
_cell_formula_units_Z   1
loop_
 _symmetry_equiv_pos_site_id
 _symmetry_equiv_pos_as_xyz
  1  'x, y, z'
  2  '-x, -y, z'
  3  '-x, y, z'
  4  'x, -y, z'
loop_
 _atom_site_type_symbol
 _atom_site_label
 _atom_site_symmetry_multiplicity
 _atom_site_fract_x
 _atom_site_fract_y
 _atom_site_fract_z
 _atom_site_occupancy
  Li  Li0  2  0.25000000  0.00000000  0.04016000  1.0
  Li  Li1  2  0.25000000  0.00000000  0.87952000  1.0
  Li  Li2  2  0.25000000  0.50000000  0.04016000  1.0
  Li  Li3  2  0.25000000  0.50000000  0.87952000  1.0
  In  In4  4  0.25000000  0.25000000  0.12048000  1.0
  In  In5  4  0.25000000  0.25000000  0.95984000  1.0
  Ge  Ge6  2  0.00000000  0.25000000  0.04016000  1.0
  Ge  Ge7  2  0.00000000  0.25000000  0.87952000  1.0
  Ge  Ge8  2  0.50000000  0.25000000  0.04016000  1.0
  Ge  Ge9  2  0.50000000  0.25000000  0.87952000  1.0
  Au  Au10  1  0.00000000  0.00000000  0.12048000  1.0
  Au  Au11  1  0.00000000  0.00000000  0.95984000  1.0
  Au  Au12  1  0.00000000  0.50000000  0.12048000  1.0
  Au  Au13  1  0.00000000  0.50000000  0.95984000  1.0
  Au  Au14  1  0.50000000  0.00000000  0.12048000  1.0
  Au  Au15  1  0.50000000  0.00000000  0.95984000  1.0
  Au  Au16  1  0.50000000  0.50000000  0.12048000  1.0
  Au  Au17  1  0.50000000  0.50000000  0.95984000  1.0
  C  C18  1  0.00000000  0.00000000  0.84916000  1.0
