# generated using pymatgen
data_Li4Y4In4Cu4C
_symmetry_space_group_name_H-M   P2
_cell_length_a   6.68415000
_cell_length_b   25.01310000
_cell_length_c   6.68415000
_cell_angle_alpha   90.00000000
_cell_angle_beta   90.00000000
_cell_angle_gamma   90.00000000
_symmetry_Int_Tables_number   3
_chemical_formula_structural   Li4Y4In4Cu4C
_chemical_formula_sum   'Li4 Y4 In4 Cu4 C1'
_cell_volume   1117.53181054
_cell_formula_units_Z   1
loop_
 _symmetry_equiv_pos_site_id
 _symmetry_equiv_pos_as_xyz
  1  'x, y, z'
  2  '-x, y, -z'
loop_
 _atom_site_type_symbol
 _atom_site_label
 _atom_site_symmetry_multiplicity
 _atom_site_fract_x
 _atom_site_fract_y
 _atom_site_fract_z
 _atom_site_occupancy
  Li  Li0  1  0.00000000  0.03618000  0.00000000  1.0
  Li  Li1  1  0.00000000  0.89979000  0.50000000  1.0
  Li  Li2  1  0.50000000  0.03643000  0.50000000  1.0
  Li  Li3  1  0.50000000  0.89979000  0.00000000  1.0
  Y  Y4  2  0.25000000  0.96660000  0.75000000  1.0
  Y  Y5  2  0.25611000  0.11025000  0.24408000  1.0
  In  In6  2  0.24836000  0.10352000  0.74824000  1.0
  In  In7  2  0.25000000  0.96660000  0.25000000  1.0
  Cu  Cu8  1  0.00000000  0.03183000  0.50000000  1.0
  Cu  Cu9  1  0.00000000  0.89979000  0.00000000  1.0
  Cu  Cu10  1  0.50000000  0.03087000  0.00000000  1.0
  Cu  Cu11  1  0.50000000  0.89979000  0.50000000  1.0
  C  C12  1  0.50000000  0.11211000  0.00000000  1.0
