# generated using pymatgen
data_Li8Al8Cu8Pd8CO
_symmetry_space_group_name_H-M   Pm
_cell_length_a   6.00833000
_cell_length_b   8.49706000
_cell_length_c   26.37280000
_cell_angle_alpha   90.00000000
_cell_angle_beta   90.00000000
_cell_angle_gamma   90.00000000
_symmetry_Int_Tables_number   6
_chemical_formula_structural   Li8Al8Cu8Pd8CO
_chemical_formula_sum   'Li8 Al8 Cu8 Pd8 C1 O1'
_cell_volume   1346.41426404
_cell_formula_units_Z   1
loop_
 _symmetry_equiv_pos_site_id
 _symmetry_equiv_pos_as_xyz
  1  'x, y, z'
  2  'x, -y, z'
loop_
 _atom_site_type_symbol
 _atom_site_label
 _atom_site_symmetry_multiplicity
 _atom_site_fract_x
 _atom_site_fract_y
 _atom_site_fract_z
 _atom_site_occupancy
  Li  Li0  2  0.00000000  0.24999000  0.95973000  1.0
  Li  Li1  2  0.00076000  0.25139000  0.12998000  1.0
  Li  Li2  1  0.50000000  0.00000000  0.87918000  1.0
  Li  Li3  1  0.50000000  0.50000000  0.03688000  1.0
  Li  Li4  1  0.50000000  0.50000000  0.87918000  1.0
  Li  Li5  1  0.50764000  0.00000000  0.03873000  1.0
  Al  Al6  2  0.49826000  0.25204000  0.11754000  1.0
  Al  Al7  2  0.50000000  0.25001000  0.95973000  1.0
  Al  Al8  1  0.00000000  0.00000000  0.87918000  1.0
  Al  Al9  1  0.00000000  0.50000000  0.87918000  1.0
  Al  Al10  1  0.99139000  0.00000000  0.04119000  1.0
  Al  Al11  1  0.99612000  0.50000000  0.04040000  1.0
  Cu  Cu12  2  0.75000000  0.24999000  0.87918000  1.0
  Cu  Cu13  2  0.75432000  0.24780000  0.04051000  1.0
  Cu  Cu14  1  0.25000000  0.00000000  0.95973000  1.0
  Cu  Cu15  1  0.25000000  0.50000000  0.95973000  1.0
  Cu  Cu16  1  0.26446000  0.50000000  0.11471000  1.0
  Cu  Cu17  1  0.27109000  0.00000000  0.11316000  1.0
  Pd  Pd18  2  0.24157000  0.24891000  0.03956000  1.0
  Pd  Pd19  2  0.25000000  0.24999000  0.87918000  1.0
  Pd  Pd20  1  0.73230000  0.50000000  0.11557000  1.0
  Pd  Pd21  1  0.73861000  0.00000000  0.12508000  1.0
  Pd  Pd22  1  0.75000000  0.00000000  0.95973000  1.0
  Pd  Pd23  1  0.75000000  0.50000000  0.95973000  1.0
  C  C24  1  0.83578000  0.00000000  0.19645000  1.0
  O  O25  1  0.86415000  0.00000000  0.23975000  1.0
