data_image0
_chemical_formula_structural       Mg8In24C
_chemical_formula_sum              "Mg8 In24 C1"
_cell_length_a       9.42262
_cell_length_b       9.42262
_cell_length_c       27.067
_cell_angle_alpha    90
_cell_angle_beta     90
_cell_angle_gamma    90

_space_group_name_H-M_alt    "P 1"
_space_group_IT_number       1

loop_
  _space_group_symop_operation_xyz
  'x, y, z'

loop_
  _atom_site_type_symbol
  _atom_site_label
  _atom_site_symmetry_multiplicity
  _atom_site_fract_x
  _atom_site_fract_y
  _atom_site_fract_z
  _atom_site_occupancy
  Mg  Mg1       1.0  0.00000  0.00000  0.86945  1.0000
  Mg  Mg2       1.0  0.00000  0.00000  0.03889  1.0000
  Mg  Mg3       1.0  0.00000  0.50000  0.86945  1.0000
  Mg  Mg4       1.0  1.00000  0.50000  0.04207  1.0000
  Mg  Mg5       1.0  0.50000  0.00000  0.86945  1.0000
  Mg  Mg6       1.0  0.50000  0.00000  0.04214  1.0000
  Mg  Mg7       1.0  0.50000  0.50000  0.86945  1.0000
  Mg  Mg8       1.0  0.50000  0.50000  0.04687  1.0000
  In  In1       1.0  0.00000  0.25000  0.95648  1.0000
  In  In2       1.0  0.25000  0.00000  0.95648  1.0000
  In  In3       1.0  0.25000  0.25000  0.86945  1.0000
  In  In4       1.0  0.00000  0.25310  0.13321  1.0000
  In  In5       1.0  0.25306  1.00000  0.13322  1.0000
  In  In6       1.0  0.26079  0.26076  0.04612  1.0000
  In  In7       1.0  0.00000  0.75000  0.95648  1.0000
  In  In8       1.0  0.25000  0.50000  0.95648  1.0000
  In  In9       1.0  0.25000  0.75000  0.86945  1.0000
  In  In10      1.0  0.00000  0.74690  0.13321  1.0000
  In  In11      1.0  0.24949  0.50000  0.14318  1.0000
  In  In12      1.0  0.26078  0.73924  0.04612  1.0000
  In  In13      1.0  0.50000  0.25000  0.95648  1.0000
  In  In14      1.0  0.75000  0.00000  0.95648  1.0000
  In  In15      1.0  0.75000  0.25000  0.86945  1.0000
  In  In16      1.0  0.50000  0.24953  0.14319  1.0000
  In  In17      1.0  0.74694  1.00000  0.13322  1.0000
  In  In18      1.0  0.73922  0.26076  0.04612  1.0000
  In  In19      1.0  0.50000  0.75000  0.95648  1.0000
  In  In20      1.0  0.75000  0.50000  0.95648  1.0000
  In  In21      1.0  0.75000  0.75000  0.86945  1.0000
  In  In22      1.0  0.50000  0.75048  0.14319  1.0000
  In  In23      1.0  0.75051  0.50000  0.14318  1.0000
  In  In24      1.0  0.73922  0.73923  0.04612  1.0000
  C   C1        1.0  1.00000  0.00000  0.12043  1.0000
