# generated using pymatgen
data_Mg8In24C
_symmetry_space_group_name_H-M   Pmm2
_cell_length_a   9.42262000
_cell_length_b   9.42262000
_cell_length_c   27.06700000
_cell_angle_alpha   90.00000000
_cell_angle_beta   90.00000000
_cell_angle_gamma   90.00000000
_symmetry_Int_Tables_number   25
_chemical_formula_structural   Mg8In24C
_chemical_formula_sum   'Mg8 In24 C1'
_cell_volume   2403.16437337
_cell_formula_units_Z   1
loop_
 _symmetry_equiv_pos_site_id
 _symmetry_equiv_pos_as_xyz
  1  'x, y, z'
  2  '-x, -y, z'
  3  '-x, y, z'
  4  'x, -y, z'
loop_
 _atom_site_type_symbol
 _atom_site_label
 _atom_site_symmetry_multiplicity
 _atom_site_fract_x
 _atom_site_fract_y
 _atom_site_fract_z
 _atom_site_occupancy
  Mg  Mg0  1  0.00000000  0.00000000  0.03889000  1.0
  Mg  Mg1  1  0.00000000  0.00000000  0.86945000  1.0
  Mg  Mg2  1  0.00000000  0.50000000  0.04207000  1.0
  Mg  Mg3  1  0.00000000  0.50000000  0.86945000  1.0
  Mg  Mg4  1  0.50000000  0.00000000  0.04214000  1.0
  Mg  Mg5  1  0.50000000  0.00000000  0.86945000  1.0
  Mg  Mg6  1  0.50000000  0.50000000  0.04687000  1.0
  Mg  Mg7  1  0.50000000  0.50000000  0.86945000  1.0
  In  In8  4  0.25000000  0.25000000  0.86945000  1.0
  In  In9  4  0.26079000  0.26076000  0.04612000  1.0
  In  In10  2  0.00000000  0.25000000  0.95648000  1.0
  In  In11  2  0.00000000  0.25310000  0.13321000  1.0
  In  In12  2  0.24949000  0.50000000  0.14318000  1.0
  In  In13  2  0.25000000  0.00000000  0.95648000  1.0
  In  In14  2  0.25000000  0.50000000  0.95648000  1.0
  In  In15  2  0.25306000  0.00000000  0.13322000  1.0
  In  In16  2  0.50000000  0.24953000  0.14319000  1.0
  In  In17  2  0.50000000  0.25000000  0.95648000  1.0
  C  C18  1  0.00000000  0.00000000  0.12043000  1.0
