data_image0
_chemical_formula_structural       Li8Cu8Ag8Sn8C
_chemical_formula_sum              "Li8 Cu8 Ag8 Sn8 C1"
_cell_length_a       6.43603
_cell_length_b       9.10192
_cell_length_c       26.8264
_cell_angle_alpha    90
_cell_angle_beta     90
_cell_angle_gamma    90

_space_group_name_H-M_alt    "P 1"
_space_group_IT_number       1

loop_
  _space_group_symop_operation_xyz
  'x, y, z'

loop_
  _atom_site_type_symbol
  _atom_site_label
  _atom_site_symmetry_multiplicity
  _atom_site_fract_x
  _atom_site_fract_y
  _atom_site_fract_z
  _atom_site_occupancy
  Li  Li1       1.0  0.25000  0.00000  0.95759  1.0000
  Li  Li2       1.0  0.25000  0.50000  0.95759  1.0000
  Li  Li3       1.0  0.75000  0.25000  0.87277  1.0000
  Li  Li4       1.0  0.75000  0.75000  0.87277  1.0000
  Li  Li5       1.0  0.23946  0.51653  0.13379  1.0000
  Li  Li6       1.0  0.23949  0.98346  0.13379  1.0000
  Li  Li7       1.0  0.74096  0.75000  0.04219  1.0000
  Li  Li8       1.0  0.80015  0.25000  0.05704  1.0000
  Cu  Cu1       1.0  0.75000  0.00000  0.95759  1.0000
  Cu  Cu2       1.0  0.75000  0.50000  0.95759  1.0000
  Cu  Cu3       1.0  0.25000  0.25000  0.87277  1.0000
  Cu  Cu4       1.0  0.25000  0.75000  0.87277  1.0000
  Cu  Cu5       1.0  0.78142  0.46421  0.12753  1.0000
  Cu  Cu6       1.0  0.78141  0.03579  0.12753  1.0000
  Cu  Cu7       1.0  0.26703  0.75000  0.04933  1.0000
  Cu  Cu8       1.0  0.23469  0.25000  0.04023  1.0000
  Ag  Ag1       1.0  0.00000  0.00000  0.87277  1.0000
  Ag  Ag2       1.0  0.00000  0.50000  0.87277  1.0000
  Ag  Ag3       1.0  0.50000  0.75000  0.95759  1.0000
  Ag  Ag4       1.0  0.50000  0.25000  0.95759  1.0000
  Ag  Ag5       1.0  0.00542  0.51693  0.04145  1.0000
  Ag  Ag6       1.0  0.00543  0.98307  0.04145  1.0000
  Ag  Ag7       1.0  0.44136  0.25000  0.12743  1.0000
  Ag  Ag8       1.0  0.53087  0.74999  0.12887  1.0000
  Sn  Sn1       1.0  0.00000  0.25000  0.95759  1.0000
  Sn  Sn2       1.0  0.00000  0.75000  0.95759  1.0000
  Sn  Sn3       1.0  0.50000  0.50000  0.87277  1.0000
  Sn  Sn4       1.0  0.50000  0.00000  0.87277  1.0000
  Sn  Sn5       1.0  0.97065  0.75000  0.13784  1.0000
  Sn  Sn6       1.0  0.05733  0.24999  0.17671  1.0000
  Sn  Sn7       1.0  0.49861  0.00984  0.04653  1.0000
  Sn  Sn8       1.0  0.49861  0.49016  0.04653  1.0000
  C   C1        1.0  0.77343  0.25000  0.13833  1.0000
