# generated using pymatgen
data_Li8Cu8Ag8Sn8C
_symmetry_space_group_name_H-M   'P 1'
_cell_length_a   9.10192000
_cell_length_b   6.43603000
_cell_length_c   26.82640000
_cell_angle_alpha   90.00000000
_cell_angle_beta   90.00000000
_cell_angle_gamma   90.00000000
_symmetry_Int_Tables_number   1
_chemical_formula_structural   Li8Cu8Ag8Sn8C
_chemical_formula_sum   'Li8 Cu8 Ag8 Sn8 C1'
_cell_volume   1571.49668684
_cell_formula_units_Z   1
loop_
 _symmetry_equiv_pos_site_id
 _symmetry_equiv_pos_as_xyz
  1  'x, y, z'
loop_
 _atom_site_type_symbol
 _atom_site_label
 _atom_site_symmetry_multiplicity
 _atom_site_fract_x
 _atom_site_fract_y
 _atom_site_fract_z
 _atom_site_occupancy
  Li  Li0  1  0.75000000  0.25000000  0.04241000  1.0
  Li  Li1  1  0.25000000  0.25000000  0.04241000  1.0
  Li  Li2  1  0.00000000  0.75000000  0.12723000  1.0
  Li  Li3  1  0.50000000  0.75000000  0.12723000  1.0
  Li  Li4  1  0.26653000  0.23946000  0.86621000  1.0
  Li  Li5  1  0.73347000  0.23946000  0.86621000  1.0
  Li  Li6  1  0.50000000  0.74096000  0.95781000  1.0
  Li  Li7  1  0.00000000  0.80015000  0.94296000  1.0
  Cu  Cu8  1  0.75000000  0.75000000  0.04241000  1.0
  Cu  Cu9  1  0.25000000  0.75000000  0.04241000  1.0
  Cu  Cu10  1  0.00000000  0.25000000  0.12723000  1.0
  Cu  Cu11  1  0.50000000  0.25000000  0.12723000  1.0
  Cu  Cu12  1  0.21421000  0.78142000  0.87247000  1.0
  Cu  Cu13  1  0.78579000  0.78142000  0.87247000  1.0
  Cu  Cu14  1  0.50000000  0.26703000  0.95067000  1.0
  Cu  Cu15  1  0.00000000  0.23469000  0.95977000  1.0
  Ag  Ag16  1  0.75000000  0.00000000  0.12723000  1.0
  Ag  Ag17  1  0.25000000  0.00000000  0.12723000  1.0
  Ag  Ag18  1  0.50000000  0.50000000  0.04241000  1.0
  Ag  Ag19  1  0.00000000  0.50000000  0.04241000  1.0
  Ag  Ag20  1  0.26693000  0.00542000  0.95855000  1.0
  Ag  Ag21  1  0.73307000  0.00542000  0.95855000  1.0
  Ag  Ag22  1  0.00000000  0.44136000  0.87257000  1.0
  Ag  Ag23  1  0.50000000  0.53087000  0.87113000  1.0
  Sn  Sn24  1  0.00000000  0.00000000  0.04241000  1.0
  Sn  Sn25  1  0.50000000  0.00000000  0.04241000  1.0
  Sn  Sn26  1  0.25000000  0.50000000  0.12723000  1.0
  Sn  Sn27  1  0.75000000  0.50000000  0.12723000  1.0
  Sn  Sn28  1  0.50000000  0.97065000  0.86216000  1.0
  Sn  Sn29  1  0.00000000  0.05733000  0.82329000  1.0
  Sn  Sn30  1  0.75984000  0.49861000  0.95347000  1.0
  Sn  Sn31  1  0.24016000  0.49861000  0.95347000  1.0
  C  C32  1  0.00000000  0.77343000  0.86167000  1.0
