# generated using pymatgen
data_Li8In8Ga8Pd8C
_symmetry_space_group_name_H-M   'P 1'
_cell_length_a   6.46680000
_cell_length_b   9.14544000
_cell_length_c   26.85910000
_cell_angle_alpha   90.00000000
_cell_angle_beta   90.00000000
_cell_angle_gamma   90.00000000
_symmetry_Int_Tables_number   1
_chemical_formula_structural   Li8In8Ga8Pd8C
_chemical_formula_sum   'Li8 In8 Ga8 Pd8 C1'
_cell_volume   1588.49367763
_cell_formula_units_Z   1
loop_
 _symmetry_equiv_pos_site_id
 _symmetry_equiv_pos_as_xyz
  1  'x, y, z'
loop_
 _atom_site_type_symbol
 _atom_site_label
 _atom_site_symmetry_multiplicity
 _atom_site_fract_x
 _atom_site_fract_y
 _atom_site_fract_z
 _atom_site_occupancy
  Li  Li0  1  0.75000000  0.00000000  0.95744000  1.0
  Li  Li1  1  0.75000000  0.50000000  0.95744000  1.0
  Li  Li2  1  0.25000000  0.25000000  0.87231000  1.0
  Li  Li3  1  0.25000000  0.75000000  0.87231000  1.0
  Li  Li4  1  0.71660000  0.48381000  0.14134000  1.0
  Li  Li5  1  0.71670000  0.01620000  0.14131000  1.0
  Li  Li6  1  0.23733000  0.74999000  0.04815000  1.0
  Li  Li7  1  0.20756000  0.25001000  0.04839000  1.0
  In  In8  1  0.00000000  0.25000000  0.95744000  1.0
  In  In9  1  0.00000000  0.75000000  0.95744000  1.0
  In  In10  1  0.50000000  0.50000000  0.87231000  1.0
  In  In11  1  0.50000000  0.00000000  0.87231000  1.0
  In  In12  1  0.96411000  0.74999000  0.14125000  1.0
  In  In13  1  0.03069000  0.25002000  0.16428000  1.0
  In  In14  1  0.50135000  0.00255000  0.04387000  1.0
  In  In15  1  0.50137000  0.49744000  0.04387000  1.0
  Ga  Ga16  1  0.00000000  0.00000000  0.87231000  1.0
  Ga  Ga17  1  0.00000000  0.50000000  0.87231000  1.0
  Ga  Ga18  1  0.50000000  0.75000000  0.95744000  1.0
  Ga  Ga19  1  0.50000000  0.25000000  0.95744000  1.0
  Ga  Ga20  1  0.98008000  0.50734000  0.04732000  1.0
  Ga  Ga21  1  0.98011000  0.99265000  0.04731000  1.0
  Ga  Ga22  1  0.43590000  0.24998000  0.13178000  1.0
  Ga  Ga23  1  0.47078000  0.75001000  0.13873000  1.0
  Pd  Pd24  1  0.25000000  0.00000000  0.95744000  1.0
  Pd  Pd25  1  0.25000000  0.50000000  0.95744000  1.0
  Pd  Pd26  1  0.75000000  0.25000000  0.87231000  1.0
  Pd  Pd27  1  0.75000000  0.75000000  0.87231000  1.0
  Pd  Pd28  1  0.23501000  0.50631000  0.12230000  1.0
  Pd  Pd29  1  0.23497000  0.99368000  0.12230000  1.0
  Pd  Pd30  1  0.74408000  0.75000000  0.03888000  1.0
  Pd  Pd31  1  0.76969000  0.24999000  0.04642000  1.0
  C  C32  1  0.73075000  0.25001000  0.12842000  1.0
