# generated using pymatgen
data_Ni12Pt4CO
_symmetry_space_group_name_H-M   'P 1'
_cell_length_a   5.20155000
_cell_length_b   7.35611000
_cell_length_c   23.90120000
_cell_angle_alpha   90.00000000
_cell_angle_beta   90.00000000
_cell_angle_gamma   90.00000000
_symmetry_Int_Tables_number   1
_chemical_formula_structural   Ni12Pt4CO
_chemical_formula_sum   'Ni12 Pt4 C1 O1'
_cell_volume   914.53577370
_cell_formula_units_Z   1
loop_
 _symmetry_equiv_pos_site_id
 _symmetry_equiv_pos_as_xyz
  1  'x, y, z'
loop_
 _atom_site_type_symbol
 _atom_site_label
 _atom_site_symmetry_multiplicity
 _atom_site_fract_x
 _atom_site_fract_y
 _atom_site_fract_z
 _atom_site_occupancy
  Ni  Ni0  1  0.50000000  1.00000000  0.08161000  1.0
  Ni  Ni1  1  0.25000000  0.75000000  0.02720000  1.0
  Ni  Ni2  1  0.75000000  0.75000000  0.02720000  1.0
  Ni  Ni3  1  0.00055000  0.99997000  0.97082000  1.0
  Ni  Ni4  1  0.76091000  0.75006000  0.91951000  1.0
  Ni  Ni5  1  0.24515000  0.75013000  0.92169000  1.0
  Ni  Ni6  1  0.50000000  0.50000000  0.08161000  1.0
  Ni  Ni7  1  0.25000000  0.25000000  0.02720000  1.0
  Ni  Ni8  1  0.75000000  0.25000000  0.02720000  1.0
  Ni  Ni9  1  0.00029000  0.49982000  0.97083000  1.0
  Ni  Ni10  1  0.75687000  0.25020000  0.92271000  1.0
  Ni  Ni11  1  0.24234000  0.24969000  0.92303000  1.0
  Pt  Pt12  1  0.00000000  0.00000000  0.08161000  1.0
  Pt  Pt13  1  0.49944000  0.00036000  0.97138000  1.0
  Pt  Pt14  1  0.00000000  0.50000000  0.08161000  1.0
  Pt  Pt15  1  0.49918000  0.49963000  0.97124000  1.0
  C  C16  1  0.78081000  0.75005000  0.84623000  1.0
  O  O17  1  0.78565000  0.75000000  0.79789000  1.0
