# generated using pymatgen
data_V8Fe16Si8CO
_symmetry_space_group_name_H-M   Pm
_cell_length_a   5.64262000
_cell_length_b   7.97986000
_cell_length_c   25.98490000
_cell_angle_alpha   90.00000000
_cell_angle_beta   90.00000000
_cell_angle_gamma   90.00000000
_symmetry_Int_Tables_number   6
_chemical_formula_structural   V8Fe16Si8CO
_chemical_formula_sum   'V8 Fe16 Si8 C1 O1'
_cell_volume   1170.03034597
_cell_formula_units_Z   1
loop_
 _symmetry_equiv_pos_site_id
 _symmetry_equiv_pos_as_xyz
  1  'x, y, z'
  2  'x, -y, z'
loop_
 _atom_site_type_symbol
 _atom_site_label
 _atom_site_symmetry_multiplicity
 _atom_site_fract_x
 _atom_site_fract_y
 _atom_site_fract_z
 _atom_site_occupancy
  V  V0  2  0.50000000  0.25000000  0.96161000  1.0
  V  V1  2  0.50682000  0.25592000  0.11746000  1.0
  V  V2  1  -0.00000000  0.50000000  0.88484000  1.0
  V  V3  1  0.00000000  0.00000000  0.88484000  1.0
  V  V4  1  0.00096000  0.50000000  0.04008000  1.0
  V  V5  1  0.99682000  0.00000000  0.04067000  1.0
  Fe  Fe6  2  0.25000000  0.25000000  0.88484000  1.0
  Fe  Fe7  2  0.25128000  0.24738000  0.03812000  1.0
  Fe  Fe8  2  0.74628000  0.25172000  0.03815000  1.0
  Fe  Fe9  2  0.75000000  0.25000000  0.88484000  1.0
  Fe  Fe10  1  0.23891000  0.50000000  0.11076000  1.0
  Fe  Fe11  1  0.25000000  0.00000000  0.96161000  1.0
  Fe  Fe12  1  0.25000000  0.50000000  0.96161000  1.0
  Fe  Fe13  1  0.26945000  0.00000000  0.11402000  1.0
  Fe  Fe14  1  0.75000000  0.00000000  0.96161000  1.0
  Fe  Fe15  1  0.75000000  0.50000000  0.96161000  1.0
  Fe  Fe16  1  0.75434000  0.00000000  0.10953000  1.0
  Fe  Fe17  1  0.75658000  0.50000000  0.11245000  1.0
  Si  Si18  2  -0.00000000  0.25000000  0.96161000  1.0
  Si  Si19  2  0.00237000  0.24527000  0.11665000  1.0
  Si  Si20  1  0.49848000  0.50000000  0.03908000  1.0
  Si  Si21  1  0.49921000  0.00000000  0.03840000  1.0
  Si  Si22  1  0.50000000  0.00000000  0.88484000  1.0
  Si  Si23  1  0.50000000  0.50000000  0.88484000  1.0
  C  C24  1  0.42637000  0.00000000  0.17457000  1.0
  O  O25  1  0.48157000  0.00000000  0.21846000  1.0
