data_image0
_chemical_formula_structural       Mn16Pd16C
_chemical_formula_sum              "Mn16 Pd16 C1"
_cell_length_a       6.32195
_cell_length_b       8.94058
_cell_length_c       26.7054
_cell_angle_alpha    90
_cell_angle_beta     90
_cell_angle_gamma    90

_space_group_name_H-M_alt    "P 1"
_space_group_IT_number       1

loop_
  _space_group_symop_operation_xyz
  'x, y, z'

loop_
  _atom_site_type_symbol
  _atom_site_label
  _atom_site_symmetry_multiplicity
  _atom_site_fract_x
  _atom_site_fract_y
  _atom_site_fract_z
  _atom_site_occupancy
  Mn  Mn1       1.0  0.00000  0.00000  0.87446  1.0000
  Mn  Mn2       1.0  0.00000  0.25000  0.95815  1.0000
  Mn  Mn3       1.0  0.00000  0.50000  0.04098  1.0000
  Mn  Mn4       1.0  0.00000  0.22398  0.13165  1.0000
  Mn  Mn5       1.0  0.00000  0.50000  0.87446  1.0000
  Mn  Mn6       1.0  0.00000  0.75000  0.95815  1.0000
  Mn  Mn7       1.0  1.00000  1.00000  0.04322  1.0000
  Mn  Mn8       1.0  0.00000  0.77602  0.13165  1.0000
  Mn  Mn9       1.0  0.50000  0.00000  0.87446  1.0000
  Mn  Mn10      1.0  0.50000  0.25000  0.95815  1.0000
  Mn  Mn11      1.0  0.50000  0.50000  0.04346  1.0000
  Mn  Mn12      1.0  0.50000  0.26504  0.12697  1.0000
  Mn  Mn13      1.0  0.50000  0.50000  0.87446  1.0000
  Mn  Mn14      1.0  0.50000  0.75000  0.95815  1.0000
  Mn  Mn15      1.0  0.50000  0.00000  0.03742  1.0000
  Mn  Mn16      1.0  0.50000  0.73496  0.12697  1.0000
  Pd  Pd1       1.0  0.25000  0.25000  0.87446  1.0000
  Pd  Pd2       1.0  0.25000  0.00000  0.95815  1.0000
  Pd  Pd3       1.0  0.24785  0.25037  0.04326  1.0000
  Pd  Pd4       1.0  0.29189  0.00000  0.12082  1.0000
  Pd  Pd5       1.0  0.25000  0.75000  0.87446  1.0000
  Pd  Pd6       1.0  0.25000  0.50000  0.95815  1.0000
  Pd  Pd7       1.0  0.24785  0.74963  0.04326  1.0000
  Pd  Pd8       1.0  0.23079  0.50000  0.12268  1.0000
  Pd  Pd9       1.0  0.75000  0.25000  0.87446  1.0000
  Pd  Pd10      1.0  0.75000  0.00000  0.95815  1.0000
  Pd  Pd11      1.0  0.75215  0.25037  0.04326  1.0000
  Pd  Pd12      1.0  0.70811  1.00000  0.12082  1.0000
  Pd  Pd13      1.0  0.75000  0.75000  0.87446  1.0000
  Pd  Pd14      1.0  0.75000  0.50000  0.95815  1.0000
  Pd  Pd15      1.0  0.75215  0.74963  0.04326  1.0000
  Pd  Pd16      1.0  0.76921  0.50000  0.12268  1.0000
  C   C1        1.0  1.00000  1.00000  0.14665  1.0000
