# generated using pymatgen
data_Al16Ru16C
_symmetry_space_group_name_H-M   'P 1'
_cell_length_a   8.49407000
_cell_length_b   6.00621000
_cell_length_c   26.37050000
_cell_angle_alpha   90.00000000
_cell_angle_beta   90.00000000
_cell_angle_gamma   90.00000000
_symmetry_Int_Tables_number   1
_chemical_formula_structural   Al16Ru16C
_chemical_formula_sum   'Al16 Ru16 C1'
_cell_volume   1345.34823335
_cell_formula_units_Z   1
loop_
 _symmetry_equiv_pos_site_id
 _symmetry_equiv_pos_as_xyz
  1  'x, y, z'
loop_
 _atom_site_type_symbol
 _atom_site_label
 _atom_site_symmetry_multiplicity
 _atom_site_fract_x
 _atom_site_fract_y
 _atom_site_fract_z
 _atom_site_occupancy
  Al  Al0  1  0.75000000  0.00000000  0.12079000  1.0
  Al  Al1  1  0.00000000  0.00000000  0.04026000  1.0
  Al  Al2  1  0.75001000  0.00239000  0.95917000  1.0
  Al  Al3  1  0.00000000  0.95799000  0.88303000  1.0
  Al  Al4  1  0.25000000  0.00000000  0.12079000  1.0
  Al  Al5  1  0.50000000  0.00000000  0.04026000  1.0
  Al  Al6  1  0.24999000  0.00239000  0.95917000  1.0
  Al  Al7  1  0.50000000  0.00828000  0.87982000  1.0
  Al  Al8  1  0.75000000  0.50000000  0.12079000  1.0
  Al  Al9  1  0.00000000  0.50000000  0.04026000  1.0
  Al  Al10  1  0.75001000  0.49760000  0.95917000  1.0
  Al  Al11  1  0.00000000  0.54189000  0.88302000  1.0
  Al  Al12  1  0.25000000  0.50000000  0.12079000  1.0
  Al  Al13  1  0.50000000  0.50000000  0.04026000  1.0
  Al  Al14  1  0.24999000  0.49760000  0.95917000  1.0
  Al  Al15  1  0.50000000  0.49171000  0.87982000  1.0
  Ru  Ru16  1  0.00000000  0.25000000  0.12079000  1.0
  Ru  Ru17  1  0.75000000  0.25000000  0.04026000  1.0
  Ru  Ru18  1  0.00000000  0.24998000  0.96007000  1.0
  Ru  Ru19  1  0.21830000  0.24996000  0.87356000  1.0
  Ru  Ru20  1  0.50000000  0.25000000  0.12079000  1.0
  Ru  Ru21  1  0.25000000  0.25000000  0.04026000  1.0
  Ru  Ru22  1  0.50000000  0.24999000  0.95834000  1.0
  Ru  Ru23  1  0.78170000  0.24996000  0.87356000  1.0
  Ru  Ru24  1  0.00000000  0.75000000  0.12079000  1.0
  Ru  Ru25  1  0.75000000  0.75000000  0.04026000  1.0
  Ru  Ru26  1  0.00000000  0.75000000  0.96351000  1.0
  Ru  Ru27  1  0.26101000  0.74999000  0.87964000  1.0
  Ru  Ru28  1  0.50000000  0.75000000  0.12079000  1.0
  Ru  Ru29  1  0.25000000  0.75000000  0.04026000  1.0
  Ru  Ru30  1  0.50000000  0.75002000  0.96093000  1.0
  Ru  Ru31  1  0.73899000  0.74999000  0.87964000  1.0
  C  C32  1  0.00000000  0.24988000  0.84906000  1.0
