# generated using pymatgen
data_Li8Sn8Ge8Pd8CO
_symmetry_space_group_name_H-M   'P 1'
_cell_length_a   9.34812000
_cell_length_b   6.61012000
_cell_length_c   27.01110000
_cell_angle_alpha   90.00000000
_cell_angle_beta   90.00000000
_cell_angle_gamma   90.00000000
_symmetry_Int_Tables_number   1
_chemical_formula_structural   Li8Sn8Ge8Pd8CO
_chemical_formula_sum   'Li8 Sn8 Ge8 Pd8 C1 O1'
_cell_volume   1669.07515767
_cell_formula_units_Z   1
loop_
 _symmetry_equiv_pos_site_id
 _symmetry_equiv_pos_as_xyz
  1  'x, y, z'
loop_
 _atom_site_type_symbol
 _atom_site_label
 _atom_site_symmetry_multiplicity
 _atom_site_fract_x
 _atom_site_fract_y
 _atom_site_fract_z
 _atom_site_occupancy
  Li  Li0  1  0.00000000  0.75000000  0.04326000  1.0
  Li  Li1  1  0.50000000  0.75000000  0.04326000  1.0
  Li  Li2  1  0.25000000  0.25000000  0.12978000  1.0
  Li  Li3  1  0.75000000  0.25000000  0.12978000  1.0
  Li  Li4  1  0.50000000  0.70623000  0.85261000  1.0
  Li  Li5  1  0.00000000  0.70428000  0.85746000  1.0
  Li  Li6  1  0.74259000  0.22866000  0.95759000  1.0
  Li  Li7  1  0.25741000  0.22866000  0.95759000  1.0
  Sn  Sn8  1  0.25000000  0.00000000  0.04326000  1.0
  Sn  Sn9  1  0.75000000  0.00000000  0.04326000  1.0
  Sn  Sn10  1  0.50000000  0.50000000  0.12978000  1.0
  Sn  Sn11  1  0.00000000  0.50000000  0.12978000  1.0
  Sn  Sn12  1  0.75106000  0.99135000  0.86532000  1.0
  Sn  Sn13  1  0.24894000  0.99135000  0.86532000  1.0
  Sn  Sn14  1  0.00000000  0.49000000  0.95475000  1.0
  Sn  Sn15  1  0.50000000  0.50942000  0.95752000  1.0
  Ge  Ge16  1  0.00000000  0.00000000  0.12978000  1.0
  Ge  Ge17  1  0.50000000  0.00000000  0.12978000  1.0
  Ge  Ge18  1  0.75000000  0.50000000  0.04326000  1.0
  Ge  Ge19  1  0.25000000  0.50000000  0.04326000  1.0
  Ge  Ge20  1  0.50000000  0.96509000  0.95300000  1.0
  Ge  Ge21  1  0.00000000  0.99068000  0.94557000  1.0
  Ge  Ge22  1  0.26108000  0.47947000  0.87495000  1.0
  Ge  Ge23  1  0.73892000  0.47947000  0.87495000  1.0
  Pd  Pd24  1  0.00000000  0.25000000  0.04326000  1.0
  Pd  Pd25  1  0.50000000  0.25000000  0.04326000  1.0
  Pd  Pd26  1  0.25000000  0.75000000  0.12978000  1.0
  Pd  Pd27  1  0.75000000  0.75000000  0.12978000  1.0
  Pd  Pd28  1  0.50000000  0.22878000  0.88292000  1.0
  Pd  Pd29  1  0.00000000  0.28183000  0.86351000  1.0
  Pd  Pd30  1  0.75830000  0.75244000  0.95768000  1.0
  Pd  Pd31  1  0.24170000  0.75244000  0.95768000  1.0
  C  C32  1  0.00000000  0.27374000  0.79060000  1.0
  O  O33  1  0.00000000  0.27317000  0.74794000  1.0
