# generated using pymatgen
data_Li16Ag8Sn8CO
_symmetry_space_group_name_H-M   'P 1'
_cell_length_a   9.41809000
_cell_length_b   6.65960000
_cell_length_c   27.06360000
_cell_angle_alpha   90.00000000
_cell_angle_beta   90.00000000
_cell_angle_gamma   90.00000000
_symmetry_Int_Tables_number   1
_chemical_formula_structural   Li16Ag8Sn8CO
_chemical_formula_sum   'Li16 Ag8 Sn8 C1 O1'
_cell_volume   1697.44826572
_cell_formula_units_Z   1
loop_
 _symmetry_equiv_pos_site_id
 _symmetry_equiv_pos_as_xyz
  1  'x, y, z'
loop_
 _atom_site_type_symbol
 _atom_site_label
 _atom_site_symmetry_multiplicity
 _atom_site_fract_x
 _atom_site_fract_y
 _atom_site_fract_z
 _atom_site_occupancy
  Li  Li0  1  0.50000000  0.00000000  0.04350000  1.0
  Li  Li1  1  0.75000000  0.50000000  0.13050000  1.0
  Li  Li2  1  0.00000000  0.00000000  0.04350000  1.0
  Li  Li3  1  0.25000000  0.50000000  0.13050000  1.0
  Li  Li4  1  0.75000000  0.25000000  0.04350000  1.0
  Li  Li5  1  0.25000000  0.25000000  0.04350000  1.0
  Li  Li6  1  0.50000000  0.75000000  0.13050000  1.0
  Li  Li7  1  0.00000000  0.75000000  0.13050000  1.0
  Li  Li8  1  0.00000000  0.98153000  0.87323000  1.0
  Li  Li9  1  0.24928000  0.48897000  0.96095000  1.0
  Li  Li10  1  0.50000000  0.99079000  0.87240000  1.0
  Li  Li11  1  0.75072000  0.48897000  0.96095000  1.0
  Li  Li12  1  0.24697000  0.27186000  0.86706000  1.0
  Li  Li13  1  0.75303000  0.27186000  0.86706000  1.0
  Li  Li14  1  0.00000000  0.74246000  0.95565000  1.0
  Li  Li15  1  0.50000000  0.73459000  0.95289000  1.0
  Ag  Ag16  1  0.00000000  0.25000000  0.13050000  1.0
  Ag  Ag17  1  0.50000000  0.25000000  0.13050000  1.0
  Ag  Ag18  1  0.25000000  0.75000000  0.04350000  1.0
  Ag  Ag19  1  0.75000000  0.75000000  0.04350000  1.0
  Ag  Ag20  1  0.50000000  0.26346000  0.95373000  1.0
  Ag  Ag21  1  0.00000000  0.26102000  0.95287000  1.0
  Ag  Ag22  1  0.74471000  0.71967000  0.87864000  1.0
  Ag  Ag23  1  0.25529000  0.71967000  0.87864000  1.0
  Sn  Sn24  1  0.75000000  0.00000000  0.13050000  1.0
  Sn  Sn25  1  0.00000000  0.50000000  0.04350000  1.0
  Sn  Sn26  1  0.50000000  0.50000000  0.04350000  1.0
  Sn  Sn27  1  0.25000000  0.00000000  0.13050000  1.0
  Sn  Sn28  1  0.24997000  0.00849000  0.95426000  1.0
  Sn  Sn29  1  0.50000000  0.48733000  0.86001000  1.0
  Sn  Sn30  1  0.00000000  0.50491000  0.86354000  1.0
  Sn  Sn31  1  0.75003000  0.00849000  0.95426000  1.0
  C  C32  1  0.00000000  0.00500000  0.79676000  1.0
  O  O33  1  0.00000000  0.00682000  0.75450000  1.0
