# generated using pymatgen
data_Li16Ag8Sn8CO
_symmetry_space_group_name_H-M   Pm
_cell_length_a   6.65960000
_cell_length_b   9.41809000
_cell_length_c   27.06360000
_cell_angle_alpha   90.00000000
_cell_angle_beta   90.00000000
_cell_angle_gamma   90.00000000
_symmetry_Int_Tables_number   6
_chemical_formula_structural   Li16Ag8Sn8CO
_chemical_formula_sum   'Li16 Ag8 Sn8 C1 O1'
_cell_volume   1697.44826572
_cell_formula_units_Z   1
loop_
 _symmetry_equiv_pos_site_id
 _symmetry_equiv_pos_as_xyz
  1  'x, y, z'
  2  'x, -y, z'
loop_
 _atom_site_type_symbol
 _atom_site_label
 _atom_site_symmetry_multiplicity
 _atom_site_fract_x
 _atom_site_fract_y
 _atom_site_fract_z
 _atom_site_occupancy
  Li  Li0  2  0.25000000  0.25000000  0.95650000  1.0
  Li  Li1  2  0.27186000  0.24697000  0.13294000  1.0
  Li  Li2  2  0.48897000  0.24928000  0.03905000  1.0
  Li  Li3  2  0.50000000  0.25000000  0.86950000  1.0
  Li  Li4  1  0.00000000  0.00000000  0.95650000  1.0
  Li  Li5  1  0.00000000  0.50000000  0.95650000  1.0
  Li  Li6  1  0.73459000  0.50000000  0.04711000  1.0
  Li  Li7  1  0.74246000  0.00000000  0.04435000  1.0
  Li  Li8  1  0.75000000  0.00000000  0.86950000  1.0
  Li  Li9  1  0.75000000  0.50000000  0.86950000  1.0
  Li  Li10  1  0.98153000  0.00000000  0.12677000  1.0
  Li  Li11  1  0.99079000  0.50000000  0.12760000  1.0
  Ag  Ag12  2  0.71967000  0.25529000  0.12136000  1.0
  Ag  Ag13  2  0.75000000  0.25000000  0.95650000  1.0
  Ag  Ag14  1  0.25000000  0.00000000  0.86950000  1.0
  Ag  Ag15  1  0.25000000  0.50000000  0.86950000  1.0
  Ag  Ag16  1  0.26102000  0.00000000  0.04713000  1.0
  Ag  Ag17  1  0.26346000  0.50000000  0.04627000  1.0
  Sn  Sn18  2  0.00000000  0.25000000  0.86950000  1.0
  Sn  Sn19  2  0.00849000  0.24997000  0.04574000  1.0
  Sn  Sn20  1  0.48733000  0.50000000  0.13999000  1.0
  Sn  Sn21  1  0.50000000  0.00000000  0.95650000  1.0
  Sn  Sn22  1  0.50000000  0.50000000  0.95650000  1.0
  Sn  Sn23  1  0.50491000  0.00000000  0.13646000  1.0
  C  C24  1  0.00500000  0.00000000  0.20324000  1.0
  O  O25  1  0.00682000  0.00000000  0.24550000  1.0
