# generated using pymatgen
data_Li16Al8Ag8C
_symmetry_space_group_name_H-M   Pm
_cell_length_a   6.34834000
_cell_length_b   8.97791000
_cell_length_c   26.73340000
_cell_angle_alpha   90.00000000
_cell_angle_beta   90.00000000
_cell_angle_gamma   90.00000000
_symmetry_Int_Tables_number   6
_chemical_formula_structural   Li16Al8Ag8C
_chemical_formula_sum   'Li16 Al8 Ag8 C1'
_cell_volume   1523.66545918
_cell_formula_units_Z   1
loop_
 _symmetry_equiv_pos_site_id
 _symmetry_equiv_pos_as_xyz
  1  'x, y, z'
  2  'x, -y, z'
loop_
 _atom_site_type_symbol
 _atom_site_label
 _atom_site_symmetry_multiplicity
 _atom_site_fract_x
 _atom_site_fract_y
 _atom_site_fract_z
 _atom_site_occupancy
  Li  Li0  2  -0.00000000  0.25000000  0.95802000  1.0
  Li  Li1  2  0.74752000  0.24766000  0.04212000  1.0
  Li  Li2  2  0.75000000  0.25000000  0.87406000  1.0
  Li  Li3  2  0.97488000  0.27376000  0.12766000  1.0
  Li  Li4  1  0.17633000  0.00000000  0.13174000  1.0
  Li  Li5  1  0.25000000  0.00000000  0.95802000  1.0
  Li  Li6  1  0.25000000  0.50000000  0.95802000  1.0
  Li  Li7  1  0.27950000  0.50000000  0.12442000  1.0
  Li  Li8  1  0.47636000  0.00000000  0.04417000  1.0
  Li  Li9  1  0.49783000  0.50000000  0.03480000  1.0
  Li  Li10  1  0.50000000  0.00000000  0.87406000  1.0
  Li  Li11  1  0.50000000  0.50000000  0.87406000  1.0
  Al  Al12  2  0.48231000  0.21503000  0.13055000  1.0
  Al  Al13  2  0.50000000  0.25000000  0.95802000  1.0
  Al  Al14  1  -0.00000000  0.50000000  0.87406000  1.0
  Al  Al15  1  0.00000000  0.00000000  0.87406000  1.0
  Al  Al16  1  0.01994000  0.00000000  0.03543000  1.0
  Al  Al17  1  0.99174000  0.50000000  0.04346000  1.0
  Ag  Ag18  2  0.24551000  0.25930000  0.04244000  1.0
  Ag  Ag19  2  0.25000000  0.25000000  0.87406000  1.0
  Ag  Ag20  1  0.70201000  0.50000000  0.12162000  1.0
  Ag  Ag21  1  0.75000000  0.00000000  0.95802000  1.0
  Ag  Ag22  1  0.75000000  0.50000000  0.95802000  1.0
  Ag  Ag23  1  0.79230000  0.00000000  0.11180000  1.0
  C  C24  1  0.47743000  0.00000000  0.14016000  1.0
