# generated using pymatgen
data_V4Ir12CO
_symmetry_space_group_name_H-M   'P 1'
_cell_length_a   7.70199000
_cell_length_b   5.44613000
_cell_length_c   24.08460000
_cell_angle_alpha   90.00000000
_cell_angle_beta   90.00000000
_cell_angle_gamma   90.00000000
_symmetry_Int_Tables_number   1
_chemical_formula_structural   V4Ir12CO
_chemical_formula_sum   'V4 Ir12 C1 O1'
_cell_volume   1010.25356605
_cell_formula_units_Z   1
loop_
 _symmetry_equiv_pos_site_id
 _symmetry_equiv_pos_as_xyz
  1  'x, y, z'
loop_
 _atom_site_type_symbol
 _atom_site_label
 _atom_site_symmetry_multiplicity
 _atom_site_fract_x
 _atom_site_fract_y
 _atom_site_fract_z
 _atom_site_occupancy
  V  V0  1  0.75000000  0.00000000  0.91520000  1.0
  V  V1  1  0.75081000  0.49894000  0.03098000  1.0
  V  V2  1  0.25000000  0.00000000  0.91520000  1.0
  V  V3  1  0.24919000  0.49894000  0.03098000  1.0
  Ir  Ir4  1  0.75000000  0.50000000  0.91520000  1.0
  Ir  Ir5  1  0.50000000  0.25000000  0.97173000  1.0
  Ir  Ir6  1  0.50000000  0.75000000  0.97173000  1.0
  Ir  Ir7  1  0.75034000  0.00156000  0.02426000  1.0
  Ir  Ir8  1  0.50000000  0.75109000  0.08441000  1.0
  Ir  Ir9  1  0.50000000  0.26329000  0.07962000  1.0
  Ir  Ir10  1  0.25000000  0.50000000  0.91520000  1.0
  Ir  Ir11  1  0.00000000  0.25000000  0.97173000  1.0
  Ir  Ir12  1  0.00000000  0.75000000  0.97173000  1.0
  Ir  Ir13  1  0.24966000  0.00156000  0.02426000  1.0
  Ir  Ir14  1  0.00000000  0.73762000  0.08014000  1.0
  Ir  Ir15  1  0.00000000  0.25914000  0.08058000  1.0
  C  C16  1  0.50000000  0.75015000  0.16234000  1.0
  O  O17  1  0.50000000  0.74897000  0.21052000  1.0
