data_image0
_chemical_formula_structural       YInYInYInYInYInYInYInYInC
_chemical_formula_sum              "Y8 In8 C1"
_cell_length_a       7.55034
_cell_length_b       7.55034
_cell_length_c       25.6628
_cell_angle_alpha    90
_cell_angle_beta     90
_cell_angle_gamma    90

_space_group_name_H-M_alt    "P 1"
_space_group_IT_number       1

loop_
  _space_group_symop_operation_xyz
  'x, y, z'

loop_
  _atom_site_type_symbol
  _atom_site_label
  _atom_site_symmetry_multiplicity
  _atom_site_fract_x
  _atom_site_fract_y
  _atom_site_fract_z
  _atom_site_occupancy
  Y   Y1        1.0  0.25000  0.25000  0.96790  1.0000
  In  In1       1.0  0.00000  0.00000  0.89435  1.0000
  Y   Y2        1.0  0.25000  0.25000  0.11501  1.0000
  In  In2       1.0  0.00000  0.00000  0.04145  1.0000
  Y   Y3        1.0  0.25000  0.75000  0.96790  1.0000
  In  In3       1.0  0.00000  0.50000  0.89435  1.0000
  Y   Y4        1.0  0.25000  0.75000  0.11501  1.0000
  In  In4       1.0  0.00000  0.50000  0.04145  1.0000
  Y   Y5        1.0  0.75000  0.25000  0.96790  1.0000
  In  In5       1.0  0.50000  0.00000  0.89435  1.0000
  Y   Y6        1.0  0.75000  0.25000  0.11501  1.0000
  In  In6       1.0  0.50000  0.00000  0.04145  1.0000
  Y   Y7        1.0  0.75000  0.75000  0.96790  1.0000
  In  In7       1.0  0.50000  0.50000  0.89435  1.0000
  Y   Y8        1.0  0.75000  0.75000  0.11501  1.0000
  In  In8       1.0  0.50000  0.50000  0.04145  1.0000
  C   C1        1.0  0.00000  0.00000  0.14618  1.0000
