# generated using pymatgen
data_Y4In4Ge4Pd4CO
_symmetry_space_group_name_H-M   Pm
_cell_length_a   5.95203000
_cell_length_b   9.45024000
_cell_length_c   24.43650000
_cell_angle_alpha   90.00000000
_cell_angle_beta   90.00000000
_cell_angle_gamma   90.00000000
_symmetry_Int_Tables_number   6
_chemical_formula_structural   Y4In4Ge4Pd4CO
_chemical_formula_sum   'Y4 In4 Ge4 Pd4 C1 O1'
_cell_volume   1374.50698858
_cell_formula_units_Z   1
loop_
 _symmetry_equiv_pos_site_id
 _symmetry_equiv_pos_as_xyz
  1  'x, y, z'
  2  'x, -y, z'
loop_
 _atom_site_type_symbol
 _atom_site_label
 _atom_site_symmetry_multiplicity
 _atom_site_fract_x
 _atom_site_fract_y
 _atom_site_fract_z
 _atom_site_occupancy
  Y  Y0  1  0.50295000  0.50000000  0.08912000  1.0
  Y  Y1  1  0.50481000  0.00000000  0.09074000  1.0
  Y  Y2  1  0.94453000  0.00000000  0.96974000  1.0
  Y  Y3  1  0.94453000  0.50000000  0.96974000  1.0
  In  In4  2  0.21412000  0.24913000  0.03654000  1.0
  In  In5  2  0.66680000  0.25000000  0.90922000  1.0
  Ge  Ge6  1  0.44453000  0.00000000  0.96974000  1.0
  Ge  Ge7  1  0.44453000  0.50000000  0.96974000  1.0
  Ge  Ge8  1  0.99628000  0.00000000  0.09404000  1.0
  Ge  Ge9  1  0.99654000  0.50000000  0.09243000  1.0
  Pd  Pd10  2  0.16680000  0.25000000  0.90922000  1.0
  Pd  Pd11  2  0.72065000  0.24952000  0.03815000  1.0
  C  C12  1  0.49100000  0.00000000  0.19517000  1.0
  O  O13  1  0.48724000  0.00000000  0.24197000  1.0
