data_image0
_chemical_formula_structural       Al4V4Co8
_chemical_formula_sum              "Al4 V4 Co8"
_cell_length_a       5.76795
_cell_length_b       5.76795
_cell_length_c       24.326
_cell_angle_alpha    90
_cell_angle_beta     90
_cell_angle_gamma    90

_space_group_name_H-M_alt    "P 1"
_space_group_IT_number       1

loop_
  _space_group_symop_operation_xyz
  'x, y, z'

loop_
  _atom_site_type_symbol
  _atom_site_label
  _atom_site_symmetry_multiplicity
  _atom_site_fract_x
  _atom_site_fract_y
  _atom_site_fract_z
  _atom_site_occupancy
  Al  Al1       1.0  0.00000  0.00000  0.91108  1.0000
  Al  Al2       1.0  0.50000  0.50000  0.91108  1.0000
  Al  Al3       1.0  0.50000  0.00000  0.02964  1.0000
  Al  Al4       1.0  0.00000  0.50000  0.02964  1.0000
  V   V1        1.0  0.00000  0.00000  0.02964  1.0000
  V   V2        1.0  0.50000  0.00000  0.91108  1.0000
  V   V3        1.0  0.00000  0.50000  0.91108  1.0000
  V   V4        1.0  0.50000  0.50000  0.02964  1.0000
  Co  Co1       1.0  0.25000  0.25000  0.97036  1.0000
  Co  Co2       1.0  0.75000  0.75000  0.08892  1.0000
  Co  Co3       1.0  0.75000  0.25000  0.97036  1.0000
  Co  Co4       1.0  0.25000  0.75000  0.08892  1.0000
  Co  Co5       1.0  0.75000  0.75000  0.97036  1.0000
  Co  Co6       1.0  0.25000  0.25000  0.08892  1.0000
  Co  Co7       1.0  0.25000  0.75000  0.97036  1.0000
  Co  Co8       1.0  0.75000  0.25000  0.08892  1.0000
