# generated using pymatgen
data_LiGePdAu
_symmetry_space_group_name_H-M   'P 1'
_cell_length_a   6.30991000
_cell_length_b   4.46178000
_cell_length_c   26.69270000
_cell_angle_alpha   90.00000000
_cell_angle_beta   90.00000000
_cell_angle_gamma   90.00000000
_symmetry_Int_Tables_number   1
_chemical_formula_structural   LiGePdAu
_chemical_formula_sum   'Li4 Ge4 Pd4 Au4'
_cell_volume   751.49106736
_cell_formula_units_Z   4
loop_
 _symmetry_equiv_pos_site_id
 _symmetry_equiv_pos_as_xyz
  1  'x, y, z'
loop_
 _atom_site_type_symbol
 _atom_site_label
 _atom_site_symmetry_multiplicity
 _atom_site_fract_x
 _atom_site_fract_y
 _atom_site_fract_z
 _atom_site_occupancy
  Li  Li0  1  0.75000000  0.00000000  0.95821000  1.0
  Li  Li1  1  0.25000000  0.50000000  0.87463000  1.0
  Li  Li2  1  0.75205500  0.00000000  0.13209000  1.0
  Li  Li3  1  0.25275000  0.50000000  0.03885000  1.0
  Ge  Ge4  1  0.25000000  0.00000000  0.95821000  1.0
  Ge  Ge5  1  0.75000000  0.50000000  0.87463000  1.0
  Ge  Ge6  1  0.24000500  0.00000000  0.13013500  1.0
  Ge  Ge7  1  0.74665000  0.50000000  0.04358000  1.0
  Pd  Pd8  1  0.00000000  0.50000000  0.95821000  1.0
  Pd  Pd9  1  0.50000000  0.00000000  0.87463000  1.0
  Pd  Pd10  1  0.01439000  0.50000000  0.11804000  1.0
  Pd  Pd11  1  0.50122500  0.00000000  0.04454000  1.0
  Au  Au12  1  0.00000000  0.00000000  0.87463000  1.0
  Au  Au13  1  0.50000000  0.50000000  0.95821000  1.0
  Au  Au14  1  0.00524500  0.00000000  0.04365000  1.0
  Au  Au15  1  0.48251000  0.50000000  0.12370000  1.0
