# generated using pymatgen
data_Li4Y4Sn4Ge4C
_symmetry_space_group_name_H-M   Pm
_cell_length_a   6.05842000
_cell_length_b   9.43388000
_cell_length_c   24.54360000
_cell_angle_alpha   90.00000000
_cell_angle_beta   90.00000000
_cell_angle_gamma   90.00000000
_symmetry_Int_Tables_number   6
_chemical_formula_structural   Li4Y4Sn4Ge4C
_chemical_formula_sum   'Li4 Y4 Sn4 Ge4 C1'
_cell_volume   1402.77491026
_cell_formula_units_Z   1
loop_
 _symmetry_equiv_pos_site_id
 _symmetry_equiv_pos_as_xyz
  1  'x, y, z'
  2  'x, -y, z'
loop_
 _atom_site_type_symbol
 _atom_site_label
 _atom_site_symmetry_multiplicity
 _atom_site_fract_x
 _atom_site_fract_y
 _atom_site_fract_z
 _atom_site_occupancy
  Li  Li0  2  0.30352000  0.23954000  0.09303000  1.0
  Li  Li1  2  0.75236000  0.25000000  0.96915000  1.0
  Y  Y2  1  0.00135000  0.50000000  0.03205000  1.0
  Y  Y3  1  0.50000000  0.00000000  0.90744000  1.0
  Y  Y4  1  0.50000000  0.50000000  0.90744000  1.0
  Y  Y5  1  0.99987000  0.00000000  0.02500000  1.0
  Sn  Sn6  2  0.25236000  0.25000000  0.96915000  1.0
  Sn  Sn7  2  0.78207000  0.22925000  0.10880000  1.0
  Ge  Ge8  1  0.00000000  0.00000000  0.90744000  1.0
  Ge  Ge9  1  0.00000000  0.50000000  0.90744000  1.0
  Ge  Ge10  1  0.48504000  0.00000000  0.03201000  1.0
  Ge  Ge11  1  0.50296000  0.50000000  0.03533000  1.0
  C  C12  1  0.72349000  0.00000000  0.09212000  1.0
