# generated using pymatgen
data_Sc4In4Ge4Pd4CO
_symmetry_space_group_name_H-M   'P 1'
_cell_length_a   6.25342000
_cell_length_b   7.76578000
_cell_length_c   24.66560000
_cell_angle_alpha   90.00000000
_cell_angle_beta   90.00000000
_cell_angle_gamma   90.00000000
_symmetry_Int_Tables_number   1
_chemical_formula_structural   Sc4In4Ge4Pd4CO
_chemical_formula_sum   'Sc4 In4 Ge4 Pd4 C1 O1'
_cell_volume   1197.82773767
_cell_formula_units_Z   1
loop_
 _symmetry_equiv_pos_site_id
 _symmetry_equiv_pos_as_xyz
  1  'x, y, z'
loop_
 _atom_site_type_symbol
 _atom_site_label
 _atom_site_symmetry_multiplicity
 _atom_site_fract_x
 _atom_site_fract_y
 _atom_site_fract_z
 _atom_site_occupancy
  Sc  Sc0  1  0.22450000  0.25000000  0.03153000  1.0
  Sc  Sc1  1  0.68051000  0.25008000  0.91056000  1.0
  Sc  Sc2  1  0.22450000  0.75000000  0.03153000  1.0
  Sc  Sc3  1  0.67553000  0.75006000  0.91135000  1.0
  In  In4  1  0.72450000  0.25000000  0.03153000  1.0
  In  In5  1  0.17631000  0.25002000  0.89321000  1.0
  In  In6  1  0.72450000  0.75000000  0.03153000  1.0
  In  In7  1  0.17806000  0.74997000  0.89007000  1.0
  Ge  Ge8  1  0.00000000  0.00000000  0.09458000  1.0
  Ge  Ge9  1  0.43190000  0.99932000  0.96272000  1.0
  Ge  Ge10  1  0.00000000  0.50000000  0.09458000  1.0
  Ge  Ge11  1  0.43186000  0.50074000  0.96273000  1.0
  Pd  Pd12  1  0.50000000  0.00000000  0.09458000  1.0
  Pd  Pd13  1  0.97050000  0.99565000  0.96832000  1.0
  Pd  Pd14  1  0.50000000  0.50000000  0.09458000  1.0
  Pd  Pd15  1  0.97051000  0.50442000  0.96832000  1.0
  C  C16  1  0.77670000  0.24951000  0.82026000  1.0
  O  O17  1  0.81346000  0.24945000  0.77442000  1.0
