# generated using pymatgen
data_Sc4In4Ge4Pd4CO
_symmetry_space_group_name_H-M   P1
_cell_length_a   6.25342000
_cell_length_b   7.76578000
_cell_length_c   24.66560000
_cell_angle_alpha   90.00000000
_cell_angle_beta   90.00000000
_cell_angle_gamma   90.00000000
_symmetry_Int_Tables_number   1
_chemical_formula_structural   Sc4In4Ge4Pd4CO
_chemical_formula_sum   'Sc4 In4 Ge4 Pd4 C1 O1'
_cell_volume   1197.82773767
_cell_formula_units_Z   1
loop_
 _symmetry_equiv_pos_site_id
 _symmetry_equiv_pos_as_xyz
  1  'x, y, z'
loop_
 _atom_site_type_symbol
 _atom_site_label
 _atom_site_symmetry_multiplicity
 _atom_site_fract_x
 _atom_site_fract_y
 _atom_site_fract_z
 _atom_site_occupancy
  Sc  Sc0  1  0.31949000  0.74992000  0.91056000  1.0
  Sc  Sc1  1  0.32447000  0.24994000  0.91135000  1.0
  Sc  Sc2  1  0.77550000  0.25000000  0.03153000  1.0
  Sc  Sc3  1  0.77550000  0.75000000  0.03153000  1.0
  In  In4  1  0.27550000  0.25000000  0.03153000  1.0
  In  In5  1  0.27550000  0.75000000  0.03153000  1.0
  In  In6  1  0.82194000  0.25003000  0.89007000  1.0
  In  In7  1  0.82369000  0.74998000  0.89321000  1.0
  Ge  Ge8  1  0.00000000  0.00000000  0.09458000  1.0
  Ge  Ge9  1  0.00000000  0.50000000  0.09458000  1.0
  Ge  Ge10  1  0.56810000  0.00068000  0.96272000  1.0
  Ge  Ge11  1  0.56814000  0.49926000  0.96273000  1.0
  Pd  Pd12  1  0.02949000  0.49558000  0.96832000  1.0
  Pd  Pd13  1  0.02950000  0.00435000  0.96832000  1.0
  Pd  Pd14  1  0.50000000  0.00000000  0.09458000  1.0
  Pd  Pd15  1  0.50000000  0.50000000  0.09458000  1.0
  C  C16  1  0.22330000  0.75049000  0.82026000  1.0
  O  O17  1  0.18654000  0.75055000  0.77442000  1.0
