# generated using pymatgen
data_Na4Pb12CO
_symmetry_space_group_name_H-M   Pmm2
_cell_length_a   7.08799000
_cell_length_b   10.02390000
_cell_length_c   25.31600000
_cell_angle_alpha   90.00000000
_cell_angle_beta   90.00000000
_cell_angle_gamma   90.00000000
_symmetry_Int_Tables_number   25
_chemical_formula_structural   Na4Pb12CO
_chemical_formula_sum   'Na4 Pb12 C1 O1'
_cell_volume   1798.68415376
_cell_formula_units_Z   1
loop_
 _symmetry_equiv_pos_site_id
 _symmetry_equiv_pos_as_xyz
  1  'x, y, z'
  2  '-x, -y, z'
  3  '-x, y, z'
  4  'x, -y, z'
loop_
 _atom_site_type_symbol
 _atom_site_label
 _atom_site_symmetry_multiplicity
 _atom_site_fract_x
 _atom_site_fract_y
 _atom_site_fract_z
 _atom_site_occupancy
  Na  Na0  1  0.00000000  0.00000000  0.90483000  1.0
  Na  Na1  1  0.00000000  0.50000000  0.90292000  1.0
  Na  Na2  1  0.50000000  0.00000000  0.03500000  1.0
  Na  Na3  1  0.50000000  0.50000000  0.03500000  1.0
  Pb  Pb4  4  0.25000000  0.25000000  0.10499000  1.0
  Pb  Pb5  4  0.26621000  0.25036000  0.96818000  1.0
  Pb  Pb6  1  0.00000000  0.00000000  0.03500000  1.0
  Pb  Pb7  1  0.00000000  0.50000000  0.03500000  1.0
  Pb  Pb8  1  0.50000000  0.00000000  0.90435000  1.0
  Pb  Pb9  1  0.50000000  0.50000000  0.90401000  1.0
  C  C10  1  0.00000000  0.00000000  0.80270000  1.0
  O  O11  1  0.00000000  0.00000000  0.75777000  1.0
