# generated using pymatgen
data_Li8Hf8Ge8Pd8C
_symmetry_space_group_name_H-M   Pm
_cell_length_a   6.42607000
_cell_length_b   9.08784000
_cell_length_c   26.81590000
_cell_angle_alpha   90.00000000
_cell_angle_beta   90.00000000
_cell_angle_gamma   90.00000000
_symmetry_Int_Tables_number   6
_chemical_formula_structural   Li8Hf8Ge8Pd8C
_chemical_formula_sum   'Li8 Hf8 Ge8 Pd8 C1'
_cell_volume   1566.02431813
_cell_formula_units_Z   1
loop_
 _symmetry_equiv_pos_site_id
 _symmetry_equiv_pos_as_xyz
  1  'x, y, z'
  2  'x, -y, z'
loop_
 _atom_site_type_symbol
 _atom_site_label
 _atom_site_symmetry_multiplicity
 _atom_site_fract_x
 _atom_site_fract_y
 _atom_site_fract_z
 _atom_site_occupancy
  Li  Li0  2  0.24673000  0.26985000  0.13396000  1.0
  Li  Li1  2  0.25000000  0.25000000  0.95764000  1.0
  Li  Li2  1  0.74444000  0.50000000  0.04047000  1.0
  Li  Li3  1  0.75000000  0.00000000  0.87291000  1.0
  Li  Li4  1  0.75000000  0.50000000  0.87291000  1.0
  Li  Li5  1  0.75314000  0.00000000  0.04430000  1.0
  Hf  Hf6  2  0.74442000  0.22918000  0.13157000  1.0
  Hf  Hf7  2  0.75000000  0.25000000  0.95764000  1.0
  Hf  Hf8  1  0.24255000  0.00000000  0.03993000  1.0
  Hf  Hf9  1  0.25000000  0.00000000  0.87291000  1.0
  Hf  Hf10  1  0.25000000  0.50000000  0.87291000  1.0
  Hf  Hf11  1  0.25878000  0.50000000  0.04558000  1.0
  Ge  Ge12  2  0.00000000  0.25000000  0.87291000  1.0
  Ge  Ge13  2  0.99725000  0.25644000  0.04798000  1.0
  Ge  Ge14  1  0.44934000  0.00000000  0.12759000  1.0
  Ge  Ge15  1  0.50000000  0.00000000  0.95764000  1.0
  Ge  Ge16  1  0.50000000  0.50000000  0.95764000  1.0
  Ge  Ge17  1  0.52255000  0.50000000  0.13010000  1.0
  Pd  Pd18  2  0.50000000  0.25000000  0.87291000  1.0
  Pd  Pd19  2  0.50678000  0.24156000  0.04834000  1.0
  Pd  Pd20  1  0.00000000  0.00000000  0.95764000  1.0
  Pd  Pd21  1  0.00000000  0.50000000  0.95764000  1.0
  Pd  Pd22  1  0.04788000  0.00000000  0.12645000  1.0
  Pd  Pd23  1  0.96720000  0.50000000  0.12049000  1.0
  C  C24  1  0.73167000  0.00000000  0.15523000  1.0
