# generated using pymatgen
data_Li8In8Cu8Pd8CO
_symmetry_space_group_name_H-M   Pm
_cell_length_a   6.33486000
_cell_length_b   8.95884000
_cell_length_c   26.71910000
_cell_angle_alpha   90.00000000
_cell_angle_beta   90.00000000
_cell_angle_gamma   90.00000000
_symmetry_Int_Tables_number   6
_chemical_formula_structural   Li8In8Cu8Pd8CO
_chemical_formula_sum   'Li8 In8 Cu8 Pd8 C1 O1'
_cell_volume   1516.38900648
_cell_formula_units_Z   1
loop_
 _symmetry_equiv_pos_site_id
 _symmetry_equiv_pos_as_xyz
  1  'x, y, z'
  2  'x, -y, z'
loop_
 _atom_site_type_symbol
 _atom_site_label
 _atom_site_symmetry_multiplicity
 _atom_site_fract_x
 _atom_site_fract_y
 _atom_site_fract_z
 _atom_site_occupancy
  Li  Li0  2  0.24171000  0.25808000  0.12852000  1.0
  Li  Li1  2  0.25000000  0.25000000  0.95809000  1.0
  Li  Li2  1  0.74851000  0.50000000  0.03576000  1.0
  Li  Li3  1  0.75000000  0.00000000  0.87426000  1.0
  Li  Li4  1  0.75000000  0.50000000  0.87426000  1.0
  Li  Li5  1  0.75936000  0.00000000  0.04023000  1.0
  In  In6  2  0.73846000  0.24838000  0.13624000  1.0
  In  In7  2  0.75000000  0.25000000  0.95809000  1.0
  In  In8  1  0.23946000  0.00000000  0.04215000  1.0
  In  In9  1  0.25000000  0.00000000  0.87426000  1.0
  In  In10  1  0.25000000  0.50000000  0.87426000  1.0
  In  In11  1  0.25012000  0.50000000  0.04135000  1.0
  Cu  Cu12  2  0.00000000  0.25000000  0.87426000  1.0
  Cu  Cu13  2  0.98619000  0.25082000  0.04677000  1.0
  Cu  Cu14  1  0.50000000  0.00000000  0.95809000  1.0
  Cu  Cu15  1  0.50000000  0.50000000  0.95809000  1.0
  Cu  Cu16  1  0.52302000  0.00000000  0.11568000  1.0
  Cu  Cu17  1  0.52669000  0.50000000  0.11615000  1.0
  Pd  Pd18  2  0.50000000  0.25000000  0.87426000  1.0
  Pd  Pd19  2  0.50558000  0.24700000  0.04487000  1.0
  Pd  Pd20  1  -0.00000000  0.50000000  0.95809000  1.0
  Pd  Pd21  1  -0.00000000  0.00000000  0.95809000  1.0
  Pd  Pd22  1  0.00108000  0.00000000  0.13096000  1.0
  Pd  Pd23  1  0.96422000  0.50000000  0.11653000  1.0
  C  C24  1  0.11846000  0.00000000  0.19869000  1.0
  O  O25  1  0.16339000  0.00000000  0.24057000  1.0
