# generated using pymatgen
data_Li2ZnGe
_symmetry_space_group_name_H-M   Pm
_cell_length_a   6.18893000
_cell_length_b   4.37623000
_cell_length_c   26.56430000
_cell_angle_alpha   90.00000000
_cell_angle_beta   90.00000000
_cell_angle_gamma   90.00000000
_symmetry_Int_Tables_number   6
_chemical_formula_structural   Li2ZnGe
_chemical_formula_sum   'Li8 Zn4 Ge4'
_cell_volume   719.47231290
_cell_formula_units_Z   4
loop_
 _symmetry_equiv_pos_site_id
 _symmetry_equiv_pos_as_xyz
  1  'x, y, z'
  2  'x, -y, z'
loop_
 _atom_site_type_symbol
 _atom_site_label
 _atom_site_symmetry_multiplicity
 _atom_site_fract_x
 _atom_site_fract_y
 _atom_site_fract_z
 _atom_site_occupancy
  Li  Li0  1  0.00000000  0.00000000  0.12356000  1.0
  Li  Li1  1  0.01558500  0.00000000  0.95810000  1.0
  Li  Li2  1  0.21736500  0.00000000  0.86126500  1.0
  Li  Li3  1  0.25000000  0.00000000  0.04119000  1.0
  Li  Li4  1  0.50000000  0.50000000  0.04119000  1.0
  Li  Li5  1  0.51262500  0.50000000  0.87466500  1.0
  Li  Li6  1  0.75000000  0.50000000  0.12356000  1.0
  Li  Li7  1  0.75212500  0.50000000  0.95882000  1.0
  Zn  Zn8  1  0.24826000  0.50000000  0.95674000  1.0
  Zn  Zn9  1  0.25000000  0.50000000  0.12356000  1.0
  Zn  Zn10  1  0.75000000  0.00000000  0.04119000  1.0
  Zn  Zn11  1  0.77343000  0.00000000  0.87949000  1.0
  Ge  Ge12  1  0.00000000  0.50000000  0.04119000  1.0
  Ge  Ge13  1  0.48925000  0.00000000  0.95306000  1.0
  Ge  Ge14  1  0.50000000  0.00000000  0.12356000  1.0
  Ge  Ge15  1  0.99563500  0.50000000  0.87433500  1.0
