# generated using pymatgen
data_Fe8Co16Ge8C
_symmetry_space_group_name_H-M   Pm
_cell_length_a   5.76795000
_cell_length_b   8.15711000
_cell_length_c   26.11780000
_cell_angle_alpha   90.00000000
_cell_angle_beta   90.00000000
_cell_angle_gamma   90.00000000
_symmetry_Int_Tables_number   6
_chemical_formula_structural   Fe8Co16Ge8C
_chemical_formula_sum   'Fe8 Co16 Ge8 C1'
_cell_volume   1228.83733499
_cell_formula_units_Z   1
loop_
 _symmetry_equiv_pos_site_id
 _symmetry_equiv_pos_as_xyz
  1  'x, y, z'
  2  'x, -y, z'
loop_
 _atom_site_type_symbol
 _atom_site_label
 _atom_site_symmetry_multiplicity
 _atom_site_fract_x
 _atom_site_fract_y
 _atom_site_fract_z
 _atom_site_occupancy
  Fe  Fe0  2  0.00000000  0.25002000  0.88288000  1.0
  Fe  Fe1  2  0.99560000  0.25265000  0.03845000  1.0
  Fe  Fe2  1  0.49253000  0.50000000  0.11589000  1.0
  Fe  Fe3  1  0.50000000  0.00000000  0.96096000  1.0
  Fe  Fe4  1  0.50000000  0.50000000  0.96096000  1.0
  Fe  Fe5  1  0.53759000  0.00000000  0.11492000  1.0
  Co  Co6  2  0.23556000  0.23636000  0.11181000  1.0
  Co  Co7  2  0.25000000  0.25002000  0.96096000  1.0
  Co  Co8  2  0.75000000  0.24998000  0.96096000  1.0
  Co  Co9  2  0.75299000  0.25625000  0.11289000  1.0
  Co  Co10  1  0.24454000  0.00000000  0.04128000  1.0
  Co  Co11  1  0.24863000  0.50000000  0.03899000  1.0
  Co  Co12  1  0.25000000  0.00000000  0.88288000  1.0
  Co  Co13  1  0.25000000  0.50000000  0.88288000  1.0
  Co  Co14  1  0.74918000  0.50000000  0.03914000  1.0
  Co  Co15  1  0.75000000  0.00000000  0.88288000  1.0
  Co  Co16  1  0.75000000  0.50000000  0.88288000  1.0
  Co  Co17  1  0.75930000  0.00000000  0.03843000  1.0
  Ge  Ge18  2  0.49935000  0.24942000  0.03878000  1.0
  Ge  Ge19  2  0.50000000  0.25002000  0.88288000  1.0
  Ge  Ge20  1  0.00000000  0.00000000  0.96096000  1.0
  Ge  Ge21  1  0.00000000  0.50000000  0.96096000  1.0
  Ge  Ge22  1  0.00821000  0.50000000  0.12262000  1.0
  Ge  Ge23  1  0.91697000  0.00000000  0.14860000  1.0
  C  C24  1  0.22548000  0.00000000  0.12024000  1.0
