data_image0
_chemical_formula_structural       Al16Fe16
_chemical_formula_sum              "Al16 Fe16"
_cell_length_a       5.75078
_cell_length_b       8.13283
_cell_length_c       26.0996
_cell_angle_alpha    90
_cell_angle_beta     90
_cell_angle_gamma    90

_space_group_name_H-M_alt    "P 1"
_space_group_IT_number       1

loop_
  _space_group_symop_operation_xyz
  'x, y, z'

loop_
  _atom_site_type_symbol
  _atom_site_label
  _atom_site_symmetry_multiplicity
  _atom_site_fract_x
  _atom_site_fract_y
  _atom_site_fract_z
  _atom_site_occupancy
  Al  Al1       1.0  0.00000  0.00000  0.88315  1.0000
  Al  Al2       1.0  0.00000  0.25000  0.96105  1.0000
  Al  Al3       1.0  0.00001  0.50001  0.03508  1.0000
  Al  Al4       1.0  0.00001  0.25000  0.13121  1.0000
  Al  Al5       1.0  0.00000  0.50000  0.88315  1.0000
  Al  Al6       1.0  0.00000  0.75000  0.96105  1.0000
  Al  Al7       1.0  0.00001  0.99998  0.03508  1.0000
  Al  Al8       1.0  1.00000  0.75001  0.13119  1.0000
  Al  Al9       1.0  0.50000  0.00000  0.88315  1.0000
  Al  Al10      1.0  0.50000  0.25000  0.96105  1.0000
  Al  Al11      1.0  0.49999  0.50001  0.03508  1.0000
  Al  Al12      1.0  0.49999  0.25000  0.13121  1.0000
  Al  Al13      1.0  0.50000  0.50000  0.88315  1.0000
  Al  Al14      1.0  0.50000  0.75000  0.96105  1.0000
  Al  Al15      1.0  0.49999  0.99998  0.03508  1.0000
  Al  Al16      1.0  0.50000  0.75001  0.13119  1.0000
  Fe  Fe1       1.0  0.25000  0.25000  0.88315  1.0000
  Fe  Fe2       1.0  0.25000  0.00000  0.96105  1.0000
  Fe  Fe3       1.0  0.25000  0.24998  0.04741  1.0000
  Fe  Fe4       1.0  0.25000  0.00008  0.11439  1.0000
  Fe  Fe5       1.0  0.25000  0.75000  0.88315  1.0000
  Fe  Fe6       1.0  0.25000  0.50000  0.96105  1.0000
  Fe  Fe7       1.0  0.25000  0.75002  0.04739  1.0000
  Fe  Fe8       1.0  0.25000  0.49993  0.11439  1.0000
  Fe  Fe9       1.0  0.75000  0.25000  0.88315  1.0000
  Fe  Fe10      1.0  0.75000  0.00000  0.96105  1.0000
  Fe  Fe11      1.0  0.75000  0.24998  0.04741  1.0000
  Fe  Fe12      1.0  0.75000  0.00009  0.11438  1.0000
  Fe  Fe13      1.0  0.75000  0.75000  0.88315  1.0000
  Fe  Fe14      1.0  0.75000  0.50000  0.96105  1.0000
  Fe  Fe15      1.0  0.75000  0.75002  0.04740  1.0000
  Fe  Fe16      1.0  0.75000  0.49992  0.11439  1.0000
