# generated using pymatgen
data_AlFe
_symmetry_space_group_name_H-M   Pmm2
_cell_length_a   2.87539000
_cell_length_b   8.13283000
_cell_length_c   26.09960000
_cell_angle_alpha   90.00000000
_cell_angle_beta   90.00000000
_cell_angle_gamma   90.00000000
_symmetry_Int_Tables_number   25
_chemical_formula_structural   AlFe
_chemical_formula_sum   'Al8 Fe8'
_cell_volume   610.34066118
_cell_formula_units_Z   8
loop_
 _symmetry_equiv_pos_site_id
 _symmetry_equiv_pos_as_xyz
  1  'x, y, z'
  2  '-x, -y, z'
  3  '-x, y, z'
  4  'x, -y, z'
loop_
 _atom_site_type_symbol
 _atom_site_label
 _atom_site_symmetry_multiplicity
 _atom_site_fract_x
 _atom_site_fract_y
 _atom_site_fract_z
 _atom_site_occupancy
  Al  Al0  2  0.00000000  0.25000000  0.88315000  1.0
  Al  Al1  2  0.00000000  0.25001000  0.03508000  1.0
  Al  Al2  1  0.00000000  0.00000000  0.13121000  1.0
  Al  Al3  1  0.00000000  0.00000000  0.96105000  1.0
  Al  Al4  1  0.00000000  0.50000000  0.13119000  1.0
  Al  Al5  1  0.00000000  0.50000000  0.96105000  1.0
  Fe  Fe6  2  0.50000000  0.24991500  0.11438500  1.0
  Fe  Fe7  2  0.50000000  0.25000000  0.96105000  1.0
  Fe  Fe8  1  0.50000000  0.00000000  0.04741000  1.0
  Fe  Fe9  1  0.50000000  0.00000000  0.88315000  1.0
  Fe  Fe10  1  0.50000000  0.50000000  0.04739500  1.0
  Fe  Fe11  1  0.50000000  0.50000000  0.88315000  1.0
