data_image0
_chemical_formula_structural       Li8In16Ir8CO
_chemical_formula_sum              "Li8 In16 Ir8 C1 O1"
_cell_length_a       6.5792
_cell_length_b       9.30439
_cell_length_c       26.9783
_cell_angle_alpha    90
_cell_angle_beta     90
_cell_angle_gamma    90

_space_group_name_H-M_alt    "P 1"
_space_group_IT_number       1

loop_
  _space_group_symop_operation_xyz
  'x, y, z'

loop_
  _atom_site_type_symbol
  _atom_site_label
  _atom_site_symmetry_multiplicity
  _atom_site_fract_x
  _atom_site_fract_y
  _atom_site_fract_z
  _atom_site_occupancy
  Li  Li1       1.0  0.00000  0.00000  0.87067  1.0000
  Li  Li2       1.0  0.50000  0.25000  0.95689  1.0000
  Li  Li3       1.0  0.50000  0.75000  0.95689  1.0000
  Li  Li4       1.0  0.00000  0.50000  0.87067  1.0000
  Li  Li5       1.0  0.00001  0.49833  0.04359  1.0000
  Li  Li6       1.0  0.50000  0.75000  0.13386  1.0000
  Li  Li7       1.0  0.50001  0.24999  0.14219  1.0000
  Li  Li8       1.0  0.00000  0.00166  0.04360  1.0000
  In  In1       1.0  0.25000  0.00000  0.95689  1.0000
  In  In2       1.0  0.75000  0.50000  0.95689  1.0000
  In  In3       1.0  0.75000  0.00000  0.95689  1.0000
  In  In4       1.0  0.25000  0.50000  0.95689  1.0000
  In  In5       1.0  0.75000  0.75000  0.87067  1.0000
  In  In6       1.0  0.25000  0.25000  0.87067  1.0000
  In  In7       1.0  0.25000  0.75000  0.87067  1.0000
  In  In8       1.0  0.75000  0.25000  0.87067  1.0000
  In  In9       1.0  0.23849  0.50083  0.13420  1.0000
  In  In10      1.0  0.76156  0.99916  0.13420  1.0000
  In  In11      1.0  0.76151  0.50085  0.13419  1.0000
  In  In12      1.0  0.23844  0.99918  0.13420  1.0000
  In  In13      1.0  0.74296  0.24999  0.04334  1.0000
  In  In14      1.0  0.25298  0.75000  0.04293  1.0000
  In  In15      1.0  0.25704  0.24998  0.04334  1.0000
  In  In16      1.0  0.74703  0.75000  0.04293  1.0000
  Ir  Ir1       1.0  0.00000  0.75000  0.95689  1.0000
  Ir  Ir2       1.0  0.50000  0.00000  0.87067  1.0000
  Ir  Ir3       1.0  0.00000  0.25000  0.95689  1.0000
  Ir  Ir4       1.0  0.50000  0.50000  0.87067  1.0000
  Ir  Ir5       1.0  0.00001  0.24997  0.12176  1.0000
  Ir  Ir6       1.0  0.50002  0.50130  0.04120  1.0000
  Ir  Ir7       1.0  0.99996  0.75002  0.12274  1.0000
  Ir  Ir8       1.0  0.50000  0.99873  0.04120  1.0000
  C   C1        1.0  0.50002  0.25000  0.22060  1.0000
  O   O1        1.0  0.50001  0.25000  0.26292  1.0000
