# generated using pymatgen
data_Li8In16Ir8CO
_symmetry_space_group_name_H-M   Pmm2
_cell_length_a   6.57920000
_cell_length_b   9.30439000
_cell_length_c   26.97830000
_cell_angle_alpha   90.00000000
_cell_angle_beta   90.00000000
_cell_angle_gamma   90.00000000
_symmetry_Int_Tables_number   25
_chemical_formula_structural   Li8In16Ir8CO
_chemical_formula_sum   'Li8 In16 Ir8 C1 O1'
_cell_volume   1651.48857747
_cell_formula_units_Z   1
loop_
 _symmetry_equiv_pos_site_id
 _symmetry_equiv_pos_as_xyz
  1  'x, y, z'
  2  '-x, -y, z'
  3  '-x, y, z'
  4  'x, -y, z'
loop_
 _atom_site_type_symbol
 _atom_site_label
 _atom_site_symmetry_multiplicity
 _atom_site_fract_x
 _atom_site_fract_y
 _atom_site_fract_z
 _atom_site_occupancy
  Li  Li0  2  0.00000000  0.24833000  0.04359000  1.0
  Li  Li1  2  0.00000000  0.25000000  0.87067000  1.0
  Li  Li2  1  0.50000000  0.00000000  0.14219000  1.0
  Li  Li3  1  0.50000000  0.00000000  0.95689000  1.0
  Li  Li4  1  0.50000000  0.50000000  0.13386000  1.0
  Li  Li5  1  0.50000000  0.50000000  0.95689000  1.0
  In  In6  4  0.23847000  0.25083000  0.13420000  1.0
  In  In7  4  0.24998000  0.25000000  0.95689000  1.0
  In  In8  2  0.24998000  0.00000000  0.87067000  1.0
  In  In9  2  0.25002000  0.50000000  0.87067000  1.0
  In  In10  2  0.25296000  0.50000000  0.04293000  1.0
  In  In11  2  0.25706000  0.00000000  0.04334000  1.0
  Ir  Ir12  2  0.50000000  0.25000000  0.87067000  1.0
  Ir  Ir13  2  0.50000000  0.25130000  0.04120000  1.0
  Ir  Ir14  1  0.00000000  0.00000000  0.12176000  1.0
  Ir  Ir15  1  0.00000000  0.00000000  0.95689000  1.0
  Ir  Ir16  1  0.00000000  0.50000000  0.12274000  1.0
  Ir  Ir17  1  0.00000000  0.50000000  0.95689000  1.0
  C  C18  1  0.50000000  0.00000000  0.22060000  1.0
  O  O19  1  0.50000000  0.00000000  0.26292000  1.0
