# generated using pymatgen
data_GaAg
_symmetry_space_group_name_H-M   'P 1'
_cell_length_a   4.74122000
_cell_length_b   6.70510000
_cell_length_c   27.11180000
_cell_angle_alpha   90.00000000
_cell_angle_beta   90.00000000
_cell_angle_gamma   90.00000000
_symmetry_Int_Tables_number   1
_chemical_formula_structural   GaAg
_chemical_formula_sum   'Ga8 Ag8'
_cell_volume   861.89372560
_cell_formula_units_Z   8
loop_
 _symmetry_equiv_pos_site_id
 _symmetry_equiv_pos_as_xyz
  1  'x, y, z'
loop_
 _atom_site_type_symbol
 _atom_site_label
 _atom_site_symmetry_multiplicity
 _atom_site_fract_x
 _atom_site_fract_y
 _atom_site_fract_z
 _atom_site_occupancy
  Ga  Ga0  1  0.50000000  0.75000000  0.13116000  1.0
  Ga  Ga1  1  0.00000000  0.75000000  0.04372000  1.0
  Ga  Ga2  1  0.50000000  0.74959000  0.95534000  1.0
  Ga  Ga3  1  0.00000000  0.74937000  0.86362000  1.0
  Ga  Ga4  1  0.50000000  0.25000000  0.13116000  1.0
  Ga  Ga5  1  0.00000000  0.25000000  0.04372000  1.0
  Ga  Ga6  1  0.50000000  0.25041000  0.95534000  1.0
  Ga  Ga7  1  0.00000000  0.25063000  0.86362000  1.0
  Ag  Ag8  1  0.00000000  0.00000000  0.13116000  1.0
  Ag  Ag9  1  0.50000000  0.00000000  0.04372000  1.0
  Ag  Ag10  1  0.00000000  0.00000000  0.95676000  1.0
  Ag  Ag11  1  0.50000000  0.00000000  0.87054000  1.0
  Ag  Ag12  1  0.00000000  0.50000000  0.13116000  1.0
  Ag  Ag13  1  0.50000000  0.50000000  0.04372000  1.0
  Ag  Ag14  1  0.00000000  0.50000000  0.95684000  1.0
  Ag  Ag15  1  0.50000000  0.50000000  0.87038000  1.0
