# generated using pymatgen
data_Li16Ga8Rh8CO
_symmetry_space_group_name_H-M   P1
_cell_length_a   6.03399000
_cell_length_b   8.53335000
_cell_length_c   26.40000000
_cell_angle_alpha   90.00000000
_cell_angle_beta   90.00000000
_cell_angle_gamma   90.00000000
_symmetry_Int_Tables_number   1
_chemical_formula_structural   Li16Ga8Rh8CO
_chemical_formula_sum   'Li16 Ga8 Rh8 C1 O1'
_cell_volume   1359.33992216
_cell_formula_units_Z   1
loop_
 _symmetry_equiv_pos_site_id
 _symmetry_equiv_pos_as_xyz
  1  'x, y, z'
loop_
 _atom_site_type_symbol
 _atom_site_label
 _atom_site_symmetry_multiplicity
 _atom_site_fract_x
 _atom_site_fract_y
 _atom_site_fract_z
 _atom_site_occupancy
  Li  Li0  1  0.00000000  0.25000000  0.95960000  1.0
  Li  Li1  1  0.00000000  0.75000000  0.95960000  1.0
  Li  Li2  1  0.00944000  0.24987000  0.12491000  1.0
  Li  Li3  1  0.02827000  0.74995000  0.11849000  1.0
  Li  Li4  1  0.24418000  0.74987000  0.03462000  1.0
  Li  Li5  1  0.25000000  0.25000000  0.87879000  1.0
  Li  Li6  1  0.25000000  0.75000000  0.87879000  1.0
  Li  Li7  1  0.25294000  0.25026000  0.03989000  1.0
  Li  Li8  1  0.50000000  0.00000000  0.87879000  1.0
  Li  Li9  1  0.50000000  0.50000000  0.87879000  1.0
  Li  Li10  1  0.51429000  0.99976000  0.03779000  1.0
  Li  Li11  1  0.51456000  0.50035000  0.03777000  1.0
  Li  Li12  1  0.73282000  0.51768000  0.13994000  1.0
  Li  Li13  1  0.73319000  0.98188000  0.13997000  1.0
  Li  Li14  1  0.75000000  0.00000000  0.95960000  1.0
  Li  Li15  1  0.75000000  0.50000000  0.95960000  1.0
  Ga  Ga16  1  0.25000000  0.00000000  0.95960000  1.0
  Ga  Ga17  1  0.25000000  0.50000000  0.95960000  1.0
  Ga  Ga18  1  0.28203000  0.00558000  0.11795000  1.0
  Ga  Ga19  1  0.28213000  0.49414000  0.11783000  1.0
  Ga  Ga20  1  0.75000000  0.25000000  0.87879000  1.0
  Ga  Ga21  1  0.75000000  0.75000000  0.87879000  1.0
  Ga  Ga22  1  0.75834000  0.24992000  0.03793000  1.0
  Ga  Ga23  1  0.76325000  0.75023000  0.03776000  1.0
  Rh  Rh24  1  0.00000000  0.00000000  0.87879000  1.0
  Rh  Rh25  1  0.00000000  0.50000000  0.87879000  1.0
  Rh  Rh26  1  0.49255000  0.74989000  0.10863000  1.0
  Rh  Rh27  1  0.50000000  0.25000000  0.95960000  1.0
  Rh  Rh28  1  0.50000000  0.75000000  0.95960000  1.0
  Rh  Rh29  1  0.53644000  0.24979000  0.12163000  1.0
  Rh  Rh30  1  0.99593000  0.50104000  0.04583000  1.0
  Rh  Rh31  1  0.99670000  0.99904000  0.04580000  1.0
  C  C32  1  0.67794000  0.24973000  0.18463000  1.0
  O  O33  1  0.75317000  0.25002000  0.22584000  1.0
