# generated using pymatgen
data_Li4In4Ir4Pd4CO
_symmetry_space_group_name_H-M   Cm
_cell_length_a   8.95987730
_cell_length_b   8.95987730
_cell_length_c   24.75170000
_cell_angle_alpha   90.00000000
_cell_angle_beta   90.00000000
_cell_angle_gamma   90.00000000
_symmetry_Int_Tables_number   8
_chemical_formula_structural   Li4In4Ir4Pd4CO
_chemical_formula_sum   'Li8 In8 Ir8 Pd8 C2 O2'
_cell_volume   1987.05165706
_cell_formula_units_Z   2
loop_
 _symmetry_equiv_pos_site_id
 _symmetry_equiv_pos_as_xyz
  1  'x, y, z'
  2  'x, -y, z'
  3  'x+1/2, y+1/2, z'
  4  'x+1/2, -y+1/2, z'
loop_
 _atom_site_type_symbol
 _atom_site_label
 _atom_site_symmetry_multiplicity
 _atom_site_fract_x
 _atom_site_fract_y
 _atom_site_fract_z
 _atom_site_occupancy
  Li  Li0  4  0.25000000  0.25001000  0.09543000  1.0
  Li  Li1  2  0.00001000  0.00000000  0.96800000  1.0
  Li  Li2  2  0.00001000  0.50000000  0.96800000  1.0
  In  In3  4  0.25001000  0.25001000  0.96800000  1.0
  In  In4  2  -0.00000000  0.50000000  0.09844000  1.0
  In  In5  2  0.00000500  0.00000000  0.09592000  1.0
  Ir  Ir6  4  0.00000500  0.25127500  0.03646000  1.0
  Pd  Pd7  4  0.00001000  0.25001000  0.90401000  1.0
  Pd  Pd8  2  0.24805000  0.50000000  0.03376000  1.0
  Ir  Ir9  2  0.25001000  0.50000000  0.90401000  1.0
  Ir  Ir10  2  0.25001000  0.00000000  0.90401000  1.0
  Pd  Pd11  2  0.25196000  0.00000000  0.03375000  1.0
  C  C12  2  0.00018000  0.00000000  0.26314000  1.0
  O  O13  2  0.49995500  0.50000000  0.30899000  1.0
