data_image0
_chemical_formula_structural       Li8Ge4Pd4
_chemical_formula_sum              "Li8 Ge4 Pd4"
_cell_length_a       6.09904
_cell_length_b       6.09904
_cell_length_c       24.5743
_cell_angle_alpha    90
_cell_angle_beta     90
_cell_angle_gamma    90

_space_group_name_H-M_alt    "P 1"
_space_group_IT_number       1

loop_
  _space_group_symop_operation_xyz
  'x, y, z'

loop_
  _atom_site_type_symbol
  _atom_site_label
  _atom_site_symmetry_multiplicity
  _atom_site_fract_x
  _atom_site_fract_y
  _atom_site_fract_z
  _atom_site_occupancy
  Li  Li1       1.0  0.24973  0.24963  0.02956  1.0000
  Li  Li2       1.0  0.75000  0.75000  0.90693  1.0000
  Li  Li3       1.0  0.75036  0.24950  0.02946  1.0000
  Li  Li4       1.0  0.25000  0.75000  0.90693  1.0000
  Li  Li5       1.0  0.75049  0.75038  0.02945  1.0000
  Li  Li6       1.0  0.25000  0.25000  0.90693  1.0000
  Li  Li7       1.0  0.24960  0.75025  0.02955  1.0000
  Li  Li8       1.0  0.75000  0.25000  0.90693  1.0000
  Ge  Ge1       1.0  0.99979  0.00024  0.09284  1.0000
  Ge  Ge2       1.0  0.50070  0.50036  0.09277  1.0000
  Ge  Ge3       1.0  0.50000  0.00000  0.96898  1.0000
  Ge  Ge4       1.0  0.00000  0.50000  0.96898  1.0000
  Pd  Pd1       1.0  0.00000  0.00000  0.96898  1.0000
  Pd  Pd2       1.0  0.50020  0.99987  0.08488  1.0000
  Pd  Pd3       1.0  0.99967  0.49982  0.08488  1.0000
  Pd  Pd4       1.0  0.50000  0.50000  0.96898  1.0000
