# generated using pymatgen
data_Al16Pd16C
_symmetry_space_group_name_H-M   Pm
_cell_length_a   6.18271000
_cell_length_b   8.74368000
_cell_length_c   26.55780000
_cell_angle_alpha   90.00000000
_cell_angle_beta   90.00000000
_cell_angle_gamma   90.00000000
_symmetry_Int_Tables_number   6
_chemical_formula_structural   Al16Pd16C
_chemical_formula_sum   'Al16 Pd16 C1'
_cell_volume   1435.70504804
_cell_formula_units_Z   1
loop_
 _symmetry_equiv_pos_site_id
 _symmetry_equiv_pos_as_xyz
  1  'x, y, z'
  2  'x, -y, z'
loop_
 _atom_site_type_symbol
 _atom_site_label
 _atom_site_symmetry_multiplicity
 _atom_site_fract_x
 _atom_site_fract_y
 _atom_site_fract_z
 _atom_site_occupancy
  Al  Al0  2  0.00000000  0.25000000  0.87654000  1.0
  Al  Al1  2  0.00155000  0.24977000  0.04141000  1.0
  Al  Al2  2  0.49842000  0.24976000  0.04141000  1.0
  Al  Al3  2  0.50000000  0.25000000  0.87654000  1.0
  Al  Al4  1  0.00000000  0.00000000  0.95885000  1.0
  Al  Al5  1  0.00000000  0.50000000  0.95885000  1.0
  Al  Al6  1  0.00869000  0.50000000  0.12397000  1.0
  Al  Al7  1  0.49125000  0.50000000  0.12397000  1.0
  Al  Al8  1  0.50000000  0.00000000  0.95885000  1.0
  Al  Al9  1  0.50000000  0.50000000  0.95885000  1.0
  Al  Al10  1  0.54425000  0.00000000  0.12921000  1.0
  Al  Al11  1  0.95548000  0.00000000  0.12919000  1.0
  Pd  Pd12  2  0.24995000  0.25131000  0.11992000  1.0
  Pd  Pd13  2  0.25000000  0.25000000  0.95885000  1.0
  Pd  Pd14  2  0.74994000  0.26036000  0.11892000  1.0
  Pd  Pd15  2  0.75000000  0.25000000  0.95885000  1.0
  Pd  Pd16  1  0.24999000  0.00000000  0.04239000  1.0
  Pd  Pd17  1  0.25000000  0.00000000  0.87654000  1.0
  Pd  Pd18  1  0.25000000  0.50000000  0.87654000  1.0
  Pd  Pd19  1  0.25001000  0.50000000  0.03943000  1.0
  Pd  Pd20  1  0.74998000  0.00000000  0.03955000  1.0
  Pd  Pd21  1  0.75000000  0.00000000  0.87654000  1.0
  Pd  Pd22  1  0.75000000  0.50000000  0.03826000  1.0
  Pd  Pd23  1  0.75000000  0.50000000  0.87654000  1.0
  C  C24  1  0.24984000  0.00000000  0.14454000  1.0
