data_image0
_chemical_formula_structural       Li16Sb8Pd8CO
_chemical_formula_sum              "Li16 Sb8 Pd8 C1 O1"
_cell_length_a       6.43375
_cell_length_b       9.0987
_cell_length_c       26.824
_cell_angle_alpha    90
_cell_angle_beta     90
_cell_angle_gamma    90

_space_group_name_H-M_alt    "P 1"
_space_group_IT_number       1

loop_
  _space_group_symop_operation_xyz
  'x, y, z'

loop_
  _atom_site_type_symbol
  _atom_site_label
  _atom_site_symmetry_multiplicity
  _atom_site_fract_x
  _atom_site_fract_y
  _atom_site_fract_z
  _atom_site_occupancy
  Li  Li1       1.0  0.00000  0.75000  0.95760  1.0000
  Li  Li2       1.0  0.50000  0.00000  0.87280  1.0000
  Li  Li3       1.0  0.00000  0.25000  0.95760  1.0000
  Li  Li4       1.0  0.50000  0.50000  0.87280  1.0000
  Li  Li5       1.0  0.25000  0.25000  0.87280  1.0000
  Li  Li6       1.0  0.25000  0.75000  0.87280  1.0000
  Li  Li7       1.0  0.75000  0.50000  0.95760  1.0000
  Li  Li8       1.0  0.75000  0.00000  0.95760  1.0000
  Li  Li9       1.0  0.02835  0.25000  0.12555  1.0000
  Li  Li10      1.0  0.51258  0.49473  0.03783  1.0000
  Li  Li11      1.0  0.02507  0.75000  0.12472  1.0000
  Li  Li12      1.0  0.51258  0.00527  0.03783  1.0000
  Li  Li13      1.0  0.27353  0.75000  0.04483  1.0000
  Li  Li14      1.0  0.25740  0.25000  0.04335  1.0000
  Li  Li15      1.0  0.72551  0.99886  0.12756  1.0000
  Li  Li16      1.0  0.72551  0.50114  0.12756  1.0000
  Sb  Sb1       1.0  0.00000  0.00000  0.87280  1.0000
  Sb  Sb2       1.0  0.50000  0.25000  0.95760  1.0000
  Sb  Sb3       1.0  0.50000  0.75000  0.95760  1.0000
  Sb  Sb4       1.0  0.00000  0.50000  0.87280  1.0000
  Sb  Sb5       1.0  0.99461  0.50306  0.04382  1.0000
  Sb  Sb6       1.0  0.49126  0.75000  0.13695  1.0000
  Sb  Sb7       1.0  0.49652  0.25000  0.13140  1.0000
  Sb  Sb8       1.0  0.99461  0.99694  0.04382  1.0000
  Pd  Pd1       1.0  0.25000  0.00000  0.95760  1.0000
  Pd  Pd2       1.0  0.25000  0.50000  0.95760  1.0000
  Pd  Pd3       1.0  0.75000  0.75000  0.87280  1.0000
  Pd  Pd4       1.0  0.75000  0.25000  0.87280  1.0000
  Pd  Pd5       1.0  0.28004  0.50077  0.11465  1.0000
  Pd  Pd6       1.0  0.28004  0.99923  0.11466  1.0000
  Pd  Pd7       1.0  0.75158  0.25000  0.04570  1.0000
  Pd  Pd8       1.0  0.73409  0.75000  0.04828  1.0000
  C   C1        1.0  0.34184  0.25000  0.26753  1.0000
  O   O1        1.0  0.50278  0.24999  0.28495  1.0000
