# generated using pymatgen
data_Zr4Al4Cu8C
_symmetry_space_group_name_H-M   Cmm2
_cell_length_a   8.87129097
_cell_length_b   8.87129097
_cell_length_c   24.70470000
_cell_angle_alpha   90.00000000
_cell_angle_beta   90.00000000
_cell_angle_gamma   90.00000000
_symmetry_Int_Tables_number   35
_chemical_formula_structural   Zr4Al4Cu8C
_chemical_formula_sum   'Zr8 Al8 Cu16 C2'
_cell_volume   1944.25503318
_cell_formula_units_Z   2
loop_
 _symmetry_equiv_pos_site_id
 _symmetry_equiv_pos_as_xyz
  1  'x, y, z'
  2  '-x, -y, z'
  3  '-x, y, z'
  4  'x, -y, z'
  5  'x+1/2, y+1/2, z'
  6  '-x+1/2, -y+1/2, z'
  7  '-x+1/2, y+1/2, z'
  8  'x+1/2, -y+1/2, z'
loop_
 _atom_site_type_symbol
 _atom_site_label
 _atom_site_symmetry_multiplicity
 _atom_site_fract_x
 _atom_site_fract_y
 _atom_site_fract_z
 _atom_site_occupancy
  Zr  Zr0  4  0.00000000  0.25000000  0.09522000  1.0
  Zr  Zr1  4  0.25000000  0.00000000  0.96826000  1.0
  Al  Al2  4  0.00000000  0.25000000  0.96826000  1.0
  Al  Al3  4  0.25000000  0.00000000  0.09522000  1.0
  Cu  Cu4  4  0.25000000  0.25000000  0.03174000  1.0
  Cu  Cu5  4  0.25000000  0.25000000  0.90478000  1.0
  Cu  Cu6  2  0.00000000  0.00000000  0.03174000  1.0
  Cu  Cu7  2  0.00000000  0.00000000  0.90478000  1.0
  Cu  Cu8  2  0.00000000  0.50000000  0.03174000  1.0
  Cu  Cu9  2  0.00000000  0.50000000  0.90478000  1.0
  C  C10  2  0.00000000  0.50000000  0.12760000  1.0
