# generated using pymatgen
data_Li4Sc4In4Ga4CO
_symmetry_space_group_name_H-M   P1
_cell_length_a   5.87074000
_cell_length_b   8.86716000
_cell_length_c   24.40240000
_cell_angle_alpha   90.00000000
_cell_angle_beta   90.00000000
_cell_angle_gamma   90.00000000
_symmetry_Int_Tables_number   1
_chemical_formula_structural   Li4Sc4In4Ga4CO
_chemical_formula_sum   'Li4 Sc4 In4 Ga4 C1 O1'
_cell_volume   1270.31063422
_cell_formula_units_Z   1
loop_
 _symmetry_equiv_pos_site_id
 _symmetry_equiv_pos_as_xyz
  1  'x, y, z'
loop_
 _atom_site_type_symbol
 _atom_site_label
 _atom_site_symmetry_multiplicity
 _atom_site_fract_x
 _atom_site_fract_y
 _atom_site_fract_z
 _atom_site_occupancy
  Li  Li0  1  0.23717000  0.25000000  0.90980000  1.0
  Li  Li1  1  0.23717000  0.75000000  0.90980000  1.0
  Li  Li2  1  0.63379000  0.75223000  0.02832000  1.0
  Li  Li3  1  0.63385000  0.24778000  0.02833000  1.0
  Sc  Sc4  1  0.37338000  0.00003000  0.09390000  1.0
  Sc  Sc5  1  0.37498000  0.50001000  0.09082000  1.0
  Sc  Sc6  1  0.99145000  0.00000000  0.96993000  1.0
  Sc  Sc7  1  0.99145000  0.50000000  0.96993000  1.0
  In  In8  1  0.12917000  0.75006000  0.04413000  1.0
  In  In9  1  0.12924000  0.24992000  0.04412000  1.0
  In  In10  1  0.73717000  0.25000000  0.90980000  1.0
  In  In11  1  0.73717000  0.75000000  0.90980000  1.0
  Ga  Ga12  1  0.49145000  0.00000000  0.96993000  1.0
  Ga  Ga13  1  0.49145000  0.50000000  0.96993000  1.0
  Ga  Ga14  1  0.84039000  0.00002000  0.08463000  1.0
  Ga  Ga15  1  0.84751000  0.49997000  0.08507000  1.0
  C  C16  1  0.47786000  0.00003000  0.18519000  1.0
  O  O17  1  0.52282000  0.00003000  0.23108000  1.0
