# generated using pymatgen
data_Sc16Au16CO
_symmetry_space_group_name_H-M   'P 1'
_cell_length_a   6.85145000
_cell_length_b   9.68941000
_cell_length_c   27.26710000
_cell_angle_alpha   90.00000000
_cell_angle_beta   90.00000000
_cell_angle_gamma   90.00000000
_symmetry_Int_Tables_number   1
_chemical_formula_structural   Sc16Au16CO
_chemical_formula_sum   'Sc16 Au16 C1 O1'
_cell_volume   1810.16755623
_cell_formula_units_Z   1
loop_
 _symmetry_equiv_pos_site_id
 _symmetry_equiv_pos_as_xyz
  1  'x, y, z'
loop_
 _atom_site_type_symbol
 _atom_site_label
 _atom_site_symmetry_multiplicity
 _atom_site_fract_x
 _atom_site_fract_y
 _atom_site_fract_z
 _atom_site_occupancy
  Sc  Sc0  1  0.75001000  0.00000000  0.86674000  1.0
  Sc  Sc1  1  0.75001000  0.25000000  0.95558000  1.0
  Sc  Sc2  1  0.74107000  0.00000000  0.04613000  1.0
  Sc  Sc3  1  0.75303000  0.74654000  0.13160000  1.0
  Sc  Sc4  1  0.75001000  0.50000000  0.86674000  1.0
  Sc  Sc5  1  0.75001000  0.75000000  0.95558000  1.0
  Sc  Sc6  1  0.75373000  0.50000000  0.04407000  1.0
  Sc  Sc7  1  0.75303000  0.25346000  0.13160000  1.0
  Sc  Sc8  1  0.24999000  0.00000000  0.86674000  1.0
  Sc  Sc9  1  0.24999000  0.25000000  0.95558000  1.0
  Sc  Sc10  1  0.25893000  0.00000000  0.04613000  1.0
  Sc  Sc11  1  0.24697000  0.74654000  0.13160000  1.0
  Sc  Sc12  1  0.24999000  0.50000000  0.86674000  1.0
  Sc  Sc13  1  0.24999000  0.75000000  0.95558000  1.0
  Sc  Sc14  1  0.24627000  0.50000000  0.04407000  1.0
  Sc  Sc15  1  0.24697000  0.25346000  0.13160000  1.0
  Au  Au16  1  0.50000000  0.75000000  0.86674000  1.0
  Au  Au17  1  0.50000000  0.00000000  0.95558000  1.0
  Au  Au18  1  0.50000000  0.74057000  0.04339000  1.0
  Au  Au19  1  0.50000000  0.00000000  0.13421000  1.0
  Au  Au20  1  0.50000000  0.25000000  0.86674000  1.0
  Au  Au21  1  0.50000000  0.50000000  0.95558000  1.0
  Au  Au22  1  0.50000000  0.25943000  0.04339000  1.0
  Au  Au23  1  0.50000000  0.50000000  0.12666000  1.0
  Au  Au24  1  0.00000000  0.75000000  0.86674000  1.0
  Au  Au25  1  0.00000000  0.00000000  0.95558000  1.0
  Au  Au26  1  0.00000000  0.75662000  0.04411000  1.0
  Au  Au27  1  0.00000000  0.00000000  0.12740000  1.0
  Au  Au28  1  0.00000000  0.25000000  0.86674000  1.0
  Au  Au29  1  0.00000000  0.50000000  0.95558000  1.0
  Au  Au30  1  0.00000000  0.24338000  0.04411000  1.0
  Au  Au31  1  0.00000000  0.50000000  0.12771000  1.0
  C  C32  1  0.50000000  0.00000000  0.21214000  1.0
  O  O33  1  0.50000000  0.00000000  0.25458000  1.0
