# generated using pymatgen
data_Hf8In8Ni16CO
_symmetry_space_group_name_H-M   Pm
_cell_length_a   8.93131000
_cell_length_b   6.31539000
_cell_length_c   26.69850000
_cell_angle_alpha   90.00000000
_cell_angle_beta   90.00000000
_cell_angle_gamma   90.00000000
_symmetry_Int_Tables_number   6
_chemical_formula_structural   Hf8In8Ni16CO
_chemical_formula_sum   'Hf8 In8 Ni16 C1 O1'
_cell_volume   1505.92103943
_cell_formula_units_Z   1
loop_
 _symmetry_equiv_pos_site_id
 _symmetry_equiv_pos_as_xyz
  1  'x, y, z'
  2  'x, -y, z'
loop_
 _atom_site_type_symbol
 _atom_site_label
 _atom_site_symmetry_multiplicity
 _atom_site_fract_x
 _atom_site_fract_y
 _atom_site_fract_z
 _atom_site_occupancy
  Hf  Hf0  1  0.00000000  0.00000000  0.87455000  1.0
  Hf  Hf1  1  0.00004000  0.00000000  0.04355000  1.0
  Hf  Hf2  1  0.25000000  0.50000000  0.95818000  1.0
  Hf  Hf3  1  0.25002000  0.50000000  0.12392000  1.0
  Hf  Hf4  1  0.49998000  0.00000000  0.04355000  1.0
  Hf  Hf5  1  0.50000000  0.00000000  0.87455000  1.0
  Hf  Hf6  1  0.75000000  0.50000000  0.12423000  1.0
  Hf  Hf7  1  0.75000000  0.50000000  0.95818000  1.0
  In  In8  1  0.00000000  0.50000000  0.87455000  1.0
  In  In9  1  0.25000000  0.00000000  0.13310000  1.0
  In  In10  1  0.25000000  0.00000000  0.95818000  1.0
  In  In11  1  0.50000000  0.50000000  0.87455000  1.0
  In  In12  1  0.50088000  0.50000000  0.04020000  1.0
  In  In13  1  0.75000000  0.00000000  0.95818000  1.0
  In  In14  1  0.75002000  0.00000000  0.13435000  1.0
  In  In15  1  0.99913000  0.50000000  0.04020000  1.0
  Ni  Ni16  2  0.00000000  0.25001000  0.95818000  1.0
  Ni  Ni17  2  0.25000000  0.25001000  0.87455000  1.0
  Ni  Ni18  2  0.25000000  0.25301000  0.04457000  1.0
  Ni  Ni19  2  0.50000000  0.24999000  0.95818000  1.0
  Ni  Ni20  2  0.50047000  0.25470000  0.12096000  1.0
  Ni  Ni21  2  0.75000000  0.24999000  0.87455000  1.0
  Ni  Ni22  2  0.75001000  0.24932000  0.04514000  1.0
  Ni  Ni23  2  0.99954000  0.25470000  0.12095000  1.0
  C  C24  1  0.25021000  0.00000000  0.28086000  1.0
  O  O25  1  0.24998000  0.00000000  0.32337000  1.0
