# generated using pymatgen
data_Li4In4Ir4Pd4CO
_symmetry_space_group_name_H-M   Cmm2
_cell_length_a   8.95987730
_cell_length_b   8.95987730
_cell_length_c   24.75170000
_cell_angle_alpha   90.00000000
_cell_angle_beta   90.00000000
_cell_angle_gamma   90.00000000
_symmetry_Int_Tables_number   35
_chemical_formula_structural   Li4In4Ir4Pd4CO
_chemical_formula_sum   'Li8 In8 Ir8 Pd8 C2 O2'
_cell_volume   1987.05165706
_cell_formula_units_Z   2
loop_
 _symmetry_equiv_pos_site_id
 _symmetry_equiv_pos_as_xyz
  1  'x, y, z'
  2  '-x, -y, z'
  3  '-x, y, z'
  4  'x, -y, z'
  5  'x+1/2, y+1/2, z'
  6  '-x+1/2, -y+1/2, z'
  7  '-x+1/2, y+1/2, z'
  8  'x+1/2, -y+1/2, z'
loop_
 _atom_site_type_symbol
 _atom_site_label
 _atom_site_symmetry_multiplicity
 _atom_site_fract_x
 _atom_site_fract_y
 _atom_site_fract_z
 _atom_site_occupancy
  Li  Li0  4  0.25000000  0.25000000  0.96800000  1.0
  Li  Li1  2  0.00000000  0.00000000  0.09546000  1.0
  Li  Li2  2  0.00000000  0.50000000  0.09985000  1.0
  In  In3  4  0.25000000  0.25000000  0.09707000  1.0
  In  In4  2  0.00000000  0.00000000  0.96800000  1.0
  In  In5  2  0.00000000  0.50000000  0.96800000  1.0
  Ir  Ir6  4  0.00000000  0.25000000  0.90401000  1.0
  Pd  Pd7  4  0.00000000  0.25073000  0.03360000  1.0
  Ir  Ir8  4  0.24934500  0.50000000  0.03593000  1.0
  Pd  Pd9  4  0.25000000  0.00000000  0.90401000  1.0
  C  C10  2  0.00000000  0.50000000  0.18676000  1.0
  O  O11  2  0.00000000  0.50000000  0.23285000  1.0
