# generated using pymatgen
data_TaRh3
_symmetry_space_group_name_H-M   'P 1'
_cell_length_a   3.89978000
_cell_length_b   5.51512000
_cell_length_c   24.13630000
_cell_angle_alpha   90.00000000
_cell_angle_beta   90.00000000
_cell_angle_gamma   90.00000000
_symmetry_Int_Tables_number   1
_chemical_formula_structural   TaRh3
_chemical_formula_sum   'Ta2 Rh6'
_cell_volume   519.11761913
_cell_formula_units_Z   2
loop_
 _symmetry_equiv_pos_site_id
 _symmetry_equiv_pos_as_xyz
  1  'x, y, z'
loop_
 _atom_site_type_symbol
 _atom_site_label
 _atom_site_symmetry_multiplicity
 _atom_site_fract_x
 _atom_site_fract_y
 _atom_site_fract_z
 _atom_site_occupancy
  Ta  Ta0  1  0.00000000  0.00000000  0.07382000  1.0
  Ta  Ta1  1  0.00000000  0.50000000  0.97144000  1.0
  Rh  Rh2  1  0.00000000  0.50000000  0.08198000  1.0
  Rh  Rh3  1  0.50000000  0.75121000  0.03212000  1.0
  Rh  Rh4  1  0.50000000  0.24879000  0.03212000  1.0
  Rh  Rh5  1  0.00000000  0.00000000  0.97144000  1.0
  Rh  Rh6  1  0.50000000  0.25000000  0.91431000  1.0
  Rh  Rh7  1  0.50000000  0.75000000  0.91431000  1.0
