# generated using pymatgen
data_Li4Sc4In4Ge4CO
_symmetry_space_group_name_H-M   P1
_cell_length_a   5.77954000
_cell_length_b   8.97372000
_cell_length_c   24.33440000
_cell_angle_alpha   90.00000000
_cell_angle_beta   90.00000000
_cell_angle_gamma   90.00000000
_symmetry_Int_Tables_number   1
_chemical_formula_structural   Li4Sc4In4Ge4CO
_chemical_formula_sum   'Li4 Sc4 In4 Ge4 C1 O1'
_cell_volume   1262.07868133
_cell_formula_units_Z   1
loop_
 _symmetry_equiv_pos_site_id
 _symmetry_equiv_pos_as_xyz
  1  'x, y, z'
loop_
 _atom_site_type_symbol
 _atom_site_label
 _atom_site_symmetry_multiplicity
 _atom_site_fract_x
 _atom_site_fract_y
 _atom_site_fract_z
 _atom_site_occupancy
  Li  Li0  1  0.31993000  0.24266000  0.02782000  1.0
  Li  Li1  1  0.32009000  0.75716000  0.02779000  1.0
  Li  Li2  1  0.74135000  0.25000000  0.91094000  1.0
  Li  Li3  1  0.74135000  0.75000000  0.91094000  1.0
  Sc  Sc4  1  0.54494000  0.50001000  0.09089000  1.0
  Sc  Sc5  1  0.57981000  0.99997000  0.09786000  1.0
  Sc  Sc6  1  0.99424000  0.00000000  0.97031000  1.0
  Sc  Sc7  1  0.99424000  0.50000000  0.97031000  1.0
  In  In8  1  0.24135000  0.25000000  0.91094000  1.0
  In  In9  1  0.24135000  0.75000000  0.91094000  1.0
  In  In10  1  0.83372000  0.25216000  0.04608000  1.0
  In  In11  1  0.83374000  0.74787000  0.04609000  1.0
  Ge  Ge12  1  0.03693000  0.50004000  0.09719000  1.0
  Ge  Ge13  1  0.06866000  0.00001000  0.09037000  1.0
  Ge  Ge14  1  0.49424000  0.00000000  0.97031000  1.0
  Ge  Ge15  1  0.49424000  0.50000000  0.97031000  1.0
  C  C16  1  0.78388000  0.00003000  0.17852000  1.0
  O  O17  1  0.88258000  0.00006000  0.21992000  1.0
