# generated using pymatgen
data_Y4In4Sn4Pd4CO
_symmetry_space_group_name_H-M   'P 1'
_cell_length_a   8.73372000
_cell_length_b   6.44465000
_cell_length_c   24.83320000
_cell_angle_alpha   90.00000000
_cell_angle_beta   90.00000000
_cell_angle_gamma   90.00000000
_symmetry_Int_Tables_number   1
_chemical_formula_structural   Y4In4Sn4Pd4CO
_chemical_formula_sum   'Y4 In4 Sn4 Pd4 C1 O1'
_cell_volume   1397.75574875
_cell_formula_units_Z   1
loop_
 _symmetry_equiv_pos_site_id
 _symmetry_equiv_pos_as_xyz
  1  'x, y, z'
loop_
 _atom_site_type_symbol
 _atom_site_label
 _atom_site_symmetry_multiplicity
 _atom_site_fract_x
 _atom_site_fract_y
 _atom_site_fract_z
 _atom_site_occupancy
  Y  Y0  1  0.75000000  0.50000000  0.90269000  1.0
  Y  Y1  1  0.74237000  0.00939000  0.03638000  1.0
  Y  Y2  1  0.25000000  0.50000000  0.90269000  1.0
  Y  Y3  1  0.25763000  0.00939000  0.03638000  1.0
  In  In4  1  0.75000000  0.00000000  0.90269000  1.0
  In  In5  1  0.77759000  0.52085000  0.04131000  1.0
  In  In6  1  0.25000000  0.00000000  0.90269000  1.0
  In  In7  1  0.22241000  0.52085000  0.04131000  1.0
  Sn  Sn8  1  0.50000000  0.25275000  0.96756000  1.0
  Sn  Sn9  1  0.50000000  0.71460000  0.09578000  1.0
  Sn  Sn10  1  0.00000000  0.25275000  0.96756000  1.0
  Sn  Sn11  1  0.00000000  0.78330000  0.10667000  1.0
  Pd  Pd12  1  0.50000000  0.75275000  0.96756000  1.0
  Pd  Pd13  1  0.50000000  0.29381000  0.07675000  1.0
  Pd  Pd14  1  0.00000000  0.75275000  0.96756000  1.0
  Pd  Pd15  1  0.00000000  0.22422000  0.08461000  1.0
  C  C16  1  0.50000000  0.82141000  0.24312000  1.0
  O  O17  1  0.50000000  0.71256000  0.27906000  1.0
