data_image0
_chemical_formula_structural       Ti16Be16C
_chemical_formula_sum              "Ti16 Be16 C1"
_cell_length_a       5.87849
_cell_length_b       8.31345
_cell_length_c       26.2351
_cell_angle_alpha    90
_cell_angle_beta     90
_cell_angle_gamma    90

_space_group_name_H-M_alt    "P 1"
_space_group_IT_number       1

loop_
  _space_group_symop_operation_xyz
  'x, y, z'

loop_
  _atom_site_type_symbol
  _atom_site_label
  _atom_site_symmetry_multiplicity
  _atom_site_fract_x
  _atom_site_fract_y
  _atom_site_fract_z
  _atom_site_occupancy
  Ti  Ti1       1.0  0.25000  0.25000  0.88117  1.0000
  Ti  Ti2       1.0  0.25000  0.00000  0.96039  1.0000
  Ti  Ti3       1.0  0.25000  0.25000  0.04367  1.0000
  Ti  Ti4       1.0  0.25000  0.00767  0.12626  1.0000
  Ti  Ti5       1.0  0.25000  0.75000  0.88117  1.0000
  Ti  Ti6       1.0  0.25000  0.50000  0.96039  1.0000
  Ti  Ti7       1.0  0.25000  0.75000  0.03628  1.0000
  Ti  Ti8       1.0  0.25000  0.49234  0.12626  1.0000
  Ti  Ti9       1.0  0.75000  0.25000  0.88117  1.0000
  Ti  Ti10      1.0  0.75000  0.00000  0.96039  1.0000
  Ti  Ti11      1.0  0.75000  0.24999  0.03876  1.0000
  Ti  Ti12      1.0  0.75000  0.96949  0.11543  1.0000
  Ti  Ti13      1.0  0.75000  0.75000  0.88117  1.0000
  Ti  Ti14      1.0  0.75000  0.50000  0.96039  1.0000
  Ti  Ti15      1.0  0.75000  0.75000  0.03655  1.0000
  Ti  Ti16      1.0  0.75000  0.53052  0.11544  1.0000
  Be  Be1       1.0  0.00000  0.00000  0.88117  1.0000
  Be  Be2       1.0  0.00000  0.25000  0.96039  1.0000
  Be  Be3       1.0  0.01086  0.99863  0.04192  1.0000
  Be  Be4       1.0  0.96752  0.24999  0.11954  1.0000
  Be  Be5       1.0  0.00000  0.50000  0.88117  1.0000
  Be  Be6       1.0  0.00000  0.75000  0.96039  1.0000
  Be  Be7       1.0  0.01086  0.50137  0.04193  1.0000
  Be  Be8       1.0  0.03599  0.75001  0.11272  1.0000
  Be  Be9       1.0  0.50000  0.00000  0.88117  1.0000
  Be  Be10      1.0  0.50000  0.25000  0.96039  1.0000
  Be  Be11      1.0  0.48914  0.99863  0.04192  1.0000
  Be  Be12      1.0  0.53248  0.24999  0.11954  1.0000
  Be  Be13      1.0  0.50000  0.50000  0.88117  1.0000
  Be  Be14      1.0  0.50000  0.75000  0.96039  1.0000
  Be  Be15      1.0  0.48914  0.50137  0.04193  1.0000
  Be  Be16      1.0  0.46401  0.75001  0.11272  1.0000
  C   C1        1.0  0.25000  0.25000  0.13456  1.0000
