# generated using pymatgen
data_Li4Y4In4Sn4C
_symmetry_space_group_name_H-M   Pm
_cell_length_a   6.33264000
_cell_length_b   9.36656000
_cell_length_c   24.74860000
_cell_angle_alpha   90.00000000
_cell_angle_beta   90.00000000
_cell_angle_gamma   90.00000000
_symmetry_Int_Tables_number   6
_chemical_formula_structural   Li4Y4In4Sn4C
_chemical_formula_sum   'Li4 Y4 In4 Sn4 C1'
_cell_volume   1467.96450876
_cell_formula_units_Z   1
loop_
 _symmetry_equiv_pos_site_id
 _symmetry_equiv_pos_as_xyz
  1  'x, y, z'
  2  'x, -y, z'
loop_
 _atom_site_type_symbol
 _atom_site_label
 _atom_site_symmetry_multiplicity
 _atom_site_fract_x
 _atom_site_fract_y
 _atom_site_fract_z
 _atom_site_occupancy
  Li  Li0  2  0.57332000  0.26302000  0.09439000  1.0
  Li  Li1  2  0.99032000  0.25000000  0.96802000  1.0
  Y  Y2  1  0.24047000  0.50000000  0.03811000  1.0
  Y  Y3  1  0.27816000  0.00000000  0.03287000  1.0
  Y  Y4  1  0.73548000  0.00000000  0.90406000  1.0
  Y  Y5  1  0.73548000  0.50000000  0.90406000  1.0
  In  In6  2  0.08943000  0.23966000  0.11351000  1.0
  In  In7  2  0.49032000  0.25000000  0.96802000  1.0
  Sn  Sn8  1  0.23548000  0.00000000  0.90406000  1.0
  Sn  Sn9  1  0.23548000  0.50000000  0.90406000  1.0
  Sn  Sn10  1  0.75366000  0.50000000  0.03828000  1.0
  Sn  Sn11  1  0.76322000  0.00000000  0.04216000  1.0
  C  C12  1  0.03672000  0.00000000  0.10085000  1.0
