# generated using pymatgen
data_Ti8Co16Sn8CO
_symmetry_space_group_name_H-M   'P 1'
_cell_length_a   8.64705000
_cell_length_b   6.11439000
_cell_length_c   26.48530000
_cell_angle_alpha   90.00000000
_cell_angle_beta   90.00000000
_cell_angle_gamma   90.00000000
_symmetry_Int_Tables_number   1
_chemical_formula_structural   Ti8Co16Sn8CO
_chemical_formula_sum   'Ti8 Co16 Sn8 C1 O1'
_cell_volume   1400.31584520
_cell_formula_units_Z   1
loop_
 _symmetry_equiv_pos_site_id
 _symmetry_equiv_pos_as_xyz
  1  'x, y, z'
loop_
 _atom_site_type_symbol
 _atom_site_label
 _atom_site_symmetry_multiplicity
 _atom_site_fract_x
 _atom_site_fract_y
 _atom_site_fract_z
 _atom_site_occupancy
  Ti  Ti0  1  0.00000000  0.00000000  0.12243000  1.0
  Ti  Ti1  1  0.25000000  0.50000000  0.04081000  1.0
  Ti  Ti2  1  0.75000000  0.50000000  0.04081000  1.0
  Ti  Ti3  1  0.50000000  0.00000000  0.12243000  1.0
  Ti  Ti4  1  0.50000000  0.00052000  0.95780000  1.0
  Ti  Ti5  1  0.74853000  0.50115000  0.87822000  1.0
  Ti  Ti6  1  0.25147000  0.50115000  0.87822000  1.0
  Ti  Ti7  1  0.00000000  0.99752000  0.95846000  1.0
  Co  Co8  1  0.00000000  0.25000000  0.04081000  1.0
  Co  Co9  1  0.50000000  0.75000000  0.04081000  1.0
  Co  Co10  1  0.00000000  0.75000000  0.04081000  1.0
  Co  Co11  1  0.50000000  0.25000000  0.04081000  1.0
  Co  Co12  1  0.75000000  0.75000000  0.12243000  1.0
  Co  Co13  1  0.25000000  0.25000000  0.12243000  1.0
  Co  Co14  1  0.75000000  0.25000000  0.12243000  1.0
  Co  Co15  1  0.25000000  0.75000000  0.12243000  1.0
  Co  Co16  1  0.50000000  0.25121000  0.88073000  1.0
  Co  Co17  1  0.00000000  0.74757000  0.88116000  1.0
  Co  Co18  1  0.50000000  0.74729000  0.88019000  1.0
  Co  Co19  1  0.00000000  0.25447000  0.87279000  1.0
  Co  Co20  1  0.24990000  0.74788000  0.95883000  1.0
  Co  Co21  1  0.75126000  0.25122000  0.95859000  1.0
  Co  Co22  1  0.24874000  0.25122000  0.95859000  1.0
  Co  Co23  1  0.75010000  0.74788000  0.95883000  1.0
  Sn  Sn24  1  0.75000000  0.00000000  0.04081000  1.0
  Sn  Sn25  1  0.00000000  0.50000000  0.12243000  1.0
  Sn  Sn26  1  0.25000000  0.00000000  0.04081000  1.0
  Sn  Sn27  1  0.50000000  0.50000000  0.12243000  1.0
  Sn  Sn28  1  0.25218000  0.99687000  0.87432000  1.0
  Sn  Sn29  1  0.50000000  0.49988000  0.95851000  1.0
  Sn  Sn30  1  0.74782000  0.99687000  0.87432000  1.0
  Sn  Sn31  1  0.00000000  0.49937000  0.95864000  1.0
  C  C32  1  0.00000000  0.25990000  0.80828000  1.0
  O  O33  1  0.00000000  0.24808000  0.76493000  1.0
