# generated using pymatgen
data_NaBi
_symmetry_space_group_name_H-M   'P 1'
_cell_length_a   3.49894000
_cell_length_b   3.49894000
_cell_length_c   27.33890000
_cell_angle_alpha   90.00000000
_cell_angle_beta   90.00000000
_cell_angle_gamma   90.00000000
_symmetry_Int_Tables_number   1
_chemical_formula_structural   NaBi
_chemical_formula_sum   'Na2 Bi2'
_cell_volume   334.69870108
_cell_formula_units_Z   2
loop_
 _symmetry_equiv_pos_site_id
 _symmetry_equiv_pos_as_xyz
  1  'x, y, z'
loop_
 _atom_site_type_symbol
 _atom_site_label
 _atom_site_symmetry_multiplicity
 _atom_site_fract_x
 _atom_site_fract_y
 _atom_site_fract_z
 _atom_site_occupancy
  Na  Na0  1  0.00000000  0.00000000  0.09835000  1.0
  Na  Na1  1  0.00000000  0.00000000  0.91939000  1.0
  Bi  Bi2  1  0.50000000  0.50000000  0.00887000  1.0
  Bi  Bi3  1  0.50000000  0.50000000  0.82991000  1.0
