# generated using pymatgen
data_Li8Cu4Sb4CO
_symmetry_space_group_name_H-M   'P 1'
_cell_length_a   6.37457000
_cell_length_b   6.37457000
_cell_length_c   24.78090000
_cell_angle_alpha   90.00000000
_cell_angle_beta   90.00000000
_cell_angle_gamma   90.00000000
_symmetry_Int_Tables_number   1
_chemical_formula_structural   Li8Cu4Sb4CO
_chemical_formula_sum   'Li8 Cu4 Sb4 C1 O1'
_cell_volume   1006.97540736
_cell_formula_units_Z   1
loop_
 _symmetry_equiv_pos_site_id
 _symmetry_equiv_pos_as_xyz
  1  'x, y, z'
loop_
 _atom_site_type_symbol
 _atom_site_label
 _atom_site_symmetry_multiplicity
 _atom_site_fract_x
 _atom_site_fract_y
 _atom_site_fract_z
 _atom_site_occupancy
  Li  Li0  1  0.50000000  0.50000000  0.96785000  1
  Li  Li1  1  0.50000000  0.00000000  0.10850000  1
  Li  Li2  1  0.00000000  0.50000000  0.10850000  1
  Li  Li3  1  0.00000000  0.00000000  0.96785000  1
  Li  Li4  1  0.25360500  0.74639500  0.02745000  1
  Li  Li5  1  0.75000500  0.75000500  0.90354000  1
  Li  Li6  1  0.74639500  0.25360500  0.02745000  1
  Li  Li7  1  0.24999500  0.24999500  0.90354000  1
  Cu  Cu8  1  0.50000000  0.50000000  0.09807000  1
  Cu  Cu9  1  0.00000000  0.00000000  0.08619000  1
  Cu  Cu10  1  0.50000000  0.00000000  0.96785000  1
  Cu  Cu11  1  0.00000000  0.50000000  0.96785000  1
  Sb  Sb12  1  0.25000500  0.74999500  0.90354000  1
  Sb  Sb13  1  0.74606500  0.74606500  0.04134000  1
  Sb  Sb14  1  0.74999500  0.25000500  0.90354000  1
  Sb  Sb15  1  0.25393500  0.25393500  0.04134000  1
  C  C16  1  0.50000000  0.50000000  0.17245000  1
  O  O17  1  0.50000000  0.50000000  0.21925000  1
