# generated using pymatgen
data_Ti8Rh8C
_symmetry_space_group_name_H-M   P4mm
_cell_length_a   5.93282000
_cell_length_b   5.93282000
_cell_length_c   25.18920000
_cell_angle_alpha   90.00000000
_cell_angle_beta   90.00000000
_cell_angle_gamma   90.00000000
_symmetry_Int_Tables_number   99
_chemical_formula_structural   Ti8Rh8C
_chemical_formula_sum   'Ti8 Rh8 C1'
_cell_volume   886.61835723
_cell_formula_units_Z   1
loop_
 _symmetry_equiv_pos_site_id
 _symmetry_equiv_pos_as_xyz
  1  'x, y, z'
  2  '-y, x, z'
  3  '-x, -y, z'
  4  'y, -x, z'
  5  '-x, y, z'
  6  'y, x, z'
  7  'x, -y, z'
  8  '-y, -x, z'
loop_
 _atom_site_type_symbol
 _atom_site_label
 _atom_site_symmetry_multiplicity
 _atom_site_fract_x
 _atom_site_fract_y
 _atom_site_fract_z
 _atom_site_occupancy
  Ti  Ti0  2  0.00000000  0.50000000  0.04687000  1.0
  Ti  Ti1  2  0.00000000  0.50000000  0.90953000  1.0
  Ti  Ti2  1  0.00000000  0.00000000  0.04687000  1.0
  Ti  Ti3  1  0.00000000  0.00000000  0.90953000  1.0
  Ti  Ti4  1  0.50000000  0.50000000  0.04687000  1.0
  Ti  Ti5  1  0.50000000  0.50000000  0.90953000  1.0
  Rh  Rh6  4  0.25000000  0.25000000  0.11554000  1.0
  Rh  Rh7  4  0.25000000  0.25000000  0.97820000  1.0
  C  C8  1  0.00000000  0.00000000  0.14730000  1.0
