# generated using pymatgen
data_Y4In4Sn4Pd4C
_symmetry_space_group_name_H-M   Pm
_cell_length_a   6.29351000
_cell_length_b   9.16402000
_cell_length_c   24.71690000
_cell_angle_alpha   90.00000000
_cell_angle_beta   90.00000000
_cell_angle_gamma   90.00000000
_symmetry_Int_Tables_number   6
_chemical_formula_structural   Y4In4Sn4Pd4C
_chemical_formula_sum   'Y4 In4 Sn4 Pd4 C1'
_cell_volume   1425.51882039
_cell_formula_units_Z   1
loop_
 _symmetry_equiv_pos_site_id
 _symmetry_equiv_pos_as_xyz
  1  'x, y, z'
  2  'x, -y, z'
loop_
 _atom_site_type_symbol
 _atom_site_label
 _atom_site_symmetry_multiplicity
 _atom_site_fract_x
 _atom_site_fract_y
 _atom_site_fract_z
 _atom_site_occupancy
  Y  Y0  1  0.22218000  0.00000000  0.90458000  1.0
  Y  Y1  1  0.22218000  0.50000000  0.90458000  1.0
  Y  Y2  1  0.77874000  0.00000000  0.02550000  1.0
  Y  Y3  1  0.82037000  0.50000000  0.03815000  1.0
  In  In4  2  0.48145000  0.25000000  0.96819000  1.0
  In  In5  2  0.94641000  0.19073000  0.13403000  1.0
  Sn  Sn6  1  0.26494000  0.00000000  0.04496000  1.0
  Sn  Sn7  1  0.32055000  0.50000000  0.05680000  1.0
  Sn  Sn8  1  0.72218000  0.00000000  0.90458000  1.0
  Sn  Sn9  1  0.72218000  0.50000000  0.90458000  1.0
  Pd  Pd10  2  0.54817000  0.22827000  0.08204000  1.0
  Pd  Pd11  2  0.98145000  0.25000000  0.96819000  1.0
  C  C12  1  0.70054000  0.00000000  0.11498000  1.0
