# generated using pymatgen
data_LiAlCuGe
_symmetry_space_group_name_H-M   'P 1'
_cell_length_a   7.78580000
_cell_length_b   5.44163000
_cell_length_c   24.08040000
_cell_angle_alpha   90.00000000
_cell_angle_beta   90.00000000
_cell_angle_gamma   90.00000000
_symmetry_Int_Tables_number   1
_chemical_formula_structural   LiAlCuGe
_chemical_formula_sum   'Li4 Al4 Cu4 Ge4'
_cell_volume   1020.22497090
_cell_formula_units_Z   4
loop_
 _symmetry_equiv_pos_site_id
 _symmetry_equiv_pos_as_xyz
  1  'x, y, z'
loop_
 _atom_site_type_symbol
 _atom_site_label
 _atom_site_symmetry_multiplicity
 _atom_site_fract_x
 _atom_site_fract_y
 _atom_site_fract_z
 _atom_site_occupancy
  Li  Li0  1  0.00000000  0.74809000  0.97207000  1.0
  Li  Li1  1  0.00000000  0.23462000  0.08472000  1.0
  Li  Li2  1  0.50000000  0.74806000  0.97206000  1.0
  Li  Li3  1  0.50000000  0.23462000  0.08472000  1.0
  Al  Al4  1  0.74999000  0.01136000  0.91910000  1.0
  Al  Al5  1  0.75000000  0.48975000  0.02824000  1.0
  Al  Al6  1  0.25001000  0.01136000  0.91910000  1.0
  Al  Al7  1  0.25000000  0.48975000  0.02824000  1.0
  Cu  Cu8  1  0.00000000  0.25300000  0.96596000  1.0
  Cu  Cu9  1  0.00000000  0.73462000  0.08472000  1.0
  Cu  Cu10  1  0.50000000  0.25311000  0.96593000  1.0
  Cu  Cu11  1  0.50000000  0.73462000  0.08472000  1.0
  Ge  Ge12  1  0.75044000  0.49200000  0.91673000  1.0
  Ge  Ge13  1  0.75000000  0.98975000  0.02824000  1.0
  Ge  Ge14  1  0.24956000  0.49200000  0.91673000  1.0
  Ge  Ge15  1  0.25000000  0.98975000  0.02824000  1.0
