# generated using pymatgen
data_Li8Y8Ge8Pd8C
_symmetry_space_group_name_H-M   'P 1'
_cell_length_a   9.26950000
_cell_length_b   6.55453000
_cell_length_c   26.95210000
_cell_angle_alpha   90.00000000
_cell_angle_beta   90.00000000
_cell_angle_gamma   90.00000000
_symmetry_Int_Tables_number   1
_chemical_formula_structural   Li8Y8Ge8Pd8C
_chemical_formula_sum   'Li8 Y8 Ge8 Pd8 C1'
_cell_volume   1637.53455691
_cell_formula_units_Z   1
loop_
 _symmetry_equiv_pos_site_id
 _symmetry_equiv_pos_as_xyz
  1  'x, y, z'
loop_
 _atom_site_type_symbol
 _atom_site_label
 _atom_site_symmetry_multiplicity
 _atom_site_fract_x
 _atom_site_fract_y
 _atom_site_fract_z
 _atom_site_occupancy
  Li  Li0  1  0.50000000  0.75000000  0.04299000  1.0
  Li  Li1  1  0.00000000  0.75000000  0.04299000  1.0
  Li  Li2  1  0.75002000  0.25000000  0.12897000  1.0
  Li  Li3  1  0.24998000  0.25000000  0.12897000  1.0
  Li  Li4  1  0.00000000  0.53229000  0.81333000  1.0
  Li  Li5  1  0.50000000  0.65598000  0.82411000  1.0
  Li  Li6  1  0.25224000  0.21327000  0.94684000  1.0
  Li  Li7  1  0.74776000  0.21327000  0.94684000  1.0
  Y  Y8  1  0.75002000  1.00000000  0.04299000  1.0
  Y  Y9  1  0.24998000  1.00000000  0.04299000  1.0
  Y  Y10  1  0.00000000  0.50000000  0.12897000  1.0
  Y  Y11  1  0.50000000  0.50000000  0.12897000  1.0
  Y  Y12  1  0.21002000  0.92054000  0.86215000  1.0
  Y  Y13  1  0.78998000  0.92054000  0.86215000  1.0
  Y  Y14  1  0.50000000  0.50670000  0.95288000  1.0
  Y  Y15  1  0.00000000  0.50124000  0.95273000  1.0
  Ge  Ge16  1  0.50000000  0.00000000  0.12897000  1.0
  Ge  Ge17  1  0.00000000  0.00000000  0.12897000  1.0
  Ge  Ge18  1  0.25002000  0.50000000  0.04299000  1.0
  Ge  Ge19  1  0.74998000  0.50000000  0.04299000  1.0
  Ge  Ge20  1  0.00000000  0.99374000  0.95825000  1.0
  Ge  Ge21  1  0.50000000  0.97805000  0.96200000  1.0
  Ge  Ge22  1  0.72486000  0.47134000  0.86638000  1.0
  Ge  Ge23  1  0.27514000  0.47134000  0.86638000  1.0
  Pd  Pd24  1  0.50000000  0.25000000  0.04299000  1.0
  Pd  Pd25  1  0.00000000  0.25000000  0.04299000  1.0
  Pd  Pd26  1  0.75002000  0.75000000  0.12897000  1.0
  Pd  Pd27  1  0.24998000  0.75000000  0.12897000  1.0
  Pd  Pd28  1  0.00000000  0.23033000  0.87372000  1.0
  Pd  Pd29  1  0.50000000  0.09424000  0.87305000  1.0
  Pd  Pd30  1  0.24721000  0.75357000  0.95751000  1.0
  Pd  Pd31  1  0.75279000  0.75357000  0.95751000  1.0
  C  C32  1  0.50000000  0.39726000  0.86868000  1.0
