# generated using pymatgen
data_Li8Y8Ag8Sn8CO
_symmetry_space_group_name_H-M   'P 1'
_cell_length_a   7.11214000
_cell_length_b   10.05810000
_cell_length_c   27.54360000
_cell_angle_alpha   90.00000000
_cell_angle_beta   90.00000000
_cell_angle_gamma   90.00000000
_symmetry_Int_Tables_number   1
_chemical_formula_structural   Li8Y8Ag8Sn8CO
_chemical_formula_sum   'Li8 Y8 Ag8 Sn8 C1 O1'
_cell_volume   1970.32083091
_cell_formula_units_Z   1
loop_
 _symmetry_equiv_pos_site_id
 _symmetry_equiv_pos_as_xyz
  1  'x, y, z'
loop_
 _atom_site_type_symbol
 _atom_site_label
 _atom_site_symmetry_multiplicity
 _atom_site_fract_x
 _atom_site_fract_y
 _atom_site_fract_z
 _atom_site_occupancy
  Li  Li0  1  0.25000000  0.00000000  0.95435000  1.0
  Li  Li1  1  0.25000000  0.50000000  0.95435000  1.0
  Li  Li2  1  0.75000000  0.25000000  0.86306000  1.0
  Li  Li3  1  0.75000000  0.75000000  0.86306000  1.0
  Li  Li4  1  0.24577000  0.50016000  0.13328000  1.0
  Li  Li5  1  0.24548000  0.97970000  0.13317000  1.0
  Li  Li6  1  0.76008000  0.74987000  0.04116000  1.0
  Li  Li7  1  0.75608000  0.24458000  0.04724000  1.0
  Y  Y8  1  0.75000000  0.00000000  0.95435000  1.0
  Y  Y9  1  0.75000000  0.50000000  0.95435000  1.0
  Y  Y10  1  0.25000000  0.25000000  0.86306000  1.0
  Y  Y11  1  0.25000000  0.75000000  0.86306000  1.0
  Y  Y12  1  0.76941000  0.46292000  0.14465000  1.0
  Y  Y13  1  0.77249000  0.00982000  0.14083000  1.0
  Y  Y14  1  0.25086000  0.74406000  0.04624000  1.0
  Y  Y15  1  0.25077000  0.24857000  0.04665000  1.0
  Ag  Ag16  1  0.00000000  0.00000000  0.86306000  1.0
  Ag  Ag17  1  0.00000000  0.50000000  0.86306000  1.0
  Ag  Ag18  1  0.50000000  0.75000000  0.95435000  1.0
  Ag  Ag19  1  0.50000000  0.25000000  0.95435000  1.0
  Ag  Ag20  1  0.98766000  0.50021000  0.04801000  1.0
  Ag  Ag21  1  0.99710000  0.99582000  0.04663000  1.0
  Ag  Ag22  1  0.47932000  0.23789000  0.13601000  1.0
  Ag  Ag23  1  0.55675000  0.73866000  0.12467000  1.0
  Sn  Sn24  1  0.00000000  0.25000000  0.95435000  1.0
  Sn  Sn25  1  0.00000000  0.75000000  0.95435000  1.0
  Sn  Sn26  1  0.50000000  0.50000000  0.86306000  1.0
  Sn  Sn27  1  0.50000000  0.00000000  0.86306000  1.0
  Sn  Sn28  1  0.98956000  0.73913000  0.13810000  1.0
  Sn  Sn29  1  0.05758000  0.23690000  0.14841000  1.0
  Sn  Sn30  1  0.50959000  0.99485000  0.05057000  1.0
  Sn  Sn31  1  0.51698000  0.49732000  0.05145000  1.0
  C  C32  1  0.69469000  0.34027000  0.21803000  1.0
  O  O33  1  0.66600000  0.28896000  0.25505000  1.0
