# generated using pymatgen
data_Sc8Cu8Ge8Pd8C
_symmetry_space_group_name_H-M   'P 1'
_cell_length_a   8.95756000
_cell_length_b   6.33395000
_cell_length_c   26.71820000
_cell_angle_alpha   90.00000000
_cell_angle_beta   90.00000000
_cell_angle_gamma   90.00000000
_symmetry_Int_Tables_number   1
_chemical_formula_structural   Sc8Cu8Ge8Pd8C
_chemical_formula_sum   'Sc8 Cu8 Ge8 Pd8 C1'
_cell_volume   1515.90349084
_cell_formula_units_Z   1
loop_
 _symmetry_equiv_pos_site_id
 _symmetry_equiv_pos_as_xyz
  1  'x, y, z'
loop_
 _atom_site_type_symbol
 _atom_site_label
 _atom_site_symmetry_multiplicity
 _atom_site_fract_x
 _atom_site_fract_y
 _atom_site_fract_z
 _atom_site_occupancy
  Sc  Sc0  1  0.00000000  0.75000000  0.04191000  1.0
  Sc  Sc1  1  0.50000000  0.75000000  0.04191000  1.0
  Sc  Sc2  1  0.25000000  0.25000000  0.12572000  1.0
  Sc  Sc3  1  0.75000000  0.25000000  0.12572000  1.0
  Sc  Sc4  1  0.50000000  0.75162000  0.86682000  1.0
  Sc  Sc5  1  0.00000000  0.71786000  0.87309000  1.0
  Sc  Sc6  1  0.74054000  0.24838000  0.95943000  1.0
  Sc  Sc7  1  0.25946000  0.24838000  0.95943000  1.0
  Cu  Cu8  1  0.00000000  0.00000000  0.12572000  1.0
  Cu  Cu9  1  0.50000000  1.00000000  0.12572000  1.0
  Cu  Cu10  1  0.75000000  0.50000000  0.04191000  1.0
  Cu  Cu11  1  0.25000000  0.50000000  0.04191000  1.0
  Cu  Cu12  1  0.50000000  0.97434000  0.95268000  1.0
  Cu  Cu13  1  0.00000000  0.02200000  0.94748000  1.0
  Cu  Cu14  1  0.26301000  0.47506000  0.87278000  1.0
  Cu  Cu15  1  0.73699000  0.47506000  0.87278000  1.0
  Ge  Ge16  1  0.00000000  0.25000000  0.04191000  1.0
  Ge  Ge17  1  0.50000000  0.25000000  0.04191000  1.0
  Ge  Ge18  1  0.25000000  0.75000000  0.12572000  1.0
  Ge  Ge19  1  0.75000000  0.75000000  0.12572000  1.0
  Ge  Ge20  1  0.50000000  0.24120000  0.87423000  1.0
  Ge  Ge21  1  0.00000000  0.32450000  0.85613000  1.0
  Ge  Ge22  1  0.75506000  0.74324000  0.95598000  1.0
  Ge  Ge23  1  0.24494000  0.74324000  0.95598000  1.0
  Pd  Pd24  1  0.25000000  0.00000000  0.04191000  1.0
  Pd  Pd25  1  0.75000000  0.00000000  0.04191000  1.0
  Pd  Pd26  1  0.50000000  0.50000000  0.12572000  1.0
  Pd  Pd27  1  0.00000000  0.50000000  0.12572000  1.0
  Pd  Pd28  1  0.74840000  0.00818000  0.87687000  1.0
  Pd  Pd29  1  0.25160000  0.00818000  0.87687000  1.0
  Pd  Pd30  1  0.00000000  0.47452000  0.95849000  1.0
  Pd  Pd31  1  0.50000000  0.52260000  0.95490000  1.0
  C  C32  1  0.00000000  0.03649000  0.86857000  1.0
