# generated using pymatgen
data_Sc8Cu8Ge8Pd8C
_symmetry_space_group_name_H-M   Pm
_cell_length_a   6.33395000
_cell_length_b   8.95756000
_cell_length_c   26.71820000
_cell_angle_alpha   90.00000000
_cell_angle_beta   90.00000000
_cell_angle_gamma   90.00000000
_symmetry_Int_Tables_number   6
_chemical_formula_structural   Sc8Cu8Ge8Pd8C
_chemical_formula_sum   'Sc8 Cu8 Ge8 Pd8 C1'
_cell_volume   1515.90349084
_cell_formula_units_Z   1
loop_
 _symmetry_equiv_pos_site_id
 _symmetry_equiv_pos_as_xyz
  1  'x, y, z'
  2  'x, -y, z'
loop_
 _atom_site_type_symbol
 _atom_site_label
 _atom_site_symmetry_multiplicity
 _atom_site_fract_x
 _atom_site_fract_y
 _atom_site_fract_z
 _atom_site_occupancy
  Sc  Sc0  2  0.24838000  0.25946000  0.04057000  1.0
  Sc  Sc1  2  0.25000000  0.25000000  0.87428000  1.0
  Sc  Sc2  1  0.71786000  0.00000000  0.12691000  1.0
  Sc  Sc3  1  0.75000000  0.00000000  0.95809000  1.0
  Sc  Sc4  1  0.75000000  0.50000000  0.95809000  1.0
  Sc  Sc5  1  0.75162000  0.50000000  0.13318000  1.0
  Cu  Cu6  2  0.47506000  0.26301000  0.12722000  1.0
  Cu  Cu7  2  0.50000000  0.25000000  0.95809000  1.0
  Cu  Cu8  1  -0.00000000  0.50000000  0.87428000  1.0
  Cu  Cu9  1  0.00000000  0.00000000  0.87428000  1.0
  Cu  Cu10  1  0.02200000  0.00000000  0.05252000  1.0
  Cu  Cu11  1  0.97434000  0.50000000  0.04732000  1.0
  Ge  Ge12  2  0.74324000  0.24494000  0.04402000  1.0
  Ge  Ge13  2  0.75000000  0.25000000  0.87428000  1.0
  Ge  Ge14  1  0.24120000  0.50000000  0.12577000  1.0
  Ge  Ge15  1  0.25000000  0.00000000  0.95809000  1.0
  Ge  Ge16  1  0.25000000  0.50000000  0.95809000  1.0
  Ge  Ge17  1  0.32450000  0.00000000  0.14387000  1.0
  Pd  Pd18  2  0.00000000  0.25000000  0.95809000  1.0
  Pd  Pd19  2  0.00818000  0.25160000  0.12313000  1.0
  Pd  Pd20  1  0.47452000  0.00000000  0.04151000  1.0
  Pd  Pd21  1  0.50000000  0.00000000  0.87428000  1.0
  Pd  Pd22  1  0.50000000  0.50000000  0.87428000  1.0
  Pd  Pd23  1  0.52260000  0.50000000  0.04510000  1.0
  C  C24  1  0.03649000  0.00000000  0.13143000  1.0
