# generated using pymatgen
data_Ga8Fe16Co8C
_symmetry_space_group_name_H-M   Pmm2
_cell_length_a   5.79866000
_cell_length_b   8.20054000
_cell_length_c   26.15040000
_cell_angle_alpha   90.00000000
_cell_angle_beta   90.00000000
_cell_angle_gamma   90.00000000
_symmetry_Int_Tables_number   25
_chemical_formula_structural   Ga8Fe16Co8C
_chemical_formula_sum   'Ga8 Fe16 Co8 C1'
_cell_volume   1243.50756754
_cell_formula_units_Z   1
loop_
 _symmetry_equiv_pos_site_id
 _symmetry_equiv_pos_as_xyz
  1  'x, y, z'
  2  '-x, -y, z'
  3  '-x, y, z'
  4  'x, -y, z'
loop_
 _atom_site_type_symbol
 _atom_site_label
 _atom_site_symmetry_multiplicity
 _atom_site_fract_x
 _atom_site_fract_y
 _atom_site_fract_z
 _atom_site_occupancy
  Ga  Ga0  2  0.50000000  0.25000000  0.96080000  1.0
  Ga  Ga1  2  0.50000000  0.25667000  0.13408000  1.0
  Ga  Ga2  1  0.00000000  0.00000000  0.03800000  1.0
  Ga  Ga3  1  0.00000000  0.00000000  0.88240000  1.0
  Ga  Ga4  1  0.00000000  0.50000000  0.03856000  1.0
  Ga  Ga5  1  0.00000000  0.50000000  0.88240000  1.0
  Fe  Fe6  4  0.25000000  0.25000000  0.88240000  1.0
  Fe  Fe7  4  0.26317000  0.24909000  0.04440000  1.0
  Fe  Fe8  2  0.24867000  0.50000000  0.11660000  1.0
  Fe  Fe9  2  0.25000000  0.50000000  0.96080000  1.0
  Fe  Fe10  2  0.25000000  0.00000000  0.96080000  1.0
  Fe  Fe11  2  0.28968000  0.00000000  0.11311000  1.0
  Co  Co12  2  0.00000000  0.23702000  0.11573000  1.0
  Co  Co13  2  0.00000000  0.25000000  0.96080000  1.0
  Co  Co14  1  0.50000000  0.00000000  0.03061000  1.0
  Co  Co15  1  0.50000000  0.00000000  0.88240000  1.0
  Co  Co16  1  0.50000000  0.50000000  0.03730000  1.0
  Co  Co17  1  0.50000000  0.50000000  0.88240000  1.0
  C  C18  1  0.00000000  0.00000000  0.13872000  1.0
