# generated using pymatgen
data_Li4Al4Co4Pd4CO
_symmetry_space_group_name_H-M   'P 1'
_cell_length_a   5.87254000
_cell_length_b   5.87254000
_cell_length_c   24.40440000
_cell_angle_alpha   90.00000000
_cell_angle_beta   90.00000000
_cell_angle_gamma   90.00000000
_symmetry_Int_Tables_number   1
_chemical_formula_structural   Li4Al4Co4Pd4CO
_chemical_formula_sum   'Li4 Al4 Co4 Pd4 C1 O1'
_cell_volume   841.62785725
_cell_formula_units_Z   1
loop_
 _symmetry_equiv_pos_site_id
 _symmetry_equiv_pos_as_xyz
  1  'x, y, z'
loop_
 _atom_site_type_symbol
 _atom_site_label
 _atom_site_symmetry_multiplicity
 _atom_site_fract_x
 _atom_site_fract_y
 _atom_site_fract_z
 _atom_site_occupancy
  Li  Li0  1  0.50000000  0.00000000  0.10142000  1
  Li  Li1  1  0.00000000  0.00000000  0.96992000  1
  Li  Li2  1  0.50000000  0.50000000  0.96992000  1
  Li  Li3  1  0.00000000  0.50000000  0.10142000  1
  Al  Al4  1  0.00000000  0.00000000  0.08751000  1
  Al  Al5  1  0.50000000  1.00000000  0.96992000  1
  Al  Al6  1  0.00000000  0.50000000  0.96992000  1
  Al  Al7  1  0.50000000  0.50000000  0.08368000  1
  Co  Co8  1  0.75074500  0.75074500  0.03339000  1
  Co  Co9  1  0.25000000  0.75000000  0.90976000  1
  Co  Co10  1  0.75000000  0.25000000  0.90976000  1
  Co  Co11  1  0.24925500  0.24925500  0.03339000  1
  Pd  Pd12  1  0.75221500  0.24778500  0.03221000  1
  Pd  Pd13  1  0.24999000  0.24999000  0.90976000  1
  Pd  Pd14  1  0.75001000  0.75001000  0.90976000  1
  Pd  Pd15  1  0.24778500  0.75221500  0.03221000  1
  C  C16  1  0.00000000  0.00000000  0.16933000  1
  O  O17  1  0.00000000  0.00000000  0.21696000  1
