# generated using pymatgen
data_Zr8Al8Pd16CO
_symmetry_space_group_name_H-M   'P 1'
_cell_length_a   6.48931000
_cell_length_b   9.17726000
_cell_length_c   26.88290000
_cell_angle_alpha   90.00000000
_cell_angle_beta   90.00000000
_cell_angle_gamma   90.00000000
_symmetry_Int_Tables_number   1
_chemical_formula_structural   Zr8Al8Pd16CO
_chemical_formula_sum   'Zr8 Al8 Pd16 C1 O1'
_cell_volume   1600.98651408
_cell_formula_units_Z   1
loop_
 _symmetry_equiv_pos_site_id
 _symmetry_equiv_pos_as_xyz
  1  'x, y, z'
loop_
 _atom_site_type_symbol
 _atom_site_label
 _atom_site_symmetry_multiplicity
 _atom_site_fract_x
 _atom_site_fract_y
 _atom_site_fract_z
 _atom_site_occupancy
  Zr  Zr0  1  0.00000000  0.75000000  0.87198000  1.0
  Zr  Zr1  1  0.50000000  0.00000000  0.95733000  1.0
  Zr  Zr2  1  0.50000000  0.50000000  0.95733000  1.0
  Zr  Zr3  1  0.00000000  0.25000000  0.87198000  1.0
  Zr  Zr4  1  0.00000000  0.25251000  0.04202000  1.0
  Zr  Zr5  1  0.50000000  0.50000000  0.13152000  1.0
  Zr  Zr6  1  0.50000000  0.00000000  0.12990000  1.0
  Zr  Zr7  1  0.00000000  0.74749000  0.04202000  1.0
  Al  Al8  1  0.00000000  0.50000000  0.95733000  1.0
  Al  Al9  1  0.50000000  0.75000000  0.87198000  1.0
  Al  Al10  1  0.00000000  0.00000000  0.95733000  1.0
  Al  Al11  1  0.50000000  0.25000000  0.87198000  1.0
  Al  Al12  1  0.00000000  0.00000000  0.12277000  1.0
  Al  Al13  1  0.50000000  0.24798000  0.04524000  1.0
  Al  Al14  1  0.00000000  0.50000000  0.12294000  1.0
  Al  Al15  1  0.50000000  0.75202000  0.04524000  1.0
  Pd  Pd16  1  0.25000000  0.75000000  0.95733000  1.0
  Pd  Pd17  1  0.75000000  0.25000000  0.95733000  1.0
  Pd  Pd18  1  0.75000000  0.75000000  0.95733000  1.0
  Pd  Pd19  1  0.25000000  0.25000000  0.95733000  1.0
  Pd  Pd20  1  0.75000000  0.50000000  0.87198000  1.0
  Pd  Pd21  1  0.25000000  0.00000000  0.87198000  1.0
  Pd  Pd22  1  0.25000000  0.50000000  0.87198000  1.0
  Pd  Pd23  1  0.75000000  0.00000000  0.87198000  1.0
  Pd  Pd24  1  0.24137000  0.25121000  0.12419000  1.0
  Pd  Pd25  1  0.75863000  0.74879000  0.12419000  1.0
  Pd  Pd26  1  0.75863000  0.25121000  0.12419000  1.0
  Pd  Pd27  1  0.24137000  0.74879000  0.12419000  1.0
  Pd  Pd28  1  0.74385000  0.00000000  0.04211000  1.0
  Pd  Pd29  1  0.26953000  0.50000000  0.04469000  1.0
  Pd  Pd30  1  0.25615000  0.00000000  0.04211000  1.0
  Pd  Pd31  1  0.73047000  0.50000000  0.04469000  1.0
  C  C32  1  0.50000000  0.00000000  0.21610000  1.0
  O  O33  1  0.50000000  0.00000000  0.25885000  1.0
