# generated using pymatgen
data_Mn8Ni16Ge8C
_symmetry_space_group_name_H-M   'P 1'
_cell_length_a   8.26252000
_cell_length_b   5.84248000
_cell_length_c   26.19690000
_cell_angle_alpha   90.00000000
_cell_angle_beta   90.00000000
_cell_angle_gamma   90.00000000
_symmetry_Int_Tables_number   1
_chemical_formula_structural   Mn8Ni16Ge8C
_chemical_formula_sum   'Mn8 Ni16 Ge8 C1'
_cell_volume   1264.61887748
_cell_formula_units_Z   1
loop_
 _symmetry_equiv_pos_site_id
 _symmetry_equiv_pos_as_xyz
  1  'x, y, z'
loop_
 _atom_site_type_symbol
 _atom_site_label
 _atom_site_symmetry_multiplicity
 _atom_site_fract_x
 _atom_site_fract_y
 _atom_site_fract_z
 _atom_site_occupancy
  Mn  Mn0  1  0.75000000  0.00000000  0.11828000  1.0
  Mn  Mn1  1  0.00000000  0.50000000  0.03943000  1.0
  Mn  Mn2  1  0.50000000  0.50000000  0.03943000  1.0
  Mn  Mn3  1  0.25000000  0.00000000  0.11828000  1.0
  Mn  Mn4  1  0.25687000  0.99705000  0.96267000  1.0
  Mn  Mn5  1  0.50000000  0.48735000  0.87547000  1.0
  Mn  Mn6  1  0.00000000  0.52565000  0.88245000  1.0
  Mn  Mn7  1  0.74313000  0.99705000  0.96267000  1.0
  Ni  Ni8  1  0.75000000  0.25000000  0.03943000  1.0
  Ni  Ni9  1  0.25000000  0.75000000  0.03943000  1.0
  Ni  Ni10  1  0.75000000  0.75000000  0.03943000  1.0
  Ni  Ni11  1  0.25000000  0.25000000  0.03943000  1.0
  Ni  Ni12  1  0.50000000  0.75000000  0.11828000  1.0
  Ni  Ni13  1  0.00000000  0.25000000  0.11828000  1.0
  Ni  Ni14  1  0.50000000  0.25000000  0.11828000  1.0
  Ni  Ni15  1  0.00000000  0.75000000  0.11828000  1.0
  Ni  Ni16  1  0.23751000  0.23142000  0.88594000  1.0
  Ni  Ni17  1  0.74259000  0.75516000  0.88684000  1.0
  Ni  Ni18  1  0.25741000  0.75516000  0.88684000  1.0
  Ni  Ni19  1  0.76249000  0.23142000  0.88594000  1.0
  Ni  Ni20  1  0.00000000  0.76299000  0.96116000  1.0
  Ni  Ni21  1  0.50000000  0.26164000  0.96004000  1.0
  Ni  Ni22  1  0.00000000  0.23352000  0.95523000  1.0
  Ni  Ni23  1  0.50000000  0.73481000  0.95851000  1.0
  Ge  Ge24  1  0.50000000  1.00000000  0.03943000  1.0
  Ge  Ge25  1  0.75000000  0.50000000  0.11828000  1.0
  Ge  Ge26  1  0.00000000  0.00000000  0.03943000  1.0
  Ge  Ge27  1  0.25000000  0.50000000  0.11828000  1.0
  Ge  Ge28  1  0.00000000  0.90816000  0.85370000  1.0
  Ge  Ge29  1  0.24623000  0.49848000  0.96033000  1.0
  Ge  Ge30  1  0.50000000  0.00453000  0.88084000  1.0
  Ge  Ge31  1  0.75377000  0.49848000  0.96033000  1.0
  C  C32  1  0.00000000  0.21687000  0.87632000  1.0
