# generated using pymatgen
data_Mn8Ni16Ge8C
_symmetry_space_group_name_H-M   Pm
_cell_length_a   5.84248000
_cell_length_b   8.26252000
_cell_length_c   26.19690000
_cell_angle_alpha   90.00000000
_cell_angle_beta   90.00000000
_cell_angle_gamma   90.00000000
_symmetry_Int_Tables_number   6
_chemical_formula_structural   Mn8Ni16Ge8C
_chemical_formula_sum   'Mn8 Ni16 Ge8 C1'
_cell_volume   1264.61887748
_cell_formula_units_Z   1
loop_
 _symmetry_equiv_pos_site_id
 _symmetry_equiv_pos_as_xyz
  1  'x, y, z'
  2  'x, -y, z'
loop_
 _atom_site_type_symbol
 _atom_site_label
 _atom_site_symmetry_multiplicity
 _atom_site_fract_x
 _atom_site_fract_y
 _atom_site_fract_z
 _atom_site_occupancy
  Mn  Mn0  2  0.00000000  0.25000000  0.88172000  1.0
  Mn  Mn1  2  0.99705000  0.25687000  0.03733000  1.0
  Mn  Mn2  1  0.48735000  0.50000000  0.12453000  1.0
  Mn  Mn3  1  0.50000000  0.00000000  0.96057000  1.0
  Mn  Mn4  1  0.50000000  0.50000000  0.96057000  1.0
  Mn  Mn5  1  0.52565000  0.00000000  0.11755000  1.0
  Ni  Ni6  2  0.23142000  0.23751000  0.11406000  1.0
  Ni  Ni7  2  0.25000000  0.25000000  0.96057000  1.0
  Ni  Ni8  2  0.75000000  0.25000000  0.96057000  1.0
  Ni  Ni9  2  0.75516000  0.25741000  0.11316000  1.0
  Ni  Ni10  1  0.23352000  0.00000000  0.04477000  1.0
  Ni  Ni11  1  0.25000000  0.00000000  0.88172000  1.0
  Ni  Ni12  1  0.25000000  0.50000000  0.88172000  1.0
  Ni  Ni13  1  0.26164000  0.50000000  0.03996000  1.0
  Ni  Ni14  1  0.73481000  0.50000000  0.04149000  1.0
  Ni  Ni15  1  0.75000000  0.00000000  0.88172000  1.0
  Ni  Ni16  1  0.75000000  0.50000000  0.88172000  1.0
  Ni  Ni17  1  0.76299000  0.00000000  0.03884000  1.0
  Ge  Ge18  2  0.49848000  0.24623000  0.03967000  1.0
  Ge  Ge19  2  0.50000000  0.25000000  0.88172000  1.0
  Ge  Ge20  1  -0.00000000  0.50000000  0.96057000  1.0
  Ge  Ge21  1  0.00000000  0.00000000  0.96057000  1.0
  Ge  Ge22  1  0.00453000  0.50000000  0.11916000  1.0
  Ge  Ge23  1  0.90816000  0.00000000  0.14630000  1.0
  C  C24  1  0.21687000  0.00000000  0.12368000  1.0
