# generated using pymatgen
data_Li4Mg4Ge4Pd4CO
_symmetry_space_group_name_H-M   'P 1'
_cell_length_a   6.25843000
_cell_length_b   6.25843000
_cell_length_c   24.69380000
_cell_angle_alpha   90.00000000
_cell_angle_beta   90.00000000
_cell_angle_gamma   90.00000000
_symmetry_Int_Tables_number   1
_chemical_formula_structural   Li4Mg4Ge4Pd4CO
_chemical_formula_sum   'Li4 Mg4 Ge4 Pd4 C1 O1'
_cell_volume   967.20542654
_cell_formula_units_Z   1
loop_
 _symmetry_equiv_pos_site_id
 _symmetry_equiv_pos_as_xyz
  1  'x, y, z'
loop_
 _atom_site_type_symbol
 _atom_site_label
 _atom_site_symmetry_multiplicity
 _atom_site_fract_x
 _atom_site_fract_y
 _atom_site_fract_z
 _atom_site_occupancy
  Li  Li0  1  0.25000000  0.75000000  0.03168000  1
  Li  Li1  1  0.75207000  0.74987000  0.88599000  1
  Li  Li2  1  0.25013000  0.24793000  0.88599000  1
  Li  Li3  1  0.75000000  0.25000000  0.03168000  1
  Mg  Mg4  1  0.50000000  0.00000000  0.09504000  1
  Mg  Mg5  1  0.00624500  0.99375500  0.96751000  1
  Mg  Mg6  1  0.49354500  0.50645500  0.96711000  1
  Mg  Mg7  1  0.00000000  0.50000000  0.09504000  1
  Ge  Ge8  1  0.00000000  0.00000000  0.09504000  1
  Ge  Ge9  1  0.49263000  0.99233000  0.96228000  1
  Ge  Ge10  1  0.00767000  0.50737000  0.96228000  1
  Ge  Ge11  1  0.50000000  0.50000000  0.09504000  1
  Pd  Pd12  1  0.25000000  0.25000000  0.03168000  1
  Pd  Pd13  1  0.75013000  0.24987000  0.91369000  1
  Pd  Pd14  1  0.24924000  0.75076000  0.89823000  1
  Pd  Pd15  1  0.75000000  0.75000000  0.03168000  1
  C  C16  1  0.24806000  0.75194000  0.81919000  1
  O  O17  1  0.24843000  0.75157000  0.77225000  1
