data_image0
_chemical_formula_structural       Li8Hf8In8Pd8CO
_chemical_formula_sum              "Li8 Hf8 In8 Pd8 C1 O1"
_cell_length_a       6.51419
_cell_length_b       9.21246
_cell_length_c       26.9093
_cell_angle_alpha    90
_cell_angle_beta     90
_cell_angle_gamma    90

_space_group_name_H-M_alt    "P 1"
_space_group_IT_number       1

loop_
  _space_group_symop_operation_xyz
  'x, y, z'

loop_
  _atom_site_type_symbol
  _atom_site_label
  _atom_site_symmetry_multiplicity
  _atom_site_fract_x
  _atom_site_fract_y
  _atom_site_fract_z
  _atom_site_occupancy
  Li  Li1       1.0  0.75000  0.00000  0.95721  1.0000
  Li  Li2       1.0  0.75000  0.50000  0.95721  1.0000
  Li  Li3       1.0  0.25000  0.25000  0.87162  1.0000
  Li  Li4       1.0  0.25000  0.75000  0.87162  1.0000
  Li  Li5       1.0  0.76082  0.50157  0.15120  1.0000
  Li  Li6       1.0  0.88763  0.99413  0.18750  1.0000
  Li  Li7       1.0  0.25897  0.75032  0.04651  1.0000
  Li  Li8       1.0  0.26120  0.24554  0.04549  1.0000
  Hf  Hf1       1.0  0.00000  0.00000  0.87162  1.0000
  Hf  Hf2       1.0  0.00000  0.50000  0.87162  1.0000
  Hf  Hf3       1.0  0.50000  0.75000  0.95721  1.0000
  Hf  Hf4       1.0  0.50000  0.25000  0.95721  1.0000
  Hf  Hf5       1.0  0.99967  0.49998  0.04760  1.0000
  Hf  Hf6       1.0  0.97704  0.99831  0.04849  1.0000
  Hf  Hf7       1.0  0.54667  0.19538  0.13182  1.0000
  Hf  Hf8       1.0  0.54192  0.80104  0.12959  1.0000
  In  In1       1.0  0.00000  0.25000  0.95721  1.0000
  In  In2       1.0  0.00000  0.75000  0.95721  1.0000
  In  In3       1.0  0.50000  0.50000  0.87162  1.0000
  In  In4       1.0  0.50000  0.00000  0.87162  1.0000
  In  In5       1.0  0.01702  0.74009  0.13392  1.0000
  In  In6       1.0  0.02916  0.26044  0.13111  1.0000
  In  In7       1.0  0.49442  0.99931  0.03939  1.0000
  In  In8       1.0  0.51165  0.49812  0.04468  1.0000
  Pd  Pd1       1.0  0.25000  0.00000  0.95721  1.0000
  Pd  Pd2       1.0  0.25000  0.50000  0.95721  1.0000
  Pd  Pd3       1.0  0.75000  0.25000  0.87162  1.0000
  Pd  Pd4       1.0  0.75000  0.75000  0.87162  1.0000
  Pd  Pd5       1.0  0.27364  0.50332  0.12610  1.0000
  Pd  Pd6       1.0  0.22707  0.99887  0.12280  1.0000
  Pd  Pd7       1.0  0.75277  0.74848  0.04107  1.0000
  Pd  Pd8       1.0  0.75501  0.24795  0.04233  1.0000
  C   C1        1.0  0.57499  0.98084  0.17173  1.0000
  O   O1        1.0  0.63034  0.10336  0.19705  1.0000
