# generated using pymatgen
data_Mg4Sc4In4Pd4C
_symmetry_space_group_name_H-M   'P 1'
_cell_length_a   6.76782000
_cell_length_b   6.76782000
_cell_length_c   25.07590000
_cell_angle_alpha   90.00000000
_cell_angle_beta   90.00000000
_cell_angle_gamma   90.00000000
_symmetry_Int_Tables_number   1
_chemical_formula_structural   Mg4Sc4In4Pd4C
_chemical_formula_sum   'Mg4 Sc4 In4 Pd4 C1'
_cell_volume   1148.56116593
_cell_formula_units_Z   1
loop_
 _symmetry_equiv_pos_site_id
 _symmetry_equiv_pos_as_xyz
  1  'x, y, z'
loop_
 _atom_site_type_symbol
 _atom_site_label
 _atom_site_symmetry_multiplicity
 _atom_site_fract_x
 _atom_site_fract_y
 _atom_site_fract_z
 _atom_site_occupancy
  Mg  Mg0  1  0.75000000  0.25000000  0.96626000  1
  Mg  Mg1  1  0.23910000  0.23910000  0.10806000  1
  Mg  Mg2  1  0.76090000  0.76090000  0.10806000  1
  Mg  Mg3  1  0.25000000  0.75000000  0.96626000  1
  Sc  Sc4  1  0.75000000  0.75000000  0.96626000  1
  Sc  Sc5  1  0.22160000  0.77840000  0.10590000  1
  Sc  Sc6  1  0.77840000  0.22160000  0.10590000  1
  Sc  Sc7  1  0.25000000  0.25000000  0.96626000  1
  In  In8  1  0.00000000  0.00000000  0.89879000  1
  In  In9  1  0.50000000  0.00000000  0.03878000  1
  In  In10  1  0.00000000  0.50000000  0.03878000  1
  In  In11  1  0.50000000  0.50000000  0.89879000  1
  Pd  Pd12  1  0.50000000  0.00000000  0.89879000  1
  Pd  Pd13  1  0.00000000  0.00000000  0.02710000  1
  Pd  Pd14  1  0.50000000  0.50000000  0.03632000  1
  Pd  Pd15  1  0.00000000  0.50000000  0.89879000  1
  C  C16  1  0.00000000  0.00000000  0.11809000  1
