# generated using pymatgen
data_Li16CO
_symmetry_space_group_name_H-M   'P 1'
_cell_length_a   6.78403000
_cell_length_b   6.78403000
_cell_length_c   25.08800000
_cell_angle_alpha   90.00000000
_cell_angle_beta   90.00000000
_cell_angle_gamma   90.00000000
_symmetry_Int_Tables_number   1
_chemical_formula_structural   Li16CO
_chemical_formula_sum   'Li16 C1 O1'
_cell_volume   1154.62660557
_cell_formula_units_Z   1
loop_
 _symmetry_equiv_pos_site_id
 _symmetry_equiv_pos_as_xyz
  1  'x, y, z'
loop_
 _atom_site_type_symbol
 _atom_site_label
 _atom_site_symmetry_multiplicity
 _atom_site_fract_x
 _atom_site_fract_y
 _atom_site_fract_z
 _atom_site_occupancy
  Li  Li0  1  0.75000000  0.75000000  0.89860000  1.0
  Li  Li1  1  0.00000000  0.00000000  0.96620000  1.0
  Li  Li2  1  0.75000000  0.75000000  0.03380000  1.0
  Li  Li3  1  0.00000000  0.00000000  0.10140000  1.0
  Li  Li4  1  0.75000000  0.25000000  0.89860000  1.0
  Li  Li5  1  0.00000000  0.50000000  0.96620000  1.0
  Li  Li6  1  0.75000000  0.25000000  0.03380000  1.0
  Li  Li7  1  0.00000000  0.50000000  0.10140000  1.0
  Li  Li8  1  0.25000000  0.75000000  0.89860000  1.0
  Li  Li9  1  0.50000000  0.00000000  0.96620000  1.0
  Li  Li10  1  0.25000000  0.75000000  0.03380000  1.0
  Li  Li11  1  0.50000000  0.00000000  0.10140000  1.0
  Li  Li12  1  0.25000000  0.25000000  0.89860000  1.0
  Li  Li13  1  0.50000000  0.50000000  0.96620000  1.0
  Li  Li14  1  0.25000000  0.25000000  0.03380000  1.0
  Li  Li15  1  0.50000000  0.50000000  0.10140000  1.0
  C  C16  1  0.00000000  0.00000000  0.17714000  1.0
  O  O17  1  0.00000000  0.00000000  0.22298000  1.0
