# generated using pymatgen
data_Li8In8Cu8Sn8C
_symmetry_space_group_name_H-M   Pm
_cell_length_a   6.73938000
_cell_length_b   9.53092000
_cell_length_c   27.14820000
_cell_angle_alpha   90.00000000
_cell_angle_beta   90.00000000
_cell_angle_gamma   90.00000000
_symmetry_Int_Tables_number   6
_chemical_formula_structural   Li8In8Cu8Sn8C
_chemical_formula_sum   'Li8 In8 Cu8 Sn8 C1'
_cell_volume   1743.79652926
_cell_formula_units_Z   1
loop_
 _symmetry_equiv_pos_site_id
 _symmetry_equiv_pos_as_xyz
  1  'x, y, z'
  2  'x, -y, z'
loop_
 _atom_site_type_symbol
 _atom_site_label
 _atom_site_symmetry_multiplicity
 _atom_site_fract_x
 _atom_site_fract_y
 _atom_site_fract_z
 _atom_site_occupancy
  Li  Li0  2  0.00000000  0.24999000  0.95612000  1.0
  Li  Li1  2  0.95507000  0.28135000  0.18702000  1.0
  Li  Li2  1  0.48794000  0.50000000  0.04670000  1.0
  Li  Li3  1  0.50000000  0.00000000  0.86835000  1.0
  Li  Li4  1  0.50000000  0.50000000  0.86835000  1.0
  Li  Li5  1  0.50228000  0.00000000  0.04741000  1.0
  In  In6  2  0.75000000  0.24999000  0.86835000  1.0
  In  In7  2  0.76362000  0.25239000  0.04631000  1.0
  In  In8  1  0.25000000  0.00000000  0.95612000  1.0
  In  In9  1  0.25000000  0.50000000  0.95612000  1.0
  In  In10  1  0.25222000  0.50000000  0.14134000  1.0
  In  In11  1  0.25706000  0.00000000  0.14403000  1.0
  Cu  Cu12  2  0.50000000  0.25001000  0.95612000  1.0
  Cu  Cu13  2  0.50873000  0.24261000  0.12286000  1.0
  Cu  Cu14  1  0.00000000  0.50000000  0.86835000  1.0
  Cu  Cu15  1  0.00000000  0.00000000  0.86835000  1.0
  Cu  Cu16  1  0.00809000  0.50000000  0.03824000  1.0
  Cu  Cu17  1  0.99777000  0.00000000  0.04273000  1.0
  Sn  Sn18  2  0.23240000  0.24775000  0.05089000  1.0
  Sn  Sn19  2  0.25000000  0.24999000  0.86835000  1.0
  Sn  Sn20  1  0.73172000  0.50000000  0.13355000  1.0
  Sn  Sn21  1  0.75000000  0.00000000  0.95612000  1.0
  Sn  Sn22  1  0.75000000  0.50000000  0.95612000  1.0
  Sn  Sn23  1  0.75631000  0.00000000  0.13678000  1.0
  C  C24  1  0.97599000  0.50000000  0.18417000  1.0
