data_image0
_chemical_formula_structural       Zr8Co16Sn8CO
_chemical_formula_sum              "Zr8 Co16 Sn8 C1 O1"
_cell_length_a       6.31315
_cell_length_b       8.92814
_cell_length_c       26.6961
_cell_angle_alpha    90
_cell_angle_beta     90
_cell_angle_gamma    90

_space_group_name_H-M_alt    "P 1"
_space_group_IT_number       1

loop_
  _space_group_symop_operation_xyz
  'x, y, z'

loop_
  _atom_site_type_symbol
  _atom_site_label
  _atom_site_symmetry_multiplicity
  _atom_site_fract_x
  _atom_site_fract_y
  _atom_site_fract_z
  _atom_site_occupancy
  Zr  Zr1       1.0  0.00000  0.00000  0.87459  1.0000
  Zr  Zr2       1.0  0.50000  0.25000  0.95820  1.0000
  Zr  Zr3       1.0  0.50000  0.75000  0.95820  1.0000
  Zr  Zr4       1.0  0.00000  0.50000  0.87459  1.0000
  Zr  Zr5       1.0  0.00069  0.50000  0.04272  1.0000
  Zr  Zr6       1.0  0.49876  0.74866  0.12589  1.0000
  Zr  Zr7       1.0  0.49876  0.25134  0.12589  1.0000
  Zr  Zr8       1.0  0.99793  1.00000  0.04194  1.0000
  Co  Co1       1.0  0.25000  0.00000  0.95820  1.0000
  Co  Co2       1.0  0.75000  0.50000  0.95820  1.0000
  Co  Co3       1.0  0.75000  0.00000  0.95820  1.0000
  Co  Co4       1.0  0.25000  0.50000  0.95820  1.0000
  Co  Co5       1.0  0.75000  0.75000  0.87459  1.0000
  Co  Co6       1.0  0.25000  0.25000  0.87459  1.0000
  Co  Co7       1.0  0.25000  0.75000  0.87459  1.0000
  Co  Co8       1.0  0.75000  0.25000  0.87459  1.0000
  Co  Co9       1.0  0.24725  0.50000  0.12180  1.0000
  Co  Co10      1.0  0.75258  0.00000  0.12182  1.0000
  Co  Co11      1.0  0.75223  0.50000  0.12260  1.0000
  Co  Co12      1.0  0.25286  0.00000  0.12975  1.0000
  Co  Co13      1.0  0.74622  0.24961  0.04254  1.0000
  Co  Co14      1.0  0.25264  0.75129  0.04283  1.0000
  Co  Co15      1.0  0.25264  0.24871  0.04283  1.0000
  Co  Co16      1.0  0.74622  0.75039  0.04254  1.0000
  Sn  Sn1       1.0  0.00000  0.75000  0.95820  1.0000
  Sn  Sn2       1.0  0.50000  0.00000  0.87459  1.0000
  Sn  Sn3       1.0  0.00000  0.25000  0.95820  1.0000
  Sn  Sn4       1.0  0.50000  0.50000  0.87459  1.0000
  Sn  Sn5       1.0  0.99731  0.25224  0.12783  1.0000
  Sn  Sn6       1.0  0.49984  0.50000  0.04265  1.0000
  Sn  Sn7       1.0  0.99731  0.74776  0.12783  1.0000
  Sn  Sn8       1.0  0.49892  0.00000  0.04237  1.0000
  C   C1        1.0  0.26017  0.00000  0.19393  1.0000
  O   O1        1.0  0.24805  1.00000  0.23719  1.0000
