# generated using pymatgen
data_Zr8Co16Sn8CO
_symmetry_space_group_name_H-M   'P 1'
_cell_length_a   8.92814000
_cell_length_b   6.31315000
_cell_length_c   26.69610000
_cell_angle_alpha   90.00000000
_cell_angle_beta   90.00000000
_cell_angle_gamma   90.00000000
_symmetry_Int_Tables_number   1
_chemical_formula_structural   Zr8Co16Sn8CO
_chemical_formula_sum   'Zr8 Co16 Sn8 C1 O1'
_cell_volume   1504.71732172
_cell_formula_units_Z   1
loop_
 _symmetry_equiv_pos_site_id
 _symmetry_equiv_pos_as_xyz
  1  'x, y, z'
loop_
 _atom_site_type_symbol
 _atom_site_label
 _atom_site_symmetry_multiplicity
 _atom_site_fract_x
 _atom_site_fract_y
 _atom_site_fract_z
 _atom_site_occupancy
  Zr  Zr0  1  0.00000000  0.00000000  0.12541000  1.0
  Zr  Zr1  1  0.25000000  0.50000000  0.04180000  1.0
  Zr  Zr2  1  0.75000000  0.50000000  0.04180000  1.0
  Zr  Zr3  1  0.50000000  1.00000000  0.12541000  1.0
  Zr  Zr4  1  0.50000000  0.00069000  0.95728000  1.0
  Zr  Zr5  1  0.74866000  0.49876000  0.87411000  1.0
  Zr  Zr6  1  0.25134000  0.49876000  0.87411000  1.0
  Zr  Zr7  1  0.00000000  0.99793000  0.95806000  1.0
  Co  Co8  1  0.00000000  0.25000000  0.04180000  1.0
  Co  Co9  1  0.50000000  0.75000000  0.04180000  1.0
  Co  Co10  1  0.00000000  0.75000000  0.04180000  1.0
  Co  Co11  1  0.50000000  0.25000000  0.04180000  1.0
  Co  Co12  1  0.75000000  0.75000000  0.12541000  1.0
  Co  Co13  1  0.25000000  0.25000000  0.12541000  1.0
  Co  Co14  1  0.75000000  0.25000000  0.12541000  1.0
  Co  Co15  1  0.25000000  0.75000000  0.12541000  1.0
  Co  Co16  1  0.50000000  0.24725000  0.87820000  1.0
  Co  Co17  1  0.00000000  0.75258000  0.87818000  1.0
  Co  Co18  1  0.50000000  0.75223000  0.87740000  1.0
  Co  Co19  1  0.00000000  0.25286000  0.87025000  1.0
  Co  Co20  1  0.24961000  0.74622000  0.95746000  1.0
  Co  Co21  1  0.75129000  0.25264000  0.95717000  1.0
  Co  Co22  1  0.24871000  0.25264000  0.95717000  1.0
  Co  Co23  1  0.75039000  0.74622000  0.95746000  1.0
  Sn  Sn24  1  0.75000000  1.00000000  0.04180000  1.0
  Sn  Sn25  1  0.00000000  0.50000000  0.12541000  1.0
  Sn  Sn26  1  0.25000000  1.00000000  0.04180000  1.0
  Sn  Sn27  1  0.50000000  0.50000000  0.12541000  1.0
  Sn  Sn28  1  0.25224000  0.99731000  0.87217000  1.0
  Sn  Sn29  1  0.50000000  0.49984000  0.95735000  1.0
  Sn  Sn30  1  0.74776000  0.99731000  0.87217000  1.0
  Sn  Sn31  1  0.00000000  0.49892000  0.95763000  1.0
  C  C32  1  0.00000000  0.26017000  0.80607000  1.0
  O  O33  1  0.00000000  0.24805000  0.76281000  1.0
