# generated using pymatgen
data_Zr8Co16Sn8CO
_symmetry_space_group_name_H-M   Pm
_cell_length_a   6.31315000
_cell_length_b   8.92814000
_cell_length_c   26.69610000
_cell_angle_alpha   90.00000000
_cell_angle_beta   90.00000000
_cell_angle_gamma   90.00000000
_symmetry_Int_Tables_number   6
_chemical_formula_structural   Zr8Co16Sn8CO
_chemical_formula_sum   'Zr8 Co16 Sn8 C1 O1'
_cell_volume   1504.71732172
_cell_formula_units_Z   1
loop_
 _symmetry_equiv_pos_site_id
 _symmetry_equiv_pos_as_xyz
  1  'x, y, z'
  2  'x, -y, z'
loop_
 _atom_site_type_symbol
 _atom_site_label
 _atom_site_symmetry_multiplicity
 _atom_site_fract_x
 _atom_site_fract_y
 _atom_site_fract_z
 _atom_site_occupancy
  Zr  Zr0  2  0.49876000  0.25134000  0.12589000  1.0
  Zr  Zr1  2  0.50000000  0.25000000  0.95820000  1.0
  Zr  Zr2  1  -0.00000000  0.50000000  0.87459000  1.0
  Zr  Zr3  1  0.00000000  0.00000000  0.87459000  1.0
  Zr  Zr4  1  0.00069000  0.50000000  0.04272000  1.0
  Zr  Zr5  1  0.99793000  0.00000000  0.04194000  1.0
  Co  Co6  2  0.25000000  0.25000000  0.87459000  1.0
  Co  Co7  2  0.25264000  0.24871000  0.04283000  1.0
  Co  Co8  2  0.74622000  0.24961000  0.04254000  1.0
  Co  Co9  2  0.75000000  0.25000000  0.87459000  1.0
  Co  Co10  1  0.24725000  0.50000000  0.12180000  1.0
  Co  Co11  1  0.25000000  0.00000000  0.95820000  1.0
  Co  Co12  1  0.25000000  0.50000000  0.95820000  1.0
  Co  Co13  1  0.25286000  0.00000000  0.12975000  1.0
  Co  Co14  1  0.75000000  0.00000000  0.95820000  1.0
  Co  Co15  1  0.75000000  0.50000000  0.95820000  1.0
  Co  Co16  1  0.75223000  0.50000000  0.12260000  1.0
  Co  Co17  1  0.75258000  0.00000000  0.12182000  1.0
  Sn  Sn18  2  -0.00000000  0.25000000  0.95820000  1.0
  Sn  Sn19  2  0.99731000  0.25224000  0.12783000  1.0
  Sn  Sn20  1  0.49892000  0.00000000  0.04237000  1.0
  Sn  Sn21  1  0.49984000  0.50000000  0.04265000  1.0
  Sn  Sn22  1  0.50000000  0.00000000  0.87459000  1.0
  Sn  Sn23  1  0.50000000  0.50000000  0.87459000  1.0
  C  C24  1  0.26017000  0.00000000  0.19393000  1.0
  O  O25  1  0.24805000  0.00000000  0.23719000  1.0
