# generated using pymatgen
data_Sc8Ga8Ni16CO
_symmetry_space_group_name_H-M   'P 1'
_cell_length_a   6.08368000
_cell_length_b   8.60362000
_cell_length_c   26.45270000
_cell_angle_alpha   90.00000000
_cell_angle_beta   90.00000000
_cell_angle_gamma   90.00000000
_symmetry_Int_Tables_number   1
_chemical_formula_structural   Sc8Ga8Ni16CO
_chemical_formula_sum   'Sc8 Ga8 Ni16 C1 O1'
_cell_volume   1384.57851839
_cell_formula_units_Z   1
loop_
 _symmetry_equiv_pos_site_id
 _symmetry_equiv_pos_as_xyz
  1  'x, y, z'
loop_
 _atom_site_type_symbol
 _atom_site_label
 _atom_site_symmetry_multiplicity
 _atom_site_fract_x
 _atom_site_fract_y
 _atom_site_fract_z
 _atom_site_occupancy
  Sc  Sc0  1  0.00000000  0.00000000  0.87803000  1.0
  Sc  Sc1  1  0.50000000  0.25000000  0.95934000  1.0
  Sc  Sc2  1  0.50000000  0.75000000  0.95934000  1.0
  Sc  Sc3  1  0.00000000  0.50000000  0.87803000  1.0
  Sc  Sc4  1  0.00002000  0.50109000  0.03867000  1.0
  Sc  Sc5  1  0.50000000  0.75001000  0.12644000  1.0
  Sc  Sc6  1  0.50000000  0.25001000  0.12578000  1.0
  Sc  Sc7  1  0.99999000  0.99894000  0.03867000  1.0
  Ga  Ga8  1  0.00000000  0.75000000  0.95934000  1.0
  Ga  Ga9  1  0.50000000  0.00000000  0.87803000  1.0
  Ga  Ga10  1  0.00000000  0.25000000  0.95934000  1.0
  Ga  Ga11  1  0.50000000  0.50000000  0.87803000  1.0
  Ga  Ga12  1  0.99998000  0.25001000  0.12086000  1.0
  Ga  Ga13  1  0.50005000  0.49910000  0.04377000  1.0
  Ga  Ga14  1  0.99984000  0.75003000  0.12143000  1.0
  Ga  Ga15  1  0.50006000  0.00090000  0.04377000  1.0
  Ni  Ni16  1  0.25000000  0.00000000  0.95934000  1.0
  Ni  Ni17  1  0.75000000  0.50000000  0.95934000  1.0
  Ni  Ni18  1  0.75000000  0.00000000  0.95934000  1.0
  Ni  Ni19  1  0.25000000  0.50000000  0.95934000  1.0
  Ni  Ni20  1  0.75000000  0.75000000  0.87803000  1.0
  Ni  Ni21  1  0.25000000  0.25000000  0.87803000  1.0
  Ni  Ni22  1  0.25000000  0.75000000  0.87803000  1.0
  Ni  Ni23  1  0.75000000  0.25000000  0.87803000  1.0
  Ni  Ni24  1  0.22453000  0.50084000  0.11684000  1.0
  Ni  Ni25  1  0.77554000  0.99907000  0.11684000  1.0
  Ni  Ni26  1  0.77551000  0.50089000  0.11680000  1.0
  Ni  Ni27  1  0.22455000  0.99914000  0.11682000  1.0
  Ni  Ni28  1  0.74100000  0.25004000  0.04155000  1.0
  Ni  Ni29  1  0.26473000  0.74989000  0.04346000  1.0
  Ni  Ni30  1  0.25896000  0.24999000  0.04155000  1.0
  Ni  Ni31  1  0.73523000  0.74988000  0.04342000  1.0
  C  C32  1  0.50000000  0.25001000  0.21577000  1.0
  O  O33  1  0.50001000  0.25001000  0.25888000  1.0
