# generated using pymatgen
data_Li8In8Pd8Rh8C
_symmetry_space_group_name_H-M   Pm
_cell_length_a   6.29773000
_cell_length_b   8.90634000
_cell_length_c   26.67980000
_cell_angle_alpha   90.00000000
_cell_angle_beta   90.00000000
_cell_angle_gamma   90.00000000
_symmetry_Int_Tables_number   6
_chemical_formula_structural   Li8In8Pd8Rh8C
_chemical_formula_sum   'Li8 In8 Pd8 Rh8 C1'
_cell_volume   1496.46263460
_cell_formula_units_Z   1
loop_
 _symmetry_equiv_pos_site_id
 _symmetry_equiv_pos_as_xyz
  1  'x, y, z'
  2  'x, -y, z'
loop_
 _atom_site_type_symbol
 _atom_site_label
 _atom_site_symmetry_multiplicity
 _atom_site_fract_x
 _atom_site_fract_y
 _atom_site_fract_z
 _atom_site_occupancy
  Li  Li0  2  0.00000000  0.25000000  0.95827000  1.0
  Li  Li1  2  0.00146000  0.25431000  0.13794000  1.0
  Li  Li2  1  0.49866000  0.50000000  0.04215000  1.0
  Li  Li3  1  0.50000000  0.00000000  0.87482000  1.0
  Li  Li4  1  0.50000000  0.50000000  0.87482000  1.0
  Li  Li5  1  0.50618000  0.00000000  0.03824000  1.0
  In  In6  2  0.49767000  0.25932000  0.13426000  1.0
  In  In7  2  0.50000000  0.25000000  0.95827000  1.0
  In  In8  1  0.00000000  0.00000000  0.87482000  1.0
  In  In9  1  0.00000000  0.50000000  0.87482000  1.0
  In  In10  1  0.00068000  0.50000000  0.04057000  1.0
  In  In11  1  0.99560000  0.00000000  0.03962000  1.0
  Pd  Pd12  2  0.25000000  0.25000000  0.87482000  1.0
  Pd  Pd13  2  0.25342000  0.24558000  0.04535000  1.0
  Pd  Pd14  1  0.74618000  0.00000000  0.12643000  1.0
  Pd  Pd15  1  0.75000000  0.00000000  0.95827000  1.0
  Pd  Pd16  1  0.75000000  0.50000000  0.95827000  1.0
  Pd  Pd17  1  0.75506000  0.50000000  0.12259000  1.0
  Rh  Rh18  2  0.74567000  0.24833000  0.04611000  1.0
  Rh  Rh19  2  0.75000000  0.25000000  0.87482000  1.0
  Rh  Rh20  1  0.25000000  0.00000000  0.95827000  1.0
  Rh  Rh21  1  0.25000000  0.50000000  0.95827000  1.0
  Rh  Rh22  1  0.25004000  0.50000000  0.12103000  1.0
  Rh  Rh23  1  0.25354000  0.00000000  0.12373000  1.0
  C  C24  1  0.02160000  0.00000000  0.15993000  1.0
