# generated using pymatgen
data_Li8Mg8Al8Ag8CO
_symmetry_space_group_name_H-M   'P 1'
_cell_length_a   9.10182000
_cell_length_b   6.43596000
_cell_length_c   26.82640000
_cell_angle_alpha   90.00000000
_cell_angle_beta   90.00000000
_cell_angle_gamma   90.00000000
_symmetry_Int_Tables_number   1
_chemical_formula_structural   Li8Mg8Al8Ag8CO
_chemical_formula_sum   'Li8 Mg8 Al8 Ag8 C1 O1'
_cell_volume   1571.46232945
_cell_formula_units_Z   1
loop_
 _symmetry_equiv_pos_site_id
 _symmetry_equiv_pos_as_xyz
  1  'x, y, z'
loop_
 _atom_site_type_symbol
 _atom_site_label
 _atom_site_symmetry_multiplicity
 _atom_site_fract_x
 _atom_site_fract_y
 _atom_site_fract_z
 _atom_site_occupancy
  Li  Li0  1  0.00000000  1.00000000  0.04241000  1.0
  Li  Li1  1  0.50000000  1.00000000  0.04241000  1.0
  Li  Li2  1  0.25000000  0.50000000  0.12723000  1.0
  Li  Li3  1  0.75000000  0.50000000  0.12723000  1.0
  Li  Li4  1  0.50000000  0.08514000  0.82569000  1.0
  Li  Li5  1  0.00000000  0.03762000  0.84753000  1.0
  Li  Li6  1  0.75026000  0.51123000  0.95376000  1.0
  Li  Li7  1  0.24974000  0.51123000  0.95376000  1.0
  Mg  Mg8  1  0.75000000  0.75000000  0.04241000  1.0
  Mg  Mg9  1  0.25000000  0.75000000  0.04241000  1.0
  Mg  Mg10  1  0.00000000  0.25000000  0.12723000  1.0
  Mg  Mg11  1  0.50000000  0.25000000  0.12723000  1.0
  Mg  Mg12  1  0.26868000  0.78423000  0.86860000  1.0
  Mg  Mg13  1  0.73132000  0.78423000  0.86860000  1.0
  Mg  Mg14  1  0.50000000  0.24032000  0.95269000  1.0
  Mg  Mg15  1  0.00000000  0.25152000  0.95129000  1.0
  Al  Al16  1  0.75000000  0.25000000  0.04241000  1.0
  Al  Al17  1  0.25000000  0.25000000  0.04241000  1.0
  Al  Al18  1  0.00000000  0.75000000  0.12723000  1.0
  Al  Al19  1  0.50000000  0.75000000  0.12723000  1.0
  Al  Al20  1  0.25456000  0.24867000  0.87181000  1.0
  Al  Al21  1  0.74544000  0.24867000  0.87181000  1.0
  Al  Al22  1  0.50000000  0.76052000  0.95372000  1.0
  Al  Al23  1  0.00000000  0.76571000  0.94879000  1.0
  Ag  Ag24  1  0.75000000  0.00000000  0.12723000  1.0
  Ag  Ag25  1  0.25000000  0.00000000  0.12723000  1.0
  Ag  Ag26  1  0.50000000  0.50000000  0.04241000  1.0
  Ag  Ag27  1  0.00000000  0.50000000  0.04241000  1.0
  Ag  Ag28  1  0.24826000  0.00365000  0.96089000  1.0
  Ag  Ag29  1  0.75174000  0.00365000  0.96089000  1.0
  Ag  Ag30  1  0.00000000  0.50351000  0.86786000  1.0
  Ag  Ag31  1  0.50000000  0.49477000  0.87182000  1.0
  C  C32  1  0.00000000  0.54365000  0.78567000  1.0
  O  O33  1  0.00000000  0.51124000  0.74352000  1.0
