# generated using pymatgen
data_Li8Mg8Al8Ag8CO
_symmetry_space_group_name_H-M   Pm
_cell_length_a   6.43596000
_cell_length_b   9.10182000
_cell_length_c   26.82640000
_cell_angle_alpha   90.00000000
_cell_angle_beta   90.00000000
_cell_angle_gamma   90.00000000
_symmetry_Int_Tables_number   6
_chemical_formula_structural   Li8Mg8Al8Ag8CO
_chemical_formula_sum   'Li8 Mg8 Al8 Ag8 C1 O1'
_cell_volume   1571.46232945
_cell_formula_units_Z   1
loop_
 _symmetry_equiv_pos_site_id
 _symmetry_equiv_pos_as_xyz
  1  'x, y, z'
  2  'x, -y, z'
loop_
 _atom_site_type_symbol
 _atom_site_label
 _atom_site_symmetry_multiplicity
 _atom_site_fract_x
 _atom_site_fract_y
 _atom_site_fract_z
 _atom_site_occupancy
  Li  Li0  2  0.50000000  0.25000000  0.87277000  1.0
  Li  Li1  2  0.51123000  0.24974000  0.04624000  1.0
  Li  Li2  1  -0.00000000  0.50000000  0.95759000  1.0
  Li  Li3  1  -0.00000000  0.00000000  0.95759000  1.0
  Li  Li4  1  0.03762000  0.00000000  0.15247000  1.0
  Li  Li5  1  0.08514000  0.50000000  0.17431000  1.0
  Mg  Mg6  2  0.75000000  0.25000000  0.95759000  1.0
  Mg  Mg7  2  0.78423000  0.26868000  0.13140000  1.0
  Mg  Mg8  1  0.24032000  0.50000000  0.04731000  1.0
  Mg  Mg9  1  0.25000000  0.00000000  0.87277000  1.0
  Mg  Mg10  1  0.25000000  0.50000000  0.87277000  1.0
  Mg  Mg11  1  0.25152000  0.00000000  0.04871000  1.0
  Al  Al12  2  0.24867000  0.25456000  0.12819000  1.0
  Al  Al13  2  0.25000000  0.25000000  0.95759000  1.0
  Al  Al14  1  0.75000000  0.00000000  0.87277000  1.0
  Al  Al15  1  0.75000000  0.50000000  0.87277000  1.0
  Al  Al16  1  0.76052000  0.50000000  0.04628000  1.0
  Al  Al17  1  0.76571000  0.00000000  0.05121000  1.0
  Ag  Ag18  2  0.00000000  0.25000000  0.87277000  1.0
  Ag  Ag19  2  0.00365000  0.24826000  0.03911000  1.0
  Ag  Ag20  1  0.49477000  0.50000000  0.12818000  1.0
  Ag  Ag21  1  0.50000000  0.00000000  0.95759000  1.0
  Ag  Ag22  1  0.50000000  0.50000000  0.95759000  1.0
  Ag  Ag23  1  0.50351000  0.00000000  0.13214000  1.0
  C  C24  1  0.54365000  0.00000000  0.21433000  1.0
  O  O25  1  0.51124000  0.00000000  0.25648000  1.0
