# generated using pymatgen
data_Li8Sc8In8Ag8CO
_symmetry_space_group_name_H-M   'P 1'
_cell_length_a   6.68683000
_cell_length_b   9.45660000
_cell_length_c   27.09240000
_cell_angle_alpha   90.00000000
_cell_angle_beta   90.00000000
_cell_angle_gamma   90.00000000
_symmetry_Int_Tables_number   1
_chemical_formula_structural   Li8Sc8In8Ag8CO
_chemical_formula_sum   'Li8 Sc8 In8 Ag8 C1 O1'
_cell_volume   1713.17915172
_cell_formula_units_Z   1
loop_
 _symmetry_equiv_pos_site_id
 _symmetry_equiv_pos_as_xyz
  1  'x, y, z'
loop_
 _atom_site_type_symbol
 _atom_site_label
 _atom_site_symmetry_multiplicity
 _atom_site_fract_x
 _atom_site_fract_y
 _atom_site_fract_z
 _atom_site_occupancy
  Li  Li0  1  0.00000000  0.25000000  0.95637000  1.0
  Li  Li1  1  0.00000000  0.75000000  0.95637000  1.0
  Li  Li2  1  0.50000000  0.50000000  0.86911000  1.0
  Li  Li3  1  0.50000000  0.00000000  0.86911000  1.0
  Li  Li4  1  0.01040000  0.74245000  0.15144000  1.0
  Li  Li5  1  0.12740000  0.24229000  0.19451000  1.0
  Li  Li6  1  0.50835000  0.00175000  0.04968000  1.0
  Li  Li7  1  0.52758000  0.49964000  0.05058000  1.0
  Sc  Sc8  1  0.75000000  0.00000000  0.95637000  1.0
  Sc  Sc9  1  0.75000000  0.50000000  0.95637000  1.0
  Sc  Sc10  1  0.25000000  0.25000000  0.86911000  1.0
  Sc  Sc11  1  0.25000000  0.75000000  0.86911000  1.0
  Sc  Sc12  1  0.80600000  0.43218000  0.14188000  1.0
  Sc  Sc13  1  0.79172000  0.04411000  0.13642000  1.0
  Sc  Sc14  1  0.24947000  0.74771000  0.04956000  1.0
  Sc  Sc15  1  0.23421000  0.25342000  0.05050000  1.0
  In  In16  1  0.25000000  0.00000000  0.95637000  1.0
  In  In17  1  0.25000000  0.50000000  0.95637000  1.0
  In  In18  1  0.75000000  0.25000000  0.86911000  1.0
  In  In19  1  0.75000000  0.75000000  0.86911000  1.0
  In  In20  1  0.26680000  0.50563000  0.13221000  1.0
  In  In21  1  0.25493000  0.98424000  0.13608000  1.0
  In  In22  1  0.75880000  0.75365000  0.04405000  1.0
  In  In23  1  0.74745000  0.24813000  0.04262000  1.0
  Ag  Ag24  1  0.00000000  0.00000000  0.86911000  1.0
  Ag  Ag25  1  0.00000000  0.50000000  0.86911000  1.0
  Ag  Ag26  1  0.50000000  0.75000000  0.95637000  1.0
  Ag  Ag27  1  0.50000000  0.25000000  0.95637000  1.0
  Ag  Ag28  1  0.99452000  0.50127000  0.04423000  1.0
  Ag  Ag29  1  0.00527000  0.99963000  0.04293000  1.0
  Ag  Ag30  1  0.47224000  0.24280000  0.13508000  1.0
  Ag  Ag31  1  0.54027000  0.74348000  0.13321000  1.0
  C  C32  1  0.81397000  0.22005000  0.17992000  1.0
  O  O33  1  0.86786000  0.33152000  0.20655000  1.0
