# generated using pymatgen
data_Al16Os16CO
_symmetry_space_group_name_H-M   'P 1'
_cell_length_a   8.53670000
_cell_length_b   6.03636000
_cell_length_c   26.40250000
_cell_angle_alpha   90.00000000
_cell_angle_beta   90.00000000
_cell_angle_gamma   90.00000000
_symmetry_Int_Tables_number   1
_chemical_formula_structural   Al16Os16CO
_chemical_formula_sum   'Al16 Os16 C1 O1'
_cell_volume   1360.53651896
_cell_formula_units_Z   1
loop_
 _symmetry_equiv_pos_site_id
 _symmetry_equiv_pos_as_xyz
  1  'x, y, z'
loop_
 _atom_site_type_symbol
 _atom_site_label
 _atom_site_symmetry_multiplicity
 _atom_site_fract_x
 _atom_site_fract_y
 _atom_site_fract_z
 _atom_site_occupancy
  Al  Al0  1  0.00000000  0.00000000  0.12125000  1.0
  Al  Al1  1  0.25000000  0.00000000  0.04042000  1.0
  Al  Al2  1  0.00000000  0.01007000  0.96028000  1.0
  Al  Al3  1  0.25004000  0.00055000  0.87755000  1.0
  Al  Al4  1  0.50000000  0.00000000  0.12125000  1.0
  Al  Al5  1  0.75000000  0.00000000  0.04042000  1.0
  Al  Al6  1  0.50000000  0.99035000  0.96096000  1.0
  Al  Al7  1  0.74996000  0.00055000  0.87755000  1.0
  Al  Al8  1  0.00000000  0.50000000  0.12125000  1.0
  Al  Al9  1  0.25000000  0.50000000  0.04042000  1.0
  Al  Al10  1  0.00000000  0.48992000  0.96026000  1.0
  Al  Al11  1  0.24989000  0.49946000  0.87754000  1.0
  Al  Al12  1  0.50000000  0.50000000  0.12125000  1.0
  Al  Al13  1  0.75000000  0.50000000  0.04042000  1.0
  Al  Al14  1  0.50000000  0.50968000  0.96097000  1.0
  Al  Al15  1  0.75011000  0.49946000  0.87754000  1.0
  Os  Os16  1  0.25000000  0.25000000  0.12125000  1.0
  Os  Os17  1  0.00000000  0.25000000  0.04042000  1.0
  Os  Os18  1  0.25454000  0.25000000  0.96059000  1.0
  Os  Os19  1  0.00000000  0.24977000  0.87314000  1.0
  Os  Os20  1  0.75000000  0.25000000  0.12125000  1.0
  Os  Os21  1  0.50000000  0.25000000  0.04042000  1.0
  Os  Os22  1  0.74546000  0.25000000  0.96059000  1.0
  Os  Os23  1  0.50000000  0.25010000  0.88401000  1.0
  Os  Os24  1  0.25000000  0.75000000  0.12125000  1.0
  Os  Os25  1  0.00000000  0.75000000  0.04042000  1.0
  Os  Os26  1  0.24429000  0.75001000  0.96095000  1.0
  Os  Os27  1  0.00000000  0.75006000  0.88406000  1.0
  Os  Os28  1  0.75000000  0.75000000  0.12125000  1.0
  Os  Os29  1  0.50000000  0.75000000  0.04042000  1.0
  Os  Os30  1  0.75571000  0.75001000  0.96095000  1.0
  Os  Os31  1  0.50000000  0.74993000  0.88006000  1.0
  C  C32  1  0.00000000  0.24927000  0.80160000  1.0
  O  O33  1  0.00000000  0.24916000  0.75754000  1.0
