# generated using pymatgen
data_Al16Os16CO
_symmetry_space_group_name_H-M   Pm
_cell_length_a   6.03636000
_cell_length_b   8.53670000
_cell_length_c   26.40250000
_cell_angle_alpha   90.00000000
_cell_angle_beta   90.00000000
_cell_angle_gamma   90.00000000
_symmetry_Int_Tables_number   6
_chemical_formula_structural   Al16Os16CO
_chemical_formula_sum   'Al16 Os16 C1 O1'
_cell_volume   1360.53651896
_cell_formula_units_Z   1
loop_
 _symmetry_equiv_pos_site_id
 _symmetry_equiv_pos_as_xyz
  1  'x, y, z'
  2  'x, -y, z'
loop_
 _atom_site_type_symbol
 _atom_site_label
 _atom_site_symmetry_multiplicity
 _atom_site_fract_x
 _atom_site_fract_y
 _atom_site_fract_z
 _atom_site_occupancy
  Al  Al0  2  0.00000000  0.25000000  0.95958000  1.0
  Al  Al1  2  0.00055000  0.25004000  0.12245000  1.0
  Al  Al2  2  0.49946000  0.24989000  0.12246000  1.0
  Al  Al3  2  0.50000000  0.25000000  0.95958000  1.0
  Al  Al4  1  0.00000000  0.00000000  0.87875000  1.0
  Al  Al5  1  0.00000000  0.50000000  0.87875000  1.0
  Al  Al6  1  0.01007000  0.00000000  0.03972000  1.0
  Al  Al7  1  0.48992000  0.00000000  0.03974000  1.0
  Al  Al8  1  0.50000000  0.00000000  0.87875000  1.0
  Al  Al9  1  0.50000000  0.50000000  0.87875000  1.0
  Al  Al10  1  0.50968000  0.50000000  0.03903000  1.0
  Al  Al11  1  0.99035000  0.50000000  0.03904000  1.0
  Os  Os12  2  0.25000000  0.25000000  0.87875000  1.0
  Os  Os13  2  0.25000000  0.25454000  0.03941000  1.0
  Os  Os14  2  0.75000000  0.25000000  0.87875000  1.0
  Os  Os15  2  0.75001000  0.24429000  0.03905000  1.0
  Os  Os16  1  0.24977000  0.00000000  0.12686000  1.0
  Os  Os17  1  0.25000000  0.00000000  0.95958000  1.0
  Os  Os18  1  0.25000000  0.50000000  0.95958000  1.0
  Os  Os19  1  0.25010000  0.50000000  0.11599000  1.0
  Os  Os20  1  0.74993000  0.50000000  0.11994000  1.0
  Os  Os21  1  0.75000000  0.00000000  0.95958000  1.0
  Os  Os22  1  0.75000000  0.50000000  0.95958000  1.0
  Os  Os23  1  0.75006000  0.00000000  0.11594000  1.0
  C  C24  1  0.24927000  0.00000000  0.19840000  1.0
  O  O25  1  0.24916000  0.00000000  0.24246000  1.0
