# generated using pymatgen
data_Hf16Os16C
_symmetry_space_group_name_H-M   'P 1'
_cell_length_a   6.49845000
_cell_length_b   9.19019000
_cell_length_c   26.89260000
_cell_angle_alpha   90.00000000
_cell_angle_beta   90.00000000
_cell_angle_gamma   90.00000000
_symmetry_Int_Tables_number   1
_chemical_formula_structural   Hf16Os16C
_chemical_formula_sum   'Hf16 Os16 C1'
_cell_volume   1606.07959380
_cell_formula_units_Z   1
loop_
 _symmetry_equiv_pos_site_id
 _symmetry_equiv_pos_as_xyz
  1  'x, y, z'
loop_
 _atom_site_type_symbol
 _atom_site_label
 _atom_site_symmetry_multiplicity
 _atom_site_fract_x
 _atom_site_fract_y
 _atom_site_fract_z
 _atom_site_occupancy
  Hf  Hf0  1  0.00000000  0.00000000  0.87185000  1.0
  Hf  Hf1  1  0.00000000  0.25000000  0.95728000  1.0
  Hf  Hf2  1  0.00000000  0.00000000  0.04265000  1.0
  Hf  Hf3  1  0.00000000  0.25830000  0.13185000  1.0
  Hf  Hf4  1  0.00000000  0.50000000  0.87185000  1.0
  Hf  Hf5  1  0.00000000  0.75000000  0.95728000  1.0
  Hf  Hf6  1  0.00000000  0.50000000  0.04434000  1.0
  Hf  Hf7  1  0.00000000  0.74170000  0.13185000  1.0
  Hf  Hf8  1  0.50000000  0.00000000  0.87185000  1.0
  Hf  Hf9  1  0.50000000  0.25000000  0.95728000  1.0
  Hf  Hf10  1  0.50000000  0.00000000  0.04174000  1.0
  Hf  Hf11  1  0.50000000  0.25168000  0.12982000  1.0
  Hf  Hf12  1  0.50000000  0.50000000  0.87185000  1.0
  Hf  Hf13  1  0.50000000  0.75000000  0.95728000  1.0
  Hf  Hf14  1  0.50000000  0.50000000  0.04390000  1.0
  Hf  Hf15  1  0.50000000  0.74832000  0.12982000  1.0
  Os  Os16  1  0.25000000  0.25000000  0.87185000  1.0
  Os  Os17  1  0.25000000  0.00000000  0.95728000  1.0
  Os  Os18  1  0.25210000  0.24731000  0.04371000  1.0
  Os  Os19  1  0.23949000  0.00000000  0.12560000  1.0
  Os  Os20  1  0.25000000  0.75000000  0.87185000  1.0
  Os  Os21  1  0.25000000  0.50000000  0.95728000  1.0
  Os  Os22  1  0.25210000  0.75269000  0.04371000  1.0
  Os  Os23  1  0.25205000  0.50000000  0.12297000  1.0
  Os  Os24  1  0.75000000  0.25000000  0.87185000  1.0
  Os  Os25  1  0.75000000  0.00000000  0.95728000  1.0
  Os  Os26  1  0.74790000  0.24731000  0.04371000  1.0
  Os  Os27  1  0.76051000  0.00000000  0.12560000  1.0
  Os  Os28  1  0.75000000  0.75000000  0.87185000  1.0
  Os  Os29  1  0.75000000  0.50000000  0.95728000  1.0
  Os  Os30  1  0.74790000  0.75269000  0.04371000  1.0
  Os  Os31  1  0.74795000  0.50000000  0.12297000  1.0
  C  C32  1  0.00000000  0.00000000  0.16752000  1.0
