# generated using pymatgen
data_LiAg
_symmetry_space_group_name_H-M   'P 1'
_cell_length_a   3.22483000
_cell_length_b   3.22483000
_cell_length_c   24.83720000
_cell_angle_alpha   90.00000000
_cell_angle_beta   90.00000000
_cell_angle_gamma   90.00000000
_symmetry_Int_Tables_number   1
_chemical_formula_structural   LiAg
_chemical_formula_sum   'Li2 Ag2'
_cell_volume   258.29516998
_cell_formula_units_Z   2
loop_
 _symmetry_equiv_pos_site_id
 _symmetry_equiv_pos_as_xyz
  1  'x, y, z'
loop_
 _atom_site_type_symbol
 _atom_site_label
 _atom_site_symmetry_multiplicity
 _atom_site_fract_x
 _atom_site_fract_y
 _atom_site_fract_z
 _atom_site_occupancy
  Li  Li0  1  0.50000000  0.50000000  0.00392000  1.0
  Li  Li1  1  0.50000000  0.50000000  0.87409000  1.0
  Ag  Ag2  1  0.00000000  0.00000000  0.06884000  1.0
  Ag  Ag3  1  0.00000000  0.00000000  0.93901000  1.0
