data_image0
_chemical_formula_structural       Li8Al8In8Cu8C
_chemical_formula_sum              "Li8 Al8 In8 Cu8 C1"
_cell_length_a       6.37467
_cell_length_b       9.01514
_cell_length_c       26.7614
_cell_angle_alpha    90
_cell_angle_beta     90
_cell_angle_gamma    90

_space_group_name_H-M_alt    "P 1"
_space_group_IT_number       1

loop_
  _space_group_symop_operation_xyz
  'x, y, z'

loop_
  _atom_site_type_symbol
  _atom_site_label
  _atom_site_symmetry_multiplicity
  _atom_site_fract_x
  _atom_site_fract_y
  _atom_site_fract_z
  _atom_site_occupancy
  Li  Li1       1.0  0.75000  0.00000  0.95789  1.0000
  Li  Li2       1.0  0.75000  0.50000  0.95789  1.0000
  Li  Li3       1.0  0.25000  0.25000  0.87367  1.0000
  Li  Li4       1.0  0.25000  0.75000  0.87367  1.0000
  Li  Li5       1.0  0.73105  0.48224  0.14633  1.0000
  Li  Li6       1.0  0.73105  0.01776  0.14633  1.0000
  Li  Li7       1.0  0.25307  0.75000  0.04352  1.0000
  Li  Li8       1.0  0.22369  0.25000  0.04590  1.0000
  Al  Al1       1.0  0.00000  0.00000  0.87367  1.0000
  Al  Al2       1.0  0.00000  0.50000  0.87367  1.0000
  Al  Al3       1.0  0.50000  0.75000  0.95789  1.0000
  Al  Al4       1.0  0.50000  0.25000  0.95789  1.0000
  Al  Al5       1.0  0.98908  0.51112  0.04704  1.0000
  Al  Al6       1.0  0.98908  0.98889  0.04704  1.0000
  Al  Al7       1.0  0.45047  0.25000  0.12971  1.0000
  Al  Al8       1.0  0.49842  0.75000  0.12562  1.0000
  In  In1       1.0  0.00000  0.25000  0.95789  1.0000
  In  In2       1.0  0.00000  0.75000  0.95789  1.0000
  In  In3       1.0  0.50000  0.50000  0.87367  1.0000
  In  In4       1.0  0.50000  0.00000  0.87367  1.0000
  In  In5       1.0  0.98451  0.75000  0.13525  1.0000
  In  In6       1.0  0.05728  0.25000  0.16669  1.0000
  In  In7       1.0  0.51868  0.01221  0.04403  1.0000
  In  In8       1.0  0.51868  0.48779  0.04403  1.0000
  Cu  Cu1       1.0  0.25000  0.00000  0.95789  1.0000
  Cu  Cu2       1.0  0.25000  0.50000  0.95789  1.0000
  Cu  Cu3       1.0  0.75000  0.25000  0.87367  1.0000
  Cu  Cu4       1.0  0.75000  0.75000  0.87367  1.0000
  Cu  Cu5       1.0  0.25105  0.51186  0.11937  1.0000
  Cu  Cu6       1.0  0.25105  0.98814  0.11937  1.0000
  Cu  Cu7       1.0  0.74012  0.75000  0.03763  1.0000
  Cu  Cu8       1.0  0.81685  0.25000  0.06479  1.0000
  C   C1        1.0  0.74153  0.25000  0.14040  1.0000
