# generated using pymatgen
data_Li8Al8In8Cu8C
_symmetry_space_group_name_H-M   Pm
_cell_length_a   6.37467000
_cell_length_b   9.01514000
_cell_length_c   26.76140000
_cell_angle_alpha   90.00000000
_cell_angle_beta   90.00000000
_cell_angle_gamma   90.00000000
_symmetry_Int_Tables_number   6
_chemical_formula_structural   Li8Al8In8Cu8C
_chemical_formula_sum   'Li8 Al8 In8 Cu8 C1'
_cell_volume   1537.93865336
_cell_formula_units_Z   1
loop_
 _symmetry_equiv_pos_site_id
 _symmetry_equiv_pos_as_xyz
  1  'x, y, z'
  2  'x, -y, z'
loop_
 _atom_site_type_symbol
 _atom_site_label
 _atom_site_symmetry_multiplicity
 _atom_site_fract_x
 _atom_site_fract_y
 _atom_site_fract_z
 _atom_site_occupancy
  Li  Li0  2  0.73105000  0.23224000  0.14633000  1.0
  Li  Li1  2  0.75000000  0.25000000  0.95789000  1.0
  Li  Li2  1  0.22369000  0.00000000  0.04590000  1.0
  Li  Li3  1  0.25000000  0.00000000  0.87367000  1.0
  Li  Li4  1  0.25000000  0.50000000  0.87367000  1.0
  Li  Li5  1  0.25307000  0.50000000  0.04352000  1.0
  Al  Al6  2  0.00000000  0.25000000  0.87367000  1.0
  Al  Al7  2  0.98908000  0.26112000  0.04704000  1.0
  Al  Al8  1  0.45047000  0.00000000  0.12971000  1.0
  Al  Al9  1  0.49842000  0.50000000  0.12562000  1.0
  Al  Al10  1  0.50000000  0.00000000  0.95789000  1.0
  Al  Al11  1  0.50000000  0.50000000  0.95789000  1.0
  In  In12  2  0.50000000  0.25000000  0.87367000  1.0
  In  In13  2  0.51868000  0.23779000  0.04403000  1.0
  In  In14  1  -0.00000000  0.50000000  0.95789000  1.0
  In  In15  1  0.00000000  0.00000000  0.95789000  1.0
  In  In16  1  0.05728000  0.00000000  0.16669000  1.0
  In  In17  1  0.98451000  0.50000000  0.13525000  1.0
  Cu  Cu18  2  0.25000000  0.25000000  0.95789000  1.0
  Cu  Cu19  2  0.25105000  0.26186000  0.11937000  1.0
  Cu  Cu20  1  0.74012000  0.50000000  0.03763000  1.0
  Cu  Cu21  1  0.75000000  0.00000000  0.87367000  1.0
  Cu  Cu22  1  0.75000000  0.50000000  0.87367000  1.0
  Cu  Cu23  1  0.81685000  0.00000000  0.06479000  1.0
  C  C24  1  0.74153000  0.00000000  0.14040000  1.0
