# generated using pymatgen
data_Sn4Pt12CO
_symmetry_space_group_name_H-M   Pm
_cell_length_a   5.78605000
_cell_length_b   8.18271000
_cell_length_c   24.33950000
_cell_angle_alpha   90.00000000
_cell_angle_beta   90.00000000
_cell_angle_gamma   90.00000000
_symmetry_Int_Tables_number   6
_chemical_formula_structural   Sn4Pt12CO
_chemical_formula_sum   'Sn4 Pt12 C1 O1'
_cell_volume   1152.36748143
_cell_formula_units_Z   1
loop_
 _symmetry_equiv_pos_site_id
 _symmetry_equiv_pos_as_xyz
  1  'x, y, z'
  2  'x, -y, z'
loop_
 _atom_site_type_symbol
 _atom_site_label
 _atom_site_symmetry_multiplicity
 _atom_site_fract_x
 _atom_site_fract_y
 _atom_site_fract_z
 _atom_site_occupancy
  Sn  Sn0  1  0.00000000  0.00000000  0.90997000  1.0
  Sn  Sn1  1  0.00000000  0.50000000  0.90909000  1.0
  Sn  Sn2  1  0.50000000  0.00000000  0.02972000  1.0
  Sn  Sn3  1  0.50000000  0.50000000  0.02972000  1.0
  Pt  Pt4  2  0.24269000  0.25060000  0.96576000  1.0
  Pt  Pt5  2  0.25000000  0.25005000  0.08915000  1.0
  Pt  Pt6  2  0.75000000  0.25005000  0.08915000  1.0
  Pt  Pt7  2  0.75730000  0.25061000  0.96576000  1.0
  Pt  Pt8  1  0.00000000  0.00000000  0.02972000  1.0
  Pt  Pt9  1  0.00000000  0.50000000  0.02972000  1.0
  Pt  Pt10  1  0.49999000  0.50000000  0.91922000  1.0
  Pt  Pt11  1  0.50000000  0.00000000  0.91950000  1.0
  C  C12  1  0.00008000  0.00000000  0.74103000  1.0
  O  O13  1  0.99999000  0.00000000  0.69442000  1.0
