# generated using pymatgen
data_MnNi2Sn
_symmetry_space_group_name_H-M   'P 1'
_cell_length_a   4.31523227
_cell_length_b   4.31523227
_cell_length_c   24.57700000
_cell_angle_alpha   90.00000000
_cell_angle_beta   90.00000000
_cell_angle_gamma   90.00000000
_symmetry_Int_Tables_number   1
_chemical_formula_structural   MnNi2Sn
_chemical_formula_sum   'Mn2 Ni4 Sn2'
_cell_volume   457.65395835
_cell_formula_units_Z   2
loop_
 _symmetry_equiv_pos_site_id
 _symmetry_equiv_pos_as_xyz
  1  'x, y, z'
loop_
 _atom_site_type_symbol
 _atom_site_label
 _atom_site_symmetry_multiplicity
 _atom_site_fract_x
 _atom_site_fract_y
 _atom_site_fract_z
 _atom_site_occupancy
  Mn  Mn0  1  0.00000000  0.00000000  0.09312000  1.0
  Mn  Mn1  1  0.50000000  0.50000000  0.96896000  1.0
  Ni  Ni2  1  0.50000000  0.00000000  0.03104000  1.0
  Ni  Ni3  1  0.50000000  0.00000000  0.90688000  1.0
  Ni  Ni4  1  0.00000000  0.50000000  0.03104000  1.0
  Ni  Ni5  1  0.00000000  0.50000000  0.90688000  1.0
  Sn  Sn6  1  0.00000000  0.00000000  0.96896000  1.0
  Sn  Sn7  1  0.50000000  0.50000000  0.09312000  1.0
