# generated using pymatgen
data_Hf8Al8Pd16C
_symmetry_space_group_name_H-M   Pmm2
_cell_length_a   6.44324000
_cell_length_b   9.11212000
_cell_length_c   26.83410000
_cell_angle_alpha   90.00000000
_cell_angle_beta   90.00000000
_cell_angle_gamma   90.00000000
_symmetry_Int_Tables_number   25
_chemical_formula_structural   Hf8Al8Pd16C
_chemical_formula_sum   'Hf8 Al8 Pd16 C1'
_cell_volume   1575.47230339
_cell_formula_units_Z   1
loop_
 _symmetry_equiv_pos_site_id
 _symmetry_equiv_pos_as_xyz
  1  'x, y, z'
  2  '-x, -y, z'
  3  '-x, y, z'
  4  'x, -y, z'
loop_
 _atom_site_type_symbol
 _atom_site_label
 _atom_site_symmetry_multiplicity
 _atom_site_fract_x
 _atom_site_fract_y
 _atom_site_fract_z
 _atom_site_occupancy
  Hf  Hf0  2  0.50000000  0.25000000  0.95755000  1.0
  Hf  Hf1  2  0.50000000  0.25914000  0.12711000  1.0
  Hf  Hf2  1  0.00000000  0.00000000  0.04524000  1.0
  Hf  Hf3  1  0.00000000  0.00000000  0.87266000  1.0
  Hf  Hf4  1  0.00000000  0.50000000  0.04339000  1.0
  Hf  Hf5  1  0.00000000  0.50000000  0.87266000  1.0
  Al  Al6  2  0.00000000  0.23771000  0.12407000  1.0
  Al  Al7  2  0.00000000  0.25000000  0.95755000  1.0
  Al  Al8  1  0.50000000  0.00000000  0.04578000  1.0
  Al  Al9  1  0.50000000  0.00000000  0.87266000  1.0
  Al  Al10  1  0.50000000  0.50000000  0.04417000  1.0
  Al  Al11  1  0.50000000  0.50000000  0.87266000  1.0
  Pd  Pd12  4  0.25000000  0.25000000  0.87266000  1.0
  Pd  Pd13  4  0.26284000  0.25343000  0.04159000  1.0
  Pd  Pd14  2  0.23369000  0.50000000  0.12703000  1.0
  Pd  Pd15  2  0.25000000  0.00000000  0.95755000  1.0
  Pd  Pd16  2  0.25000000  0.50000000  0.95755000  1.0
  Pd  Pd17  2  0.29875000  0.00000000  0.13427000  1.0
  C  C18  1  0.00000000  0.00000000  0.12497000  1.0
