# generated using pymatgen
data_Li4Y4Ge4Pb4CO
_symmetry_space_group_name_H-M   P1
_cell_length_a   6.56037000
_cell_length_b   8.55406000
_cell_length_c   24.87870000
_cell_angle_alpha   90.00000000
_cell_angle_beta   90.00000000
_cell_angle_gamma   90.00000000
_symmetry_Int_Tables_number   1
_chemical_formula_structural   Li4Y4Ge4Pb4CO
_chemical_formula_sum   'Li4 Y4 Ge4 Pb4 C1 O1'
_cell_volume   1396.13787608
_cell_formula_units_Z   1
loop_
 _symmetry_equiv_pos_site_id
 _symmetry_equiv_pos_as_xyz
  1  'x, y, z'
loop_
 _atom_site_type_symbol
 _atom_site_label
 _atom_site_symmetry_multiplicity
 _atom_site_fract_x
 _atom_site_fract_y
 _atom_site_fract_z
 _atom_site_occupancy
  Li  Li0  1  0.22893000  0.25135000  0.95246000  1.0
  Li  Li1  1  0.22894000  0.74865000  0.95246000  1.0
  Li  Li2  1  0.84731000  0.25000000  0.09805000  1.0
  Li  Li3  1  0.84731000  0.75000000  0.09805000  1.0
  Y  Y4  1  0.34731000  0.25000000  0.09805000  1.0
  Y  Y5  1  0.34731000  0.75000000  0.09805000  1.0
  Y  Y6  1  0.75607000  0.75015000  0.96577000  1.0
  Y  Y7  1  0.75610000  0.24986000  0.96575000  1.0
  Ge  Ge8  1  0.01804000  0.99994000  0.91754000  1.0
  Ge  Ge9  1  0.02037000  0.50005000  0.91742000  1.0
  Ge  Ge10  1  0.56487000  -0.00000000  0.03268000  1.0
  Ge  Ge11  1  0.56487000  0.50000000  0.03268000  1.0
  Pb  Pb12  1  0.06487000  -0.00000000  0.03268000  1.0
  Pb  Pb13  1  0.06487000  0.50000000  0.03268000  1.0
  Pb  Pb14  1  0.45831000  0.99999000  0.90665000  1.0
  Pb  Pb15  1  0.46126000  0.50003000  0.90432000  1.0
  C  C16  1  0.50701000  0.99999000  0.76108000  1.0
  O  O17  1  0.49862000  0.00002000  0.71552000  1.0
