# generated using pymatgen
data_Zr2TiAl
_symmetry_space_group_name_H-M   Pmm2
_cell_length_a   4.81603500
_cell_length_b   6.81091000
_cell_length_c   27.22410000
_cell_angle_alpha   90.00000000
_cell_angle_beta   90.00000000
_cell_angle_gamma   90.00000000
_symmetry_Int_Tables_number   25
_chemical_formula_structural   Zr2TiAl
_chemical_formula_sum   'Zr8 Ti4 Al4'
_cell_volume   892.99351972
_cell_formula_units_Z   4
loop_
 _symmetry_equiv_pos_site_id
 _symmetry_equiv_pos_as_xyz
  1  'x, y, z'
  2  '-x, -y, z'
  3  '-x, y, z'
  4  'x, -y, z'
loop_
 _atom_site_type_symbol
 _atom_site_label
 _atom_site_symmetry_multiplicity
 _atom_site_fract_x
 _atom_site_fract_y
 _atom_site_fract_z
 _atom_site_occupancy
  Zr  Zr0  2  0.00000000  0.25000000  0.04423000  1.0
  Zr  Zr1  2  0.00000000  0.26401500  0.86936500  1.0
  Zr  Zr2  2  0.50000000  0.25000000  0.13268000  1.0
  Zr  Zr3  2  0.50000000  0.25634500  0.95518000  1.0
  Ti  Ti4  1  0.00000000  0.00000000  0.13268000  1.0
  Ti  Ti5  1  0.00000000  0.00000000  0.94580000  1.0
  Ti  Ti6  1  0.50000000  0.50000000  0.04423000  1.0
  Ti  Ti7  1  0.50000000  0.50000000  0.86552500  1.0
  Al  Al8  1  0.00000000  0.50000000  0.13268000  1.0
  Al  Al9  1  0.00000000  0.50000000  0.95792000  1.0
  Al  Al10  1  0.50000000  0.00000000  0.04423000  1.0
  Al  Al11  1  0.50000000  0.00000000  0.87095500  1.0
