data_image0
_chemical_formula_structural       Sc4Sn4Pd8CO
_chemical_formula_sum              "Sc4 Sn4 Pd8 C1 O1"
_cell_length_a       6.62889
_cell_length_b       6.62889
_cell_length_c       24.9717
_cell_angle_alpha    90
_cell_angle_beta     90
_cell_angle_gamma    90

_space_group_name_H-M_alt    "P 1"
_space_group_IT_number       1

loop_
  _space_group_symop_operation_xyz
  'x, y, z'

loop_
  _atom_site_type_symbol
  _atom_site_label
  _atom_site_symmetry_multiplicity
  _atom_site_fract_x
  _atom_site_fract_y
  _atom_site_fract_z
  _atom_site_occupancy
  Sc  Sc1       1.0  0.00521  0.99239  0.10279  1.0000
  Sc  Sc2       1.0  0.50205  0.49685  0.09710  1.0000
  Sc  Sc3       1.0  0.50000  0.00000  0.96682  1.0000
  Sc  Sc4       1.0  0.00000  0.50000  0.96682  1.0000
  Sn  Sn1       1.0  0.00000  0.00000  0.96682  1.0000
  Sn  Sn2       1.0  0.50112  0.00087  0.10358  1.0000
  Sn  Sn3       1.0  0.00294  0.50311  0.09977  1.0000
  Sn  Sn4       1.0  0.50000  0.50000  0.96682  1.0000
  Pd  Pd1       1.0  0.24471  0.24740  0.03584  1.0000
  Pd  Pd2       1.0  0.75000  0.75000  0.90045  1.0000
  Pd  Pd3       1.0  0.75919  0.24487  0.03836  1.0000
  Pd  Pd4       1.0  0.25000  0.75000  0.90045  1.0000
  Pd  Pd5       1.0  0.75226  0.75416  0.03709  1.0000
  Pd  Pd6       1.0  0.25000  0.25000  0.90045  1.0000
  Pd  Pd7       1.0  0.25394  0.75289  0.03457  1.0000
  Pd  Pd8       1.0  0.75000  0.25000  0.90045  1.0000
  C   C1        1.0  0.01527  0.81204  0.22782  1.0000
  O   O1        1.0  0.03049  0.67475  0.25491  1.0000
