# generated using pymatgen
data_Sc4Sn4Pd8CO
_symmetry_space_group_name_H-M   P1
_cell_length_a   6.62889000
_cell_length_b   6.62889000
_cell_length_c   24.97170000
_cell_angle_alpha   90.00000000
_cell_angle_beta   90.00000000
_cell_angle_gamma   90.00000000
_symmetry_Int_Tables_number   1
_chemical_formula_structural   Sc4Sn4Pd8CO
_chemical_formula_sum   'Sc4 Sn4 Pd8 C1 O1'
_cell_volume   1097.31100203
_cell_formula_units_Z   1
loop_
 _symmetry_equiv_pos_site_id
 _symmetry_equiv_pos_as_xyz
  1  'x, y, z'
loop_
 _atom_site_type_symbol
 _atom_site_label
 _atom_site_symmetry_multiplicity
 _atom_site_fract_x
 _atom_site_fract_y
 _atom_site_fract_z
 _atom_site_occupancy
  Sc  Sc0  1  0.00000000  0.50000000  0.96682000  1.0
  Sc  Sc1  1  0.00109000  0.99114000  0.09902000  1.0
  Sc  Sc2  1  0.50000000  0.00000000  0.96682000  1.0
  Sc  Sc3  1  0.50064000  0.49590000  0.09721000  1.0
  Sn  Sn4  1  0.00000000  0.00000000  0.96682000  1.0
  Sn  Sn5  1  0.49968000  0.00141000  0.10433000  1.0
  Sn  Sn6  1  0.50000000  0.50000000  0.96682000  1.0
  Sn  Sn7  1  0.99969000  0.49967000  0.10300000  1.0
  Pd  Pd8  1  0.24784000  0.24973000  0.03587000  1.0
  Pd  Pd9  1  0.25000000  0.25000000  0.90045000  1.0
  Pd  Pd10  1  0.25000000  0.75000000  0.90045000  1.0
  Pd  Pd11  1  0.25575000  0.74682000  0.03596000  1.0
  Pd  Pd12  1  0.74462000  0.74827000  0.03624000  1.0
  Pd  Pd13  1  0.75000000  0.25000000  0.90045000  1.0
  Pd  Pd14  1  0.75000000  0.75000000  0.90045000  1.0
  Pd  Pd15  1  0.75201000  0.24861000  0.03596000  1.0
  C  C16  1  0.01808000  0.88336000  0.18745000  1.0
  O  O17  1  0.02521000  0.83453000  0.23159000  1.0
