# generated using pymatgen
data_Mg8Ni16Sn8C
_symmetry_space_group_name_H-M   Pmm2
_cell_length_a   6.21377000
_cell_length_b   8.78760000
_cell_length_c   26.59070000
_cell_angle_alpha   90.00000000
_cell_angle_beta   90.00000000
_cell_angle_gamma   90.00000000
_symmetry_Int_Tables_number   25
_chemical_formula_structural   Mg8Ni16Sn8C
_chemical_formula_sum   'Mg8 Ni16 Sn8 C1'
_cell_volume   1451.96191334
_cell_formula_units_Z   1
loop_
 _symmetry_equiv_pos_site_id
 _symmetry_equiv_pos_as_xyz
  1  'x, y, z'
  2  '-x, -y, z'
  3  '-x, y, z'
  4  'x, -y, z'
loop_
 _atom_site_type_symbol
 _atom_site_label
 _atom_site_symmetry_multiplicity
 _atom_site_fract_x
 _atom_site_fract_y
 _atom_site_fract_z
 _atom_site_occupancy
  Mg  Mg0  2  0.50000000  0.25000000  0.95869000  1.0
  Mg  Mg1  2  0.50000000  0.25625000  0.13229000  1.0
  Mg  Mg2  1  0.00000000  0.00000000  0.04145000  1.0
  Mg  Mg3  1  0.00000000  0.00000000  0.87607000  1.0
  Mg  Mg4  1  0.00000000  0.50000000  0.03808000  1.0
  Mg  Mg5  1  0.00000000  0.50000000  0.87607000  1.0
  Ni  Ni6  4  0.25000000  0.25000000  0.87607000  1.0
  Ni  Ni7  4  0.25161000  0.25048000  0.04339000  1.0
  Ni  Ni8  2  0.21758000  0.00000000  0.12689000  1.0
  Ni  Ni9  2  0.23706000  0.50000000  0.11624000  1.0
  Ni  Ni10  2  0.25000000  0.00000000  0.95869000  1.0
  Ni  Ni11  2  0.25000000  0.50000000  0.95869000  1.0
  Sn  Sn12  2  0.00000000  0.25000000  0.95869000  1.0
  Sn  Sn13  2  0.00000000  0.25676000  0.12922000  1.0
  Sn  Sn14  1  0.50000000  0.00000000  0.04245000  1.0
  Sn  Sn15  1  0.50000000  0.00000000  0.87607000  1.0
  Sn  Sn16  1  0.50000000  0.50000000  0.04082000  1.0
  Sn  Sn17  1  0.50000000  0.50000000  0.87607000  1.0
  C  C18  1  0.50000000  0.00000000  0.13945000  1.0
