# generated using pymatgen
data_Li8Cu8Pd8Pb8CO
_symmetry_space_group_name_H-M   'P 1'
_cell_length_a   9.13966000
_cell_length_b   6.46272000
_cell_length_c   26.85470000
_cell_angle_alpha   90.00000000
_cell_angle_beta   90.00000000
_cell_angle_gamma   90.00000000
_symmetry_Int_Tables_number   1
_chemical_formula_structural   Li8Cu8Pd8Pb8CO
_chemical_formula_sum   'Li8 Cu8 Pd8 Pb8 C1 O1'
_cell_volume   1586.22826951
_cell_formula_units_Z   1
loop_
 _symmetry_equiv_pos_site_id
 _symmetry_equiv_pos_as_xyz
  1  'x, y, z'
loop_
 _atom_site_type_symbol
 _atom_site_label
 _atom_site_symmetry_multiplicity
 _atom_site_fract_x
 _atom_site_fract_y
 _atom_site_fract_z
 _atom_site_occupancy
  Li  Li0  1  0.25000000  1.00000000  0.04254000  1.0
  Li  Li1  1  0.75000000  1.00000000  0.04254000  1.0
  Li  Li2  1  0.50000000  0.50000000  0.12763000  1.0
  Li  Li3  1  0.00000000  0.50000000  0.12763000  1.0
  Li  Li4  1  0.73976000  0.03465000  0.86285000  1.0
  Li  Li5  1  0.26024000  0.03465000  0.86285000  1.0
  Li  Li6  1  0.00000000  0.49228000  0.95712000  1.0
  Li  Li7  1  0.50000000  0.52956000  0.95493000  1.0
  Cu  Cu8  1  0.00000000  0.00000000  0.12763000  1.0
  Cu  Cu9  1  0.50000000  1.00000000  0.12763000  1.0
  Cu  Cu10  1  0.75000000  0.50000000  0.04254000  1.0
  Cu  Cu11  1  0.25000000  0.50000000  0.04254000  1.0
  Cu  Cu12  1  0.50000000  0.96006000  0.94708000  1.0
  Cu  Cu13  1  0.00000000  0.00344000  0.95515000  1.0
  Cu  Cu14  1  0.25062000  0.50991000  0.87893000  1.0
  Cu  Cu15  1  0.74938000  0.50991000  0.87893000  1.0
  Pd  Pd16  1  0.00000000  0.25000000  0.04254000  1.0
  Pd  Pd17  1  0.50000000  0.25000000  0.04254000  1.0
  Pd  Pd18  1  0.25000000  0.75000000  0.12763000  1.0
  Pd  Pd19  1  0.75000000  0.75000000  0.12763000  1.0
  Pd  Pd20  1  0.50000000  0.27909000  0.88309000  1.0
  Pd  Pd21  1  0.00000000  0.24774000  0.87075000  1.0
  Pd  Pd22  1  0.75695000  0.75917000  0.95848000  1.0
  Pd  Pd23  1  0.24305000  0.75917000  0.95848000  1.0
  Pb  Pb24  1  0.00000000  0.75000000  0.04254000  1.0
  Pb  Pb25  1  0.50000000  0.75000000  0.04254000  1.0
  Pb  Pb26  1  0.25000000  0.25000000  0.12763000  1.0
  Pb  Pb27  1  0.75000000  0.25000000  0.12763000  1.0
  Pb  Pb28  1  0.50000000  0.72554000  0.85250000  1.0
  Pb  Pb29  1  0.00000000  0.75148000  0.86833000  1.0
  Pb  Pb30  1  0.74392000  0.23846000  0.95875000  1.0
  Pb  Pb31  1  0.25608000  0.23846000  0.95875000  1.0
  C  C32  1  0.00000000  0.24650000  0.79836000  1.0
  O  O33  1  0.00000000  0.25343000  0.75540000  1.0
