# generated using pymatgen
data_Li8Cu8Pd8Pb8CO
_symmetry_space_group_name_H-M   Pm
_cell_length_a   6.46272000
_cell_length_b   9.13966000
_cell_length_c   26.85470000
_cell_angle_alpha   90.00000000
_cell_angle_beta   90.00000000
_cell_angle_gamma   90.00000000
_symmetry_Int_Tables_number   6
_chemical_formula_structural   Li8Cu8Pd8Pb8CO
_chemical_formula_sum   'Li8 Cu8 Pd8 Pb8 C1 O1'
_cell_volume   1586.22826951
_cell_formula_units_Z   1
loop_
 _symmetry_equiv_pos_site_id
 _symmetry_equiv_pos_as_xyz
  1  'x, y, z'
  2  'x, -y, z'
loop_
 _atom_site_type_symbol
 _atom_site_label
 _atom_site_symmetry_multiplicity
 _atom_site_fract_x
 _atom_site_fract_y
 _atom_site_fract_z
 _atom_site_occupancy
  Li  Li0  2  -0.00000000  0.25000000  0.95746000  1.0
  Li  Li1  2  0.03465000  0.26024000  0.13715000  1.0
  Li  Li2  1  0.49228000  0.00000000  0.04288000  1.0
  Li  Li3  1  0.50000000  0.00000000  0.87237000  1.0
  Li  Li4  1  0.50000000  0.50000000  0.87237000  1.0
  Li  Li5  1  0.52956000  0.50000000  0.04507000  1.0
  Cu  Cu6  2  0.50000000  0.25000000  0.95746000  1.0
  Cu  Cu7  2  0.50991000  0.25062000  0.12107000  1.0
  Cu  Cu8  1  -0.00000000  0.50000000  0.87237000  1.0
  Cu  Cu9  1  0.00000000  0.00000000  0.87237000  1.0
  Cu  Cu10  1  0.00344000  0.00000000  0.04485000  1.0
  Cu  Cu11  1  0.96006000  0.50000000  0.05292000  1.0
  Pd  Pd12  2  0.75000000  0.25000000  0.87237000  1.0
  Pd  Pd13  2  0.75917000  0.24305000  0.04152000  1.0
  Pd  Pd14  1  0.24774000  0.00000000  0.12925000  1.0
  Pd  Pd15  1  0.25000000  0.00000000  0.95746000  1.0
  Pd  Pd16  1  0.25000000  0.50000000  0.95746000  1.0
  Pd  Pd17  1  0.27909000  0.50000000  0.11691000  1.0
  Pb  Pb18  2  0.23846000  0.25608000  0.04125000  1.0
  Pb  Pb19  2  0.25000000  0.25000000  0.87237000  1.0
  Pb  Pb20  1  0.72554000  0.50000000  0.14750000  1.0
  Pb  Pb21  1  0.75000000  0.00000000  0.95746000  1.0
  Pb  Pb22  1  0.75000000  0.50000000  0.95746000  1.0
  Pb  Pb23  1  0.75148000  0.00000000  0.13167000  1.0
  C  C24  1  0.24650000  0.00000000  0.20164000  1.0
  O  O25  1  0.25343000  0.00000000  0.24460000  1.0
