# generated using pymatgen
data_Li16Cu8Sb8C
_symmetry_space_group_name_H-M   'P 1'
_cell_length_a   9.01500000
_cell_length_b   6.37457000
_cell_length_c   26.76130000
_cell_angle_alpha   90.00000000
_cell_angle_beta   90.00000000
_cell_angle_gamma   90.00000000
_symmetry_Int_Tables_number   1
_chemical_formula_structural   Li16Cu8Sb8C
_chemical_formula_sum   'Li16 Cu8 Sb8 C1'
_cell_volume   1537.88489797
_cell_formula_units_Z   1
loop_
 _symmetry_equiv_pos_site_id
 _symmetry_equiv_pos_as_xyz
  1  'x, y, z'
loop_
 _atom_site_type_symbol
 _atom_site_label
 _atom_site_symmetry_multiplicity
 _atom_site_fract_x
 _atom_site_fract_y
 _atom_site_fract_z
 _atom_site_occupancy
  Li  Li0  1  0.50000000  1.00000000  0.04211000  1.0
  Li  Li1  1  0.75000000  0.50000000  0.12633000  1.0
  Li  Li2  1  0.00000000  1.00000000  0.04211000  1.0
  Li  Li3  1  0.25000000  0.50000000  0.12633000  1.0
  Li  Li4  1  0.75000000  0.25000000  0.04211000  1.0
  Li  Li5  1  0.25000000  0.25000000  0.04211000  1.0
  Li  Li6  1  0.50000000  0.75000000  0.12633000  1.0
  Li  Li7  1  0.00000000  0.75000000  0.12633000  1.0
  Li  Li8  1  0.00000000  0.97197000  0.84260000  1.0
  Li  Li9  1  0.24610000  0.50526000  0.95557000  1.0
  Li  Li10  1  0.50000000  0.00014000  0.86870000  1.0
  Li  Li11  1  0.75390000  0.50526000  0.95557000  1.0
  Li  Li12  1  0.23210000  0.27069000  0.86726000  1.0
  Li  Li13  1  0.76790000  0.27069000  0.86726000  1.0
  Li  Li14  1  0.00000000  0.77546000  0.95182000  1.0
  Li  Li15  1  0.50000000  0.76472000  0.95956000  1.0
  Cu  Cu16  1  0.75000000  0.00000000  0.12633000  1.0
  Cu  Cu17  1  0.00000000  0.50000000  0.04211000  1.0
  Cu  Cu18  1  0.50000000  0.50000000  0.04211000  1.0
  Cu  Cu19  1  0.25000000  0.00000000  0.12633000  1.0
  Cu  Cu20  1  0.25582000  0.99836000  0.95766000  1.0
  Cu  Cu21  1  0.50000000  0.53332000  0.88323000  1.0
  Cu  Cu22  1  0.00000000  0.55539000  0.86939000  1.0
  Cu  Cu23  1  0.74418000  0.99836000  0.95766000  1.0
  Sb  Sb24  1  0.00000000  0.25000000  0.12633000  1.0
  Sb  Sb25  1  0.50000000  0.25000000  0.12633000  1.0
  Sb  Sb26  1  0.25000000  0.75000000  0.04211000  1.0
  Sb  Sb27  1  0.75000000  0.75000000  0.04211000  1.0
  Sb  Sb28  1  0.50000000  0.24983000  0.95637000  1.0
  Sb  Sb29  1  0.00000000  0.22872000  0.95596000  1.0
  Sb  Sb30  1  0.74407000  0.76403000  0.87122000  1.0
  Sb  Sb31  1  0.25593000  0.76403000  0.87122000  1.0
  C  C32  1  0.00000000  0.26232000  0.87459000  1.0
