# generated using pymatgen
data_Hf8Ni16Sn8CO
_symmetry_space_group_name_H-M   'P 1'
_cell_length_a   8.89490000
_cell_length_b   6.28964000
_cell_length_c   26.67120000
_cell_angle_alpha   90.00000000
_cell_angle_beta   90.00000000
_cell_angle_gamma   90.00000000
_symmetry_Int_Tables_number   1
_chemical_formula_structural   Hf8Ni16Sn8CO
_chemical_formula_sum   'Hf8 Ni16 Sn8 C1 O1'
_cell_volume   1492.13945622
_cell_formula_units_Z   1
loop_
 _symmetry_equiv_pos_site_id
 _symmetry_equiv_pos_as_xyz
  1  'x, y, z'
loop_
 _atom_site_type_symbol
 _atom_site_label
 _atom_site_symmetry_multiplicity
 _atom_site_fract_x
 _atom_site_fract_y
 _atom_site_fract_z
 _atom_site_occupancy
  Hf  Hf0  1  0.00000000  0.00000000  0.12506000  1.0
  Hf  Hf1  1  0.24999000  0.50000000  0.04169000  1.0
  Hf  Hf2  1  0.75001000  0.50000000  0.04169000  1.0
  Hf  Hf3  1  0.50000000  0.00000000  0.12506000  1.0
  Hf  Hf4  1  0.50000000  0.99818000  0.95724000  1.0
  Hf  Hf5  1  0.74925000  0.49841000  0.87489000  1.0
  Hf  Hf6  1  0.25075000  0.49841000  0.87489000  1.0
  Hf  Hf7  1  0.00000000  0.00116000  0.95737000  1.0
  Ni  Ni8  1  0.00000000  0.25000000  0.04169000  1.0
  Ni  Ni9  1  0.50000000  0.75000000  0.04169000  1.0
  Ni  Ni10  1  0.00000000  0.75000000  0.04169000  1.0
  Ni  Ni11  1  0.50000000  0.25000000  0.04169000  1.0
  Ni  Ni12  1  0.74999000  0.75000000  0.12506000  1.0
  Ni  Ni13  1  0.24999000  0.25000000  0.12506000  1.0
  Ni  Ni14  1  0.75001000  0.25000000  0.12506000  1.0
  Ni  Ni15  1  0.25001000  0.75000000  0.12506000  1.0
  Ni  Ni16  1  0.50000000  0.26413000  0.87937000  1.0
  Ni  Ni17  1  0.00000000  0.74753000  0.88175000  1.0
  Ni  Ni18  1  0.50000000  0.72770000  0.87887000  1.0
  Ni  Ni19  1  0.00000000  0.25910000  0.86854000  1.0
  Ni  Ni20  1  0.24851000  0.74990000  0.95567000  1.0
  Ni  Ni21  1  0.74909000  0.24711000  0.95450000  1.0
  Ni  Ni22  1  0.25091000  0.24711000  0.95450000  1.0
  Ni  Ni23  1  0.75149000  0.74990000  0.95567000  1.0
  Sn  Sn24  1  0.74999000  0.00000000  0.04169000  1.0
  Sn  Sn25  1  0.00000000  0.50000000  0.12506000  1.0
  Sn  Sn26  1  0.25001000  0.00000000  0.04169000  1.0
  Sn  Sn27  1  0.50000000  0.50000000  0.12506000  1.0
  Sn  Sn28  1  0.25500000  0.99228000  0.86748000  1.0
  Sn  Sn29  1  0.50000000  0.49919000  0.96049000  1.0
  Sn  Sn30  1  0.74500000  0.99228000  0.86748000  1.0
  Sn  Sn31  1  0.00000000  0.49313000  0.95848000  1.0
  C  C32  1  0.00000000  0.30911000  0.80360000  1.0
  O  O33  1  0.00000000  0.32555000  0.76019000  1.0
