# generated using pymatgen
data_Hf8Ni16Sn8CO
_symmetry_space_group_name_H-M   Pm
_cell_length_a   6.28964000
_cell_length_b   8.89490000
_cell_length_c   26.67120000
_cell_angle_alpha   90.00000000
_cell_angle_beta   90.00000000
_cell_angle_gamma   90.00000000
_symmetry_Int_Tables_number   6
_chemical_formula_structural   Hf8Ni16Sn8CO
_chemical_formula_sum   'Hf8 Ni16 Sn8 C1 O1'
_cell_volume   1492.13945622
_cell_formula_units_Z   1
loop_
 _symmetry_equiv_pos_site_id
 _symmetry_equiv_pos_as_xyz
  1  'x, y, z'
  2  'x, -y, z'
loop_
 _atom_site_type_symbol
 _atom_site_label
 _atom_site_symmetry_multiplicity
 _atom_site_fract_x
 _atom_site_fract_y
 _atom_site_fract_z
 _atom_site_occupancy
  Hf  Hf0  2  0.49841000  0.25075000  0.12511000  1.0
  Hf  Hf1  2  0.50000000  0.24999000  0.95831000  1.0
  Hf  Hf2  1  0.00000000  0.00000000  0.87494000  1.0
  Hf  Hf3  1  0.00000000  0.50000000  0.87494000  1.0
  Hf  Hf4  1  0.00116000  0.00000000  0.04263000  1.0
  Hf  Hf5  1  0.99818000  0.50000000  0.04276000  1.0
  Ni  Ni6  2  0.24711000  0.25091000  0.04550000  1.0
  Ni  Ni7  2  0.25000000  0.24999000  0.87494000  1.0
  Ni  Ni8  2  0.74990000  0.24851000  0.04433000  1.0
  Ni  Ni9  2  0.75000000  0.25001000  0.87494000  1.0
  Ni  Ni10  1  0.25000000  0.00000000  0.95831000  1.0
  Ni  Ni11  1  0.25000000  0.50000000  0.95831000  1.0
  Ni  Ni12  1  0.25910000  0.00000000  0.13146000  1.0
  Ni  Ni13  1  0.26413000  0.50000000  0.12063000  1.0
  Ni  Ni14  1  0.72770000  0.50000000  0.12113000  1.0
  Ni  Ni15  1  0.74753000  0.00000000  0.11825000  1.0
  Ni  Ni16  1  0.75000000  0.00000000  0.95831000  1.0
  Ni  Ni17  1  0.75000000  0.50000000  0.95831000  1.0
  Sn  Sn18  2  0.00000000  0.25001000  0.95831000  1.0
  Sn  Sn19  2  0.99228000  0.25500000  0.13252000  1.0
  Sn  Sn20  1  0.49313000  0.00000000  0.04152000  1.0
  Sn  Sn21  1  0.49919000  0.50000000  0.03951000  1.0
  Sn  Sn22  1  0.50000000  0.00000000  0.87494000  1.0
  Sn  Sn23  1  0.50000000  0.50000000  0.87494000  1.0
  C  C24  1  0.30911000  0.00000000  0.19640000  1.0
  O  O25  1  0.32555000  0.00000000  0.23981000  1.0
