# generated using pymatgen
data_V4Fe8Sn4C
_symmetry_space_group_name_H-M   'P 1'
_cell_length_a   6.09904000
_cell_length_b   6.09904000
_cell_length_c   24.57430000
_cell_angle_alpha   90.00000000
_cell_angle_beta   90.00000000
_cell_angle_gamma   90.00000000
_symmetry_Int_Tables_number   1
_chemical_formula_structural   V4Fe8Sn4C
_chemical_formula_sum   'V4 Fe8 Sn4 C1'
_cell_volume   914.12191145
_cell_formula_units_Z   1
loop_
 _symmetry_equiv_pos_site_id
 _symmetry_equiv_pos_as_xyz
  1  'x, y, z'
loop_
 _atom_site_type_symbol
 _atom_site_label
 _atom_site_symmetry_multiplicity
 _atom_site_fract_x
 _atom_site_fract_y
 _atom_site_fract_z
 _atom_site_occupancy
  V  V0  1  0.00000000  0.50000000  0.90693000  1.0
  V  V1  1  0.50000000  0.00000000  0.90693000  1.0
  V  V2  1  0.50000000  0.50000000  0.03102000  1.0
  V  V3  1  0.00000000  0.00000000  0.03102000  1.0
  Fe  Fe4  1  0.25000000  0.75000000  0.96898000  1.0
  Fe  Fe5  1  0.75000000  0.25000000  0.09307000  1.0
  Fe  Fe6  1  0.75000000  0.75000000  0.96898000  1.0
  Fe  Fe7  1  0.25000000  0.25000000  0.09307000  1.0
  Fe  Fe8  1  0.75000000  0.25000000  0.96898000  1.0
  Fe  Fe9  1  0.25000000  0.75000000  0.09307000  1.0
  Fe  Fe10  1  0.25000000  0.25000000  0.96898000  1.0
  Fe  Fe11  1  0.75000000  0.75000000  0.09307000  1.0
  Sn  Sn12  1  0.00000000  0.50000000  0.03102000  1.0
  Sn  Sn13  1  0.50000000  0.50000000  0.90693000  1.0
  Sn  Sn14  1  0.00000000  0.00000000  0.90693000  1.0
  Sn  Sn15  1  0.50000000  0.00000000  0.03102000  1.0
  C  C16  1  0.00000000  0.00000000  0.12562000  1.0
