# generated using pymatgen
data_MgNi2Sn
_symmetry_space_group_name_H-M   Pmm2
_cell_length_a   6.22749000
_cell_length_b   8.80700000
_cell_length_c   26.60530000
_cell_angle_alpha   90.00000000
_cell_angle_beta   90.00000000
_cell_angle_gamma   90.00000000
_symmetry_Int_Tables_number   25
_chemical_formula_structural   MgNi2Sn
_chemical_formula_sum   'Mg8 Ni16 Sn8'
_cell_volume   1459.18109901
_cell_formula_units_Z   8
loop_
 _symmetry_equiv_pos_site_id
 _symmetry_equiv_pos_as_xyz
  1  'x, y, z'
  2  '-x, -y, z'
  3  '-x, y, z'
  4  'x, -y, z'
loop_
 _atom_site_type_symbol
 _atom_site_label
 _atom_site_symmetry_multiplicity
 _atom_site_fract_x
 _atom_site_fract_y
 _atom_site_fract_z
 _atom_site_occupancy
  Mg  Mg0  2  0.50000000  0.25000000  0.95862000  1.0
  Mg  Mg1  2  0.50000000  0.25001000  0.12976000  1.0
  Mg  Mg2  1  0.00000000  0.00000000  0.03854000  1.0
  Mg  Mg3  1  0.00000000  0.00000000  0.87587000  1.0
  Mg  Mg4  1  0.00000000  0.50000000  0.03853000  1.0
  Mg  Mg5  1  0.00000000  0.50000000  0.87587000  1.0
  Ni  Ni6  4  0.25000000  0.25000000  0.87587000  1.0
  Ni  Ni7  4  0.25067000  0.24991000  0.04332000  1.0
  Ni  Ni8  2  0.22874000  0.50000000  0.11749000  1.0
  Ni  Ni9  2  0.22901000  0.00000000  0.11747000  1.0
  Ni  Ni10  2  0.25000000  0.00000000  0.95862000  1.0
  Ni  Ni11  2  0.25000000  0.50000000  0.95862000  1.0
  Sn  Sn12  2  0.00000000  0.24999000  0.12961000  1.0
  Sn  Sn13  2  0.00000000  0.25000000  0.95862000  1.0
  Sn  Sn14  1  0.50000000  0.00000000  0.04245000  1.0
  Sn  Sn15  1  0.50000000  0.00000000  0.87587000  1.0
  Sn  Sn16  1  0.50000000  0.50000000  0.04246000  1.0
  Sn  Sn17  1  0.50000000  0.50000000  0.87587000  1.0
