# generated using pymatgen
data_Li8Ga8Ge8Pd8C
_symmetry_space_group_name_H-M   'P 1'
_cell_length_a   8.87402000
_cell_length_b   6.27488000
_cell_length_c   26.65550000
_cell_angle_alpha   90.00000000
_cell_angle_beta   90.00000000
_cell_angle_gamma   90.00000000
_symmetry_Int_Tables_number   1
_chemical_formula_structural   Li8Ga8Ge8Pd8C
_chemical_formula_sum   'Li8 Ga8 Ge8 Pd8 C1'
_cell_volume   1484.26915172
_cell_formula_units_Z   1
loop_
 _symmetry_equiv_pos_site_id
 _symmetry_equiv_pos_as_xyz
  1  'x, y, z'
loop_
 _atom_site_type_symbol
 _atom_site_label
 _atom_site_symmetry_multiplicity
 _atom_site_fract_x
 _atom_site_fract_y
 _atom_site_fract_z
 _atom_site_occupancy
  Li  Li0  1  0.75000000  0.75000000  0.04161000  1.0
  Li  Li1  1  0.25000000  0.75000000  0.04161000  1.0
  Li  Li2  1  0.00000000  0.25000000  0.12484000  1.0
  Li  Li3  1  0.50000000  0.25000000  0.12484000  1.0
  Li  Li4  1  0.27172000  0.77853000  0.85749000  1.0
  Li  Li5  1  0.72828000  0.77853000  0.85749000  1.0
  Li  Li6  1  0.50000000  0.26627000  0.95867000  1.0
  Li  Li7  1  0.00000000  0.23518000  0.94723000  1.0
  Ga  Ga8  1  0.75000000  0.00000000  0.12484000  1.0
  Ga  Ga9  1  0.25000000  0.00000000  0.12484000  1.0
  Ga  Ga10  1  0.50000000  0.50000000  0.04161000  1.0
  Ga  Ga11  1  0.00000000  0.50000000  0.04161000  1.0
  Ga  Ga12  1  0.25343000  0.98665000  0.95870000  1.0
  Ga  Ga13  1  0.74657000  0.98665000  0.95870000  1.0
  Ga  Ga14  1  0.00000000  0.58047000  0.87374000  1.0
  Ga  Ga15  1  0.50000000  0.46350000  0.86357000  1.0
  Ge  Ge16  1  0.00000000  0.00000000  0.04161000  1.0
  Ge  Ge17  1  0.50000000  0.00000000  0.04161000  1.0
  Ge  Ge18  1  0.25000000  0.50000000  0.12484000  1.0
  Ge  Ge19  1  0.75000000  0.50000000  0.12484000  1.0
  Ge  Ge20  1  0.50000000  0.02221000  0.87696000  1.0
  Ge  Ge21  1  0.00000000  0.03695000  0.81980000  1.0
  Ge  Ge22  1  0.74740000  0.51996000  0.95210000  1.0
  Ge  Ge23  1  0.25260000  0.51996000  0.95210000  1.0
  Pd  Pd24  1  0.75000000  0.25000000  0.04161000  1.0
  Pd  Pd25  1  0.25000000  0.25000000  0.04161000  1.0
  Pd  Pd26  1  0.00000000  0.75000000  0.12484000  1.0
  Pd  Pd27  1  0.50000000  0.75000000  0.12484000  1.0
  Pd  Pd28  1  0.24210000  0.22824000  0.88156000  1.0
  Pd  Pd29  1  0.75790000  0.22824000  0.88156000  1.0
  Pd  Pd30  1  0.50000000  0.74699000  0.96279000  1.0
  Pd  Pd31  1  0.00000000  0.74256000  0.96526000  1.0
  C  C32  1  0.00000000  0.26846000  0.86494000  1.0
