# generated using pymatgen
data_Li8Ga8Ge8Pd8C
_symmetry_space_group_name_H-M   Pm
_cell_length_a   6.27488000
_cell_length_b   8.87402000
_cell_length_c   26.65550000
_cell_angle_alpha   90.00000000
_cell_angle_beta   90.00000000
_cell_angle_gamma   90.00000000
_symmetry_Int_Tables_number   6
_chemical_formula_structural   Li8Ga8Ge8Pd8C
_chemical_formula_sum   'Li8 Ga8 Ge8 Pd8 C1'
_cell_volume   1484.26915172
_cell_formula_units_Z   1
loop_
 _symmetry_equiv_pos_site_id
 _symmetry_equiv_pos_as_xyz
  1  'x, y, z'
  2  'x, -y, z'
loop_
 _atom_site_type_symbol
 _atom_site_label
 _atom_site_symmetry_multiplicity
 _atom_site_fract_x
 _atom_site_fract_y
 _atom_site_fract_z
 _atom_site_occupancy
  Li  Li0  2  0.75000000  0.25000000  0.95839000  1.0
  Li  Li1  2  0.77853000  0.27172000  0.14251000  1.0
  Li  Li2  1  0.23518000  0.00000000  0.05277000  1.0
  Li  Li3  1  0.25000000  0.00000000  0.87516000  1.0
  Li  Li4  1  0.25000000  0.50000000  0.87516000  1.0
  Li  Li5  1  0.26627000  0.50000000  0.04133000  1.0
  Ga  Ga6  2  0.00000000  0.25000000  0.87516000  1.0
  Ga  Ga7  2  0.98665000  0.25343000  0.04130000  1.0
  Ga  Ga8  1  0.46350000  0.50000000  0.13643000  1.0
  Ga  Ga9  1  0.50000000  0.00000000  0.95839000  1.0
  Ga  Ga10  1  0.50000000  0.50000000  0.95839000  1.0
  Ga  Ga11  1  0.58047000  0.00000000  0.12626000  1.0
  Ge  Ge12  2  0.50000000  0.25000000  0.87516000  1.0
  Ge  Ge13  2  0.51996000  0.25260000  0.04790000  1.0
  Ge  Ge14  1  0.00000000  0.00000000  0.95839000  1.0
  Ge  Ge15  1  0.00000000  0.50000000  0.95839000  1.0
  Ge  Ge16  1  0.02221000  0.50000000  0.12304000  1.0
  Ge  Ge17  1  0.03695000  0.00000000  0.18020000  1.0
  Pd  Pd18  2  0.22824000  0.24210000  0.11844000  1.0
  Pd  Pd19  2  0.25000000  0.25000000  0.95839000  1.0
  Pd  Pd20  1  0.74256000  0.00000000  0.03474000  1.0
  Pd  Pd21  1  0.74699000  0.50000000  0.03721000  1.0
  Pd  Pd22  1  0.75000000  0.00000000  0.87516000  1.0
  Pd  Pd23  1  0.75000000  0.50000000  0.87516000  1.0
  C  C24  1  0.26846000  0.00000000  0.13506000  1.0
