# generated using pymatgen
data_Mg16Sc16CO
_symmetry_space_group_name_H-M   Pm
_cell_length_a   10.17860000
_cell_length_b   7.19733000
_cell_length_c   27.63390000
_cell_angle_alpha   90.00000000
_cell_angle_beta   90.00000000
_cell_angle_gamma   90.00000000
_symmetry_Int_Tables_number   6
_chemical_formula_structural   Mg16Sc16CO
_chemical_formula_sum   'Mg16 Sc16 C1 O1'
_cell_volume   2024.42478200
_cell_formula_units_Z   1
loop_
 _symmetry_equiv_pos_site_id
 _symmetry_equiv_pos_as_xyz
  1  'x, y, z'
  2  'x, -y, z'
loop_
 _atom_site_type_symbol
 _atom_site_label
 _atom_site_symmetry_multiplicity
 _atom_site_fract_x
 _atom_site_fract_y
 _atom_site_fract_z
 _atom_site_occupancy
  Mg  Mg0  1  0.00000000  0.00000000  0.86187000  1.0
  Mg  Mg1  1  0.00000000  0.50000000  0.86187000  1.0
  Mg  Mg2  1  0.00185000  0.00000000  0.04374000  1.0
  Mg  Mg3  1  0.25000000  0.00000000  0.95396000  1.0
  Mg  Mg4  1  0.25000000  0.50000000  0.95396000  1.0
  Mg  Mg5  1  0.25039000  0.50000000  0.13961000  1.0
  Mg  Mg6  1  0.25043000  0.00000000  0.13346000  1.0
  Mg  Mg7  1  0.49842000  0.00000000  0.04394000  1.0
  Mg  Mg8  1  0.50000000  0.00000000  0.86187000  1.0
  Mg  Mg9  1  0.50000000  0.50000000  0.86187000  1.0
  Mg  Mg10  1  0.50254000  0.50000000  0.04325000  1.0
  Mg  Mg11  1  0.74913000  0.00000000  0.14319000  1.0
  Mg  Mg12  1  0.74929000  0.50000000  0.14243000  1.0
  Mg  Mg13  1  0.75000000  0.00000000  0.95396000  1.0
  Mg  Mg14  1  0.75000000  0.50000000  0.95396000  1.0
  Mg  Mg15  1  0.99675000  0.50000000  0.04323000  1.0
  Sc  Sc16  2  0.00000000  0.25000000  0.95396000  1.0
  Sc  Sc17  2  0.24975000  0.26085000  0.04589000  1.0
  Sc  Sc18  2  0.25000000  0.25000000  0.86187000  1.0
  Sc  Sc19  2  0.50000000  0.25000000  0.95396000  1.0
  Sc  Sc20  2  0.50048000  0.25405000  0.13239000  1.0
  Sc  Sc21  2  0.74991000  0.24713000  0.04898000  1.0
  Sc  Sc22  2  0.75000000  0.25000000  0.86187000  1.0
  Sc  Sc23  2  0.99915000  0.25361000  0.13228000  1.0
  C  C24  1  0.25185000  0.00000000  0.21213000  1.0
  O  O25  1  0.25153000  0.00000000  0.25400000  1.0
