# generated using pymatgen
data_Sc8In8Ga8Pd8C
_symmetry_space_group_name_H-M   'P 1'
_cell_length_a   9.45042000
_cell_length_b   6.68246000
_cell_length_c   27.08780000
_cell_angle_alpha   90.00000000
_cell_angle_beta   90.00000000
_cell_angle_gamma   90.00000000
_symmetry_Int_Tables_number   1
_chemical_formula_structural   Sc8In8Ga8Pd8C
_chemical_formula_sum   'Sc8 In8 Ga8 Pd8 C1'
_cell_volume   1710.65019841
_cell_formula_units_Z   1
loop_
 _symmetry_equiv_pos_site_id
 _symmetry_equiv_pos_as_xyz
  1  'x, y, z'
loop_
 _atom_site_type_symbol
 _atom_site_label
 _atom_site_symmetry_multiplicity
 _atom_site_fract_x
 _atom_site_fract_y
 _atom_site_fract_z
 _atom_site_occupancy
  Sc  Sc0  1  0.75000000  0.75000000  0.04361000  1.0
  Sc  Sc1  1  0.25000000  0.75000000  0.04361000  1.0
  Sc  Sc2  1  0.00000000  0.25000000  0.13083000  1.0
  Sc  Sc3  1  0.50000000  0.25000000  0.13083000  1.0
  Sc  Sc4  1  0.22754000  0.74869000  0.86912000  1.0
  Sc  Sc5  1  0.77246000  0.74869000  0.86912000  1.0
  Sc  Sc6  1  0.50000000  0.25627000  0.95273000  1.0
  Sc  Sc7  1  0.00000000  0.25587000  0.95624000  1.0
  In  In8  1  0.75000000  0.25000000  0.04361000  1.0
  In  In9  1  0.25000000  0.25000000  0.04361000  1.0
  In  In10  1  0.00000000  0.75000000  0.13083000  1.0
  In  In11  1  0.50000000  0.75000000  0.13083000  1.0
  In  In12  1  0.27722000  0.25328000  0.85706000  1.0
  In  In13  1  0.72278000  0.25328000  0.85706000  1.0
  In  In14  1  0.50000000  0.74100000  0.95620000  1.0
  In  In15  1  0.00000000  0.74805000  0.95447000  1.0
  Ga  Ga16  1  0.75000000  0.00000000  0.13083000  1.0
  Ga  Ga17  1  0.25000000  0.00000000  0.13083000  1.0
  Ga  Ga18  1  0.50000000  0.50000000  0.04361000  1.0
  Ga  Ga19  1  0.00000000  0.50000000  0.04361000  1.0
  Ga  Ga20  1  0.25256000  0.01592000  0.95224000  1.0
  Ga  Ga21  1  0.74744000  0.01592000  0.95224000  1.0
  Ga  Ga22  1  0.00000000  0.44357000  0.85739000  1.0
  Ga  Ga23  1  0.50000000  0.55459000  0.85323000  1.0
  Pd  Pd24  1  0.00000000  0.00000000  0.04361000  1.0
  Pd  Pd25  1  0.50000000  0.00000000  0.04361000  1.0
  Pd  Pd26  1  0.25000000  0.50000000  0.13083000  1.0
  Pd  Pd27  1  0.75000000  0.50000000  0.13083000  1.0
  Pd  Pd28  1  0.50000000  0.97710000  0.87246000  1.0
  Pd  Pd29  1  0.00000000  0.06389000  0.86644000  1.0
  Pd  Pd30  1  0.74978000  0.49157000  0.95629000  1.0
  Pd  Pd31  1  0.25022000  0.49157000  0.95629000  1.0
  C  C32  1  0.00000000  0.73958000  0.85899000  1.0
