data_image0
_chemical_formula_structural       Li8Y8In8Sn8CO
_chemical_formula_sum              "Li8 Y8 In8 Sn8 C1 O1"
_cell_length_a       9.042
_cell_length_b       9.36656
_cell_length_c       26.6514
_cell_angle_alpha    90
_cell_angle_beta     90
_cell_angle_gamma    90

_space_group_name_H-M_alt    "P 1"
_space_group_IT_number       1

loop_
  _space_group_symop_operation_xyz
  'x, y, z'

loop_
  _atom_site_type_symbol
  _atom_site_label
  _atom_site_symmetry_multiplicity
  _atom_site_fract_x
  _atom_site_fract_y
  _atom_site_fract_z
  _atom_site_occupancy
  Li  Li1       1.0  0.25000  0.00000  0.95840  1.0000
  Li  Li2       1.0  0.25000  0.00633  0.06312  1.0000
  Li  Li3       1.0  0.25000  0.50000  0.95840  1.0000
  Li  Li4       1.0  0.25000  0.50575  0.11726  1.0000
  Li  Li5       1.0  0.75000  0.00000  0.95840  1.0000
  Li  Li6       1.0  0.75000  0.00778  0.11865  1.0000
  Li  Li7       1.0  0.75000  0.50000  0.95840  1.0000
  Li  Li8       1.0  0.75000  0.50510  0.12063  1.0000
  Y   Y1        1.0  0.00000  0.25000  0.95840  1.0000
  Y   Y2        1.0  0.05307  0.19180  0.12671  1.0000
  Y   Y3        1.0  0.00000  0.75000  0.95840  1.0000
  Y   Y4        1.0  0.05545  0.82485  0.13141  1.0000
  Y   Y5        1.0  0.50000  0.25000  0.95840  1.0000
  Y   Y6        1.0  0.44693  0.19179  0.12672  1.0000
  Y   Y7        1.0  0.50000  0.75000  0.95840  1.0000
  Y   Y8        1.0  0.44454  0.82485  0.13142  1.0000
  In  In1       1.0  0.00000  0.00000  0.87521  1.0000
  In  In2       1.0  0.96483  0.00079  0.03476  1.0000
  In  In3       1.0  0.00000  0.50000  0.87521  1.0000
  In  In4       1.0  0.99504  0.50411  0.04850  1.0000
  In  In5       1.0  0.50000  0.00000  0.87521  1.0000
  In  In6       1.0  0.53516  0.00079  0.03476  1.0000
  In  In7       1.0  0.50000  0.50000  0.87521  1.0000
  In  In8       1.0  0.50496  0.50411  0.04849  1.0000
  Sn  Sn1       1.0  0.25000  0.25000  0.87521  1.0000
  Sn  Sn2       1.0  0.25000  0.28159  0.03804  1.0000
  Sn  Sn3       1.0  0.25000  0.75000  0.87521  1.0000
  Sn  Sn4       1.0  0.25000  0.72881  0.03926  1.0000
  Sn  Sn5       1.0  0.75000  0.25000  0.87521  1.0000
  Sn  Sn6       1.0  0.75001  0.25601  0.05068  1.0000
  Sn  Sn7       1.0  0.75000  0.75000  0.87521  1.0000
  Sn  Sn8       1.0  0.75000  0.75014  0.05073  1.0000
  C   C1        1.0  0.24999  0.01826  0.14558  1.0000
  O   O1        1.0  0.25000  0.88241  0.17514  1.0000
