# generated using pymatgen
data_Li8Y8In8Sn8CO
_symmetry_space_group_name_H-M   Pm
_cell_length_a   9.36656000
_cell_length_b   9.04200000
_cell_length_c   26.65140000
_cell_angle_alpha   90.00000000
_cell_angle_beta   90.00000000
_cell_angle_gamma   90.00000000
_symmetry_Int_Tables_number   6
_chemical_formula_structural   Li8Y8In8Sn8CO
_chemical_formula_sum   'Li8 Y8 In8 Sn8 C1 O1'
_cell_volume   2257.17197602
_cell_formula_units_Z   1
loop_
 _symmetry_equiv_pos_site_id
 _symmetry_equiv_pos_as_xyz
  1  'x, y, z'
  2  'x, -y, z'
loop_
 _atom_site_type_symbol
 _atom_site_label
 _atom_site_symmetry_multiplicity
 _atom_site_fract_x
 _atom_site_fract_y
 _atom_site_fract_z
 _atom_site_occupancy
  Li  Li0  1  0.00000000  0.00000000  0.95840000  1.0
  Li  Li1  1  0.00000000  0.50000000  0.95840000  1.0
  Li  Li2  1  0.00633000  0.50000000  0.06312000  1.0
  Li  Li3  1  0.00778000  0.00000000  0.11865000  1.0
  Li  Li4  1  0.50000000  0.00000000  0.95840000  1.0
  Li  Li5  1  0.50000000  0.50000000  0.95840000  1.0
  Li  Li6  1  0.50510000  0.00000000  0.12063000  1.0
  Li  Li7  1  0.50575000  0.50000000  0.11726000  1.0
  Y  Y8  2  0.19180000  0.30308000  0.12671000  1.0
  Y  Y9  2  0.25000000  0.25001000  0.95840000  1.0
  Y  Y10  2  0.75000000  0.25001000  0.95840000  1.0
  Y  Y11  2  0.82485000  0.30546000  0.13141000  1.0
  In  In12  2  0.00000000  0.25001000  0.87521000  1.0
  In  In13  2  0.00079000  0.21484000  0.03476000  1.0
  In  In14  2  0.50000000  0.25001000  0.87521000  1.0
  In  In15  2  0.50411000  0.24505000  0.04850000  1.0
  Sn  Sn16  1  0.25000000  0.00000000  0.87521000  1.0
  Sn  Sn17  1  0.25000000  0.50000000  0.87521000  1.0
  Sn  Sn18  1  0.25601000  0.00000000  0.05068000  1.0
  Sn  Sn19  1  0.28159000  0.50000000  0.03804000  1.0
  Sn  Sn20  1  0.72881000  0.50000000  0.03926000  1.0
  Sn  Sn21  1  0.75000000  0.00000000  0.87521000  1.0
  Sn  Sn22  1  0.75000000  0.50000000  0.87521000  1.0
  Sn  Sn23  1  0.75014000  0.00000000  0.05073000  1.0
  C  C24  1  0.01826000  0.50000000  0.14558000  1.0
  O  O25  1  0.88241000  0.50000000  0.17514000  1.0
