# generated using pymatgen
data_Nb8Ga8Ni16C
_symmetry_space_group_name_H-M   Pmm2
_cell_length_a   6.00328000
_cell_length_b   8.48992000
_cell_length_c   26.36740000
_cell_angle_alpha   90.00000000
_cell_angle_beta   90.00000000
_cell_angle_gamma   90.00000000
_symmetry_Int_Tables_number   25
_chemical_formula_structural   Nb8Ga8Ni16C
_chemical_formula_sum   'Nb8 Ga8 Ni16 C1'
_cell_volume   1343.87695099
_cell_formula_units_Z   1
loop_
 _symmetry_equiv_pos_site_id
 _symmetry_equiv_pos_as_xyz
  1  'x, y, z'
  2  '-x, -y, z'
  3  '-x, y, z'
  4  'x, -y, z'
loop_
 _atom_site_type_symbol
 _atom_site_label
 _atom_site_symmetry_multiplicity
 _atom_site_fract_x
 _atom_site_fract_y
 _atom_site_fract_z
 _atom_site_occupancy
  Nb  Nb0  2  0.50000000  0.24999000  0.95975000  1.0
  Nb  Nb1  2  0.50000000  0.25664000  0.11870000  1.0
  Nb  Nb2  1  0.00000000  0.00000000  0.04398000  1.0
  Nb  Nb3  1  0.00000000  0.00000000  0.87926000  1.0
  Nb  Nb4  1  0.00000000  0.50000000  0.04068000  1.0
  Nb  Nb5  1  0.00000000  0.50000000  0.87926000  1.0
  Ga  Ga6  2  0.00000000  0.25001000  0.95975000  1.0
  Ga  Ga7  2  0.00000000  0.25811000  0.12691000  1.0
  Ga  Ga8  1  0.50000000  0.00000000  0.04032000  1.0
  Ga  Ga9  1  0.50000000  0.00000000  0.87926000  1.0
  Ga  Ga10  1  0.50000000  0.50000000  0.03902000  1.0
  Ga  Ga11  1  0.50000000  0.50000000  0.87926000  1.0
  Ni  Ni12  4  0.24870000  0.25384000  0.04031000  1.0
  Ni  Ni13  4  0.25000000  0.25001000  0.87926000  1.0
  Ni  Ni14  2  0.25000000  0.00000000  0.95975000  1.0
  Ni  Ni15  2  0.25000000  0.50000000  0.95975000  1.0
  Ni  Ni16  2  0.25142000  0.50000000  0.11828000  1.0
  Ni  Ni17  2  0.29526000  0.00000000  0.12463000  1.0
  C  C18  1  0.00000000  0.00000000  0.12963000  1.0
