# generated using pymatgen
data_Ni16Pt16C
_symmetry_space_group_name_H-M   Pmm2
_cell_length_a   7.03042000
_cell_length_b   7.96875000
_cell_length_c   25.97660000
_cell_angle_alpha   90.00000000
_cell_angle_beta   90.00000000
_cell_angle_gamma   90.00000000
_symmetry_Int_Tables_number   25
_chemical_formula_structural   Ni16Pt16C
_chemical_formula_sum   'Ni16 Pt16 C1'
_cell_volume   1455.30419012
_cell_formula_units_Z   1
loop_
 _symmetry_equiv_pos_site_id
 _symmetry_equiv_pos_as_xyz
  1  'x, y, z'
  2  '-x, -y, z'
  3  '-x, y, z'
  4  'x, -y, z'
loop_
 _atom_site_type_symbol
 _atom_site_label
 _atom_site_symmetry_multiplicity
 _atom_site_fract_x
 _atom_site_fract_y
 _atom_site_fract_z
 _atom_site_occupancy
  Ni  Ni0  4  0.24978000  0.25165000  0.96456000  1.0
  Ni  Ni1  4  0.25000000  0.25000000  0.11504000  1.0
  Ni  Ni2  2  0.25000000  0.00000000  0.03835000  1.0
  Ni  Ni3  2  0.25000000  0.50000000  0.03835000  1.0
  Ni  Ni4  2  0.25323000  0.50000000  0.89095000  1.0
  Ni  Ni5  2  0.26292000  0.00000000  0.88595000  1.0
  Pt  Pt6  2  0.00000000  0.25000000  0.03835000  1.0
  Pt  Pt7  2  0.00000000  0.25509000  0.88698000  1.0
  Pt  Pt8  2  0.50000000  0.25000000  0.03835000  1.0
  Pt  Pt9  2  0.50000000  0.25260000  0.89018000  1.0
  Pt  Pt10  1  0.00000000  0.00000000  0.11504000  1.0
  Pt  Pt11  1  0.00000000  0.00000000  0.96426000  1.0
  Pt  Pt12  1  0.00000000  0.50000000  0.11504000  1.0
  Pt  Pt13  1  0.00000000  0.50000000  0.96316000  1.0
  Pt  Pt14  1  0.50000000  0.00000000  0.11504000  1.0
  Pt  Pt15  1  0.50000000  0.00000000  0.96359000  1.0
  Pt  Pt16  1  0.50000000  0.50000000  0.11504000  1.0
  Pt  Pt17  1  0.50000000  0.50000000  0.96475000  1.0
  C  C18  1  0.00000000  0.00000000  0.87992000  1.0
