# generated using pymatgen
data_Sc8In8Ag8Pd8C
_symmetry_space_group_name_H-M   'P 1'
_cell_length_a   9.49324000
_cell_length_b   6.71273000
_cell_length_c   27.11990000
_cell_angle_alpha   90.00000000
_cell_angle_beta   90.00000000
_cell_angle_gamma   90.00000000
_symmetry_Int_Tables_number   1
_chemical_formula_structural   Sc8In8Ag8Pd8C
_chemical_formula_sum   'Sc8 In8 Ag8 Pd8 C1'
_cell_volume   1728.23073180
_cell_formula_units_Z   1
loop_
 _symmetry_equiv_pos_site_id
 _symmetry_equiv_pos_as_xyz
  1  'x, y, z'
loop_
 _atom_site_type_symbol
 _atom_site_label
 _atom_site_symmetry_multiplicity
 _atom_site_fract_x
 _atom_site_fract_y
 _atom_site_fract_z
 _atom_site_occupancy
  Sc  Sc0  1  0.75000000  0.75000000  0.04376000  1.0
  Sc  Sc1  1  0.25000000  0.75000000  0.04376000  1.0
  Sc  Sc2  1  0.00000000  0.25000000  0.13127000  1.0
  Sc  Sc3  1  0.50000000  0.25000000  0.13127000  1.0
  Sc  Sc4  1  0.22477000  0.73825000  0.87266000  1.0
  Sc  Sc5  1  0.77523000  0.73825000  0.87266000  1.0
  Sc  Sc6  1  0.50000000  0.25766000  0.95224000  1.0
  Sc  Sc7  1  0.00000000  0.26801000  0.94571000  1.0
  In  In8  1  0.75000000  0.25000000  0.04376000  1.0
  In  In9  1  0.25000000  0.25000000  0.04376000  1.0
  In  In10  1  0.00000000  0.75000000  0.13127000  1.0
  In  In11  1  0.50000000  0.75000000  0.13127000  1.0
  In  In12  1  0.26430000  0.24303000  0.86241000  1.0
  In  In13  1  0.73570000  0.24303000  0.86241000  1.0
  In  In14  1  0.50000000  0.74627000  0.95689000  1.0
  In  In15  1  0.00000000  0.75162000  0.95691000  1.0
  Ag  Ag16  1  0.75000000  0.00000000  0.13127000  1.0
  Ag  Ag17  1  0.25000000  0.00000000  0.13127000  1.0
  Ag  Ag18  1  0.50000000  0.50000000  0.04376000  1.0
  Ag  Ag19  1  0.00000000  0.50000000  0.04376000  1.0
  Ag  Ag20  1  0.25127000  0.00841000  0.95626000  1.0
  Ag  Ag21  1  0.74873000  0.00841000  0.95626000  1.0
  Ag  Ag22  1  0.00000000  0.44749000  0.83756000  1.0
  Ag  Ag23  1  0.50000000  0.51662000  0.86064000  1.0
  Pd  Pd24  1  0.00000000  0.00000000  0.04376000  1.0
  Pd  Pd25  1  0.50000000  0.00000000  0.04376000  1.0
  Pd  Pd26  1  0.25000000  0.50000000  0.13127000  1.0
  Pd  Pd27  1  0.75000000  0.50000000  0.13127000  1.0
  Pd  Pd28  1  0.50000000  0.99136000  0.87618000  1.0
  Pd  Pd29  1  0.00000000  0.05633000  0.86189000  1.0
  Pd  Pd30  1  0.74751000  0.49678000  0.95812000  1.0
  Pd  Pd31  1  0.25249000  0.49678000  0.95812000  1.0
  C  C32  1  0.00000000  0.74859000  0.87009000  1.0
