# generated using pymatgen
data_Sc8In8Ag8Pd8C
_symmetry_space_group_name_H-M   Pm
_cell_length_a   6.71273000
_cell_length_b   9.49324000
_cell_length_c   27.11990000
_cell_angle_alpha   90.00000000
_cell_angle_beta   90.00000000
_cell_angle_gamma   90.00000000
_symmetry_Int_Tables_number   6
_chemical_formula_structural   Sc8In8Ag8Pd8C
_chemical_formula_sum   'Sc8 In8 Ag8 Pd8 C1'
_cell_volume   1728.23073180
_cell_formula_units_Z   1
loop_
 _symmetry_equiv_pos_site_id
 _symmetry_equiv_pos_as_xyz
  1  'x, y, z'
  2  'x, -y, z'
loop_
 _atom_site_type_symbol
 _atom_site_label
 _atom_site_symmetry_multiplicity
 _atom_site_fract_x
 _atom_site_fract_y
 _atom_site_fract_z
 _atom_site_occupancy
  Sc  Sc0  2  0.73825000  0.22477000  0.12734000  1.0
  Sc  Sc1  2  0.75000000  0.25000000  0.95624000  1.0
  Sc  Sc2  1  0.25000000  0.00000000  0.86873000  1.0
  Sc  Sc3  1  0.25000000  0.50000000  0.86873000  1.0
  Sc  Sc4  1  0.25766000  0.50000000  0.04776000  1.0
  Sc  Sc5  1  0.26801000  0.00000000  0.05429000  1.0
  In  In6  2  0.24303000  0.26430000  0.13759000  1.0
  In  In7  2  0.25000000  0.25000000  0.95624000  1.0
  In  In8  1  0.74627000  0.50000000  0.04311000  1.0
  In  In9  1  0.75000000  0.00000000  0.86873000  1.0
  In  In10  1  0.75000000  0.50000000  0.86873000  1.0
  In  In11  1  0.75162000  0.00000000  0.04309000  1.0
  Ag  Ag12  2  0.00000000  0.25000000  0.86873000  1.0
  Ag  Ag13  2  0.00841000  0.25127000  0.04374000  1.0
  Ag  Ag14  1  0.44749000  0.00000000  0.16244000  1.0
  Ag  Ag15  1  0.50000000  0.00000000  0.95624000  1.0
  Ag  Ag16  1  0.50000000  0.50000000  0.95624000  1.0
  Ag  Ag17  1  0.51662000  0.50000000  0.13936000  1.0
  Pd  Pd18  2  0.49678000  0.25249000  0.04188000  1.0
  Pd  Pd19  2  0.50000000  0.25000000  0.86873000  1.0
  Pd  Pd20  1  0.00000000  0.00000000  0.95624000  1.0
  Pd  Pd21  1  0.00000000  0.50000000  0.95624000  1.0
  Pd  Pd22  1  0.05633000  0.00000000  0.13811000  1.0
  Pd  Pd23  1  0.99136000  0.50000000  0.12382000  1.0
  C  C24  1  0.74859000  0.00000000  0.12991000  1.0
