# generated using pymatgen
data_Ga8Ag8CO
_symmetry_space_group_name_H-M   P4mm
_cell_length_a   6.70510000
_cell_length_b   6.70510000
_cell_length_c   25.02880000
_cell_angle_alpha   90.00000000
_cell_angle_beta   90.00000000
_cell_angle_gamma   90.00000000
_symmetry_Int_Tables_number   99
_chemical_formula_structural   Ga8Ag8CO
_chemical_formula_sum   'Ga8 Ag8 C1 O1'
_cell_volume   1125.25395119
_cell_formula_units_Z   1
loop_
 _symmetry_equiv_pos_site_id
 _symmetry_equiv_pos_as_xyz
  1  'x, y, z'
  2  '-y, x, z'
  3  '-x, -y, z'
  4  'y, -x, z'
  5  '-x, y, z'
  6  'y, x, z'
  7  'x, -y, z'
  8  '-y, -x, z'
loop_
 _atom_site_type_symbol
 _atom_site_label
 _atom_site_symmetry_multiplicity
 _atom_site_fract_x
 _atom_site_fract_y
 _atom_site_fract_z
 _atom_site_occupancy
  Ga  Ga0  4  0.25000000  0.25000000  0.04068000  1.0
  Ga  Ga1  4  0.25000000  0.25000000  0.90673000  1.0
  Ag  Ag2  2  0.00000000  0.50000000  0.10765000  1.0
  Ag  Ag3  2  0.00000000  0.50000000  0.97371000  1.0
  Ag  Ag4  1  0.00000000  0.00000000  0.10765000  1.0
  Ag  Ag5  1  0.00000000  0.00000000  0.97371000  1.0
  Ag  Ag6  1  0.50000000  0.50000000  0.10765000  1.0
  Ag  Ag7  1  0.50000000  0.50000000  0.97371000  1.0
  C  C8  1  0.00000000  0.00000000  0.18357000  1.0
  O  O9  1  0.00000000  0.00000000  0.22951000  1.0
