# generated using pymatgen
data_Li8Ni8Ge8Pd8C
_symmetry_space_group_name_H-M   'P 1'
_cell_length_a   8.39836000
_cell_length_b   5.93854000
_cell_length_c   26.29880000
_cell_angle_alpha   90.00000000
_cell_angle_beta   90.00000000
_cell_angle_gamma   90.00000000
_symmetry_Int_Tables_number   1
_chemical_formula_structural   Li8Ni8Ge8Pd8C
_chemical_formula_sum   'Li8 Ni8 Ge8 Pd8 C1'
_cell_volume   1311.62626690
_cell_formula_units_Z   1
loop_
 _symmetry_equiv_pos_site_id
 _symmetry_equiv_pos_as_xyz
  1  'x, y, z'
loop_
 _atom_site_type_symbol
 _atom_site_label
 _atom_site_symmetry_multiplicity
 _atom_site_fract_x
 _atom_site_fract_y
 _atom_site_fract_z
 _atom_site_occupancy
  Li  Li0  1  0.00000000  0.00000000  0.03992000  1.0
  Li  Li1  1  0.50000000  1.00000000  0.03992000  1.0
  Li  Li2  1  0.25000000  0.50000000  0.11975000  1.0
  Li  Li3  1  0.75000000  0.50000000  0.11975000  1.0
  Li  Li4  1  0.50000000  0.00479000  0.86285000  1.0
  Li  Li5  1  0.00000000  0.01823000  0.84146000  1.0
  Li  Li6  1  0.75164000  0.49868000  0.96197000  1.0
  Li  Li7  1  0.24836000  0.49868000  0.96197000  1.0
  Ni  Ni8  1  0.75000000  0.75000000  0.03992000  1.0
  Ni  Ni9  1  0.25000000  0.75000000  0.03992000  1.0
  Ni  Ni10  1  0.00000000  0.25000000  0.11975000  1.0
  Ni  Ni11  1  0.50000000  0.25000000  0.11975000  1.0
  Ni  Ni12  1  0.26155000  0.74914000  0.88780000  1.0
  Ni  Ni13  1  0.73845000  0.74914000  0.88780000  1.0
  Ni  Ni14  1  0.50000000  0.24928000  0.95791000  1.0
  Ni  Ni15  1  0.00000000  0.24401000  0.95366000  1.0
  Ge  Ge16  1  0.75000000  0.00000000  0.11975000  1.0
  Ge  Ge17  1  0.25000000  0.00000000  0.11975000  1.0
  Ge  Ge18  1  0.50000000  0.50000000  0.03992000  1.0
  Ge  Ge19  1  0.00000000  0.50000000  0.03992000  1.0
  Ge  Ge20  1  0.25094000  0.00120000  0.96056000  1.0
  Ge  Ge21  1  0.74906000  0.00120000  0.96056000  1.0
  Ge  Ge22  1  0.00000000  0.61876000  0.86543000  1.0
  Ge  Ge23  1  0.50000000  0.51168000  0.87963000  1.0
  Pd  Pd24  1  0.75000000  0.25000000  0.03992000  1.0
  Pd  Pd25  1  0.25000000  0.25000000  0.03992000  1.0
  Pd  Pd26  1  0.00000000  0.75000000  0.11975000  1.0
  Pd  Pd27  1  0.50000000  0.75000000  0.11975000  1.0
  Pd  Pd28  1  0.25041000  0.26394000  0.88378000  1.0
  Pd  Pd29  1  0.74959000  0.26394000  0.88378000  1.0
  Pd  Pd30  1  0.50000000  0.75314000  0.96070000  1.0
  Pd  Pd31  1  0.00000000  0.74756000  0.96093000  1.0
  C  C32  1  0.00000000  0.30859000  0.88272000  1.0
