# generated using pymatgen
data_Li8Ni8Ge8Pd8C
_symmetry_space_group_name_H-M   Pm
_cell_length_a   5.93854000
_cell_length_b   8.39836000
_cell_length_c   26.29880000
_cell_angle_alpha   90.00000000
_cell_angle_beta   90.00000000
_cell_angle_gamma   90.00000000
_symmetry_Int_Tables_number   6
_chemical_formula_structural   Li8Ni8Ge8Pd8C
_chemical_formula_sum   'Li8 Ni8 Ge8 Pd8 C1'
_cell_volume   1311.62626690
_cell_formula_units_Z   1
loop_
 _symmetry_equiv_pos_site_id
 _symmetry_equiv_pos_as_xyz
  1  'x, y, z'
  2  'x, -y, z'
loop_
 _atom_site_type_symbol
 _atom_site_label
 _atom_site_symmetry_multiplicity
 _atom_site_fract_x
 _atom_site_fract_y
 _atom_site_fract_z
 _atom_site_occupancy
  Li  Li0  2  0.49868000  0.24836000  0.03803000  1.0
  Li  Li1  2  0.50000000  0.25000000  0.88025000  1.0
  Li  Li2  1  -0.00000000  0.50000000  0.96008000  1.0
  Li  Li3  1  0.00000000  0.00000000  0.96008000  1.0
  Li  Li4  1  0.00479000  0.50000000  0.13715000  1.0
  Li  Li5  1  0.01823000  0.00000000  0.15854000  1.0
  Ni  Ni6  2  0.74914000  0.26155000  0.11220000  1.0
  Ni  Ni7  2  0.75000000  0.25000000  0.96008000  1.0
  Ni  Ni8  1  0.24401000  0.00000000  0.04634000  1.0
  Ni  Ni9  1  0.24928000  0.50000000  0.04209000  1.0
  Ni  Ni10  1  0.25000000  0.00000000  0.88025000  1.0
  Ni  Ni11  1  0.25000000  0.50000000  0.88025000  1.0
  Ge  Ge12  2  0.00000000  0.25000000  0.88025000  1.0
  Ge  Ge13  2  0.00120000  0.25094000  0.03944000  1.0
  Ge  Ge14  1  0.50000000  0.00000000  0.96008000  1.0
  Ge  Ge15  1  0.50000000  0.50000000  0.96008000  1.0
  Ge  Ge16  1  0.51168000  0.50000000  0.12037000  1.0
  Ge  Ge17  1  0.61876000  0.00000000  0.13457000  1.0
  Pd  Pd18  2  0.25000000  0.25000000  0.96008000  1.0
  Pd  Pd19  2  0.26394000  0.25041000  0.11622000  1.0
  Pd  Pd20  1  0.74756000  0.00000000  0.03907000  1.0
  Pd  Pd21  1  0.75000000  0.00000000  0.88025000  1.0
  Pd  Pd22  1  0.75000000  0.50000000  0.88025000  1.0
  Pd  Pd23  1  0.75314000  0.50000000  0.03930000  1.0
  C  C24  1  0.30859000  0.00000000  0.11728000  1.0
