# generated using pymatgen
data_Li8Hf8In8Pd8CO
_symmetry_space_group_name_H-M   Pm
_cell_length_a   6.51419000
_cell_length_b   9.21246000
_cell_length_c   26.90930000
_cell_angle_alpha   90.00000000
_cell_angle_beta   90.00000000
_cell_angle_gamma   90.00000000
_symmetry_Int_Tables_number   6
_chemical_formula_structural   Li8Hf8In8Pd8CO
_chemical_formula_sum   'Li8 Hf8 In8 Pd8 C1 O1'
_cell_volume   1614.87323727
_cell_formula_units_Z   1
loop_
 _symmetry_equiv_pos_site_id
 _symmetry_equiv_pos_as_xyz
  1  'x, y, z'
  2  'x, -y, z'
loop_
 _atom_site_type_symbol
 _atom_site_label
 _atom_site_symmetry_multiplicity
 _atom_site_fract_x
 _atom_site_fract_y
 _atom_site_fract_z
 _atom_site_occupancy
  Li  Li0  2  0.75000000  0.25000000  0.95721000  1.0
  Li  Li1  2  0.77446000  0.22905000  0.17997000  1.0
  Li  Li2  1  0.24343000  0.00000000  0.04139000  1.0
  Li  Li3  1  0.24488000  0.50000000  0.04649000  1.0
  Li  Li4  1  0.25000000  0.00000000  0.87162000  1.0
  Li  Li5  1  0.25000000  0.50000000  0.87162000  1.0
  Hf  Hf6  2  0.00000000  0.25000000  0.87162000  1.0
  Hf  Hf7  2  0.99209000  0.25194000  0.05057000  1.0
  Hf  Hf8  1  0.50000000  0.00000000  0.95721000  1.0
  Hf  Hf9  1  0.50000000  0.50000000  0.95721000  1.0
  Hf  Hf10  1  0.51828000  0.00000000  0.12533000  1.0
  Hf  Hf11  1  0.53148000  0.50000000  0.12414000  1.0
  In  In12  2  0.50000000  0.25000000  0.87162000  1.0
  In  In13  2  0.50568000  0.24887000  0.04210000  1.0
  In  In14  1  -0.00000000  0.50000000  0.95721000  1.0
  In  In15  1  -0.00000000  0.00000000  0.95721000  1.0
  In  In16  1  0.01936000  0.00000000  0.13084000  1.0
  In  In17  1  0.99773000  0.50000000  0.13849000  1.0
  Pd  Pd18  2  0.25000000  0.25000000  0.95721000  1.0
  Pd  Pd19  2  0.27305000  0.25547000  0.12652000  1.0
  Pd  Pd20  1  0.75000000  0.00000000  0.87162000  1.0
  Pd  Pd21  1  0.75000000  0.50000000  0.87162000  1.0
  Pd  Pd22  1  0.75419000  0.50000000  0.04161000  1.0
  Pd  Pd23  1  0.75752000  0.00000000  0.04028000  1.0
  C  C24  1  0.61407000  0.00000000  0.20198000  1.0
  O  O25  1  0.65219000  0.00000000  0.24539000  1.0
