# generated using pymatgen
data_Li16Ga8Au8C
_symmetry_space_group_name_H-M   Pm
_cell_length_a   6.29417000
_cell_length_b   8.90130000
_cell_length_c   26.67600000
_cell_angle_alpha   90.00000000
_cell_angle_beta   90.00000000
_cell_angle_gamma   90.00000000
_symmetry_Int_Tables_number   6
_chemical_formula_structural   Li16Ga8Au8C
_chemical_formula_sum   'Li16 Ga8 Au8 C1'
_cell_volume   1494.55745665
_cell_formula_units_Z   1
loop_
 _symmetry_equiv_pos_site_id
 _symmetry_equiv_pos_as_xyz
  1  'x, y, z'
  2  'x, -y, z'
loop_
 _atom_site_type_symbol
 _atom_site_label
 _atom_site_symmetry_multiplicity
 _atom_site_fract_x
 _atom_site_fract_y
 _atom_site_fract_z
 _atom_site_occupancy
  Li  Li0  2  0.50000000  0.25000000  0.87487000  1.0
  Li  Li1  2  0.50915000  0.24630000  0.03687000  1.0
  Li  Li2  2  0.73946000  0.26942000  0.12364000  1.0
  Li  Li3  2  0.75000000  0.25000000  0.95829000  1.0
  Li  Li4  1  -0.00000000  0.00000000  0.95829000  1.0
  Li  Li5  1  0.00000000  0.50000000  0.95829000  1.0
  Li  Li6  1  0.04165000  0.50000000  0.12487000  1.0
  Li  Li7  1  0.24682000  0.00000000  0.04841000  1.0
  Li  Li8  1  0.25000000  0.00000000  0.87487000  1.0
  Li  Li9  1  0.25000000  0.50000000  0.87487000  1.0
  Li  Li10  1  0.25955000  0.50000000  0.04033000  1.0
  Li  Li11  1  0.99060000  0.00000000  0.13150000  1.0
  Ga  Ga12  2  0.00000000  0.25000000  0.87487000  1.0
  Ga  Ga13  2  0.99937000  0.25505000  0.04098000  1.0
  Ga  Ga14  1  0.46761000  0.50000000  0.12728000  1.0
  Ga  Ga15  1  0.50000000  0.00000000  0.95829000  1.0
  Ga  Ga16  1  0.50000000  0.50000000  0.95829000  1.0
  Ga  Ga17  1  0.59334000  0.00000000  0.15331000  1.0
  Au  Au18  2  0.25000000  0.25000000  0.95829000  1.0
  Au  Au19  2  0.27980000  0.24063000  0.11782000  1.0
  Au  Au20  1  0.74542000  0.50000000  0.04574000  1.0
  Au  Au21  1  0.75000000  0.00000000  0.87487000  1.0
  Au  Au22  1  0.75000000  0.50000000  0.87487000  1.0
  Au  Au23  1  0.76434000  0.00000000  0.03855000  1.0
  C  C24  1  0.30977000  0.00000000  0.12848000  1.0
