# generated using pymatgen
data_Mg8Ni16Sb8CO
_symmetry_space_group_name_H-M   P1
_cell_length_a   6.22749000
_cell_length_b   8.80700000
_cell_length_c   26.60530000
_cell_angle_alpha   90.00000000
_cell_angle_beta   90.00000000
_cell_angle_gamma   90.00000000
_symmetry_Int_Tables_number   1
_chemical_formula_structural   Mg8Ni16Sb8CO
_chemical_formula_sum   'Mg8 Ni16 Sb8 C1 O1'
_cell_volume   1459.18109901
_cell_formula_units_Z   1
loop_
 _symmetry_equiv_pos_site_id
 _symmetry_equiv_pos_as_xyz
  1  'x, y, z'
loop_
 _atom_site_type_symbol
 _atom_site_label
 _atom_site_symmetry_multiplicity
 _atom_site_fract_x
 _atom_site_fract_y
 _atom_site_fract_z
 _atom_site_occupancy
  Mg  Mg0  1  0.00000000  0.00000000  0.87587000  1.0
  Mg  Mg1  1  0.00000000  0.50000000  0.87587000  1.0
  Mg  Mg2  1  0.00061000  0.50019000  0.03846000  1.0
  Mg  Mg3  1  0.00944000  0.00042000  0.04144000  1.0
  Mg  Mg4  1  0.50000000  0.25000000  0.95862000  1.0
  Mg  Mg5  1  0.50000000  0.75000000  0.95862000  1.0
  Mg  Mg6  1  0.50208000  0.26144000  0.13154000  1.0
  Mg  Mg7  1  0.50223000  0.73828000  0.13157000  1.0
  Ni  Ni8  1  0.23526000  0.49970000  0.11567000  1.0
  Ni  Ni9  1  0.25000000  0.00000000  0.95862000  1.0
  Ni  Ni10  1  0.25000000  0.25000000  0.87587000  1.0
  Ni  Ni11  1  0.25000000  0.50000000  0.95862000  1.0
  Ni  Ni12  1  0.25000000  0.75000000  0.87587000  1.0
  Ni  Ni13  1  0.25183000  0.75137000  0.04803000  1.0
  Ni  Ni14  1  0.25276000  0.24910000  0.04749000  1.0
  Ni  Ni15  1  0.27346000  0.99977000  0.12817000  1.0
  Ni  Ni16  1  0.75000000  0.00000000  0.95862000  1.0
  Ni  Ni17  1  0.75000000  0.25000000  0.87587000  1.0
  Ni  Ni18  1  0.75000000  0.50000000  0.95862000  1.0
  Ni  Ni19  1  0.75000000  0.75000000  0.87587000  1.0
  Ni  Ni20  1  0.75055000  0.24877000  0.04546000  1.0
  Ni  Ni21  1  0.75176000  0.75224000  0.04524000  1.0
  Ni  Ni22  1  0.76243000  0.99995000  0.11541000  1.0
  Ni  Ni23  1  0.76377000  0.49980000  0.11604000  1.0
  Sb  Sb24  1  0.00000000  0.25000000  0.95862000  1.0
  Sb  Sb25  1  0.00000000  0.75000000  0.95862000  1.0
  Sb  Sb26  1  0.49923000  0.00005000  0.04114000  1.0
  Sb  Sb27  1  0.50000000  0.00000000  0.87587000  1.0
  Sb  Sb28  1  0.50000000  0.50000000  0.87587000  1.0
  Sb  Sb29  1  0.50092000  0.50038000  0.04119000  1.0
  Sb  Sb30  1  0.99436000  0.74812000  0.12973000  1.0
  Sb  Sb31  1  0.99487000  0.25165000  0.12956000  1.0
  C  C32  1  0.35584000  0.00009000  0.19133000  1.0
  O  O33  1  0.39690000  0.00038000  0.23405000  1.0
