# generated using pymatgen
data_Hf8Al8Au16C
_symmetry_space_group_name_H-M   'P 1'
_cell_length_a   9.38295000
_cell_length_b   6.63475000
_cell_length_c   27.03720000
_cell_angle_alpha   90.00000000
_cell_angle_beta   90.00000000
_cell_angle_gamma   90.00000000
_symmetry_Int_Tables_number   1
_chemical_formula_structural   Hf8Al8Au16C
_chemical_formula_sum   'Hf8 Al8 Au16 C1'
_cell_volume   1683.16107406
_cell_formula_units_Z   1
loop_
 _symmetry_equiv_pos_site_id
 _symmetry_equiv_pos_as_xyz
  1  'x, y, z'
loop_
 _atom_site_type_symbol
 _atom_site_label
 _atom_site_symmetry_multiplicity
 _atom_site_fract_x
 _atom_site_fract_y
 _atom_site_fract_z
 _atom_site_occupancy
  Hf  Hf0  1  0.75000000  0.00000000  0.13014000  1.0
  Hf  Hf1  1  0.00000000  0.50000000  0.04338000  1.0
  Hf  Hf2  1  0.50000000  0.50000000  0.04338000  1.0
  Hf  Hf3  1  0.25000000  0.00000000  0.13014000  1.0
  Hf  Hf4  1  0.25227000  0.00945000  0.95003000  1.0
  Hf  Hf5  1  0.50000000  0.45712000  0.87562000  1.0
  Hf  Hf6  1  0.00000000  0.48158000  0.87551000  1.0
  Hf  Hf7  1  0.74773000  0.00945000  0.95003000  1.0
  Al  Al8  1  0.50000000  1.00000000  0.04338000  1.0
  Al  Al9  1  0.75000000  0.50000000  0.13014000  1.0
  Al  Al10  1  0.00000000  1.00000000  0.04338000  1.0
  Al  Al11  1  0.25000000  0.50000000  0.13014000  1.0
  Al  Al12  1  0.00000000  0.90021000  0.85423000  1.0
  Al  Al13  1  0.24953000  0.50260000  0.95844000  1.0
  Al  Al14  1  0.50000000  0.00025000  0.86925000  1.0
  Al  Al15  1  0.75047000  0.50260000  0.95844000  1.0
  Au  Au16  1  0.75000000  0.25000000  0.04338000  1.0
  Au  Au17  1  0.25000000  0.75000000  0.04338000  1.0
  Au  Au18  1  0.75000000  0.75000000  0.04338000  1.0
  Au  Au19  1  0.25000000  0.25000000  0.04338000  1.0
  Au  Au20  1  0.50000000  0.75000000  0.13014000  1.0
  Au  Au21  1  0.00000000  0.25000000  0.13014000  1.0
  Au  Au22  1  0.50000000  0.25000000  0.13014000  1.0
  Au  Au23  1  0.00000000  0.75000000  0.13014000  1.0
  Au  Au24  1  0.25760000  0.21643000  0.85529000  1.0
  Au  Au25  1  0.74350000  0.71116000  0.87146000  1.0
  Au  Au26  1  0.25650000  0.71116000  0.87146000  1.0
  Au  Au27  1  0.74240000  0.21643000  0.85529000  1.0
  Au  Au28  1  0.00000000  0.77368000  0.96021000  1.0
  Au  Au29  1  0.50000000  0.24583000  0.96135000  1.0
  Au  Au30  1  0.00000000  0.24685000  0.96026000  1.0
  Au  Au31  1  0.50000000  0.75678000  0.95828000  1.0
  C  C32  1  0.00000000  0.18763000  0.85258000  1.0
