# generated using pymatgen
data_Hf8Al8Au16C
_symmetry_space_group_name_H-M   Pm
_cell_length_a   6.63475000
_cell_length_b   9.38295000
_cell_length_c   27.03720000
_cell_angle_alpha   90.00000000
_cell_angle_beta   90.00000000
_cell_angle_gamma   90.00000000
_symmetry_Int_Tables_number   6
_chemical_formula_structural   Hf8Al8Au16C
_chemical_formula_sum   'Hf8 Al8 Au16 C1'
_cell_volume   1683.16107406
_cell_formula_units_Z   1
loop_
 _symmetry_equiv_pos_site_id
 _symmetry_equiv_pos_as_xyz
  1  'x, y, z'
  2  'x, -y, z'
loop_
 _atom_site_type_symbol
 _atom_site_label
 _atom_site_symmetry_multiplicity
 _atom_site_fract_x
 _atom_site_fract_y
 _atom_site_fract_z
 _atom_site_occupancy
  Hf  Hf0  2  0.00000000  0.25000000  0.86986000  1.0
  Hf  Hf1  2  0.00945000  0.25227000  0.04997000  1.0
  Hf  Hf2  1  0.45712000  0.50000000  0.12438000  1.0
  Hf  Hf3  1  0.48158000  0.00000000  0.12449000  1.0
  Hf  Hf4  1  0.50000000  0.00000000  0.95662000  1.0
  Hf  Hf5  1  0.50000000  0.50000000  0.95662000  1.0
  Al  Al6  2  0.50000000  0.25000000  0.86986000  1.0
  Al  Al7  2  0.50260000  0.24953000  0.04156000  1.0
  Al  Al8  1  -0.00000000  0.50000000  0.95662000  1.0
  Al  Al9  1  -0.00000000  0.00000000  0.95662000  1.0
  Al  Al10  1  0.00025000  0.50000000  0.13075000  1.0
  Al  Al11  1  0.90021000  0.00000000  0.14577000  1.0
  Au  Au12  2  0.21643000  0.25760000  0.14471000  1.0
  Au  Au13  2  0.25000000  0.25000000  0.95662000  1.0
  Au  Au14  2  0.71116000  0.25650000  0.12854000  1.0
  Au  Au15  2  0.75000000  0.25000000  0.95662000  1.0
  Au  Au16  1  0.24583000  0.50000000  0.03865000  1.0
  Au  Au17  1  0.24685000  0.00000000  0.03974000  1.0
  Au  Au18  1  0.25000000  0.00000000  0.86986000  1.0
  Au  Au19  1  0.25000000  0.50000000  0.86986000  1.0
  Au  Au20  1  0.75000000  0.00000000  0.86986000  1.0
  Au  Au21  1  0.75000000  0.50000000  0.86986000  1.0
  Au  Au22  1  0.75678000  0.50000000  0.04172000  1.0
  Au  Au23  1  0.77368000  0.00000000  0.03979000  1.0
  C  C24  1  0.18763000  0.00000000  0.14742000  1.0
