# generated using pymatgen
data_Li8In16Ir8C
_symmetry_space_group_name_H-M   P1
_cell_length_a   6.57920000
_cell_length_b   9.30439000
_cell_length_c   26.97830000
_cell_angle_alpha   90.00000000
_cell_angle_beta   90.00000000
_cell_angle_gamma   90.00000000
_symmetry_Int_Tables_number   1
_chemical_formula_structural   Li8In16Ir8C
_chemical_formula_sum   'Li8 In16 Ir8 C1'
_cell_volume   1651.48857747
_cell_formula_units_Z   1
loop_
 _symmetry_equiv_pos_site_id
 _symmetry_equiv_pos_as_xyz
  1  'x, y, z'
loop_
 _atom_site_type_symbol
 _atom_site_label
 _atom_site_symmetry_multiplicity
 _atom_site_fract_x
 _atom_site_fract_y
 _atom_site_fract_z
 _atom_site_occupancy
  Li  Li0  1  -0.00000000  0.50000000  0.87067000  1.0
  Li  Li1  1  0.00000000  0.00000000  0.87067000  1.0
  Li  Li2  1  0.50000000  0.25000000  0.95689000  1.0
  Li  Li3  1  0.50000000  0.75000000  0.95689000  1.0
  Li  Li4  1  0.56526000  0.73957000  0.14480000  1.0
  Li  Li5  1  0.56683000  0.26010000  0.14497000  1.0
  Li  Li6  1  0.97987000  0.00007000  0.04956000  1.0
  Li  Li7  1  0.99643000  0.49989000  0.04258000  1.0
  In  In8  1  0.24810000  0.75125000  0.04600000  1.0
  In  In9  1  0.24830000  0.24862000  0.04586000  1.0
  In  In10  1  0.25000000  0.00000000  0.95689000  1.0
  In  In11  1  0.25000000  0.25000000  0.87067000  1.0
  In  In12  1  0.25000000  0.50000000  0.95689000  1.0
  In  In13  1  0.25000000  0.75000000  0.87067000  1.0
  In  In14  1  0.27567000  0.49922000  0.12960000  1.0
  In  In15  1  0.33797000  0.00014000  0.13293000  1.0
  In  In16  1  0.73802000  0.25259000  0.04534000  1.0
  In  In17  1  0.73813000  0.74742000  0.04533000  1.0
  In  In18  1  0.74431000  0.99941000  0.20302000  1.0
  In  In19  1  0.75000000  0.00000000  0.95689000  1.0
  In  In20  1  0.75000000  0.25000000  0.87067000  1.0
  In  In21  1  0.75000000  0.50000000  0.95689000  1.0
  In  In22  1  0.75000000  0.75000000  0.87067000  1.0
  In  In23  1  0.82537000  0.50037000  0.14657000  1.0
  Ir  Ir24  1  -0.00000000  0.25000000  0.95689000  1.0
  Ir  Ir25  1  -0.00000000  0.75000000  0.95689000  1.0
  Ir  Ir26  1  0.49661000  0.50004000  0.03830000  1.0
  Ir  Ir27  1  0.49996000  0.99992000  0.03685000  1.0
  Ir  Ir28  1  0.50000000  0.00000000  0.87067000  1.0
  Ir  Ir29  1  0.50000000  0.50000000  0.87067000  1.0
  Ir  Ir30  1  0.98029000  0.79881000  0.12654000  1.0
  Ir  Ir31  1  0.98092000  0.20218000  0.12647000  1.0
  C  C32  1  0.97127000  0.00051000  0.13089000  1.0
