# generated using pymatgen
data_Li4Sc4Al4In4CO
_symmetry_space_group_name_H-M   Pm
_cell_length_a   6.04255000
_cell_length_b   8.49254000
_cell_length_c   24.52830000
_cell_angle_alpha   90.00000000
_cell_angle_beta   90.00000000
_cell_angle_gamma   90.00000000
_symmetry_Int_Tables_number   6
_chemical_formula_structural   Li4Sc4Al4In4CO
_chemical_formula_sum   'Li4 Sc4 Al4 In4 C1 O1'
_cell_volume   1258.70890035
_cell_formula_units_Z   1
loop_
 _symmetry_equiv_pos_site_id
 _symmetry_equiv_pos_as_xyz
  1  'x, y, z'
  2  'x, -y, z'
loop_
 _atom_site_type_symbol
 _atom_site_label
 _atom_site_symmetry_multiplicity
 _atom_site_fract_x
 _atom_site_fract_y
 _atom_site_fract_z
 _atom_site_occupancy
  Li  Li0  1  0.20829000  0.00000000  0.09597000  1.0
  Li  Li1  1  0.21140000  0.50000000  0.08869000  1.0
  Li  Li2  1  0.74006000  0.00000000  0.96923000  1.0
  Li  Li3  1  0.74006000  0.50000000  0.96923000  1.0
  Sc  Sc4  1  0.24006000  0.00000000  0.96923000  1.0
  Sc  Sc5  1  0.24006000  0.50000000  0.96923000  1.0
  Sc  Sc6  1  0.69768000  0.50000000  0.08588000  1.0
  Sc  Sc7  1  0.69775000  0.00000000  0.08472000  1.0
  Al  Al8  2  0.00000000  0.24999000  0.90769000  1.0
  Al  Al9  2  0.46189000  0.25170000  0.03303000  1.0
  In  In10  2  0.50000000  0.24999000  0.90769000  1.0
  In  In11  2  0.97038000  0.25042000  0.03299000  1.0
  C  C12  1  0.71671000  0.00000000  0.17736000  1.0
  O  O13  1  0.72308000  0.00000000  0.22464000  1.0
