# generated using pymatgen
data_Cu8Ni16Sn8C
_symmetry_space_group_name_H-M   'P 1'
_cell_length_a   6.01864000
_cell_length_b   8.51164000
_cell_length_c   26.38370000
_cell_angle_alpha   90.00000000
_cell_angle_beta   90.00000000
_cell_angle_gamma   90.00000000
_symmetry_Int_Tables_number   1
_chemical_formula_structural   Cu8Ni16Sn8C
_chemical_formula_sum   'Cu8 Ni16 Sn8 C1'
_cell_volume   1351.59729550
_cell_formula_units_Z   1
loop_
 _symmetry_equiv_pos_site_id
 _symmetry_equiv_pos_as_xyz
  1  'x, y, z'
loop_
 _atom_site_type_symbol
 _atom_site_label
 _atom_site_symmetry_multiplicity
 _atom_site_fract_x
 _atom_site_fract_y
 _atom_site_fract_z
 _atom_site_occupancy
  Cu  Cu0  1  0.00000000  0.00000000  0.87902000  1.0
  Cu  Cu1  1  0.50000000  0.25000000  0.95967000  1.0
  Cu  Cu2  1  0.50000000  0.75000000  0.95967000  1.0
  Cu  Cu3  1  0.00000000  0.50000000  0.87902000  1.0
  Cu  Cu4  1  0.99880000  0.50638000  0.03669000  1.0
  Cu  Cu5  1  0.48897000  0.75002000  0.11832000  1.0
  Cu  Cu6  1  0.52587000  0.24998000  0.11828000  1.0
  Cu  Cu7  1  0.99866000  0.99367000  0.03669000  1.0
  Ni  Ni8  1  0.25000000  0.00000000  0.95967000  1.0
  Ni  Ni9  1  0.75000000  0.50000000  0.95967000  1.0
  Ni  Ni10  1  0.75000000  0.00000000  0.95967000  1.0
  Ni  Ni11  1  0.25000000  0.50000000  0.95967000  1.0
  Ni  Ni12  1  0.75000000  0.75000000  0.87902000  1.0
  Ni  Ni13  1  0.25000000  0.25000000  0.87902000  1.0
  Ni  Ni14  1  0.25000000  0.75000000  0.87902000  1.0
  Ni  Ni15  1  0.75000000  0.25000000  0.87902000  1.0
  Ni  Ni16  1  0.20406000  0.46460000  0.11738000  1.0
  Ni  Ni17  1  0.77007000  0.99824000  0.11480000  1.0
  Ni  Ni18  1  0.76998000  0.50168000  0.11475000  1.0
  Ni  Ni19  1  0.20440000  0.03499000  0.11734000  1.0
  Ni  Ni20  1  0.78232000  0.25013000  0.04504000  1.0
  Ni  Ni21  1  0.24612000  0.75009000  0.04107000  1.0
  Ni  Ni22  1  0.22145000  0.24996000  0.04721000  1.0
  Ni  Ni23  1  0.75257000  0.74993000  0.04266000  1.0
  Sn  Sn24  1  0.00000000  0.75000000  0.95967000  1.0
  Sn  Sn25  1  0.50000000  0.00000000  0.87902000  1.0
  Sn  Sn26  1  0.00000000  0.25000000  0.95967000  1.0
  Sn  Sn27  1  0.50000000  0.50000000  0.87902000  1.0
  Sn  Sn28  1  0.89798000  0.25004000  0.17040000  1.0
  Sn  Sn29  1  0.49755000  0.49573000  0.04062000  1.0
  Sn  Sn30  1  0.01016000  0.74989000  0.12958000  1.0
  Sn  Sn31  1  0.49780000  0.00431000  0.04061000  1.0
  C  C32  1  0.20732000  0.24979000  0.11952000  1.0
