data_image0
_chemical_formula_structural       Li8Sb4Pd4CO
_chemical_formula_sum              "Li8 Sb4 Pd4 C1 O1"
_cell_length_a       6.43375
_cell_length_b       6.43375
_cell_length_c       24.8253
_cell_angle_alpha    90
_cell_angle_beta     90
_cell_angle_gamma    90

_space_group_name_H-M_alt    "P 1"
_space_group_IT_number       1

loop_
  _space_group_symop_operation_xyz
  'x, y, z'

loop_
  _atom_site_type_symbol
  _atom_site_label
  _atom_site_symmetry_multiplicity
  _atom_site_fract_x
  _atom_site_fract_y
  _atom_site_fract_z
  _atom_site_occupancy
  Li  Li1       1.0  0.00000  0.00000  0.96760  1.0000
  Li  Li2       1.0  0.50000  0.00001  0.10148  1.0000
  Li  Li3       1.0  1.00000  0.49999  0.10242  1.0000
  Li  Li4       1.0  0.50000  0.50000  0.96760  1.0000
  Li  Li5       1.0  0.25000  0.25000  0.90281  1.0000
  Li  Li6       1.0  0.24979  0.74978  0.03219  1.0000
  Li  Li7       1.0  0.75000  0.75000  0.90281  1.0000
  Li  Li8       1.0  0.75022  0.25021  0.03219  1.0000
  Sb  Sb1       1.0  0.00001  0.00000  0.09671  1.0000
  Sb  Sb2       1.0  0.50000  0.50000  0.09671  1.0000
  Sb  Sb3       1.0  0.50000  0.00000  0.96760  1.0000
  Sb  Sb4       1.0  0.00000  0.50000  0.96760  1.0000
  Pd  Pd1       1.0  0.25047  0.24954  0.03245  1.0000
  Pd  Pd2       1.0  0.25000  0.75000  0.90281  1.0000
  Pd  Pd3       1.0  0.74954  0.75046  0.03245  1.0000
  Pd  Pd4       1.0  0.75000  0.25000  0.90281  1.0000
  C   C1        1.0  0.00000  0.50000  0.18880  1.0000
  O   O1        1.0  1.00000  0.50001  0.23460  1.0000
