# generated using pymatgen
data_Zr8Al24CO
_symmetry_space_group_name_H-M   'P 1'
_cell_length_a   8.19423000
_cell_length_b   8.19423000
_cell_length_c   26.14570000
_cell_angle_alpha   90.00000000
_cell_angle_beta   90.00000000
_cell_angle_gamma   90.00000000
_symmetry_Int_Tables_number   1
_chemical_formula_structural   Zr8Al24CO
_chemical_formula_sum   'Zr8 Al24 C1 O1'
_cell_volume   1755.56362317
_cell_formula_units_Z   1
loop_
 _symmetry_equiv_pos_site_id
 _symmetry_equiv_pos_as_xyz
  1  'x, y, z'
loop_
 _atom_site_type_symbol
 _atom_site_label
 _atom_site_symmetry_multiplicity
 _atom_site_fract_x
 _atom_site_fract_y
 _atom_site_fract_z
 _atom_site_occupancy
  Zr  Zr0  1  0.75000000  0.00000000  0.88247000  1.0
  Zr  Zr1  1  0.75000000  0.00000000  0.03918000  1.0
  Zr  Zr2  1  0.75000000  0.50000000  0.88247000  1.0
  Zr  Zr3  1  0.75000000  0.50000000  0.03918000  1.0
  Zr  Zr4  1  0.25000000  0.00000000  0.88247000  1.0
  Zr  Zr5  1  0.25000000  0.00000000  0.03918000  1.0
  Zr  Zr6  1  0.25000000  0.50000000  0.88247000  1.0
  Zr  Zr7  1  0.25000000  0.50000000  0.03918000  1.0
  Al  Al8  1  0.75000000  0.25000000  0.96082000  1.0
  Al  Al9  1  0.00000000  0.00000000  0.96082000  1.0
  Al  Al10  1  0.00000000  0.25000000  0.88247000  1.0
  Al  Al11  1  0.75000000  0.25000000  0.11753000  1.0
  Al  Al12  1  0.00000000  0.00000000  0.11753000  1.0
  Al  Al13  1  0.00000000  0.25000000  0.03918000  1.0
  Al  Al14  1  0.75000000  0.75000000  0.96082000  1.0
  Al  Al15  1  0.00000000  0.50000000  0.96082000  1.0
  Al  Al16  1  0.00000000  0.75000000  0.88247000  1.0
  Al  Al17  1  0.75000000  0.75000000  0.11753000  1.0
  Al  Al18  1  0.00000000  0.50000000  0.11753000  1.0
  Al  Al19  1  0.00000000  0.75000000  0.03918000  1.0
  Al  Al20  1  0.25000000  0.25000000  0.96082000  1.0
  Al  Al21  1  0.50000000  0.00000000  0.96082000  1.0
  Al  Al22  1  0.50000000  0.25000000  0.88247000  1.0
  Al  Al23  1  0.25000000  0.25000000  0.11753000  1.0
  Al  Al24  1  0.50000000  0.00000000  0.11753000  1.0
  Al  Al25  1  0.50000000  0.25000000  0.03918000  1.0
  Al  Al26  1  0.25000000  0.75000000  0.96082000  1.0
  Al  Al27  1  0.50000000  0.50000000  0.96082000  1.0
  Al  Al28  1  0.50000000  0.75000000  0.88247000  1.0
  Al  Al29  1  0.25000000  0.75000000  0.11753000  1.0
  Al  Al30  1  0.50000000  0.50000000  0.11753000  1.0
  Al  Al31  1  0.50000000  0.75000000  0.03918000  1.0
  C  C32  1  0.00000000  0.00000000  0.19020000  1.0
  O  O33  1  0.00000000  0.00000000  0.23418000  1.0
