# generated using pymatgen
data_Zr8Co16Sn8CO
_symmetry_space_group_name_H-M   Pm
_cell_length_a   8.92814000
_cell_length_b   6.31315000
_cell_length_c   26.69610000
_cell_angle_alpha   90.00000000
_cell_angle_beta   90.00000000
_cell_angle_gamma   90.00000000
_symmetry_Int_Tables_number   6
_chemical_formula_structural   Zr8Co16Sn8CO
_chemical_formula_sum   'Zr8 Co16 Sn8 C1 O1'
_cell_volume   1504.71732172
_cell_formula_units_Z   1
loop_
 _symmetry_equiv_pos_site_id
 _symmetry_equiv_pos_as_xyz
  1  'x, y, z'
  2  'x, -y, z'
loop_
 _atom_site_type_symbol
 _atom_site_label
 _atom_site_symmetry_multiplicity
 _atom_site_fract_x
 _atom_site_fract_y
 _atom_site_fract_z
 _atom_site_occupancy
  Zr  Zr0  1  0.00000000  0.00000000  0.87459000  1.0
  Zr  Zr1  1  0.25000000  0.50000000  0.12549000  1.0
  Zr  Zr2  1  0.25000000  0.50000000  0.95820000  1.0
  Zr  Zr3  1  0.50000000  0.00000000  0.87459000  1.0
  Zr  Zr4  1  0.50030000  0.00000000  0.04154000  1.0
  Zr  Zr5  1  0.74999000  0.50000000  0.12503000  1.0
  Zr  Zr6  1  0.75000000  0.50000000  0.95820000  1.0
  Zr  Zr7  1  0.99970000  0.00000000  0.04154000  1.0
  Co  Co8  2  0.00000000  0.25000000  0.95820000  1.0
  Co  Co9  2  0.00035000  0.23720000  0.11803000  1.0
  Co  Co10  2  0.24999000  0.25606000  0.04400000  1.0
  Co  Co11  2  0.25000000  0.25000000  0.87459000  1.0
  Co  Co12  2  0.49964000  0.23722000  0.11803000  1.0
  Co  Co13  2  0.50000000  0.25000000  0.95820000  1.0
  Co  Co14  2  0.75000000  0.25000000  0.87459000  1.0
  Co  Co15  2  0.75001000  0.25615000  0.04370000  1.0
  Sn  Sn16  1  0.00000000  0.50000000  0.87459000  1.0
  Sn  Sn17  1  0.00012000  0.50000000  0.04152000  1.0
  Sn  Sn18  1  0.24999000  0.00000000  0.13147000  1.0
  Sn  Sn19  1  0.25000000  0.00000000  0.95820000  1.0
  Sn  Sn20  1  0.49988000  0.50000000  0.04152000  1.0
  Sn  Sn21  1  0.50000000  0.50000000  0.87459000  1.0
  Sn  Sn22  1  0.75000000  0.00000000  0.95820000  1.0
  Sn  Sn23  1  0.75001000  0.00000000  0.13123000  1.0
  C  C24  1  0.25005000  0.00000000  0.28144000  1.0
  O  O25  1  0.25000000  0.00000000  0.32397000  1.0
