# generated using pymatgen
data_Zn16Cu8Au8C
_symmetry_space_group_name_H-M   'P 1'
_cell_length_a   6.22913000
_cell_length_b   8.80931000
_cell_length_c   26.60700000
_cell_angle_alpha   90.00000000
_cell_angle_beta   90.00000000
_cell_angle_gamma   90.00000000
_symmetry_Int_Tables_number   1
_chemical_formula_structural   Zn16Cu8Au8C
_chemical_formula_sum   'Zn16 Cu8 Au8 C1'
_cell_volume   1460.04148989
_cell_formula_units_Z   1
loop_
 _symmetry_equiv_pos_site_id
 _symmetry_equiv_pos_as_xyz
  1  'x, y, z'
loop_
 _atom_site_type_symbol
 _atom_site_label
 _atom_site_symmetry_multiplicity
 _atom_site_fract_x
 _atom_site_fract_y
 _atom_site_fract_z
 _atom_site_occupancy
  Zn  Zn0  1  0.25000000  0.00000000  0.95861000  1.0
  Zn  Zn1  1  0.75000000  0.50000000  0.95861000  1.0
  Zn  Zn2  1  0.75000000  0.00000000  0.95861000  1.0
  Zn  Zn3  1  0.25000000  0.50000000  0.95861000  1.0
  Zn  Zn4  1  0.75000000  0.75000000  0.87584000  1.0
  Zn  Zn5  1  0.25000000  0.25000000  0.87584000  1.0
  Zn  Zn6  1  0.25000000  0.75000000  0.87584000  1.0
  Zn  Zn7  1  0.75000000  0.25000000  0.87584000  1.0
  Zn  Zn8  1  0.24923000  0.50000000  0.13083000  1.0
  Zn  Zn9  1  0.69389000  0.00000000  0.14267000  1.0
  Zn  Zn10  1  0.75077000  0.50000000  0.13083000  1.0
  Zn  Zn11  1  0.30611000  0.00000000  0.14267000  1.0
  Zn  Zn12  1  0.75361000  0.24923000  0.04177000  1.0
  Zn  Zn13  1  0.24639000  0.75077000  0.04177000  1.0
  Zn  Zn14  1  0.24639000  0.24923000  0.04177000  1.0
  Zn  Zn15  1  0.75361000  0.75077000  0.04177000  1.0
  Cu  Cu16  1  0.00000000  0.00000000  0.87584000  1.0
  Cu  Cu17  1  0.50000000  0.25000000  0.95861000  1.0
  Cu  Cu18  1  0.50000000  0.75000000  0.95861000  1.0
  Cu  Cu19  1  0.00000000  0.50000000  0.87584000  1.0
  Cu  Cu20  1  0.00000000  0.50000000  0.04134000  1.0
  Cu  Cu21  1  0.50000000  0.73785000  0.12045000  1.0
  Cu  Cu22  1  0.50000000  0.26215000  0.12045000  1.0
  Cu  Cu23  1  0.00000000  0.00000000  0.04989000  1.0
  Au  Au24  1  0.00000000  0.75000000  0.95861000  1.0
  Au  Au25  1  0.50000000  0.00000000  0.87584000  1.0
  Au  Au26  1  0.00000000  0.25000000  0.95861000  1.0
  Au  Au27  1  0.50000000  0.50000000  0.87584000  1.0
  Au  Au28  1  0.00000000  0.25624000  0.12725000  1.0
  Au  Au29  1  0.50000000  0.50000000  0.04165000  1.0
  Au  Au30  1  0.00000000  0.74376000  0.12725000  1.0
  Au  Au31  1  0.50000000  0.00000000  0.04111000  1.0
  C  C32  1  0.00000000  0.00000000  0.12623000  1.0
