data_image0
_chemical_formula_structural       Li8Y8In8Ag8C
_chemical_formula_sum              "Li8 Y8 In8 Ag8 C1"
_cell_length_a       6.90709
_cell_length_b       9.7681
_cell_length_c       27.3261
_cell_angle_alpha    90
_cell_angle_beta     90
_cell_angle_gamma    90

_space_group_name_H-M_alt    "P 1"
_space_group_IT_number       1

loop_
  _space_group_symop_operation_xyz
  'x, y, z'

loop_
  _atom_site_type_symbol
  _atom_site_label
  _atom_site_symmetry_multiplicity
  _atom_site_fract_x
  _atom_site_fract_y
  _atom_site_fract_z
  _atom_site_occupancy
  Li  Li1       1.0  0.00000  0.25000  0.95532  1.0000
  Li  Li2       1.0  0.00000  0.75000  0.95532  1.0000
  Li  Li3       1.0  0.50000  0.50000  0.86595  1.0000
  Li  Li4       1.0  0.50000  0.00000  0.86595  1.0000
  Li  Li5       1.0  0.11663  0.71895  0.18412  1.0000
  Li  Li6       1.0  0.11663  0.28105  0.18413  1.0000
  Li  Li7       1.0  0.54019  0.00000  0.05034  1.0000
  Li  Li8       1.0  0.49139  0.50000  0.04451  1.0000
  Y   Y1        1.0  0.75000  0.00000  0.95532  1.0000
  Y   Y2        1.0  0.75000  0.50000  0.95532  1.0000
  Y   Y3        1.0  0.25000  0.25000  0.86595  1.0000
  Y   Y4        1.0  0.25000  0.75000  0.86595  1.0000
  Y   Y5        1.0  0.77365  0.49999  0.13115  1.0000
  Y   Y6        1.0  0.80530  0.00000  0.13712  1.0000
  Y   Y7        1.0  0.25001  0.76486  0.05257  1.0000
  Y   Y8        1.0  0.25001  0.23514  0.05257  1.0000
  In  In1       1.0  0.25000  0.00000  0.95532  1.0000
  In  In2       1.0  0.25000  0.50000  0.95532  1.0000
  In  In3       1.0  0.75000  0.25000  0.86595  1.0000
  In  In4       1.0  0.75000  0.75000  0.86595  1.0000
  In  In5       1.0  0.26272  0.49999  0.13351  1.0000
  In  In6       1.0  0.23512  0.00000  0.17089  1.0000
  In  In7       1.0  0.75475  0.74334  0.04486  1.0000
  In  In8       1.0  0.75475  0.25666  0.04486  1.0000
  Ag  Ag1       1.0  0.00000  0.00000  0.86595  1.0000
  Ag  Ag2       1.0  0.00000  0.50000  0.86595  1.0000
  Ag  Ag3       1.0  0.50000  0.75000  0.95532  1.0000
  Ag  Ag4       1.0  0.50000  0.25000  0.95532  1.0000
  Ag  Ag5       1.0  0.01849  0.50000  0.04267  1.0000
  Ag  Ag6       1.0  0.99073  0.00000  0.04083  1.0000
  Ag  Ag7       1.0  0.50896  0.24886  0.13901  1.0000
  Ag  Ag8       1.0  0.50897  0.75113  0.13901  1.0000
  C   C1        1.0  0.48876  0.99999  0.12547  1.0000
