# generated using pymatgen
data_Li8Ga8Cu8Pd8CO
_symmetry_space_group_name_H-M   'P 1'
_cell_length_a   8.52116000
_cell_length_b   6.02537000
_cell_length_c   26.39090000
_cell_angle_alpha   90.00000000
_cell_angle_beta   90.00000000
_cell_angle_gamma   90.00000000
_symmetry_Int_Tables_number   1
_chemical_formula_structural   Li8Ga8Cu8Pd8CO
_chemical_formula_sum   'Li8 Ga8 Cu8 Pd8 C1 O1'
_cell_volume   1354.99172170
_cell_formula_units_Z   1
loop_
 _symmetry_equiv_pos_site_id
 _symmetry_equiv_pos_as_xyz
  1  'x, y, z'
loop_
 _atom_site_type_symbol
 _atom_site_label
 _atom_site_symmetry_multiplicity
 _atom_site_fract_x
 _atom_site_fract_y
 _atom_site_fract_z
 _atom_site_occupancy
  Li  Li0  1  0.75000000  0.25000000  0.04036000  1.0
  Li  Li1  1  0.25000000  0.25000000  0.04036000  1.0
  Li  Li2  1  0.00000000  0.75000000  0.12108000  1.0
  Li  Li3  1  0.50000000  0.75000000  0.12108000  1.0
  Li  Li4  1  0.25446000  0.25233000  0.86863000  1.0
  Li  Li5  1  0.74554000  0.25233000  0.86863000  1.0
  Li  Li6  1  0.50000000  0.75276000  0.96377000  1.0
  Li  Li7  1  0.00000000  0.75097000  0.96193000  1.0
  Ga  Ga8  1  0.75000000  0.75000000  0.04036000  1.0
  Ga  Ga9  1  0.25000000  0.75000000  0.04036000  1.0
  Ga  Ga10  1  0.00000000  0.25000000  0.12108000  1.0
  Ga  Ga11  1  0.50000000  0.25000000  0.12108000  1.0
  Ga  Ga12  1  0.25130000  0.75817000  0.87644000  1.0
  Ga  Ga13  1  0.74870000  0.75817000  0.87644000  1.0
  Ga  Ga14  1  0.50000000  0.25678000  0.96002000  1.0
  Ga  Ga15  1  0.00000000  0.25354000  0.96020000  1.0
  Cu  Cu16  1  0.75000000  0.00000000  0.12108000  1.0
  Cu  Cu17  1  0.25000000  0.00000000  0.12108000  1.0
  Cu  Cu18  1  0.50000000  0.50000000  0.04036000  1.0
  Cu  Cu19  1  0.00000000  0.50000000  0.04036000  1.0
  Cu  Cu20  1  0.24971000  0.00809000  0.95933000  1.0
  Cu  Cu21  1  0.75029000  0.00809000  0.95933000  1.0
  Cu  Cu22  1  0.00000000  0.51548000  0.88039000  1.0
  Cu  Cu23  1  0.50000000  0.52691000  0.88546000  1.0
  Pd  Pd24  1  0.00000000  0.00000000  0.04036000  1.0
  Pd  Pd25  1  0.50000000  1.00000000  0.04036000  1.0
  Pd  Pd26  1  0.25000000  0.50000000  0.12108000  1.0
  Pd  Pd27  1  0.75000000  0.50000000  0.12108000  1.0
  Pd  Pd28  1  0.50000000  0.98968000  0.88543000  1.0
  Pd  Pd29  1  0.00000000  0.98670000  0.88452000  1.0
  Pd  Pd30  1  0.75317000  0.50093000  0.95714000  1.0
  Pd  Pd31  1  0.24683000  0.50093000  0.95714000  1.0
  C  C32  1  0.00000000  0.39197000  0.81538000  1.0
  O  O33  1  0.00000000  0.35255000  0.77239000  1.0
