# generated using pymatgen
data_Li8Ga8Cu8Pd8CO
_symmetry_space_group_name_H-M   Pm
_cell_length_a   6.02537000
_cell_length_b   8.52116000
_cell_length_c   26.39090000
_cell_angle_alpha   90.00000000
_cell_angle_beta   90.00000000
_cell_angle_gamma   90.00000000
_symmetry_Int_Tables_number   6
_chemical_formula_structural   Li8Ga8Cu8Pd8CO
_chemical_formula_sum   'Li8 Ga8 Cu8 Pd8 C1 O1'
_cell_volume   1354.99172170
_cell_formula_units_Z   1
loop_
 _symmetry_equiv_pos_site_id
 _symmetry_equiv_pos_as_xyz
  1  'x, y, z'
  2  'x, -y, z'
loop_
 _atom_site_type_symbol
 _atom_site_label
 _atom_site_symmetry_multiplicity
 _atom_site_fract_x
 _atom_site_fract_y
 _atom_site_fract_z
 _atom_site_occupancy
  Li  Li0  2  0.25000000  0.25000000  0.95964000  1.0
  Li  Li1  2  0.25233000  0.25446000  0.13137000  1.0
  Li  Li2  1  0.75000000  0.00000000  0.87892000  1.0
  Li  Li3  1  0.75000000  0.50000000  0.87892000  1.0
  Li  Li4  1  0.75097000  0.00000000  0.03807000  1.0
  Li  Li5  1  0.75276000  0.50000000  0.03623000  1.0
  Ga  Ga6  2  0.75000000  0.25000000  0.95964000  1.0
  Ga  Ga7  2  0.75817000  0.25130000  0.12356000  1.0
  Ga  Ga8  1  0.25000000  0.00000000  0.87892000  1.0
  Ga  Ga9  1  0.25000000  0.50000000  0.87892000  1.0
  Ga  Ga10  1  0.25354000  0.00000000  0.03980000  1.0
  Ga  Ga11  1  0.25678000  0.50000000  0.03998000  1.0
  Cu  Cu12  2  0.00000000  0.25000000  0.87892000  1.0
  Cu  Cu13  2  0.00809000  0.24971000  0.04067000  1.0
  Cu  Cu14  1  0.50000000  0.00000000  0.95964000  1.0
  Cu  Cu15  1  0.50000000  0.50000000  0.95964000  1.0
  Cu  Cu16  1  0.51548000  0.00000000  0.11961000  1.0
  Cu  Cu17  1  0.52691000  0.50000000  0.11454000  1.0
  Pd  Pd18  2  0.50000000  0.25000000  0.87892000  1.0
  Pd  Pd19  2  0.50093000  0.24683000  0.04286000  1.0
  Pd  Pd20  1  -0.00000000  0.50000000  0.95964000  1.0
  Pd  Pd21  1  0.00000000  0.00000000  0.95964000  1.0
  Pd  Pd22  1  0.98670000  0.00000000  0.11548000  1.0
  Pd  Pd23  1  0.98968000  0.50000000  0.11457000  1.0
  C  C24  1  0.39197000  0.00000000  0.18462000  1.0
  O  O25  1  0.35255000  0.00000000  0.22761000  1.0
