# generated using pymatgen
data_V8Sn8Rh16C
_symmetry_space_group_name_H-M   Pm
_cell_length_a   8.94473000
_cell_length_b   6.32488000
_cell_length_c   26.70850000
_cell_angle_alpha   90.00000000
_cell_angle_beta   90.00000000
_cell_angle_gamma   90.00000000
_symmetry_Int_Tables_number   6
_chemical_formula_structural   V8Sn8Rh16C
_chemical_formula_sum   'V8 Sn8 Rh16 C1'
_cell_volume   1511.01586358
_cell_formula_units_Z   1
loop_
 _symmetry_equiv_pos_site_id
 _symmetry_equiv_pos_as_xyz
  1  'x, y, z'
  2  'x, -y, z'
loop_
 _atom_site_type_symbol
 _atom_site_label
 _atom_site_symmetry_multiplicity
 _atom_site_fract_x
 _atom_site_fract_y
 _atom_site_fract_z
 _atom_site_occupancy
  V  V0  1  0.00000000  0.00000000  0.87441000  1.0
  V  V1  1  0.24654000  0.50000000  0.11637000  1.0
  V  V2  1  0.25000000  0.50000000  0.95814000  1.0
  V  V3  1  0.50000000  0.00000000  0.87441000  1.0
  V  V4  1  0.50013000  0.00000000  0.04569000  1.0
  V  V5  1  0.75000000  0.50000000  0.95814000  1.0
  V  V6  1  0.75343000  0.50000000  0.11638000  1.0
  V  V7  1  0.99992000  0.00000000  0.05541000  1.0
  Sn  Sn8  1  0.00000000  0.50000000  0.87441000  1.0
  Sn  Sn9  1  0.00004000  0.50000000  0.04008000  1.0
  Sn  Sn10  1  0.25000000  0.00000000  0.95814000  1.0
  Sn  Sn11  1  0.26796000  0.00000000  0.14492000  1.0
  Sn  Sn12  1  0.49988000  0.50000000  0.03743000  1.0
  Sn  Sn13  1  0.50000000  0.50000000  0.87441000  1.0
  Sn  Sn14  1  0.73188000  0.00000000  0.14498000  1.0
  Sn  Sn15  1  0.75000000  0.00000000  0.95814000  1.0
  Rh  Rh16  2  0.00000000  0.25000000  0.95814000  1.0
  Rh  Rh17  2  0.25000000  0.25000000  0.87441000  1.0
  Rh  Rh18  2  0.25153000  0.22971000  0.04581000  1.0
  Rh  Rh19  2  0.50000000  0.25000000  0.95814000  1.0
  Rh  Rh20  2  0.50006000  0.26919000  0.11918000  1.0
  Rh  Rh21  2  0.74850000  0.22965000  0.04592000  1.0
  Rh  Rh22  2  0.75000000  0.25000000  0.87441000  1.0
  Rh  Rh23  2  0.99987000  0.29542000  0.12914000  1.0
  C  C24  1  0.99989000  0.00000000  0.13025000  1.0
