# generated using pymatgen
data_Li16Ge8Au8C
_symmetry_space_group_name_H-M   'P 1'
_cell_length_a   8.92302000
_cell_length_b   6.30953000
_cell_length_c   26.69230000
_cell_angle_alpha   90.00000000
_cell_angle_beta   90.00000000
_cell_angle_gamma   90.00000000
_symmetry_Int_Tables_number   1
_chemical_formula_structural   Li16Ge8Au8C
_chemical_formula_sum   'Li16 Ge8 Au8 C1'
_cell_volume   1502.77815508
_cell_formula_units_Z   1
loop_
 _symmetry_equiv_pos_site_id
 _symmetry_equiv_pos_as_xyz
  1  'x, y, z'
loop_
 _atom_site_type_symbol
 _atom_site_label
 _atom_site_symmetry_multiplicity
 _atom_site_fract_x
 _atom_site_fract_y
 _atom_site_fract_z
 _atom_site_occupancy
  Li  Li0  1  0.25002000  1.00000000  0.04179000  1.0
  Li  Li1  1  0.50000000  0.50000000  0.12536000  1.0
  Li  Li2  1  0.74998000  1.00000000  0.04179000  1.0
  Li  Li3  1  0.00000000  0.50000000  0.12536000  1.0
  Li  Li4  1  0.75002000  0.25000000  0.12536000  1.0
  Li  Li5  1  0.24998000  0.25000000  0.12536000  1.0
  Li  Li6  1  0.00000000  0.75000000  0.04179000  1.0
  Li  Li7  1  0.50000000  0.75000000  0.04179000  1.0
  Li  Li8  1  0.73545000  0.02328000  0.87014000  1.0
  Li  Li9  1  0.00000000  0.49333000  0.96144000  1.0
  Li  Li10  1  0.26455000  0.02328000  0.87014000  1.0
  Li  Li11  1  0.50000000  0.51607000  0.95897000  1.0
  Li  Li12  1  0.26113000  0.25992000  0.95185000  1.0
  Li  Li13  1  0.73887000  0.25992000  0.95185000  1.0
  Li  Li14  1  0.50000000  0.74934000  0.85641000  1.0
  Li  Li15  1  0.00000000  0.74846000  0.87222000  1.0
  Ge  Ge16  1  0.50000000  0.00000000  0.12536000  1.0
  Ge  Ge17  1  0.75002000  0.50000000  0.04179000  1.0
  Ge  Ge18  1  0.24998000  0.50000000  0.04179000  1.0
  Ge  Ge19  1  0.00000000  1.00000000  0.12536000  1.0
  Ge  Ge20  1  0.00000000  0.00922000  0.95707000  1.0
  Ge  Ge21  1  0.23950000  0.51849000  0.86409000  1.0
  Ge  Ge22  1  0.76050000  0.51849000  0.86409000  1.0
  Ge  Ge23  1  0.50000000  0.96057000  0.96283000  1.0
  Au  Au24  1  0.50000000  0.25000000  0.04179000  1.0
  Au  Au25  1  0.00000000  0.25000000  0.04179000  1.0
  Au  Au26  1  0.25002000  0.75000000  0.12536000  1.0
  Au  Au27  1  0.74998000  0.75000000  0.12536000  1.0
  Au  Au28  1  0.00000000  0.26783000  0.88009000  1.0
  Au  Au29  1  0.50000000  0.34088000  0.86907000  1.0
  Au  Au30  1  0.76378000  0.73003000  0.95350000  1.0
  Au  Au31  1  0.23622000  0.73003000  0.95350000  1.0
  C  C32  1  0.50000000  0.03493000  0.89434000  1.0
