# generated using pymatgen
data_Al4Cr4Fe8C
_symmetry_space_group_name_H-M   'P 1'
_cell_length_a   6.50665000
_cell_length_b   6.50665000
_cell_length_c   24.88000000
_cell_angle_alpha   90.00000000
_cell_angle_beta   90.00000000
_cell_angle_gamma   90.00000000
_symmetry_Int_Tables_number   1
_chemical_formula_structural   Al4Cr4Fe8C
_chemical_formula_sum   'Al4 Cr4 Fe8 C1'
_cell_volume   1053.33197626
_cell_formula_units_Z   1
loop_
 _symmetry_equiv_pos_site_id
 _symmetry_equiv_pos_as_xyz
  1  'x, y, z'
loop_
 _atom_site_type_symbol
 _atom_site_label
 _atom_site_symmetry_multiplicity
 _atom_site_fract_x
 _atom_site_fract_y
 _atom_site_fract_z
 _atom_site_occupancy
  Al  Al0  1  0.00000000  0.50000000  0.90193000  1.0
  Al  Al1  1  0.50000000  0.00000000  0.90193000  1.0
  Al  Al2  1  0.50000000  0.50000000  0.03269000  1.0
  Al  Al3  1  0.00000000  0.00000000  0.03269000  1.0
  Cr  Cr4  1  0.00000000  0.50000000  0.03269000  1.0
  Cr  Cr5  1  0.50000000  0.50000000  0.90193000  1.0
  Cr  Cr6  1  0.00000000  0.00000000  0.90193000  1.0
  Cr  Cr7  1  0.50000000  0.00000000  0.03269000  1.0
  Fe  Fe8  1  0.25000000  0.75000000  0.96731000  1.0
  Fe  Fe9  1  0.75000000  0.25000000  0.09807000  1.0
  Fe  Fe10  1  0.75000000  0.75000000  0.96731000  1.0
  Fe  Fe11  1  0.25000000  0.25000000  0.09807000  1.0
  Fe  Fe12  1  0.75000000  0.25000000  0.96731000  1.0
  Fe  Fe13  1  0.25000000  0.75000000  0.09807000  1.0
  Fe  Fe14  1  0.25000000  0.25000000  0.96731000  1.0
  Fe  Fe15  1  0.75000000  0.75000000  0.09807000  1.0
  C  C16  1  0.00000000  0.00000000  0.13022000  1.0
