data_image0
_chemical_formula_structural       Sc16Ru16CO
_chemical_formula_sum              "Sc16 Ru16 C1 O1"
_cell_length_a       6.43815
_cell_length_b       9.10491
_cell_length_c       26.8287
_cell_angle_alpha    90
_cell_angle_beta     90
_cell_angle_gamma    90

_space_group_name_H-M_alt    "P 1"
_space_group_IT_number       1

loop_
  _space_group_symop_operation_xyz
  'x, y, z'

loop_
  _atom_site_type_symbol
  _atom_site_label
  _atom_site_symmetry_multiplicity
  _atom_site_fract_x
  _atom_site_fract_y
  _atom_site_fract_z
  _atom_site_occupancy
  Sc  Sc1       1.0  0.25000  0.25000  0.87274  1.0000
  Sc  Sc2       1.0  0.25000  0.00000  0.95758  1.0000
  Sc  Sc3       1.0  0.25000  0.25000  0.04242  1.0000
  Sc  Sc4       1.0  0.25000  0.00000  0.12726  1.0000
  Sc  Sc5       1.0  0.25000  0.75000  0.87274  1.0000
  Sc  Sc6       1.0  0.25000  0.50000  0.95758  1.0000
  Sc  Sc7       1.0  0.25000  0.75000  0.04242  1.0000
  Sc  Sc8       1.0  0.25000  0.50000  0.12726  1.0000
  Sc  Sc9       1.0  0.75000  0.25000  0.87274  1.0000
  Sc  Sc10      1.0  0.75000  0.00000  0.95758  1.0000
  Sc  Sc11      1.0  0.75000  0.25000  0.04242  1.0000
  Sc  Sc12      1.0  0.75000  0.00000  0.12726  1.0000
  Sc  Sc13      1.0  0.75000  0.75000  0.87274  1.0000
  Sc  Sc14      1.0  0.75000  0.50000  0.95758  1.0000
  Sc  Sc15      1.0  0.75000  0.75000  0.04242  1.0000
  Sc  Sc16      1.0  0.75000  0.50000  0.12726  1.0000
  Ru  Ru1       1.0  0.00000  0.00000  0.87274  1.0000
  Ru  Ru2       1.0  0.00000  0.25000  0.95758  1.0000
  Ru  Ru3       1.0  0.00000  0.00000  0.04242  1.0000
  Ru  Ru4       1.0  0.00000  0.25000  0.12726  1.0000
  Ru  Ru5       1.0  0.00000  0.50000  0.87274  1.0000
  Ru  Ru6       1.0  0.00000  0.75000  0.95758  1.0000
  Ru  Ru7       1.0  0.00000  0.50000  0.04242  1.0000
  Ru  Ru8       1.0  0.00000  0.75000  0.12726  1.0000
  Ru  Ru9       1.0  0.50000  0.00000  0.87274  1.0000
  Ru  Ru10      1.0  0.50000  0.25000  0.95758  1.0000
  Ru  Ru11      1.0  0.50000  0.00000  0.04242  1.0000
  Ru  Ru12      1.0  0.50000  0.25000  0.12726  1.0000
  Ru  Ru13      1.0  0.50000  0.50000  0.87274  1.0000
  Ru  Ru14      1.0  0.50000  0.75000  0.95758  1.0000
  Ru  Ru15      1.0  0.50000  0.50000  0.04242  1.0000
  Ru  Ru16      1.0  0.50000  0.75000  0.12726  1.0000
  C   C1        1.0  0.25000  0.00000  0.19808  1.0000
  O   O1        1.0  0.25000  0.00000  0.24095  1.0000
