# generated using pymatgen
data_Li8Y8Sn8Ge8C
_symmetry_space_group_name_H-M   Pmm2
_cell_length_a   8.60818000
_cell_length_b   9.43388000
_cell_length_c   26.39560000
_cell_angle_alpha   90.00000000
_cell_angle_beta   90.00000000
_cell_angle_gamma   90.00000000
_symmetry_Int_Tables_number   25
_chemical_formula_structural   Li8Y8Sn8Ge8C
_chemical_formula_sum   'Li8 Y8 Sn8 Ge8 C1'
_cell_volume   2143.54806289
_cell_formula_units_Z   1
loop_
 _symmetry_equiv_pos_site_id
 _symmetry_equiv_pos_as_xyz
  1  'x, y, z'
  2  '-x, -y, z'
  3  '-x, y, z'
  4  'x, -y, z'
loop_
 _atom_site_type_symbol
 _atom_site_label
 _atom_site_symmetry_multiplicity
 _atom_site_fract_x
 _atom_site_fract_y
 _atom_site_fract_z
 _atom_site_occupancy
  Li  Li0  4  0.25000000  0.24996000  0.12115000  1.0
  Li  Li1  4  0.25019000  0.24737000  0.94789000  1.0
  Y  Y2  1  0.00000000  0.00000000  0.12115000  1.0
  Y  Y3  1  0.00000000  0.00000000  0.96304000  1.0
  Y  Y4  1  0.00000000  0.50000000  0.12115000  1.0
  Y  Y5  1  0.00000000  0.50000000  0.96668000  1.0
  Y  Y6  1  0.50000000  0.00000000  0.12115000  1.0
  Y  Y7  1  0.50000000  0.00000000  0.96507000  1.0
  Y  Y8  1  0.50000000  0.50000000  0.12115000  1.0
  Y  Y9  1  0.50000000  0.50000000  0.95593000  1.0
  Sn  Sn10  2  0.00000000  0.21365000  0.85323000  1.0
  Sn  Sn11  2  0.00000000  0.24996000  0.04038000  1.0
  Sn  Sn12  2  0.50000000  0.19299000  0.85653000  1.0
  Sn  Sn13  2  0.50000000  0.24996000  0.04038000  1.0
  Ge  Ge14  2  0.22227000  0.50000000  0.87658000  1.0
  Ge  Ge15  2  0.24851000  0.00000000  0.88568000  1.0
  Ge  Ge16  2  0.25000000  0.00000000  0.04038000  1.0
  Ge  Ge17  2  0.25000000  0.50000000  0.04038000  1.0
  C  C18  1  0.00000000  0.50000000  0.87680000  1.0
