data_image0
_chemical_formula_structural       Li4In4Ge4Au4C
_chemical_formula_sum              "Li4 In4 Ge4 Au4 C1"
_cell_length_a       6.00109
_cell_length_b       8.46544
_cell_length_c       24.4998
_cell_angle_alpha    90
_cell_angle_beta     90
_cell_angle_gamma    90

_space_group_name_H-M_alt    "P 1"
_space_group_IT_number       1

loop_
  _space_group_symop_operation_xyz
  'x, y, z'

loop_
  _atom_site_type_symbol
  _atom_site_label
  _atom_site_symmetry_multiplicity
  _atom_site_fract_x
  _atom_site_fract_y
  _atom_site_fract_z
  _atom_site_occupancy
  Li  Li1       1.0  0.24257  0.24998  0.02171  1.0000
  Li  Li2       1.0  0.73381  0.25000  0.90817  1.0000
  Li  Li3       1.0  0.31093  0.75000  0.03786  1.0000
  Li  Li4       1.0  0.73381  0.75000  0.90817  1.0000
  In  In1       1.0  0.51822  0.04367  0.11876  1.0000
  In  In2       1.0  0.98920  0.00000  0.96939  1.0000
  In  In3       1.0  0.51833  0.45637  0.11872  1.0000
  In  In4       1.0  0.98920  0.50000  0.96939  1.0000
  Ge  Ge1       1.0  0.68903  0.24996  0.02508  1.0000
  Ge  Ge2       1.0  0.23381  0.25000  0.90817  1.0000
  Ge  Ge3       1.0  0.81115  0.74985  0.06203  1.0000
  Ge  Ge4       1.0  0.23381  0.75000  0.90817  1.0000
  Au  Au1       1.0  0.04703  0.03042  0.08739  1.0000
  Au  Au2       1.0  0.48920  0.00000  0.96939  1.0000
  Au  Au3       1.0  0.04707  0.46955  0.08740  1.0000
  Au  Au4       1.0  0.48920  0.50000  0.96939  1.0000
  C   C1        1.0  0.24656  0.25003  0.10809  1.0000
