# generated using pymatgen
data_Li24Sb8C
_symmetry_space_group_name_H-M   'P 1'
_cell_length_a   6.56971000
_cell_length_b   9.29097000
_cell_length_c   26.96820000
_cell_angle_alpha   90.00000000
_cell_angle_beta   90.00000000
_cell_angle_gamma   90.00000000
_symmetry_Int_Tables_number   1
_chemical_formula_structural   Li24Sb8C
_chemical_formula_sum   'Li24 Sb8 C1'
_cell_volume   1646.11138049
_cell_formula_units_Z   1
loop_
 _symmetry_equiv_pos_site_id
 _symmetry_equiv_pos_as_xyz
  1  'x, y, z'
loop_
 _atom_site_type_symbol
 _atom_site_label
 _atom_site_symmetry_multiplicity
 _atom_site_fract_x
 _atom_site_fract_y
 _atom_site_fract_z
 _atom_site_occupancy
  Li  Li0  1  0.75001000  0.00000000  0.95694000  1.0
  Li  Li1  1  0.25001000  0.50000000  0.95694000  1.0
  Li  Li2  1  0.24999000  0.00000000  0.95694000  1.0
  Li  Li3  1  0.74999000  0.50000000  0.95694000  1.0
  Li  Li4  1  0.25001000  0.75000000  0.87081000  1.0
  Li  Li5  1  0.74999000  0.25000000  0.87081000  1.0
  Li  Li6  1  0.74999000  0.75000000  0.87081000  1.0
  Li  Li7  1  0.25001000  0.25000000  0.87081000  1.0
  Li  Li8  1  0.50000000  0.75000000  0.95694000  1.0
  Li  Li9  1  0.00000000  0.00000000  0.87081000  1.0
  Li  Li10  1  0.50000000  0.25000000  0.95694000  1.0
  Li  Li11  1  0.00000000  0.50000000  0.87081000  1.0
  Li  Li12  1  0.78018000  0.50000000  0.13110000  1.0
  Li  Li13  1  0.21831000  0.00000000  0.15171000  1.0
  Li  Li14  1  0.21982000  0.50000000  0.13110000  1.0
  Li  Li15  1  0.78169000  0.00000000  0.15171000  1.0
  Li  Li16  1  0.24339000  0.25226000  0.04355000  1.0
  Li  Li17  1  0.75661000  0.74774000  0.04355000  1.0
  Li  Li18  1  0.75661000  0.25226000  0.04355000  1.0
  Li  Li19  1  0.24339000  0.74774000  0.04355000  1.0
  Li  Li20  1  0.50000000  0.22522000  0.12717000  1.0
  Li  Li21  1  0.00000000  0.50000000  0.04471000  1.0
  Li  Li22  1  0.50000000  0.77478000  0.12717000  1.0
  Li  Li23  1  0.00000000  0.00000000  0.06046000  1.0
  Sb  Sb24  1  0.50000000  0.00000000  0.87081000  1.0
  Sb  Sb25  1  0.00000000  0.25000000  0.95694000  1.0
  Sb  Sb26  1  0.00000000  0.75000000  0.95694000  1.0
  Sb  Sb27  1  0.50000000  0.50000000  0.87081000  1.0
  Sb  Sb28  1  0.50000000  0.50000000  0.04898000  1.0
  Sb  Sb29  1  0.00000000  0.75111000  0.12919000  1.0
  Sb  Sb30  1  0.00000000  0.24889000  0.12919000  1.0
  Sb  Sb31  1  0.50000000  0.00000000  0.03962000  1.0
  C  C32  1  0.50000000  0.00000000  0.11801000  1.0
