# generated using pymatgen
data_Li24Sb8C
_symmetry_space_group_name_H-M   Pmm2
_cell_length_a   6.56971000
_cell_length_b   9.29097000
_cell_length_c   26.96820000
_cell_angle_alpha   90.00000000
_cell_angle_beta   90.00000000
_cell_angle_gamma   90.00000000
_symmetry_Int_Tables_number   25
_chemical_formula_structural   Li24Sb8C
_chemical_formula_sum   'Li24 Sb8 C1'
_cell_volume   1646.11138049
_cell_formula_units_Z   1
loop_
 _symmetry_equiv_pos_site_id
 _symmetry_equiv_pos_as_xyz
  1  'x, y, z'
  2  '-x, -y, z'
  3  '-x, y, z'
  4  'x, -y, z'
loop_
 _atom_site_type_symbol
 _atom_site_label
 _atom_site_symmetry_multiplicity
 _atom_site_fract_x
 _atom_site_fract_y
 _atom_site_fract_z
 _atom_site_occupancy
  Li  Li0  4  0.24339000  0.25226000  0.04355000  1.0
  Li  Li1  4  0.25001000  0.25000000  0.87081000  1.0
  Li  Li2  2  0.21831000  0.00000000  0.15171000  1.0
  Li  Li3  2  0.21982000  0.50000000  0.13110000  1.0
  Li  Li4  2  0.24999000  0.00000000  0.95694000  1.0
  Li  Li5  2  0.25001000  0.50000000  0.95694000  1.0
  Li  Li6  2  0.50000000  0.22522000  0.12717000  1.0
  Li  Li7  2  0.50000000  0.25000000  0.95694000  1.0
  Li  Li8  1  0.00000000  0.00000000  0.06046000  1.0
  Li  Li9  1  0.00000000  0.00000000  0.87081000  1.0
  Li  Li10  1  0.00000000  0.50000000  0.04471000  1.0
  Li  Li11  1  0.00000000  0.50000000  0.87081000  1.0
  Sb  Sb12  2  0.00000000  0.24889000  0.12919000  1.0
  Sb  Sb13  2  0.00000000  0.25000000  0.95694000  1.0
  Sb  Sb14  1  0.50000000  0.00000000  0.03962000  1.0
  Sb  Sb15  1  0.50000000  0.00000000  0.87081000  1.0
  Sb  Sb16  1  0.50000000  0.50000000  0.04898000  1.0
  Sb  Sb17  1  0.50000000  0.50000000  0.87081000  1.0
  C  C18  1  0.50000000  0.00000000  0.11801000  1.0
