data_image0
_chemical_formula_structural       Li4Mg4In4Ge4CO
_chemical_formula_sum              "Li4 Mg4 In4 Ge4 C1 O1"
_cell_length_a       6.07136
_cell_length_b       8.40992
_cell_length_c       24.5501
_cell_angle_alpha    90
_cell_angle_beta     90
_cell_angle_gamma    90

_space_group_name_H-M_alt    "P 1"
_space_group_IT_number       1

loop_
  _space_group_symop_operation_xyz
  'x, y, z'

loop_
  _atom_site_type_symbol
  _atom_site_label
  _atom_site_symmetry_multiplicity
  _atom_site_fract_x
  _atom_site_fract_y
  _atom_site_fract_z
  _atom_site_occupancy
  Li  Li1       1.0  0.76855  0.25434  0.03911  1.0000
  Li  Li2       1.0  0.22099  0.25000  0.90733  1.0000
  Li  Li3       1.0  0.76858  0.74567  0.03911  1.0000
  Li  Li4       1.0  0.22099  0.75000  0.90733  1.0000
  Mg  Mg1       1.0  0.26218  0.25045  0.03403  1.0000
  Mg  Mg2       1.0  0.72099  0.25000  0.90733  1.0000
  Mg  Mg3       1.0  0.26221  0.74954  0.03401  1.0000
  Mg  Mg4       1.0  0.72099  0.75000  0.90733  1.0000
  In  In1       1.0  0.52889  0.99999  0.09688  1.0000
  In  In2       1.0  0.98066  0.00000  0.96911  1.0000
  In  In3       1.0  0.51936  0.50002  0.10334  1.0000
  In  In4       1.0  0.98066  0.50000  0.96911  1.0000
  Ge  Ge1       1.0  0.02397  0.99997  0.08669  1.0000
  Ge  Ge2       1.0  0.48066  0.00000  0.96911  1.0000
  Ge  Ge3       1.0  0.02385  0.50002  0.08664  1.0000
  Ge  Ge4       1.0  0.48066  0.50000  0.96911  1.0000
  C   C1        1.0  0.50282  0.99999  0.25060  1.0000
  O   O1        1.0  0.49028  0.00004  0.29673  1.0000
