# generated using pymatgen
data_Li4Mg4In4Ge4CO
_symmetry_space_group_name_H-M   'P 1'
_cell_length_a   8.40992000
_cell_length_b   6.07136000
_cell_length_c   24.55010000
_cell_angle_alpha   90.00000000
_cell_angle_beta   90.00000000
_cell_angle_gamma   90.00000000
_symmetry_Int_Tables_number   1
_chemical_formula_structural   Li4Mg4In4Ge4CO
_chemical_formula_sum   'Li4 Mg4 In4 Ge4 C1 O1'
_cell_volume   1253.51955989
_cell_formula_units_Z   1
loop_
 _symmetry_equiv_pos_site_id
 _symmetry_equiv_pos_as_xyz
  1  'x, y, z'
loop_
 _atom_site_type_symbol
 _atom_site_label
 _atom_site_symmetry_multiplicity
 _atom_site_fract_x
 _atom_site_fract_y
 _atom_site_fract_z
 _atom_site_occupancy
  Li  Li0  1  0.75435000  0.76855000  0.96089000  1.0
  Li  Li1  1  0.75001000  0.22099000  0.09267000  1.0
  Li  Li2  1  0.24565000  0.76855000  0.96089000  1.0
  Li  Li3  1  0.24999000  0.22099000  0.09267000  1.0
  Mg  Mg4  1  0.75046000  0.26218000  0.96597000  1.0
  Mg  Mg5  1  0.75001000  0.72099000  0.09267000  1.0
  Mg  Mg6  1  0.24954000  0.26218000  0.96597000  1.0
  Mg  Mg7  1  0.24999000  0.72099000  0.09267000  1.0
  In  In8  1  0.50000000  0.52889000  0.90312000  1.0
  In  In9  1  0.50000000  0.98066000  0.03089000  1.0
  In  In10  1  0.00000000  0.51936000  0.89666000  1.0
  In  In11  1  0.00000000  0.98066000  0.03089000  1.0
  Ge  Ge12  1  0.50000000  0.02397000  0.91331000  1.0
  Ge  Ge13  1  0.50000000  0.48066000  0.03089000  1.0
  Ge  Ge14  1  0.00000000  0.02385000  0.91336000  1.0
  Ge  Ge15  1  0.00000000  0.48066000  0.03089000  1.0
  C  C16  1  0.50000000  0.50282000  0.74940000  1.0
  O  O17  1  0.50000000  0.49028000  0.70327000  1.0
