# generated using pymatgen
data_Li4Mg4In4Ge4CO
_symmetry_space_group_name_H-M   Pm
_cell_length_a   6.07136000
_cell_length_b   8.40992000
_cell_length_c   24.55010000
_cell_angle_alpha   90.00000000
_cell_angle_beta   90.00000000
_cell_angle_gamma   90.00000000
_symmetry_Int_Tables_number   6
_chemical_formula_structural   Li4Mg4In4Ge4CO
_chemical_formula_sum   'Li4 Mg4 In4 Ge4 C1 O1'
_cell_volume   1253.51955989
_cell_formula_units_Z   1
loop_
 _symmetry_equiv_pos_site_id
 _symmetry_equiv_pos_as_xyz
  1  'x, y, z'
  2  'x, -y, z'
loop_
 _atom_site_type_symbol
 _atom_site_label
 _atom_site_symmetry_multiplicity
 _atom_site_fract_x
 _atom_site_fract_y
 _atom_site_fract_z
 _atom_site_occupancy
  Li  Li0  2  0.22099000  0.24999000  0.90733000  1.0
  Li  Li1  2  0.76855000  0.24565000  0.03911000  1.0
  Mg  Mg2  2  0.26218000  0.24954000  0.03403000  1.0
  Mg  Mg3  2  0.72099000  0.24999000  0.90733000  1.0
  In  In4  1  0.51936000  0.00000000  0.10334000  1.0
  In  In5  1  0.52889000  0.50000000  0.09688000  1.0
  In  In6  1  0.98066000  0.00000000  0.96911000  1.0
  In  In7  1  0.98066000  0.50000000  0.96911000  1.0
  Ge  Ge8  1  0.02385000  0.00000000  0.08664000  1.0
  Ge  Ge9  1  0.02397000  0.50000000  0.08669000  1.0
  Ge  Ge10  1  0.48066000  0.00000000  0.96911000  1.0
  Ge  Ge11  1  0.48066000  0.50000000  0.96911000  1.0
  C  C12  1  0.50282000  0.50000000  0.25060000  1.0
  O  O13  1  0.49028000  0.50000000  0.29673000  1.0
