data_image0
_chemical_formula_structural       Li8Mg8In8Cu8CO
_chemical_formula_sum              "Li8 Mg8 In8 Cu8 C1 O1"
_cell_length_a       6.43808
_cell_length_b       9.10482
_cell_length_c       26.8286
_cell_angle_alpha    90
_cell_angle_beta     90
_cell_angle_gamma    90

_space_group_name_H-M_alt    "P 1"
_space_group_IT_number       1

loop_
  _space_group_symop_operation_xyz
  'x, y, z'

loop_
  _atom_site_type_symbol
  _atom_site_label
  _atom_site_symmetry_multiplicity
  _atom_site_fract_x
  _atom_site_fract_y
  _atom_site_fract_z
  _atom_site_occupancy
  Li  Li1       1.0  0.00000  0.25000  0.95758  1.0000
  Li  Li2       1.0  0.00000  0.75000  0.95758  1.0000
  Li  Li3       1.0  0.50000  0.50000  0.87274  1.0000
  Li  Li4       1.0  0.50000  0.00000  0.87274  1.0000
  Li  Li5       1.0  0.02430  0.75052  0.15940  1.0000
  Li  Li6       1.0  0.02434  0.24947  0.15942  1.0000
  Li  Li7       1.0  0.49846  0.00001  0.04503  1.0000
  Li  Li8       1.0  0.49798  0.50000  0.04528  1.0000
  Mg  Mg1       1.0  0.75000  0.00000  0.95758  1.0000
  Mg  Mg2       1.0  0.75000  0.50000  0.95758  1.0000
  Mg  Mg3       1.0  0.25000  0.25000  0.87274  1.0000
  Mg  Mg4       1.0  0.25000  0.75000  0.87274  1.0000
  Mg  Mg5       1.0  0.74740  0.50000  0.13367  1.0000
  Mg  Mg6       1.0  0.74637  0.00000  0.13353  1.0000
  Mg  Mg7       1.0  0.23666  0.74975  0.04831  1.0000
  Mg  Mg8       1.0  0.23665  0.25024  0.04831  1.0000
  In  In1       1.0  0.25000  0.00000  0.95758  1.0000
  In  In2       1.0  0.25000  0.50000  0.95758  1.0000
  In  In3       1.0  0.75000  0.25000  0.87274  1.0000
  In  In4       1.0  0.75000  0.75000  0.87274  1.0000
  In  In5       1.0  0.24889  0.50000  0.13533  1.0000
  In  In6       1.0  0.25004  0.00000  0.13559  1.0000
  In  In7       1.0  0.75793  0.74993  0.04910  1.0000
  In  In8       1.0  0.75792  0.25006  0.04910  1.0000
  Cu  Cu1       1.0  0.00000  0.00000  0.87274  1.0000
  Cu  Cu2       1.0  0.00000  0.50000  0.87274  1.0000
  Cu  Cu3       1.0  0.50000  0.75000  0.95758  1.0000
  Cu  Cu4       1.0  0.50000  0.25000  0.95758  1.0000
  Cu  Cu5       1.0  0.99989  0.49999  0.04138  1.0000
  Cu  Cu6       1.0  0.00006  0.00000  0.04137  1.0000
  Cu  Cu7       1.0  0.49103  0.25008  0.12740  1.0000
  Cu  Cu8       1.0  0.49104  0.74992  0.12740  1.0000
  C   C1        1.0  0.17426  0.00002  0.30473  1.0000
  O   O1        1.0  0.26905  0.00000  0.34040  1.0000
