# generated using pymatgen
data_Li8Mg8In8Cu8CO
_symmetry_space_group_name_H-M   P1
_cell_length_a   6.43808000
_cell_length_b   9.10482000
_cell_length_c   26.82860000
_cell_angle_alpha   90.00000000
_cell_angle_beta   90.00000000
_cell_angle_gamma   90.00000000
_symmetry_Int_Tables_number   1
_chemical_formula_structural   Li8Mg8In8Cu8CO
_chemical_formula_sum   'Li8 Mg8 In8 Cu8 C1 O1'
_cell_volume   1572.62705803
_cell_formula_units_Z   1
loop_
 _symmetry_equiv_pos_site_id
 _symmetry_equiv_pos_as_xyz
  1  'x, y, z'
loop_
 _atom_site_type_symbol
 _atom_site_label
 _atom_site_symmetry_multiplicity
 _atom_site_fract_x
 _atom_site_fract_y
 _atom_site_fract_z
 _atom_site_occupancy
  Li  Li0  1  0.00000000  0.25000000  0.95758000  1.0
  Li  Li1  1  0.00000000  0.75000000  0.95758000  1.0
  Li  Li2  1  0.02766000  0.74978000  0.16091000  1.0
  Li  Li3  1  0.02775000  0.25010000  0.16090000  1.0
  Li  Li4  1  0.49829000  0.99995000  0.04535000  1.0
  Li  Li5  1  0.49950000  0.50003000  0.04520000  1.0
  Li  Li6  1  0.50000000  0.00000000  0.87274000  1.0
  Li  Li7  1  0.50000000  0.50000000  0.87274000  1.0
  Mg  Mg8  1  0.23915000  0.24980000  0.04870000  1.0
  Mg  Mg9  1  0.23915000  0.75023000  0.04871000  1.0
  Mg  Mg10  1  0.25000000  0.25000000  0.87274000  1.0
  Mg  Mg11  1  0.25000000  0.75000000  0.87274000  1.0
  Mg  Mg12  1  0.75000000  0.00000000  0.95758000  1.0
  Mg  Mg13  1  0.75000000  0.50000000  0.95758000  1.0
  Mg  Mg14  1  0.75324000  0.49978000  0.13384000  1.0
  Mg  Mg15  1  0.75363000  0.99981000  0.13360000  1.0
  In  In16  1  0.24951000  0.50020000  0.13537000  1.0
  In  In17  1  0.25000000  0.00000000  0.95758000  1.0
  In  In18  1  0.25000000  0.50000000  0.95758000  1.0
  In  In19  1  0.25194000  0.99991000  0.13657000  1.0
  In  In20  1  0.75000000  0.25000000  0.87274000  1.0
  In  In21  1  0.75000000  0.75000000  0.87274000  1.0
  In  In22  1  0.75818000  0.75040000  0.04929000  1.0
  In  In23  1  0.75898000  0.24956000  0.04928000  1.0
  Cu  Cu24  1  0.00000000  0.00000000  0.87274000  1.0
  Cu  Cu25  1  0.00000000  0.50000000  0.87274000  1.0
  Cu  Cu26  1  0.00162000  0.00009000  0.04156000  1.0
  Cu  Cu27  1  0.00171000  0.49984000  0.04145000  1.0
  Cu  Cu28  1  0.49487000  0.74993000  0.12775000  1.0
  Cu  Cu29  1  0.49489000  0.24998000  0.12772000  1.0
  Cu  Cu30  1  0.50000000  0.25000000  0.95758000  1.0
  Cu  Cu31  1  0.50000000  0.75000000  0.95758000  1.0
  C  C32  1  0.14992000  0.00007000  0.30358000  1.0
  O  O33  1  0.29274000  0.00000000  0.32845000  1.0
