# generated using pymatgen
data_Ga8Fe8Co16CO
_symmetry_space_group_name_H-M   'P 1'
_cell_length_a   8.12197000
_cell_length_b   5.74310000
_cell_length_c   26.09150000
_cell_angle_alpha   90.00000000
_cell_angle_beta   90.00000000
_cell_angle_gamma   90.00000000
_symmetry_Int_Tables_number   1
_chemical_formula_structural   Ga8Fe8Co16CO
_chemical_formula_sum   'Ga8 Fe8 Co16 C1 O1'
_cell_volume   1217.04547724
_cell_formula_units_Z   1
loop_
 _symmetry_equiv_pos_site_id
 _symmetry_equiv_pos_as_xyz
  1  'x, y, z'
loop_
 _atom_site_type_symbol
 _atom_site_label
 _atom_site_symmetry_multiplicity
 _atom_site_fract_x
 _atom_site_fract_y
 _atom_site_fract_z
 _atom_site_occupancy
  Ga  Ga0  1  0.00000000  0.00000000  0.11673000  1.0
  Ga  Ga1  1  0.24999000  0.50000000  0.03891000  1.0
  Ga  Ga2  1  0.75001000  0.50000000  0.03891000  1.0
  Ga  Ga3  1  0.50000000  0.00000000  0.11673000  1.0
  Ga  Ga4  1  0.50000000  0.99973000  0.96167000  1.0
  Ga  Ga5  1  0.75456000  0.49783000  0.87738000  1.0
  Ga  Ga6  1  0.24544000  0.49783000  0.87738000  1.0
  Ga  Ga7  1  0.00000000  0.00265000  0.96164000  1.0
  Fe  Fe8  1  0.74999000  0.00000000  0.03891000  1.0
  Fe  Fe9  1  0.00000000  0.50000000  0.11673000  1.0
  Fe  Fe10  1  0.25001000  0.00000000  0.03891000  1.0
  Fe  Fe11  1  0.50000000  0.50000000  0.11673000  1.0
  Fe  Fe12  1  0.25801000  0.99770000  0.88513000  1.0
  Fe  Fe13  1  0.50000000  0.50065000  0.96169000  1.0
  Fe  Fe14  1  0.74199000  0.99770000  0.88513000  1.0
  Fe  Fe15  1  0.00000000  0.50074000  0.96047000  1.0
  Co  Co16  1  0.00000000  0.25000000  0.03891000  1.0
  Co  Co17  1  0.50000000  0.75000000  0.03891000  1.0
  Co  Co18  1  0.00000000  0.75000000  0.03891000  1.0
  Co  Co19  1  0.50000000  0.25000000  0.03891000  1.0
  Co  Co20  1  0.74999000  0.75000000  0.11673000  1.0
  Co  Co21  1  0.24999000  0.25000000  0.11673000  1.0
  Co  Co22  1  0.75001000  0.25000000  0.11673000  1.0
  Co  Co23  1  0.25001000  0.75000000  0.11673000  1.0
  Co  Co24  1  0.50000000  0.25992000  0.88662000  1.0
  Co  Co25  1  0.00000000  0.74998000  0.88575000  1.0
  Co  Co26  1  0.50000000  0.73865000  0.88598000  1.0
  Co  Co27  1  0.00000000  0.24064000  0.88199000  1.0
  Co  Co28  1  0.24922000  0.74894000  0.96018000  1.0
  Co  Co29  1  0.75056000  0.25277000  0.96003000  1.0
  Co  Co30  1  0.24944000  0.25277000  0.96003000  1.0
  Co  Co31  1  0.75078000  0.74894000  0.96018000  1.0
  C  C32  1  0.00000000  0.13181000  0.81936000  1.0
  O  O33  1  0.00000000  0.07194000  0.77662000  1.0
