# generated using pymatgen
data_Li2GeAu
_symmetry_space_group_name_H-M   'P 1'
_cell_length_a   6.30953000
_cell_length_b   4.46151000
_cell_length_c   26.69230000
_cell_angle_alpha   90.00000000
_cell_angle_beta   90.00000000
_cell_angle_gamma   90.00000000
_symmetry_Int_Tables_number   1
_chemical_formula_structural   Li2GeAu
_chemical_formula_sum   'Li8 Ge4 Au4'
_cell_volume   751.38907754
_cell_formula_units_Z   4
loop_
 _symmetry_equiv_pos_site_id
 _symmetry_equiv_pos_as_xyz
  1  'x, y, z'
loop_
 _atom_site_type_symbol
 _atom_site_label
 _atom_site_symmetry_multiplicity
 _atom_site_fract_x
 _atom_site_fract_y
 _atom_site_fract_z
 _atom_site_occupancy
  Li  Li0  1  0.00000000  0.50000000  0.95821000  1.0
  Li  Li1  1  0.50000000  0.00000000  0.87464000  1.0
  Li  Li2  1  0.75000000  0.50000000  0.87464000  1.0
  Li  Li3  1  0.25000000  0.00000000  0.95821000  1.0
  Li  Li4  1  0.97738000  0.50000000  0.12634000  1.0
  Li  Li5  1  0.48579000  0.00000000  0.03641000  1.0
  Li  Li6  1  0.74095000  0.50000000  0.04292000  1.0
  Li  Li7  1  0.28046000  0.00000000  0.12796000  1.0
  Ge  Ge8  1  0.00000000  0.00000000  0.87464000  1.0
  Ge  Ge9  1  0.50000000  0.50000000  0.95821000  1.0
  Ge  Ge10  1  0.00758000  0.00000000  0.04404000  1.0
  Ge  Ge11  1  0.50422000  0.50000000  0.13191500  1.0
  Au  Au12  1  0.75000000  0.00000000  0.95821000  1.0
  Au  Au13  1  0.25000000  0.50000000  0.87464000  1.0
  Au  Au14  1  0.72166000  0.00000000  0.11541000  1.0
  Au  Au15  1  0.25589000  0.50000000  0.04715000  1.0
