# generated using pymatgen
data_Nb8Ni16Sn8CO
_symmetry_space_group_name_H-M   P1
_cell_length_a   6.23466000
_cell_length_b   8.81715000
_cell_length_c   26.61290000
_cell_angle_alpha   90.00000000
_cell_angle_beta   90.00000000
_cell_angle_gamma   90.00000000
_symmetry_Int_Tables_number   1
_chemical_formula_structural   Nb8Ni16Sn8CO
_chemical_formula_sum   'Nb8 Ni16 Sn8 C1 O1'
_cell_volume   1462.96254027
_cell_formula_units_Z   1
loop_
 _symmetry_equiv_pos_site_id
 _symmetry_equiv_pos_as_xyz
  1  'x, y, z'
loop_
 _atom_site_type_symbol
 _atom_site_label
 _atom_site_symmetry_multiplicity
 _atom_site_fract_x
 _atom_site_fract_y
 _atom_site_fract_z
 _atom_site_occupancy
  Nb  Nb0  1  -0.00000000  0.50000000  0.87576000  1.0
  Nb  Nb1  1  0.00000000  0.00000000  0.87576000  1.0
  Nb  Nb2  1  0.49511000  0.74813000  0.12016000  1.0
  Nb  Nb3  1  0.49515000  0.25190000  0.12020000  1.0
  Nb  Nb4  1  0.50000000  0.25000000  0.95859000  1.0
  Nb  Nb5  1  0.50000000  0.75000000  0.95859000  1.0
  Nb  Nb6  1  0.99607000  0.50006000  0.04175000  1.0
  Nb  Nb7  1  0.99869000  0.99981000  0.04328000  1.0
  Ni  Ni8  1  0.22568000  0.25083000  0.04841000  1.0
  Ni  Ni9  1  0.22616000  0.74908000  0.04829000  1.0
  Ni  Ni10  1  0.25000000  0.00000000  0.95859000  1.0
  Ni  Ni11  1  0.25000000  0.25000000  0.87576000  1.0
  Ni  Ni12  1  0.25000000  0.50000000  0.95859000  1.0
  Ni  Ni13  1  0.25000000  0.75000000  0.87576000  1.0
  Ni  Ni14  1  0.26286000  0.00013000  0.13249000  1.0
  Ni  Ni15  1  0.27200000  0.50000000  0.11832000  1.0
  Ni  Ni16  1  0.70881000  0.49999000  0.12027000  1.0
  Ni  Ni17  1  0.73758000  0.00007000  0.11650000  1.0
  Ni  Ni18  1  0.75000000  0.00000000  0.95859000  1.0
  Ni  Ni19  1  0.75000000  0.25000000  0.87576000  1.0
  Ni  Ni20  1  0.75000000  0.50000000  0.95859000  1.0
  Ni  Ni21  1  0.75000000  0.75000000  0.87576000  1.0
  Ni  Ni22  1  0.76090000  0.75038000  0.04617000  1.0
  Ni  Ni23  1  0.76132000  0.24941000  0.04620000  1.0
  Sn  Sn24  1  -0.00000000  0.75000000  0.95859000  1.0
  Sn  Sn25  1  -0.00000000  0.25000000  0.95859000  1.0
  Sn  Sn26  1  0.48731000  0.00010000  0.03985000  1.0
  Sn  Sn27  1  0.49728000  0.49977000  0.03716000  1.0
  Sn  Sn28  1  0.50000000  0.00000000  0.87576000  1.0
  Sn  Sn29  1  0.50000000  0.50000000  0.87576000  1.0
  Sn  Sn30  1  0.98935000  0.25774000  0.13679000  1.0
  Sn  Sn31  1  0.98945000  0.74237000  0.13669000  1.0
  C  C32  1  0.35814000  0.00003000  0.19462000  1.0
  O  O33  1  0.40106000  0.00001000  0.23712000  1.0
