# generated using pymatgen
data_Li4Al4Fe4Pd4CO
_symmetry_space_group_name_H-M   'P 1'
_cell_length_a   8.60712000
_cell_length_b   5.25393000
_cell_length_c   23.58290000
_cell_angle_alpha   90.00000000
_cell_angle_beta   90.00000000
_cell_angle_gamma   90.00000000
_symmetry_Int_Tables_number   1
_chemical_formula_structural   Li4Al4Fe4Pd4CO
_chemical_formula_sum   'Li4 Al4 Fe4 Pd4 C1 O1'
_cell_volume   1066.44717854
_cell_formula_units_Z   1
loop_
 _symmetry_equiv_pos_site_id
 _symmetry_equiv_pos_as_xyz
  1  'x, y, z'
loop_
 _atom_site_type_symbol
 _atom_site_label
 _atom_site_symmetry_multiplicity
 _atom_site_fract_x
 _atom_site_fract_y
 _atom_site_fract_z
 _atom_site_occupancy
  Li  Li0  1  0.25066000  0.67611000  0.96907000  1.0
  Li  Li1  1  0.25000000  0.93782000  0.07596000  1.0
  Li  Li2  1  0.74934000  0.67611000  0.96907000  1.0
  Li  Li3  1  0.75000000  0.93782000  0.07596000  1.0
  Al  Al4  1  0.00000000  0.99565000  0.93150000  1.0
  Al  Al5  1  0.00000000  0.29188000  0.02532000  1.0
  Al  Al6  1  0.50000000  0.99995000  0.93168000  1.0
  Al  Al7  1  0.50000000  0.29188000  0.02532000  1.0
  Fe  Fe8  1  0.25036000  0.19301000  0.98793000  1.0
  Fe  Fe9  1  0.25000000  0.43782000  0.07596000  1.0
  Fe  Fe10  1  0.74964000  0.19301000  0.98793000  1.0
  Fe  Fe11  1  0.75000000  0.43782000  0.07596000  1.0
  Pd  Pd12  1  0.00000000  0.46916000  0.92639000  1.0
  Pd  Pd13  1  0.00000000  0.79188000  0.02532000  1.0
  Pd  Pd14  1  0.50000000  0.47171000  0.92485000  1.0
  Pd  Pd15  1  0.50000000  0.79188000  0.02532000  1.0
  C  C16  1  0.00000000  0.99043000  0.84623000  1.0
  O  O17  1  0.00000000  0.00176000  0.79747000  1.0
