# generated using pymatgen
data_Li4Sc4Ga4Ge4C
_symmetry_space_group_name_H-M   'P 1'
_cell_length_a   8.37322000
_cell_length_b   5.66960000
_cell_length_c   24.25170000
_cell_angle_alpha   90.00000000
_cell_angle_beta   90.00000000
_cell_angle_gamma   90.00000000
_symmetry_Int_Tables_number   1
_chemical_formula_structural   Li4Sc4Ga4Ge4C
_chemical_formula_sum   'Li4 Sc4 Ga4 Ge4 C1'
_cell_volume   1151.29630049
_cell_formula_units_Z   1
loop_
 _symmetry_equiv_pos_site_id
 _symmetry_equiv_pos_as_xyz
  1  'x, y, z'
loop_
 _atom_site_type_symbol
 _atom_site_label
 _atom_site_symmetry_multiplicity
 _atom_site_fract_x
 _atom_site_fract_y
 _atom_site_fract_z
 _atom_site_occupancy
  Li  Li0  1  0.00000000  0.50000000  0.08766000  1.0
  Li  Li1  1  0.00000000  0.94237000  0.96872000  1.0
  Li  Li2  1  0.50000000  0.50000000  0.08766000  1.0
  Li  Li3  1  0.50000000  0.95135000  0.97243000  1.0
  Sc  Sc4  1  0.25000000  0.24630000  0.02922000  1.0
  Sc  Sc5  1  0.24516000  0.70310000  0.90209000  1.0
  Sc  Sc6  1  0.75000000  0.24630000  0.02922000  1.0
  Sc  Sc7  1  0.75484000  0.70310000  0.90209000  1.0
  Ga  Ga8  1  0.00000000  0.00000000  0.08766000  1.0
  Ga  Ga9  1  0.00000000  0.40531000  0.95328000  1.0
  Ga  Ga10  1  0.50000000  0.00000000  0.08766000  1.0
  Ga  Ga11  1  0.50000000  0.45057000  0.96420000  1.0
  Ge  Ge12  1  0.25000000  0.74630000  0.02922000  1.0
  Ge  Ge13  1  0.27965000  0.21052000  0.90899000  1.0
  Ge  Ge14  1  0.75000000  0.74630000  0.02922000  1.0
  Ge  Ge15  1  0.72035000  0.21052000  0.90899000  1.0
  C  C16  1  0.00000000  0.69146000  0.90628000  1.0
