# generated using pymatgen
data_Sc4Ga4Ge4Pd4CO
_symmetry_space_group_name_H-M   'P 1'
_cell_length_a   5.81182000
_cell_length_b   8.08666000
_cell_length_c   24.34090000
_cell_angle_alpha   90.00000000
_cell_angle_beta   90.00000000
_cell_angle_gamma   90.00000000
_symmetry_Int_Tables_number   1
_chemical_formula_structural   Sc4Ga4Ge4Pd4CO
_chemical_formula_sum   'Sc4 Ga4 Ge4 Pd4 C1 O1'
_cell_volume   1143.97878629
_cell_formula_units_Z   1
loop_
 _symmetry_equiv_pos_site_id
 _symmetry_equiv_pos_as_xyz
  1  'x, y, z'
loop_
 _atom_site_type_symbol
 _atom_site_label
 _atom_site_symmetry_multiplicity
 _atom_site_fract_x
 _atom_site_fract_y
 _atom_site_fract_z
 _atom_site_occupancy
  Sc  Sc0  1  0.71270000  0.24929000  0.02740000  1.0
  Sc  Sc1  1  0.18191000  0.25000000  0.91083000  1.0
  Sc  Sc2  1  0.71277000  0.75070000  0.02742000  1.0
  Sc  Sc3  1  0.18191000  0.75000000  0.91083000  1.0
  Ga  Ga4  1  0.99418000  0.00001000  0.08393000  1.0
  Ga  Ga5  1  0.45461000  0.00000000  0.97028000  1.0
  Ga  Ga6  1  0.98874000  0.50000000  0.08552000  1.0
  Ga  Ga7  1  0.45461000  0.50000000  0.97028000  1.0
  Ge  Ge8  1  0.44609000  0.99990000  0.08113000  1.0
  Ge  Ge9  1  0.95461000  0.00000000  0.97028000  1.0
  Ge  Ge10  1  0.44536000  0.50008000  0.08200000  1.0
  Ge  Ge11  1  0.95461000  0.50000000  0.97028000  1.0
  Pd  Pd12  1  0.21057000  0.25081000  0.03217000  1.0
  Pd  Pd13  1  0.68191000  0.25000000  0.91083000  1.0
  Pd  Pd14  1  0.21051000  0.74919000  0.03209000  1.0
  Pd  Pd15  1  0.68191000  0.75000000  0.91083000  1.0
  C  C16  1  0.05961000  0.00016000  0.21347000  1.0
  O  O17  1  0.92951000  0.99976000  0.24830000  1.0
