# generated using pymatgen
data_Li8Zr8Ge8Pd8C
_symmetry_space_group_name_H-M   'P 1'
_cell_length_a   9.16240000
_cell_length_b   6.47880000
_cell_length_c   26.87180000
_cell_angle_alpha   90.00000000
_cell_angle_beta   90.00000000
_cell_angle_gamma   90.00000000
_symmetry_Int_Tables_number   1
_chemical_formula_structural   Li8Zr8Ge8Pd8C
_chemical_formula_sum   'Li8 Zr8 Ge8 Pd8 C1'
_cell_volume   1595.14651626
_cell_formula_units_Z   1
loop_
 _symmetry_equiv_pos_site_id
 _symmetry_equiv_pos_as_xyz
  1  'x, y, z'
loop_
 _atom_site_type_symbol
 _atom_site_label
 _atom_site_symmetry_multiplicity
 _atom_site_fract_x
 _atom_site_fract_y
 _atom_site_fract_z
 _atom_site_occupancy
  Li  Li0  1  0.75000000  0.25000000  0.04262000  1.0
  Li  Li1  1  0.25000000  0.25000000  0.04262000  1.0
  Li  Li2  1  0.00000000  0.75000000  0.12786000  1.0
  Li  Li3  1  0.50000000  0.75000000  0.12786000  1.0
  Li  Li4  1  0.23443000  0.20230000  0.85686000  1.0
  Li  Li5  1  0.76557000  0.20230000  0.85686000  1.0
  Li  Li6  1  0.50000000  0.75637000  0.96256000  1.0
  Li  Li7  1  0.00000000  0.74754000  0.95543000  1.0
  Zr  Zr8  1  0.75000000  0.75000000  0.04262000  1.0
  Zr  Zr9  1  0.25000000  0.75000000  0.04262000  1.0
  Zr  Zr10  1  0.00000000  0.25000000  0.12786000  1.0
  Zr  Zr11  1  0.50000000  0.25000000  0.12786000  1.0
  Zr  Zr12  1  0.29254000  0.68956000  0.87676000  1.0
  Zr  Zr13  1  0.70746000  0.68956000  0.87676000  1.0
  Zr  Zr14  1  0.50000000  0.27063000  0.95024000  1.0
  Zr  Zr15  1  0.00000000  0.23865000  0.94615000  1.0
  Ge  Ge16  1  0.75000000  0.00000000  0.12786000  1.0
  Ge  Ge17  1  0.25000000  0.00000000  0.12786000  1.0
  Ge  Ge18  1  0.50000000  0.50000000  0.04262000  1.0
  Ge  Ge19  1  0.00000000  0.50000000  0.04262000  1.0
  Ge  Ge20  1  0.25677000  0.98732000  0.95332000  1.0
  Ge  Ge21  1  0.74323000  0.98732000  0.95332000  1.0
  Ge  Ge22  1  0.00000000  0.53183000  0.85368000  1.0
  Ge  Ge23  1  0.50000000  0.40561000  0.84980000  1.0
  Pd  Pd24  1  0.00000000  0.00000000  0.04262000  1.0
  Pd  Pd25  1  0.50000000  0.00000000  0.04262000  1.0
  Pd  Pd26  1  0.25000000  0.50000000  0.12786000  1.0
  Pd  Pd27  1  0.75000000  0.50000000  0.12786000  1.0
  Pd  Pd28  1  0.50000000  0.99625000  0.87614000  1.0
  Pd  Pd29  1  0.00000000  0.92046000  0.86575000  1.0
  Pd  Pd30  1  0.75935000  0.49368000  0.96368000  1.0
  Pd  Pd31  1  0.24065000  0.49368000  0.96368000  1.0
  C  C32  1  0.00000000  0.24063000  0.86630000  1.0
