# generated using pymatgen
data_Li8Zr8Ge8Pd8C
_symmetry_space_group_name_H-M   Pm
_cell_length_a   6.47880000
_cell_length_b   9.16240000
_cell_length_c   26.87180000
_cell_angle_alpha   90.00000000
_cell_angle_beta   90.00000000
_cell_angle_gamma   90.00000000
_symmetry_Int_Tables_number   6
_chemical_formula_structural   Li8Zr8Ge8Pd8C
_chemical_formula_sum   'Li8 Zr8 Ge8 Pd8 C1'
_cell_volume   1595.14651626
_cell_formula_units_Z   1
loop_
 _symmetry_equiv_pos_site_id
 _symmetry_equiv_pos_as_xyz
  1  'x, y, z'
  2  'x, -y, z'
loop_
 _atom_site_type_symbol
 _atom_site_label
 _atom_site_symmetry_multiplicity
 _atom_site_fract_x
 _atom_site_fract_y
 _atom_site_fract_z
 _atom_site_occupancy
  Li  Li0  2  0.20230000  0.23443000  0.14314000  1.0
  Li  Li1  2  0.25000000  0.25000000  0.95738000  1.0
  Li  Li2  1  0.74754000  0.00000000  0.04457000  1.0
  Li  Li3  1  0.75000000  0.00000000  0.87214000  1.0
  Li  Li4  1  0.75000000  0.50000000  0.87214000  1.0
  Li  Li5  1  0.75637000  0.50000000  0.03744000  1.0
  Zr  Zr6  2  0.68956000  0.29254000  0.12324000  1.0
  Zr  Zr7  2  0.75000000  0.25000000  0.95738000  1.0
  Zr  Zr8  1  0.23865000  0.00000000  0.05385000  1.0
  Zr  Zr9  1  0.25000000  0.00000000  0.87214000  1.0
  Zr  Zr10  1  0.25000000  0.50000000  0.87214000  1.0
  Zr  Zr11  1  0.27063000  0.50000000  0.04976000  1.0
  Ge  Ge12  2  0.00000000  0.25000000  0.87214000  1.0
  Ge  Ge13  2  0.98732000  0.25677000  0.04668000  1.0
  Ge  Ge14  1  0.40561000  0.50000000  0.15020000  1.0
  Ge  Ge15  1  0.50000000  0.00000000  0.95738000  1.0
  Ge  Ge16  1  0.50000000  0.50000000  0.95738000  1.0
  Ge  Ge17  1  0.53183000  0.00000000  0.14632000  1.0
  Pd  Pd18  2  0.49368000  0.24065000  0.03632000  1.0
  Pd  Pd19  2  0.50000000  0.25000000  0.87214000  1.0
  Pd  Pd20  1  0.00000000  0.00000000  0.95738000  1.0
  Pd  Pd21  1  0.00000000  0.50000000  0.95738000  1.0
  Pd  Pd22  1  0.92046000  0.00000000  0.13425000  1.0
  Pd  Pd23  1  0.99625000  0.50000000  0.12386000  1.0
  C  C24  1  0.24063000  0.00000000  0.13370000  1.0
