# generated using pymatgen
data_Li8Cu4Sb4C
_symmetry_space_group_name_H-M   'P 1'
_cell_length_a   6.37457000
_cell_length_b   6.37457000
_cell_length_c   24.78090000
_cell_angle_alpha   90.00000000
_cell_angle_beta   90.00000000
_cell_angle_gamma   90.00000000
_symmetry_Int_Tables_number   1
_chemical_formula_structural   Li8Cu4Sb4C
_chemical_formula_sum   'Li8 Cu4 Sb4 C1'
_cell_volume   1006.97540736
_cell_formula_units_Z   1
loop_
 _symmetry_equiv_pos_site_id
 _symmetry_equiv_pos_as_xyz
  1  'x, y, z'
loop_
 _atom_site_type_symbol
 _atom_site_label
 _atom_site_symmetry_multiplicity
 _atom_site_fract_x
 _atom_site_fract_y
 _atom_site_fract_z
 _atom_site_occupancy
  Li  Li0  1  0.00000000  0.00000000  0.03268000  1
  Li  Li1  1  0.00000000  0.50000000  0.90354000  1
  Li  Li2  1  0.50000000  0.00000000  0.90354000  1
  Li  Li3  1  0.50000000  0.50000000  0.03604000  1
  Li  Li4  1  0.75000000  0.25000000  0.96785000  1
  Li  Li5  1  0.23388500  0.23388500  0.11866000  1
  Li  Li6  1  0.25000000  0.75000000  0.96785000  1
  Li  Li7  1  0.76611500  0.76611500  0.11866000  1
  Cu  Cu8  1  0.00000000  0.00000000  0.90354000  1
  Cu  Cu9  1  0.50000000  0.50000000  0.90354000  1
  Cu  Cu10  1  0.00000000  0.50000000  0.03538000  1
  Cu  Cu11  1  0.50000000  0.00000000  0.03538000  1
  Sb  Sb12  1  0.76947000  0.23053000  0.10048000  1
  Sb  Sb13  1  0.25000000  0.25000000  0.96785000  1
  Sb  Sb14  1  0.23053000  0.76947000  0.10048000  1
  Sb  Sb15  1  0.75000000  0.75000000  0.96785000  1
  C  C16  1  0.00000000  0.00000000  0.12860000  1
