# generated using pymatgen
data_Li8Y8Sn8Ge8C
_symmetry_space_group_name_H-M   Pmm2
_cell_length_a   8.52742000
_cell_length_b   8.60818000
_cell_length_c   27.07540000
_cell_angle_alpha   90.00000000
_cell_angle_beta   90.00000000
_cell_angle_gamma   90.00000000
_symmetry_Int_Tables_number   25
_chemical_formula_structural   Li8Y8Sn8Ge8C
_chemical_formula_sum   'Li8 Y8 Sn8 Ge8 C1'
_cell_volume   1987.48506968
_cell_formula_units_Z   1
loop_
 _symmetry_equiv_pos_site_id
 _symmetry_equiv_pos_as_xyz
  1  'x, y, z'
  2  '-x, -y, z'
  3  '-x, y, z'
  4  'x, -y, z'
loop_
 _atom_site_type_symbol
 _atom_site_label
 _atom_site_symmetry_multiplicity
 _atom_site_fract_x
 _atom_site_fract_y
 _atom_site_fract_z
 _atom_site_occupancy
  Li  Li0  2  0.25000000  0.00000000  0.04355000  1.0
  Li  Li1  2  0.25000000  0.50000000  0.04355000  1.0
  Li  Li2  2  0.25219000  0.50000000  0.86235000  1.0
  Li  Li3  2  0.25346000  0.00000000  0.86447000  1.0
  Y  Y4  4  0.24682000  0.25554000  0.95551000  1.0
  Y  Y5  4  0.25000000  0.24999000  0.13066000  1.0
  Sn  Sn6  2  0.00000000  0.24999000  0.04355000  1.0
  Sn  Sn7  2  0.00000000  0.25883000  0.85754000  1.0
  Sn  Sn8  2  0.50000000  0.23916000  0.86464000  1.0
  Sn  Sn9  2  0.50000000  0.24999000  0.04355000  1.0
  Ge  Ge10  1  0.00000000  0.00000000  0.13066000  1.0
  Ge  Ge11  1  0.00000000  0.00000000  0.93997000  1.0
  Ge  Ge12  1  0.00000000  0.50000000  0.13066000  1.0
  Ge  Ge13  1  0.00000000  0.50000000  0.97325000  1.0
  Ge  Ge14  1  0.50000000  0.00000000  0.13066000  1.0
  Ge  Ge15  1  0.50000000  0.00000000  0.94792000  1.0
  Ge  Ge16  1  0.50000000  0.50000000  0.13066000  1.0
  Ge  Ge17  1  0.50000000  0.50000000  0.93581000  1.0
  C  C18  1  0.00000000  0.50000000  0.89825000  1.0
