# generated using pymatgen
data_Mn8Co16Ge8CO
_symmetry_space_group_name_H-M   'P 1'
_cell_length_a   8.14369000
_cell_length_b   5.75846000
_cell_length_c   26.10780000
_cell_angle_alpha   90.00000000
_cell_angle_beta   90.00000000
_cell_angle_gamma   90.00000000
_symmetry_Int_Tables_number   1
_chemical_formula_structural   Mn8Co16Ge8CO
_chemical_formula_sum   'Mn8 Co16 Ge8 C1 O1'
_cell_volume   1224.32823425
_cell_formula_units_Z   1
loop_
 _symmetry_equiv_pos_site_id
 _symmetry_equiv_pos_as_xyz
  1  'x, y, z'
loop_
 _atom_site_type_symbol
 _atom_site_label
 _atom_site_symmetry_multiplicity
 _atom_site_fract_x
 _atom_site_fract_y
 _atom_site_fract_z
 _atom_site_occupancy
  Mn  Mn0  1  0.00000000  0.00000000  0.11697000  1.0
  Mn  Mn1  1  0.24999000  0.50000000  0.03899000  1.0
  Mn  Mn2  1  0.75001000  0.50000000  0.03899000  1.0
  Mn  Mn3  1  0.50000000  0.00000000  0.11697000  1.0
  Mn  Mn4  1  0.50000000  0.99912000  0.96276000  1.0
  Mn  Mn5  1  0.74156000  0.50157000  0.87973000  1.0
  Mn  Mn6  1  0.25844000  0.50157000  0.87973000  1.0
  Mn  Mn7  1  0.00000000  0.00012000  0.96120000  1.0
  Co  Co8  1  0.00000000  0.25000000  0.03899000  1.0
  Co  Co9  1  0.50000000  0.75000000  0.03899000  1.0
  Co  Co10  1  0.00000000  0.75000000  0.03899000  1.0
  Co  Co11  1  0.50000000  0.25000000  0.03899000  1.0
  Co  Co12  1  0.74999000  0.75000000  0.11697000  1.0
  Co  Co13  1  0.24999000  0.25000000  0.11697000  1.0
  Co  Co14  1  0.75001000  0.25000000  0.11697000  1.0
  Co  Co15  1  0.25001000  0.75000000  0.11697000  1.0
  Co  Co16  1  0.50000000  0.23253000  0.88747000  1.0
  Co  Co17  1  0.00000000  0.75765000  0.88565000  1.0
  Co  Co18  1  0.50000000  0.76703000  0.88653000  1.0
  Co  Co19  1  0.00000000  0.25323000  0.88281000  1.0
  Co  Co20  1  0.24954000  0.74884000  0.96083000  1.0
  Co  Co21  1  0.75090000  0.25035000  0.96061000  1.0
  Co  Co22  1  0.24910000  0.25035000  0.96061000  1.0
  Co  Co23  1  0.75046000  0.74884000  0.96083000  1.0
  Ge  Ge24  1  0.74999000  0.00000000  0.03899000  1.0
  Ge  Ge25  1  0.00000000  0.50000000  0.11697000  1.0
  Ge  Ge26  1  0.25001000  0.00000000  0.03899000  1.0
  Ge  Ge27  1  0.50000000  0.50000000  0.11697000  1.0
  Ge  Ge28  1  0.24805000  0.00109000  0.88170000  1.0
  Ge  Ge29  1  0.50000000  0.49978000  0.96036000  1.0
  Ge  Ge30  1  0.75195000  0.00109000  0.88170000  1.0
  Ge  Ge31  1  0.00000000  0.49991000  0.96125000  1.0
  C  C32  1  0.00000000  0.38411000  0.82207000  1.0
  O  O33  1  0.00000000  0.44791000  0.77944000  1.0
