# generated using pymatgen
data_Mn8Co16Ge8CO
_symmetry_space_group_name_H-M   Pm
_cell_length_a   5.75846000
_cell_length_b   8.14369000
_cell_length_c   26.10780000
_cell_angle_alpha   90.00000000
_cell_angle_beta   90.00000000
_cell_angle_gamma   90.00000000
_symmetry_Int_Tables_number   6
_chemical_formula_structural   Mn8Co16Ge8CO
_chemical_formula_sum   'Mn8 Co16 Ge8 C1 O1'
_cell_volume   1224.32823425
_cell_formula_units_Z   1
loop_
 _symmetry_equiv_pos_site_id
 _symmetry_equiv_pos_as_xyz
  1  'x, y, z'
  2  'x, -y, z'
loop_
 _atom_site_type_symbol
 _atom_site_label
 _atom_site_symmetry_multiplicity
 _atom_site_fract_x
 _atom_site_fract_y
 _atom_site_fract_z
 _atom_site_occupancy
  Mn  Mn0  2  0.50000000  0.24999000  0.96101000  1.0
  Mn  Mn1  2  0.50157000  0.25844000  0.12027000  1.0
  Mn  Mn2  1  0.00000000  0.00000000  0.88303000  1.0
  Mn  Mn3  1  0.00000000  0.50000000  0.88303000  1.0
  Mn  Mn4  1  0.00012000  0.00000000  0.03880000  1.0
  Mn  Mn5  1  0.99912000  0.50000000  0.03724000  1.0
  Co  Co6  2  0.25000000  0.24999000  0.88303000  1.0
  Co  Co7  2  0.25035000  0.24910000  0.03939000  1.0
  Co  Co8  2  0.74884000  0.24954000  0.03917000  1.0
  Co  Co9  2  0.75000000  0.25001000  0.88303000  1.0
  Co  Co10  1  0.23253000  0.50000000  0.11253000  1.0
  Co  Co11  1  0.25000000  0.00000000  0.96101000  1.0
  Co  Co12  1  0.25000000  0.50000000  0.96101000  1.0
  Co  Co13  1  0.25323000  0.00000000  0.11719000  1.0
  Co  Co14  1  0.75000000  0.00000000  0.96101000  1.0
  Co  Co15  1  0.75000000  0.50000000  0.96101000  1.0
  Co  Co16  1  0.75765000  0.00000000  0.11435000  1.0
  Co  Co17  1  0.76703000  0.50000000  0.11347000  1.0
  Ge  Ge18  2  0.00000000  0.25001000  0.96101000  1.0
  Ge  Ge19  2  0.00109000  0.24805000  0.11830000  1.0
  Ge  Ge20  1  0.49978000  0.50000000  0.03964000  1.0
  Ge  Ge21  1  0.49991000  0.00000000  0.03875000  1.0
  Ge  Ge22  1  0.50000000  0.00000000  0.88303000  1.0
  Ge  Ge23  1  0.50000000  0.50000000  0.88303000  1.0
  C  C24  1  0.38411000  0.00000000  0.17793000  1.0
  O  O25  1  0.44791000  0.00000000  0.22056000  1.0
