data_image0
_chemical_formula_structural       Mn24Ge8CO
_chemical_formula_sum              "Mn24 Ge8 C1 O1"
_cell_length_a       7.42262
_cell_length_b       7.42262
_cell_length_c       25.567
_cell_angle_alpha    90
_cell_angle_beta     90
_cell_angle_gamma    90

_space_group_name_H-M_alt    "P 1"
_space_group_IT_number       1

loop_
  _space_group_symop_operation_xyz
  'x, y, z'

loop_
  _atom_site_type_symbol
  _atom_site_label
  _atom_site_symmetry_multiplicity
  _atom_site_fract_x
  _atom_site_fract_y
  _atom_site_fract_z
  _atom_site_occupancy
  Mn  Mn1       1.0  0.00004  0.24954  0.03148  1.0000
  Mn  Mn2       1.0  0.24961  0.99996  0.03146  1.0000
  Mn  Mn3       1.0  0.24990  0.24972  0.10620  1.0000
  Mn  Mn4       1.0  0.00000  0.25000  0.89113  1.0000
  Mn  Mn5       1.0  0.25000  0.00000  0.89113  1.0000
  Mn  Mn6       1.0  0.25000  0.25000  0.96371  1.0000
  Mn  Mn7       1.0  0.00004  0.75039  0.03146  1.0000
  Mn  Mn8       1.0  0.25008  0.49997  0.03159  1.0000
  Mn  Mn9       1.0  0.24990  0.75011  0.10617  1.0000
  Mn  Mn10      1.0  0.00000  0.75000  0.89113  1.0000
  Mn  Mn11      1.0  0.25000  0.50000  0.89113  1.0000
  Mn  Mn12      1.0  0.25000  0.75000  0.96371  1.0000
  Mn  Mn13      1.0  0.50004  0.25001  0.03160  1.0000
  Mn  Mn14      1.0  0.75047  0.99996  0.03147  1.0000
  Mn  Mn15      1.0  0.75030  0.24971  0.10623  1.0000
  Mn  Mn16      1.0  0.50000  0.25000  0.89113  1.0000
  Mn  Mn17      1.0  0.75000  0.00000  0.89113  1.0000
  Mn  Mn18      1.0  0.75000  0.25000  0.96371  1.0000
  Mn  Mn19      1.0  0.50004  0.74991  0.03158  1.0000
  Mn  Mn20      1.0  0.74999  0.49997  0.03159  1.0000
  Mn  Mn21      1.0  0.75030  0.75013  0.10620  1.0000
  Mn  Mn22      1.0  0.50000  0.75000  0.89113  1.0000
  Mn  Mn23      1.0  0.75000  0.50000  0.89113  1.0000
  Mn  Mn24      1.0  0.75000  0.75000  0.96371  1.0000
  Ge  Ge1       1.0  0.00017  0.99983  0.10223  1.0000
  Ge  Ge2       1.0  0.00000  0.00000  0.96371  1.0000
  Ge  Ge3       1.0  0.00011  0.49999  0.10206  1.0000
  Ge  Ge4       1.0  0.00000  0.50000  0.96371  1.0000
  Ge  Ge5       1.0  0.50005  0.99986  0.10206  1.0000
  Ge  Ge6       1.0  0.50000  0.00000  0.96371  1.0000
  Ge  Ge7       1.0  0.50006  0.49997  0.10224  1.0000
  Ge  Ge8       1.0  0.50000  0.50000  0.96371  1.0000
  C   C1        1.0  0.99252  0.00792  0.26769  1.0000
  O   O1        1.0  0.00348  0.99631  0.31184  1.0000
