# generated using pymatgen
data_Mn24Ge8CO
_symmetry_space_group_name_H-M   P1
_cell_length_a   7.42262000
_cell_length_b   7.42262000
_cell_length_c   25.56700000
_cell_angle_alpha   90.00000000
_cell_angle_beta   90.00000000
_cell_angle_gamma   90.00000000
_symmetry_Int_Tables_number   1
_chemical_formula_structural   Mn24Ge8CO
_chemical_formula_sum   'Mn24 Ge8 C1 O1'
_cell_volume   1408.62121972
_cell_formula_units_Z   1
loop_
 _symmetry_equiv_pos_site_id
 _symmetry_equiv_pos_as_xyz
  1  'x, y, z'
loop_
 _atom_site_type_symbol
 _atom_site_label
 _atom_site_symmetry_multiplicity
 _atom_site_fract_x
 _atom_site_fract_y
 _atom_site_fract_z
 _atom_site_occupancy
  Mn  Mn0  1  0.00000000  0.25000000  0.89113000  1.0
  Mn  Mn1  1  0.00000000  0.75000000  0.89113000  1.0
  Mn  Mn2  1  0.00004000  0.24954000  0.03148000  1.0
  Mn  Mn3  1  0.00004000  0.75039000  0.03146000  1.0
  Mn  Mn4  1  0.24961000  0.99996000  0.03146000  1.0
  Mn  Mn5  1  0.24990000  0.24972000  0.10620000  1.0
  Mn  Mn6  1  0.24990000  0.75011000  0.10617000  1.0
  Mn  Mn7  1  0.25000000  0.00000000  0.89113000  1.0
  Mn  Mn8  1  0.25000000  0.25000000  0.96371000  1.0
  Mn  Mn9  1  0.25000000  0.50000000  0.89113000  1.0
  Mn  Mn10  1  0.25000000  0.75000000  0.96371000  1.0
  Mn  Mn11  1  0.25008000  0.49997000  0.03159000  1.0
  Mn  Mn12  1  0.50000000  0.25000000  0.89113000  1.0
  Mn  Mn13  1  0.50000000  0.75000000  0.89113000  1.0
  Mn  Mn14  1  0.50004000  0.25001000  0.03160000  1.0
  Mn  Mn15  1  0.50004000  0.74991000  0.03158000  1.0
  Mn  Mn16  1  0.74999000  0.49997000  0.03159000  1.0
  Mn  Mn17  1  0.75000000  0.00000000  0.89113000  1.0
  Mn  Mn18  1  0.75000000  0.25000000  0.96371000  1.0
  Mn  Mn19  1  0.75000000  0.50000000  0.89113000  1.0
  Mn  Mn20  1  0.75000000  0.75000000  0.96371000  1.0
  Mn  Mn21  1  0.75030000  0.24971000  0.10623000  1.0
  Mn  Mn22  1  0.75030000  0.75013000  0.10620000  1.0
  Mn  Mn23  1  0.75047000  0.99996000  0.03147000  1.0
  Ge  Ge24  1  0.00000000  0.00000000  0.96371000  1.0
  Ge  Ge25  1  0.00000000  0.50000000  0.96371000  1.0
  Ge  Ge26  1  0.00011000  0.49999000  0.10206000  1.0
  Ge  Ge27  1  0.00017000  0.99983000  0.10223000  1.0
  Ge  Ge28  1  0.50000000  0.00000000  0.96371000  1.0
  Ge  Ge29  1  0.50000000  0.50000000  0.96371000  1.0
  Ge  Ge30  1  0.50005000  0.99986000  0.10206000  1.0
  Ge  Ge31  1  0.50006000  0.49997000  0.10224000  1.0
  C  C32  1  0.99252000  0.00792000  0.26769000  1.0
  O  O33  1  0.00348000  0.99631000  0.31184000  1.0
