# generated using pymatgen
data_Ti8Al8Ni16CO
_symmetry_space_group_name_H-M   Pmm2
_cell_length_a   5.91339000
_cell_length_b   8.36280000
_cell_length_c   26.27210000
_cell_angle_alpha   90.00000000
_cell_angle_beta   90.00000000
_cell_angle_gamma   90.00000000
_symmetry_Int_Tables_number   25
_chemical_formula_structural   Ti8Al8Ni16CO
_chemical_formula_sum   'Ti8 Al8 Ni16 C1 O1'
_cell_volume   1299.22096987
_cell_formula_units_Z   1
loop_
 _symmetry_equiv_pos_site_id
 _symmetry_equiv_pos_as_xyz
  1  'x, y, z'
  2  '-x, -y, z'
  3  '-x, y, z'
  4  'x, -y, z'
loop_
 _atom_site_type_symbol
 _atom_site_label
 _atom_site_symmetry_multiplicity
 _atom_site_fract_x
 _atom_site_fract_y
 _atom_site_fract_z
 _atom_site_occupancy
  Ti  Ti0  2  0.00000000  0.25000000  0.88063000  1.0
  Ti  Ti1  2  0.00000000  0.25143000  0.03969000  1.0
  Ti  Ti2  1  0.50000000  0.00000000  0.12054000  1.0
  Ti  Ti3  1  0.50000000  0.00000000  0.96021000  1.0
  Ti  Ti4  1  0.50000000  0.50000000  0.12134000  1.0
  Ti  Ti5  1  0.50000000  0.50000000  0.96021000  1.0
  Al  Al6  2  0.50000000  0.24841000  0.03985000  1.0
  Al  Al7  2  0.50000000  0.25000000  0.88063000  1.0
  Al  Al8  1  0.00000000  0.00000000  0.11874000  1.0
  Al  Al9  1  0.00000000  0.00000000  0.96021000  1.0
  Al  Al10  1  0.00000000  0.50000000  0.11915000  1.0
  Al  Al11  1  0.00000000  0.50000000  0.96021000  1.0
  Ni  Ni12  4  0.24439000  0.25125000  0.11427000  1.0
  Ni  Ni13  4  0.25000000  0.25000000  0.96021000  1.0
  Ni  Ni14  2  0.25000000  0.00000000  0.88063000  1.0
  Ni  Ni15  2  0.25000000  0.50000000  0.88063000  1.0
  Ni  Ni16  2  0.25316000  0.00000000  0.03905000  1.0
  Ni  Ni17  2  0.26298000  0.50000000  0.04109000  1.0
  C  C18  1  0.50000000  0.00000000  0.20226000  1.0
  O  O19  1  0.50000000  0.00000000  0.24602000  1.0
