# generated using pymatgen
data_Li8In8Cu8Pd8CO
_symmetry_space_group_name_H-M   'P 1'
_cell_length_a   8.95884000
_cell_length_b   6.33486000
_cell_length_c   26.71910000
_cell_angle_alpha   90.00000000
_cell_angle_beta   90.00000000
_cell_angle_gamma   90.00000000
_symmetry_Int_Tables_number   1
_chemical_formula_structural   Li8In8Cu8Pd8CO
_chemical_formula_sum   'Li8 In8 Cu8 Pd8 C1 O1'
_cell_volume   1516.38900648
_cell_formula_units_Z   1
loop_
 _symmetry_equiv_pos_site_id
 _symmetry_equiv_pos_as_xyz
  1  'x, y, z'
loop_
 _atom_site_type_symbol
 _atom_site_label
 _atom_site_symmetry_multiplicity
 _atom_site_fract_x
 _atom_site_fract_y
 _atom_site_fract_z
 _atom_site_occupancy
  Li  Li0  1  0.75002000  0.25000000  0.04191000  1.0
  Li  Li1  1  0.24998000  0.25000000  0.04191000  1.0
  Li  Li2  1  0.00000000  0.75000000  0.12574000  1.0
  Li  Li3  1  0.50000000  0.75000000  0.12574000  1.0
  Li  Li4  1  0.25411000  0.24592000  0.87115000  1.0
  Li  Li5  1  0.74589000  0.24592000  0.87115000  1.0
  Li  Li6  1  0.50000000  0.75473000  0.96373000  1.0
  Li  Li7  1  0.00000000  0.74705000  0.96145000  1.0
  In  In8  1  0.75002000  0.75000000  0.04191000  1.0
  In  In9  1  0.24998000  0.75000000  0.04191000  1.0
  In  In10  1  0.00000000  0.25000000  0.12574000  1.0
  In  In11  1  0.50000000  0.25000000  0.12574000  1.0
  In  In12  1  0.25105000  0.75414000  0.86082000  1.0
  In  In13  1  0.74895000  0.75414000  0.86082000  1.0
  In  In14  1  0.50000000  0.25817000  0.95905000  1.0
  In  In15  1  0.00000000  0.25735000  0.95912000  1.0
  Cu  Cu16  1  0.75002000  0.00000000  0.12574000  1.0
  Cu  Cu17  1  0.24998000  0.00000000  0.12574000  1.0
  Cu  Cu18  1  0.50000000  0.50000000  0.04191000  1.0
  Cu  Cu19  1  0.00000000  0.50000000  0.04191000  1.0
  Cu  Cu20  1  0.24909000  0.99057000  0.95397000  1.0
  Cu  Cu21  1  0.75091000  0.99057000  0.95397000  1.0
  Cu  Cu22  1  0.00000000  0.51350000  0.87645000  1.0
  Cu  Cu23  1  0.50000000  0.53509000  0.88324000  1.0
  Pd  Pd24  1  0.00000000  1.00000000  0.04191000  1.0
  Pd  Pd25  1  0.50000000  1.00000000  0.04191000  1.0
  Pd  Pd26  1  0.25002000  0.50000000  0.12574000  1.0
  Pd  Pd27  1  0.74998000  0.50000000  0.12574000  1.0
  Pd  Pd28  1  0.50000000  0.97821000  0.88317000  1.0
  Pd  Pd29  1  0.00000000  0.97345000  0.88355000  1.0
  Pd  Pd30  1  0.75180000  0.51768000  0.95164000  1.0
  Pd  Pd31  1  0.24820000  0.51768000  0.95164000  1.0
  C  C32  1  0.00000000  0.39285000  0.81234000  1.0
  O  O33  1  0.00000000  0.34572000  0.77047000  1.0
