# generated using pymatgen
data_Li8Sn4Ge4CO
_symmetry_space_group_name_H-M   P1
_cell_length_a   6.92564000
_cell_length_b   6.92564000
_cell_length_c   25.19420000
_cell_angle_alpha   90.00000000
_cell_angle_beta   90.00000000
_cell_angle_gamma   90.00000000
_symmetry_Int_Tables_number   1
_chemical_formula_structural   Li8Sn4Ge4CO
_chemical_formula_sum   'Li8 Sn4 Ge4 C1 O1'
_cell_volume   1208.42693908
_cell_formula_units_Z   1
loop_
 _symmetry_equiv_pos_site_id
 _symmetry_equiv_pos_as_xyz
  1  'x, y, z'
loop_
 _atom_site_type_symbol
 _atom_site_label
 _atom_site_symmetry_multiplicity
 _atom_site_fract_x
 _atom_site_fract_y
 _atom_site_fract_z
 _atom_site_occupancy
  Li  Li0  1  0.00000000  0.50000000  0.89692000  1.0
  Li  Li1  1  0.04597000  0.95411000  0.03508000  1.0
  Li  Li2  1  0.25000000  0.25000000  0.96564000  1.0
  Li  Li3  1  0.37882000  0.62527000  0.11393000  1.0
  Li  Li4  1  0.50000000  0.00000000  0.89692000  1.0
  Li  Li5  1  0.55000000  0.45161000  0.03612000  1.0
  Li  Li6  1  0.75000000  0.75000000  0.96564000  1.0
  Li  Li7  1  0.88080000  0.12086000  0.11562000  1.0
  Sn  Sn8  1  0.00000000  0.00000000  0.89692000  1.0
  Sn  Sn9  1  0.00216000  0.50044000  0.02995000  1.0
  Sn  Sn10  1  0.50000000  0.50000000  0.89692000  1.0
  Sn  Sn11  1  0.50170000  0.99958000  0.02982000  1.0
  Ge  Ge12  1  0.24214000  0.25953000  0.09111000  1.0
  Ge  Ge13  1  0.25000000  0.75000000  0.96564000  1.0
  Ge  Ge14  1  0.74335000  0.75845000  0.09047000  1.0
  Ge  Ge15  1  0.75000000  0.25000000  0.96564000  1.0
  C  C16  1  0.28930000  0.15781000  0.24987000  1.0
  O  O17  1  0.23325000  0.29145000  0.27102000  1.0
