# generated using pymatgen
data_YGaCuPd
_symmetry_space_group_name_H-M   Pm
_cell_length_a   6.59466000
_cell_length_b   4.66313000
_cell_length_c   26.99470000
_cell_angle_alpha   90.00000000
_cell_angle_beta   90.00000000
_cell_angle_gamma   90.00000000
_symmetry_Int_Tables_number   6
_chemical_formula_structural   YGaCuPd
_chemical_formula_sum   'Y4 Ga4 Cu4 Pd4'
_cell_volume   830.13445161
_cell_formula_units_Z   4
loop_
 _symmetry_equiv_pos_site_id
 _symmetry_equiv_pos_as_xyz
  1  'x, y, z'
  2  'x, -y, z'
loop_
 _atom_site_type_symbol
 _atom_site_label
 _atom_site_symmetry_multiplicity
 _atom_site_fract_x
 _atom_site_fract_y
 _atom_site_fract_z
 _atom_site_occupancy
  Y  Y0  1  0.25000000  0.00000000  0.04319000  1.0
  Y  Y1  1  0.25414000  0.00000000  0.86014000  1.0
  Y  Y2  1  0.74621000  0.50000000  0.95806000  1.0
  Y  Y3  1  0.75000000  0.50000000  0.12956000  1.0
  Ga  Ga4  1  0.24457000  0.50000000  0.95099000  1.0
  Ga  Ga5  1  0.25000000  0.50000000  0.12956000  1.0
  Ga  Ga6  1  0.75000000  0.00000000  0.04319000  1.0
  Ga  Ga7  1  0.75451000  0.00000000  0.87501000  1.0
  Cu  Cu8  1  0.00000000  0.00000000  0.12956000  1.0
  Cu  Cu9  1  0.02785000  0.00000000  0.94913000  1.0
  Cu  Cu10  1  0.50000000  0.50000000  0.04319000  1.0
  Cu  Cu11  1  0.54085500  0.50000000  0.86729000  1.0
  Pd  Pd12  1  0.00000000  0.50000000  0.04319000  1.0
  Pd  Pd13  1  0.46766000  0.00000000  0.95014000  1.0
  Pd  Pd14  1  0.50000000  0.00000000  0.12956000  1.0
  Pd  Pd15  1  0.97787000  0.50000000  0.87185000  1.0
