# generated using pymatgen
data_Li8Cu16Ge8C
_symmetry_space_group_name_H-M   'P 1'
_cell_length_a   5.94410000
_cell_length_b   8.40623000
_cell_length_c   26.30470000
_cell_angle_alpha   90.00000000
_cell_angle_beta   90.00000000
_cell_angle_gamma   90.00000000
_symmetry_Int_Tables_number   1
_chemical_formula_structural   Li8Cu16Ge8C
_chemical_formula_sum   'Li8 Cu16 Ge8 C1'
_cell_volume   1314.37935396
_cell_formula_units_Z   1
loop_
 _symmetry_equiv_pos_site_id
 _symmetry_equiv_pos_as_xyz
  1  'x, y, z'
loop_
 _atom_site_type_symbol
 _atom_site_label
 _atom_site_symmetry_multiplicity
 _atom_site_fract_x
 _atom_site_fract_y
 _atom_site_fract_z
 _atom_site_occupancy
  Li  Li0  1  0.00000000  0.00000000  0.88016000  1.0
  Li  Li1  1  0.50000000  0.25000000  0.96005000  1.0
  Li  Li2  1  0.50000000  0.75000000  0.96005000  1.0
  Li  Li3  1  0.00000000  0.50000000  0.88016000  1.0
  Li  Li4  1  0.00000000  0.50000000  0.03545000  1.0
  Li  Li5  1  0.50000000  0.75551000  0.13508000  1.0
  Li  Li6  1  0.50000000  0.24449000  0.13508000  1.0
  Li  Li7  1  0.00000000  0.00000000  0.04030000  1.0
  Cu  Cu8  1  0.25000000  0.00000000  0.96005000  1.0
  Cu  Cu9  1  0.75000000  0.50000000  0.96005000  1.0
  Cu  Cu10  1  0.75000000  0.00000000  0.96005000  1.0
  Cu  Cu11  1  0.25000000  0.50000000  0.96005000  1.0
  Cu  Cu12  1  0.75000000  0.75000000  0.88016000  1.0
  Cu  Cu13  1  0.25000000  0.25000000  0.88016000  1.0
  Cu  Cu14  1  0.25000000  0.75000000  0.88016000  1.0
  Cu  Cu15  1  0.75000000  0.25000000  0.88016000  1.0
  Cu  Cu16  1  0.23447000  0.50000000  0.11411000  1.0
  Cu  Cu17  1  0.79915000  0.00000000  0.13037000  1.0
  Cu  Cu18  1  0.76553000  0.50000000  0.11411000  1.0
  Cu  Cu19  1  0.20085000  0.00000000  0.13037000  1.0
  Cu  Cu20  1  0.76132000  0.25299000  0.04491000  1.0
  Cu  Cu21  1  0.23868000  0.74701000  0.04491000  1.0
  Cu  Cu22  1  0.23868000  0.25299000  0.04491000  1.0
  Cu  Cu23  1  0.76132000  0.74701000  0.04491000  1.0
  Ge  Ge24  1  0.00000000  0.75000000  0.96005000  1.0
  Ge  Ge25  1  0.50000000  0.00000000  0.88016000  1.0
  Ge  Ge26  1  0.00000000  0.25000000  0.96005000  1.0
  Ge  Ge27  1  0.50000000  0.50000000  0.88016000  1.0
  Ge  Ge28  1  0.00000000  0.25853000  0.12813000  1.0
  Ge  Ge29  1  0.50000000  0.50000000  0.04075000  1.0
  Ge  Ge30  1  0.00000000  0.74147000  0.12813000  1.0
  Ge  Ge31  1  0.50000000  0.00000000  0.03559000  1.0
  C  C32  1  0.50000000  0.00000000  0.10985000  1.0
