# generated using pymatgen
data_Li8Cu16Ge8C
_symmetry_space_group_name_H-M   Pmm2
_cell_length_a   5.94410000
_cell_length_b   8.40623000
_cell_length_c   26.30470000
_cell_angle_alpha   90.00000000
_cell_angle_beta   90.00000000
_cell_angle_gamma   90.00000000
_symmetry_Int_Tables_number   25
_chemical_formula_structural   Li8Cu16Ge8C
_chemical_formula_sum   'Li8 Cu16 Ge8 C1'
_cell_volume   1314.37935396
_cell_formula_units_Z   1
loop_
 _symmetry_equiv_pos_site_id
 _symmetry_equiv_pos_as_xyz
  1  'x, y, z'
  2  '-x, -y, z'
  3  '-x, y, z'
  4  'x, -y, z'
loop_
 _atom_site_type_symbol
 _atom_site_label
 _atom_site_symmetry_multiplicity
 _atom_site_fract_x
 _atom_site_fract_y
 _atom_site_fract_z
 _atom_site_occupancy
  Li  Li0  2  0.50000000  0.24449000  0.13508000  1.0
  Li  Li1  2  0.50000000  0.25000000  0.96005000  1.0
  Li  Li2  1  0.00000000  0.00000000  0.04030000  1.0
  Li  Li3  1  0.00000000  0.00000000  0.88016000  1.0
  Li  Li4  1  0.00000000  0.50000000  0.03545000  1.0
  Li  Li5  1  0.00000000  0.50000000  0.88016000  1.0
  Cu  Cu6  4  0.23868000  0.25299000  0.04491000  1.0
  Cu  Cu7  4  0.25000000  0.25000000  0.88016000  1.0
  Cu  Cu8  2  0.20085000  0.00000000  0.13037000  1.0
  Cu  Cu9  2  0.23447000  0.50000000  0.11411000  1.0
  Cu  Cu10  2  0.25000000  0.00000000  0.96005000  1.0
  Cu  Cu11  2  0.25000000  0.50000000  0.96005000  1.0
  Ge  Ge12  2  0.00000000  0.25000000  0.96005000  1.0
  Ge  Ge13  2  0.00000000  0.25853000  0.12813000  1.0
  Ge  Ge14  1  0.50000000  0.00000000  0.03559000  1.0
  Ge  Ge15  1  0.50000000  0.00000000  0.88016000  1.0
  Ge  Ge16  1  0.50000000  0.50000000  0.04075000  1.0
  Ge  Ge17  1  0.50000000  0.50000000  0.88016000  1.0
  C  C18  1  0.50000000  0.00000000  0.10985000  1.0
