data_image0
_chemical_formula_structural       FeIr3FeIr3FeIr3FeIr3CO
_chemical_formula_sum              "Fe4 Ir12 C1 O1"
_cell_length_a       7.75552
_cell_length_b       5.48398
_cell_length_c       24.113
_cell_angle_alpha    90
_cell_angle_beta     90
_cell_angle_gamma    90

_space_group_name_H-M_alt    "P 1"
_space_group_IT_number       1

loop_
  _space_group_symop_operation_xyz
  'x, y, z'

loop_
  _atom_site_type_symbol
  _atom_site_label
  _atom_site_symmetry_multiplicity
  _atom_site_fract_x
  _atom_site_fract_y
  _atom_site_fract_z
  _atom_site_occupancy
  Fe  Fe1       1.0  0.00000  0.00000  0.08529  1.0000
  Ir  Ir1       1.0  0.00000  0.50000  0.08529  1.0000
  Ir  Ir2       1.0  0.25000  0.75000  0.02843  1.0000
  Ir  Ir3       1.0  0.25000  0.25000  0.02843  1.0000
  Fe  Fe2       1.0  0.00000  0.50000  0.97157  1.0000
  Ir  Ir4       1.0  0.00000  0.00000  0.97157  1.0000
  Ir  Ir5       1.0  0.25000  0.25000  0.91471  1.0000
  Ir  Ir6       1.0  0.25000  0.75000  0.91471  1.0000
  Fe  Fe3       1.0  0.50000  0.00000  0.08529  1.0000
  Ir  Ir7       1.0  0.50000  0.50000  0.08529  1.0000
  Ir  Ir8       1.0  0.75000  0.75000  0.02843  1.0000
  Ir  Ir9       1.0  0.75000  0.25000  0.02843  1.0000
  Fe  Fe4       1.0  0.50000  0.50000  0.97157  1.0000
  Ir  Ir10      1.0  0.50000  0.00000  0.97157  1.0000
  Ir  Ir11      1.0  0.75000  0.25000  0.91471  1.0000
  Ir  Ir12      1.0  0.75000  0.75000  0.91471  1.0000
  C   C1        1.0  0.00000  0.00000  0.16408  1.0000
  O   O1        1.0  0.00000  0.00000  0.21177  1.0000
