data_image0
_chemical_formula_structural       Zr16Co16
_chemical_formula_sum              "Zr16 Co16"
_cell_length_a       6.40088
_cell_length_b       9.05221
_cell_length_c       26.7892
_cell_angle_alpha    90
_cell_angle_beta     90
_cell_angle_gamma    90

_space_group_name_H-M_alt    "P 1"
_space_group_IT_number       1

loop_
  _space_group_symop_operation_xyz
  'x, y, z'

loop_
  _atom_site_type_symbol
  _atom_site_label
  _atom_site_symmetry_multiplicity
  _atom_site_fract_x
  _atom_site_fract_y
  _atom_site_fract_z
  _atom_site_occupancy
  Zr  Zr1       1.0  0.00000  0.00000  0.87329  1.0000
  Zr  Zr2       1.0  0.00000  0.25000  0.95776  1.0000
  Zr  Zr3       1.0  0.00000  0.00000  0.04398  1.0000
  Zr  Zr4       1.0  0.00000  0.25000  0.12812  1.0000
  Zr  Zr5       1.0  0.00000  0.50000  0.87329  1.0000
  Zr  Zr6       1.0  0.00000  0.75000  0.95776  1.0000
  Zr  Zr7       1.0  0.00000  0.50000  0.04398  1.0000
  Zr  Zr8       1.0  0.00000  0.75000  0.12812  1.0000
  Zr  Zr9       1.0  0.50000  0.00000  0.87329  1.0000
  Zr  Zr10      1.0  0.50000  0.25000  0.95776  1.0000
  Zr  Zr11      1.0  0.50000  0.00000  0.04398  1.0000
  Zr  Zr12      1.0  0.50000  0.25000  0.12812  1.0000
  Zr  Zr13      1.0  0.50000  0.50000  0.87329  1.0000
  Zr  Zr14      1.0  0.50000  0.75000  0.95776  1.0000
  Zr  Zr15      1.0  0.50000  0.50000  0.04398  1.0000
  Zr  Zr16      1.0  0.50000  0.75000  0.12812  1.0000
  Co  Co1       1.0  0.25000  0.25000  0.87329  1.0000
  Co  Co2       1.0  0.25000  0.00000  0.95776  1.0000
  Co  Co3       1.0  0.25000  0.25000  0.04303  1.0000
  Co  Co4       1.0  0.25000  0.50000  0.12290  1.0000
  Co  Co5       1.0  0.25000  0.75000  0.87329  1.0000
  Co  Co6       1.0  0.25000  0.50000  0.95776  1.0000
  Co  Co7       1.0  0.25000  0.75000  0.04303  1.0000
  Co  Co8       1.0  0.25000  0.00000  0.12290  1.0000
  Co  Co9       1.0  0.75000  0.25000  0.87329  1.0000
  Co  Co10      1.0  0.75000  0.00000  0.95776  1.0000
  Co  Co11      1.0  0.75000  0.25000  0.04303  1.0000
  Co  Co12      1.0  0.75000  0.50000  0.12290  1.0000
  Co  Co13      1.0  0.75000  0.75000  0.87329  1.0000
  Co  Co14      1.0  0.75000  0.50000  0.95776  1.0000
  Co  Co15      1.0  0.75000  0.75000  0.04303  1.0000
  Co  Co16      1.0  0.75000  0.00000  0.12290  1.0000
