# generated using pymatgen
data_ZrCo
_symmetry_space_group_name_H-M   'P 1'
_cell_length_a   3.20044000
_cell_length_b   4.52610500
_cell_length_c   26.78920000
_cell_angle_alpha   90.00000000
_cell_angle_beta   90.00000000
_cell_angle_gamma   90.00000000
_symmetry_Int_Tables_number   1
_chemical_formula_structural   ZrCo
_chemical_formula_sum   'Zr4 Co4'
_cell_volume   388.05569293
_cell_formula_units_Z   4
loop_
 _symmetry_equiv_pos_site_id
 _symmetry_equiv_pos_as_xyz
  1  'x, y, z'
loop_
 _atom_site_type_symbol
 _atom_site_label
 _atom_site_symmetry_multiplicity
 _atom_site_fract_x
 _atom_site_fract_y
 _atom_site_fract_z
 _atom_site_occupancy
  Zr  Zr0  1  0.00000000  0.00000000  0.87329000  1.0
  Zr  Zr1  1  0.00000000  0.50000000  0.95776000  1.0
  Zr  Zr2  1  0.00000000  0.00000000  0.04398000  1.0
  Zr  Zr3  1  0.00000000  0.50000000  0.12812000  1.0
  Co  Co4  1  0.50000000  0.50000000  0.87329000  1.0
  Co  Co5  1  0.50000000  0.00000000  0.95776000  1.0
  Co  Co6  1  0.50000000  0.50000000  0.04303000  1.0
  Co  Co7  1  0.50000000  0.00000000  0.12290000  1.0
