data_image0
_chemical_formula_structural       Ti8In8Ni16CO
_chemical_formula_sum              "Ti8 In8 Ni16 C1 O1"
_cell_length_a       6.16408
_cell_length_b       8.71733
_cell_length_c       26.538
_cell_angle_alpha    90
_cell_angle_beta     90
_cell_angle_gamma    90

_space_group_name_H-M_alt    "P 1"
_space_group_IT_number       1

loop_
  _space_group_symop_operation_xyz
  'x, y, z'

loop_
  _atom_site_type_symbol
  _atom_site_label
  _atom_site_symmetry_multiplicity
  _atom_site_fract_x
  _atom_site_fract_y
  _atom_site_fract_z
  _atom_site_occupancy
  Ti  Ti1       1.0  0.00000  0.00000  0.87682  1.0000
  Ti  Ti2       1.0  0.50000  0.25000  0.95894  1.0000
  Ti  Ti3       1.0  0.50000  0.75000  0.95894  1.0000
  Ti  Ti4       1.0  0.00000  0.50000  0.87682  1.0000
  Ti  Ti5       1.0  0.00000  0.50101  0.04412  1.0000
  Ti  Ti6       1.0  0.50000  0.75000  0.11915  1.0000
  Ti  Ti7       1.0  0.50000  0.25000  0.11946  1.0000
  Ti  Ti8       1.0  1.00000  0.99899  0.04412  1.0000
  In  In1       1.0  0.00000  0.75000  0.95894  1.0000
  In  In2       1.0  0.50000  0.00000  0.87682  1.0000
  In  In3       1.0  0.00000  0.25000  0.95894  1.0000
  In  In4       1.0  0.50000  0.50000  0.87682  1.0000
  In  In5       1.0  1.00000  0.25000  0.13288  1.0000
  In  In6       1.0  0.50000  0.49740  0.03846  1.0000
  In  In7       1.0  0.00000  0.75001  0.13370  1.0000
  In  In8       1.0  0.50000  0.00259  0.03846  1.0000
  Ni  Ni1       1.0  0.25000  0.00000  0.95894  1.0000
  Ni  Ni2       1.0  0.75000  0.50000  0.95894  1.0000
  Ni  Ni3       1.0  0.75000  0.00000  0.95894  1.0000
  Ni  Ni4       1.0  0.25000  0.50000  0.95894  1.0000
  Ni  Ni5       1.0  0.75000  0.75000  0.87682  1.0000
  Ni  Ni6       1.0  0.25000  0.25000  0.87682  1.0000
  Ni  Ni7       1.0  0.25000  0.75000  0.87682  1.0000
  Ni  Ni8       1.0  0.75000  0.25000  0.87682  1.0000
  Ni  Ni9       1.0  0.25512  0.50167  0.11800  1.0000
  Ni  Ni10      1.0  0.74485  0.99834  0.11800  1.0000
  Ni  Ni11      1.0  0.74488  0.50167  0.11800  1.0000
  Ni  Ni12      1.0  0.25515  0.99834  0.11800  1.0000
  Ni  Ni13      1.0  0.76483  0.24999  0.04294  1.0000
  Ni  Ni14      1.0  0.24571  0.75001  0.04429  1.0000
  Ni  Ni15      1.0  0.23517  0.24999  0.04294  1.0000
  Ni  Ni16      1.0  0.75429  0.75001  0.04429  1.0000
  C   C1        1.0  0.50000  0.25000  0.19960  1.0000
  O   O1        1.0  0.50000  0.25000  0.24304  1.0000
