# generated using pymatgen
data_Li8Y8Cu8Ge8CO
_symmetry_space_group_name_H-M   'P 1'
_cell_length_a   6.66034000
_cell_length_b   9.41914000
_cell_length_c   27.06440000
_cell_angle_alpha   90.00000000
_cell_angle_beta   90.00000000
_cell_angle_gamma   90.00000000
_symmetry_Int_Tables_number   1
_chemical_formula_structural   Li8Y8Cu8Ge8CO
_chemical_formula_sum   'Li8 Y8 Cu8 Ge8 C1 O1'
_cell_volume   1697.87633557
_cell_formula_units_Z   1
loop_
 _symmetry_equiv_pos_site_id
 _symmetry_equiv_pos_as_xyz
  1  'x, y, z'
loop_
 _atom_site_type_symbol
 _atom_site_label
 _atom_site_symmetry_multiplicity
 _atom_site_fract_x
 _atom_site_fract_y
 _atom_site_fract_z
 _atom_site_occupancy
  Li  Li0  1  0.75000000  0.00000000  0.95650000  1.0
  Li  Li1  1  0.75000000  0.50000000  0.95650000  1.0
  Li  Li2  1  0.25000000  0.25000000  0.86949000  1.0
  Li  Li3  1  0.25000000  0.75000000  0.86949000  1.0
  Li  Li4  1  0.75627000  0.49997000  0.12803000  1.0
  Li  Li5  1  0.74944000  0.99959000  0.13197000  1.0
  Li  Li6  1  0.23652000  0.75197000  0.03893000  1.0
  Li  Li7  1  0.23692000  0.24758000  0.04063000  1.0
  Y  Y8  1  0.25000000  0.00000000  0.95650000  1.0
  Y  Y9  1  0.25000000  0.50000000  0.95650000  1.0
  Y  Y10  1  0.75000000  0.25000000  0.86949000  1.0
  Y  Y11  1  0.75000000  0.75000000  0.86949000  1.0
  Y  Y12  1  0.23948000  0.49802000  0.14938000  1.0
  Y  Y13  1  0.26044000  0.00173000  0.14954000  1.0
  Y  Y14  1  0.75023000  0.74861000  0.04295000  1.0
  Y  Y15  1  0.75041000  0.25111000  0.04295000  1.0
  Cu  Cu16  1  0.00000000  0.00000000  0.86949000  1.0
  Cu  Cu17  1  0.00000000  0.50000000  0.86949000  1.0
  Cu  Cu18  1  0.50000000  0.75000000  0.95650000  1.0
  Cu  Cu19  1  0.50000000  0.25000000  0.95650000  1.0
  Cu  Cu20  1  0.04935000  0.50111000  0.05678000  1.0
  Cu  Cu21  1  0.04536000  0.99884000  0.05941000  1.0
  Cu  Cu22  1  0.45042000  0.25689000  0.11648000  1.0
  Cu  Cu23  1  0.44113000  0.74329000  0.11502000  1.0
  Ge  Ge24  1  0.00000000  0.25000000  0.95650000  1.0
  Ge  Ge25  1  0.00000000  0.75000000  0.95650000  1.0
  Ge  Ge26  1  0.50000000  0.50000000  0.86949000  1.0
  Ge  Ge27  1  0.50000000  0.00000000  0.86949000  1.0
  Ge  Ge28  1  0.01623000  0.75384000  0.12900000  1.0
  Ge  Ge29  1  0.00886000  0.24555000  0.13018000  1.0
  Ge  Ge30  1  0.47808000  0.99934000  0.05487000  1.0
  Ge  Ge31  1  0.46903000  0.50038000  0.05650000  1.0
  C  C32  1  0.62139000  0.00074000  0.20322000  1.0
  O  O33  1  0.60000000  0.00106000  0.24581000  1.0
