# generated using pymatgen
data_K24Bi8CO
_symmetry_space_group_name_H-M   'P 1'
_cell_length_a   12.50030000
_cell_length_b   8.83903000
_cell_length_c   29.37520000
_cell_angle_alpha   90.00000000
_cell_angle_beta   90.00000000
_cell_angle_gamma   90.00000000
_symmetry_Int_Tables_number   1
_chemical_formula_structural   K24Bi8CO
_chemical_formula_sum   'K24 Bi8 C1 O1'
_cell_volume   3245.68132018
_cell_formula_units_Z   1
loop_
 _symmetry_equiv_pos_site_id
 _symmetry_equiv_pos_as_xyz
  1  'x, y, z'
loop_
 _atom_site_type_symbol
 _atom_site_label
 _atom_site_symmetry_multiplicity
 _atom_site_fract_x
 _atom_site_fract_y
 _atom_site_fract_z
 _atom_site_occupancy
  K  K0  1  0.00000000  0.25000000  0.05319000  1.0
  K  K1  1  0.50000000  0.75000000  0.05319000  1.0
  K  K2  1  0.00000000  0.75000000  0.05319000  1.0
  K  K3  1  0.50000000  0.25000000  0.05319000  1.0
  K  K4  1  0.75000000  0.75000000  0.15958000  1.0
  K  K5  1  0.25000000  0.25000000  0.15958000  1.0
  K  K6  1  0.75000000  0.25000000  0.15958000  1.0
  K  K7  1  0.25000000  0.75000000  0.15958000  1.0
  K  K8  1  0.75000000  0.00000000  0.05319000  1.0
  K  K9  1  0.00000000  0.50000000  0.15958000  1.0
  K  K10  1  0.25000000  0.00000000  0.05319000  1.0
  K  K11  1  0.50000000  0.50000000  0.15958000  1.0
  K  K12  1  0.50000000  0.27755000  0.82246000  1.0
  K  K13  1  0.00000000  0.69670000  0.81223000  1.0
  K  K14  1  0.50000000  0.71938000  0.82402000  1.0
  K  K15  1  0.00000000  0.26766000  0.83891000  1.0
  K  K16  1  0.26005000  0.74801000  0.94845000  1.0
  K  K17  1  0.75711000  0.25611000  0.95006000  1.0
  K  K18  1  0.24289000  0.25611000  0.95006000  1.0
  K  K19  1  0.73995000  0.74801000  0.94845000  1.0
  K  K20  1  0.24802000  0.00145000  0.85194000  1.0
  K  K21  1  0.50000000  0.48080000  0.93496000  1.0
  K  K22  1  0.75198000  0.00145000  0.85194000  1.0
  K  K23  1  0.00000000  0.54689000  0.93674000  1.0
  Bi  Bi24  1  0.00000000  0.00000000  0.15958000  1.0
  Bi  Bi25  1  0.25000000  0.50000000  0.05319000  1.0
  Bi  Bi26  1  0.75000000  0.50000000  0.05319000  1.0
  Bi  Bi27  1  0.50000000  0.00000000  0.15958000  1.0
  Bi  Bi28  1  0.50000000  0.00823000  0.93680000  1.0
  Bi  Bi29  1  0.75038000  0.49727000  0.84835000  1.0
  Bi  Bi30  1  0.24962000  0.49727000  0.84835000  1.0
  Bi  Bi31  1  0.00000000  0.99159000  0.94035000  1.0
  C  C32  1  0.00000000  0.22842000  0.73589000  1.0
  O  O33  1  0.00000000  0.24784000  0.69745000  1.0
