# generated using pymatgen
data_K24Bi8CO
_symmetry_space_group_name_H-M   Pm
_cell_length_a   8.83903000
_cell_length_b   12.50030000
_cell_length_c   29.37520000
_cell_angle_alpha   90.00000000
_cell_angle_beta   90.00000000
_cell_angle_gamma   90.00000000
_symmetry_Int_Tables_number   6
_chemical_formula_structural   K24Bi8CO
_chemical_formula_sum   'K24 Bi8 C1 O1'
_cell_volume   3245.68132018
_cell_formula_units_Z   1
loop_
 _symmetry_equiv_pos_site_id
 _symmetry_equiv_pos_as_xyz
  1  'x, y, z'
  2  'x, -y, z'
loop_
 _atom_site_type_symbol
 _atom_site_label
 _atom_site_symmetry_multiplicity
 _atom_site_fract_x
 _atom_site_fract_y
 _atom_site_fract_z
 _atom_site_occupancy
  K  K0  2  0.00000000  0.25000000  0.94681000  1.0
  K  K1  2  0.00145000  0.24802000  0.14806000  1.0
  K  K2  2  0.25000000  0.25000000  0.84042000  1.0
  K  K3  2  0.25611000  0.24289000  0.04994000  1.0
  K  K4  2  0.74801000  0.26005000  0.05155000  1.0
  K  K5  2  0.75000000  0.25000000  0.84042000  1.0
  K  K6  1  0.25000000  0.00000000  0.94681000  1.0
  K  K7  1  0.25000000  0.50000000  0.94681000  1.0
  K  K8  1  0.26766000  0.00000000  0.16109000  1.0
  K  K9  1  0.27755000  0.50000000  0.17754000  1.0
  K  K10  1  0.48080000  0.50000000  0.06504000  1.0
  K  K11  1  0.50000000  0.00000000  0.84042000  1.0
  K  K12  1  0.50000000  0.50000000  0.84042000  1.0
  K  K13  1  0.54689000  0.00000000  0.06326000  1.0
  K  K14  1  0.69670000  0.00000000  0.18777000  1.0
  K  K15  1  0.71938000  0.50000000  0.17598000  1.0
  K  K16  1  0.75000000  0.00000000  0.94681000  1.0
  K  K17  1  0.75000000  0.50000000  0.94681000  1.0
  Bi  Bi18  2  0.49727000  0.24962000  0.15165000  1.0
  Bi  Bi19  2  0.50000000  0.25000000  0.94681000  1.0
  Bi  Bi20  1  0.00000000  0.00000000  0.84042000  1.0
  Bi  Bi21  1  0.00000000  0.50000000  0.84042000  1.0
  Bi  Bi22  1  0.00823000  0.50000000  0.06320000  1.0
  Bi  Bi23  1  0.99159000  0.00000000  0.05965000  1.0
  C  C24  1  0.22842000  0.00000000  0.26411000  1.0
  O  O25  1  0.24784000  0.00000000  0.30255000  1.0
