# generated using pymatgen
data_Hf8Co16Sn8C
_symmetry_space_group_name_H-M   Pm
_cell_length_a   6.26570000
_cell_length_b   8.86104000
_cell_length_c   26.64580000
_cell_angle_alpha   90.00000000
_cell_angle_beta   90.00000000
_cell_angle_gamma   90.00000000
_symmetry_Int_Tables_number   6
_chemical_formula_structural   Hf8Co16Sn8C
_chemical_formula_sum   'Hf8 Co16 Sn8 C1'
_cell_volume   1479.39129184
_cell_formula_units_Z   1
loop_
 _symmetry_equiv_pos_site_id
 _symmetry_equiv_pos_as_xyz
  1  'x, y, z'
  2  'x, -y, z'
loop_
 _atom_site_type_symbol
 _atom_site_label
 _atom_site_symmetry_multiplicity
 _atom_site_fract_x
 _atom_site_fract_y
 _atom_site_fract_z
 _atom_site_occupancy
  Hf  Hf0  2  0.00000000  0.25002000  0.87529000  1.0
  Hf  Hf1  2  0.99685000  0.24738000  0.04355000  1.0
  Hf  Hf2  1  0.50000000  0.00000000  0.95843000  1.0
  Hf  Hf3  1  0.50000000  0.50000000  0.95843000  1.0
  Hf  Hf4  1  0.50441000  0.50000000  0.12455000  1.0
  Hf  Hf5  1  0.54194000  0.00000000  0.11664000  1.0
  Co  Co6  2  0.20839000  0.20551000  0.12396000  1.0
  Co  Co7  2  0.25000000  0.25002000  0.95843000  1.0
  Co  Co8  2  0.75000000  0.24998000  0.95843000  1.0
  Co  Co9  2  0.75843000  0.25693000  0.12151000  1.0
  Co  Co10  1  0.24994000  0.00000000  0.04284000  1.0
  Co  Co11  1  0.25000000  0.00000000  0.87529000  1.0
  Co  Co12  1  0.25000000  0.50000000  0.87529000  1.0
  Co  Co13  1  0.25613000  0.50000000  0.04221000  1.0
  Co  Co14  1  0.74665000  0.50000000  0.04500000  1.0
  Co  Co15  1  0.75000000  0.00000000  0.87529000  1.0
  Co  Co16  1  0.75000000  0.50000000  0.87529000  1.0
  Co  Co17  1  0.75315000  0.00000000  0.03694000  1.0
  Sn  Sn18  2  0.49855000  0.25269000  0.04192000  1.0
  Sn  Sn19  2  0.50000000  0.25002000  0.87529000  1.0
  Sn  Sn20  1  0.00000000  0.00000000  0.95843000  1.0
  Sn  Sn21  1  0.00000000  0.50000000  0.95843000  1.0
  Sn  Sn22  1  0.01294000  0.50000000  0.13175000  1.0
  Sn  Sn23  1  0.90877000  0.00000000  0.18290000  1.0
  C  C24  1  0.21219000  0.00000000  0.13678000  1.0
