# generated using pymatgen
data_Zr8Pt8CO
_symmetry_space_group_name_H-M   'P 1'
_cell_length_a   6.75388000
_cell_length_b   6.75388000
_cell_length_c   25.06540000
_cell_angle_alpha   90.00000000
_cell_angle_beta   90.00000000
_cell_angle_gamma   90.00000000
_symmetry_Int_Tables_number   1
_chemical_formula_structural   Zr8Pt8CO
_chemical_formula_sum   'Zr8 Pt8 C1 O1'
_cell_volume   1143.35559050
_cell_formula_units_Z   1
loop_
 _symmetry_equiv_pos_site_id
 _symmetry_equiv_pos_as_xyz
  1  'x, y, z'
loop_
 _atom_site_type_symbol
 _atom_site_label
 _atom_site_symmetry_multiplicity
 _atom_site_fract_x
 _atom_site_fract_y
 _atom_site_fract_z
 _atom_site_occupancy
  Zr  Zr0  1  0.75000000  0.75000000  0.91117000  1.0
  Zr  Zr1  1  0.75000000  0.75000000  0.04590000  1.0
  Zr  Zr2  1  0.75000000  0.25000000  0.91117000  1.0
  Zr  Zr3  1  0.75000000  0.25000000  0.04590000  1.0
  Zr  Zr4  1  0.25000000  0.75000000  0.91117000  1.0
  Zr  Zr5  1  0.25000000  0.75000000  0.04590000  1.0
  Zr  Zr6  1  0.25000000  0.25000000  0.91117000  1.0
  Zr  Zr7  1  0.25000000  0.25000000  0.04590000  1.0
  Pt  Pt8  1  0.00000000  0.00000000  0.97854000  1.0
  Pt  Pt9  1  0.00000000  0.00000000  0.11326000  1.0
  Pt  Pt10  1  0.00000000  0.50000000  0.97854000  1.0
  Pt  Pt11  1  0.00000000  0.50000000  0.11326000  1.0
  Pt  Pt12  1  0.50000000  0.00000000  0.97854000  1.0
  Pt  Pt13  1  0.50000000  0.00000000  0.11326000  1.0
  Pt  Pt14  1  0.50000000  0.50000000  0.97854000  1.0
  Pt  Pt15  1  0.50000000  0.50000000  0.11326000  1.0
  C  C16  1  0.00000000  0.00000000  0.18906000  1.0
  O  O17  1  0.00000000  0.00000000  0.23494000  1.0
