# generated using pymatgen
data_Mg4Pd12C
_symmetry_space_group_name_H-M   'P 1'
_cell_length_a   5.68257000
_cell_length_b   8.03636000
_cell_length_c   24.26190000
_cell_angle_alpha   90.00000000
_cell_angle_beta   90.00000000
_cell_angle_gamma   90.00000000
_symmetry_Int_Tables_number   1
_chemical_formula_structural   Mg4Pd12C
_chemical_formula_sum   'Mg4 Pd12 C1'
_cell_volume   1107.97251187
_cell_formula_units_Z   1
loop_
 _symmetry_equiv_pos_site_id
 _symmetry_equiv_pos_as_xyz
  1  'x, y, z'
loop_
 _atom_site_type_symbol
 _atom_site_label
 _atom_site_symmetry_multiplicity
 _atom_site_fract_x
 _atom_site_fract_y
 _atom_site_fract_z
 _atom_site_occupancy
  Mg  Mg0  1  0.00000000  0.00000000  0.08783000  1.0
  Mg  Mg1  1  0.50000000  0.00000000  0.98444000  1.0
  Mg  Mg2  1  0.00000000  0.50000000  0.08783000  1.0
  Mg  Mg3  1  0.50000000  0.50000000  0.96760000  1.0
  Pd  Pd4  1  0.50000000  0.00000000  0.08783000  1.0
  Pd  Pd5  1  0.75000000  0.25000000  0.02928000  1.0
  Pd  Pd6  1  0.25000000  0.25000000  0.02928000  1.0
  Pd  Pd7  1  0.00000000  0.00000000  0.98050000  1.0
  Pd  Pd8  1  0.25967000  0.18208000  0.90618000  1.0
  Pd  Pd9  1  0.74033000  0.18208000  0.90618000  1.0
  Pd  Pd10  1  0.50000000  0.50000000  0.08783000  1.0
  Pd  Pd11  1  0.75000000  0.75000000  0.02928000  1.0
  Pd  Pd12  1  0.25000000  0.75000000  0.02928000  1.0
  Pd  Pd13  1  0.00000000  0.50000000  0.96378000  1.0
  Pd  Pd14  1  0.25967000  0.81792000  0.90618000  1.0
  Pd  Pd15  1  0.74033000  0.81792000  0.90618000  1.0
  C  C16  1  0.50000000  0.00000000  0.88839000  1.0
