data_image0
_chemical_formula_structural       Li8Ga8Cu8Pd8C
_chemical_formula_sum              "Li8 Ga8 Cu8 Pd8 C1"
_cell_length_a       6.02537
_cell_length_b       8.52116
_cell_length_c       26.3909
_cell_angle_alpha    90
_cell_angle_beta     90
_cell_angle_gamma    90

_space_group_name_H-M_alt    "P 1"
_space_group_IT_number       1

loop_
  _space_group_symop_operation_xyz
  'x, y, z'

loop_
  _atom_site_type_symbol
  _atom_site_label
  _atom_site_symmetry_multiplicity
  _atom_site_fract_x
  _atom_site_fract_y
  _atom_site_fract_z
  _atom_site_occupancy
  Li  Li1       1.0  0.25000  0.00000  0.95964  1.0000
  Li  Li2       1.0  0.25000  0.50000  0.95964  1.0000
  Li  Li3       1.0  0.75000  0.25000  0.87892  1.0000
  Li  Li4       1.0  0.75000  0.75000  0.87892  1.0000
  Li  Li5       1.0  0.24061  0.49816  0.13246  1.0000
  Li  Li6       1.0  0.24061  0.00184  0.13246  1.0000
  Li  Li7       1.0  0.74803  0.75000  0.03640  1.0000
  Li  Li8       1.0  0.77406  0.25000  0.04833  1.0000
  Ga  Ga1       1.0  0.75000  0.00000  0.95964  1.0000
  Ga  Ga2       1.0  0.75000  0.50000  0.95964  1.0000
  Ga  Ga3       1.0  0.25000  0.25000  0.87892  1.0000
  Ga  Ga4       1.0  0.25000  0.75000  0.87892  1.0000
  Ga  Ga5       1.0  0.74273  0.50774  0.12898  1.0000
  Ga  Ga6       1.0  0.74273  0.99226  0.12898  1.0000
  Ga  Ga7       1.0  0.25574  0.75000  0.04034  1.0000
  Ga  Ga8       1.0  0.25474  0.25000  0.03605  1.0000
  Cu  Cu1       1.0  0.00000  0.00000  0.87892  1.0000
  Cu  Cu2       1.0  0.00000  0.50000  0.87892  1.0000
  Cu  Cu3       1.0  0.50000  0.75000  0.95964  1.0000
  Cu  Cu4       1.0  0.50000  0.25000  0.95964  1.0000
  Cu  Cu5       1.0  0.00064  0.50898  0.03990  1.0000
  Cu  Cu6       1.0  0.00064  0.99102  0.03990  1.0000
  Cu  Cu7       1.0  0.51862  0.25000  0.12782  1.0000
  Cu  Cu8       1.0  0.51285  0.75000  0.11500  1.0000
  Pd  Pd1       1.0  0.00000  0.25000  0.95964  1.0000
  Pd  Pd2       1.0  0.00000  0.75000  0.95964  1.0000
  Pd  Pd3       1.0  0.50000  0.50000  0.87892  1.0000
  Pd  Pd4       1.0  0.50000  0.00000  0.87892  1.0000
  Pd  Pd5       1.0  0.98385  0.75000  0.11452  1.0000
  Pd  Pd6       1.0  0.93618  0.25000  0.14536  1.0000
  Pd  Pd7       1.0  0.50902  0.00047  0.04226  1.0000
  Pd  Pd8       1.0  0.50902  0.49953  0.04226  1.0000
  C   C1        1.0  0.21986  0.25000  0.10997  1.0000
