# generated using pymatgen
data_Li8Mg8In8Ge8C
_symmetry_space_group_name_H-M   'P 1'
_cell_length_a   8.41850000
_cell_length_b   8.75068000
_cell_length_c   26.30740000
_cell_angle_alpha   90.00000000
_cell_angle_beta   90.00000000
_cell_angle_gamma   90.00000000
_symmetry_Int_Tables_number   1
_chemical_formula_structural   Li8Mg8In8Ge8C
_chemical_formula_sum   'Li8 Mg8 In8 Ge8 C1'
_cell_volume   1938.00300919
_cell_formula_units_Z   1
loop_
 _symmetry_equiv_pos_site_id
 _symmetry_equiv_pos_as_xyz
  1  'x, y, z'
loop_
 _atom_site_type_symbol
 _atom_site_label
 _atom_site_symmetry_multiplicity
 _atom_site_fract_x
 _atom_site_fract_y
 _atom_site_fract_z
 _atom_site_occupancy
  Li  Li0  1  0.99998000  0.74977000  0.96342000  1.0
  Li  Li1  1  0.00000000  0.75000000  0.11988000  1.0
  Li  Li2  1  0.50002000  0.75023000  0.95773000  1.0
  Li  Li3  1  0.50000000  0.75000000  0.11988000  1.0
  Li  Li4  1  0.00001000  0.25037000  0.95989000  1.0
  Li  Li5  1  0.00000000  0.25000000  0.11988000  1.0
  Li  Li6  1  0.49998000  0.25003000  0.95820000  1.0
  Li  Li7  1  0.50000000  0.25000000  0.11988000  1.0
  Mg  Mg8  1  0.74564000  0.99808000  0.95874000  1.0
  Mg  Mg9  1  0.75000000  0.00000000  0.11988000  1.0
  Mg  Mg10  1  0.25432000  0.99805000  0.95873000  1.0
  Mg  Mg11  1  0.25000000  0.00000000  0.11988000  1.0
  Mg  Mg12  1  0.74511000  0.50186000  0.95870000  1.0
  Mg  Mg13  1  0.75000000  0.50000000  0.11988000  1.0
  Mg  Mg14  1  0.25492000  0.50190000  0.95870000  1.0
  Mg  Mg15  1  0.25000000  0.50000000  0.11988000  1.0
  In  In16  1  0.70804000  0.74998000  0.84981000  1.0
  In  In17  1  0.75000000  0.75000000  0.03996000  1.0
  In  In18  1  0.29202000  0.74998000  0.84985000  1.0
  In  In19  1  0.25000000  0.75000000  0.03996000  1.0
  In  In20  1  0.72630000  0.25035000  0.85657000  1.0
  In  In21  1  0.75000000  0.25000000  0.03996000  1.0
  In  In22  1  0.27365000  0.25039000  0.85658000  1.0
  In  In23  1  0.25000000  0.25000000  0.03996000  1.0
  Ge  Ge24  1  0.99994000  0.96889000  0.88706000  1.0
  Ge  Ge25  1  0.00000000  0.00000000  0.03996000  1.0
  Ge  Ge26  1  0.49996000  0.00128000  0.88816000  1.0
  Ge  Ge27  1  0.50000000  0.00000000  0.03996000  1.0
  Ge  Ge28  1  0.99999000  0.52946000  0.88726000  1.0
  Ge  Ge29  1  0.00000000  0.50000000  0.03996000  1.0
  Ge  Ge30  1  0.49996000  0.49912000  0.88822000  1.0
  Ge  Ge31  1  0.50000000  0.50000000  0.03996000  1.0
  C  C32  1  0.00021000  0.74922000  0.88166000  1.0
