# generated using pymatgen
data_Li16Ge8Pd8C
_symmetry_space_group_name_H-M   'P 1'
_cell_length_a   8.62534000
_cell_length_b   6.09904000
_cell_length_c   26.46900000
_cell_angle_alpha   90.00000000
_cell_angle_beta   90.00000000
_cell_angle_gamma   90.00000000
_symmetry_Int_Tables_number   1
_chemical_formula_structural   Li16Ge8Pd8C
_chemical_formula_sum   'Li16 Ge8 Pd8 C1'
_cell_volume   1392.43598725
_cell_formula_units_Z   1
loop_
 _symmetry_equiv_pos_site_id
 _symmetry_equiv_pos_as_xyz
  1  'x, y, z'
loop_
 _atom_site_type_symbol
 _atom_site_label
 _atom_site_symmetry_multiplicity
 _atom_site_fract_x
 _atom_site_fract_y
 _atom_site_fract_z
 _atom_site_occupancy
  Li  Li0  1  0.75000000  0.25000000  0.04073000  1.0
  Li  Li1  1  0.25000000  0.75000000  0.04073000  1.0
  Li  Li2  1  0.75000000  0.75000000  0.04073000  1.0
  Li  Li3  1  0.25000000  0.25000000  0.04073000  1.0
  Li  Li4  1  0.50000000  0.75000000  0.12220000  1.0
  Li  Li5  1  0.00000000  0.25000000  0.12220000  1.0
  Li  Li6  1  0.50000000  0.25000000  0.12220000  1.0
  Li  Li7  1  0.00000000  0.75000000  0.12220000  1.0
  Li  Li8  1  0.24039000  0.24653000  0.86503000  1.0
  Li  Li9  1  0.72135000  0.76156000  0.86752000  1.0
  Li  Li10  1  0.27865000  0.76156000  0.86752000  1.0
  Li  Li11  1  0.75961000  0.24653000  0.86503000  1.0
  Li  Li12  1  0.00000000  0.75784000  0.96179000  1.0
  Li  Li13  1  0.50000000  0.25802000  0.96807000  1.0
  Li  Li14  1  0.00000000  0.23873000  0.95156000  1.0
  Li  Li15  1  0.50000000  0.74425000  0.96115000  1.0
  Ge  Ge16  1  0.75000000  0.00000000  0.12220000  1.0
  Ge  Ge17  1  0.00000000  0.50000000  0.04073000  1.0
  Ge  Ge18  1  0.50000000  0.50000000  0.04073000  1.0
  Ge  Ge19  1  0.25000000  0.00000000  0.12220000  1.0
  Ge  Ge20  1  0.26147000  0.99846000  0.96105000  1.0
  Ge  Ge21  1  0.50000000  0.47042000  0.88524000  1.0
  Ge  Ge22  1  0.00000000  0.54159000  0.87749000  1.0
  Ge  Ge23  1  0.73853000  0.99846000  0.96105000  1.0
  Pd  Pd24  1  0.50000000  0.00000000  0.04073000  1.0
  Pd  Pd25  1  0.75000000  0.50000000  0.12220000  1.0
  Pd  Pd26  1  0.00000000  1.00000000  0.04073000  1.0
  Pd  Pd27  1  0.25000000  0.50000000  0.12220000  1.0
  Pd  Pd28  1  0.00000000  0.93778000  0.87284000  1.0
  Pd  Pd29  1  0.25734000  0.50279000  0.95452000  1.0
  Pd  Pd30  1  0.50000000  0.04390000  0.89178000  1.0
  Pd  Pd31  1  0.74266000  0.50279000  0.95452000  1.0
  C  C32  1  0.00000000  0.25538000  0.86098000  1.0
