# generated using pymatgen
data_Li16Ge8Pd8C
_symmetry_space_group_name_H-M   Pm
_cell_length_a   6.09904000
_cell_length_b   8.62534000
_cell_length_c   26.46900000
_cell_angle_alpha   90.00000000
_cell_angle_beta   90.00000000
_cell_angle_gamma   90.00000000
_symmetry_Int_Tables_number   6
_chemical_formula_structural   Li16Ge8Pd8C
_chemical_formula_sum   'Li16 Ge8 Pd8 C1'
_cell_volume   1392.43598725
_cell_formula_units_Z   1
loop_
 _symmetry_equiv_pos_site_id
 _symmetry_equiv_pos_as_xyz
  1  'x, y, z'
  2  'x, -y, z'
loop_
 _atom_site_type_symbol
 _atom_site_label
 _atom_site_symmetry_multiplicity
 _atom_site_fract_x
 _atom_site_fract_y
 _atom_site_fract_z
 _atom_site_occupancy
  Li  Li0  2  0.24653000  0.24039000  0.13497000  1.0
  Li  Li1  2  0.25000000  0.25000000  0.95927000  1.0
  Li  Li2  2  0.75000000  0.25000000  0.95927000  1.0
  Li  Li3  2  0.76156000  0.27865000  0.13248000  1.0
  Li  Li4  1  0.23873000  0.00000000  0.04844000  1.0
  Li  Li5  1  0.25000000  0.00000000  0.87780000  1.0
  Li  Li6  1  0.25000000  0.50000000  0.87780000  1.0
  Li  Li7  1  0.25802000  0.50000000  0.03193000  1.0
  Li  Li8  1  0.74425000  0.50000000  0.03885000  1.0
  Li  Li9  1  0.75000000  0.00000000  0.87780000  1.0
  Li  Li10  1  0.75000000  0.50000000  0.87780000  1.0
  Li  Li11  1  0.75784000  0.00000000  0.03821000  1.0
  Ge  Ge12  2  0.00000000  0.25000000  0.87780000  1.0
  Ge  Ge13  2  0.99846000  0.26147000  0.03895000  1.0
  Ge  Ge14  1  0.47042000  0.50000000  0.11476000  1.0
  Ge  Ge15  1  0.50000000  0.00000000  0.95927000  1.0
  Ge  Ge16  1  0.50000000  0.50000000  0.95927000  1.0
  Ge  Ge17  1  0.54159000  0.00000000  0.12251000  1.0
  Pd  Pd18  2  0.50000000  0.25000000  0.87780000  1.0
  Pd  Pd19  2  0.50279000  0.25734000  0.04548000  1.0
  Pd  Pd20  1  -0.00000000  0.00000000  0.95927000  1.0
  Pd  Pd21  1  0.00000000  0.50000000  0.95927000  1.0
  Pd  Pd22  1  0.04390000  0.50000000  0.10822000  1.0
  Pd  Pd23  1  0.93778000  0.00000000  0.12716000  1.0
  C  C24  1  0.25538000  0.00000000  0.13902000  1.0
