data_image0
_chemical_formula_structural       Y8Sn8Pd16CO
_chemical_formula_sum              "Y8 Sn8 Pd16 C1 O1"
_cell_length_a       6.84524
_cell_length_b       9.68063
_cell_length_c       27.2605
_cell_angle_alpha    90
_cell_angle_beta     90
_cell_angle_gamma    90

_space_group_name_H-M_alt    "P 1"
_space_group_IT_number       1

loop_
  _space_group_symop_operation_xyz
  'x, y, z'

loop_
  _atom_site_type_symbol
  _atom_site_label
  _atom_site_symmetry_multiplicity
  _atom_site_fract_x
  _atom_site_fract_y
  _atom_site_fract_z
  _atom_site_occupancy
  Y   Y1        1.0  0.00000  0.00000  0.86683  1.0000
  Y   Y2        1.0  0.50000  0.25000  0.95561  1.0000
  Y   Y3        1.0  0.50000  0.75000  0.95561  1.0000
  Y   Y4        1.0  0.00000  0.50000  0.86683  1.0000
  Y   Y5        1.0  0.00000  0.50044  0.04372  1.0000
  Y   Y6        1.0  0.50000  0.75000  0.13758  1.0000
  Y   Y7        1.0  0.50000  0.25000  0.13652  1.0000
  Y   Y8        1.0  1.00000  0.99955  0.04372  1.0000
  Sn  Sn1       1.0  0.00000  0.75000  0.95561  1.0000
  Sn  Sn2       1.0  0.50000  0.00000  0.86683  1.0000
  Sn  Sn3       1.0  0.00000  0.25000  0.95561  1.0000
  Sn  Sn4       1.0  0.50000  0.50000  0.86683  1.0000
  Sn  Sn5       1.0  0.00000  0.25000  0.13321  1.0000
  Sn  Sn6       1.0  0.50000  0.50028  0.04716  1.0000
  Sn  Sn7       1.0  1.00000  0.75000  0.13490  1.0000
  Sn  Sn8       1.0  0.50000  0.99972  0.04716  1.0000
  Pd  Pd1       1.0  0.25000  0.00000  0.95561  1.0000
  Pd  Pd2       1.0  0.75000  0.50000  0.95561  1.0000
  Pd  Pd3       1.0  0.75000  0.00000  0.95561  1.0000
  Pd  Pd4       1.0  0.25000  0.50000  0.95561  1.0000
  Pd  Pd5       1.0  0.75000  0.75000  0.86683  1.0000
  Pd  Pd6       1.0  0.25000  0.25000  0.86683  1.0000
  Pd  Pd7       1.0  0.25000  0.75000  0.86683  1.0000
  Pd  Pd8       1.0  0.75000  0.25000  0.86683  1.0000
  Pd  Pd9       1.0  0.23782  0.50018  0.12937  1.0000
  Pd  Pd10      1.0  0.76218  0.99982  0.12937  1.0000
  Pd  Pd11      1.0  0.76218  0.50018  0.12937  1.0000
  Pd  Pd12      1.0  0.23782  0.99982  0.12937  1.0000
  Pd  Pd13      1.0  0.73591  0.25000  0.04789  1.0000
  Pd  Pd14      1.0  0.26492  0.75000  0.04911  1.0000
  Pd  Pd15      1.0  0.26409  0.25000  0.04789  1.0000
  Pd  Pd16      1.0  0.73508  0.75000  0.04911  1.0000
  C   C1        1.0  0.99997  0.25005  0.28609  1.0000
  O   O1        1.0  0.00001  0.25000  0.32775  1.0000
