# generated using pymatgen
data_Y8Sn8Pd16CO
_symmetry_space_group_name_H-M   'P 1'
_cell_length_a   9.68063000
_cell_length_b   6.84524000
_cell_length_c   27.26050000
_cell_angle_alpha   90.00000000
_cell_angle_beta   90.00000000
_cell_angle_gamma   90.00000000
_symmetry_Int_Tables_number   1
_chemical_formula_structural   Y8Sn8Pd16CO
_chemical_formula_sum   'Y8 Sn8 Pd16 C1 O1'
_cell_volume   1806.45071833
_cell_formula_units_Z   1
loop_
 _symmetry_equiv_pos_site_id
 _symmetry_equiv_pos_as_xyz
  1  'x, y, z'
loop_
 _atom_site_type_symbol
 _atom_site_label
 _atom_site_symmetry_multiplicity
 _atom_site_fract_x
 _atom_site_fract_y
 _atom_site_fract_z
 _atom_site_occupancy
  Y  Y0  1  0.00000000  0.00000000  0.13317000  1.0
  Y  Y1  1  0.25000000  0.50000000  0.04439000  1.0
  Y  Y2  1  0.75000000  0.50000000  0.04439000  1.0
  Y  Y3  1  0.50000000  0.00000000  0.13317000  1.0
  Y  Y4  1  0.50044000  0.00000000  0.95628000  1.0
  Y  Y5  1  0.75000000  0.50000000  0.86242000  1.0
  Y  Y6  1  0.25000000  0.50000000  0.86348000  1.0
  Y  Y7  1  0.99955000  0.00000000  0.95628000  1.0
  Sn  Sn8  1  0.75000000  0.00000000  0.04439000  1.0
  Sn  Sn9  1  0.00000000  0.50000000  0.13317000  1.0
  Sn  Sn10  1  0.25000000  0.00000000  0.04439000  1.0
  Sn  Sn11  1  0.50000000  0.50000000  0.13317000  1.0
  Sn  Sn12  1  0.25000000  0.00000000  0.86679000  1.0
  Sn  Sn13  1  0.50028000  0.50000000  0.95284000  1.0
  Sn  Sn14  1  0.75000000  0.00000000  0.86510000  1.0
  Sn  Sn15  1  0.99972000  0.50000000  0.95284000  1.0
  Pd  Pd16  1  0.00000000  0.74997000  0.04439000  1.0
  Pd  Pd17  1  0.50000000  0.24997000  0.04439000  1.0
  Pd  Pd18  1  0.00000000  0.25003000  0.04439000  1.0
  Pd  Pd19  1  0.50000000  0.75003000  0.04439000  1.0
  Pd  Pd20  1  0.75000000  0.24997000  0.13317000  1.0
  Pd  Pd21  1  0.25000000  0.74997000  0.13317000  1.0
  Pd  Pd22  1  0.75000000  0.75003000  0.13317000  1.0
  Pd  Pd23  1  0.25000000  0.25003000  0.13317000  1.0
  Pd  Pd24  1  0.50018000  0.76215000  0.87063000  1.0
  Pd  Pd25  1  0.99982000  0.23779000  0.87063000  1.0
  Pd  Pd26  1  0.50018000  0.23785000  0.87063000  1.0
  Pd  Pd27  1  0.99982000  0.76221000  0.87063000  1.0
  Pd  Pd28  1  0.25000000  0.26406000  0.95211000  1.0
  Pd  Pd29  1  0.75000000  0.73505000  0.95089000  1.0
  Pd  Pd30  1  0.25000000  0.73594000  0.95211000  1.0
  Pd  Pd31  1  0.75000000  0.26495000  0.95089000  1.0
  C  C32  1  0.25005000  0.00000000  0.71391000  1.0
  O  O33  1  0.25000000  0.00000000  0.67225000  1.0
