# generated using pymatgen
data_Hf8In8Au16CO
_symmetry_space_group_name_H-M   Pmm2
_cell_length_a   6.82626000
_cell_length_b   9.65379000
_cell_length_c   27.24030000
_cell_angle_alpha   90.00000000
_cell_angle_beta   90.00000000
_cell_angle_gamma   90.00000000
_symmetry_Int_Tables_number   25
_chemical_formula_structural   Hf8In8Au16CO
_chemical_formula_sum   'Hf8 In8 Au16 C1 O1'
_cell_volume   1795.11617130
_cell_formula_units_Z   1
loop_
 _symmetry_equiv_pos_site_id
 _symmetry_equiv_pos_as_xyz
  1  'x, y, z'
  2  '-x, -y, z'
  3  '-x, y, z'
  4  'x, -y, z'
loop_
 _atom_site_type_symbol
 _atom_site_label
 _atom_site_symmetry_multiplicity
 _atom_site_fract_x
 _atom_site_fract_y
 _atom_site_fract_z
 _atom_site_occupancy
  Hf  Hf0  2  0.00000000  0.24968000  0.04809000  1.0
  Hf  Hf1  2  0.00000000  0.25000000  0.86710000  1.0
  Hf  Hf2  1  0.50000000  0.00000000  0.12892000  1.0
  Hf  Hf3  1  0.50000000  0.00000000  0.95570000  1.0
  Hf  Hf4  1  0.50000000  0.50000000  0.12529000  1.0
  Hf  Hf5  1  0.50000000  0.50000000  0.95570000  1.0
  In  In6  2  0.50000000  0.24856000  0.04191000  1.0
  In  In7  2  0.50000000  0.25000000  0.86710000  1.0
  In  In8  1  0.00000000  0.00000000  0.14674000  1.0
  In  In9  1  0.00000000  0.00000000  0.95570000  1.0
  In  In10  1  0.00000000  0.50000000  0.14696000  1.0
  In  In11  1  0.00000000  0.50000000  0.95570000  1.0
  Au  Au12  4  0.25000000  0.25000000  0.95570000  1.0
  Au  Au13  4  0.26686000  0.25169000  0.13447000  1.0
  Au  Au14  2  0.23694000  0.00000000  0.04559000  1.0
  Au  Au15  2  0.23736000  0.50000000  0.04547000  1.0
  Au  Au16  2  0.25000000  0.00000000  0.86710000  1.0
  Au  Au17  2  0.25000000  0.50000000  0.86710000  1.0
  C  C18  1  0.50000000  0.00000000  0.20996000  1.0
  O  O19  1  0.50000000  0.00000000  0.25231000  1.0
