# generated using pymatgen
data_Li8In8Cu8Au8CO
_symmetry_space_group_name_H-M   'P 1'
_cell_length_a   9.06686000
_cell_length_b   6.41124000
_cell_length_c   26.80010000
_cell_angle_alpha   90.00000000
_cell_angle_beta   90.00000000
_cell_angle_gamma   90.00000000
_symmetry_Int_Tables_number   1
_chemical_formula_structural   Li8In8Cu8Au8CO
_chemical_formula_sum   'Li8 In8 Cu8 Au8 C1 O1'
_cell_volume   1557.88486855
_cell_formula_units_Z   1
loop_
 _symmetry_equiv_pos_site_id
 _symmetry_equiv_pos_as_xyz
  1  'x, y, z'
loop_
 _atom_site_type_symbol
 _atom_site_label
 _atom_site_symmetry_multiplicity
 _atom_site_fract_x
 _atom_site_fract_y
 _atom_site_fract_z
 _atom_site_occupancy
  Li  Li0  1  0.00000000  0.75000000  0.04229000  1.0
  Li  Li1  1  0.50000000  0.75000000  0.04229000  1.0
  Li  Li2  1  0.25000000  0.25000000  0.12687000  1.0
  Li  Li3  1  0.75000000  0.25000000  0.12687000  1.0
  Li  Li4  1  0.50000000  0.73207000  0.86508000  1.0
  Li  Li5  1  0.00000000  0.72252000  0.85648000  1.0
  Li  Li6  1  0.75188000  0.23609000  0.95635000  1.0
  Li  Li7  1  0.24812000  0.23609000  0.95635000  1.0
  In  In8  1  0.25000000  1.00000000  0.04229000  1.0
  In  In9  1  0.75000000  1.00000000  0.04229000  1.0
  In  In10  1  0.50000000  0.50000000  0.12687000  1.0
  In  In11  1  0.00000000  0.50000000  0.12687000  1.0
  In  In12  1  0.74958000  0.01274000  0.85885000  1.0
  In  In13  1  0.25042000  0.01274000  0.85885000  1.0
  In  In14  1  0.00000000  0.51335000  0.95630000  1.0
  In  In15  1  0.50000000  0.50623000  0.95836000  1.0
  Cu  Cu16  1  0.00000000  0.25000000  0.04229000  1.0
  Cu  Cu17  1  0.50000000  0.25000000  0.04229000  1.0
  Cu  Cu18  1  0.25000000  0.75000000  0.12687000  1.0
  Cu  Cu19  1  0.75000000  0.75000000  0.12687000  1.0
  Cu  Cu20  1  0.50000000  0.24476000  0.87609000  1.0
  Cu  Cu21  1  0.00000000  0.24249000  0.87636000  1.0
  Cu  Cu22  1  0.74824000  0.76430000  0.95453000  1.0
  Cu  Cu23  1  0.25176000  0.76430000  0.95453000  1.0
  Au  Au24  1  0.00000000  0.00000000  0.12687000  1.0
  Au  Au25  1  0.50000000  1.00000000  0.12687000  1.0
  Au  Au26  1  0.75000000  0.50000000  0.04229000  1.0
  Au  Au27  1  0.25000000  0.50000000  0.04229000  1.0
  Au  Au28  1  0.50000000  0.99625000  0.95775000  1.0
  Au  Au29  1  0.00000000  0.99068000  0.95689000  1.0
  Au  Au30  1  0.25137000  0.48690000  0.87849000  1.0
  Au  Au31  1  0.74863000  0.48690000  0.87849000  1.0
  C  C32  1  0.00000000  0.72850000  0.77749000  1.0
  O  O33  1  0.00000000  0.73418000  0.73499000  1.0
