# generated using pymatgen
data_Li4Y4Sn4Pb4C
_symmetry_space_group_name_H-M   Pm
_cell_length_a   6.72279000
_cell_length_b   8.87168000
_cell_length_c   25.04000000
_cell_angle_alpha   90.00000000
_cell_angle_beta   90.00000000
_cell_angle_gamma   90.00000000
_symmetry_Int_Tables_number   6
_chemical_formula_structural   Li4Y4Sn4Pb4C
_chemical_formula_sum   'Li4 Y4 Sn4 Pb4 C1'
_cell_volume   1493.44673734
_cell_formula_units_Z   1
loop_
 _symmetry_equiv_pos_site_id
 _symmetry_equiv_pos_as_xyz
  1  'x, y, z'
  2  'x, -y, z'
loop_
 _atom_site_type_symbol
 _atom_site_label
 _atom_site_symmetry_multiplicity
 _atom_site_fract_x
 _atom_site_fract_y
 _atom_site_fract_z
 _atom_site_occupancy
  Li  Li0  1  0.00000000  0.00000000  0.10064000  1.0
  Li  Li1  1  0.00000000  0.50000000  0.10064000  1.0
  Li  Li2  1  0.48851000  0.50000000  0.97103000  1.0
  Li  Li3  1  0.51910000  0.00000000  0.95629000  1.0
  Y  Y4  1  0.01232000  0.00000000  0.96967000  1.0
  Y  Y5  1  0.50000000  0.00000000  0.10064000  1.0
  Y  Y6  1  0.50000000  0.50000000  0.10064000  1.0
  Y  Y7  1  0.99460000  0.50000000  0.96660000  1.0
  Sn  Sn8  2  0.25727000  0.25001000  0.03355000  1.0
  Sn  Sn9  2  0.75183000  0.23622000  0.89230000  1.0
  Pb  Pb10  2  0.26909000  0.26451000  0.90408000  1.0
  Pb  Pb11  2  0.75727000  0.25001000  0.03355000  1.0
  C  C12  1  0.77897000  0.00000000  0.90468000  1.0
