# generated using pymatgen
data_Cu8Pd8C
_symmetry_space_group_name_H-M   P4mm
_cell_length_a   6.09666000
_cell_length_b   6.09666000
_cell_length_c   24.57250000
_cell_angle_alpha   90.00000000
_cell_angle_beta   90.00000000
_cell_angle_gamma   90.00000000
_symmetry_Int_Tables_number   99
_chemical_formula_structural   Cu8Pd8C
_chemical_formula_sum   'Cu8 Pd8 C1'
_cell_volume   913.34171889
_cell_formula_units_Z   1
loop_
 _symmetry_equiv_pos_site_id
 _symmetry_equiv_pos_as_xyz
  1  'x, y, z'
  2  '-y, x, z'
  3  '-x, -y, z'
  4  'y, -x, z'
  5  '-x, y, z'
  6  'y, x, z'
  7  'x, -y, z'
  8  '-y, -x, z'
loop_
 _atom_site_type_symbol
 _atom_site_label
 _atom_site_symmetry_multiplicity
 _atom_site_fract_x
 _atom_site_fract_y
 _atom_site_fract_z
 _atom_site_occupancy
  Cu  Cu0  2  0.00000000  0.50000000  0.02319000  1.0
  Cu  Cu1  2  0.00000000  0.50000000  0.89914000  1.0
  Cu  Cu2  1  0.00000000  0.00000000  0.02319000  1.0
  Cu  Cu3  1  0.00000000  0.00000000  0.89914000  1.0
  Cu  Cu4  1  0.50000000  0.50000000  0.02319000  1.0
  Cu  Cu5  1  0.50000000  0.50000000  0.89914000  1.0
  Pd  Pd6  4  0.25000000  0.25000000  0.08522000  1.0
  Pd  Pd7  4  0.25000000  0.25000000  0.96116000  1.0
  C  C8  1  0.00000000  0.00000000  0.11777000  1.0
