# generated using pymatgen
data_Cu8Sn8Rh16C
_symmetry_space_group_name_H-M   'P 1'
_cell_length_a   6.25984000
_cell_length_b   8.85274000
_cell_length_c   26.63960000
_cell_angle_alpha   90.00000000
_cell_angle_beta   90.00000000
_cell_angle_gamma   90.00000000
_symmetry_Int_Tables_number   1
_chemical_formula_structural   Cu8Sn8Rh16C
_chemical_formula_sum   'Cu8 Sn8 Rh16 C1'
_cell_volume   1476.27967932
_cell_formula_units_Z   1
loop_
 _symmetry_equiv_pos_site_id
 _symmetry_equiv_pos_as_xyz
  1  'x, y, z'
loop_
 _atom_site_type_symbol
 _atom_site_label
 _atom_site_symmetry_multiplicity
 _atom_site_fract_x
 _atom_site_fract_y
 _atom_site_fract_z
 _atom_site_occupancy
  Cu  Cu0  1  0.00000000  0.00000000  0.87538000  1.0
  Cu  Cu1  1  0.50000000  0.25000000  0.95846000  1.0
  Cu  Cu2  1  0.50000000  0.75000000  0.95846000  1.0
  Cu  Cu3  1  0.00000000  0.50000000  0.87538000  1.0
  Cu  Cu4  1  0.00000000  0.50000000  0.04197000  1.0
  Cu  Cu5  1  0.50000000  0.75655000  0.12960000  1.0
  Cu  Cu6  1  0.50000000  0.24345000  0.12960000  1.0
  Cu  Cu7  1  0.00000000  0.00000000  0.04063000  1.0
  Sn  Sn8  1  0.00000000  0.75000000  0.95846000  1.0
  Sn  Sn9  1  0.50000000  0.00000000  0.87538000  1.0
  Sn  Sn10  1  0.00000000  0.25000000  0.95846000  1.0
  Sn  Sn11  1  0.50000000  0.50000000  0.87538000  1.0
  Sn  Sn12  1  0.00000000  0.26285000  0.12932000  1.0
  Sn  Sn13  1  0.50000000  0.50000000  0.03863000  1.0
  Sn  Sn14  1  0.00000000  0.73715000  0.12932000  1.0
  Sn  Sn15  1  0.50000000  0.00000000  0.03861000  1.0
  Rh  Rh16  1  0.25000000  0.00000000  0.95846000  1.0
  Rh  Rh17  1  0.75000000  0.50000000  0.95846000  1.0
  Rh  Rh18  1  0.75000000  0.00000000  0.95846000  1.0
  Rh  Rh19  1  0.25000000  0.50000000  0.95846000  1.0
  Rh  Rh20  1  0.75000000  0.75000000  0.87538000  1.0
  Rh  Rh21  1  0.25000000  0.25000000  0.87538000  1.0
  Rh  Rh22  1  0.25000000  0.75000000  0.87538000  1.0
  Rh  Rh23  1  0.75000000  0.25000000  0.87538000  1.0
  Rh  Rh24  1  0.26618000  0.50000000  0.12065000  1.0
  Rh  Rh25  1  0.75321000  0.00000000  0.12360000  1.0
  Rh  Rh26  1  0.73382000  0.50000000  0.12065000  1.0
  Rh  Rh27  1  0.24679000  0.00000000  0.12360000  1.0
  Rh  Rh28  1  0.75195000  0.24662000  0.04322000  1.0
  Rh  Rh29  1  0.24805000  0.75338000  0.04322000  1.0
  Rh  Rh30  1  0.24805000  0.24662000  0.04322000  1.0
  Rh  Rh31  1  0.75195000  0.75338000  0.04322000  1.0
  C  C32  1  0.50000000  0.00000000  0.15859000  1.0
