data_image0
_chemical_formula_structural       Li8Pd16Pb8C
_chemical_formula_sum              "Li8 Pd16 Pb8 C1"
_cell_length_a       6.5792
_cell_length_b       9.30439
_cell_length_c       26.9783
_cell_angle_alpha    90
_cell_angle_beta     90
_cell_angle_gamma    90

_space_group_name_H-M_alt    "P 1"
_space_group_IT_number       1

loop_
  _space_group_symop_operation_xyz
  'x, y, z'

loop_
  _atom_site_type_symbol
  _atom_site_label
  _atom_site_symmetry_multiplicity
  _atom_site_fract_x
  _atom_site_fract_y
  _atom_site_fract_z
  _atom_site_occupancy
  Li  Li1       1.0  0.00000  0.00000  0.87067  1.0000
  Li  Li2       1.0  0.50000  0.25000  0.95689  1.0000
  Li  Li3       1.0  0.50000  0.75000  0.95689  1.0000
  Li  Li4       1.0  0.00000  0.50000  0.87067  1.0000
  Li  Li5       1.0  0.00285  0.50585  0.03920  1.0000
  Li  Li6       1.0  0.51615  0.75000  0.12771  1.0000
  Li  Li7       1.0  0.52028  0.25000  0.12544  1.0000
  Li  Li8       1.0  0.00285  0.99415  0.03920  1.0000
  Pd  Pd1       1.0  0.25000  0.00000  0.95689  1.0000
  Pd  Pd2       1.0  0.75000  0.50000  0.95689  1.0000
  Pd  Pd3       1.0  0.75000  0.00000  0.95689  1.0000
  Pd  Pd4       1.0  0.25000  0.50000  0.95689  1.0000
  Pd  Pd5       1.0  0.75000  0.75000  0.87067  1.0000
  Pd  Pd6       1.0  0.25000  0.25000  0.87067  1.0000
  Pd  Pd7       1.0  0.25000  0.75000  0.87067  1.0000
  Pd  Pd8       1.0  0.75000  0.25000  0.87067  1.0000
  Pd  Pd9       1.0  0.21747  0.46941  0.12103  1.0000
  Pd  Pd10      1.0  0.78119  0.99702  0.11890  1.0000
  Pd  Pd11      1.0  0.78119  0.50298  0.11890  1.0000
  Pd  Pd12      1.0  0.21747  0.03059  0.12103  1.0000
  Pd  Pd13      1.0  0.77850  0.25000  0.05019  1.0000
  Pd  Pd14      1.0  0.24706  0.75000  0.04903  1.0000
  Pd  Pd15      1.0  0.22169  0.25000  0.04669  1.0000
  Pd  Pd16      1.0  0.76385  0.75000  0.04609  1.0000
  Pb  Pb1       1.0  0.00000  0.75000  0.95689  1.0000
  Pb  Pb2       1.0  0.50000  0.00000  0.87067  1.0000
  Pb  Pb3       1.0  0.00000  0.25000  0.95689  1.0000
  Pb  Pb4       1.0  0.50000  0.50000  0.87067  1.0000
  Pb  Pb5       1.0  0.91448  0.25000  0.17111  1.0000
  Pb  Pb6       1.0  0.50312  0.49869  0.04233  1.0000
  Pb  Pb7       1.0  0.01713  0.75000  0.14037  1.0000
  Pb  Pb8       1.0  0.50312  0.00130  0.04233  1.0000
  C   C1        1.0  0.20939  0.25000  0.12256  1.0000
