# generated using pymatgen
data_Li8Pd16Pb8C
_symmetry_space_group_name_H-M   'P 1'
_cell_length_a   9.30439000
_cell_length_b   6.57920000
_cell_length_c   26.97830000
_cell_angle_alpha   90.00000000
_cell_angle_beta   90.00000000
_cell_angle_gamma   90.00000000
_symmetry_Int_Tables_number   1
_chemical_formula_structural   Li8Pd16Pb8C
_chemical_formula_sum   'Li8 Pd16 Pb8 C1'
_cell_volume   1651.48857747
_cell_formula_units_Z   1
loop_
 _symmetry_equiv_pos_site_id
 _symmetry_equiv_pos_as_xyz
  1  'x, y, z'
loop_
 _atom_site_type_symbol
 _atom_site_label
 _atom_site_symmetry_multiplicity
 _atom_site_fract_x
 _atom_site_fract_y
 _atom_site_fract_z
 _atom_site_occupancy
  Li  Li0  1  0.75000000  0.00000000  0.12933000  1.0
  Li  Li1  1  0.00000000  0.50000000  0.04311000  1.0
  Li  Li2  1  0.50000000  0.50000000  0.04311000  1.0
  Li  Li3  1  0.25000000  0.00000000  0.12933000  1.0
  Li  Li4  1  0.25585000  0.00285000  0.96080000  1.0
  Li  Li5  1  0.50000000  0.51615000  0.87229000  1.0
  Li  Li6  1  0.00000000  0.52028000  0.87456000  1.0
  Li  Li7  1  0.74415000  0.00285000  0.96080000  1.0
  Pd  Pd8  1  0.75000000  0.25000000  0.04311000  1.0
  Pd  Pd9  1  0.25000000  0.75000000  0.04311000  1.0
  Pd  Pd10  1  0.75000000  0.75000000  0.04311000  1.0
  Pd  Pd11  1  0.25000000  0.25000000  0.04311000  1.0
  Pd  Pd12  1  0.50000000  0.75000000  0.12933000  1.0
  Pd  Pd13  1  0.00000000  0.25000000  0.12933000  1.0
  Pd  Pd14  1  0.50000000  0.25000000  0.12933000  1.0
  Pd  Pd15  1  0.00000000  0.75000000  0.12933000  1.0
  Pd  Pd16  1  0.21941000  0.21747000  0.87897000  1.0
  Pd  Pd17  1  0.74702000  0.78119000  0.88110000  1.0
  Pd  Pd18  1  0.25298000  0.78119000  0.88110000  1.0
  Pd  Pd19  1  0.78059000  0.21747000  0.87897000  1.0
  Pd  Pd20  1  0.00000000  0.77850000  0.94981000  1.0
  Pd  Pd21  1  0.50000000  0.24706000  0.95097000  1.0
  Pd  Pd22  1  0.00000000  0.22169000  0.95331000  1.0
  Pd  Pd23  1  0.50000000  0.76385000  0.95391000  1.0
  Pb  Pb24  1  0.50000000  0.00000000  0.04311000  1.0
  Pb  Pb25  1  0.75000000  0.50000000  0.12933000  1.0
  Pb  Pb26  1  0.00000000  1.00000000  0.04311000  1.0
  Pb  Pb27  1  0.25000000  0.50000000  0.12933000  1.0
  Pb  Pb28  1  0.00000000  0.91448000  0.82889000  1.0
  Pb  Pb29  1  0.24869000  0.50312000  0.95767000  1.0
  Pb  Pb30  1  0.50000000  0.01713000  0.85963000  1.0
  Pb  Pb31  1  0.75131000  0.50312000  0.95767000  1.0
  C  C32  1  0.00000000  0.20939000  0.87744000  1.0
