# generated using pymatgen
data_Li8Pd16Pb8C
_symmetry_space_group_name_H-M   Pm
_cell_length_a   6.57920000
_cell_length_b   9.30439000
_cell_length_c   26.97830000
_cell_angle_alpha   90.00000000
_cell_angle_beta   90.00000000
_cell_angle_gamma   90.00000000
_symmetry_Int_Tables_number   6
_chemical_formula_structural   Li8Pd16Pb8C
_chemical_formula_sum   'Li8 Pd16 Pb8 C1'
_cell_volume   1651.48857747
_cell_formula_units_Z   1
loop_
 _symmetry_equiv_pos_site_id
 _symmetry_equiv_pos_as_xyz
  1  'x, y, z'
  2  'x, -y, z'
loop_
 _atom_site_type_symbol
 _atom_site_label
 _atom_site_symmetry_multiplicity
 _atom_site_fract_x
 _atom_site_fract_y
 _atom_site_fract_z
 _atom_site_occupancy
  Li  Li0  2  0.00000000  0.25000000  0.87067000  1.0
  Li  Li1  2  0.00285000  0.25585000  0.03920000  1.0
  Li  Li2  1  0.50000000  0.00000000  0.95689000  1.0
  Li  Li3  1  0.50000000  0.50000000  0.95689000  1.0
  Li  Li4  1  0.51615000  0.50000000  0.12771000  1.0
  Li  Li5  1  0.52028000  0.00000000  0.12544000  1.0
  Pd  Pd6  2  0.21747000  0.21941000  0.12103000  1.0
  Pd  Pd7  2  0.25000000  0.25000000  0.95689000  1.0
  Pd  Pd8  2  0.75000000  0.25000000  0.95689000  1.0
  Pd  Pd9  2  0.78119000  0.25298000  0.11890000  1.0
  Pd  Pd10  1  0.22169000  0.00000000  0.04669000  1.0
  Pd  Pd11  1  0.24706000  0.50000000  0.04903000  1.0
  Pd  Pd12  1  0.25000000  0.00000000  0.87067000  1.0
  Pd  Pd13  1  0.25000000  0.50000000  0.87067000  1.0
  Pd  Pd14  1  0.75000000  0.00000000  0.87067000  1.0
  Pd  Pd15  1  0.75000000  0.50000000  0.87067000  1.0
  Pd  Pd16  1  0.76385000  0.50000000  0.04609000  1.0
  Pd  Pd17  1  0.77850000  0.00000000  0.05019000  1.0
  Pb  Pb18  2  0.50000000  0.25000000  0.87067000  1.0
  Pb  Pb19  2  0.50312000  0.24869000  0.04233000  1.0
  Pb  Pb20  1  -0.00000000  0.00000000  0.95689000  1.0
  Pb  Pb21  1  0.00000000  0.50000000  0.95689000  1.0
  Pb  Pb22  1  0.01713000  0.50000000  0.14037000  1.0
  Pb  Pb23  1  0.91448000  0.00000000  0.17111000  1.0
  C  C24  1  0.20939000  0.00000000  0.12256000  1.0
