# generated using pymatgen
data_V8Pt24C
_symmetry_space_group_name_H-M   P4mm
_cell_length_a   7.87849000
_cell_length_b   7.87849000
_cell_length_c   25.90890000
_cell_angle_alpha   90.00000000
_cell_angle_beta   90.00000000
_cell_angle_gamma   90.00000000
_symmetry_Int_Tables_number   99
_chemical_formula_structural   V8Pt24C
_chemical_formula_sum   'V8 Pt24 C1'
_cell_volume   1608.18108960
_cell_formula_units_Z   1
loop_
 _symmetry_equiv_pos_site_id
 _symmetry_equiv_pos_as_xyz
  1  'x, y, z'
  2  '-y, x, z'
  3  '-x, -y, z'
  4  'y, -x, z'
  5  '-x, y, z'
  6  'y, x, z'
  7  'x, -y, z'
  8  '-y, -x, z'
loop_
 _atom_site_type_symbol
 _atom_site_label
 _atom_site_symmetry_multiplicity
 _atom_site_fract_x
 _atom_site_fract_y
 _atom_site_fract_z
 _atom_site_occupancy
  V  V0  4  0.25000000  0.25000000  0.03801000  1.0
  V  V1  4  0.25000000  0.25000000  0.88597000  1.0
  Pt  Pt2  4  0.00000000  0.25000000  0.11403000  1.0
  Pt  Pt3  4  0.00000000  0.25000000  0.96199000  1.0
  Pt  Pt4  4  0.25000000  0.50000000  0.11403000  1.0
  Pt  Pt5  4  0.25000000  0.50000000  0.96199000  1.0
  Pt  Pt6  2  0.00000000  0.50000000  0.03801000  1.0
  Pt  Pt7  2  0.00000000  0.50000000  0.88597000  1.0
  Pt  Pt8  1  0.00000000  0.00000000  0.03801000  1.0
  Pt  Pt9  1  0.00000000  0.00000000  0.88597000  1.0
  Pt  Pt10  1  0.50000000  0.50000000  0.03801000  1.0
  Pt  Pt11  1  0.50000000  0.50000000  0.88597000  1.0
  C  C12  1  0.00000000  0.00000000  0.14491000  1.0
