# generated using pymatgen
data_Y8Cu8Sn8Pd8C
_symmetry_space_group_name_H-M   'P 1'
_cell_length_a   9.56710000
_cell_length_b   6.76496000
_cell_length_c   27.17530000
_cell_angle_alpha   90.00000000
_cell_angle_beta   90.00000000
_cell_angle_gamma   90.00000000
_symmetry_Int_Tables_number   1
_chemical_formula_structural   Y8Cu8Sn8Pd8C
_chemical_formula_sum   'Y8 Cu8 Sn8 Pd8 C1'
_cell_volume   1758.81391789
_cell_formula_units_Z   1
loop_
 _symmetry_equiv_pos_site_id
 _symmetry_equiv_pos_as_xyz
  1  'x, y, z'
loop_
 _atom_site_type_symbol
 _atom_site_label
 _atom_site_symmetry_multiplicity
 _atom_site_fract_x
 _atom_site_fract_y
 _atom_site_fract_z
 _atom_site_occupancy
  Y  Y0  1  0.75000000  0.25000000  0.04401000  1.0
  Y  Y1  1  0.25000000  0.25000000  0.04401000  1.0
  Y  Y2  1  0.00000000  0.75000000  0.13202000  1.0
  Y  Y3  1  0.50000000  0.75000000  0.13202000  1.0
  Y  Y4  1  0.24510000  0.28362000  0.86349000  1.0
  Y  Y5  1  0.75490000  0.28362000  0.86349000  1.0
  Y  Y6  1  0.50000000  0.74782000  0.95515000  1.0
  Y  Y7  1  0.00000000  0.75623000  0.95430000  1.0
  Cu  Cu8  1  0.75000000  0.00000000  0.13202000  1.0
  Cu  Cu9  1  0.25000000  0.00000000  0.13202000  1.0
  Cu  Cu10  1  0.50000000  0.50000000  0.04401000  1.0
  Cu  Cu11  1  0.00000000  0.50000000  0.04401000  1.0
  Cu  Cu12  1  0.25601000  0.02009000  0.95070000  1.0
  Cu  Cu13  1  0.74399000  0.02009000  0.95070000  1.0
  Cu  Cu14  1  0.00000000  0.58165000  0.85634000  1.0
  Cu  Cu15  1  0.50000000  0.59524000  0.85240000  1.0
  Sn  Sn16  1  0.75000000  0.75000000  0.04401000  1.0
  Sn  Sn17  1  0.25000000  0.75000000  0.04401000  1.0
  Sn  Sn18  1  0.00000000  0.25000000  0.13202000  1.0
  Sn  Sn19  1  0.50000000  0.25000000  0.13202000  1.0
  Sn  Sn20  1  0.25143000  0.77317000  0.86682000  1.0
  Sn  Sn21  1  0.74857000  0.77317000  0.86682000  1.0
  Sn  Sn22  1  0.50000000  0.25711000  0.95684000  1.0
  Sn  Sn23  1  0.00000000  0.25522000  0.95264000  1.0
  Pd  Pd24  1  0.00000000  0.00000000  0.04401000  1.0
  Pd  Pd25  1  0.50000000  1.00000000  0.04401000  1.0
  Pd  Pd26  1  0.25000000  0.50000000  0.13202000  1.0
  Pd  Pd27  1  0.75000000  0.50000000  0.13202000  1.0
  Pd  Pd28  1  0.50000000  0.01201000  0.87436000  1.0
  Pd  Pd29  1  0.00000000  0.97869000  0.86337000  1.0
  Pd  Pd30  1  0.75040000  0.49888000  0.95736000  1.0
  Pd  Pd31  1  0.24960000  0.49888000  0.95736000  1.0
  C  C32  1  0.00000000  0.29630000  0.86355000  1.0
