# generated using pymatgen
data_Ti4Zn12C
_symmetry_space_group_name_H-M   Pm
_cell_length_a   5.57094000
_cell_length_b   7.87849000
_cell_length_c   24.17820000
_cell_angle_alpha   90.00000000
_cell_angle_beta   90.00000000
_cell_angle_gamma   90.00000000
_symmetry_Int_Tables_number   6
_chemical_formula_structural   Ti4Zn12C
_chemical_formula_sum   'Ti4 Zn12 C1'
_cell_volume   1061.19558598
_cell_formula_units_Z   1
loop_
 _symmetry_equiv_pos_site_id
 _symmetry_equiv_pos_as_xyz
  1  'x, y, z'
  2  'x, -y, z'
loop_
 _atom_site_type_symbol
 _atom_site_label
 _atom_site_symmetry_multiplicity
 _atom_site_fract_x
 _atom_site_fract_y
 _atom_site_fract_z
 _atom_site_occupancy
  Ti  Ti0  2  0.50000000  0.25004000  0.02880000  1.0
  Ti  Ti1  2  0.98701000  0.29207000  0.91520000  1.0
  Zn  Zn2  2  0.00000000  0.25004000  0.02880000  1.0
  Zn  Zn3  2  0.50058000  0.28709000  0.91078000  1.0
  Zn  Zn4  1  0.23519000  0.00000000  0.96313000  1.0
  Zn  Zn5  1  0.25000000  0.00000000  0.08640000  1.0
  Zn  Zn6  1  0.25000000  0.50000000  0.08640000  1.0
  Zn  Zn7  1  0.26199000  0.50000000  0.97412000  1.0
  Zn  Zn8  1  0.74023000  0.00000000  0.95896000  1.0
  Zn  Zn9  1  0.74408000  0.50000000  0.98079000  1.0
  Zn  Zn10  1  0.75000000  0.00000000  0.08640000  1.0
  Zn  Zn11  1  0.75000000  0.50000000  0.08640000  1.0
  C  C12  1  0.81417000  0.50000000  0.89390000  1.0
