# generated using pymatgen
data_Cu8Ni16Sb8C
_symmetry_space_group_name_H-M   'P 1'
_cell_length_a   6.01864000
_cell_length_b   8.51164000
_cell_length_c   26.38370000
_cell_angle_alpha   90.00000000
_cell_angle_beta   90.00000000
_cell_angle_gamma   90.00000000
_symmetry_Int_Tables_number   1
_chemical_formula_structural   Cu8Ni16Sb8C
_chemical_formula_sum   'Cu8 Ni16 Sb8 C1'
_cell_volume   1351.59729550
_cell_formula_units_Z   1
loop_
 _symmetry_equiv_pos_site_id
 _symmetry_equiv_pos_as_xyz
  1  'x, y, z'
loop_
 _atom_site_type_symbol
 _atom_site_label
 _atom_site_symmetry_multiplicity
 _atom_site_fract_x
 _atom_site_fract_y
 _atom_site_fract_z
 _atom_site_occupancy
  Cu  Cu0  1  0.00000000  0.00000000  0.87902000  1.0
  Cu  Cu1  1  0.50000000  0.25000000  0.95967000  1.0
  Cu  Cu2  1  0.50000000  0.75000000  0.95967000  1.0
  Cu  Cu3  1  0.00000000  0.50000000  0.87902000  1.0
  Cu  Cu4  1  0.00000000  0.50000000  0.04086000  1.0
  Cu  Cu5  1  0.50000000  0.76556000  0.12680000  1.0
  Cu  Cu6  1  0.50000000  0.23444000  0.12680000  1.0
  Cu  Cu7  1  0.00000000  0.00000000  0.03866000  1.0
  Ni  Ni8  1  0.25000000  0.00000000  0.95967000  1.0
  Ni  Ni9  1  0.75000000  0.50000000  0.95967000  1.0
  Ni  Ni10  1  0.75000000  0.00000000  0.95967000  1.0
  Ni  Ni11  1  0.25000000  0.50000000  0.95967000  1.0
  Ni  Ni12  1  0.75000000  0.75000000  0.87902000  1.0
  Ni  Ni13  1  0.25000000  0.25000000  0.87902000  1.0
  Ni  Ni14  1  0.25000000  0.75000000  0.87902000  1.0
  Ni  Ni15  1  0.75000000  0.25000000  0.87902000  1.0
  Ni  Ni16  1  0.27491000  0.50000000  0.11521000  1.0
  Ni  Ni17  1  0.78655000  0.00000000  0.12121000  1.0
  Ni  Ni18  1  0.72509000  0.50000000  0.11521000  1.0
  Ni  Ni19  1  0.21345000  0.00000000  0.12121000  1.0
  Ni  Ni20  1  0.76292000  0.24732000  0.04650000  1.0
  Ni  Ni21  1  0.23708000  0.75268000  0.04650000  1.0
  Ni  Ni22  1  0.23708000  0.24732000  0.04650000  1.0
  Ni  Ni23  1  0.76292000  0.75268000  0.04650000  1.0
  Sb  Sb24  1  0.00000000  0.75000000  0.95967000  1.0
  Sb  Sb25  1  0.50000000  0.00000000  0.87902000  1.0
  Sb  Sb26  1  0.00000000  0.25000000  0.95967000  1.0
  Sb  Sb27  1  0.50000000  0.50000000  0.87902000  1.0
  Sb  Sb28  1  0.00000000  0.26640000  0.13444000  1.0
  Sb  Sb29  1  0.50000000  0.50000000  0.03687000  1.0
  Sb  Sb30  1  0.00000000  0.73360000  0.13444000  1.0
  Sb  Sb31  1  0.50000000  0.00000000  0.03808000  1.0
  C  C32  1  0.50000000  0.00000000  0.13829000  1.0
