# generated using pymatgen
data_Cu8Ni16Sb8C
_symmetry_space_group_name_H-M   Pmm2
_cell_length_a   6.01864000
_cell_length_b   8.51164000
_cell_length_c   26.38370000
_cell_angle_alpha   90.00000000
_cell_angle_beta   90.00000000
_cell_angle_gamma   90.00000000
_symmetry_Int_Tables_number   25
_chemical_formula_structural   Cu8Ni16Sb8C
_chemical_formula_sum   'Cu8 Ni16 Sb8 C1'
_cell_volume   1351.59729550
_cell_formula_units_Z   1
loop_
 _symmetry_equiv_pos_site_id
 _symmetry_equiv_pos_as_xyz
  1  'x, y, z'
  2  '-x, -y, z'
  3  '-x, y, z'
  4  'x, -y, z'
loop_
 _atom_site_type_symbol
 _atom_site_label
 _atom_site_symmetry_multiplicity
 _atom_site_fract_x
 _atom_site_fract_y
 _atom_site_fract_z
 _atom_site_occupancy
  Cu  Cu0  2  0.50000000  0.23444000  0.12680000  1.0
  Cu  Cu1  2  0.50000000  0.25000000  0.95967000  1.0
  Cu  Cu2  1  0.00000000  0.00000000  0.03866000  1.0
  Cu  Cu3  1  0.00000000  0.00000000  0.87902000  1.0
  Cu  Cu4  1  0.00000000  0.50000000  0.04086000  1.0
  Cu  Cu5  1  0.00000000  0.50000000  0.87902000  1.0
  Ni  Ni6  4  0.23708000  0.24732000  0.04650000  1.0
  Ni  Ni7  4  0.25000000  0.25000000  0.87902000  1.0
  Ni  Ni8  2  0.21345000  0.00000000  0.12121000  1.0
  Ni  Ni9  2  0.25000000  0.00000000  0.95967000  1.0
  Ni  Ni10  2  0.25000000  0.50000000  0.95967000  1.0
  Ni  Ni11  2  0.27491000  0.50000000  0.11521000  1.0
  Sb  Sb12  2  0.00000000  0.25000000  0.95967000  1.0
  Sb  Sb13  2  0.00000000  0.26640000  0.13444000  1.0
  Sb  Sb14  1  0.50000000  0.00000000  0.03808000  1.0
  Sb  Sb15  1  0.50000000  0.00000000  0.87902000  1.0
  Sb  Sb16  1  0.50000000  0.50000000  0.03687000  1.0
  Sb  Sb17  1  0.50000000  0.50000000  0.87902000  1.0
  C  C18  1  0.50000000  0.00000000  0.13829000  1.0
