data_image0
_chemical_formula_structural       GaIrGaIrGaIrGaIrGaIrGaIrGaIrGaIrCO
_chemical_formula_sum              "Ga8 Ir8 C1 O1"
_cell_length_a       6.13393
_cell_length_b       6.13393
_cell_length_c       24.6004
_cell_angle_alpha    90
_cell_angle_beta     90
_cell_angle_gamma    90

_space_group_name_H-M_alt    "P 1"
_space_group_IT_number       1

loop_
  _space_group_symop_operation_xyz
  'x, y, z'

loop_
  _atom_site_type_symbol
  _atom_site_label
  _atom_site_symmetry_multiplicity
  _atom_site_fract_x
  _atom_site_fract_y
  _atom_site_fract_z
  _atom_site_occupancy
  Ga  Ga1       1.0  0.00000  0.00000  0.89192  1.0000
  Ir  Ir1       1.0  0.25000  0.25000  0.95426  1.0000
  Ga  Ga2       1.0  0.00000  0.00000  0.01659  1.0000
  Ir  Ir2       1.0  0.25000  0.25000  0.07893  1.0000
  Ga  Ga3       1.0  0.00000  0.50000  0.89192  1.0000
  Ir  Ir3       1.0  0.25000  0.75000  0.95426  1.0000
  Ga  Ga4       1.0  0.00000  0.50000  0.01659  1.0000
  Ir  Ir4       1.0  0.25000  0.75000  0.07893  1.0000
  Ga  Ga5       1.0  0.50000  0.00000  0.89192  1.0000
  Ir  Ir5       1.0  0.75000  0.25000  0.95426  1.0000
  Ga  Ga6       1.0  0.50000  0.00000  0.01659  1.0000
  Ir  Ir6       1.0  0.75000  0.25000  0.07893  1.0000
  Ga  Ga7       1.0  0.50000  0.50000  0.89192  1.0000
  Ir  Ir7       1.0  0.75000  0.75000  0.95426  1.0000
  Ga  Ga8       1.0  0.50000  0.50000  0.01659  1.0000
  Ir  Ir8       1.0  0.75000  0.75000  0.07893  1.0000
  C   C1        1.0  0.25000  0.25000  0.15616  1.0000
  O   O1        1.0  0.25000  0.25000  0.20291  1.0000
