# generated using pymatgen
data_Sc8In8Au16CO
_symmetry_space_group_name_H-M   Pmm2
_cell_length_a   6.85473000
_cell_length_b   9.69405000
_cell_length_c   27.27050000
_cell_angle_alpha   90.00000000
_cell_angle_beta   90.00000000
_cell_angle_gamma   90.00000000
_symmetry_Int_Tables_number   25
_chemical_formula_structural   Sc8In8Au16CO
_chemical_formula_sum   'Sc8 In8 Au16 C1 O1'
_cell_volume   1812.12732542
_cell_formula_units_Z   1
loop_
 _symmetry_equiv_pos_site_id
 _symmetry_equiv_pos_as_xyz
  1  'x, y, z'
  2  '-x, -y, z'
  3  '-x, y, z'
  4  'x, -y, z'
loop_
 _atom_site_type_symbol
 _atom_site_label
 _atom_site_symmetry_multiplicity
 _atom_site_fract_x
 _atom_site_fract_y
 _atom_site_fract_z
 _atom_site_occupancy
  Sc  Sc0  2  0.00000000  0.25000000  0.86670000  1.0
  Sc  Sc1  2  0.00000000  0.25184000  0.04884000  1.0
  Sc  Sc2  1  0.50000000  0.00000000  0.12817000  1.0
  Sc  Sc3  1  0.50000000  0.00000000  0.95557000  1.0
  Sc  Sc4  1  0.50000000  0.50000000  0.12731000  1.0
  Sc  Sc5  1  0.50000000  0.50000000  0.95557000  1.0
  In  In6  2  0.50000000  0.24811000  0.04270000  1.0
  In  In7  2  0.50000000  0.25000000  0.86670000  1.0
  In  In8  1  0.00000000  0.00000000  0.14275000  1.0
  In  In9  1  0.00000000  0.00000000  0.95557000  1.0
  In  In10  1  0.00000000  0.50000000  0.14243000  1.0
  In  In11  1  0.00000000  0.50000000  0.95557000  1.0
  Au  Au12  4  0.25000000  0.25000000  0.95557000  1.0
  Au  Au13  4  0.26168000  0.25195000  0.13538000  1.0
  Au  Au14  2  0.23693000  0.00000000  0.04507000  1.0
  Au  Au15  2  0.24341000  0.50000000  0.04453000  1.0
  Au  Au16  2  0.25000000  0.00000000  0.86670000  1.0
  Au  Au17  2  0.25000000  0.50000000  0.86670000  1.0
  C  C18  1  0.50000000  0.00000000  0.21228000  1.0
  O  O19  1  0.50000000  0.00000000  0.25431000  1.0
