# generated using pymatgen
data_Li16In8Au8CO
_symmetry_space_group_name_H-M   'P 1'
_cell_length_a   9.34782000
_cell_length_b   6.60991000
_cell_length_c   27.01090000
_cell_angle_alpha   90.00000000
_cell_angle_beta   90.00000000
_cell_angle_gamma   90.00000000
_symmetry_Int_Tables_number   1
_chemical_formula_structural   Li16In8Au8CO
_chemical_formula_sum   'Li16 In8 Au8 C1 O1'
_cell_volume   1668.95621211
_cell_formula_units_Z   1
loop_
 _symmetry_equiv_pos_site_id
 _symmetry_equiv_pos_as_xyz
  1  'x, y, z'
loop_
 _atom_site_type_symbol
 _atom_site_label
 _atom_site_symmetry_multiplicity
 _atom_site_fract_x
 _atom_site_fract_y
 _atom_site_fract_z
 _atom_site_occupancy
  Li  Li0  1  0.25001000  1.00000000  0.04326000  1.0
  Li  Li1  1  0.50000000  0.50000000  0.12978000  1.0
  Li  Li2  1  0.74999000  1.00000000  0.04326000  1.0
  Li  Li3  1  0.00000000  0.50000000  0.12978000  1.0
  Li  Li4  1  0.75001000  0.25000000  0.12978000  1.0
  Li  Li5  1  0.24999000  0.25000000  0.12978000  1.0
  Li  Li6  1  0.00000000  0.75000000  0.04326000  1.0
  Li  Li7  1  0.50000000  0.75000000  0.04326000  1.0
  Li  Li8  1  0.74864000  0.01459000  0.87226000  1.0
  Li  Li9  1  0.00000000  0.50563000  0.96408000  1.0
  Li  Li10  1  0.25136000  0.01459000  0.87226000  1.0
  Li  Li11  1  0.50000000  0.51210000  0.96330000  1.0
  Li  Li12  1  0.25108000  0.27571000  0.95249000  1.0
  Li  Li13  1  0.74892000  0.27571000  0.95249000  1.0
  Li  Li14  1  0.50000000  0.72741000  0.87317000  1.0
  Li  Li15  1  0.00000000  0.71656000  0.87783000  1.0
  In  In16  1  0.50000000  0.00000000  0.12978000  1.0
  In  In17  1  0.75001000  0.50000000  0.04326000  1.0
  In  In18  1  0.24999000  0.50000000  0.04326000  1.0
  In  In19  1  0.00000000  1.00000000  0.12978000  1.0
  In  In20  1  0.00000000  0.99441000  0.95868000  1.0
  In  In21  1  0.25052000  0.49020000  0.85231000  1.0
  In  In22  1  0.74948000  0.49020000  0.85231000  1.0
  In  In23  1  0.50000000  0.99168000  0.95834000  1.0
  Au  Au24  1  0.50000000  0.25000000  0.04326000  1.0
  Au  Au25  1  0.00000000  0.25000000  0.04326000  1.0
  Au  Au26  1  0.25001000  0.75000000  0.12978000  1.0
  Au  Au27  1  0.74999000  0.75000000  0.12978000  1.0
  Au  Au28  1  0.00000000  0.27738000  0.88166000  1.0
  Au  Au29  1  0.50000000  0.28259000  0.88261000  1.0
  Au  Au30  1  0.75119000  0.73106000  0.94875000  1.0
  Au  Au31  1  0.24881000  0.73106000  0.94875000  1.0
  C  C32  1  0.50000000  0.86854000  0.80480000  1.0
  O  O33  1  0.50000000  0.92785000  0.76484000  1.0
