# generated using pymatgen
data_Mn16V8Ga8CO
_symmetry_space_group_name_H-M   'P 1'
_cell_length_a   8.25739000
_cell_length_b   5.83886000
_cell_length_c   26.19300000
_cell_angle_alpha   90.00000000
_cell_angle_beta   90.00000000
_cell_angle_gamma   90.00000000
_symmetry_Int_Tables_number   1
_chemical_formula_structural   Mn16V8Ga8CO
_chemical_formula_sum   'Mn16 V8 Ga8 C1 O1'
_cell_volume   1262.86260119
_cell_formula_units_Z   1
loop_
 _symmetry_equiv_pos_site_id
 _symmetry_equiv_pos_as_xyz
  1  'x, y, z'
loop_
 _atom_site_type_symbol
 _atom_site_label
 _atom_site_symmetry_multiplicity
 _atom_site_fract_x
 _atom_site_fract_y
 _atom_site_fract_z
 _atom_site_occupancy
  Mn  Mn0  1  0.00000000  0.25000000  0.03941000  1.0
  Mn  Mn1  1  0.50000000  0.75000000  0.03941000  1.0
  Mn  Mn2  1  0.00000000  0.75000000  0.03941000  1.0
  Mn  Mn3  1  0.50000000  0.25000000  0.03941000  1.0
  Mn  Mn4  1  0.74999000  0.75000000  0.11822000  1.0
  Mn  Mn5  1  0.24999000  0.25000000  0.11822000  1.0
  Mn  Mn6  1  0.75001000  0.25000000  0.11822000  1.0
  Mn  Mn7  1  0.25001000  0.75000000  0.11822000  1.0
  Mn  Mn8  1  0.50000000  0.25132000  0.87829000  1.0
  Mn  Mn9  1  0.00000000  0.74819000  0.87806000  1.0
  Mn  Mn10  1  0.50000000  0.74753000  0.87791000  1.0
  Mn  Mn11  1  0.00000000  0.26685000  0.87944000  1.0
  Mn  Mn12  1  0.24992000  0.75213000  0.95900000  1.0
  Mn  Mn13  1  0.75053000  0.24753000  0.95916000  1.0
  Mn  Mn14  1  0.24947000  0.24753000  0.95916000  1.0
  Mn  Mn15  1  0.75008000  0.75213000  0.95900000  1.0
  V  V16  1  0.00000000  0.00000000  0.11822000  1.0
  V  V17  1  0.24999000  0.50000000  0.03941000  1.0
  V  V18  1  0.75001000  0.50000000  0.03941000  1.0
  V  V19  1  0.50000000  0.00000000  0.11822000  1.0
  V  V20  1  0.50000000  0.00077000  0.95888000  1.0
  V  V21  1  0.75224000  0.49208000  0.88396000  1.0
  V  V22  1  0.24776000  0.49208000  0.88396000  1.0
  V  V23  1  0.00000000  0.99681000  0.95920000  1.0
  Ga  Ga24  1  0.74999000  0.00000000  0.03941000  1.0
  Ga  Ga25  1  0.00000000  0.50000000  0.11822000  1.0
  Ga  Ga26  1  0.25001000  0.00000000  0.03941000  1.0
  Ga  Ga27  1  0.50000000  0.50000000  0.11822000  1.0
  Ga  Ga28  1  0.24617000  0.00325000  0.87434000  1.0
  Ga  Ga29  1  0.50000000  0.50029000  0.95948000  1.0
  Ga  Ga30  1  0.75383000  0.00325000  0.87434000  1.0
  Ga  Ga31  1  0.00000000  0.49969000  0.96016000  1.0
  C  C32  1  0.00000000  0.35453000  0.81274000  1.0
  O  O33  1  0.00000000  0.40018000  0.76915000  1.0
