# generated using pymatgen
data_Mn16V8Ga8CO
_symmetry_space_group_name_H-M   Pm
_cell_length_a   5.83886000
_cell_length_b   8.25739000
_cell_length_c   26.19300000
_cell_angle_alpha   90.00000000
_cell_angle_beta   90.00000000
_cell_angle_gamma   90.00000000
_symmetry_Int_Tables_number   6
_chemical_formula_structural   Mn16V8Ga8CO
_chemical_formula_sum   'Mn16 V8 Ga8 C1 O1'
_cell_volume   1262.86260119
_cell_formula_units_Z   1
loop_
 _symmetry_equiv_pos_site_id
 _symmetry_equiv_pos_as_xyz
  1  'x, y, z'
  2  'x, -y, z'
loop_
 _atom_site_type_symbol
 _atom_site_label
 _atom_site_symmetry_multiplicity
 _atom_site_fract_x
 _atom_site_fract_y
 _atom_site_fract_z
 _atom_site_occupancy
  Mn  Mn0  2  0.24753000  0.24947000  0.04084000  1.0
  Mn  Mn1  2  0.25000000  0.24999000  0.88178000  1.0
  Mn  Mn2  2  0.75000000  0.25001000  0.88178000  1.0
  Mn  Mn3  2  0.75213000  0.24992000  0.04100000  1.0
  Mn  Mn4  1  0.25000000  0.00000000  0.96059000  1.0
  Mn  Mn5  1  0.25000000  0.50000000  0.96059000  1.0
  Mn  Mn6  1  0.25132000  0.50000000  0.12171000  1.0
  Mn  Mn7  1  0.26685000  0.00000000  0.12056000  1.0
  Mn  Mn8  1  0.74753000  0.50000000  0.12209000  1.0
  Mn  Mn9  1  0.74819000  0.00000000  0.12194000  1.0
  Mn  Mn10  1  0.75000000  0.00000000  0.96059000  1.0
  Mn  Mn11  1  0.75000000  0.50000000  0.96059000  1.0
  V  V12  2  0.49208000  0.24776000  0.11604000  1.0
  V  V13  2  0.50000000  0.24999000  0.96059000  1.0
  V  V14  1  0.00000000  0.00000000  0.88178000  1.0
  V  V15  1  0.00000000  0.50000000  0.88178000  1.0
  V  V16  1  0.00077000  0.50000000  0.04112000  1.0
  V  V17  1  0.99681000  0.00000000  0.04080000  1.0
  Ga  Ga18  2  0.00000000  0.25001000  0.96059000  1.0
  Ga  Ga19  2  0.00325000  0.24617000  0.12566000  1.0
  Ga  Ga20  1  0.49969000  0.00000000  0.03984000  1.0
  Ga  Ga21  1  0.50000000  0.00000000  0.88178000  1.0
  Ga  Ga22  1  0.50000000  0.50000000  0.88178000  1.0
  Ga  Ga23  1  0.50029000  0.50000000  0.04052000  1.0
  C  C24  1  0.35453000  0.00000000  0.18726000  1.0
  O  O25  1  0.40018000  0.00000000  0.23085000  1.0
