# generated using pymatgen
data_Li8Al8Ag8Pd8CO
_symmetry_space_group_name_H-M   Pm
_cell_length_a   6.21941000
_cell_length_b   8.79558000
_cell_length_c   26.59670000
_cell_angle_alpha   90.00000000
_cell_angle_beta   90.00000000
_cell_angle_gamma   90.00000000
_symmetry_Int_Tables_number   6
_chemical_formula_structural   Li8Al8Ag8Pd8CO
_chemical_formula_sum   'Li8 Al8 Ag8 Pd8 C1 O1'
_cell_volume   1454.92774338
_cell_formula_units_Z   1
loop_
 _symmetry_equiv_pos_site_id
 _symmetry_equiv_pos_as_xyz
  1  'x, y, z'
  2  'x, -y, z'
loop_
 _atom_site_type_symbol
 _atom_site_label
 _atom_site_symmetry_multiplicity
 _atom_site_fract_x
 _atom_site_fract_y
 _atom_site_fract_z
 _atom_site_occupancy
  Li  Li0  2  0.74745000  0.24829000  0.03964000  1.0
  Li  Li1  2  0.75000000  0.25000000  0.87599000  1.0
  Li  Li2  1  0.24098000  0.50000000  0.13026000  1.0
  Li  Li3  1  0.24147000  0.00000000  0.13010000  1.0
  Li  Li4  1  0.25000000  0.00000000  0.95866000  1.0
  Li  Li5  1  0.25000000  0.50000000  0.95866000  1.0
  Al  Al6  2  0.25000000  0.25000000  0.87599000  1.0
  Al  Al7  2  0.25331000  0.25011000  0.04120000  1.0
  Al  Al8  1  0.75000000  0.00000000  0.95866000  1.0
  Al  Al9  1  0.75000000  0.50000000  0.95866000  1.0
  Al  Al10  1  0.76091000  0.00000000  0.12234000  1.0
  Al  Al11  1  0.76198000  0.50000000  0.11989000  1.0
  Ag  Ag12  2  0.50000000  0.25000000  0.95866000  1.0
  Ag  Ag13  2  0.50733000  0.25289000  0.12343000  1.0
  Ag  Ag14  1  -0.00000000  0.50000000  0.87599000  1.0
  Ag  Ag15  1  0.00000000  0.00000000  0.87599000  1.0
  Ag  Ag16  1  0.00493000  0.00000000  0.04027000  1.0
  Ag  Ag17  1  0.00590000  0.50000000  0.03853000  1.0
  Pd  Pd18  2  0.00000000  0.25000000  0.95866000  1.0
  Pd  Pd19  2  0.98997000  0.25352000  0.11650000  1.0
  Pd  Pd20  1  0.49913000  0.50000000  0.04014000  1.0
  Pd  Pd21  1  0.49952000  0.00000000  0.04306000  1.0
  Pd  Pd22  1  0.50000000  0.00000000  0.87599000  1.0
  Pd  Pd23  1  0.50000000  0.50000000  0.87599000  1.0
  C  C24  1  0.75221000  0.00000000  0.19710000  1.0
  O  O25  1  0.75317000  0.00000000  0.24059000  1.0
