# generated using pymatgen
data_Li8Cu16Si8CO
_symmetry_space_group_name_H-M   'P 1'
_cell_length_a   5.78917000
_cell_length_b   8.18712000
_cell_length_c   26.14030000
_cell_angle_alpha   90.00000000
_cell_angle_beta   90.00000000
_cell_angle_gamma   90.00000000
_symmetry_Int_Tables_number   1
_chemical_formula_structural   Li8Cu16Si8CO
_chemical_formula_sum   'Li8 Cu16 Si8 C1 O1'
_cell_volume   1238.96211387
_cell_formula_units_Z   1
loop_
 _symmetry_equiv_pos_site_id
 _symmetry_equiv_pos_as_xyz
  1  'x, y, z'
loop_
 _atom_site_type_symbol
 _atom_site_label
 _atom_site_symmetry_multiplicity
 _atom_site_fract_x
 _atom_site_fract_y
 _atom_site_fract_z
 _atom_site_occupancy
  Li  Li0  1  0.00000000  0.74998000  0.88255000  1.0
  Li  Li1  1  0.50000000  0.00000000  0.96085000  1.0
  Li  Li2  1  0.50000000  0.50000000  0.96085000  1.0
  Li  Li3  1  0.00000000  0.25002000  0.88255000  1.0
  Li  Li4  1  0.00000000  0.25092000  0.03380000  1.0
  Li  Li5  1  0.50000000  0.50000000  0.13243000  1.0
  Li  Li6  1  0.50000000  0.00000000  0.13200000  1.0
  Li  Li7  1  0.00000000  0.74908000  0.03380000  1.0
  Cu  Cu8  1  0.24999000  0.74998000  0.96085000  1.0
  Cu  Cu9  1  0.75001000  0.25002000  0.96085000  1.0
  Cu  Cu10  1  0.75001000  0.74998000  0.96085000  1.0
  Cu  Cu11  1  0.24999000  0.25002000  0.96085000  1.0
  Cu  Cu12  1  0.74999000  0.50000000  0.88255000  1.0
  Cu  Cu13  1  0.24999000  0.00000000  0.88255000  1.0
  Cu  Cu14  1  0.25001000  0.50000000  0.88255000  1.0
  Cu  Cu15  1  0.75001000  0.00000000  0.88255000  1.0
  Cu  Cu16  1  0.22442000  0.25070000  0.11206000  1.0
  Cu  Cu17  1  0.77558000  0.74930000  0.11206000  1.0
  Cu  Cu18  1  0.77558000  0.25070000  0.11206000  1.0
  Cu  Cu19  1  0.22442000  0.74930000  0.11206000  1.0
  Cu  Cu20  1  0.74408000  0.00000000  0.04178000  1.0
  Cu  Cu21  1  0.25674000  0.50000000  0.04219000  1.0
  Cu  Cu22  1  0.25592000  0.00000000  0.04178000  1.0
  Cu  Cu23  1  0.74326000  0.50000000  0.04219000  1.0
  Si  Si24  1  0.00000000  0.50000000  0.96085000  1.0
  Si  Si25  1  0.50000000  0.74998000  0.88255000  1.0
  Si  Si26  1  0.00000000  0.00000000  0.96085000  1.0
  Si  Si27  1  0.50000000  0.25002000  0.88255000  1.0
  Si  Si28  1  0.00000000  0.00000000  0.11682000  1.0
  Si  Si29  1  0.50000000  0.24981000  0.04205000  1.0
  Si  Si30  1  0.00000000  0.50000000  0.11848000  1.0
  Si  Si31  1  0.50000000  0.75019000  0.04205000  1.0
  C  C32  1  0.50000000  0.00000000  0.21231000  1.0
  O  O33  1  0.50000000  0.00000000  0.25584000  1.0
