# generated using pymatgen
data_Li8Y8Sn8Pb8C
_symmetry_space_group_name_H-M   Pmm2
_cell_length_a   9.36828000
_cell_length_b   9.64462000
_cell_length_c   26.65380000
_cell_angle_alpha   90.00000000
_cell_angle_beta   90.00000000
_cell_angle_gamma   90.00000000
_symmetry_Int_Tables_number   25
_chemical_formula_structural   Li8Y8Sn8Pb8C
_chemical_formula_sum   'Li8 Y8 Sn8 Pb8 C1'
_cell_volume   2408.26413572
_cell_formula_units_Z   1
loop_
 _symmetry_equiv_pos_site_id
 _symmetry_equiv_pos_as_xyz
  1  'x, y, z'
  2  '-x, -y, z'
  3  '-x, y, z'
  4  'x, -y, z'
loop_
 _atom_site_type_symbol
 _atom_site_label
 _atom_site_symmetry_multiplicity
 _atom_site_fract_x
 _atom_site_fract_y
 _atom_site_fract_z
 _atom_site_occupancy
  Li  Li0  2  0.23008000  0.00000000  0.11613000  1.0
  Li  Li1  2  0.24190000  0.50000000  0.11560000  1.0
  Li  Li2  2  0.25000000  0.00000000  0.95839000  1.0
  Li  Li3  2  0.25000000  0.50000000  0.95839000  1.0
  Y  Y4  2  0.00000000  0.23478000  0.12535000  1.0
  Y  Y5  2  0.00000000  0.25000000  0.95839000  1.0
  Y  Y6  2  0.50000000  0.25000000  0.95839000  1.0
  Y  Y7  2  0.50000000  0.26597000  0.11992000  1.0
  Sn  Sn8  4  0.24793000  0.25243000  0.04174000  1.0
  Sn  Sn9  4  0.25000000  0.25000000  0.87518000  1.0
  Pb  Pb10  1  0.00000000  0.00000000  0.03582000  1.0
  Pb  Pb11  1  0.00000000  0.00000000  0.87518000  1.0
  Pb  Pb12  1  0.00000000  0.50000000  0.04162000  1.0
  Pb  Pb13  1  0.00000000  0.50000000  0.87518000  1.0
  Pb  Pb14  1  0.50000000  0.00000000  0.04563000  1.0
  Pb  Pb15  1  0.50000000  0.00000000  0.87518000  1.0
  Pb  Pb16  1  0.50000000  0.50000000  0.03857000  1.0
  Pb  Pb17  1  0.50000000  0.50000000  0.87518000  1.0
  C  C18  1  0.00000000  0.00000000  0.12784000  1.0
