# generated using pymatgen
data_Sc4Ni8Sn4CO
_symmetry_space_group_name_H-M   P1
_cell_length_a   6.29417000
_cell_length_b   6.29417000
_cell_length_c   24.72060000
_cell_angle_alpha   90.00000000
_cell_angle_beta   90.00000000
_cell_angle_gamma   90.00000000
_symmetry_Int_Tables_number   1
_chemical_formula_structural   Sc4Ni8Sn4CO
_chemical_formula_sum   'Sc4 Ni8 Sn4 C1 O1'
_cell_volume   979.34552839
_cell_formula_units_Z   1
loop_
 _symmetry_equiv_pos_site_id
 _symmetry_equiv_pos_as_xyz
  1  'x, y, z'
loop_
 _atom_site_type_symbol
 _atom_site_label
 _atom_site_symmetry_multiplicity
 _atom_site_fract_x
 _atom_site_fract_y
 _atom_site_fract_z
 _atom_site_occupancy
  Sc  Sc0  1  0.00000000  0.50000000  0.96817000  1.0
  Sc  Sc1  1  0.00021000  0.99997000  0.09683000  1.0
  Sc  Sc2  1  0.49972000  0.50009000  0.09673000  1.0
  Sc  Sc3  1  0.50000000  0.00000000  0.96817000  1.0
  Ni  Ni4  1  0.25000000  0.25000000  0.90452000  1.0
  Ni  Ni5  1  0.25000000  0.75000000  0.90452000  1.0
  Ni  Ni6  1  0.25470000  0.74531000  0.03528000  1.0
  Ni  Ni7  1  0.25474000  0.25472000  0.03528000  1.0
  Ni  Ni8  1  0.74530000  0.25475000  0.03527000  1.0
  Ni  Ni9  1  0.74534000  0.74527000  0.03528000  1.0
  Ni  Ni10  1  0.75000000  0.25000000  0.90452000  1.0
  Ni  Ni11  1  0.75000000  0.75000000  0.90452000  1.0
  Sn  Sn12  1  0.00000000  0.00000000  0.96817000  1.0
  Sn  Sn13  1  0.50000000  0.50000000  0.96817000  1.0
  Sn  Sn14  1  0.50014000  0.99999000  0.09921000  1.0
  Sn  Sn15  1  0.99990000  0.49996000  0.09921000  1.0
  C  C16  1  0.00001000  0.00001000  0.19201000  1.0
  O  O17  1  0.99991000  0.00002000  0.23839000  1.0
