# generated using pymatgen
data_Sc16Pd16C
_symmetry_space_group_name_H-M   'P 1'
_cell_length_a   6.66071000
_cell_length_b   9.41967000
_cell_length_c   27.06480000
_cell_angle_alpha   90.00000000
_cell_angle_beta   90.00000000
_cell_angle_gamma   90.00000000
_symmetry_Int_Tables_number   1
_chemical_formula_structural   Sc16Pd16C
_chemical_formula_sum   'Sc16 Pd16 C1'
_cell_volume   1698.09129600
_cell_formula_units_Z   1
loop_
 _symmetry_equiv_pos_site_id
 _symmetry_equiv_pos_as_xyz
  1  'x, y, z'
loop_
 _atom_site_type_symbol
 _atom_site_label
 _atom_site_symmetry_multiplicity
 _atom_site_fract_x
 _atom_site_fract_y
 _atom_site_fract_z
 _atom_site_occupancy
  Sc  Sc0  1  0.25000000  0.75001000  0.86948000  1.0
  Sc  Sc1  1  0.25000000  0.50000000  0.95649000  1.0
  Sc  Sc2  1  0.25065000  0.74968000  0.04345000  1.0
  Sc  Sc3  1  0.29444000  0.50000000  0.13805000  1.0
  Sc  Sc4  1  0.25000000  0.24999000  0.86948000  1.0
  Sc  Sc5  1  0.25000000  0.00000000  0.95649000  1.0
  Sc  Sc6  1  0.25065000  0.25032000  0.04345000  1.0
  Sc  Sc7  1  0.24588000  0.00000000  0.12983000  1.0
  Sc  Sc8  1  0.75000000  0.75001000  0.86948000  1.0
  Sc  Sc9  1  0.75000000  0.50000000  0.95649000  1.0
  Sc  Sc10  1  0.74935000  0.74968000  0.04345000  1.0
  Sc  Sc11  1  0.70556000  0.50000000  0.13805000  1.0
  Sc  Sc12  1  0.75000000  0.24999000  0.86948000  1.0
  Sc  Sc13  1  0.75000000  0.00000000  0.95649000  1.0
  Sc  Sc14  1  0.74935000  0.25032000  0.04345000  1.0
  Sc  Sc15  1  0.75412000  0.00000000  0.12983000  1.0
  Pd  Pd16  1  0.00000000  0.50000000  0.86948000  1.0
  Pd  Pd17  1  0.00000000  0.75001000  0.95649000  1.0
  Pd  Pd18  1  0.00000000  0.50000000  0.04861000  1.0
  Pd  Pd19  1  0.00000000  0.74107000  0.12111000  1.0
  Pd  Pd20  1  0.00000000  0.00000000  0.86948000  1.0
  Pd  Pd21  1  0.00000000  0.24999000  0.95649000  1.0
  Pd  Pd22  1  0.00000000  0.00000000  0.04737000  1.0
  Pd  Pd23  1  0.00000000  0.25893000  0.12111000  1.0
  Pd  Pd24  1  0.50000000  0.50000000  0.86948000  1.0
  Pd  Pd25  1  0.50000000  0.75001000  0.95649000  1.0
  Pd  Pd26  1  0.50000000  0.50000000  0.04015000  1.0
  Pd  Pd27  1  0.50000000  0.76767000  0.12282000  1.0
  Pd  Pd28  1  0.50000000  0.00000000  0.86948000  1.0
  Pd  Pd29  1  0.50000000  0.24999000  0.95649000  1.0
  Pd  Pd30  1  0.50000000  0.00000000  0.04200000  1.0
  Pd  Pd31  1  0.50000000  0.23233000  0.12282000  1.0
  C  C32  1  0.00000000  0.50000000  0.13343000  1.0
