# generated using pymatgen
data_Ta4Rh12C
_symmetry_space_group_name_H-M   Pmm2
_cell_length_a   5.51512000
_cell_length_b   7.79956000
_cell_length_c   24.13630000
_cell_angle_alpha   90.00000000
_cell_angle_beta   90.00000000
_cell_angle_gamma   90.00000000
_symmetry_Int_Tables_number   25
_chemical_formula_structural   Ta4Rh12C
_chemical_formula_sum   'Ta4 Rh12 C1'
_cell_volume   1038.23523826
_cell_formula_units_Z   1
loop_
 _symmetry_equiv_pos_site_id
 _symmetry_equiv_pos_as_xyz
  1  'x, y, z'
  2  '-x, -y, z'
  3  '-x, y, z'
  4  'x, -y, z'
loop_
 _atom_site_type_symbol
 _atom_site_label
 _atom_site_symmetry_multiplicity
 _atom_site_fract_x
 _atom_site_fract_y
 _atom_site_fract_z
 _atom_site_occupancy
  Ta  Ta0  1  0.00000000  0.00000000  0.08569000  1.0
  Ta  Ta1  1  0.00000000  0.50000000  0.08569000  1.0
  Ta  Ta2  1  0.50000000  0.00000000  0.97507000  1.0
  Ta  Ta3  1  0.50000000  0.50000000  0.97409000  1.0
  Rh  Rh4  4  0.24861000  0.20118000  0.91338000  1.0
  Rh  Rh5  4  0.25000000  0.25000000  0.02856000  1.0
  Rh  Rh6  1  0.00000000  0.00000000  0.98224000  1.0
  Rh  Rh7  1  0.00000000  0.50000000  0.97128000  1.0
  Rh  Rh8  1  0.50000000  0.00000000  0.08569000  1.0
  Rh  Rh9  1  0.50000000  0.50000000  0.08569000  1.0
  C  C10  1  0.00000000  0.00000000  0.89463000  1.0
