# generated using pymatgen
data_Mg4Ni8Sn4CO
_symmetry_space_group_name_H-M   Pm
_cell_length_a   6.21377000
_cell_length_b   6.21377000
_cell_length_c   24.66030000
_cell_angle_alpha   90.00000000
_cell_angle_beta   90.00000000
_cell_angle_gamma   90.00000000
_symmetry_Int_Tables_number   6
_chemical_formula_structural   Mg4Ni8Sn4CO
_chemical_formula_sum   'Mg4 Ni8 Sn4 C1 O1'
_cell_volume   952.15730482
_cell_formula_units_Z   1
loop_
 _symmetry_equiv_pos_site_id
 _symmetry_equiv_pos_as_xyz
  1  'x, y, z'
  2  'x, -y, z'
loop_
 _atom_site_type_symbol
 _atom_site_label
 _atom_site_symmetry_multiplicity
 _atom_site_fract_x
 _atom_site_fract_y
 _atom_site_fract_z
 _atom_site_occupancy
  Mg  Mg0  1  0.00000000  0.50000000  0.96850000  1.0
  Mg  Mg1  1  0.50000000  0.00000000  0.96850000  1.0
  Mg  Mg2  1  0.50000000  0.50000000  0.09556000  1.0
  Mg  Mg3  1  0.99995000  0.00000000  0.09541000  1.0
  Ni  Ni4  2  0.25000000  0.25001000  0.90551000  1.0
  Ni  Ni5  2  0.25495000  0.24517000  0.03426000  1.0
  Ni  Ni6  2  0.74503000  0.24518000  0.03422000  1.0
  Ni  Ni7  2  0.75000000  0.25001000  0.90551000  1.0
  Sn  Sn8  1  0.00000000  0.00000000  0.96850000  1.0
  Sn  Sn9  1  0.50000000  0.50000000  0.96850000  1.0
  Sn  Sn10  1  0.50002000  0.00000000  0.10026000  1.0
  Sn  Sn11  1  0.99997000  0.50000000  0.09599000  1.0
  C  C12  1  0.00011000  0.50000000  0.27918000  1.0
  O  O13  1  0.99996000  0.50000000  0.32531000  1.0
