data_image0
_chemical_formula_structural       Li4Y4Sn4Pb4
_chemical_formula_sum              "Li4 Y4 Sn4 Pb4"
_cell_length_a       8.87168
_cell_length_b       6.72279
_cell_length_c       25.04
_cell_angle_alpha    90
_cell_angle_beta     90
_cell_angle_gamma    90

_space_group_name_H-M_alt    "P 1"
_space_group_IT_number       1

loop_
  _space_group_symop_operation_xyz
  'x, y, z'

loop_
  _atom_site_type_symbol
  _atom_site_label
  _atom_site_symmetry_multiplicity
  _atom_site_fract_x
  _atom_site_fract_y
  _atom_site_fract_z
  _atom_site_occupancy
  Li  Li1       1.0  0.00000  0.99351  0.09227  1.0000
  Li  Li2       1.0  0.00000  0.48547  0.96645  1.0000
  Li  Li3       1.0  0.50000  0.99351  0.09227  1.0000
  Li  Li4       1.0  0.50000  0.48547  0.96645  1.0000
  Y   Y1        1.0  0.00000  0.49983  0.09222  1.0000
  Y   Y2        1.0  0.00000  0.98547  0.96645  1.0000
  Y   Y3        1.0  0.50000  0.49982  0.09223  1.0000
  Y   Y4        1.0  0.50000  0.98547  0.96645  1.0000
  Sn  Sn1       1.0  0.25002  0.74622  0.03512  1.0000
  Sn  Sn2       1.0  0.25000  0.22820  0.89936  1.0000
  Sn  Sn3       1.0  0.74997  0.74615  0.03511  1.0000
  Sn  Sn4       1.0  0.75000  0.22820  0.89936  1.0000
  Pb  Pb1       1.0  0.25001  0.23936  0.03552  1.0000
  Pb  Pb2       1.0  0.25000  0.72820  0.89936  1.0000
  Pb  Pb3       1.0  0.74999  0.23941  0.03554  1.0000
  Pb  Pb4       1.0  0.75000  0.72820  0.89936  1.0000
