# generated using pymatgen
data_Li4Y4Sn4Ge4CO
_symmetry_space_group_name_H-M   'P 1'
_cell_length_a   8.52742000
_cell_length_b   6.38551000
_cell_length_c   24.76910000
_cell_angle_alpha   90.00000000
_cell_angle_beta   90.00000000
_cell_angle_gamma   90.00000000
_symmetry_Int_Tables_number   1
_chemical_formula_structural   Li4Y4Sn4Ge4CO
_chemical_formula_sum   'Li4 Y4 Sn4 Ge4 C1 O1'
_cell_volume   1348.72519246
_cell_formula_units_Z   1
loop_
 _symmetry_equiv_pos_site_id
 _symmetry_equiv_pos_as_xyz
  1  'x, y, z'
loop_
 _atom_site_type_symbol
 _atom_site_label
 _atom_site_symmetry_multiplicity
 _atom_site_fract_x
 _atom_site_fract_y
 _atom_site_fract_z
 _atom_site_occupancy
  Li  Li0  1  0.00000000  0.72717000  0.03209000  1.0
  Li  Li1  1  0.00000000  0.18126000  0.91007000  1.0
  Li  Li2  1  0.50000000  0.72717000  0.03209000  1.0
  Li  Li3  1  0.50000000  0.19203000  0.91024000  1.0
  Y  Y4  1  0.00000000  0.22717000  0.03209000  1.0
  Y  Y5  1  0.00000000  0.67560000  0.91047000  1.0
  Y  Y6  1  0.50000000  0.22717000  0.03209000  1.0
  Y  Y7  1  0.50000000  0.68295000  0.90969000  1.0
  Sn  Sn8  1  0.75000000  0.50000000  0.09627000  1.0
  Sn  Sn9  1  0.74853000  0.95221000  0.97013000  1.0
  Sn  Sn10  1  0.25000000  0.50000000  0.09627000  1.0
  Sn  Sn11  1  0.25147000  0.95221000  0.97013000  1.0
  Ge  Ge12  1  0.75000000  0.00000000  0.09627000  1.0
  Ge  Ge13  1  0.74785000  0.45027000  0.96654000  1.0
  Ge  Ge14  1  0.25000000  0.00000000  0.09627000  1.0
  Ge  Ge15  1  0.25215000  0.45027000  0.96654000  1.0
  C  C16  1  0.00000000  0.18685000  0.82851000  1.0
  O  O17  1  0.00000000  0.18351000  0.78184000  1.0
