# generated using pymatgen
data_Li4Sc4In4Ge4C
_symmetry_space_group_name_H-M   Pm
_cell_length_a   5.77954000
_cell_length_b   8.97372000
_cell_length_c   24.33440000
_cell_angle_alpha   90.00000000
_cell_angle_beta   90.00000000
_cell_angle_gamma   90.00000000
_symmetry_Int_Tables_number   6
_chemical_formula_structural   Li4Sc4In4Ge4C
_chemical_formula_sum   'Li4 Sc4 In4 Ge4 C1'
_cell_volume   1262.07868133
_cell_formula_units_Z   1
loop_
 _symmetry_equiv_pos_site_id
 _symmetry_equiv_pos_as_xyz
  1  'x, y, z'
  2  'x, -y, z'
loop_
 _atom_site_type_symbol
 _atom_site_label
 _atom_site_symmetry_multiplicity
 _atom_site_fract_x
 _atom_site_fract_y
 _atom_site_fract_z
 _atom_site_occupancy
  Li  Li0  2  0.24712000  0.24999000  0.97031000  1.0
  Li  Li1  2  0.70240000  0.16162000  0.11363000  1.0
  Sc  Sc2  1  0.01469000  0.50000000  0.03175000  1.0
  Sc  Sc3  1  0.50000000  0.00000000  0.91094000  1.0
  Sc  Sc4  1  0.50000000  0.50000000  0.91094000  1.0
  Sc  Sc5  1  0.97583000  0.00000000  0.02808000  1.0
  In  In6  2  0.21259000  0.19560000  0.11551000  1.0
  In  In7  2  0.74712000  0.24999000  0.97031000  1.0
  Ge  Ge8  1  -0.00000000  0.50000000  0.91094000  1.0
  Ge  Ge9  1  0.00000000  0.00000000  0.91094000  1.0
  Ge  Ge10  1  0.46980000  0.00000000  0.02616000  1.0
  Ge  Ge11  1  0.52015000  0.50000000  0.03316000  1.0
  C  C12  1  0.95972000  0.00000000  0.11418000  1.0
