# generated using pymatgen
data_Li8Ni8Ge8Pd8CO
_symmetry_space_group_name_H-M   'P 1'
_cell_length_a   5.93854000
_cell_length_b   8.39836000
_cell_length_c   26.29880000
_cell_angle_alpha   90.00000000
_cell_angle_beta   90.00000000
_cell_angle_gamma   90.00000000
_symmetry_Int_Tables_number   1
_chemical_formula_structural   Li8Ni8Ge8Pd8CO
_chemical_formula_sum   'Li8 Ni8 Ge8 Pd8 C1 O1'
_cell_volume   1311.62626690
_cell_formula_units_Z   1
loop_
 _symmetry_equiv_pos_site_id
 _symmetry_equiv_pos_as_xyz
  1  'x, y, z'
loop_
 _atom_site_type_symbol
 _atom_site_label
 _atom_site_symmetry_multiplicity
 _atom_site_fract_x
 _atom_site_fract_y
 _atom_site_fract_z
 _atom_site_occupancy
  Li  Li0  1  0.00000000  0.25000000  0.96008000  1.0
  Li  Li1  1  0.00000000  0.75000000  0.96008000  1.0
  Li  Li2  1  0.50000000  0.50000000  0.88025000  1.0
  Li  Li3  1  0.50000000  0.00000000  0.88025000  1.0
  Li  Li4  1  0.99134000  0.74333000  0.13324000  1.0
  Li  Li5  1  0.99133000  0.25665000  0.13325000  1.0
  Li  Li6  1  0.48810000  0.00001000  0.03904000  1.0
  Li  Li7  1  0.49930000  0.50000000  0.03592000  1.0
  Ni  Ni8  1  0.75000000  0.00000000  0.96008000  1.0
  Ni  Ni9  1  0.75000000  0.50000000  0.96008000  1.0
  Ni  Ni10  1  0.25000000  0.25000000  0.88025000  1.0
  Ni  Ni11  1  0.25000000  0.75000000  0.88025000  1.0
  Ni  Ni12  1  0.73059000  0.49999000  0.10995000  1.0
  Ni  Ni13  1  0.72575000  0.99999000  0.11014000  1.0
  Ni  Ni14  1  0.25013000  0.75307000  0.04273000  1.0
  Ni  Ni15  1  0.25017000  0.24693000  0.04274000  1.0
  Ge  Ge16  1  0.00000000  0.00000000  0.88025000  1.0
  Ge  Ge17  1  0.00000000  0.50000000  0.88025000  1.0
  Ge  Ge18  1  0.50000000  0.75000000  0.96008000  1.0
  Ge  Ge19  1  0.50000000  0.25000000  0.96008000  1.0
  Ge  Ge20  1  0.00519000  0.50002000  0.04172000  1.0
  Ge  Ge21  1  0.01045000  0.00002000  0.04214000  1.0
  Ge  Ge22  1  0.51672000  0.25054000  0.12025000  1.0
  Ge  Ge23  1  0.51663000  0.74943000  0.12020000  1.0
  Pd  Pd24  1  0.25000000  0.00000000  0.96008000  1.0
  Pd  Pd25  1  0.25000000  0.50000000  0.96008000  1.0
  Pd  Pd26  1  0.75000000  0.25000000  0.88025000  1.0
  Pd  Pd27  1  0.75000000  0.75000000  0.88025000  1.0
  Pd  Pd28  1  0.27423000  0.49996000  0.11561000  1.0
  Pd  Pd29  1  0.25540000  0.00002000  0.12744000  1.0
  Pd  Pd30  1  0.75632000  0.75269000  0.03867000  1.0
  Pd  Pd31  1  0.75629000  0.24731000  0.03869000  1.0
  C  C32  1  0.10228000  0.00000000  0.19353000  1.0
  O  O33  1  0.05534000  0.00000000  0.23620000  1.0
