# generated using pymatgen
data_Zr8Al8Cu16C
_symmetry_space_group_name_H-M   'P 1'
_cell_length_a   8.87129000
_cell_length_b   6.27295000
_cell_length_c   26.65350000
_cell_angle_alpha   90.00000000
_cell_angle_beta   90.00000000
_cell_angle_gamma   90.00000000
_symmetry_Int_Tables_number   1
_chemical_formula_structural   Zr8Al8Cu16C
_chemical_formula_sum   'Zr8 Al8 Cu16 C1'
_cell_volume   1483.24484889
_cell_formula_units_Z   1
loop_
 _symmetry_equiv_pos_site_id
 _symmetry_equiv_pos_as_xyz
  1  'x, y, z'
loop_
 _atom_site_type_symbol
 _atom_site_label
 _atom_site_symmetry_multiplicity
 _atom_site_fract_x
 _atom_site_fract_y
 _atom_site_fract_z
 _atom_site_occupancy
  Zr  Zr0  1  0.75000000  0.00000000  0.12481000  1.0
  Zr  Zr1  1  0.00000000  0.50000000  0.04160000  1.0
  Zr  Zr2  1  0.50000000  0.50000000  0.04160000  1.0
  Zr  Zr3  1  0.25000000  0.00000000  0.12481000  1.0
  Zr  Zr4  1  0.25439000  0.00903000  0.95410000  1.0
  Zr  Zr5  1  0.50000000  0.44786000  0.87719000  1.0
  Zr  Zr6  1  0.00000000  0.47086000  0.88193000  1.0
  Zr  Zr7  1  0.74561000  0.00903000  0.95410000  1.0
  Al  Al8  1  0.50000000  1.00000000  0.04160000  1.0
  Al  Al9  1  0.75000000  0.50000000  0.12481000  1.0
  Al  Al10  1  0.00000000  1.00000000  0.04160000  1.0
  Al  Al11  1  0.25000000  0.50000000  0.12481000  1.0
  Al  Al12  1  0.00000000  0.92551000  0.86868000  1.0
  Al  Al13  1  0.25125000  0.49961000  0.95938000  1.0
  Al  Al14  1  0.50000000  0.98867000  0.87249000  1.0
  Al  Al15  1  0.74875000  0.49961000  0.95938000  1.0
  Cu  Cu16  1  0.75000000  0.25000000  0.04160000  1.0
  Cu  Cu17  1  0.25000000  0.75000000  0.04160000  1.0
  Cu  Cu18  1  0.75000000  0.75000000  0.04160000  1.0
  Cu  Cu19  1  0.25000000  0.25000000  0.04160000  1.0
  Cu  Cu20  1  0.50000000  0.75000000  0.12481000  1.0
  Cu  Cu21  1  0.00000000  0.25000000  0.12481000  1.0
  Cu  Cu22  1  0.50000000  0.25000000  0.12481000  1.0
  Cu  Cu23  1  0.00000000  0.75000000  0.12481000  1.0
  Cu  Cu24  1  0.23185000  0.17597000  0.85355000  1.0
  Cu  Cu25  1  0.74151000  0.72988000  0.87618000  1.0
  Cu  Cu26  1  0.25849000  0.72988000  0.87618000  1.0
  Cu  Cu27  1  0.76815000  0.17597000  0.85355000  1.0
  Cu  Cu28  1  0.00000000  0.76561000  0.96164000  1.0
  Cu  Cu29  1  0.50000000  0.24971000  0.96236000  1.0
  Cu  Cu30  1  0.00000000  0.23470000  0.96457000  1.0
  Cu  Cu31  1  0.50000000  0.73981000  0.95561000  1.0
  C  C32  1  0.00000000  0.20213000  0.83781000  1.0
