# generated using pymatgen
data_Zr8Al8Cu16C
_symmetry_space_group_name_H-M   Pm
_cell_length_a   6.27295000
_cell_length_b   8.87129000
_cell_length_c   26.65350000
_cell_angle_alpha   90.00000000
_cell_angle_beta   90.00000000
_cell_angle_gamma   90.00000000
_symmetry_Int_Tables_number   6
_chemical_formula_structural   Zr8Al8Cu16C
_chemical_formula_sum   'Zr8 Al8 Cu16 C1'
_cell_volume   1483.24484889
_cell_formula_units_Z   1
loop_
 _symmetry_equiv_pos_site_id
 _symmetry_equiv_pos_as_xyz
  1  'x, y, z'
  2  'x, -y, z'
loop_
 _atom_site_type_symbol
 _atom_site_label
 _atom_site_symmetry_multiplicity
 _atom_site_fract_x
 _atom_site_fract_y
 _atom_site_fract_z
 _atom_site_occupancy
  Zr  Zr0  2  0.00000000  0.25000000  0.87519000  1.0
  Zr  Zr1  2  0.00903000  0.25439000  0.04590000  1.0
  Zr  Zr2  1  0.44786000  0.50000000  0.12281000  1.0
  Zr  Zr3  1  0.47086000  0.00000000  0.11807000  1.0
  Zr  Zr4  1  0.50000000  0.00000000  0.95840000  1.0
  Zr  Zr5  1  0.50000000  0.50000000  0.95840000  1.0
  Al  Al6  2  0.49961000  0.25125000  0.04062000  1.0
  Al  Al7  2  0.50000000  0.25000000  0.87519000  1.0
  Al  Al8  1  -0.00000000  0.50000000  0.95840000  1.0
  Al  Al9  1  -0.00000000  0.00000000  0.95840000  1.0
  Al  Al10  1  0.92551000  0.00000000  0.13132000  1.0
  Al  Al11  1  0.98867000  0.50000000  0.12751000  1.0
  Cu  Cu12  2  0.17597000  0.23185000  0.14645000  1.0
  Cu  Cu13  2  0.25000000  0.25000000  0.95840000  1.0
  Cu  Cu14  2  0.72988000  0.25849000  0.12382000  1.0
  Cu  Cu15  2  0.75000000  0.25000000  0.95840000  1.0
  Cu  Cu16  1  0.23470000  0.00000000  0.03543000  1.0
  Cu  Cu17  1  0.24971000  0.50000000  0.03764000  1.0
  Cu  Cu18  1  0.25000000  0.00000000  0.87519000  1.0
  Cu  Cu19  1  0.25000000  0.50000000  0.87519000  1.0
  Cu  Cu20  1  0.73981000  0.50000000  0.04439000  1.0
  Cu  Cu21  1  0.75000000  0.00000000  0.87519000  1.0
  Cu  Cu22  1  0.75000000  0.50000000  0.87519000  1.0
  Cu  Cu23  1  0.76561000  0.00000000  0.03836000  1.0
  C  C24  1  0.20213000  0.00000000  0.16219000  1.0
