# generated using pymatgen
data_Li24Bi8C
_symmetry_space_group_name_H-M   'P 1'
_cell_length_a   9.53179000
_cell_length_b   6.74000000
_cell_length_c   27.14880000
_cell_angle_alpha   90.00000000
_cell_angle_beta   90.00000000
_cell_angle_gamma   90.00000000
_symmetry_Int_Tables_number   1
_chemical_formula_structural   Li24Bi8C
_chemical_formula_sum   'Li24 Bi8 C1'
_cell_volume   1744.15469077
_cell_formula_units_Z   1
loop_
 _symmetry_equiv_pos_site_id
 _symmetry_equiv_pos_as_xyz
  1  'x, y, z'
loop_
 _atom_site_type_symbol
 _atom_site_label
 _atom_site_symmetry_multiplicity
 _atom_site_fract_x
 _atom_site_fract_y
 _atom_site_fract_z
 _atom_site_occupancy
  Li  Li0  1  0.75000000  0.25000000  0.04389000  1.0
  Li  Li1  1  0.25000000  0.75000000  0.04389000  1.0
  Li  Li2  1  0.75000000  0.75000000  0.04389000  1.0
  Li  Li3  1  0.25000000  0.25000000  0.04389000  1.0
  Li  Li4  1  0.50000000  0.75000000  0.13166000  1.0
  Li  Li5  1  0.00000000  0.25000000  0.13166000  1.0
  Li  Li6  1  0.50000000  0.25000000  0.13166000  1.0
  Li  Li7  1  0.00000000  0.75000000  0.13166000  1.0
  Li  Li8  1  0.50000000  0.00000000  0.04389000  1.0
  Li  Li9  1  0.75000000  0.50000000  0.13166000  1.0
  Li  Li10  1  0.00000000  0.00000000  0.04389000  1.0
  Li  Li11  1  0.25000000  0.50000000  0.13166000  1.0
  Li  Li12  1  0.21878000  0.26319000  0.86097000  1.0
  Li  Li13  1  0.72305000  0.73610000  0.86871000  1.0
  Li  Li14  1  0.27695000  0.73610000  0.86871000  1.0
  Li  Li15  1  0.78122000  0.26319000  0.86097000  1.0
  Li  Li16  1  0.00000000  0.75715000  0.96041000  1.0
  Li  Li17  1  0.50000000  0.25263000  0.96144000  1.0
  Li  Li18  1  0.00000000  0.24105000  0.94199000  1.0
  Li  Li19  1  0.50000000  0.74395000  0.95530000  1.0
  Li  Li20  1  0.00000000  0.96991000  0.86904000  1.0
  Li  Li21  1  0.26022000  0.49139000  0.95464000  1.0
  Li  Li22  1  0.50000000  0.04297000  0.88093000  1.0
  Li  Li23  1  0.73978000  0.49139000  0.95464000  1.0
  Bi  Bi24  1  0.75000000  0.00000000  0.13166000  1.0
  Bi  Bi25  1  0.00000000  0.50000000  0.04389000  1.0
  Bi  Bi26  1  0.50000000  0.50000000  0.04389000  1.0
  Bi  Bi27  1  0.25000000  0.00000000  0.13166000  1.0
  Bi  Bi28  1  0.25415000  0.99860000  0.95283000  1.0
  Bi  Bi29  1  0.50000000  0.47230000  0.86983000  1.0
  Bi  Bi30  1  0.00000000  0.57027000  0.86021000  1.0
  Bi  Bi31  1  0.74585000  0.99860000  0.95283000  1.0
  C  C32  1  0.00000000  0.24979000  0.85883000  1.0
