# generated using pymatgen
data_Li24Bi8C
_symmetry_space_group_name_H-M   Pm
_cell_length_a   6.74000000
_cell_length_b   9.53179000
_cell_length_c   27.14880000
_cell_angle_alpha   90.00000000
_cell_angle_beta   90.00000000
_cell_angle_gamma   90.00000000
_symmetry_Int_Tables_number   6
_chemical_formula_structural   Li24Bi8C
_chemical_formula_sum   'Li24 Bi8 C1'
_cell_volume   1744.15469077
_cell_formula_units_Z   1
loop_
 _symmetry_equiv_pos_site_id
 _symmetry_equiv_pos_as_xyz
  1  'x, y, z'
  2  'x, -y, z'
loop_
 _atom_site_type_symbol
 _atom_site_label
 _atom_site_symmetry_multiplicity
 _atom_site_fract_x
 _atom_site_fract_y
 _atom_site_fract_z
 _atom_site_occupancy
  Li  Li0  2  0.25000000  0.25000000  0.95611000  1.0
  Li  Li1  2  0.26319000  0.21878000  0.13903000  1.0
  Li  Li2  2  0.49139000  0.26022000  0.04536000  1.0
  Li  Li3  2  0.50000000  0.25000000  0.86834000  1.0
  Li  Li4  2  0.73610000  0.27695000  0.13129000  1.0
  Li  Li5  2  0.75000000  0.25000000  0.95611000  1.0
  Li  Li6  1  0.00000000  0.00000000  0.95611000  1.0
  Li  Li7  1  0.00000000  0.50000000  0.95611000  1.0
  Li  Li8  1  0.04297000  0.50000000  0.11907000  1.0
  Li  Li9  1  0.24105000  0.00000000  0.05801000  1.0
  Li  Li10  1  0.25000000  0.00000000  0.86834000  1.0
  Li  Li11  1  0.25000000  0.50000000  0.86834000  1.0
  Li  Li12  1  0.25263000  0.50000000  0.03856000  1.0
  Li  Li13  1  0.74395000  0.50000000  0.04470000  1.0
  Li  Li14  1  0.75000000  0.00000000  0.86834000  1.0
  Li  Li15  1  0.75000000  0.50000000  0.86834000  1.0
  Li  Li16  1  0.75715000  0.00000000  0.03959000  1.0
  Li  Li17  1  0.96991000  0.00000000  0.13096000  1.0
  Bi  Bi18  2  0.00000000  0.25000000  0.86834000  1.0
  Bi  Bi19  2  0.99860000  0.25415000  0.04717000  1.0
  Bi  Bi20  1  0.47230000  0.50000000  0.13017000  1.0
  Bi  Bi21  1  0.50000000  0.00000000  0.95611000  1.0
  Bi  Bi22  1  0.50000000  0.50000000  0.95611000  1.0
  Bi  Bi23  1  0.57027000  0.00000000  0.13979000  1.0
  C  C24  1  0.24979000  0.00000000  0.14117000  1.0
