# generated using pymatgen
data_Li8Y8In8Pd8CO
_symmetry_space_group_name_H-M   P1
_cell_length_a   6.81638000
_cell_length_b   9.63982000
_cell_length_c   27.22990000
_cell_angle_alpha   90.00000000
_cell_angle_beta   90.00000000
_cell_angle_gamma   90.00000000
_symmetry_Int_Tables_number   1
_chemical_formula_structural   Li8Y8In8Pd8CO
_chemical_formula_sum   'Li8 Y8 In8 Pd8 C1 O1'
_cell_volume   1789.24068346
_cell_formula_units_Z   1
loop_
 _symmetry_equiv_pos_site_id
 _symmetry_equiv_pos_as_xyz
  1  'x, y, z'
loop_
 _atom_site_type_symbol
 _atom_site_label
 _atom_site_symmetry_multiplicity
 _atom_site_fract_x
 _atom_site_fract_y
 _atom_site_fract_z
 _atom_site_occupancy
  Li  Li0  1  0.22807000  0.25000000  0.04493000  1.0
  Li  Li1  1  0.24460000  0.75001000  0.04727000  1.0
  Li  Li2  1  0.25000000  0.25000000  0.86724000  1.0
  Li  Li3  1  0.25000000  0.75000000  0.86724000  1.0
  Li  Li4  1  0.57058000  0.01390000  0.18630000  1.0
  Li  Li5  1  0.57059000  0.48617000  0.18628000  1.0
  Li  Li6  1  0.75000000  0.00000000  0.95575000  1.0
  Li  Li7  1  0.75000000  0.50000000  0.95575000  1.0
  Y  Y8  1  0.00000000  0.25000000  0.95575000  1.0
  Y  Y9  1  0.00000000  0.75000000  0.95575000  1.0
  Y  Y10  1  0.50000000  0.00000000  0.86724000  1.0
  Y  Y11  1  0.50000000  0.50000000  0.86724000  1.0
  Y  Y12  1  0.51322000  0.50058000  0.05235000  1.0
  Y  Y13  1  0.51322000  0.99945000  0.05235000  1.0
  Y  Y14  1  0.94003000  0.25003000  0.13435000  1.0
  Y  Y15  1  0.94831000  0.75001000  0.13036000  1.0
  In  In16  1  0.00000000  0.00000000  0.86724000  1.0
  In  In17  1  0.00000000  0.50000000  0.86724000  1.0
  In  In18  1  0.45174000  0.25001000  0.13032000  1.0
  In  In19  1  0.46068000  0.75004000  0.14013000  1.0
  In  In20  1  0.50000000  0.25000000  0.95575000  1.0
  In  In21  1  0.50000000  0.75000000  0.95575000  1.0
  In  In22  1  0.99673000  0.00011000  0.04317000  1.0
  In  In23  1  0.99675000  0.49990000  0.04316000  1.0
  Pd  Pd24  1  0.22751000  0.50374000  0.12721000  1.0
  Pd  Pd25  1  0.22752000  0.99629000  0.12720000  1.0
  Pd  Pd26  1  0.25000000  0.00000000  0.95575000  1.0
  Pd  Pd27  1  0.25000000  0.50000000  0.95575000  1.0
  Pd  Pd28  1  0.74681000  0.75001000  0.04072000  1.0
  Pd  Pd29  1  0.74723000  0.25001000  0.03977000  1.0
  Pd  Pd30  1  0.75000000  0.25000000  0.86724000  1.0
  Pd  Pd31  1  0.75000000  0.75000000  0.86724000  1.0
  C  C32  1  0.73807000  0.24990000  0.20639000  1.0
  O  O33  1  0.66576000  0.24972000  0.24640000  1.0
