# generated using pymatgen
data_Zr8Pd8CO
_symmetry_space_group_name_H-M   P4mm
_cell_length_a   6.75388000
_cell_length_b   6.75388000
_cell_length_c   25.06540000
_cell_angle_alpha   90.00000000
_cell_angle_beta   90.00000000
_cell_angle_gamma   90.00000000
_symmetry_Int_Tables_number   99
_chemical_formula_structural   Zr8Pd8CO
_chemical_formula_sum   'Zr8 Pd8 C1 O1'
_cell_volume   1143.35559050
_cell_formula_units_Z   1
loop_
 _symmetry_equiv_pos_site_id
 _symmetry_equiv_pos_as_xyz
  1  'x, y, z'
  2  '-y, x, z'
  3  '-x, -y, z'
  4  'y, -x, z'
  5  '-x, y, z'
  6  'y, x, z'
  7  'x, -y, z'
  8  '-y, -x, z'
loop_
 _atom_site_type_symbol
 _atom_site_label
 _atom_site_symmetry_multiplicity
 _atom_site_fract_x
 _atom_site_fract_y
 _atom_site_fract_z
 _atom_site_occupancy
  Zr  Zr0  2  0.00000000  0.50000000  0.09845000  1.0
  Zr  Zr1  2  0.00000000  0.50000000  0.96373000  1.0
  Zr  Zr2  1  0.00000000  0.00000000  0.09845000  1.0
  Zr  Zr3  1  0.00000000  0.00000000  0.96373000  1.0
  Zr  Zr4  1  0.50000000  0.50000000  0.09845000  1.0
  Zr  Zr5  1  0.50000000  0.50000000  0.96373000  1.0
  Pd  Pd6  4  0.25000000  0.25000000  0.03109000  1.0
  Pd  Pd7  4  0.25000000  0.25000000  0.89637000  1.0
  C  C8  1  0.00000000  0.00000000  0.17426000  1.0
  O  O9  1  0.00000000  0.00000000  0.22014000  1.0
