# generated using pymatgen
data_Li16In8Pt8CO
_symmetry_space_group_name_H-M   'P 1'
_cell_length_a   9.09870000
_cell_length_b   6.43375000
_cell_length_c   26.82400000
_cell_angle_alpha   90.00000000
_cell_angle_beta   90.00000000
_cell_angle_gamma   90.00000000
_symmetry_Int_Tables_number   1
_chemical_formula_structural   Li16In8Pt8CO
_chemical_formula_sum   'Li16 In8 Pt8 C1 O1'
_cell_volume   1570.24372842
_cell_formula_units_Z   1
loop_
 _symmetry_equiv_pos_site_id
 _symmetry_equiv_pos_as_xyz
  1  'x, y, z'
loop_
 _atom_site_type_symbol
 _atom_site_label
 _atom_site_symmetry_multiplicity
 _atom_site_fract_x
 _atom_site_fract_y
 _atom_site_fract_z
 _atom_site_occupancy
  Li  Li0  1  0.50000000  1.00000000  0.04240000  1.0
  Li  Li1  1  0.74997000  0.50000000  0.12720000  1.0
  Li  Li2  1  0.00000000  0.00000000  0.04240000  1.0
  Li  Li3  1  0.25003000  0.50000000  0.12720000  1.0
  Li  Li4  1  0.00000000  0.25000000  0.12720000  1.0
  Li  Li5  1  0.50000000  0.25000000  0.12720000  1.0
  Li  Li6  1  0.24997000  0.75000000  0.04240000  1.0
  Li  Li7  1  0.75003000  0.75000000  0.04240000  1.0
  Li  Li8  1  0.00000000  0.96921000  0.87016000  1.0
  Li  Li9  1  0.25047000  0.49894000  0.95817000  1.0
  Li  Li10  1  0.50000000  0.03064000  0.87889000  1.0
  Li  Li11  1  0.74953000  0.49894000  0.95817000  1.0
  Li  Li12  1  0.50000000  0.25150000  0.96308000  1.0
  Li  Li13  1  0.00000000  0.25445000  0.95527000  1.0
  Li  Li14  1  0.73646000  0.72923000  0.87269000  1.0
  Li  Li15  1  0.26354000  0.72923000  0.87269000  1.0
  In  In16  1  0.74997000  0.25000000  0.04240000  1.0
  In  In17  1  0.25003000  0.25000000  0.04240000  1.0
  In  In18  1  0.50000000  0.75000000  0.12720000  1.0
  In  In19  1  0.00000000  0.75000000  0.12720000  1.0
  In  In20  1  0.24024000  0.25497000  0.87011000  1.0
  In  In21  1  0.75976000  0.25497000  0.87011000  1.0
  In  In22  1  0.00000000  0.74751000  0.95812000  1.0
  In  In23  1  0.50000000  0.75542000  0.95861000  1.0
  Pt  Pt24  1  0.74997000  0.00000000  0.12720000  1.0
  Pt  Pt25  1  0.00000000  0.50000000  0.04240000  1.0
  Pt  Pt26  1  0.50000000  0.50000000  0.04240000  1.0
  Pt  Pt27  1  0.25003000  0.00000000  0.12720000  1.0
  Pt  Pt28  1  0.24901000  0.00168000  0.95611000  1.0
  Pt  Pt29  1  0.50000000  0.46923000  0.88386000  1.0
  Pt  Pt30  1  0.00000000  0.52743000  0.86884000  1.0
  Pt  Pt31  1  0.75099000  0.00168000  0.95611000  1.0
  C  C32  1  0.00000000  0.61080000  0.80060000  1.0
  O  O33  1  0.00000000  0.65162000  0.75835000  1.0
