# generated using pymatgen
data_Li4Ge4Pd4Pt4CO
_symmetry_space_group_name_H-M   Cm
_cell_length_a   8.66768664
_cell_length_b   8.66768664
_cell_length_c   24.59670000
_cell_angle_alpha   90.00000000
_cell_angle_beta   90.00000000
_cell_angle_gamma   90.00000000
_symmetry_Int_Tables_number   8
_chemical_formula_structural   Li4Ge4Pd4Pt4CO
_chemical_formula_sum   'Li8 Ge8 Pd8 Pt8 C2 O2'
_cell_volume   1847.92035034
_cell_formula_units_Z   2
loop_
 _symmetry_equiv_pos_site_id
 _symmetry_equiv_pos_as_xyz
  1  'x, y, z'
  2  'x, -y, z'
  3  'x+1/2, y+1/2, z'
  4  'x+1/2, -y+1/2, z'
loop_
 _atom_site_type_symbol
 _atom_site_label
 _atom_site_symmetry_multiplicity
 _atom_site_fract_x
 _atom_site_fract_y
 _atom_site_fract_z
 _atom_site_occupancy
  Li  Li0  4  0.25000000  0.25000000  0.90656000  1.0
  Li  Li1  2  0.00139000  0.50000000  0.03366000  1.0
  Li  Li2  2  0.49732000  0.50000000  0.03355000  1.0
  Ge  Ge3  4  0.24992500  0.25368500  0.03491000  1.0
  Ge  Ge4  2  0.00000000  0.00000000  0.90656000  1.0
  Ge  Ge5  2  0.00000000  0.50000000  0.90656000  1.0
  Pd  Pd6  4  0.00000000  0.25000000  0.96885000  1.0
  Pd  Pd7  2  0.24944000  0.00000000  0.09751000  1.0
  Pd  Pd8  2  0.24999000  0.50000000  0.09461000  1.0
  Pt  Pt9  4  0.49998000  0.25018000  0.08898000  1.0
  Pt  Pt10  2  0.25000000  0.00000000  0.96885000  1.0
  Pt  Pt11  2  0.25000000  0.50000000  0.96885000  1.0
  C  C12  2  0.24951000  0.00000000  0.17742000  1.0
  O  O13  2  0.24996000  0.00000000  0.22398000  1.0
