# generated using pymatgen
data_In32CO
_symmetry_space_group_name_H-M   'P 1'
_cell_length_a   9.72593000
_cell_length_b   9.72593000
_cell_length_c   27.29450000
_cell_angle_alpha   90.00000000
_cell_angle_beta   90.00000000
_cell_angle_gamma   90.00000000
_symmetry_Int_Tables_number   1
_chemical_formula_structural   In32CO
_chemical_formula_sum   'In32 C1 O1'
_cell_volume   2581.88813673
_cell_formula_units_Z   1
loop_
 _symmetry_equiv_pos_site_id
 _symmetry_equiv_pos_as_xyz
  1  'x, y, z'
loop_
 _atom_site_type_symbol
 _atom_site_label
 _atom_site_symmetry_multiplicity
 _atom_site_fract_x
 _atom_site_fract_y
 _atom_site_fract_z
 _atom_site_occupancy
  In  In0  1  0.00000000  0.00000000  0.86637000  1.0
  In  In1  1  0.25000000  0.25000000  0.86637000  1.0
  In  In2  1  0.25000000  0.00000000  0.95546000  1.0
  In  In3  1  0.00000000  0.25000000  0.95546000  1.0
  In  In4  1  0.99718000  0.00014000  0.04344000  1.0
  In  In5  1  0.25001000  0.25254000  0.04371000  1.0
  In  In6  1  0.25012000  0.99920000  0.13170000  1.0
  In  In7  1  0.00078000  0.25027000  0.13620000  1.0
  In  In8  1  0.00000000  0.50000000  0.86637000  1.0
  In  In9  1  0.25000000  0.75000000  0.86637000  1.0
  In  In10  1  0.25000000  0.50000000  0.95546000  1.0
  In  In11  1  0.00000000  0.75000000  0.95546000  1.0
  In  In12  1  0.99975000  0.49938000  0.04466000  1.0
  In  In13  1  0.25064000  0.74652000  0.04347000  1.0
  In  In14  1  0.25039000  0.49846000  0.13581000  1.0
  In  In15  1  0.00046000  0.75046000  0.13453000  1.0
  In  In16  1  0.50000000  0.00000000  0.86637000  1.0
  In  In17  1  0.75000000  0.25000000  0.86637000  1.0
  In  In18  1  0.75000000  0.00000000  0.95546000  1.0
  In  In19  1  0.50000000  0.25000000  0.95546000  1.0
  In  In20  1  0.50277000  0.99959000  0.04361000  1.0
  In  In21  1  0.75040000  0.25042000  0.04465000  1.0
  In  In22  1  0.74960000  0.00077000  0.13545000  1.0
  In  In23  1  0.50049000  0.25020000  0.13583000  1.0
  In  In24  1  0.50000000  0.50000000  0.86637000  1.0
  In  In25  1  0.75000000  0.75000000  0.86637000  1.0
  In  In26  1  0.75000000  0.50000000  0.95546000  1.0
  In  In27  1  0.50000000  0.75000000  0.95546000  1.0
  In  In28  1  0.50045000  0.50006000  0.04475000  1.0
  In  In29  1  0.74953000  0.74944000  0.04472000  1.0
  In  In30  1  0.75060000  0.50066000  0.13674000  1.0
  In  In31  1  0.50003000  0.75031000  0.13635000  1.0
  C  C32  1  0.26074000  0.03795000  0.27460000  1.0
  O  O33  1  0.24127000  0.98189000  0.31037000  1.0
