# generated using pymatgen
data_Li8Al8Cu8Pd8C
_symmetry_space_group_name_H-M   'P 1'
_cell_length_a   8.49706000
_cell_length_b   6.00833000
_cell_length_c   26.37280000
_cell_angle_alpha   90.00000000
_cell_angle_beta   90.00000000
_cell_angle_gamma   90.00000000
_symmetry_Int_Tables_number   1
_chemical_formula_structural   Li8Al8Cu8Pd8C
_chemical_formula_sum   'Li8 Al8 Cu8 Pd8 C1'
_cell_volume   1346.41426404
_cell_formula_units_Z   1
loop_
 _symmetry_equiv_pos_site_id
 _symmetry_equiv_pos_as_xyz
  1  'x, y, z'
loop_
 _atom_site_type_symbol
 _atom_site_label
 _atom_site_symmetry_multiplicity
 _atom_site_fract_x
 _atom_site_fract_y
 _atom_site_fract_z
 _atom_site_occupancy
  Li  Li0  1  0.00000000  0.00000000  0.04027000  1.0
  Li  Li1  1  0.50000000  0.00000000  0.04027000  1.0
  Li  Li2  1  0.25000000  0.50000000  0.12082000  1.0
  Li  Li3  1  0.75000000  0.50000000  0.12082000  1.0
  Li  Li4  1  0.50000000  0.02172000  0.86512000  1.0
  Li  Li5  1  0.00000000  0.96611000  0.83565000  1.0
  Li  Li6  1  0.75122000  0.50205000  0.96043000  1.0
  Li  Li7  1  0.24878000  0.50205000  0.96043000  1.0
  Al  Al8  1  0.75000000  0.00000000  0.12082000  1.0
  Al  Al9  1  0.25000000  0.00000000  0.12082000  1.0
  Al  Al10  1  0.50000000  0.50000000  0.04027000  1.0
  Al  Al11  1  0.00000000  0.50000000  0.04027000  1.0
  Al  Al12  1  0.25052000  0.00372000  0.96103000  1.0
  Al  Al13  1  0.74948000  0.00372000  0.96103000  1.0
  Al  Al14  1  0.00000000  0.56626000  0.87888000  1.0
  Al  Al15  1  0.50000000  0.49844000  0.88162000  1.0
  Cu  Cu16  1  0.75000000  0.25000000  0.04027000  1.0
  Cu  Cu17  1  0.25000000  0.25000000  0.04027000  1.0
  Cu  Cu18  1  0.00000000  0.75000000  0.12082000  1.0
  Cu  Cu19  1  0.50000000  0.75000000  0.12082000  1.0
  Cu  Cu20  1  0.23007000  0.25354000  0.88179000  1.0
  Cu  Cu21  1  0.76993000  0.25354000  0.88179000  1.0
  Cu  Cu22  1  0.50000000  0.75724000  0.95978000  1.0
  Cu  Cu23  1  0.00000000  0.76393000  0.96220000  1.0
  Pd  Pd24  1  0.75000000  0.75000000  0.04027000  1.0
  Pd  Pd25  1  0.25000000  0.75000000  0.04027000  1.0
  Pd  Pd26  1  0.00000000  0.25000000  0.12082000  1.0
  Pd  Pd27  1  0.50000000  0.25000000  0.12082000  1.0
  Pd  Pd28  1  0.26118000  0.75698000  0.88371000  1.0
  Pd  Pd29  1  0.73882000  0.75698000  0.88371000  1.0
  Pd  Pd30  1  0.50000000  0.24384000  0.95737000  1.0
  Pd  Pd31  1  0.00000000  0.24990000  0.96051000  1.0
  C  C32  1  0.00000000  0.24898000  0.87383000  1.0
