# generated using pymatgen
data_Y4Sc4In4Pd4C
_symmetry_space_group_name_H-M   'P 1'
_cell_length_a   6.06590000
_cell_length_b   10.11530000
_cell_length_c   24.38870000
_cell_angle_alpha   90.00000000
_cell_angle_beta   90.00000000
_cell_angle_gamma   90.00000000
_symmetry_Int_Tables_number   1
_chemical_formula_structural   Y4Sc4In4Pd4C
_chemical_formula_sum   'Y4 Sc4 In4 Pd4 C1'
_cell_volume   1496.45156789
_cell_formula_units_Z   1
loop_
 _symmetry_equiv_pos_site_id
 _symmetry_equiv_pos_as_xyz
  1  'x, y, z'
loop_
 _atom_site_type_symbol
 _atom_site_label
 _atom_site_symmetry_multiplicity
 _atom_site_fract_x
 _atom_site_fract_y
 _atom_site_fract_z
 _atom_site_occupancy
  Y  Y0  1  0.13474000  0.24986000  0.03375000  1.0
  Y  Y1  1  0.55242000  0.25000000  0.91003000  1.0
  Y  Y2  1  0.20103000  0.74986000  0.02637000  1.0
  Y  Y3  1  0.55242000  0.75000000  0.91003000  1.0
  Sc  Sc4  1  0.54168000  0.05312000  0.09160000  1.0
  Sc  Sc5  1  0.86828000  0.00000000  0.97001000  1.0
  Sc  Sc6  1  0.54315000  0.44687000  0.09140000  1.0
  Sc  Sc7  1  0.86828000  0.50000000  0.97001000  1.0
  In  In8  1  0.03496000  0.97587000  0.09899000  1.0
  In  In9  1  0.36828000  0.00000000  0.97001000  1.0
  In  In10  1  0.03629000  0.52390000  0.09909000  1.0
  In  In11  1  0.36828000  0.50000000  0.97001000  1.0
  Pd  Pd12  1  0.65861000  0.24964000  0.01378000  1.0
  Pd  Pd13  1  0.05242000  0.25000000  0.91003000  1.0
  Pd  Pd14  1  0.70288000  0.75008000  0.01744000  1.0
  Pd  Pd15  1  0.05242000  0.75000000  0.91003000  1.0
  C  C16  1  0.44526000  0.25031000  0.08852000  1.0
