# generated using pymatgen
data_Hf4In4Ni8CO
_symmetry_space_group_name_H-M   'P 1'
_cell_length_a   6.31539000
_cell_length_b   6.31539000
_cell_length_c   24.73650000
_cell_angle_alpha   90.00000000
_cell_angle_beta   90.00000000
_cell_angle_gamma   90.00000000
_symmetry_Int_Tables_number   1
_chemical_formula_structural   Hf4In4Ni8CO
_chemical_formula_sum   'Hf4 In4 Ni8 C1 O1'
_cell_volume   986.59429755
_cell_formula_units_Z   1
loop_
 _symmetry_equiv_pos_site_id
 _symmetry_equiv_pos_as_xyz
  1  'x, y, z'
loop_
 _atom_site_type_symbol
 _atom_site_label
 _atom_site_symmetry_multiplicity
 _atom_site_fract_x
 _atom_site_fract_y
 _atom_site_fract_z
 _atom_site_occupancy
  Hf  Hf0  1  0.99967000  0.99918000  0.09246000  1.0
  Hf  Hf1  1  0.50023000  0.49911000  0.09309000  1.0
  Hf  Hf2  1  0.50000000  0.00000000  0.96809000  1.0
  Hf  Hf3  1  0.00000000  0.50000000  0.96809000  1.0
  In  In4  1  0.00000000  0.00000000  0.96809000  1.0
  In  In5  1  0.49935000  0.00045000  0.10264000  1.0
  In  In6  1  0.99943000  0.50060000  0.10865000  1.0
  In  In7  1  0.50000000  0.50000000  0.96809000  1.0
  Ni  Ni8  1  0.24257000  0.25793000  0.03624000  1.0
  Ni  Ni9  1  0.75000000  0.75000000  0.90426000  1.0
  Ni  Ni10  1  0.75610000  0.25660000  0.03601000  1.0
  Ni  Ni11  1  0.25000000  0.75000000  0.90426000  1.0
  Ni  Ni12  1  0.75319000  0.74441000  0.03597000  1.0
  Ni  Ni13  1  0.25000000  0.25000000  0.90426000  1.0
  Ni  Ni14  1  0.24660000  0.74398000  0.03615000  1.0
  Ni  Ni15  1  0.75000000  0.25000000  0.90426000  1.0
  C  C16  1  0.00177000  0.49948000  0.28775000  1.0
  O  O17  1  0.99982000  0.49921000  0.33362000  1.0
