# generated using pymatgen
data_Sc8In8Ge8Pd8CO
_symmetry_space_group_name_H-M   Pmm2
_cell_length_a   8.38060000
_cell_length_b   9.28368000
_cell_length_c   25.82430000
_cell_angle_alpha   90.00000000
_cell_angle_beta   90.00000000
_cell_angle_gamma   90.00000000
_symmetry_Int_Tables_number   25
_chemical_formula_structural   Sc8In8Ge8Pd8CO
_chemical_formula_sum   'Sc8 In8 Ge8 Pd8 C1 O1'
_cell_volume   2009.20307034
_cell_formula_units_Z   1
loop_
 _symmetry_equiv_pos_site_id
 _symmetry_equiv_pos_as_xyz
  1  'x, y, z'
  2  '-x, -y, z'
  3  '-x, y, z'
  4  'x, -y, z'
loop_
 _atom_site_type_symbol
 _atom_site_label
 _atom_site_symmetry_multiplicity
 _atom_site_fract_x
 _atom_site_fract_y
 _atom_site_fract_z
 _atom_site_occupancy
  Sc  Sc0  2  0.25000000  0.00000000  0.03759000  1.0
  Sc  Sc1  2  0.25000000  0.00000000  0.88723000  1.0
  Sc  Sc2  2  0.25000000  0.50000000  0.03759000  1.0
  Sc  Sc3  2  0.25000000  0.50000000  0.88723000  1.0
  In  In4  2  0.00000000  0.25000000  0.03759000  1.0
  In  In5  2  0.00000000  0.25000000  0.88723000  1.0
  In  In6  2  0.50000000  0.25000000  0.03759000  1.0
  In  In7  2  0.50000000  0.25000000  0.88723000  1.0
  Ge  Ge8  1  0.00000000  0.00000000  0.11277000  1.0
  Ge  Ge9  1  0.00000000  0.00000000  0.96241000  1.0
  Ge  Ge10  1  0.00000000  0.50000000  0.11277000  1.0
  Ge  Ge11  1  0.00000000  0.50000000  0.96241000  1.0
  Ge  Ge12  1  0.50000000  0.00000000  0.11277000  1.0
  Ge  Ge13  1  0.50000000  0.00000000  0.96241000  1.0
  Ge  Ge14  1  0.50000000  0.50000000  0.11277000  1.0
  Ge  Ge15  1  0.50000000  0.50000000  0.96241000  1.0
  Pd  Pd16  4  0.25000000  0.25000000  0.11277000  1.0
  Pd  Pd17  4  0.25000000  0.25000000  0.96241000  1.0
  C  C18  1  0.00000000  0.00000000  0.18634000  1.0
  O  O19  1  0.00000000  0.00000000  0.23087000  1.0
