# generated using pymatgen
data_Li8Ga8Ni8Pd8C
_symmetry_space_group_name_H-M   Pm
_cell_length_a   5.93220000
_cell_length_b   8.38940000
_cell_length_c   26.29200000
_cell_angle_alpha   90.00000000
_cell_angle_beta   90.00000000
_cell_angle_gamma   90.00000000
_symmetry_Int_Tables_number   6
_chemical_formula_structural   Li8Ga8Ni8Pd8C
_chemical_formula_sum   'Li8 Ga8 Ni8 Pd8 C1'
_cell_volume   1308.48970449
_cell_formula_units_Z   1
loop_
 _symmetry_equiv_pos_site_id
 _symmetry_equiv_pos_as_xyz
  1  'x, y, z'
  2  'x, -y, z'
loop_
 _atom_site_type_symbol
 _atom_site_label
 _atom_site_symmetry_multiplicity
 _atom_site_fract_x
 _atom_site_fract_y
 _atom_site_fract_z
 _atom_site_occupancy
  Li  Li0  2  0.50000000  0.24999000  0.88034000  1.0
  Li  Li1  2  0.50169000  0.24614000  0.03843000  1.0
  Li  Li2  1  0.00000000  0.00000000  0.96011000  1.0
  Li  Li3  1  0.00000000  0.50000000  0.96011000  1.0
  Li  Li4  1  0.00051000  0.00000000  0.15526000  1.0
  Li  Li5  1  0.00260000  0.50000000  0.13935000  1.0
  Ga  Ga6  2  0.00000000  0.25001000  0.88034000  1.0
  Ga  Ga7  2  0.00495000  0.25428000  0.03800000  1.0
  Ga  Ga8  1  0.40602000  0.00000000  0.13874000  1.0
  Ga  Ga9  1  0.49833000  0.50000000  0.12267000  1.0
  Ga  Ga10  1  0.50000000  0.00000000  0.96011000  1.0
  Ga  Ga11  1  0.50000000  0.50000000  0.96011000  1.0
  Ni  Ni12  2  0.25000000  0.25001000  0.96011000  1.0
  Ni  Ni13  2  0.25301000  0.25986000  0.11430000  1.0
  Ni  Ni14  1  0.75000000  0.00000000  0.88034000  1.0
  Ni  Ni15  1  0.75000000  0.50000000  0.88034000  1.0
  Ni  Ni16  1  0.75477000  0.50000000  0.04343000  1.0
  Ni  Ni17  1  0.76344000  0.00000000  0.04242000  1.0
  Pd  Pd18  2  0.74963000  0.24723000  0.11587000  1.0
  Pd  Pd19  2  0.75000000  0.25001000  0.96011000  1.0
  Pd  Pd20  1  0.24892000  0.00000000  0.04080000  1.0
  Pd  Pd21  1  0.25000000  0.00000000  0.88034000  1.0
  Pd  Pd22  1  0.25000000  0.50000000  0.88034000  1.0
  Pd  Pd23  1  0.25325000  0.50000000  0.04123000  1.0
  C  C24  1  0.71220000  0.00000000  0.11101000  1.0
