# generated using pymatgen
data_Cu4Ni8Sb4CO
_symmetry_space_group_name_H-M   P4mm
_cell_length_a   6.01864000
_cell_length_b   6.01864000
_cell_length_c   24.51400000
_cell_angle_alpha   90.00000000
_cell_angle_beta   90.00000000
_cell_angle_gamma   90.00000000
_symmetry_Int_Tables_number   99
_chemical_formula_structural   Cu4Ni8Sb4CO
_chemical_formula_sum   'Cu4 Ni8 Sb4 C1 O1'
_cell_volume   887.99580890
_cell_formula_units_Z   1
loop_
 _symmetry_equiv_pos_site_id
 _symmetry_equiv_pos_as_xyz
  1  'x, y, z'
  2  '-y, x, z'
  3  '-x, -y, z'
  4  'y, -x, z'
  5  '-x, y, z'
  6  'y, x, z'
  7  'x, -y, z'
  8  '-y, -x, z'
loop_
 _atom_site_type_symbol
 _atom_site_label
 _atom_site_symmetry_multiplicity
 _atom_site_fract_x
 _atom_site_fract_y
 _atom_site_fract_z
 _atom_site_occupancy
  Cu  Cu0  2  0.00000000  0.50000000  0.96931000  1.0
  Cu  Cu1  1  0.00000000  0.00000000  0.09978000  1.0
  Cu  Cu2  1  0.50000000  0.50000000  0.08418000  1.0
  Ni  Ni3  4  0.24205500  0.24205500  0.03291000  1.0
  Ni  Ni4  4  0.25001000  0.25001000  0.90793000  1.0
  Sb  Sb5  2  0.00000000  0.50000000  0.09625000  1.0
  Sb  Sb6  1  0.00000000  0.00000000  0.96931000  1.0
  Sb  Sb7  1  0.50000000  0.50000000  0.96931000  1.0
  C  C8  1  0.00000000  0.00000000  0.17641000  1.0
  O  O9  1  0.00000000  0.00000000  0.22314000  1.0
