data_image0
_chemical_formula_structural       Hf16Pt16C
_chemical_formula_sum              "Hf16 Pt16 C1"
_cell_length_a       6.65903
_cell_length_b       9.4173
_cell_length_c       27.063
_cell_angle_alpha    90
_cell_angle_beta     90
_cell_angle_gamma    90

_space_group_name_H-M_alt    "P 1"
_space_group_IT_number       1

loop_
  _space_group_symop_operation_xyz
  'x, y, z'

loop_
  _atom_site_type_symbol
  _atom_site_label
  _atom_site_symmetry_multiplicity
  _atom_site_fract_x
  _atom_site_fract_y
  _atom_site_fract_z
  _atom_site_occupancy
  Hf  Hf1       1.0  0.00000  0.00000  0.86951  1.0000
  Hf  Hf2       1.0  0.00000  0.25000  0.95650  1.0000
  Hf  Hf3       1.0  1.00000  1.00000  0.04374  1.0000
  Hf  Hf4       1.0  0.00000  0.23806  0.12321  1.0000
  Hf  Hf5       1.0  0.00000  0.50000  0.86951  1.0000
  Hf  Hf6       1.0  0.00000  0.75000  0.95650  1.0000
  Hf  Hf7       1.0  0.00000  0.50000  0.04136  1.0000
  Hf  Hf8       1.0  0.00000  0.76194  0.12321  1.0000
  Hf  Hf9       1.0  0.50000  0.00000  0.86951  1.0000
  Hf  Hf10      1.0  0.50000  0.25000  0.95650  1.0000
  Hf  Hf11      1.0  0.50000  0.00000  0.04726  1.0000
  Hf  Hf12      1.0  0.50000  0.25981  0.13415  1.0000
  Hf  Hf13      1.0  0.50000  0.50000  0.86951  1.0000
  Hf  Hf14      1.0  0.50000  0.75000  0.95650  1.0000
  Hf  Hf15      1.0  0.50000  0.50000  0.04501  1.0000
  Hf  Hf16      1.0  0.50000  0.74019  0.13415  1.0000
  Pt  Pt1       1.0  0.25000  0.25000  0.86951  1.0000
  Pt  Pt2       1.0  0.25000  0.00000  0.95650  1.0000
  Pt  Pt3       1.0  0.27367  0.25233  0.04397  1.0000
  Pt  Pt4       1.0  0.30115  0.00000  0.13414  1.0000
  Pt  Pt5       1.0  0.25000  0.75000  0.86951  1.0000
  Pt  Pt6       1.0  0.25000  0.50000  0.95650  1.0000
  Pt  Pt7       1.0  0.27367  0.74767  0.04397  1.0000
  Pt  Pt8       1.0  0.24101  0.50000  0.12326  1.0000
  Pt  Pt9       1.0  0.75000  0.25000  0.86951  1.0000
  Pt  Pt10      1.0  0.75000  0.00000  0.95650  1.0000
  Pt  Pt11      1.0  0.72633  0.25232  0.04397  1.0000
  Pt  Pt12      1.0  0.69885  1.00000  0.13414  1.0000
  Pt  Pt13      1.0  0.75000  0.75000  0.86951  1.0000
  Pt  Pt14      1.0  0.75000  0.50000  0.95650  1.0000
  Pt  Pt15      1.0  0.72633  0.74768  0.04397  1.0000
  Pt  Pt16      1.0  0.75899  0.50000  0.12326  1.0000
  C   C1        1.0  0.00000  1.00000  0.12458  1.0000
