# generated using pymatgen
data_VFe2Si
_symmetry_space_group_name_H-M   P4mm
_cell_length_a   3.98993487
_cell_length_b   3.98993487
_cell_length_c   24.23200000
_cell_angle_alpha   90.00000000
_cell_angle_beta   90.00000000
_cell_angle_gamma   90.00000000
_symmetry_Int_Tables_number   99
_chemical_formula_structural   VFe2Si
_chemical_formula_sum   'V2 Fe4 Si2'
_cell_volume   385.76326819
_cell_formula_units_Z   2
loop_
 _symmetry_equiv_pos_site_id
 _symmetry_equiv_pos_as_xyz
  1  'x, y, z'
  2  '-y, x, z'
  3  '-x, -y, z'
  4  'y, -x, z'
  5  '-x, y, z'
  6  'y, x, z'
  7  'x, -y, z'
  8  '-y, -x, z'
loop_
 _atom_site_type_symbol
 _atom_site_label
 _atom_site_symmetry_multiplicity
 _atom_site_fract_x
 _atom_site_fract_y
 _atom_site_fract_z
 _atom_site_occupancy
  V  V0  1  0.00000000  0.00000000  0.91268000  1.0
  V  V1  1  0.50000000  0.50000000  0.02911000  1.0
  Fe  Fe2  2  0.00000000  0.50000000  0.08732000  1.0
  Fe  Fe3  2  0.00000000  0.50000000  0.97089000  1.0
  Si  Si4  1  0.00000000  0.00000000  0.02911000  1.0
  Si  Si5  1  0.50000000  0.50000000  0.91268000  1.0
