# generated using pymatgen
data_Li8In8Cu8Ge8C
_symmetry_space_group_name_H-M   'P 1'
_cell_length_a   9.18370000
_cell_length_b   6.49386000
_cell_length_c   26.88780000
_cell_angle_alpha   90.00000000
_cell_angle_beta   90.00000000
_cell_angle_gamma   90.00000000
_symmetry_Int_Tables_number   1
_chemical_formula_structural   Li8In8Cu8Ge8C
_chemical_formula_sum   'Li8 In8 Cu8 Ge8 C1'
_cell_volume   1603.52553053
_cell_formula_units_Z   1
loop_
 _symmetry_equiv_pos_site_id
 _symmetry_equiv_pos_as_xyz
  1  'x, y, z'
loop_
 _atom_site_type_symbol
 _atom_site_label
 _atom_site_symmetry_multiplicity
 _atom_site_fract_x
 _atom_site_fract_y
 _atom_site_fract_z
 _atom_site_occupancy
  Li  Li0  1  0.25000000  0.00000000  0.04269000  1.0
  Li  Li1  1  0.75000000  0.00000000  0.04269000  1.0
  Li  Li2  1  0.50000000  0.50000000  0.12808000  1.0
  Li  Li3  1  0.00000000  0.50000000  0.12808000  1.0
  Li  Li4  1  0.73182000  0.01897000  0.85978000  1.0
  Li  Li5  1  0.26818000  0.01897000  0.85978000  1.0
  Li  Li6  1  0.00000000  0.46246000  0.94637000  1.0
  Li  Li7  1  0.50000000  0.45316000  0.95147000  1.0
  In  In8  1  0.00000000  0.25000000  0.04269000  1.0
  In  In9  1  0.50000000  0.25000000  0.04269000  1.0
  In  In10  1  0.25000000  0.75000000  0.12808000  1.0
  In  In11  1  0.75000000  0.75000000  0.12808000  1.0
  In  In12  1  0.50000000  0.32933000  0.84727000  1.0
  In  In13  1  0.00000000  0.27865000  0.80137000  1.0
  In  In14  1  0.73977000  0.73597000  0.95309000  1.0
  In  In15  1  0.26023000  0.73597000  0.95309000  1.0
  Cu  Cu16  1  0.00000000  0.00000000  0.12808000  1.0
  Cu  Cu17  1  0.50000000  0.00000000  0.12808000  1.0
  Cu  Cu18  1  0.75000000  0.50000000  0.04269000  1.0
  Cu  Cu19  1  0.25000000  0.50000000  0.04269000  1.0
  Cu  Cu20  1  0.50000000  0.02692000  0.95051000  1.0
  Cu  Cu21  1  0.00000000  0.98058000  0.96358000  1.0
  Cu  Cu22  1  0.20008000  0.41832000  0.87960000  1.0
  Cu  Cu23  1  0.79992000  0.41832000  0.87960000  1.0
  Ge  Ge24  1  0.00000000  0.75000000  0.04269000  1.0
  Ge  Ge25  1  0.50000000  0.75000000  0.04269000  1.0
  Ge  Ge26  1  0.25000000  0.25000000  0.12808000  1.0
  Ge  Ge27  1  0.75000000  0.25000000  0.12808000  1.0
  Ge  Ge28  1  0.50000000  0.75240000  0.88050000  1.0
  Ge  Ge29  1  0.00000000  0.81220000  0.87094000  1.0
  Ge  Ge30  1  0.75105000  0.21050000  0.95555000  1.0
  Ge  Ge31  1  0.24895000  0.21050000  0.95555000  1.0
  C  C32  1  0.00000000  0.51807000  0.86620000  1.0
