# generated using pymatgen
data_Y8In8Ag8Pd8CO
_symmetry_space_group_name_H-M   'P 1'
_cell_length_a   6.92663000
_cell_length_b   9.79574000
_cell_length_c   27.34680000
_cell_angle_alpha   90.00000000
_cell_angle_beta   90.00000000
_cell_angle_gamma   90.00000000
_symmetry_Int_Tables_number   1
_chemical_formula_structural   Y8In8Ag8Pd8CO
_chemical_formula_sum   'Y8 In8 Ag8 Pd8 C1 O1'
_cell_volume   1855.52048562
_cell_formula_units_Z   1
loop_
 _symmetry_equiv_pos_site_id
 _symmetry_equiv_pos_as_xyz
  1  'x, y, z'
loop_
 _atom_site_type_symbol
 _atom_site_label
 _atom_site_symmetry_multiplicity
 _atom_site_fract_x
 _atom_site_fract_y
 _atom_site_fract_z
 _atom_site_occupancy
  Y  Y0  1  0.25000000  0.00000000  0.95522000  1.0
  Y  Y1  1  0.25000000  0.50000000  0.95522000  1.0
  Y  Y2  1  0.75000000  0.75000000  0.86567000  1.0
  Y  Y3  1  0.75000000  0.25000000  0.86567000  1.0
  Y  Y4  1  0.29600000  0.47835000  0.13161000  1.0
  Y  Y5  1  0.29600000  0.02165000  0.13161000  1.0
  Y  Y6  1  0.73351000  0.25000000  0.05215000  1.0
  Y  Y7  1  0.75427000  0.75000000  0.04831000  1.0
  In  In8  1  0.75000000  0.00000000  0.95522000  1.0
  In  In9  1  0.75000000  0.50000000  0.95522000  1.0
  In  In10  1  0.25000000  0.75000000  0.86567000  1.0
  In  In11  1  0.25000000  0.25000000  0.86567000  1.0
  In  In12  1  0.78725000  0.51345000  0.13794000  1.0
  In  In13  1  0.78727000  0.98654000  0.13794000  1.0
  In  In14  1  0.25062000  0.25000000  0.04255000  1.0
  In  In15  1  0.25384000  0.75000000  0.04665000  1.0
  Ag  Ag16  1  0.00000000  0.00000000  0.86567000  1.0
  Ag  Ag17  1  0.00000000  0.50000000  0.86567000  1.0
  Ag  Ag18  1  0.50000000  0.25000000  0.95522000  1.0
  Ag  Ag19  1  0.50000000  0.75000000  0.95522000  1.0
  Ag  Ag20  1  0.00667000  0.49862000  0.04707000  1.0
  Ag  Ag21  1  0.00666000  0.00139000  0.04707000  1.0
  Ag  Ag22  1  0.52131000  0.75000000  0.14235000  1.0
  Ag  Ag23  1  0.60746000  0.24999000  0.16244000  1.0
  Pd  Pd24  1  0.00000000  0.75000000  0.95522000  1.0
  Pd  Pd25  1  0.00000000  0.25000000  0.95522000  1.0
  Pd  Pd26  1  0.50000000  0.50000000  0.86567000  1.0
  Pd  Pd27  1  0.50000000  0.00000000  0.86567000  1.0
  Pd  Pd28  1  0.01417000  0.25000000  0.12762000  1.0
  Pd  Pd29  1  0.07106000  0.74999000  0.14052000  1.0
  Pd  Pd30  1  0.50346000  0.99860000  0.04241000  1.0
  Pd  Pd31  1  0.50346000  0.50141000  0.04241000  1.0
  C  C32  1  0.09652000  0.74995000  0.21139000  1.0
  O  O33  1  0.10451000  0.74995000  0.25364000  1.0
