# generated using pymatgen
data_Li4Ni8Ge4CO
_symmetry_space_group_name_H-M   'P 1'
_cell_length_a   5.73354000
_cell_length_b   5.73354000
_cell_length_c   24.30020000
_cell_angle_alpha   90.00000000
_cell_angle_beta   90.00000000
_cell_angle_gamma   90.00000000
_symmetry_Int_Tables_number   1
_chemical_formula_structural   Li4Ni8Ge4CO
_chemical_formula_sum   'Li4 Ni8 Ge4 C1 O1'
_cell_volume   798.83216133
_cell_formula_units_Z   1
loop_
 _symmetry_equiv_pos_site_id
 _symmetry_equiv_pos_as_xyz
  1  'x, y, z'
loop_
 _atom_site_type_symbol
 _atom_site_label
 _atom_site_symmetry_multiplicity
 _atom_site_fract_x
 _atom_site_fract_y
 _atom_site_fract_z
 _atom_site_occupancy
  Li  Li0  1  0.99991000  0.00016000  0.10538000  1.0
  Li  Li1  1  0.50019000  0.50001000  0.10322000  1.0
  Li  Li2  1  0.50000000  0.00000000  0.97051000  1.0
  Li  Li3  1  0.00000000  0.50000000  0.97051000  1.0
  Ni  Ni4  1  0.25016000  0.25039000  0.03194000  1.0
  Ni  Ni5  1  0.75000000  0.75000000  0.91152000  1.0
  Ni  Ni6  1  0.74940000  0.25045000  0.03184000  1.0
  Ni  Ni7  1  0.25000000  0.75000000  0.91152000  1.0
  Ni  Ni8  1  0.74980000  0.74986000  0.03204000  1.0
  Ni  Ni9  1  0.25000000  0.25000000  0.91152000  1.0
  Ni  Ni10  1  0.25017000  0.74926000  0.03217000  1.0
  Ni  Ni11  1  0.75000000  0.25000000  0.91152000  1.0
  Ge  Ge12  1  0.00000000  0.00000000  0.97051000  1.0
  Ge  Ge13  1  0.49988000  0.00019000  0.08545000  1.0
  Ge  Ge14  1  0.00007000  0.49978000  0.08542000  1.0
  Ge  Ge15  1  0.50000000  0.50000000  0.97051000  1.0
  C  C16  1  0.00008000  0.99993000  0.19278000  1.0
  O  O17  1  0.00004000  0.99987000  0.23969000  1.0
