# generated using pymatgen
data_Mn8Fe16Si8C
_symmetry_space_group_name_H-M   'P 1'
_cell_length_a   5.59397000
_cell_length_b   7.91107000
_cell_length_c   25.93330000
_cell_angle_alpha   90.00000000
_cell_angle_beta   90.00000000
_cell_angle_gamma   90.00000000
_symmetry_Int_Tables_number   1
_chemical_formula_structural   Mn8Fe16Si8C
_chemical_formula_sum   'Mn8 Fe16 Si8 C1'
_cell_volume   1147.65973342
_cell_formula_units_Z   1
loop_
 _symmetry_equiv_pos_site_id
 _symmetry_equiv_pos_as_xyz
  1  'x, y, z'
loop_
 _atom_site_type_symbol
 _atom_site_label
 _atom_site_symmetry_multiplicity
 _atom_site_fract_x
 _atom_site_fract_y
 _atom_site_fract_z
 _atom_site_occupancy
  Mn  Mn0  1  0.00000000  0.50000000  0.88560000  1.0
  Mn  Mn1  1  0.50000000  0.75002000  0.96187000  1.0
  Mn  Mn2  1  0.50000000  0.24998000  0.96187000  1.0
  Mn  Mn3  1  0.00000000  0.00000000  0.88560000  1.0
  Mn  Mn4  1  0.00000000  0.00000000  0.03960000  1.0
  Mn  Mn5  1  0.50000000  0.26007000  0.12043000  1.0
  Mn  Mn6  1  0.50000000  0.73993000  0.12043000  1.0
  Mn  Mn7  1  0.00000000  0.50000000  0.03566000  1.0
  Fe  Fe8  1  0.25000000  0.50000000  0.96187000  1.0
  Fe  Fe9  1  0.75000000  0.00000000  0.96187000  1.0
  Fe  Fe10  1  0.75000000  0.50000000  0.96187000  1.0
  Fe  Fe11  1  0.25000000  0.00000000  0.96187000  1.0
  Fe  Fe12  1  0.75000000  0.25002000  0.88560000  1.0
  Fe  Fe13  1  0.25000000  0.74998000  0.88560000  1.0
  Fe  Fe14  1  0.25000000  0.25002000  0.88560000  1.0
  Fe  Fe15  1  0.75000000  0.74998000  0.88560000  1.0
  Fe  Fe16  1  0.24993000  0.00000000  0.11660000  1.0
  Fe  Fe17  1  0.78060000  0.50000000  0.11498000  1.0
  Fe  Fe18  1  0.75007000  0.00000000  0.11660000  1.0
  Fe  Fe19  1  0.21940000  0.50000000  0.11498000  1.0
  Fe  Fe20  1  0.74607000  0.74989000  0.03789000  1.0
  Fe  Fe21  1  0.25393000  0.25011000  0.03789000  1.0
  Fe  Fe22  1  0.25393000  0.74989000  0.03789000  1.0
  Fe  Fe23  1  0.74607000  0.25011000  0.03789000  1.0
  Si  Si24  1  0.00000000  0.25002000  0.96187000  1.0
  Si  Si25  1  0.50000000  0.50000000  0.88560000  1.0
  Si  Si26  1  0.00000000  0.74998000  0.96187000  1.0
  Si  Si27  1  0.50000000  0.00000000  0.88560000  1.0
  Si  Si28  1  0.00000000  0.75785000  0.11311000  1.0
  Si  Si29  1  0.50000000  0.00000000  0.03991000  1.0
  Si  Si30  1  0.00000000  0.24215000  0.11311000  1.0
  Si  Si31  1  0.50000000  0.50000000  0.03730000  1.0
  C  C32  1  0.50000000  0.50000000  0.14980000  1.0
