# generated using pymatgen
data_LiCuGePd
_symmetry_space_group_name_H-M   Pm
_cell_length_a   6.04231000
_cell_length_b   4.27256000
_cell_length_c   26.40880000
_cell_angle_alpha   90.00000000
_cell_angle_beta   90.00000000
_cell_angle_gamma   90.00000000
_symmetry_Int_Tables_number   6
_chemical_formula_structural   LiCuGePd
_chemical_formula_sum   'Li4 Cu4 Ge4 Pd4'
_cell_volume   681.77306712
_cell_formula_units_Z   4
loop_
 _symmetry_equiv_pos_site_id
 _symmetry_equiv_pos_as_xyz
  1  'x, y, z'
  2  'x, -y, z'
loop_
 _atom_site_type_symbol
 _atom_site_label
 _atom_site_symmetry_multiplicity
 _atom_site_fract_x
 _atom_site_fract_y
 _atom_site_fract_z
 _atom_site_occupancy
  Li  Li0  1  0.25000000  0.50000000  0.12134000  1.0
  Li  Li1  1  0.25054000  0.50000000  0.96437000  1.0
  Li  Li2  1  0.75000000  0.00000000  0.04045000  1.0
  Li  Li3  1  0.75109000  0.00000000  0.86627000  1.0
  Cu  Cu4  1  -0.00000000  0.00000000  0.12134000  1.0
  Cu  Cu5  1  0.47337000  0.50000000  0.88558000  1.0
  Cu  Cu6  1  0.50000000  0.50000000  0.04045000  1.0
  Cu  Cu7  1  0.99788000  0.00000000  0.95552000  1.0
  Ge  Ge8  1  0.25000000  0.00000000  0.04045000  1.0
  Ge  Ge9  1  0.25075000  0.00000000  0.87351500  1.0
  Ge  Ge10  1  0.75000000  0.50000000  0.12134000  1.0
  Ge  Ge11  1  0.75121000  0.50000000  0.95958000  1.0
  Pd  Pd12  1  -0.00000000  0.50000000  0.04045000  1.0
  Pd  Pd13  1  0.01932500  0.50000000  0.88476000  1.0
  Pd  Pd14  1  0.50000000  0.00000000  0.12134000  1.0
  Pd  Pd15  1  0.50529000  0.00000000  0.95522000  1.0
