data_image0
_chemical_formula_structural       Ga16Co16CO
_chemical_formula_sum              "Ga16 Co16 C1 O1"
_cell_length_a       5.76941
_cell_length_b       8.15918
_cell_length_c       26.1194
_cell_angle_alpha    90
_cell_angle_beta     90
_cell_angle_gamma    90

_space_group_name_H-M_alt    "P 1"
_space_group_IT_number       1

loop_
  _space_group_symop_operation_xyz
  'x, y, z'

loop_
  _atom_site_type_symbol
  _atom_site_label
  _atom_site_symmetry_multiplicity
  _atom_site_fract_x
  _atom_site_fract_y
  _atom_site_fract_z
  _atom_site_occupancy
  Ga  Ga1       1.0  0.25000  0.25000  0.88286  1.0000
  Ga  Ga2       1.0  0.25000  0.00000  0.96095  1.0000
  Ga  Ga3       1.0  0.25000  0.25000  0.03905  1.0000
  Ga  Ga4       1.0  0.25000  0.00000  0.11714  1.0000
  Ga  Ga5       1.0  0.25000  0.75000  0.88286  1.0000
  Ga  Ga6       1.0  0.25000  0.50000  0.96095  1.0000
  Ga  Ga7       1.0  0.25000  0.75000  0.03905  1.0000
  Ga  Ga8       1.0  0.25000  0.50000  0.11714  1.0000
  Ga  Ga9       1.0  0.75000  0.25000  0.88286  1.0000
  Ga  Ga10      1.0  0.75000  0.00000  0.96095  1.0000
  Ga  Ga11      1.0  0.75000  0.25000  0.03905  1.0000
  Ga  Ga12      1.0  0.75000  0.00000  0.11714  1.0000
  Ga  Ga13      1.0  0.75000  0.75000  0.88286  1.0000
  Ga  Ga14      1.0  0.75000  0.50000  0.96095  1.0000
  Ga  Ga15      1.0  0.75000  0.75000  0.03905  1.0000
  Ga  Ga16      1.0  0.75000  0.50000  0.11714  1.0000
  Co  Co1       1.0  0.00000  0.00000  0.88286  1.0000
  Co  Co2       1.0  0.00000  0.25000  0.96095  1.0000
  Co  Co3       1.0  0.00000  0.00000  0.03905  1.0000
  Co  Co4       1.0  0.00000  0.25000  0.11714  1.0000
  Co  Co5       1.0  0.00000  0.50000  0.88286  1.0000
  Co  Co6       1.0  0.00000  0.75000  0.96095  1.0000
  Co  Co7       1.0  0.00000  0.50000  0.03905  1.0000
  Co  Co8       1.0  0.00000  0.75000  0.11714  1.0000
  Co  Co9       1.0  0.50000  0.00000  0.88286  1.0000
  Co  Co10      1.0  0.50000  0.25000  0.96095  1.0000
  Co  Co11      1.0  0.50000  0.00000  0.03905  1.0000
  Co  Co12      1.0  0.50000  0.25000  0.11714  1.0000
  Co  Co13      1.0  0.50000  0.50000  0.88286  1.0000
  Co  Co14      1.0  0.50000  0.75000  0.96095  1.0000
  Co  Co15      1.0  0.50000  0.50000  0.03905  1.0000
  Co  Co16      1.0  0.50000  0.75000  0.11714  1.0000
  C   C1        1.0  0.25000  0.00000  0.18989  1.0000
  O   O1        1.0  0.25000  0.00000  0.23391  1.0000
