# generated using pymatgen
data_Ga16Co16CO
_symmetry_space_group_name_H-M   'P 1'
_cell_length_a   8.15918000
_cell_length_b   5.76941000
_cell_length_c   26.11940000
_cell_angle_alpha   90.00000000
_cell_angle_beta   90.00000000
_cell_angle_gamma   90.00000000
_symmetry_Int_Tables_number   1
_chemical_formula_structural   Ga16Co16CO
_chemical_formula_sum   'Ga16 Co16 C1 O1'
_cell_volume   1229.53561615
_cell_formula_units_Z   1
loop_
 _symmetry_equiv_pos_site_id
 _symmetry_equiv_pos_as_xyz
  1  'x, y, z'
loop_
 _atom_site_type_symbol
 _atom_site_label
 _atom_site_symmetry_multiplicity
 _atom_site_fract_x
 _atom_site_fract_y
 _atom_site_fract_z
 _atom_site_occupancy
  Ga  Ga0  1  0.25000000  0.50000000  0.11714000  1.0
  Ga  Ga1  1  0.00000000  0.50000000  0.03905000  1.0
  Ga  Ga2  1  0.25226000  0.50000000  0.96191000  1.0
  Ga  Ga3  1  0.99994000  0.50000000  0.87825000  1.0
  Ga  Ga4  1  0.75000000  0.50000000  0.11714000  1.0
  Ga  Ga5  1  0.50000000  0.50000000  0.03905000  1.0
  Ga  Ga6  1  0.74774000  0.50000000  0.96191000  1.0
  Ga  Ga7  1  0.50006000  0.50000000  0.87460000  1.0
  Ga  Ga8  1  0.25000000  0.00000000  0.11714000  1.0
  Ga  Ga9  1  0.00000000  0.00000000  0.03905000  1.0
  Ga  Ga10  1  0.24999000  0.00000000  0.96238000  1.0
  Ga  Ga11  1  0.99994000  0.00000000  0.87557000  1.0
  Ga  Ga12  1  0.75000000  0.00000000  0.11714000  1.0
  Ga  Ga13  1  0.50000000  0.00000000  0.03905000  1.0
  Ga  Ga14  1  0.75000000  0.00000000  0.96237000  1.0
  Ga  Ga15  1  0.50006000  0.00000000  0.87354000  1.0
  Co  Co16  1  0.00000000  0.75001000  0.11714000  1.0
  Co  Co17  1  0.25000000  0.75001000  0.03905000  1.0
  Co  Co18  1  0.99998000  0.74964000  0.96117000  1.0
  Co  Co19  1  0.25221000  0.75324000  0.88769000  1.0
  Co  Co20  1  0.50000000  0.75001000  0.11714000  1.0
  Co  Co21  1  0.75000000  0.75001000  0.03905000  1.0
  Co  Co22  1  0.50001000  0.75194000  0.96144000  1.0
  Co  Co23  1  0.74779000  0.75324000  0.88769000  1.0
  Co  Co24  1  0.00000000  0.24999000  0.11714000  1.0
  Co  Co25  1  0.25000000  0.24999000  0.03905000  1.0
  Co  Co26  1  0.99998000  0.25036000  0.96117000  1.0
  Co  Co27  1  0.25221000  0.24676000  0.88769000  1.0
  Co  Co28  1  0.50000000  0.24999000  0.11714000  1.0
  Co  Co29  1  0.75000000  0.24999000  0.03905000  1.0
  Co  Co30  1  0.50001000  0.24806000  0.96144000  1.0
  Co  Co31  1  0.74779000  0.24676000  0.88769000  1.0
  C  C32  1  0.00004000  0.50000000  0.79840000  1.0
  O  O33  1  0.00000000  0.50000000  0.75459000  1.0
