# generated using pymatgen
data_Ga16Co16CO
_symmetry_space_group_name_H-M   Pm
_cell_length_a   8.15918000
_cell_length_b   5.76941000
_cell_length_c   26.11940000
_cell_angle_alpha   90.00000000
_cell_angle_beta   90.00000000
_cell_angle_gamma   90.00000000
_symmetry_Int_Tables_number   6
_chemical_formula_structural   Ga16Co16CO
_chemical_formula_sum   'Ga16 Co16 C1 O1'
_cell_volume   1229.53561615
_cell_formula_units_Z   1
loop_
 _symmetry_equiv_pos_site_id
 _symmetry_equiv_pos_as_xyz
  1  'x, y, z'
  2  'x, -y, z'
loop_
 _atom_site_type_symbol
 _atom_site_label
 _atom_site_symmetry_multiplicity
 _atom_site_fract_x
 _atom_site_fract_y
 _atom_site_fract_z
 _atom_site_occupancy
  Ga  Ga0  1  0.00000000  0.00000000  0.96095000  1.0
  Ga  Ga1  1  0.00000000  0.50000000  0.96095000  1.0
  Ga  Ga2  1  0.24999000  0.00000000  0.03762000  1.0
  Ga  Ga3  1  0.25000000  0.00000000  0.88286000  1.0
  Ga  Ga4  1  0.25000000  0.50000000  0.88286000  1.0
  Ga  Ga5  1  0.25226000  0.50000000  0.03809000  1.0
  Ga  Ga6  1  0.50000000  0.00000000  0.96095000  1.0
  Ga  Ga7  1  0.50000000  0.50000000  0.96095000  1.0
  Ga  Ga8  1  0.50006000  0.00000000  0.12646000  1.0
  Ga  Ga9  1  0.50006000  0.50000000  0.12540000  1.0
  Ga  Ga10  1  0.74774000  0.50000000  0.03809000  1.0
  Ga  Ga11  1  0.75000000  0.00000000  0.03763000  1.0
  Ga  Ga12  1  0.75000000  0.00000000  0.88286000  1.0
  Ga  Ga13  1  0.75000000  0.50000000  0.88286000  1.0
  Ga  Ga14  1  0.99994000  0.00000000  0.12443000  1.0
  Ga  Ga15  1  0.99994000  0.50000000  0.12175000  1.0
  Co  Co16  2  0.00000000  0.24999000  0.88286000  1.0
  Co  Co17  2  0.25000000  0.24999000  0.96095000  1.0
  Co  Co18  2  0.25221000  0.24676000  0.11231000  1.0
  Co  Co19  2  0.50000000  0.24999000  0.88286000  1.0
  Co  Co20  2  0.50001000  0.24806000  0.03856000  1.0
  Co  Co21  2  0.74779000  0.24676000  0.11231000  1.0
  Co  Co22  2  0.75000000  0.24999000  0.96095000  1.0
  Co  Co23  2  0.99998000  0.25036000  0.03883000  1.0
  C  C24  1  0.00004000  0.50000000  0.20160000  1.0
  O  O25  1  0.00000000  0.50000000  0.24541000  1.0
