# generated using pymatgen
data_Li16Zn8Ge8CO
_symmetry_space_group_name_H-M   Pm
_cell_length_a   6.18893000
_cell_length_b   8.75246000
_cell_length_c   26.56430000
_cell_angle_alpha   90.00000000
_cell_angle_beta   90.00000000
_cell_angle_gamma   90.00000000
_symmetry_Int_Tables_number   6
_chemical_formula_structural   Li16Zn8Ge8CO
_chemical_formula_sum   'Li16 Zn8 Ge8 C1 O1'
_cell_volume   1438.94462579
_cell_formula_units_Z   1
loop_
 _symmetry_equiv_pos_site_id
 _symmetry_equiv_pos_as_xyz
  1  'x, y, z'
  2  'x, -y, z'
loop_
 _atom_site_type_symbol
 _atom_site_label
 _atom_site_symmetry_multiplicity
 _atom_site_fract_x
 _atom_site_fract_y
 _atom_site_fract_z
 _atom_site_occupancy
  Li  Li0  2  0.00000000  0.25000000  0.87644000  1.0
  Li  Li1  2  0.75000000  0.25000000  0.95881000  1.0
  Li  Li2  2  0.77898000  0.24576000  0.13812000  1.0
  Li  Li3  2  0.98191000  0.24903000  0.04128000  1.0
  Li  Li4  1  0.24551000  0.50000000  0.04222000  1.0
  Li  Li5  1  0.25000000  0.00000000  0.87644000  1.0
  Li  Li6  1  0.25000000  0.50000000  0.87644000  1.0
  Li  Li7  1  0.25275000  0.00000000  0.04203000  1.0
  Li  Li8  1  0.47596000  0.00000000  0.12917000  1.0
  Li  Li9  1  0.49241000  0.50000000  0.12640000  1.0
  Li  Li10  1  0.50000000  0.00000000  0.95881000  1.0
  Li  Li11  1  0.50000000  0.50000000  0.95881000  1.0
  Zn  Zn12  2  0.22274000  0.25234000  0.12022000  1.0
  Zn  Zn13  2  0.25000000  0.25000000  0.95881000  1.0
  Zn  Zn14  1  0.74641000  0.00000000  0.04559000  1.0
  Zn  Zn15  1  0.75000000  0.00000000  0.87644000  1.0
  Zn  Zn16  1  0.75000000  0.50000000  0.87644000  1.0
  Zn  Zn17  1  0.75249000  0.50000000  0.04343000  1.0
  Ge  Ge18  2  0.50000000  0.25000000  0.87644000  1.0
  Ge  Ge19  2  0.50864000  0.25219000  0.04664000  1.0
  Ge  Ge20  1  -0.00000000  0.50000000  0.95881000  1.0
  Ge  Ge21  1  -0.00000000  0.00000000  0.95881000  1.0
  Ge  Ge22  1  0.00648000  0.00000000  0.12466000  1.0
  Ge  Ge23  1  0.99917000  0.50000000  0.12710000  1.0
  C  C24  1  0.50201000  0.00000000  0.20667000  1.0
  O  O25  1  0.50513000  0.00000000  0.24975000  1.0
