# generated using pymatgen
data_Li4In4Pd4Au4CO
_symmetry_space_group_name_H-M   Pm
_cell_length_a   5.60636000
_cell_length_b   8.89782000
_cell_length_c   24.18540000
_cell_angle_alpha   90.00000000
_cell_angle_beta   90.00000000
_cell_angle_gamma   90.00000000
_symmetry_Int_Tables_number   6
_chemical_formula_structural   Li4In4Pd4Au4CO
_chemical_formula_sum   'Li4 In4 Pd4 Au4 C1 O1'
_cell_volume   1206.47373569
_cell_formula_units_Z   1
loop_
 _symmetry_equiv_pos_site_id
 _symmetry_equiv_pos_as_xyz
  1  'x, y, z'
  2  'x, -y, z'
loop_
 _atom_site_type_symbol
 _atom_site_label
 _atom_site_symmetry_multiplicity
 _atom_site_fract_x
 _atom_site_fract_y
 _atom_site_fract_z
 _atom_site_occupancy
  Li  Li0  2  0.50000000  0.25001000  0.91347000  1.0
  Li  Li1  2  0.91757000  0.25460000  0.02666000  1.0
  In  In2  1  0.22604000  0.00000000  0.97116000  1.0
  In  In3  1  0.22604000  0.50000000  0.97116000  1.0
  In  In4  1  0.62531000  0.00000000  0.08565000  1.0
  In  In5  1  0.63316000  0.50000000  0.09523000  1.0
  Pd  Pd6  1  0.11362000  0.00000000  0.08503000  1.0
  Pd  Pd7  1  0.11658000  0.50000000  0.07897000  1.0
  Pd  Pd8  1  0.72604000  0.00000000  0.97116000  1.0
  Pd  Pd9  1  0.72604000  0.50000000  0.97116000  1.0
  Au  Au10  2  0.00000000  0.25001000  0.91347000  1.0
  Au  Au11  2  0.42336000  0.25478000  0.03483000  1.0
  C  C12  1  0.12920000  0.00000000  0.16593000  1.0
  O  O13  1  0.14577000  0.00000000  0.21331000  1.0
