data_image0
_chemical_formula_structural       Sn4Pt12CO
_chemical_formula_sum              "Sn4 Pt12 C1 O1"
_cell_length_a       8.18271
_cell_length_b       5.78605
_cell_length_c       24.3395
_cell_angle_alpha    90
_cell_angle_beta     90
_cell_angle_gamma    90

_space_group_name_H-M_alt    "P 1"
_space_group_IT_number       1

loop_
  _space_group_symop_operation_xyz
  'x, y, z'

loop_
  _atom_site_type_symbol
  _atom_site_label
  _atom_site_symmetry_multiplicity
  _atom_site_fract_x
  _atom_site_fract_y
  _atom_site_fract_z
  _atom_site_occupancy
  Sn  Sn1       1.0  0.00000  0.00000  0.91085  1.0000
  Sn  Sn2       1.0  0.99614  0.49955  0.03615  1.0000
  Sn  Sn3       1.0  0.50000  0.00000  0.91085  1.0000
  Sn  Sn4       1.0  0.50386  0.49955  0.03615  1.0000
  Pt  Pt1       1.0  0.00000  0.50000  0.91085  1.0000
  Pt  Pt2       1.0  0.25000  0.75000  0.97028  1.0000
  Pt  Pt3       1.0  0.25000  0.25000  0.97028  1.0000
  Pt  Pt4       1.0  0.00094  0.00003  0.02948  1.0000
  Pt  Pt5       1.0  0.25000  0.22984  0.08760  1.0000
  Pt  Pt6       1.0  0.25000  0.73769  0.08374  1.0000
  Pt  Pt7       1.0  0.50000  0.50000  0.91085  1.0000
  Pt  Pt8       1.0  0.75000  0.75000  0.97028  1.0000
  Pt  Pt9       1.0  0.75000  0.25000  0.97028  1.0000
  Pt  Pt10      1.0  0.49905  0.00004  0.02948  1.0000
  Pt  Pt11      1.0  0.75000  0.24489  0.08475  1.0000
  Pt  Pt12      1.0  0.75000  0.76021  0.08434  1.0000
  C   C1        1.0  0.25000  0.25290  0.16415  1.0000
  O   O1        1.0  0.25000  0.25990  0.21148  1.0000
