# generated using pymatgen
data_Sn4Pt12CO
_symmetry_space_group_name_H-M   'P 1'
_cell_length_a   8.18271000
_cell_length_b   5.78605000
_cell_length_c   24.33950000
_cell_angle_alpha   90.00000000
_cell_angle_beta   90.00000000
_cell_angle_gamma   90.00000000
_symmetry_Int_Tables_number   1
_chemical_formula_structural   Sn4Pt12CO
_chemical_formula_sum   'Sn4 Pt12 C1 O1'
_cell_volume   1152.36748143
_cell_formula_units_Z   1
loop_
 _symmetry_equiv_pos_site_id
 _symmetry_equiv_pos_as_xyz
  1  'x, y, z'
loop_
 _atom_site_type_symbol
 _atom_site_label
 _atom_site_symmetry_multiplicity
 _atom_site_fract_x
 _atom_site_fract_y
 _atom_site_fract_z
 _atom_site_occupancy
  Sn  Sn0  1  0.75000000  0.00000000  0.91085000  1.0
  Sn  Sn1  1  0.75386000  0.50045000  0.03615000  1.0
  Sn  Sn2  1  0.25000000  0.00000000  0.91085000  1.0
  Sn  Sn3  1  0.24614000  0.50045000  0.03615000  1.0
  Pt  Pt4  1  0.75000000  0.50000000  0.91085000  1.0
  Pt  Pt5  1  0.50000000  0.25000000  0.97028000  1.0
  Pt  Pt6  1  0.50000000  0.75000000  0.97028000  1.0
  Pt  Pt7  1  0.74906000  0.99997000  0.02948000  1.0
  Pt  Pt8  1  0.50000000  0.77016000  0.08760000  1.0
  Pt  Pt9  1  0.50000000  0.26231000  0.08374000  1.0
  Pt  Pt10  1  0.25000000  0.50000000  0.91085000  1.0
  Pt  Pt11  1  0.00000000  0.25000000  0.97028000  1.0
  Pt  Pt12  1  0.00000000  0.75000000  0.97028000  1.0
  Pt  Pt13  1  0.25094000  0.99997000  0.02948000  1.0
  Pt  Pt14  1  0.00000000  0.75511000  0.08475000  1.0
  Pt  Pt15  1  0.00000000  0.23979000  0.08434000  1.0
  C  C16  1  0.50000000  0.74710000  0.16415000  1.0
  O  O17  1  0.50000000  0.74010000  0.21148000  1.0
