data_image0
_chemical_formula_structural       Li8Mg4In4C
_chemical_formula_sum              "Li8 Mg4 In4 C1"
_cell_length_a       6.75535
_cell_length_b       6.75535
_cell_length_c       25.0665
_cell_angle_alpha    90
_cell_angle_beta     90
_cell_angle_gamma    90

_space_group_name_H-M_alt    "P 1"
_space_group_IT_number       1

loop_
  _space_group_symop_operation_xyz
  'x, y, z'

loop_
  _atom_site_type_symbol
  _atom_site_label
  _atom_site_symmetry_multiplicity
  _atom_site_fract_x
  _atom_site_fract_y
  _atom_site_fract_z
  _atom_site_occupancy
  Li  Li1       1.0  0.25000  0.25000  0.96631  1.0000
  Li  Li2       1.0  0.78507  0.71360  0.11582  1.0000
  Li  Li3       1.0  0.75000  0.25000  0.96631  1.0000
  Li  Li4       1.0  0.21495  0.71351  0.11575  1.0000
  Li  Li5       1.0  0.75000  0.75000  0.96631  1.0000
  Li  Li6       1.0  0.21493  0.28651  0.11575  1.0000
  Li  Li7       1.0  0.25000  0.75000  0.96631  1.0000
  Li  Li8       1.0  0.78509  0.28639  0.11579  1.0000
  Mg  Mg1       1.0  0.00000  0.00000  0.89894  1.0000
  Mg  Mg2       1.0  0.50000  0.50000  0.89894  1.0000
  Mg  Mg3       1.0  0.50014  0.99996  0.04596  1.0000
  Mg  Mg4       1.0  0.99979  0.50000  0.03112  1.0000
  In  In1       1.0  0.99976  0.99989  0.03811  1.0000
  In  In2       1.0  0.50000  0.00000  0.89894  1.0000
  In  In3       1.0  0.00000  0.50000  0.89894  1.0000
  In  In4       1.0  0.50056  0.50002  0.03658  1.0000
  C   C1        1.0  0.99991  0.50002  0.11516  1.0000
