# generated using pymatgen
data_Li8Mg4In4C
_symmetry_space_group_name_H-M   P1
_cell_length_a   6.75535000
_cell_length_b   6.75535000
_cell_length_c   25.06650000
_cell_angle_alpha   90.00000000
_cell_angle_beta   90.00000000
_cell_angle_gamma   90.00000000
_symmetry_Int_Tables_number   1
_chemical_formula_structural   Li8Mg4In4C
_chemical_formula_sum   'Li8 Mg4 In4 C1'
_cell_volume   1143.90355168
_cell_formula_units_Z   1
loop_
 _symmetry_equiv_pos_site_id
 _symmetry_equiv_pos_as_xyz
  1  'x, y, z'
loop_
 _atom_site_type_symbol
 _atom_site_label
 _atom_site_symmetry_multiplicity
 _atom_site_fract_x
 _atom_site_fract_y
 _atom_site_fract_z
 _atom_site_occupancy
  Li  Li0  1  0.21493000  0.28651000  0.11575000  1.0
  Li  Li1  1  0.21495000  0.71351000  0.11575000  1.0
  Li  Li2  1  0.25000000  0.25000000  0.96631000  1.0
  Li  Li3  1  0.25000000  0.75000000  0.96631000  1.0
  Li  Li4  1  0.75000000  0.25000000  0.96631000  1.0
  Li  Li5  1  0.75000000  0.75000000  0.96631000  1.0
  Li  Li6  1  0.78507000  0.71360000  0.11582000  1.0
  Li  Li7  1  0.78509000  0.28639000  0.11579000  1.0
  Mg  Mg8  1  0.00000000  0.00000000  0.89894000  1.0
  Mg  Mg9  1  0.50000000  0.50000000  0.89894000  1.0
  Mg  Mg10  1  0.50014000  0.99996000  0.04596000  1.0
  Mg  Mg11  1  0.99979000  0.50000000  0.03112000  1.0
  In  In12  1  0.00000000  0.50000000  0.89894000  1.0
  In  In13  1  0.50000000  0.00000000  0.89894000  1.0
  In  In14  1  0.50056000  0.50002000  0.03658000  1.0
  In  In15  1  0.99976000  0.99989000  0.03811000  1.0
  C  C16  1  0.99991000  0.50002000  0.11516000  1.0
