data_image0
_chemical_formula_structural       Li8Y8Sn8Pd8CO
_chemical_formula_sum              "Li8 Y8 Sn8 Pd8 C1 O1"
_cell_length_a       6.77715
_cell_length_b       9.58434
_cell_length_c       27.1883
_cell_angle_alpha    90
_cell_angle_beta     90
_cell_angle_gamma    90

_space_group_name_H-M_alt    "P 1"
_space_group_IT_number       1

loop_
  _space_group_symop_operation_xyz
  'x, y, z'

loop_
  _atom_site_type_symbol
  _atom_site_label
  _atom_site_symmetry_multiplicity
  _atom_site_fract_x
  _atom_site_fract_y
  _atom_site_fract_z
  _atom_site_occupancy
  Li  Li1       1.0  0.00000  0.00000  0.86781  1.0000
  Li  Li2       1.0  0.00000  0.50000  0.86781  1.0000
  Li  Li3       1.0  0.50000  0.75000  0.95594  1.0000
  Li  Li4       1.0  0.50000  0.25000  0.95594  1.0000
  Li  Li5       1.0  0.01204  0.49788  0.04688  1.0000
  Li  Li6       1.0  0.00823  0.99346  0.04727  1.0000
  Li  Li7       1.0  0.62957  0.24729  0.18030  1.0000
  Li  Li8       1.0  0.68638  0.74291  0.18004  1.0000
  Y   Y1        1.0  0.25000  0.00000  0.95594  1.0000
  Y   Y2        1.0  0.25000  0.50000  0.95594  1.0000
  Y   Y3        1.0  0.75000  0.25000  0.86781  1.0000
  Y   Y4        1.0  0.75000  0.75000  0.86781  1.0000
  Y   Y5        1.0  0.28627  0.49435  0.13507  1.0000
  Y   Y6        1.0  0.28667  0.99773  0.13417  1.0000
  Y   Y7        1.0  0.74115  0.74624  0.04827  1.0000
  Y   Y8        1.0  0.74313  0.24690  0.04768  1.0000
  Sn  Sn1       1.0  0.75000  0.00000  0.95594  1.0000
  Sn  Sn2       1.0  0.75000  0.50000  0.95594  1.0000
  Sn  Sn3       1.0  0.25000  0.25000  0.86781  1.0000
  Sn  Sn4       1.0  0.25000  0.75000  0.86781  1.0000
  Sn  Sn5       1.0  0.77550  0.49555  0.13209  1.0000
  Sn  Sn6       1.0  0.76912  0.99586  0.13400  1.0000
  Sn  Sn7       1.0  0.25872  0.74730  0.04372  1.0000
  Sn  Sn8       1.0  0.25166  0.24738  0.04335  1.0000
  Pd  Pd1       1.0  0.00000  0.25000  0.95594  1.0000
  Pd  Pd2       1.0  0.00000  0.75000  0.95594  1.0000
  Pd  Pd3       1.0  0.50000  0.50000  0.86781  1.0000
  Pd  Pd4       1.0  0.50000  0.00000  0.86781  1.0000
  Pd  Pd5       1.0  0.01887  0.74371  0.12523  1.0000
  Pd  Pd6       1.0  0.01760  0.24468  0.13072  1.0000
  Pd  Pd7       1.0  0.49649  0.99921  0.04195  1.0000
  Pd  Pd8       1.0  0.49563  0.49355  0.04280  1.0000
  C   C1        1.0  0.28751  0.21836  0.17325  1.0000
  O   O1        1.0  0.35464  0.32461  0.19515  1.0000
