# generated using pymatgen
data_Li8Y8Sn8Pd8CO
_symmetry_space_group_name_H-M   'P 1'
_cell_length_a   6.77715000
_cell_length_b   9.58434000
_cell_length_c   27.18830000
_cell_angle_alpha   90.00000000
_cell_angle_beta   90.00000000
_cell_angle_gamma   90.00000000
_symmetry_Int_Tables_number   1
_chemical_formula_structural   Li8Y8Sn8Pd8CO
_chemical_formula_sum   'Li8 Y8 Sn8 Pd8 C1 O1'
_cell_volume   1766.00269964
_cell_formula_units_Z   1
loop_
 _symmetry_equiv_pos_site_id
 _symmetry_equiv_pos_as_xyz
  1  'x, y, z'
loop_
 _atom_site_type_symbol
 _atom_site_label
 _atom_site_symmetry_multiplicity
 _atom_site_fract_x
 _atom_site_fract_y
 _atom_site_fract_z
 _atom_site_occupancy
  Li  Li0  1  0.00000000  0.00000000  0.86781000  1.0
  Li  Li1  1  1.00000000  0.50000000  0.86781000  1.0
  Li  Li2  1  0.50000000  0.75000000  0.95594000  1.0
  Li  Li3  1  0.50000000  0.25000000  0.95594000  1.0
  Li  Li4  1  0.01204000  0.49788000  0.04688000  1.0
  Li  Li5  1  0.00823000  0.99346000  0.04727000  1.0
  Li  Li6  1  0.62957000  0.24729000  0.18030000  1.0
  Li  Li7  1  0.68638000  0.74291000  0.18004000  1.0
  Y  Y8  1  0.25000000  0.00000000  0.95594000  1.0
  Y  Y9  1  0.25000000  0.50000000  0.95594000  1.0
  Y  Y10  1  0.75000000  0.25000000  0.86781000  1.0
  Y  Y11  1  0.75000000  0.75000000  0.86781000  1.0
  Y  Y12  1  0.28627000  0.49435000  0.13507000  1.0
  Y  Y13  1  0.28667000  0.99773000  0.13417000  1.0
  Y  Y14  1  0.74115000  0.74624000  0.04827000  1.0
  Y  Y15  1  0.74313000  0.24690000  0.04768000  1.0
  Sn  Sn16  1  0.75000000  0.00000000  0.95594000  1.0
  Sn  Sn17  1  0.75000000  0.50000000  0.95594000  1.0
  Sn  Sn18  1  0.25000000  0.25000000  0.86781000  1.0
  Sn  Sn19  1  0.25000000  0.75000000  0.86781000  1.0
  Sn  Sn20  1  0.77550000  0.49555000  0.13209000  1.0
  Sn  Sn21  1  0.76912000  0.99586000  0.13400000  1.0
  Sn  Sn22  1  0.25872000  0.74730000  0.04372000  1.0
  Sn  Sn23  1  0.25166000  0.24738000  0.04335000  1.0
  Pd  Pd24  1  1.00000000  0.25000000  0.95594000  1.0
  Pd  Pd25  1  1.00000000  0.75000000  0.95594000  1.0
  Pd  Pd26  1  0.50000000  0.50000000  0.86781000  1.0
  Pd  Pd27  1  0.50000000  0.00000000  0.86781000  1.0
  Pd  Pd28  1  0.01887000  0.74371000  0.12523000  1.0
  Pd  Pd29  1  0.01760000  0.24468000  0.13072000  1.0
  Pd  Pd30  1  0.49649000  0.99921000  0.04195000  1.0
  Pd  Pd31  1  0.49563000  0.49355000  0.04280000  1.0
  C  C32  1  0.28751000  0.21836000  0.17325000  1.0
  O  O33  1  0.35464000  0.32461000  0.19515000  1.0
