# generated using pymatgen
data_Y4In4Sn4Pd4C
_symmetry_space_group_name_H-M   Pm
_cell_length_a   6.29351000
_cell_length_b   9.16402000
_cell_length_c   24.71690000
_cell_angle_alpha   90.00000000
_cell_angle_beta   90.00000000
_cell_angle_gamma   90.00000000
_symmetry_Int_Tables_number   6
_chemical_formula_structural   Y4In4Sn4Pd4C
_chemical_formula_sum   'Y4 In4 Sn4 Pd4 C1'
_cell_volume   1425.51882039
_cell_formula_units_Z   1
loop_
 _symmetry_equiv_pos_site_id
 _symmetry_equiv_pos_as_xyz
  1  'x, y, z'
  2  'x, -y, z'
loop_
 _atom_site_type_symbol
 _atom_site_label
 _atom_site_symmetry_multiplicity
 _atom_site_fract_x
 _atom_site_fract_y
 _atom_site_fract_z
 _atom_site_occupancy
  Y  Y0  2  0.21557000  0.20698000  0.09734000  1.0
  Y  Y1  2  0.74073000  0.25000000  0.96819000  1.0
  In  In2  1  0.00000000  0.00000000  0.90458000  1.0
  In  In3  1  0.00000000  0.50000000  0.90458000  1.0
  In  In4  1  0.47595000  0.50000000  0.03922000  1.0
  In  In5  1  0.49318000  0.00000000  0.02352000  1.0
  Sn  Sn6  2  0.24073000  0.25000000  0.96819000  1.0
  Sn  Sn7  2  0.73263000  0.18124000  0.11384000  1.0
  Pd  Pd8  1  0.50000000  0.00000000  0.90458000  1.0
  Pd  Pd9  1  0.50000000  0.50000000  0.90458000  1.0
  Pd  Pd10  1  0.97114000  0.50000000  0.03061000  1.0
  Pd  Pd11  1  0.97262000  0.00000000  0.02462000  1.0
  C  C12  1  0.99949000  0.00000000  0.11475000  1.0
