# generated using pymatgen
data_GaNi3
_symmetry_space_group_name_H-M   'P 1'
_cell_length_a   3.59985500
_cell_length_b   3.59985500
_cell_length_c   25.39980000
_cell_angle_alpha   90.00000000
_cell_angle_beta   90.00000000
_cell_angle_gamma   90.00000000
_symmetry_Int_Tables_number   1
_chemical_formula_structural   GaNi3
_chemical_formula_sum   'Ga2 Ni6'
_cell_volume   329.15489114
_cell_formula_units_Z   2
loop_
 _symmetry_equiv_pos_site_id
 _symmetry_equiv_pos_as_xyz
  1  'x, y, z'
loop_
 _atom_site_type_symbol
 _atom_site_label
 _atom_site_symmetry_multiplicity
 _atom_site_fract_x
 _atom_site_fract_y
 _atom_site_fract_z
 _atom_site_occupancy
  Ga  Ga0  1  0.00000000  0.00000000  0.89370000  1.0
  Ga  Ga1  1  0.00000000  0.00000000  0.03543000  1.0
  Ni  Ni2  1  0.50000000  0.00000000  0.96457000  1.0
  Ni  Ni3  1  0.00000000  0.50000000  0.96457000  1.0
  Ni  Ni4  1  0.50000000  0.50000000  0.89370000  1.0
  Ni  Ni5  1  0.50000000  0.00000000  0.10630000  1.0
  Ni  Ni6  1  0.00000000  0.50000000  0.10630000  1.0
  Ni  Ni7  1  0.50000000  0.50000000  0.03543000  1.0
