# generated using pymatgen
data_Y8In8Ag16C
_symmetry_space_group_name_H-M   'P 1'
_cell_length_a   7.06522000
_cell_length_b   9.99173000
_cell_length_c   27.49380000
_cell_angle_alpha   90.00000000
_cell_angle_beta   90.00000000
_cell_angle_gamma   90.00000000
_symmetry_Int_Tables_number   1
_chemical_formula_structural   Y8In8Ag16C
_chemical_formula_sum   'Y8 In8 Ag16 C1'
_cell_volume   1940.89101096
_cell_formula_units_Z   1
loop_
 _symmetry_equiv_pos_site_id
 _symmetry_equiv_pos_as_xyz
  1  'x, y, z'
loop_
 _atom_site_type_symbol
 _atom_site_label
 _atom_site_symmetry_multiplicity
 _atom_site_fract_x
 _atom_site_fract_y
 _atom_site_fract_z
 _atom_site_occupancy
  Y  Y0  1  0.00000000  0.00000000  0.86372000  1.0
  Y  Y1  1  0.50000000  0.25000000  0.95457000  1.0
  Y  Y2  1  0.50000000  0.75000000  0.95457000  1.0
  Y  Y3  1  0.00000000  0.50000000  0.86372000  1.0
  Y  Y4  1  0.00000000  0.50000000  0.04794000  1.0
  Y  Y5  1  0.50000000  0.77331000  0.13482000  1.0
  Y  Y6  1  0.50000000  0.22669000  0.13482000  1.0
  Y  Y7  1  0.00000000  0.00000000  0.05071000  1.0
  In  In8  1  0.00000000  0.75000000  0.95457000  1.0
  In  In9  1  0.50000000  0.00000000  0.86372000  1.0
  In  In10  1  0.00000000  0.25000000  0.95457000  1.0
  In  In11  1  0.50000000  0.50000000  0.86372000  1.0
  In  In12  1  0.00000000  0.26170000  0.13519000  1.0
  In  In13  1  0.50000000  0.50000000  0.04296000  1.0
  In  In14  1  0.00000000  0.73830000  0.13519000  1.0
  In  In15  1  0.50000000  0.00000000  0.04562000  1.0
  Ag  Ag16  1  0.25000000  0.00000000  0.95457000  1.0
  Ag  Ag17  1  0.75000000  0.50000000  0.95457000  1.0
  Ag  Ag18  1  0.75000000  0.00000000  0.95457000  1.0
  Ag  Ag19  1  0.25000000  0.50000000  0.95457000  1.0
  Ag  Ag20  1  0.75000000  0.75000000  0.86372000  1.0
  Ag  Ag21  1  0.25000000  0.25000000  0.86372000  1.0
  Ag  Ag22  1  0.25000000  0.75000000  0.86372000  1.0
  Ag  Ag23  1  0.75000000  0.25000000  0.86372000  1.0
  Ag  Ag24  1  0.26694000  0.50000000  0.13609000  1.0
  Ag  Ag25  1  0.80633000  0.00000000  0.15351000  1.0
  Ag  Ag26  1  0.73306000  0.50000000  0.13609000  1.0
  Ag  Ag27  1  0.19367000  0.00000000  0.15351000  1.0
  Ag  Ag28  1  0.74908000  0.25205000  0.04429000  1.0
  Ag  Ag29  1  0.25092000  0.74795000  0.04429000  1.0
  Ag  Ag30  1  0.25092000  0.25205000  0.04429000  1.0
  Ag  Ag31  1  0.74908000  0.74795000  0.04429000  1.0
  C  C32  1  0.50000000  0.00000000  0.13317000  1.0
