# generated using pymatgen
data_TiAlNi2
_symmetry_space_group_name_H-M   'P 1'
_cell_length_a   5.91339000
_cell_length_b   8.36280000
_cell_length_c   26.27210000
_cell_angle_alpha   90.00000000
_cell_angle_beta   90.00000000
_cell_angle_gamma   90.00000000
_symmetry_Int_Tables_number   1
_chemical_formula_structural   TiAlNi2
_chemical_formula_sum   'Ti8 Al8 Ni16'
_cell_volume   1299.22096987
_cell_formula_units_Z   8
loop_
 _symmetry_equiv_pos_site_id
 _symmetry_equiv_pos_as_xyz
  1  'x, y, z'
loop_
 _atom_site_type_symbol
 _atom_site_label
 _atom_site_symmetry_multiplicity
 _atom_site_fract_x
 _atom_site_fract_y
 _atom_site_fract_z
 _atom_site_occupancy
  Ti  Ti0  1  0.00000000  0.00000000  0.88063000  1.0
  Ti  Ti1  1  0.50000000  0.25000000  0.96021000  1.0
  Ti  Ti2  1  0.50000000  0.75000000  0.96021000  1.0
  Ti  Ti3  1  0.00000000  0.50000000  0.88063000  1.0
  Ti  Ti4  1  0.00000000  0.50000000  0.03973000  1.0
  Ti  Ti5  1  0.50000000  0.75000000  0.12106000  1.0
  Ti  Ti6  1  0.50000000  0.25000000  0.12106000  1.0
  Ti  Ti7  1  0.00000000  0.00000000  0.03972000  1.0
  Al  Al8  1  0.00000000  0.75000000  0.96021000  1.0
  Al  Al9  1  0.50000000  0.00000000  0.88063000  1.0
  Al  Al10  1  0.00000000  0.25000000  0.96021000  1.0
  Al  Al11  1  0.50000000  0.50000000  0.88063000  1.0
  Al  Al12  1  0.00000000  0.24999000  0.11916000  1.0
  Al  Al13  1  0.50000000  0.50000000  0.04009000  1.0
  Al  Al14  1  0.00000000  0.75001000  0.11916000  1.0
  Al  Al15  1  0.50000000  0.00000000  0.04008000  1.0
  Ni  Ni16  1  0.25000000  0.00000000  0.96021000  1.0
  Ni  Ni17  1  0.75000000  0.50000000  0.96021000  1.0
  Ni  Ni18  1  0.75000000  0.00000000  0.96021000  1.0
  Ni  Ni19  1  0.25000000  0.50000000  0.96021000  1.0
  Ni  Ni20  1  0.75000000  0.75000000  0.88063000  1.0
  Ni  Ni21  1  0.25000000  0.25000000  0.88063000  1.0
  Ni  Ni22  1  0.25000000  0.75000000  0.88063000  1.0
  Ni  Ni23  1  0.75000000  0.25000000  0.88063000  1.0
  Ni  Ni24  1  0.24424000  0.50000000  0.11460000  1.0
  Ni  Ni25  1  0.75570000  0.00000000  0.11452000  1.0
  Ni  Ni26  1  0.75576000  0.50000000  0.11460000  1.0
  Ni  Ni27  1  0.24430000  0.00000000  0.11452000  1.0
  Ni  Ni28  1  0.73873000  0.24980000  0.04083000  1.0
  Ni  Ni29  1  0.26127000  0.75020000  0.04083000  1.0
  Ni  Ni30  1  0.26127000  0.24980000  0.04083000  1.0
  Ni  Ni31  1  0.73873000  0.75020000  0.04083000  1.0
