data_image0
_chemical_formula_structural       Li4Mg4Pd4Pb4CO
_chemical_formula_sum              "Li4 Mg4 Pd4 Pb4 C1 O1"
_cell_length_a       6.6828
_cell_length_b       6.6828
_cell_length_c       25.0121
_cell_angle_alpha    90
_cell_angle_beta     90
_cell_angle_gamma    90

_space_group_name_H-M_alt    "P 1"
_space_group_IT_number       1

loop_
  _space_group_symop_operation_xyz
  'x, y, z'

loop_
  _atom_site_type_symbol
  _atom_site_label
  _atom_site_symmetry_multiplicity
  _atom_site_fract_x
  _atom_site_fract_y
  _atom_site_fract_z
  _atom_site_occupancy
  Li  Li1       1.0  0.00000  0.00000  0.89981  1.0000
  Li  Li2       1.0  0.01158  0.50985  0.03383  1.0000
  Li  Li3       1.0  0.49015  0.98843  0.03383  1.0000
  Li  Li4       1.0  0.50000  0.50000  0.89981  1.0000
  Mg  Mg1       1.0  0.75000  0.25000  0.96660  1.0000
  Mg  Mg2       1.0  0.74899  0.74826  0.09537  1.0000
  Mg  Mg3       1.0  0.25174  0.25100  0.09535  1.0000
  Mg  Mg4       1.0  0.25000  0.75000  0.96660  1.0000
  Pd  Pd1       1.0  0.00000  0.50000  0.89981  1.0000
  Pd  Pd2       1.0  0.00946  0.99058  0.03636  1.0000
  Pd  Pd3       1.0  0.49279  0.50718  0.03686  1.0000
  Pd  Pd4       1.0  0.50000  0.00000  0.89981  1.0000
  Pb  Pb1       1.0  0.25000  0.25000  0.96660  1.0000
  Pb  Pb2       1.0  0.24977  0.75024  0.11660  1.0000
  Pb  Pb3       1.0  0.75246  0.24754  0.10641  1.0000
  Pb  Pb4       1.0  0.75000  0.75000  0.96660  1.0000
  C   C1        1.0  0.69889  0.30118  0.25168  1.0000
  O   O1        1.0  0.78059  0.21934  0.28508  1.0000
