data_image0
_chemical_formula_structural       Li16Cu8Sb8CO
_chemical_formula_sum              "Li16 Cu8 Sb8 C1 O1"
_cell_length_a       6.37457
_cell_length_b       9.015
_cell_length_c       26.7613
_cell_angle_alpha    90
_cell_angle_beta     90
_cell_angle_gamma    90

_space_group_name_H-M_alt    "P 1"
_space_group_IT_number       1

loop_
  _space_group_symop_operation_xyz
  'x, y, z'

loop_
  _atom_site_type_symbol
  _atom_site_label
  _atom_site_symmetry_multiplicity
  _atom_site_fract_x
  _atom_site_fract_y
  _atom_site_fract_z
  _atom_site_occupancy
  Li  Li1       1.0  0.00000  0.75000  0.95789  1.0000
  Li  Li2       1.0  0.50000  0.00000  0.87367  1.0000
  Li  Li3       1.0  0.00000  0.25000  0.95789  1.0000
  Li  Li4       1.0  0.50000  0.50000  0.87367  1.0000
  Li  Li5       1.0  0.25000  0.00000  0.95789  1.0000
  Li  Li6       1.0  0.25000  0.50000  0.95789  1.0000
  Li  Li7       1.0  0.75000  0.75000  0.87367  1.0000
  Li  Li8       1.0  0.75000  0.25000  0.87367  1.0000
  Li  Li9       1.0  0.98458  0.25000  0.13349  1.0000
  Li  Li10      1.0  0.50576  0.50515  0.04133  1.0000
  Li  Li11      1.0  0.96138  0.75000  0.14001  1.0000
  Li  Li12      1.0  0.50575  0.99486  0.04133  1.0000
  Li  Li13      1.0  0.26147  0.50645  0.12158  1.0000
  Li  Li14      1.0  0.26148  0.99355  0.12158  1.0000
  Li  Li15      1.0  0.74430  0.25000  0.04560  1.0000
  Li  Li16      1.0  0.77344  0.75000  0.04108  1.0000
  Cu  Cu1       1.0  0.00000  0.00000  0.87367  1.0000
  Cu  Cu2       1.0  0.50000  0.25000  0.95789  1.0000
  Cu  Cu3       1.0  0.50000  0.75000  0.95789  1.0000
  Cu  Cu4       1.0  0.00000  0.50000  0.87367  1.0000
  Cu  Cu5       1.0  0.99270  0.49434  0.04261  1.0000
  Cu  Cu6       1.0  0.53487  0.75001  0.11545  1.0000
  Cu  Cu7       1.0  0.49857  0.24999  0.12836  1.0000
  Cu  Cu8       1.0  0.99271  0.00567  0.04261  1.0000
  Sb  Sb1       1.0  0.25000  0.25000  0.87367  1.0000
  Sb  Sb2       1.0  0.25000  0.75000  0.87367  1.0000
  Sb  Sb3       1.0  0.75000  0.50000  0.95789  1.0000
  Sb  Sb4       1.0  0.75000  0.00000  0.95789  1.0000
  Sb  Sb5       1.0  0.23544  0.75000  0.04687  1.0000
  Sb  Sb6       1.0  0.24830  0.25000  0.04467  1.0000
  Sb  Sb7       1.0  0.74574  0.00116  0.12781  1.0000
  Sb  Sb8       1.0  0.74574  0.49884  0.12781  1.0000
  C   C1        1.0  0.39029  0.25000  0.19365  1.0000
  O   O1        1.0  0.36936  0.25000  0.23656  1.0000
