# generated using pymatgen
data_Li16Cu8Sb8CO
_symmetry_space_group_name_H-M   'P 1'
_cell_length_a   9.01500000
_cell_length_b   6.37457000
_cell_length_c   26.76130000
_cell_angle_alpha   90.00000000
_cell_angle_beta   90.00000000
_cell_angle_gamma   90.00000000
_symmetry_Int_Tables_number   1
_chemical_formula_structural   Li16Cu8Sb8CO
_chemical_formula_sum   'Li16 Cu8 Sb8 C1 O1'
_cell_volume   1537.88489797
_cell_formula_units_Z   1
loop_
 _symmetry_equiv_pos_site_id
 _symmetry_equiv_pos_as_xyz
  1  'x, y, z'
loop_
 _atom_site_type_symbol
 _atom_site_label
 _atom_site_symmetry_multiplicity
 _atom_site_fract_x
 _atom_site_fract_y
 _atom_site_fract_z
 _atom_site_occupancy
  Li  Li0  1  0.50000000  1.00000000  0.04211000  1.0
  Li  Li1  1  0.75000000  0.50000000  0.12633000  1.0
  Li  Li2  1  0.00000000  1.00000000  0.04211000  1.0
  Li  Li3  1  0.25000000  0.50000000  0.12633000  1.0
  Li  Li4  1  0.75000000  0.25000000  0.04211000  1.0
  Li  Li5  1  0.25000000  0.25000000  0.04211000  1.0
  Li  Li6  1  0.50000000  0.75000000  0.12633000  1.0
  Li  Li7  1  0.00000000  0.75000000  0.12633000  1.0
  Li  Li8  1  0.00000000  0.98456000  0.86655000  1.0
  Li  Li9  1  0.25523000  0.50540000  0.95870000  1.0
  Li  Li10  1  0.50000000  0.96158000  0.85995000  1.0
  Li  Li11  1  0.74477000  0.50540000  0.95870000  1.0
  Li  Li12  1  0.25668000  0.26164000  0.87839000  1.0
  Li  Li13  1  0.74332000  0.26164000  0.87839000  1.0
  Li  Li14  1  0.00000000  0.74440000  0.95440000  1.0
  Li  Li15  1  0.50000000  0.77379000  0.95898000  1.0
  Cu  Cu16  1  0.75000000  0.00000000  0.12633000  1.0
  Cu  Cu17  1  0.00000000  0.50000000  0.04211000  1.0
  Cu  Cu18  1  0.50000000  0.50000000  0.04211000  1.0
  Cu  Cu19  1  0.25000000  0.00000000  0.12633000  1.0
  Cu  Cu20  1  0.24439000  0.99254000  0.95737000  1.0
  Cu  Cu21  1  0.50000000  0.53441000  0.88454000  1.0
  Cu  Cu22  1  0.00000000  0.49831000  0.87153000  1.0
  Cu  Cu23  1  0.75561000  0.99254000  0.95737000  1.0
  Sb  Sb24  1  0.00000000  0.25000000  0.12633000  1.0
  Sb  Sb25  1  0.50000000  0.25000000  0.12633000  1.0
  Sb  Sb26  1  0.25000000  0.75000000  0.04211000  1.0
  Sb  Sb27  1  0.75000000  0.75000000  0.04211000  1.0
  Sb  Sb28  1  0.50000000  0.23530000  0.95312000  1.0
  Sb  Sb29  1  0.00000000  0.24853000  0.95535000  1.0
  Sb  Sb30  1  0.75111000  0.74579000  0.87209000  1.0
  Sb  Sb31  1  0.24889000  0.74579000  0.87209000  1.0
  C  C32  1  0.00000000  0.39021000  0.80644000  1.0
  O  O33  1  0.00000000  0.36933000  0.76354000  1.0
