# generated using pymatgen
data_Hf8In8Cu16C
_symmetry_space_group_name_H-M   Pmm2
_cell_length_a   6.35005000
_cell_length_b   8.98033000
_cell_length_c   26.73520000
_cell_angle_alpha   90.00000000
_cell_angle_beta   90.00000000
_cell_angle_gamma   90.00000000
_symmetry_Int_Tables_number   25
_chemical_formula_structural   Hf8In8Cu16C
_chemical_formula_sum   'Hf8 In8 Cu16 C1'
_cell_volume   1524.58933776
_cell_formula_units_Z   1
loop_
 _symmetry_equiv_pos_site_id
 _symmetry_equiv_pos_as_xyz
  1  'x, y, z'
  2  '-x, -y, z'
  3  '-x, y, z'
  4  'x, -y, z'
loop_
 _atom_site_type_symbol
 _atom_site_label
 _atom_site_symmetry_multiplicity
 _atom_site_fract_x
 _atom_site_fract_y
 _atom_site_fract_z
 _atom_site_occupancy
  Hf  Hf0  2  0.50000000  0.24047000  0.12280000  1.0
  Hf  Hf1  2  0.50000000  0.25000000  0.95801000  1.0
  Hf  Hf2  1  0.00000000  0.00000000  0.05772000  1.0
  Hf  Hf3  1  0.00000000  0.00000000  0.87404000  1.0
  Hf  Hf4  1  0.00000000  0.50000000  0.04852000  1.0
  Hf  Hf5  1  0.00000000  0.50000000  0.87404000  1.0
  In  In6  2  0.00000000  0.25000000  0.95801000  1.0
  In  In7  2  0.00000000  0.26802000  0.14403000  1.0
  In  In8  1  0.50000000  0.00000000  0.04270000  1.0
  In  In9  1  0.50000000  0.00000000  0.87404000  1.0
  In  In10  1  0.50000000  0.50000000  0.04276000  1.0
  In  In11  1  0.50000000  0.50000000  0.87404000  1.0
  Cu  Cu12  4  0.23730000  0.25231000  0.04288000  1.0
  Cu  Cu13  4  0.25000000  0.25000000  0.87404000  1.0
  Cu  Cu14  2  0.25000000  0.00000000  0.95801000  1.0
  Cu  Cu15  2  0.25000000  0.50000000  0.95801000  1.0
  Cu  Cu16  2  0.29126000  0.50000000  0.13657000  1.0
  Cu  Cu17  2  0.29322000  0.00000000  0.15844000  1.0
  C  C18  1  0.00000000  0.00000000  0.13680000  1.0
