# generated using pymatgen
data_V16Ru16C
_symmetry_space_group_name_H-M   Pm
_cell_length_a   8.53670000
_cell_length_b   6.03636000
_cell_length_c   26.40250000
_cell_angle_alpha   90.00000000
_cell_angle_beta   90.00000000
_cell_angle_gamma   90.00000000
_symmetry_Int_Tables_number   6
_chemical_formula_structural   V16Ru16C
_chemical_formula_sum   'V16 Ru16 C1'
_cell_volume   1360.53651896
_cell_formula_units_Z   1
loop_
 _symmetry_equiv_pos_site_id
 _symmetry_equiv_pos_as_xyz
  1  'x, y, z'
  2  'x, -y, z'
loop_
 _atom_site_type_symbol
 _atom_site_label
 _atom_site_symmetry_multiplicity
 _atom_site_fract_x
 _atom_site_fract_y
 _atom_site_fract_z
 _atom_site_occupancy
  V  V0  2  0.00000000  0.25002000  0.95958000  1.0
  V  V1  2  0.00003000  0.20108000  0.12449000  1.0
  V  V2  2  0.25000000  0.25002000  0.87875000  1.0
  V  V3  2  0.25057000  0.25079000  0.04270000  1.0
  V  V4  2  0.49998000  0.25309000  0.12550000  1.0
  V  V5  2  0.50000000  0.25002000  0.95958000  1.0
  V  V6  2  0.74950000  0.25076000  0.04272000  1.0
  V  V7  2  0.75000000  0.25002000  0.87875000  1.0
  Ru  Ru8  1  0.00000000  0.00000000  0.87875000  1.0
  Ru  Ru9  1  0.00000000  0.50000000  0.87875000  1.0
  Ru  Ru10  1  0.00006000  0.50000000  0.03938000  1.0
  Ru  Ru11  1  0.00007000  0.00000000  0.03846000  1.0
  Ru  Ru12  1  0.24206000  0.50000000  0.11723000  1.0
  Ru  Ru13  1  0.25000000  0.00000000  0.95958000  1.0
  Ru  Ru14  1  0.25000000  0.50000000  0.95958000  1.0
  Ru  Ru15  1  0.26435000  0.00000000  0.11649000  1.0
  Ru  Ru16  1  0.50000000  0.00000000  0.87875000  1.0
  Ru  Ru17  1  0.50000000  0.50000000  0.87875000  1.0
  Ru  Ru18  1  0.50001000  0.00000000  0.04045000  1.0
  Ru  Ru19  1  0.50001000  0.50000000  0.04533000  1.0
  Ru  Ru20  1  0.73565000  0.00000000  0.11653000  1.0
  Ru  Ru21  1  0.75000000  0.00000000  0.95958000  1.0
  Ru  Ru22  1  0.75000000  0.50000000  0.95958000  1.0
  Ru  Ru23  1  0.75800000  0.50000000  0.11726000  1.0
  C  C24  1  0.00006000  0.50000000  0.14540000  1.0
