data_image0
_chemical_formula_structural       FeNiFeNiFeNiFeNiFeNiFeNiFeNiFeNiCO
_chemical_formula_sum              "Fe8 Ni8 C1 O1"
_cell_length_a       5.07706
_cell_length_b       5.07706
_cell_length_c       25.3928
_cell_angle_alpha    90
_cell_angle_beta     90
_cell_angle_gamma    90

_space_group_name_H-M_alt    "P 1"
_space_group_IT_number       1

loop_
  _space_group_symop_operation_xyz
  'x, y, z'

loop_
  _atom_site_type_symbol
  _atom_site_label
  _atom_site_symmetry_multiplicity
  _atom_site_fract_x
  _atom_site_fract_y
  _atom_site_fract_z
  _atom_site_occupancy
  Fe  Fe1       1.0  0.00000  0.00000  0.89293  1.0000
  Ni  Ni1       1.0  0.25000  0.25000  0.96372  1.0000
  Fe  Fe2       1.0  0.00000  0.00000  0.03452  1.0000
  Ni  Ni2       1.0  0.25000  0.25000  0.10531  1.0000
  Fe  Fe3       1.0  0.00000  0.50000  0.89293  1.0000
  Ni  Ni3       1.0  0.25000  0.75000  0.96372  1.0000
  Fe  Fe4       1.0  0.00000  0.50000  0.03452  1.0000
  Ni  Ni4       1.0  0.25000  0.75000  0.10531  1.0000
  Fe  Fe5       1.0  0.50000  0.00000  0.89293  1.0000
  Ni  Ni5       1.0  0.75000  0.25000  0.96372  1.0000
  Fe  Fe6       1.0  0.50000  0.00000  0.03452  1.0000
  Ni  Ni6       1.0  0.75000  0.25000  0.10531  1.0000
  Fe  Fe7       1.0  0.50000  0.50000  0.89293  1.0000
  Ni  Ni7       1.0  0.75000  0.75000  0.96372  1.0000
  Fe  Fe8       1.0  0.50000  0.50000  0.03452  1.0000
  Ni  Ni8       1.0  0.75000  0.75000  0.10531  1.0000
  C   C1        1.0  0.25000  0.25000  0.18013  1.0000
  O   O1        1.0  0.25000  0.25000  0.22542  1.0000
