# generated using pymatgen
data_LiScAlIn
_symmetry_space_group_name_H-M   'P 1'
_cell_length_a   6.04255000
_cell_length_b   8.49254000
_cell_length_c   24.52830000
_cell_angle_alpha   90.00000000
_cell_angle_beta   90.00000000
_cell_angle_gamma   90.00000000
_symmetry_Int_Tables_number   1
_chemical_formula_structural   LiScAlIn
_chemical_formula_sum   'Li4 Sc4 Al4 In4'
_cell_volume   1258.70890035
_cell_formula_units_Z   4
loop_
 _symmetry_equiv_pos_site_id
 _symmetry_equiv_pos_as_xyz
  1  'x, y, z'
loop_
 _atom_site_type_symbol
 _atom_site_label
 _atom_site_symmetry_multiplicity
 _atom_site_fract_x
 _atom_site_fract_y
 _atom_site_fract_z
 _atom_site_occupancy
  Li  Li0  1  0.75521000  0.25002000  0.03878000  1.0
  Li  Li1  1  0.22019000  0.25000000  0.90769000  1.0
  Li  Li2  1  0.75520000  0.75000000  0.03880000  1.0
  Li  Li3  1  0.22019000  0.75000000  0.90769000  1.0
  Sc  Sc4  1  0.24942000  0.24996000  0.03101000  1.0
  Sc  Sc5  1  0.72019000  0.25000000  0.90769000  1.0
  Sc  Sc6  1  0.24951000  0.74997000  0.03101000  1.0
  Sc  Sc7  1  0.72019000  0.75000000  0.90769000  1.0
  Al  Al8  1  0.00059000  0.99993000  0.08797000  1.0
  Al  Al9  1  0.48013000  0.00000000  0.96923000  1.0
  Al  Al10  1  0.00058000  0.50006000  0.08797000  1.0
  Al  Al11  1  0.48013000  0.50000000  0.96923000  1.0
  In  In12  1  0.51534000  0.00019000  0.09373000  1.0
  In  In13  1  0.98013000  0.00000000  0.96923000  1.0
  In  In14  1  0.51528000  0.49985000  0.09374000  1.0
  In  In15  1  0.98013000  0.50000000  0.96923000  1.0
