# generated using pymatgen
data_Li8Ni16Sn8C
_symmetry_space_group_name_H-M   Pm
_cell_length_a   8.55507000
_cell_length_b   6.04935000
_cell_length_c   26.41630000
_cell_angle_alpha   90.00000000
_cell_angle_beta   90.00000000
_cell_angle_gamma   90.00000000
_symmetry_Int_Tables_number   6
_chemical_formula_structural   Li8Ni16Sn8C
_chemical_formula_sum   'Li8 Ni16 Sn8 C1'
_cell_volume   1367.11254299
_cell_formula_units_Z   1
loop_
 _symmetry_equiv_pos_site_id
 _symmetry_equiv_pos_as_xyz
  1  'x, y, z'
  2  'x, -y, z'
loop_
 _atom_site_type_symbol
 _atom_site_label
 _atom_site_symmetry_multiplicity
 _atom_site_fract_x
 _atom_site_fract_y
 _atom_site_fract_z
 _atom_site_occupancy
  Li  Li0  1  0.00000000  0.00000000  0.03816000  1.0
  Li  Li1  1  0.00000000  0.00000000  0.87855000  1.0
  Li  Li2  1  0.25000000  0.50000000  0.95952000  1.0
  Li  Li3  1  0.25443000  0.50000000  0.13194000  1.0
  Li  Li4  1  0.49997000  0.00000000  0.03542000  1.0
  Li  Li5  1  0.50000000  0.00000000  0.87855000  1.0
  Li  Li6  1  0.74560000  0.50000000  0.13194000  1.0
  Li  Li7  1  0.75000000  0.50000000  0.95952000  1.0
  Ni  Ni8  2  0.00000000  0.25000000  0.95952000  1.0
  Ni  Ni9  2  0.00016000  0.21796000  0.11963000  1.0
  Ni  Ni10  2  0.24907000  0.24231000  0.04350000  1.0
  Ni  Ni11  2  0.25000000  0.25000000  0.87855000  1.0
  Ni  Ni12  2  0.50000000  0.22052000  0.11171000  1.0
  Ni  Ni13  2  0.50000000  0.25000000  0.95952000  1.0
  Ni  Ni14  2  0.75000000  0.25000000  0.87855000  1.0
  Ni  Ni15  2  0.75092000  0.24232000  0.04349000  1.0
  Sn  Sn16  1  0.00000000  0.50000000  0.87855000  1.0
  Sn  Sn17  1  0.00001000  0.50000000  0.03922000  1.0
  Sn  Sn18  1  0.25000000  0.00000000  0.95952000  1.0
  Sn  Sn19  1  0.25406000  0.00000000  0.12920000  1.0
  Sn  Sn20  1  0.50000000  0.50000000  0.87855000  1.0
  Sn  Sn21  1  0.50001000  0.50000000  0.04018000  1.0
  Sn  Sn22  1  0.74603000  0.00000000  0.12920000  1.0
  Sn  Sn23  1  0.75000000  0.00000000  0.95952000  1.0
  C  C24  1  0.00002000  0.50000000  0.13316000  1.0
