# generated using pymatgen
data_ScInGePd
_symmetry_space_group_name_H-M   'P 1'
_cell_length_a   6.05174000
_cell_length_b   4.19030000
_cell_length_c   24.46740000
_cell_angle_alpha   90.00000000
_cell_angle_beta   90.00000000
_cell_angle_gamma   90.00000000
_symmetry_Int_Tables_number   1
_chemical_formula_structural   ScInGePd
_chemical_formula_sum   'Sc2 In2 Ge2 Pd2'
_cell_volume   620.45915943
_cell_formula_units_Z   2
loop_
 _symmetry_equiv_pos_site_id
 _symmetry_equiv_pos_as_xyz
  1  'x, y, z'
loop_
 _atom_site_type_symbol
 _atom_site_label
 _atom_site_symmetry_multiplicity
 _atom_site_fract_x
 _atom_site_fract_y
 _atom_site_fract_z
 _atom_site_occupancy
  Sc  Sc0  1  0.79416000  0.50000000  0.03043000  1.0
  Sc  Sc1  1  0.38249000  0.50000000  0.90871000  1.0
  In  In2  1  0.50000000  0.00000000  0.09129000  1.0
  In  In3  1  0.08833000  0.00000000  0.96957000  1.0
  Ge  Ge4  1  1.00000000  0.00000000  0.09129000  1.0
  Ge  Ge5  1  0.58833000  0.00000000  0.96957000  1.0
  Pd  Pd6  1  0.29416000  0.50000000  0.03043000  1.0
  Pd  Pd7  1  0.88249000  0.50000000  0.90871000  1.0
