# generated using pymatgen
data_Li8Y8Sn8Pd8C
_symmetry_space_group_name_H-M   'P 1'
_cell_length_a   9.58434000
_cell_length_b   6.77715000
_cell_length_c   27.18830000
_cell_angle_alpha   90.00000000
_cell_angle_beta   90.00000000
_cell_angle_gamma   90.00000000
_symmetry_Int_Tables_number   1
_chemical_formula_structural   Li8Y8Sn8Pd8C
_chemical_formula_sum   'Li8 Y8 Sn8 Pd8 C1'
_cell_volume   1766.00269964
_cell_formula_units_Z   1
loop_
 _symmetry_equiv_pos_site_id
 _symmetry_equiv_pos_as_xyz
  1  'x, y, z'
loop_
 _atom_site_type_symbol
 _atom_site_label
 _atom_site_symmetry_multiplicity
 _atom_site_fract_x
 _atom_site_fract_y
 _atom_site_fract_z
 _atom_site_occupancy
  Li  Li0  1  0.00000000  0.00000000  0.13219000  1.0
  Li  Li1  1  0.50000000  0.00000000  0.13219000  1.0
  Li  Li2  1  0.75000000  0.50000000  0.04406000  1.0
  Li  Li3  1  0.25000000  0.50000000  0.04406000  1.0
  Li  Li4  1  0.50000000  0.00444000  0.95773000  1.0
  Li  Li5  1  0.00000000  0.00683000  0.93346000  1.0
  Li  Li6  1  0.28327000  0.67327000  0.81344000  1.0
  Li  Li7  1  0.71673000  0.67327000  0.81344000  1.0
  Y  Y8  1  0.00000000  0.25000000  0.04406000  1.0
  Y  Y9  1  0.50000000  0.25000000  0.04406000  1.0
  Y  Y10  1  0.25000000  0.75000000  0.13219000  1.0
  Y  Y11  1  0.75000000  0.75000000  0.13219000  1.0
  Y  Y12  1  0.50000000  0.27930000  0.86984000  1.0
  Y  Y13  1  0.00000000  0.36234000  0.86999000  1.0
  Y  Y14  1  0.75210000  0.74577000  0.95217000  1.0
  Y  Y15  1  0.24790000  0.74577000  0.95217000  1.0
  Sn  Sn16  1  0.00000000  0.75000000  0.04406000  1.0
  Sn  Sn17  1  0.50000000  0.75000000  0.04406000  1.0
  Sn  Sn18  1  0.25000000  0.25000000  0.13219000  1.0
  Sn  Sn19  1  0.75000000  0.25000000  0.13219000  1.0
  Sn  Sn20  1  0.50000000  0.78341000  0.86960000  1.0
  Sn  Sn21  1  0.00000000  0.76444000  0.82636000  1.0
  Sn  Sn22  1  0.75105000  0.25683000  0.95554000  1.0
  Sn  Sn23  1  0.24895000  0.25683000  0.95554000  1.0
  Pd  Pd24  1  0.25000000  1.00000000  0.04406000  1.0
  Pd  Pd25  1  0.75000000  1.00000000  0.04406000  1.0
  Pd  Pd26  1  0.50000000  0.50000000  0.13219000  1.0
  Pd  Pd27  1  0.00000000  0.50000000  0.13219000  1.0
  Pd  Pd28  1  0.76960000  0.01203000  0.87063000  1.0
  Pd  Pd29  1  0.23040000  0.01203000  0.87063000  1.0
  Pd  Pd30  1  0.00000000  0.50588000  0.96379000  1.0
  Pd  Pd31  1  0.50000000  0.50242000  0.95710000  1.0
  C  C32  1  0.00000000  0.05122000  0.85203000  1.0
