# generated using pymatgen
data_Li8Y8Sn8Pd8C
_symmetry_space_group_name_H-M   Pm
_cell_length_a   6.77715000
_cell_length_b   9.58434000
_cell_length_c   27.18830000
_cell_angle_alpha   90.00000000
_cell_angle_beta   90.00000000
_cell_angle_gamma   90.00000000
_symmetry_Int_Tables_number   6
_chemical_formula_structural   Li8Y8Sn8Pd8C
_chemical_formula_sum   'Li8 Y8 Sn8 Pd8 C1'
_cell_volume   1766.00269964
_cell_formula_units_Z   1
loop_
 _symmetry_equiv_pos_site_id
 _symmetry_equiv_pos_as_xyz
  1  'x, y, z'
  2  'x, -y, z'
loop_
 _atom_site_type_symbol
 _atom_site_label
 _atom_site_symmetry_multiplicity
 _atom_site_fract_x
 _atom_site_fract_y
 _atom_site_fract_z
 _atom_site_occupancy
  Li  Li0  2  0.50000000  0.25000000  0.95594000  1.0
  Li  Li1  2  0.67327000  0.28327000  0.18656000  1.0
  Li  Li2  1  0.00000000  0.00000000  0.86781000  1.0
  Li  Li3  1  0.00000000  0.50000000  0.86781000  1.0
  Li  Li4  1  0.00444000  0.50000000  0.04227000  1.0
  Li  Li5  1  0.00683000  0.00000000  0.06654000  1.0
  Y  Y6  2  0.74577000  0.24790000  0.04783000  1.0
  Y  Y7  2  0.75000000  0.25000000  0.86781000  1.0
  Y  Y8  1  0.25000000  0.00000000  0.95594000  1.0
  Y  Y9  1  0.25000000  0.50000000  0.95594000  1.0
  Y  Y10  1  0.27930000  0.50000000  0.13016000  1.0
  Y  Y11  1  0.36234000  0.00000000  0.13001000  1.0
  Sn  Sn12  2  0.25000000  0.25000000  0.86781000  1.0
  Sn  Sn13  2  0.25683000  0.24895000  0.04446000  1.0
  Sn  Sn14  1  0.75000000  0.00000000  0.95594000  1.0
  Sn  Sn15  1  0.75000000  0.50000000  0.95594000  1.0
  Sn  Sn16  1  0.76444000  0.00000000  0.17364000  1.0
  Sn  Sn17  1  0.78341000  0.50000000  0.13040000  1.0
  Pd  Pd18  2  -0.00000000  0.25000000  0.95594000  1.0
  Pd  Pd19  2  0.01203000  0.23040000  0.12937000  1.0
  Pd  Pd20  1  0.50000000  0.00000000  0.86781000  1.0
  Pd  Pd21  1  0.50000000  0.50000000  0.86781000  1.0
  Pd  Pd22  1  0.50242000  0.50000000  0.04290000  1.0
  Pd  Pd23  1  0.50588000  0.00000000  0.03621000  1.0
  C  C24  1  0.05122000  0.00000000  0.14797000  1.0
