# generated using pymatgen
data_In16Pd16C
_symmetry_space_group_name_H-M   'P 1'
_cell_length_a   6.68646000
_cell_length_b   9.45609000
_cell_length_c   27.09210000
_cell_angle_alpha   90.00000000
_cell_angle_beta   90.00000000
_cell_angle_gamma   90.00000000
_symmetry_Int_Tables_number   1
_chemical_formula_structural   In16Pd16C
_chemical_formula_sum   'In16 Pd16 C1'
_cell_volume   1712.97300101
_cell_formula_units_Z   1
loop_
 _symmetry_equiv_pos_site_id
 _symmetry_equiv_pos_as_xyz
  1  'x, y, z'
loop_
 _atom_site_type_symbol
 _atom_site_label
 _atom_site_symmetry_multiplicity
 _atom_site_fract_x
 _atom_site_fract_y
 _atom_site_fract_z
 _atom_site_occupancy
  In  In0  1  0.00000000  0.00000000  0.86911000  1.0
  In  In1  1  0.00000000  0.25000000  0.95637000  1.0
  In  In2  1  0.00000000  0.00000000  0.04603000  1.0
  In  In3  1  0.00000000  0.25368000  0.14225000  1.0
  In  In4  1  0.00000000  0.50000000  0.86911000  1.0
  In  In5  1  0.00000000  0.75000000  0.95637000  1.0
  In  In6  1  0.00000000  0.50000000  0.04257000  1.0
  In  In7  1  0.00000000  0.74632000  0.14225000  1.0
  In  In8  1  0.50000000  0.00000000  0.86911000  1.0
  In  In9  1  0.50000000  0.25000000  0.95637000  1.0
  In  In10  1  0.50000000  0.00000000  0.04063000  1.0
  In  In11  1  0.50000000  0.26011000  0.13871000  1.0
  In  In12  1  0.50000000  0.50000000  0.86911000  1.0
  In  In13  1  0.50000000  0.75000000  0.95637000  1.0
  In  In14  1  0.50000000  0.50000000  0.04348000  1.0
  In  In15  1  0.50000000  0.73989000  0.13871000  1.0
  Pd  Pd16  1  0.25000000  0.25000000  0.86911000  1.0
  Pd  Pd17  1  0.25000000  0.00000000  0.95637000  1.0
  Pd  Pd18  1  0.24620000  0.25230000  0.04479000  1.0
  Pd  Pd19  1  0.29086000  0.00000000  0.12790000  1.0
  Pd  Pd20  1  0.25000000  0.75000000  0.86911000  1.0
  Pd  Pd21  1  0.25000000  0.50000000  0.95637000  1.0
  Pd  Pd22  1  0.24620000  0.74770000  0.04479000  1.0
  Pd  Pd23  1  0.24478000  0.50000000  0.12632000  1.0
  Pd  Pd24  1  0.75000000  0.25000000  0.86911000  1.0
  Pd  Pd25  1  0.75000000  0.00000000  0.95637000  1.0
  Pd  Pd26  1  0.75380000  0.25230000  0.04479000  1.0
  Pd  Pd27  1  0.70914000  0.00000000  0.12790000  1.0
  Pd  Pd28  1  0.75000000  0.75000000  0.86911000  1.0
  Pd  Pd29  1  0.75000000  0.50000000  0.95637000  1.0
  Pd  Pd30  1  0.75380000  0.74770000  0.04479000  1.0
  Pd  Pd31  1  0.75522000  0.50000000  0.12632000  1.0
  C  C32  1  0.00000000  0.00000000  0.14298000  1.0
