# generated using pymatgen
data_Al16Ru16CO
_symmetry_space_group_name_H-M   Pm
_cell_length_a   6.00621000
_cell_length_b   8.49407000
_cell_length_c   26.37050000
_cell_angle_alpha   90.00000000
_cell_angle_beta   90.00000000
_cell_angle_gamma   90.00000000
_symmetry_Int_Tables_number   6
_chemical_formula_structural   Al16Ru16CO
_chemical_formula_sum   'Al16 Ru16 C1 O1'
_cell_volume   1345.34823335
_cell_formula_units_Z   1
loop_
 _symmetry_equiv_pos_site_id
 _symmetry_equiv_pos_as_xyz
  1  'x, y, z'
  2  'x, -y, z'
loop_
 _atom_site_type_symbol
 _atom_site_label
 _atom_site_symmetry_multiplicity
 _atom_site_fract_x
 _atom_site_fract_y
 _atom_site_fract_z
 _atom_site_occupancy
  Al  Al0  2  0.00000000  0.25000000  0.95974000  1.0
  Al  Al1  2  0.00005000  0.24874000  0.12022000  1.0
  Al  Al2  2  0.49996000  0.24865000  0.12022000  1.0
  Al  Al3  2  0.50000000  0.25000000  0.95974000  1.0
  Al  Al4  1  0.00000000  0.00000000  0.87921000  1.0
  Al  Al5  1  0.00000000  0.50000000  0.87921000  1.0
  Al  Al6  1  0.00152000  0.00000000  0.04014000  1.0
  Al  Al7  1  0.49848000  0.00000000  0.04015000  1.0
  Al  Al8  1  0.50000000  0.00000000  0.87921000  1.0
  Al  Al9  1  0.50000000  0.50000000  0.87921000  1.0
  Al  Al10  1  0.50292000  0.50000000  0.03970000  1.0
  Al  Al11  1  0.99712000  0.50000000  0.03970000  1.0
  Ru  Ru12  2  0.25000000  0.25000000  0.87921000  1.0
  Ru  Ru13  2  0.25001000  0.25079000  0.03990000  1.0
  Ru  Ru14  2  0.75000000  0.25000000  0.87921000  1.0
  Ru  Ru15  2  0.75002000  0.24853000  0.03942000  1.0
  Ru  Ru16  1  0.24982000  0.00000000  0.12643000  1.0
  Ru  Ru17  1  0.25000000  0.00000000  0.95974000  1.0
  Ru  Ru18  1  0.25000000  0.50000000  0.95974000  1.0
  Ru  Ru19  1  0.25005000  0.50000000  0.11884000  1.0
  Ru  Ru20  1  0.74998000  0.50000000  0.12041000  1.0
  Ru  Ru21  1  0.75000000  0.00000000  0.11913000  1.0
  Ru  Ru22  1  0.75000000  0.00000000  0.95974000  1.0
  Ru  Ru23  1  0.75000000  0.50000000  0.95974000  1.0
  C  C24  1  0.24925000  0.00000000  0.19784000  1.0
  O  O25  1  0.24916000  0.00000000  0.24190000  1.0
