# generated using pymatgen
data_Li4Cu4Sn4Ge4CO
_symmetry_space_group_name_H-M   'P 1'
_cell_length_a   6.57410000
_cell_length_b   6.57410000
_cell_length_c   24.93060000
_cell_angle_alpha   90.00000000
_cell_angle_beta   90.00000000
_cell_angle_gamma   90.00000000
_symmetry_Int_Tables_number   1
_chemical_formula_structural   Li4Cu4Sn4Ge4CO
_chemical_formula_sum   'Li4 Cu4 Sn4 Ge4 C1 O1'
_cell_volume   1077.47038617
_cell_formula_units_Z   1
loop_
 _symmetry_equiv_pos_site_id
 _symmetry_equiv_pos_as_xyz
  1  'x, y, z'
loop_
 _atom_site_type_symbol
 _atom_site_label
 _atom_site_symmetry_multiplicity
 _atom_site_fract_x
 _atom_site_fract_y
 _atom_site_fract_z
 _atom_site_occupancy
  Li  Li0  1  0.99991000  0.50007000  0.90168000  1
  Li  Li1  1  0.00002000  0.00002000  0.03296000  1
  Li  Li2  1  0.50002000  0.50002000  0.03296000  1
  Li  Li3  1  0.50007000  0.99991000  0.90168000  1
  Cu  Cu4  1  0.99999500  0.99999500  0.91609000  1
  Cu  Cu5  1  1.00000000  0.50004000  0.03296000  1
  Cu  Cu6  1  0.50004000  1.00000000  0.03296000  1
  Cu  Cu7  1  0.50007000  0.50007000  0.92235000  1
  Sn  Sn8  1  0.75101000  0.75101000  0.97027000  1
  Sn  Sn9  1  0.75000000  0.25004000  0.09889000  1
  Sn  Sn10  1  0.25004000  0.75000000  0.09889000  1
  Sn  Sn11  1  0.24905000  0.24905000  0.97020000  1
  Ge  Ge12  1  0.25253000  0.74753000  0.96750000  1
  Ge  Ge13  1  0.25002000  0.25002000  0.09889000  1
  Ge  Ge14  1  0.75002000  0.75002000  0.09889000  1
  Ge  Ge15  1  0.74753000  0.25253000  0.96750000  1
  C  C16  1  0.99974000  0.99974000  0.84189000  1
  O  O17  1  0.99973500  0.99973500  0.79548000  1
