# generated using pymatgen
data_Li8Al8Ga8Pd8C
_symmetry_space_group_name_H-M   P1
_cell_length_a   6.14517000
_cell_length_b   8.69058000
_cell_length_c   26.51790000
_cell_angle_alpha   90.00000000
_cell_angle_beta   90.00000000
_cell_angle_gamma   90.00000000
_symmetry_Int_Tables_number   1
_chemical_formula_structural   Li8Al8Ga8Pd8C
_chemical_formula_sum   'Li8 Al8 Ga8 Pd8 C1'
_cell_volume   1416.19087585
_cell_formula_units_Z   1
loop_
 _symmetry_equiv_pos_site_id
 _symmetry_equiv_pos_as_xyz
  1  'x, y, z'
loop_
 _atom_site_type_symbol
 _atom_site_label
 _atom_site_symmetry_multiplicity
 _atom_site_fract_x
 _atom_site_fract_y
 _atom_site_fract_z
 _atom_site_occupancy
  Li  Li0  1  0.23349000  0.25000000  0.05219000  1.0
  Li  Li1  1  0.24186000  0.75001000  0.03988000  1.0
  Li  Li2  1  0.25000000  0.25000000  0.87710000  1.0
  Li  Li3  1  0.25000000  0.75000000  0.87710000  1.0
  Li  Li4  1  0.75000000  0.00000000  0.95903000  1.0
  Li  Li5  1  0.75000000  0.50000000  0.95903000  1.0
  Li  Li6  1  0.75831000  0.53279000  0.15957000  1.0
  Li  Li7  1  0.75841000  0.96716000  0.15951000  1.0
  Al  Al8  1  0.00000000  0.00000000  0.87710000  1.0
  Al  Al9  1  0.00000000  0.50000000  0.87710000  1.0
  Al  Al10  1  0.48627000  0.74998000  0.12123000  1.0
  Al  Al11  1  0.50000000  0.25000000  0.95903000  1.0
  Al  Al12  1  0.50000000  0.75000000  0.95903000  1.0
  Al  Al13  1  0.56476000  0.24999000  0.12089000  1.0
  Al  Al14  1  0.97705000  0.50612000  0.04863000  1.0
  Al  Al15  1  0.97706000  0.99388000  0.04863000  1.0
  Ga  Ga16  1  0.00000000  0.25000000  0.95903000  1.0
  Ga  Ga17  1  0.00000000  0.75000000  0.95903000  1.0
  Ga  Ga18  1  0.02796000  0.74997000  0.13159000  1.0
  Ga  Ga19  1  0.50000000  0.00000000  0.87710000  1.0
  Ga  Ga20  1  0.50000000  0.50000000  0.87710000  1.0
  Ga  Ga21  1  0.50708000  0.49995000  0.04423000  1.0
  Ga  Ga22  1  0.50711000  0.00005000  0.04424000  1.0
  Ga  Ga23  1  0.96350000  0.24995000  0.15155000  1.0
  Pd  Pd24  1  0.25000000  0.00000000  0.95903000  1.0
  Pd  Pd25  1  0.25000000  0.50000000  0.95903000  1.0
  Pd  Pd26  1  0.25022000  0.00846000  0.12076000  1.0
  Pd  Pd27  1  0.25023000  0.49152000  0.12076000  1.0
  Pd  Pd28  1  0.74439000  0.75000000  0.03784000  1.0
  Pd  Pd29  1  0.75000000  0.25000000  0.87710000  1.0
  Pd  Pd30  1  0.75000000  0.75000000  0.87710000  1.0
  Pd  Pd31  1  0.75264000  0.25000000  0.03638000  1.0
  C  C32  1  0.27323000  0.25000000  0.14510000  1.0
