# generated using pymatgen
data_LiCuAgSn
_symmetry_space_group_name_H-M   Pm
_cell_length_a   6.43603000
_cell_length_b   4.55096000
_cell_length_c   26.82640000
_cell_angle_alpha   90.00000000
_cell_angle_beta   90.00000000
_cell_angle_gamma   90.00000000
_symmetry_Int_Tables_number   6
_chemical_formula_structural   LiCuAgSn
_chemical_formula_sum   'Li4 Cu4 Ag4 Sn4'
_cell_volume   785.74834342
_cell_formula_units_Z   4
loop_
 _symmetry_equiv_pos_site_id
 _symmetry_equiv_pos_as_xyz
  1  'x, y, z'
  2  'x, -y, z'
loop_
 _atom_site_type_symbol
 _atom_site_label
 _atom_site_symmetry_multiplicity
 _atom_site_fract_x
 _atom_site_fract_y
 _atom_site_fract_z
 _atom_site_occupancy
  Li  Li0  1  0.24086500  0.50000000  0.95556000  1.0
  Li  Li1  1  0.25000000  0.50000000  0.12723000  1.0
  Li  Li2  1  0.75000000  0.00000000  0.04241000  1.0
  Li  Li3  1  0.75922000  0.00000000  0.86190000  1.0
  Cu  Cu4  1  0.23303000  0.00000000  0.87660500  1.0
  Cu  Cu5  1  0.25000000  0.00000000  0.04241000  1.0
  Cu  Cu6  1  0.75000000  0.50000000  0.12723000  1.0
  Cu  Cu7  1  0.76102000  0.50000000  0.95444000  1.0
  Ag  Ag8  1  0.00000000  0.00000000  0.12723000  1.0
  Ag  Ag9  1  0.49055000  0.50000000  0.87380000  1.0
  Ag  Ag10  1  0.50000000  0.50000000  0.04241000  1.0
  Ag  Ag11  1  0.99229000  0.00000000  0.95791000  1.0
  Sn  Sn12  1  0.00000000  0.50000000  0.04241000  1.0
  Sn  Sn13  1  0.01328000  0.50000000  0.86283000  1.0
  Sn  Sn14  1  0.50000000  0.00000000  0.12723000  1.0
  Sn  Sn15  1  0.50775000  0.00000000  0.95381000  1.0
