# generated using pymatgen
data_Li4Al4Cu4Ge4CO
_symmetry_space_group_name_H-M   Pm
_cell_length_a   5.50126000
_cell_length_b   7.61632000
_cell_length_c   24.12590000
_cell_angle_alpha   90.00000000
_cell_angle_beta   90.00000000
_cell_angle_gamma   90.00000000
_symmetry_Int_Tables_number   6
_chemical_formula_structural   Li4Al4Cu4Ge4CO
_chemical_formula_sum   'Li4 Al4 Cu4 Ge4 C1 O1'
_cell_volume   1010.85968651
_cell_formula_units_Z   1
loop_
 _symmetry_equiv_pos_site_id
 _symmetry_equiv_pos_as_xyz
  1  'x, y, z'
  2  'x, -y, z'
loop_
 _atom_site_type_symbol
 _atom_site_label
 _atom_site_symmetry_multiplicity
 _atom_site_fract_x
 _atom_site_fract_y
 _atom_site_fract_z
 _atom_site_occupancy
  Li  Li0  1  0.00075000  0.00000000  0.02850000  1.0
  Li  Li1  1  0.00075000  0.50000000  0.02850000  1.0
  Li  Li2  1  0.51487000  0.50000000  0.90405000  1.0
  Li  Li3  1  0.51576000  0.00000000  0.90273000  1.0
  Al  Al4  1  0.02046000  0.50000000  0.91565000  1.0
  Al  Al5  1  0.02339000  0.00000000  0.91932000  1.0
  Al  Al6  1  0.50075000  0.00000000  0.02850000  1.0
  Al  Al7  1  0.50075000  0.50000000  0.02850000  1.0
  Cu  Cu8  2  0.26338000  0.25193000  0.97020000  1.0
  Cu  Cu9  2  0.75113000  0.25000000  0.08551000  1.0
  Ge  Ge10  2  0.25113000  0.25000000  0.08551000  1.0
  Ge  Ge11  2  0.74636000  0.25163000  0.96494000  1.0
  C  C12  1  0.50342000  0.00000000  0.81601000  1.0
  O  O13  1  0.50174000  0.00000000  0.76873000  1.0
