# generated using pymatgen
data_LiCuSnGe
_symmetry_space_group_name_H-M   P1
_cell_length_a   6.57410000
_cell_length_b   6.57410000
_cell_length_c   24.93060000
_cell_angle_alpha   90.00000000
_cell_angle_beta   90.00000000
_cell_angle_gamma   90.00000000
_symmetry_Int_Tables_number   1
_chemical_formula_structural   LiCuSnGe
_chemical_formula_sum   'Li4 Cu4 Sn4 Ge4'
_cell_volume   1077.47038617
_cell_formula_units_Z   4
loop_
 _symmetry_equiv_pos_site_id
 _symmetry_equiv_pos_as_xyz
  1  'x, y, z'
loop_
 _atom_site_type_symbol
 _atom_site_label
 _atom_site_symmetry_multiplicity
 _atom_site_fract_x
 _atom_site_fract_y
 _atom_site_fract_z
 _atom_site_occupancy
  Li  Li0  1  0.00000000  0.00000000  0.96704000  1.0
  Li  Li1  1  0.00082000  0.50029000  0.10132000  1.0
  Li  Li2  1  0.49861000  0.99899000  0.10132000  1.0
  Li  Li3  1  0.50000000  0.50000000  0.96704000  1.0
  Cu  Cu4  1  0.00000000  0.50000000  0.96704000  1.0
  Cu  Cu5  1  0.00090000  0.99963000  0.07892000  1.0
  Cu  Cu6  1  0.49905000  0.50061000  0.07874000  1.0
  Cu  Cu7  1  0.50000000  0.00000000  0.96704000  1.0
  Sn  Sn8  1  0.24977000  0.74996000  0.03034000  1.0
  Sn  Sn9  1  0.25000000  0.25000000  0.90111000  1.0
  Sn  Sn10  1  0.74931000  0.24929000  0.03107000  1.0
  Sn  Sn11  1  0.75000000  0.75000000  0.90111000  1.0
  Ge  Ge12  1  0.24916000  0.25024000  0.03696000  1.0
  Ge  Ge13  1  0.25000000  0.75000000  0.90111000  1.0
  Ge  Ge14  1  0.75000000  0.25000000  0.90111000  1.0
  Ge  Ge15  1  0.75061000  0.74937000  0.03737000  1.0
