# generated using pymatgen
data_Li8In16Pd8CO
_symmetry_space_group_name_H-M   Pmm2
_cell_length_a   6.70566000
_cell_length_b   9.48324000
_cell_length_c   27.11240000
_cell_angle_alpha   90.00000000
_cell_angle_beta   90.00000000
_cell_angle_gamma   90.00000000
_symmetry_Int_Tables_number   25
_chemical_formula_structural   Li8In16Pd8CO
_chemical_formula_sum   'Li8 In16 Pd8 C1 O1'
_cell_volume   1724.11501620
_cell_formula_units_Z   1
loop_
 _symmetry_equiv_pos_site_id
 _symmetry_equiv_pos_as_xyz
  1  'x, y, z'
  2  '-x, -y, z'
  3  '-x, y, z'
  4  'x, -y, z'
loop_
 _atom_site_type_symbol
 _atom_site_label
 _atom_site_symmetry_multiplicity
 _atom_site_fract_x
 _atom_site_fract_y
 _atom_site_fract_z
 _atom_site_occupancy
  Li  Li0  2  0.00000000  0.24999000  0.04625000  1.0
  Li  Li1  2  0.00000000  0.25000000  0.86883000  1.0
  Li  Li2  1  0.50000000  0.00000000  0.14745000  1.0
  Li  Li3  1  0.50000000  0.00000000  0.95628000  1.0
  Li  Li4  1  0.50000000  0.50000000  0.14446000  1.0
  Li  Li5  1  0.50000000  0.50000000  0.95628000  1.0
  In  In6  4  0.24588000  0.25075000  0.14046000  1.0
  In  In7  4  0.25000000  0.25000000  0.95628000  1.0
  In  In8  2  0.25000000  0.00000000  0.86883000  1.0
  In  In9  2  0.25000000  0.50000000  0.86883000  1.0
  In  In10  2  0.25760000  0.50000000  0.04680000  1.0
  In  In11  2  0.26071000  0.00000000  0.04700000  1.0
  Pd  Pd12  2  0.50000000  0.25000000  0.86883000  1.0
  Pd  Pd13  2  0.50000000  0.25061000  0.04071000  1.0
  Pd  Pd14  1  0.00000000  0.00000000  0.12595000  1.0
  Pd  Pd15  1  0.00000000  0.00000000  0.95628000  1.0
  Pd  Pd16  1  0.00000000  0.50000000  0.12542000  1.0
  Pd  Pd17  1  0.00000000  0.50000000  0.95628000  1.0
  C  C18  1  0.50000000  0.00000000  0.22350000  1.0
  O  O19  1  0.50000000  0.00000000  0.26557000  1.0
