# generated using pymatgen
data_Sc4In4Cu8C
_symmetry_space_group_name_H-M   'P 1'
_cell_length_a   6.46446000
_cell_length_b   6.46446000
_cell_length_c   24.84830000
_cell_angle_alpha   90.00000000
_cell_angle_beta   90.00000000
_cell_angle_gamma   90.00000000
_symmetry_Int_Tables_number   1
_chemical_formula_structural   Sc4In4Cu8C
_chemical_formula_sum   'Sc4 In4 Cu8 C1'
_cell_volume   1038.39164911
_cell_formula_units_Z   1
loop_
 _symmetry_equiv_pos_site_id
 _symmetry_equiv_pos_as_xyz
  1  'x, y, z'
loop_
 _atom_site_type_symbol
 _atom_site_label
 _atom_site_symmetry_multiplicity
 _atom_site_fract_x
 _atom_site_fract_y
 _atom_site_fract_z
 _atom_site_occupancy
  Sc  Sc0  1  0.00000000  0.00000000  0.90244000  1.0
  Sc  Sc1  1  0.50000000  0.50000000  0.90244000  1.0
  Sc  Sc2  1  0.50000000  0.00000000  0.03252000  1.0
  Sc  Sc3  1  0.00000000  0.50000000  0.03252000  1.0
  In  In4  1  0.00000000  0.00000000  0.03252000  1.0
  In  In5  1  0.50000000  0.00000000  0.90244000  1.0
  In  In6  1  0.00000000  0.50000000  0.90244000  1.0
  In  In7  1  0.50000000  0.50000000  0.03252000  1.0
  Cu  Cu8  1  0.25000000  0.25000000  0.96748000  1.0
  Cu  Cu9  1  0.75000000  0.75000000  0.09756000  1.0
  Cu  Cu10  1  0.75000000  0.25000000  0.96748000  1.0
  Cu  Cu11  1  0.25000000  0.75000000  0.09756000  1.0
  Cu  Cu12  1  0.75000000  0.75000000  0.96748000  1.0
  Cu  Cu13  1  0.25000000  0.25000000  0.09756000  1.0
  Cu  Cu14  1  0.25000000  0.75000000  0.96748000  1.0
  Cu  Cu15  1  0.75000000  0.25000000  0.09756000  1.0
  C  C16  1  0.00000000  0.00000000  0.12975000  1.0
