# generated using pymatgen
data_LiAlGaPd
_symmetry_space_group_name_H-M   Pm
_cell_length_a   6.14517000
_cell_length_b   4.34529000
_cell_length_c   26.51790000
_cell_angle_alpha   90.00000000
_cell_angle_beta   90.00000000
_cell_angle_gamma   90.00000000
_symmetry_Int_Tables_number   6
_chemical_formula_structural   LiAlGaPd
_chemical_formula_sum   'Li4 Al4 Ga4 Pd4'
_cell_volume   708.09543793
_cell_formula_units_Z   4
loop_
 _symmetry_equiv_pos_site_id
 _symmetry_equiv_pos_as_xyz
  1  'x, y, z'
  2  'x, -y, z'
loop_
 _atom_site_type_symbol
 _atom_site_label
 _atom_site_symmetry_multiplicity
 _atom_site_fract_x
 _atom_site_fract_y
 _atom_site_fract_z
 _atom_site_occupancy
  Li  Li0  1  0.24440000  0.00000000  0.83590500  1.0
  Li  Li1  1  0.25000000  0.00000000  0.04097000  1.0
  Li  Li2  1  0.75000000  0.50000000  0.12290000  1.0
  Li  Li3  1  0.76397000  0.50000000  0.95723500  1.0
  Al  Al4  1  0.00000000  0.00000000  0.12290000  1.0
  Al  Al5  1  0.03039500  0.00000000  0.94615000  1.0
  Al  Al6  1  0.48706000  0.50000000  0.87666000  1.0
  Al  Al7  1  0.50000000  0.50000000  0.04097000  1.0
  Ga  Ga8  1  0.00000000  0.50000000  0.04097000  1.0
  Ga  Ga9  1  0.01365000  0.50000000  0.86778000  1.0
  Ga  Ga10  1  0.49611000  0.00000000  0.95436000  1.0
  Ga  Ga11  1  0.50000000  0.00000000  0.12290000  1.0
  Pd  Pd12  1  0.25000000  0.50000000  0.12290000  1.0
  Pd  Pd13  1  0.25174500  0.50000000  0.96263000  1.0
  Pd  Pd14  1  0.74510000  0.00000000  0.87682000  1.0
  Pd  Pd15  1  0.75000000  0.00000000  0.04097000  1.0
