# generated using pymatgen
data_Li4Ag8Ge4C
_symmetry_space_group_name_H-M   'P 1'
_cell_length_a   6.51415000
_cell_length_b   6.51415000
_cell_length_c   24.88560000
_cell_angle_alpha   90.00000000
_cell_angle_beta   90.00000000
_cell_angle_gamma   90.00000000
_symmetry_Int_Tables_number   1
_chemical_formula_structural   Li4Ag8Ge4C
_chemical_formula_sum   'Li4 Ag8 Ge4 C1'
_cell_volume   1055.99928878
_cell_formula_units_Z   1
loop_
 _symmetry_equiv_pos_site_id
 _symmetry_equiv_pos_as_xyz
  1  'x, y, z'
loop_
 _atom_site_type_symbol
 _atom_site_label
 _atom_site_symmetry_multiplicity
 _atom_site_fract_x
 _atom_site_fract_y
 _atom_site_fract_z
 _atom_site_occupancy
  Li  Li0  1  0.73358000  0.26642000  0.10597000  1
  Li  Li1  1  0.26642000  0.73358000  0.10597000  1
  Li  Li2  1  0.75000000  0.75000000  0.96728000  1
  Li  Li3  1  0.25000000  0.25000000  0.96728000  1
  Ag  Ag4  1  0.50000000  0.50000000  0.02574000  1
  Ag  Ag5  1  0.00000000  0.00000000  0.90184000  1
  Ag  Ag6  1  0.50000000  1.00000000  0.04084000  1
  Ag  Ag7  1  0.00000000  0.50000000  0.90184000  1
  Ag  Ag8  1  0.00000000  0.00000000  0.03319000  1
  Ag  Ag9  1  0.50000000  0.50000000  0.90184000  1
  Ag  Ag10  1  0.00000000  0.50000000  0.04084000  1
  Ag  Ag11  1  0.50000000  1.00000000  0.90184000  1
  Ge  Ge12  1  0.75000000  0.25000000  0.96728000  1
  Ge  Ge13  1  0.70902000  0.70902000  0.11480000  1
  Ge  Ge14  1  0.29098000  0.29098000  0.11480000  1
  Ge  Ge15  1  0.25000000  0.75000000  0.96728000  1
  C  C16  1  0.50000000  0.50000000  0.11827000  1
