# generated using pymatgen
data_Y8In8Cu8Pd8CO
_symmetry_space_group_name_H-M   'P 1'
_cell_length_a   9.57344000
_cell_length_b   6.76944000
_cell_length_c   27.18010000
_cell_angle_alpha   90.00000000
_cell_angle_beta   90.00000000
_cell_angle_gamma   90.00000000
_symmetry_Int_Tables_number   1
_chemical_formula_structural   Y8In8Cu8Pd8CO
_chemical_formula_sum   'Y8 In8 Cu8 Pd8 C1 O1'
_cell_volume   1761.45605685
_cell_formula_units_Z   1
loop_
 _symmetry_equiv_pos_site_id
 _symmetry_equiv_pos_as_xyz
  1  'x, y, z'
loop_
 _atom_site_type_symbol
 _atom_site_label
 _atom_site_symmetry_multiplicity
 _atom_site_fract_x
 _atom_site_fract_y
 _atom_site_fract_z
 _atom_site_occupancy
  Y  Y0  1  0.75000000  0.75000000  0.04403000  1.0
  Y  Y1  1  0.25000000  0.75000000  0.04403000  1.0
  Y  Y2  1  0.00000000  0.25000000  0.13208000  1.0
  Y  Y3  1  0.50000000  0.25000000  0.13208000  1.0
  Y  Y4  1  0.23630000  0.73396000  0.86388000  1.0
  Y  Y5  1  0.76370000  0.73396000  0.86388000  1.0
  Y  Y6  1  0.50000000  0.23967000  0.95510000  1.0
  Y  Y7  1  0.00000000  0.25164000  0.95496000  1.0
  In  In8  1  0.75000000  0.25000000  0.04403000  1.0
  In  In9  1  0.25000000  0.25000000  0.04403000  1.0
  In  In10  1  0.00000000  0.75000000  0.13208000  1.0
  In  In11  1  0.50000000  0.75000000  0.13208000  1.0
  In  In12  1  0.26085000  0.24057000  0.86723000  1.0
  In  In13  1  0.73915000  0.24057000  0.86723000  1.0
  In  In14  1  0.50000000  0.74477000  0.95645000  1.0
  In  In15  1  0.00000000  0.74767000  0.95425000  1.0
  Cu  Cu16  1  0.75000000  0.00000000  0.13208000  1.0
  Cu  Cu17  1  0.25000000  0.00000000  0.13208000  1.0
  Cu  Cu18  1  0.50000000  0.50000000  0.04403000  1.0
  Cu  Cu19  1  0.00000000  0.50000000  0.04403000  1.0
  Cu  Cu20  1  0.24896000  0.97936000  0.95158000  1.0
  Cu  Cu21  1  0.75104000  0.97936000  0.95158000  1.0
  Cu  Cu22  1  0.00000000  0.41579000  0.85117000  1.0
  Cu  Cu23  1  0.50000000  0.50170000  0.87209000  1.0
  Pd  Pd24  1  0.00000000  0.00000000  0.04403000  1.0
  Pd  Pd25  1  0.50000000  1.00000000  0.04403000  1.0
  Pd  Pd26  1  0.25000000  0.50000000  0.13208000  1.0
  Pd  Pd27  1  0.75000000  0.50000000  0.13208000  1.0
  Pd  Pd28  1  0.50000000  0.97404000  0.87129000  1.0
  Pd  Pd29  1  0.00000000  0.01872000  0.87077000  1.0
  Pd  Pd30  1  0.74845000  0.51044000  0.95393000  1.0
  Pd  Pd31  1  0.25155000  0.51044000  0.95393000  1.0
  C  C32  1  0.00000000  0.60024000  0.80017000  1.0
  O  O33  1  0.00000000  0.66464000  0.75999000  1.0
