# generated using pymatgen
data_Y8In8Cu8Pd8CO
_symmetry_space_group_name_H-M   Pm
_cell_length_a   6.76944000
_cell_length_b   9.57344000
_cell_length_c   27.18010000
_cell_angle_alpha   90.00000000
_cell_angle_beta   90.00000000
_cell_angle_gamma   90.00000000
_symmetry_Int_Tables_number   6
_chemical_formula_structural   Y8In8Cu8Pd8CO
_chemical_formula_sum   'Y8 In8 Cu8 Pd8 C1 O1'
_cell_volume   1761.45605685
_cell_formula_units_Z   1
loop_
 _symmetry_equiv_pos_site_id
 _symmetry_equiv_pos_as_xyz
  1  'x, y, z'
  2  'x, -y, z'
loop_
 _atom_site_type_symbol
 _atom_site_label
 _atom_site_symmetry_multiplicity
 _atom_site_fract_x
 _atom_site_fract_y
 _atom_site_fract_z
 _atom_site_occupancy
  Y  Y0  2  0.73396000  0.23630000  0.13612000  1.0
  Y  Y1  2  0.75000000  0.25000000  0.95597000  1.0
  Y  Y2  1  0.23967000  0.50000000  0.04490000  1.0
  Y  Y3  1  0.25000000  0.00000000  0.86792000  1.0
  Y  Y4  1  0.25000000  0.50000000  0.86792000  1.0
  Y  Y5  1  0.25164000  0.00000000  0.04504000  1.0
  In  In6  2  0.24057000  0.26085000  0.13277000  1.0
  In  In7  2  0.25000000  0.25000000  0.95597000  1.0
  In  In8  1  0.74477000  0.50000000  0.04355000  1.0
  In  In9  1  0.74767000  0.00000000  0.04575000  1.0
  In  In10  1  0.75000000  0.00000000  0.86792000  1.0
  In  In11  1  0.75000000  0.50000000  0.86792000  1.0
  Cu  Cu12  2  0.00000000  0.25000000  0.86792000  1.0
  Cu  Cu13  2  0.97936000  0.24896000  0.04842000  1.0
  Cu  Cu14  1  0.41579000  0.00000000  0.14883000  1.0
  Cu  Cu15  1  0.50000000  0.00000000  0.95597000  1.0
  Cu  Cu16  1  0.50000000  0.50000000  0.95597000  1.0
  Cu  Cu17  1  0.50170000  0.50000000  0.12791000  1.0
  Pd  Pd18  2  0.50000000  0.25000000  0.86792000  1.0
  Pd  Pd19  2  0.51044000  0.25155000  0.04607000  1.0
  Pd  Pd20  1  -0.00000000  0.50000000  0.95597000  1.0
  Pd  Pd21  1  0.00000000  0.00000000  0.95597000  1.0
  Pd  Pd22  1  0.01872000  0.00000000  0.12923000  1.0
  Pd  Pd23  1  0.97404000  0.50000000  0.12871000  1.0
  C  C24  1  0.60024000  0.00000000  0.19983000  1.0
  O  O25  1  0.66464000  0.00000000  0.24001000  1.0
