data_image0
_chemical_formula_structural       Cu8Ni16Sb8CO
_chemical_formula_sum              "Cu8 Ni16 Sb8 C1 O1"
_cell_length_a       6.01864
_cell_length_b       8.51164
_cell_length_c       26.3837
_cell_angle_alpha    90
_cell_angle_beta     90
_cell_angle_gamma    90

_space_group_name_H-M_alt    "P 1"
_space_group_IT_number       1

loop_
  _space_group_symop_operation_xyz
  'x, y, z'

loop_
  _atom_site_type_symbol
  _atom_site_label
  _atom_site_symmetry_multiplicity
  _atom_site_fract_x
  _atom_site_fract_y
  _atom_site_fract_z
  _atom_site_occupancy
  Cu  Cu1       1.0  0.00000  0.00000  0.87902  1.0000
  Cu  Cu2       1.0  0.50000  0.25000  0.95967  1.0000
  Cu  Cu3       1.0  0.50000  0.75000  0.95967  1.0000
  Cu  Cu4       1.0  0.00000  0.50000  0.87902  1.0000
  Cu  Cu5       1.0  0.99460  0.49998  0.03572  1.0000
  Cu  Cu6       1.0  0.49951  0.74117  0.12007  1.0000
  Cu  Cu7       1.0  0.49950  0.25883  0.12007  1.0000
  Cu  Cu8       1.0  0.00955  0.00003  0.04117  1.0000
  Ni  Ni1       1.0  0.25000  0.00000  0.95967  1.0000
  Ni  Ni2       1.0  0.75000  0.50000  0.95967  1.0000
  Ni  Ni3       1.0  0.75000  0.00000  0.95967  1.0000
  Ni  Ni4       1.0  0.25000  0.50000  0.95967  1.0000
  Ni  Ni5       1.0  0.75000  0.75000  0.87902  1.0000
  Ni  Ni6       1.0  0.25000  0.25000  0.87902  1.0000
  Ni  Ni7       1.0  0.25000  0.75000  0.87902  1.0000
  Ni  Ni8       1.0  0.75000  0.25000  0.87902  1.0000
  Ni  Ni9       1.0  0.22813  0.49998  0.11225  1.0000
  Ni  Ni10      1.0  0.75135  0.00002  0.11342  1.0000
  Ni  Ni11      1.0  0.75807  0.49999  0.11199  1.0000
  Ni  Ni12      1.0  0.25798  0.00002  0.12309  1.0000
  Ni  Ni13      1.0  0.75960  0.24665  0.04285  1.0000
  Ni  Ni14      1.0  0.23035  0.75026  0.04555  1.0000
  Ni  Ni15      1.0  0.23032  0.24975  0.04556  1.0000
  Ni  Ni16      1.0  0.75959  0.75336  0.04284  1.0000
  Sb  Sb1       1.0  0.00000  0.75000  0.95967  1.0000
  Sb  Sb2       1.0  0.50000  0.00000  0.87902  1.0000
  Sb  Sb3       1.0  0.00000  0.25000  0.95967  1.0000
  Sb  Sb4       1.0  0.50000  0.50000  0.87902  1.0000
  Sb  Sb5       1.0  0.98725  0.25196  0.13223  1.0000
  Sb  Sb6       1.0  0.49654  0.49998  0.03889  1.0000
  Sb  Sb7       1.0  0.98725  0.74804  0.13222  1.0000
  Sb  Sb8       1.0  0.49370  0.00002  0.03827  1.0000
  C   C1        1.0  0.41275  0.00000  0.18071  1.0000
  O   O1        1.0  0.47964  0.00000  0.22197  1.0000
