# generated using pymatgen
data_Zn8Ag4Au4CO
_symmetry_space_group_name_H-M   Cmm2
_cell_length_a   8.98032683
_cell_length_b   8.98032683
_cell_length_c   24.76250000
_cell_angle_alpha   90.00000000
_cell_angle_beta   90.00000000
_cell_angle_gamma   90.00000000
_symmetry_Int_Tables_number   35
_chemical_formula_structural   Zn8Ag4Au4CO
_chemical_formula_sum   'Zn16 Ag8 Au8 C2 O2'
_cell_volume   1997.00326100
_cell_formula_units_Z   2
loop_
 _symmetry_equiv_pos_site_id
 _symmetry_equiv_pos_as_xyz
  1  'x, y, z'
  2  '-x, -y, z'
  3  '-x, y, z'
  4  'x, -y, z'
  5  'x+1/2, y+1/2, z'
  6  '-x+1/2, -y+1/2, z'
  7  '-x+1/2, y+1/2, z'
  8  'x+1/2, -y+1/2, z'
loop_
 _atom_site_type_symbol
 _atom_site_label
 _atom_site_symmetry_multiplicity
 _atom_site_fract_x
 _atom_site_fract_y
 _atom_site_fract_z
 _atom_site_occupancy
  Zn  Zn0  4  0.25000000  0.25000000  0.09616000  1.0
  Zn  Zn1  4  0.25000000  0.25000000  0.96795000  1.0
  Zn  Zn2  2  0.00000000  0.00000000  0.09616000  1.0
  Zn  Zn3  2  0.00000000  0.00000000  0.96795000  1.0
  Zn  Zn4  2  0.00000000  0.50000000  0.09616000  1.0
  Zn  Zn5  2  0.00000000  0.50000000  0.96795000  1.0
  Ag  Ag6  4  0.00000000  0.25000000  0.90384000  1.0
  Ag  Ag7  4  0.25000000  0.00000000  0.03205000  1.0
  Au  Au8  4  0.00000000  0.25000000  0.03205000  1.0
  Au  Au9  4  0.25000000  0.00000000  0.90384000  1.0
  C  C10  2  0.00000000  0.50000000  0.17289000  1.0
  O  O11  2  0.00000000  0.50000000  0.21933000  1.0
