# generated using pymatgen
data_Li4Mg4In4Ge4C
_symmetry_space_group_name_H-M   'P 1'
_cell_length_a   8.41850000
_cell_length_b   6.06838000
_cell_length_c   24.54770000
_cell_angle_alpha   90.00000000
_cell_angle_beta   90.00000000
_cell_angle_gamma   90.00000000
_symmetry_Int_Tables_number   1
_chemical_formula_structural   Li4Mg4In4Ge4C
_chemical_formula_sum   'Li4 Mg4 In4 Ge4 C1'
_cell_volume   1254.05993078
_cell_formula_units_Z   1
loop_
 _symmetry_equiv_pos_site_id
 _symmetry_equiv_pos_as_xyz
  1  'x, y, z'
loop_
 _atom_site_type_symbol
 _atom_site_label
 _atom_site_symmetry_multiplicity
 _atom_site_fract_x
 _atom_site_fract_y
 _atom_site_fract_z
 _atom_site_occupancy
  Li  Li0  1  0.67467000  0.48795000  0.11482000  1.0
  Li  Li1  1  0.75000000  0.01985000  0.96912000  1.0
  Li  Li2  1  0.32533000  0.48795000  0.11482000  1.0
  Li  Li3  1  0.25000000  0.01985000  0.96912000  1.0
  Mg  Mg4  1  0.50000000  0.71953000  0.02663000  1.0
  Mg  Mg5  1  0.50000000  0.27977000  0.90737000  1.0
  Mg  Mg6  1  0.00000000  0.77531000  0.05165000  1.0
  Mg  Mg7  1  0.00000000  0.27977000  0.90737000  1.0
  In  In8  1  0.50000000  0.21239000  0.03373000  1.0
  In  In9  1  0.50000000  0.77977000  0.90737000  1.0
  In  In10  1  0.00000000  0.28548000  0.04280000  1.0
  In  In11  1  0.00000000  0.77977000  0.90737000  1.0
  Ge  Ge12  1  0.68346000  0.95090000  0.11321000  1.0
  Ge  Ge13  1  0.75000000  0.51985000  0.96912000  1.0
  Ge  Ge14  1  0.31654000  0.95090000  0.11321000  1.0
  Ge  Ge15  1  0.25000000  0.51985000  0.96912000  1.0
  C  C16  1  0.50000000  0.74422000  0.11489000  1.0
