data_image0
_chemical_formula_structural       Sc4In4Ga4Pd4CO
_chemical_formula_sum              "Sc4 In4 Ga4 Pd4 C1 O1"
_cell_length_a       6.68246
_cell_length_b       6.68246
_cell_length_c       25.0118
_cell_angle_alpha    90
_cell_angle_beta     90
_cell_angle_gamma    90

_space_group_name_H-M_alt    "P 1"
_space_group_IT_number       1

loop_
  _space_group_symop_operation_xyz
  'x, y, z'

loop_
  _atom_site_type_symbol
  _atom_site_label
  _atom_site_symmetry_multiplicity
  _atom_site_fract_x
  _atom_site_fract_y
  _atom_site_fract_z
  _atom_site_occupancy
  Sc  Sc1       1.0  0.75125  0.24868  0.03925  1.0000
  Sc  Sc2       1.0  0.75000  0.75000  0.89981  1.0000
  Sc  Sc3       1.0  0.25000  0.25000  0.89981  1.0000
  Sc  Sc4       1.0  0.24869  0.75124  0.03927  1.0000
  In  In1       1.0  0.24911  0.24907  0.03684  1.0000
  In  In2       1.0  0.25000  0.75000  0.89981  1.0000
  In  In3       1.0  0.75000  0.25000  0.89981  1.0000
  In  In4       1.0  0.75068  0.75068  0.03678  1.0000
  Ga  Ga1       1.0  0.99959  0.99966  0.11530  1.0000
  Ga  Ga2       1.0  0.00000  0.50000  0.96660  1.0000
  Ga  Ga3       1.0  0.50000  0.00000  0.96660  1.0000
  Ga  Ga4       1.0  0.49990  0.49989  0.11161  1.0000
  Pd  Pd1       1.0  0.99991  0.50006  0.09593  1.0000
  Pd  Pd2       1.0  0.00000  0.00000  0.96660  1.0000
  Pd  Pd3       1.0  0.50000  0.50000  0.96660  1.0000
  Pd  Pd4       1.0  0.50024  0.00006  0.09594  1.0000
  C   C1        1.0  0.00289  0.00267  0.25465  1.0000
  O   O1        1.0  0.99933  0.99919  0.29999  1.0000
