# generated using pymatgen
data_Sc4In4Ga4Pd4CO
_symmetry_space_group_name_H-M   P1
_cell_length_a   6.68246000
_cell_length_b   6.68246000
_cell_length_c   25.01180000
_cell_angle_alpha   90.00000000
_cell_angle_beta   90.00000000
_cell_angle_gamma   90.00000000
_symmetry_Int_Tables_number   1
_chemical_formula_structural   Sc4In4Ga4Pd4CO
_chemical_formula_sum   'Sc4 In4 Ga4 Pd4 C1 O1'
_cell_volume   1116.90872350
_cell_formula_units_Z   1
loop_
 _symmetry_equiv_pos_site_id
 _symmetry_equiv_pos_as_xyz
  1  'x, y, z'
loop_
 _atom_site_type_symbol
 _atom_site_label
 _atom_site_symmetry_multiplicity
 _atom_site_fract_x
 _atom_site_fract_y
 _atom_site_fract_z
 _atom_site_occupancy
  Sc  Sc0  1  0.24869000  0.75124000  0.03927000  1.0
  Sc  Sc1  1  0.25000000  0.25000000  0.89981000  1.0
  Sc  Sc2  1  0.75000000  0.75000000  0.89981000  1.0
  Sc  Sc3  1  0.75125000  0.24868000  0.03925000  1.0
  In  In4  1  0.24911000  0.24907000  0.03684000  1.0
  In  In5  1  0.25000000  0.75000000  0.89981000  1.0
  In  In6  1  0.75000000  0.25000000  0.89981000  1.0
  In  In7  1  0.75068000  0.75068000  0.03678000  1.0
  Ga  Ga8  1  -0.00000000  0.50000000  0.96660000  1.0
  Ga  Ga9  1  0.49990000  0.49989000  0.11161000  1.0
  Ga  Ga10  1  0.50000000  0.00000000  0.96660000  1.0
  Ga  Ga11  1  0.99959000  0.99966000  0.11530000  1.0
  Pd  Pd12  1  0.00000000  0.00000000  0.96660000  1.0
  Pd  Pd13  1  0.50000000  0.50000000  0.96660000  1.0
  Pd  Pd14  1  0.50024000  0.00006000  0.09594000  1.0
  Pd  Pd15  1  0.99991000  0.50006000  0.09593000  1.0
  C  C16  1  0.00289000  0.00267000  0.25465000  1.0
  O  O17  1  0.99933000  0.99919000  0.29999000  1.0
