data_image0
_chemical_formula_structural       Cu16Ni8Sn8CO
_chemical_formula_sum              "Cu16 Ni8 Sn8 C1 O1"
_cell_length_a       6.14873
_cell_length_b       8.69561
_cell_length_c       26.5217
_cell_angle_alpha    90
_cell_angle_beta     90
_cell_angle_gamma    90

_space_group_name_H-M_alt    "P 1"
_space_group_IT_number       1

loop_
  _space_group_symop_operation_xyz
  'x, y, z'

loop_
  _atom_site_type_symbol
  _atom_site_label
  _atom_site_symmetry_multiplicity
  _atom_site_fract_x
  _atom_site_fract_y
  _atom_site_fract_z
  _atom_site_occupancy
  Cu  Cu1       1.0  0.25000  0.00000  0.95902  1.0000
  Cu  Cu2       1.0  0.75000  0.50000  0.95902  1.0000
  Cu  Cu3       1.0  0.75000  0.00000  0.95902  1.0000
  Cu  Cu4       1.0  0.25000  0.50000  0.95902  1.0000
  Cu  Cu5       1.0  0.75000  0.75000  0.87705  1.0000
  Cu  Cu6       1.0  0.25000  0.25000  0.87705  1.0000
  Cu  Cu7       1.0  0.25000  0.75000  0.87705  1.0000
  Cu  Cu8       1.0  0.75000  0.25000  0.87705  1.0000
  Cu  Cu9       1.0  0.22503  0.50134  0.11575  1.0000
  Cu  Cu10      1.0  0.77489  0.99885  0.11577  1.0000
  Cu  Cu11      1.0  0.77496  0.50142  0.11575  1.0000
  Cu  Cu12      1.0  0.22511  0.99893  0.11576  1.0000
  Cu  Cu13      1.0  0.78720  0.25027  0.04789  1.0000
  Cu  Cu14      1.0  0.21180  0.75031  0.04951  1.0000
  Cu  Cu15      1.0  0.21280  0.25027  0.04791  1.0000
  Cu  Cu16      1.0  0.78819  0.75031  0.04953  1.0000
  Ni  Ni1       1.0  0.00000  0.00000  0.87705  1.0000
  Ni  Ni2       1.0  0.50000  0.25000  0.95902  1.0000
  Ni  Ni3       1.0  0.50000  0.75000  0.95902  1.0000
  Ni  Ni4       1.0  0.00000  0.50000  0.87705  1.0000
  Ni  Ni5       1.0  0.99998  0.50062  0.03384  1.0000
  Ni  Ni6       1.0  0.49992  0.75007  0.11264  1.0000
  Ni  Ni7       1.0  0.50007  0.25008  0.11080  1.0000
  Ni  Ni8       1.0  0.99999  0.99988  0.03386  1.0000
  Sn  Sn1       1.0  0.00000  0.75000  0.95902  1.0000
  Sn  Sn2       1.0  0.50000  0.00000  0.87705  1.0000
  Sn  Sn3       1.0  0.00000  0.25000  0.95902  1.0000
  Sn  Sn4       1.0  0.50000  0.50000  0.87705  1.0000
  Sn  Sn5       1.0  0.99990  0.25011  0.14459  1.0000
  Sn  Sn6       1.0  0.50000  0.50056  0.03984  1.0000
  Sn  Sn7       1.0  0.00010  0.75013  0.14700  1.0000
  Sn  Sn8       1.0  0.50000  0.99998  0.03983  1.0000
  C   C1        1.0  0.00041  0.24536  0.29658  1.0000
  O   O1        1.0  0.99991  0.25077  0.33933  1.0000
