# generated using pymatgen
data_Cu16Ni8Sn8CO
_symmetry_space_group_name_H-M   'P 1'
_cell_length_a   6.14873000
_cell_length_b   8.69561000
_cell_length_c   26.52170000
_cell_angle_alpha   90.00000000
_cell_angle_beta   90.00000000
_cell_angle_gamma   90.00000000
_symmetry_Int_Tables_number   1
_chemical_formula_structural   Cu16Ni8Sn8CO
_chemical_formula_sum   'Cu16 Ni8 Sn8 C1 O1'
_cell_volume   1418.03462199
_cell_formula_units_Z   1
loop_
 _symmetry_equiv_pos_site_id
 _symmetry_equiv_pos_as_xyz
  1  'x, y, z'
loop_
 _atom_site_type_symbol
 _atom_site_label
 _atom_site_symmetry_multiplicity
 _atom_site_fract_x
 _atom_site_fract_y
 _atom_site_fract_z
 _atom_site_occupancy
  Cu  Cu0  1  0.25000000  0.00000000  0.95902000  1.0
  Cu  Cu1  1  0.75000000  0.50000000  0.95902000  1.0
  Cu  Cu2  1  0.75000000  0.00000000  0.95902000  1.0
  Cu  Cu3  1  0.25000000  0.50000000  0.95902000  1.0
  Cu  Cu4  1  0.75000000  0.75000000  0.87705000  1.0
  Cu  Cu5  1  0.25000000  0.25000000  0.87705000  1.0
  Cu  Cu6  1  0.25000000  0.75000000  0.87705000  1.0
  Cu  Cu7  1  0.75000000  0.25000000  0.87705000  1.0
  Cu  Cu8  1  0.22503000  0.50134000  0.11575000  1.0
  Cu  Cu9  1  0.77489000  0.99885000  0.11577000  1.0
  Cu  Cu10  1  0.77496000  0.50142000  0.11575000  1.0
  Cu  Cu11  1  0.22511000  0.99893000  0.11576000  1.0
  Cu  Cu12  1  0.78720000  0.25027000  0.04789000  1.0
  Cu  Cu13  1  0.21180000  0.75031000  0.04951000  1.0
  Cu  Cu14  1  0.21280000  0.25027000  0.04791000  1.0
  Cu  Cu15  1  0.78819000  0.75031000  0.04953000  1.0
  Ni  Ni16  1  0.00000000  0.00000000  0.87705000  1.0
  Ni  Ni17  1  0.50000000  0.25000000  0.95902000  1.0
  Ni  Ni18  1  0.50000000  0.75000000  0.95902000  1.0
  Ni  Ni19  1  0.00000000  0.50000000  0.87705000  1.0
  Ni  Ni20  1  0.99998000  0.50062000  0.03384000  1.0
  Ni  Ni21  1  0.49992000  0.75007000  0.11264000  1.0
  Ni  Ni22  1  0.50007000  0.25008000  0.11080000  1.0
  Ni  Ni23  1  0.99999000  0.99988000  0.03386000  1.0
  Sn  Sn24  1  0.00000000  0.75000000  0.95902000  1.0
  Sn  Sn25  1  0.50000000  0.00000000  0.87705000  1.0
  Sn  Sn26  1  0.00000000  0.25000000  0.95902000  1.0
  Sn  Sn27  1  0.50000000  0.50000000  0.87705000  1.0
  Sn  Sn28  1  0.99990000  0.25011000  0.14459000  1.0
  Sn  Sn29  1  0.50000000  0.50056000  0.03984000  1.0
  Sn  Sn30  1  0.00010000  0.75013000  0.14700000  1.0
  Sn  Sn31  1  0.50000000  0.99998000  0.03983000  1.0
  C  C32  1  0.00041000  0.24536000  0.29658000  1.0
  O  O33  1  0.99991000  0.25077000  0.33933000  1.0
