# generated using pymatgen
data_Li8Y8Sn8Ge8C
_symmetry_space_group_name_H-M   'P 1'
_cell_length_a   8.60818000
_cell_length_b   9.43388000
_cell_length_c   26.39560000
_cell_angle_alpha   90.00000000
_cell_angle_beta   90.00000000
_cell_angle_gamma   90.00000000
_symmetry_Int_Tables_number   1
_chemical_formula_structural   Li8Y8Sn8Ge8C
_chemical_formula_sum   'Li8 Y8 Sn8 Ge8 C1'
_cell_volume   2143.54806289
_cell_formula_units_Z   1
loop_
 _symmetry_equiv_pos_site_id
 _symmetry_equiv_pos_as_xyz
  1  'x, y, z'
loop_
 _atom_site_type_symbol
 _atom_site_label
 _atom_site_symmetry_multiplicity
 _atom_site_fract_x
 _atom_site_fract_y
 _atom_site_fract_z
 _atom_site_occupancy
  Li  Li0  1  0.50000000  0.00000000  0.96348000  1.0
  Li  Li1  1  0.50000000  0.00000000  0.12115000  1.0
  Li  Li2  1  0.00000000  0.00000000  0.95825000  1.0
  Li  Li3  1  0.00000000  0.00000000  0.12115000  1.0
  Li  Li4  1  0.50000000  0.50000000  0.95052000  1.0
  Li  Li5  1  0.50000000  0.50000000  0.12115000  1.0
  Li  Li6  1  0.00000000  0.50000000  0.96046000  1.0
  Li  Li7  1  0.00000000  0.50000000  0.12115000  1.0
  Y  Y8  1  0.74922000  0.75026000  0.96170000  1.0
  Y  Y9  1  0.75002000  0.75001000  0.12115000  1.0
  Y  Y10  1  0.25078000  0.75026000  0.96170000  1.0
  Y  Y11  1  0.24998000  0.75001000  0.12115000  1.0
  Y  Y12  1  0.74922000  0.24974000  0.96170000  1.0
  Y  Y13  1  0.75002000  0.24999000  0.12115000  1.0
  Y  Y14  1  0.25078000  0.24974000  0.96170000  1.0
  Y  Y15  1  0.24998000  0.24999000  0.12115000  1.0
  Sn  Sn16  1  0.78624000  0.00000000  0.86313000  1.0
  Sn  Sn17  1  0.75002000  0.00000000  0.04038000  1.0
  Sn  Sn18  1  0.21376000  0.00000000  0.86313000  1.0
  Sn  Sn19  1  0.24998000  0.00000000  0.04038000  1.0
  Sn  Sn20  1  0.77764000  0.50000000  0.86591000  1.0
  Sn  Sn21  1  0.75002000  0.50000000  0.04038000  1.0
  Sn  Sn22  1  0.22236000  0.50000000  0.86591000  1.0
  Sn  Sn23  1  0.24998000  0.50000000  0.04038000  1.0
  Ge  Ge24  1  0.50000000  0.79577000  0.87486000  1.0
  Ge  Ge25  1  0.50000000  0.75001000  0.04038000  1.0
  Ge  Ge26  1  0.00000000  0.71451000  0.88698000  1.0
  Ge  Ge27  1  0.00000000  0.75001000  0.04038000  1.0
  Ge  Ge28  1  0.50000000  0.20423000  0.87486000  1.0
  Ge  Ge29  1  0.50000000  0.24999000  0.04038000  1.0
  Ge  Ge30  1  0.00000000  0.28549000  0.88698000  1.0
  Ge  Ge31  1  0.00000000  0.24999000  0.04038000  1.0
  C  C32  1  0.50000000  0.00000000  0.88384000  1.0
