# generated using pymatgen
data_Sc8Mn8In8Pd8CO
_symmetry_space_group_name_H-M   'P 1'
_cell_length_a   9.36632000
_cell_length_b   6.62299000
_cell_length_c   27.02470000
_cell_angle_alpha   90.00000000
_cell_angle_beta   90.00000000
_cell_angle_gamma   90.00000000
_symmetry_Int_Tables_number   1
_chemical_formula_structural   Sc8Mn8In8Pd8CO
_chemical_formula_sum   'Sc8 Mn8 In8 Pd8 C1 O1'
_cell_volume   1676.42439599
_cell_formula_units_Z   1
loop_
 _symmetry_equiv_pos_site_id
 _symmetry_equiv_pos_as_xyz
  1  'x, y, z'
loop_
 _atom_site_type_symbol
 _atom_site_label
 _atom_site_symmetry_multiplicity
 _atom_site_fract_x
 _atom_site_fract_y
 _atom_site_fract_z
 _atom_site_occupancy
  Sc  Sc0  1  0.24999000  0.00000000  0.04332000  1.0
  Sc  Sc1  1  0.75001000  0.00000000  0.04332000  1.0
  Sc  Sc2  1  0.50000000  0.50000000  0.12997000  1.0
  Sc  Sc3  1  0.00000000  0.50000000  0.12997000  1.0
  Sc  Sc4  1  0.77385000  0.98904000  0.86664000  1.0
  Sc  Sc5  1  0.22615000  0.98904000  0.86664000  1.0
  Sc  Sc6  1  0.00000000  0.51075000  0.95907000  1.0
  Sc  Sc7  1  0.50000000  0.50084000  0.95466000  1.0
  Mn  Mn8  1  0.00000000  0.75000000  0.04332000  1.0
  Mn  Mn9  1  0.50000000  0.75000000  0.04332000  1.0
  Mn  Mn10  1  0.24999000  0.25000000  0.12997000  1.0
  Mn  Mn11  1  0.75001000  0.25000000  0.12997000  1.0
  Mn  Mn12  1  0.50000000  0.76612000  0.86470000  1.0
  Mn  Mn13  1  0.00000000  0.71171000  0.86454000  1.0
  Mn  Mn14  1  0.75072000  0.24586000  0.95103000  1.0
  Mn  Mn15  1  0.24928000  0.24586000  0.95103000  1.0
  In  In16  1  0.00000000  0.00000000  0.12997000  1.0
  In  In17  1  0.50000000  0.00000000  0.12997000  1.0
  In  In18  1  0.74999000  0.50000000  0.04332000  1.0
  In  In19  1  0.25001000  0.50000000  0.04332000  1.0
  In  In20  1  0.50000000  0.99244000  0.95781000  1.0
  In  In21  1  0.00000000  0.99108000  0.95600000  1.0
  In  In22  1  0.25992000  0.50235000  0.86384000  1.0
  In  In23  1  0.74008000  0.50235000  0.86384000  1.0
  Pd  Pd24  1  0.00000000  0.25000000  0.04332000  1.0
  Pd  Pd25  1  0.50000000  0.25000000  0.04332000  1.0
  Pd  Pd26  1  0.24999000  0.75000000  0.12997000  1.0
  Pd  Pd27  1  0.75001000  0.75000000  0.12997000  1.0
  Pd  Pd28  1  0.50000000  0.23415000  0.87644000  1.0
  Pd  Pd29  1  0.00000000  0.28868000  0.88188000  1.0
  Pd  Pd30  1  0.74992000  0.75159000  0.95565000  1.0
  Pd  Pd31  1  0.25008000  0.75159000  0.95565000  1.0
  C  C32  1  0.00000000  0.89972000  0.81596000  1.0
  O  O33  1  0.00000000  0.00616000  0.77991000  1.0
