# generated using pymatgen
data_Sc8Mn8In8Pd8CO
_symmetry_space_group_name_H-M   Pm
_cell_length_a   6.62299000
_cell_length_b   9.36632000
_cell_length_c   27.02470000
_cell_angle_alpha   90.00000000
_cell_angle_beta   90.00000000
_cell_angle_gamma   90.00000000
_symmetry_Int_Tables_number   6
_chemical_formula_structural   Sc8Mn8In8Pd8CO
_chemical_formula_sum   'Sc8 Mn8 In8 Pd8 C1 O1'
_cell_volume   1676.42439599
_cell_formula_units_Z   1
loop_
 _symmetry_equiv_pos_site_id
 _symmetry_equiv_pos_as_xyz
  1  'x, y, z'
  2  'x, -y, z'
loop_
 _atom_site_type_symbol
 _atom_site_label
 _atom_site_symmetry_multiplicity
 _atom_site_fract_x
 _atom_site_fract_y
 _atom_site_fract_z
 _atom_site_occupancy
  Sc  Sc0  2  0.00000000  0.24999000  0.95668000  1.0
  Sc  Sc1  2  0.98904000  0.22615000  0.13336000  1.0
  Sc  Sc2  1  0.50000000  0.00000000  0.87003000  1.0
  Sc  Sc3  1  0.50000000  0.50000000  0.87003000  1.0
  Sc  Sc4  1  0.50084000  0.50000000  0.04534000  1.0
  Sc  Sc5  1  0.51075000  0.00000000  0.04093000  1.0
  Mn  Mn6  2  0.24586000  0.24928000  0.04897000  1.0
  Mn  Mn7  2  0.25000000  0.24999000  0.87003000  1.0
  Mn  Mn8  1  0.71171000  0.00000000  0.13546000  1.0
  Mn  Mn9  1  0.75000000  0.00000000  0.95668000  1.0
  Mn  Mn10  1  0.75000000  0.50000000  0.95668000  1.0
  Mn  Mn11  1  0.76612000  0.50000000  0.13530000  1.0
  In  In12  2  0.50000000  0.25001000  0.95668000  1.0
  In  In13  2  0.50235000  0.25992000  0.13616000  1.0
  In  In14  1  0.00000000  0.00000000  0.87003000  1.0
  In  In15  1  0.00000000  0.50000000  0.87003000  1.0
  In  In16  1  0.99108000  0.00000000  0.04400000  1.0
  In  In17  1  0.99244000  0.50000000  0.04219000  1.0
  Pd  Pd18  2  0.75000000  0.24999000  0.87003000  1.0
  Pd  Pd19  2  0.75159000  0.25008000  0.04435000  1.0
  Pd  Pd20  1  0.23415000  0.50000000  0.12356000  1.0
  Pd  Pd21  1  0.25000000  0.00000000  0.95668000  1.0
  Pd  Pd22  1  0.25000000  0.50000000  0.95668000  1.0
  Pd  Pd23  1  0.28868000  0.00000000  0.11812000  1.0
  C  C24  1  0.89972000  0.00000000  0.18404000  1.0
  O  O25  1  0.00616000  0.00000000  0.22009000  1.0
