# generated using pymatgen
data_Li4Sc4In4Ge4CO
_symmetry_space_group_name_H-M   Pm
_cell_length_a   6.05318000
_cell_length_b   8.22048000
_cell_length_c   24.51760000
_cell_angle_alpha   90.00000000
_cell_angle_beta   90.00000000
_cell_angle_gamma   90.00000000
_symmetry_Int_Tables_number   6
_chemical_formula_structural   Li4Sc4In4Ge4CO
_chemical_formula_sum   'Li4 Sc4 In4 Ge4 C1 O1'
_cell_volume   1219.99688239
_cell_formula_units_Z   1
loop_
 _symmetry_equiv_pos_site_id
 _symmetry_equiv_pos_as_xyz
  1  'x, y, z'
  2  'x, -y, z'
loop_
 _atom_site_type_symbol
 _atom_site_label
 _atom_site_symmetry_multiplicity
 _atom_site_fract_x
 _atom_site_fract_y
 _atom_site_fract_z
 _atom_site_occupancy
  Li  Li0  1  0.52018000  0.00000000  0.11434000  1.0
  Li  Li1  1  0.52670000  0.50000000  0.11425000  1.0
  Li  Li2  1  0.95056000  0.00000000  0.96929000  1.0
  Li  Li3  1  0.95056000  0.50000000  0.96929000  1.0
  Sc  Sc4  2  0.28061000  0.24918000  0.03439000  1.0
  Sc  Sc5  2  0.67584000  0.24999000  0.90787000  1.0
  In  In6  2  0.17584000  0.24999000  0.90787000  1.0
  In  In7  2  0.77437000  0.24862000  0.05714000  1.0
  Ge  Ge8  1  0.06076000  0.50000000  0.08288000  1.0
  Ge  Ge9  1  0.06219000  0.00000000  0.08474000  1.0
  Ge  Ge10  1  0.45056000  0.00000000  0.96929000  1.0
  Ge  Ge11  1  0.45056000  0.50000000  0.96929000  1.0
  C  C12  1  0.51520000  0.50000000  0.20033000  1.0
  O  O13  1  0.49892000  0.50000000  0.24659000  1.0
