data_image0
_chemical_formula_structural       Mn8In8Ni16CO
_chemical_formula_sum              "Mn8 In8 Ni16 C1 O1"
_cell_length_a       6.11439
_cell_length_b       8.64705
_cell_length_c       26.4853
_cell_angle_alpha    90
_cell_angle_beta     90
_cell_angle_gamma    90

_space_group_name_H-M_alt    "P 1"
_space_group_IT_number       1

loop_
  _space_group_symop_operation_xyz
  'x, y, z'

loop_
  _atom_site_type_symbol
  _atom_site_label
  _atom_site_symmetry_multiplicity
  _atom_site_fract_x
  _atom_site_fract_y
  _atom_site_fract_z
  _atom_site_occupancy
  Mn  Mn1       1.0  0.00000  0.00000  0.87757  1.0000
  Mn  Mn2       1.0  0.50000  0.25000  0.95919  1.0000
  Mn  Mn3       1.0  0.50000  0.75000  0.95919  1.0000
  Mn  Mn4       1.0  0.00000  0.50000  0.87757  1.0000
  Mn  Mn5       1.0  0.99929  0.50000  0.03905  1.0000
  Mn  Mn6       1.0  0.50506  0.74163  0.11973  1.0000
  Mn  Mn7       1.0  0.50512  0.25813  0.11974  1.0000
  Mn  Mn8       1.0  0.00312  0.00003  0.04141  1.0000
  In  In1       1.0  0.00000  0.75000  0.95919  1.0000
  In  In2       1.0  0.50000  0.00000  0.87757  1.0000
  In  In3       1.0  0.00000  0.25000  0.95919  1.0000
  In  In4       1.0  0.50000  0.50000  0.87757  1.0000
  In  In5       1.0  0.99792  0.24812  0.13269  1.0000
  In  In6       1.0  0.49956  0.49989  0.03919  1.0000
  In  In7       1.0  0.99793  0.75157  0.13273  1.0000
  In  In8       1.0  0.49669  0.00013  0.03905  1.0000
  Ni  Ni1       1.0  0.25000  0.00000  0.95919  1.0000
  Ni  Ni2       1.0  0.75000  0.50000  0.95919  1.0000
  Ni  Ni3       1.0  0.75000  0.00000  0.95919  1.0000
  Ni  Ni4       1.0  0.25000  0.50000  0.95919  1.0000
  Ni  Ni5       1.0  0.75000  0.75000  0.87757  1.0000
  Ni  Ni6       1.0  0.25000  0.25000  0.87757  1.0000
  Ni  Ni7       1.0  0.25000  0.75000  0.87757  1.0000
  Ni  Ni8       1.0  0.75000  0.25000  0.87757  1.0000
  Ni  Ni9       1.0  0.23547  0.49989  0.11558  1.0000
  Ni  Ni10      1.0  0.75812  0.99982  0.11515  1.0000
  Ni  Ni11      1.0  0.76504  0.49995  0.11580  1.0000
  Ni  Ni12      1.0  0.26120  0.00007  0.12362  1.0000
  Ni  Ni13      1.0  0.76048  0.24857  0.04270  1.0000
  Ni  Ni14      1.0  0.23849  0.75068  0.04355  1.0000
  Ni  Ni15      1.0  0.23856  0.24931  0.04353  1.0000
  Ni  Ni16      1.0  0.76053  0.75141  0.04273  1.0000
  C   C1        1.0  0.37888  0.99992  0.18470  1.0000
  O   O1        1.0  0.43506  0.99991  0.22664  1.0000
