# generated using pymatgen
data_Cu24Pd8CO
_symmetry_space_group_name_H-M   'P 1'
_cell_length_a   7.51398000
_cell_length_b   7.51398000
_cell_length_c   25.63550000
_cell_angle_alpha   90.00000000
_cell_angle_beta   90.00000000
_cell_angle_gamma   90.00000000
_symmetry_Int_Tables_number   1
_chemical_formula_structural   Cu24Pd8CO
_chemical_formula_sum   'Cu24 Pd8 C1 O1'
_cell_volume   1447.37764956
_cell_formula_units_Z   1
loop_
 _symmetry_equiv_pos_site_id
 _symmetry_equiv_pos_as_xyz
  1  'x, y, z'
loop_
 _atom_site_type_symbol
 _atom_site_label
 _atom_site_symmetry_multiplicity
 _atom_site_fract_x
 _atom_site_fract_y
 _atom_site_fract_z
 _atom_site_occupancy
  Cu  Cu0  1  0.75000000  0.00000000  0.03664000  1.0
  Cu  Cu1  1  0.00000000  0.75000000  0.03664000  1.0
  Cu  Cu2  1  0.00000000  0.00000000  0.10992000  1.0
  Cu  Cu3  1  0.75000000  0.00000000  0.89008000  1.0
  Cu  Cu4  1  0.00000000  0.75000000  0.89008000  1.0
  Cu  Cu5  1  0.00000000  0.00000000  0.96336000  1.0
  Cu  Cu6  1  0.75000000  0.50000000  0.03664000  1.0
  Cu  Cu7  1  0.00000000  0.25000000  0.03664000  1.0
  Cu  Cu8  1  0.00000000  0.50000000  0.10992000  1.0
  Cu  Cu9  1  0.75000000  0.50000000  0.89008000  1.0
  Cu  Cu10  1  0.00000000  0.25000000  0.89008000  1.0
  Cu  Cu11  1  0.00000000  0.50000000  0.96336000  1.0
  Cu  Cu12  1  0.25000000  0.00000000  0.03664000  1.0
  Cu  Cu13  1  0.50000000  0.75000000  0.03664000  1.0
  Cu  Cu14  1  0.50000000  0.00000000  0.10992000  1.0
  Cu  Cu15  1  0.25000000  0.00000000  0.89008000  1.0
  Cu  Cu16  1  0.50000000  0.75000000  0.89008000  1.0
  Cu  Cu17  1  0.50000000  0.00000000  0.96336000  1.0
  Cu  Cu18  1  0.25000000  0.50000000  0.03664000  1.0
  Cu  Cu19  1  0.50000000  0.25000000  0.03664000  1.0
  Cu  Cu20  1  0.50000000  0.50000000  0.10992000  1.0
  Cu  Cu21  1  0.25000000  0.50000000  0.89008000  1.0
  Cu  Cu22  1  0.50000000  0.25000000  0.89008000  1.0
  Cu  Cu23  1  0.50000000  0.50000000  0.96336000  1.0
  Pd  Pd24  1  0.75000000  0.75000000  0.10992000  1.0
  Pd  Pd25  1  0.75000000  0.75000000  0.96336000  1.0
  Pd  Pd26  1  0.75000000  0.25000000  0.10992000  1.0
  Pd  Pd27  1  0.75000000  0.25000000  0.96336000  1.0
  Pd  Pd28  1  0.25000000  0.75000000  0.10992000  1.0
  Pd  Pd29  1  0.25000000  0.75000000  0.96336000  1.0
  Pd  Pd30  1  0.25000000  0.25000000  0.10992000  1.0
  Pd  Pd31  1  0.25000000  0.25000000  0.96336000  1.0
  C  C32  1  0.00000000  0.00000000  0.18403000  1.0
  O  O33  1  0.00000000  0.00000000  0.22889000  1.0
