# generated using pymatgen
data_MgInNi2
_symmetry_space_group_name_H-M   'P 1'
_cell_length_a   6.23499000
_cell_length_b   8.81761000
_cell_length_c   26.61320000
_cell_angle_alpha   90.00000000
_cell_angle_beta   90.00000000
_cell_angle_gamma   90.00000000
_symmetry_Int_Tables_number   1
_chemical_formula_structural   MgInNi2
_chemical_formula_sum   'Mg8 In8 Ni16'
_cell_volume   1463.13279640
_cell_formula_units_Z   8
loop_
 _symmetry_equiv_pos_site_id
 _symmetry_equiv_pos_as_xyz
  1  'x, y, z'
loop_
 _atom_site_type_symbol
 _atom_site_label
 _atom_site_symmetry_multiplicity
 _atom_site_fract_x
 _atom_site_fract_y
 _atom_site_fract_z
 _atom_site_occupancy
  Mg  Mg0  1  0.00000000  0.00000000  0.87575000  1.0
  Mg  Mg1  1  0.50000000  0.25000000  0.95858000  1.0
  Mg  Mg2  1  0.50000000  0.75000000  0.95858000  1.0
  Mg  Mg3  1  0.00000000  0.50000000  0.87575000  1.0
  Mg  Mg4  1  0.00000000  0.50000000  0.03820000  1.0
  Mg  Mg5  1  0.50000000  0.75007000  0.12855000  1.0
  Mg  Mg6  1  0.50000000  0.24993000  0.12855000  1.0
  Mg  Mg7  1  0.00000000  0.00000000  0.03820000  1.0
  In  In8  1  0.00000000  0.75000000  0.95858000  1.0
  In  In9  1  0.50000000  0.00000000  0.87575000  1.0
  In  In10  1  0.00000000  0.25000000  0.95858000  1.0
  In  In11  1  0.50000000  0.50000000  0.87575000  1.0
  In  In12  1  0.00000000  0.25001000  0.13241000  1.0
  In  In13  1  0.50000000  0.50000000  0.04111000  1.0
  In  In14  1  0.00000000  0.74999000  0.13241000  1.0
  In  In15  1  0.50000000  0.00000000  0.04111000  1.0
  Ni  Ni16  1  0.25000000  0.00000000  0.95858000  1.0
  Ni  Ni17  1  0.75000000  0.50000000  0.95858000  1.0
  Ni  Ni18  1  0.75000000  0.00000000  0.95858000  1.0
  Ni  Ni19  1  0.25000000  0.50000000  0.95858000  1.0
  Ni  Ni20  1  0.75000000  0.75000000  0.87575000  1.0
  Ni  Ni21  1  0.25000000  0.25000000  0.87575000  1.0
  Ni  Ni22  1  0.25000000  0.75000000  0.87575000  1.0
  Ni  Ni23  1  0.75000000  0.25000000  0.87575000  1.0
  Ni  Ni24  1  0.22879000  0.50000000  0.11696000  1.0
  Ni  Ni25  1  0.77126000  0.00000000  0.11696000  1.0
  Ni  Ni26  1  0.77121000  0.50000000  0.11696000  1.0
  Ni  Ni27  1  0.22874000  0.00000000  0.11696000  1.0
  Ni  Ni28  1  0.75325000  0.24999000  0.04343000  1.0
  Ni  Ni29  1  0.24675000  0.75001000  0.04343000  1.0
  Ni  Ni30  1  0.24675000  0.24999000  0.04343000  1.0
  Ni  Ni31  1  0.75325000  0.75001000  0.04343000  1.0
