# generated using pymatgen
data_MgInNi2
_symmetry_space_group_name_H-M   Pmm2
_cell_length_a   6.23499000
_cell_length_b   8.81761000
_cell_length_c   26.61320000
_cell_angle_alpha   90.00000000
_cell_angle_beta   90.00000000
_cell_angle_gamma   90.00000000
_symmetry_Int_Tables_number   25
_chemical_formula_structural   MgInNi2
_chemical_formula_sum   'Mg8 In8 Ni16'
_cell_volume   1463.13279640
_cell_formula_units_Z   8
loop_
 _symmetry_equiv_pos_site_id
 _symmetry_equiv_pos_as_xyz
  1  'x, y, z'
  2  '-x, -y, z'
  3  '-x, y, z'
  4  'x, -y, z'
loop_
 _atom_site_type_symbol
 _atom_site_label
 _atom_site_symmetry_multiplicity
 _atom_site_fract_x
 _atom_site_fract_y
 _atom_site_fract_z
 _atom_site_occupancy
  Mg  Mg0  2  0.50000000  0.24993000  0.12855000  1.0
  Mg  Mg1  2  0.50000000  0.25000000  0.95858000  1.0
  Mg  Mg2  1  0.00000000  0.00000000  0.03820000  1.0
  Mg  Mg3  1  0.00000000  0.00000000  0.87575000  1.0
  Mg  Mg4  1  0.00000000  0.50000000  0.03820000  1.0
  Mg  Mg5  1  0.00000000  0.50000000  0.87575000  1.0
  In  In6  2  0.00000000  0.25000000  0.95858000  1.0
  In  In7  2  0.00000000  0.25001000  0.13241000  1.0
  In  In8  1  0.50000000  0.00000000  0.04111000  1.0
  In  In9  1  0.50000000  0.00000000  0.87575000  1.0
  In  In10  1  0.50000000  0.50000000  0.04111000  1.0
  In  In11  1  0.50000000  0.50000000  0.87575000  1.0
  Ni  Ni12  4  0.24675000  0.24999000  0.04343000  1.0
  Ni  Ni13  4  0.25000000  0.25000000  0.87575000  1.0
  Ni  Ni14  2  0.22874000  0.00000000  0.11696000  1.0
  Ni  Ni15  2  0.22879000  0.50000000  0.11696000  1.0
  Ni  Ni16  2  0.25000000  0.00000000  0.95858000  1.0
  Ni  Ni17  2  0.25000000  0.50000000  0.95858000  1.0
