# generated using pymatgen
data_Fe8Co16Si8C
_symmetry_space_group_name_H-M   Pm
_cell_length_a   5.64511000
_cell_length_b   7.98338000
_cell_length_c   25.98750000
_cell_angle_alpha   90.00000000
_cell_angle_beta   90.00000000
_cell_angle_gamma   90.00000000
_symmetry_Int_Tables_number   6
_chemical_formula_structural   Fe8Co16Si8C
_chemical_formula_sum   'Fe8 Co16 Si8 C1'
_cell_volume   1171.18017684
_cell_formula_units_Z   1
loop_
 _symmetry_equiv_pos_site_id
 _symmetry_equiv_pos_as_xyz
  1  'x, y, z'
  2  'x, -y, z'
loop_
 _atom_site_type_symbol
 _atom_site_label
 _atom_site_symmetry_multiplicity
 _atom_site_fract_x
 _atom_site_fract_y
 _atom_site_fract_z
 _atom_site_occupancy
  Fe  Fe0  2  0.00000000  0.25000000  0.88480000  1.0
  Fe  Fe1  2  0.00259000  0.25167000  0.03863000  1.0
  Fe  Fe2  1  0.49390000  0.50000000  0.11775000  1.0
  Fe  Fe3  1  0.50000000  0.00000000  0.96160000  1.0
  Fe  Fe4  1  0.50000000  0.50000000  0.96160000  1.0
  Fe  Fe5  1  0.54173000  0.00000000  0.11756000  1.0
  Co  Co6  2  0.24600000  0.23614000  0.11386000  1.0
  Co  Co7  2  0.25000000  0.25000000  0.96160000  1.0
  Co  Co8  2  0.75000000  0.25000000  0.96160000  1.0
  Co  Co9  2  0.75008000  0.25998000  0.11040000  1.0
  Co  Co10  1  0.25000000  0.00000000  0.88480000  1.0
  Co  Co11  1  0.25000000  0.50000000  0.88480000  1.0
  Co  Co12  1  0.25224000  0.00000000  0.03854000  1.0
  Co  Co13  1  0.25317000  0.50000000  0.03852000  1.0
  Co  Co14  1  0.74766000  0.50000000  0.03778000  1.0
  Co  Co15  1  0.75000000  0.00000000  0.88480000  1.0
  Co  Co16  1  0.75000000  0.50000000  0.88480000  1.0
  Co  Co17  1  0.75277000  0.00000000  0.03558000  1.0
  Si  Si18  2  0.49789000  0.24874000  0.03949000  1.0
  Si  Si19  2  0.50000000  0.25000000  0.88480000  1.0
  Si  Si20  1  0.00000000  0.00000000  0.96160000  1.0
  Si  Si21  1  0.00000000  0.50000000  0.96160000  1.0
  Si  Si22  1  0.00646000  0.50000000  0.11508000  1.0
  Si  Si23  1  0.94875000  0.00000000  0.11573000  1.0
  C  C24  1  0.24761000  0.00000000  0.14088000  1.0
