# generated using pymatgen
data_Ca16Ni16C
_symmetry_space_group_name_H-M   P1
_cell_length_a   6.93038000
_cell_length_b   9.80104000
_cell_length_c   27.35080000
_cell_angle_alpha   90.00000000
_cell_angle_beta   90.00000000
_cell_angle_gamma   90.00000000
_symmetry_Int_Tables_number   1
_chemical_formula_structural   Ca16Ni16C
_chemical_formula_sum   'Ca16 Ni16 C1'
_cell_volume   1857.80121907
_cell_formula_units_Z   1
loop_
 _symmetry_equiv_pos_site_id
 _symmetry_equiv_pos_as_xyz
  1  'x, y, z'
loop_
 _atom_site_type_symbol
 _atom_site_label
 _atom_site_symmetry_multiplicity
 _atom_site_fract_x
 _atom_site_fract_y
 _atom_site_fract_z
 _atom_site_occupancy
  Ca  Ca0  1  -0.00000000  0.25000000  0.95521000  1.0
  Ca  Ca1  1  -0.00000000  0.75000000  0.95521000  1.0
  Ca  Ca2  1  -0.00000000  0.50000000  0.86562000  1.0
  Ca  Ca3  1  0.00000000  0.00000000  0.86562000  1.0
  Ca  Ca4  1  0.00525000  0.50236000  0.04332000  1.0
  Ca  Ca5  1  0.00526000  0.99762000  0.04332000  1.0
  Ca  Ca6  1  0.00535000  0.75000000  0.14104000  1.0
  Ca  Ca7  1  0.49459000  0.74999000  0.14104000  1.0
  Ca  Ca8  1  0.49470000  0.99762000  0.04332000  1.0
  Ca  Ca9  1  0.49472000  0.50236000  0.04332000  1.0
  Ca  Ca10  1  0.50000000  0.00000000  0.86562000  1.0
  Ca  Ca11  1  0.50000000  0.25000000  0.95521000  1.0
  Ca  Ca12  1  0.50000000  0.50000000  0.86562000  1.0
  Ca  Ca13  1  0.50000000  0.75000000  0.95521000  1.0
  Ca  Ca14  1  0.55316000  0.25003000  0.12949000  1.0
  Ca  Ca15  1  0.94682000  0.24999000  0.12951000  1.0
  Ni  Ni16  1  0.24997000  0.74999000  0.04919000  1.0
  Ni  Ni17  1  0.25000000  0.00000000  0.95521000  1.0
  Ni  Ni18  1  0.25000000  0.25000000  0.86562000  1.0
  Ni  Ni19  1  0.25000000  0.50000000  0.95521000  1.0
  Ni  Ni20  1  0.25000000  0.75000000  0.86562000  1.0
  Ni  Ni21  1  0.25001000  0.42082000  0.13812000  1.0
  Ni  Ni22  1  0.25002000  0.07927000  0.13815000  1.0
  Ni  Ni23  1  0.25007000  0.24992000  0.05566000  1.0
  Ni  Ni24  1  0.74990000  0.96955000  0.12070000  1.0
  Ni  Ni25  1  0.74999000  0.25000000  0.03763000  1.0
  Ni  Ni26  1  0.74999000  0.74997000  0.06062000  1.0
  Ni  Ni27  1  0.75000000  0.00000000  0.95521000  1.0
  Ni  Ni28  1  0.75000000  0.25000000  0.86562000  1.0
  Ni  Ni29  1  0.75000000  0.50000000  0.95521000  1.0
  Ni  Ni30  1  0.75000000  0.75000000  0.86562000  1.0
  Ni  Ni31  1  0.75002000  0.53050000  0.12071000  1.0
  C  C32  1  0.25000000  0.25006000  0.16257000  1.0
