# generated using pymatgen
data_Fe8Co16Si8CO
_symmetry_space_group_name_H-M   'P 1'
_cell_length_a   5.64511000
_cell_length_b   7.98338000
_cell_length_c   25.98750000
_cell_angle_alpha   90.00000000
_cell_angle_beta   90.00000000
_cell_angle_gamma   90.00000000
_symmetry_Int_Tables_number   1
_chemical_formula_structural   Fe8Co16Si8CO
_chemical_formula_sum   'Fe8 Co16 Si8 C1 O1'
_cell_volume   1171.18017684
_cell_formula_units_Z   1
loop_
 _symmetry_equiv_pos_site_id
 _symmetry_equiv_pos_as_xyz
  1  'x, y, z'
loop_
 _atom_site_type_symbol
 _atom_site_label
 _atom_site_symmetry_multiplicity
 _atom_site_fract_x
 _atom_site_fract_y
 _atom_site_fract_z
 _atom_site_occupancy
  Fe  Fe0  1  0.00000000  0.75000000  0.88480000  1.0
  Fe  Fe1  1  0.50000000  0.00000000  0.96160000  1.0
  Fe  Fe2  1  0.50000000  0.50000000  0.96160000  1.0
  Fe  Fe3  1  0.00000000  0.25000000  0.88480000  1.0
  Fe  Fe4  1  0.00000000  0.24981000  0.03727000  1.0
  Fe  Fe5  1  0.50000000  0.50000000  0.11606000  1.0
  Fe  Fe6  1  0.50000000  0.00000000  0.11614000  1.0
  Fe  Fe7  1  0.00000000  0.75019000  0.03727000  1.0
  Co  Co8  1  0.25000000  0.75000000  0.96160000  1.0
  Co  Co9  1  0.75000000  0.25000000  0.96160000  1.0
  Co  Co10  1  0.75000000  0.75000000  0.96160000  1.0
  Co  Co11  1  0.25000000  0.25000000  0.96160000  1.0
  Co  Co12  1  0.75000000  0.50000000  0.88480000  1.0
  Co  Co13  1  0.25000000  0.00000000  0.88480000  1.0
  Co  Co14  1  0.25000000  0.50000000  0.88480000  1.0
  Co  Co15  1  0.75000000  0.00000000  0.88480000  1.0
  Co  Co16  1  0.24174000  0.25070000  0.11020000  1.0
  Co  Co17  1  0.75826000  0.74930000  0.11020000  1.0
  Co  Co18  1  0.75826000  0.25070000  0.11020000  1.0
  Co  Co19  1  0.24174000  0.74930000  0.11020000  1.0
  Co  Co20  1  0.75011000  0.00000000  0.03824000  1.0
  Co  Co21  1  0.25122000  0.50000000  0.03739000  1.0
  Co  Co22  1  0.24989000  0.00000000  0.03824000  1.0
  Co  Co23  1  0.74878000  0.50000000  0.03739000  1.0
  Si  Si24  1  0.00000000  0.50000000  0.96160000  1.0
  Si  Si25  1  0.50000000  0.75000000  0.88480000  1.0
  Si  Si26  1  0.00000000  0.00000000  0.96160000  1.0
  Si  Si27  1  0.50000000  0.25000000  0.88480000  1.0
  Si  Si28  1  0.00000000  0.00000000  0.12145000  1.0
  Si  Si29  1  0.50000000  0.24979000  0.03878000  1.0
  Si  Si30  1  0.00000000  0.50000000  0.11550000  1.0
  Si  Si31  1  0.50000000  0.75021000  0.03878000  1.0
  C  C32  1  0.00000000  0.00000000  0.19419000  1.0
  O  O33  1  0.00000000  0.00000000  0.23864000  1.0
