# generated using pymatgen
data_LiVGePd
_symmetry_space_group_name_H-M   'P 1'
_cell_length_a   4.32057000
_cell_length_b   4.70281000
_cell_length_c   24.26620000
_cell_angle_alpha   90.00000000
_cell_angle_beta   90.00000000
_cell_angle_gamma   90.00000000
_symmetry_Int_Tables_number   1
_chemical_formula_structural   LiVGePd
_chemical_formula_sum   'Li2 V2 Ge2 Pd2'
_cell_volume   493.06054507
_cell_formula_units_Z   2
loop_
 _symmetry_equiv_pos_site_id
 _symmetry_equiv_pos_as_xyz
  1  'x, y, z'
loop_
 _atom_site_type_symbol
 _atom_site_label
 _atom_site_symmetry_multiplicity
 _atom_site_fract_x
 _atom_site_fract_y
 _atom_site_fract_z
 _atom_site_occupancy
  Li  Li0  1  0.00000000  0.50000000  0.97070000  1.0
  Li  Li1  1  0.00000000  0.50000000  0.09258000  1.0
  V  V2  1  0.50000000  0.00000000  0.97070000  1.0
  V  V3  1  0.50000000  0.00000000  0.06689750  1.0
  Ge  Ge4  1  0.00000000  0.00000000  0.91210000  1.0
  Ge  Ge5  1  0.00000000  0.00000000  0.02300000  1.0
  Pd  Pd6  1  0.50000000  0.50000000  0.91210000  1.0
  Pd  Pd7  1  0.50000000  0.50000000  0.03431000  1.0
