data_image0
_chemical_formula_structural       Sc8Rh8CO
_chemical_formula_sum              "Sc8 Rh8 C1 O1"
_cell_length_a       6.47981
_cell_length_b       6.47981
_cell_length_c       24.8599
_cell_angle_alpha    90
_cell_angle_beta     90
_cell_angle_gamma    90

_space_group_name_H-M_alt    "P 1"
_space_group_IT_number       1

loop_
  _space_group_symop_operation_xyz
  'x, y, z'

loop_
  _atom_site_type_symbol
  _atom_site_label
  _atom_site_symmetry_multiplicity
  _atom_site_fract_x
  _atom_site_fract_y
  _atom_site_fract_z
  _atom_site_occupancy
  Sc  Sc1       1.0  0.00000  0.00000  0.91502  1.0000
  Sc  Sc2       1.0  0.00000  0.00000  0.04535  1.0000
  Sc  Sc3       1.0  0.00000  0.50000  0.91502  1.0000
  Sc  Sc4       1.0  0.00000  0.50000  0.04535  1.0000
  Sc  Sc5       1.0  0.50000  0.00000  0.91502  1.0000
  Sc  Sc6       1.0  0.50000  0.00000  0.04535  1.0000
  Sc  Sc7       1.0  0.50000  0.50000  0.91502  1.0000
  Sc  Sc8       1.0  0.50000  0.50000  0.04535  1.0000
  Rh  Rh1       1.0  0.25000  0.25000  0.98019  1.0000
  Rh  Rh2       1.0  0.25000  0.25000  0.11051  1.0000
  Rh  Rh3       1.0  0.25000  0.75000  0.98019  1.0000
  Rh  Rh4       1.0  0.25000  0.75000  0.11051  1.0000
  Rh  Rh5       1.0  0.75000  0.25000  0.98019  1.0000
  Rh  Rh6       1.0  0.75000  0.25000  0.11051  1.0000
  Rh  Rh7       1.0  0.75000  0.75000  0.98019  1.0000
  Rh  Rh8       1.0  0.75000  0.75000  0.11051  1.0000
  C   C1        1.0  0.25000  0.25000  0.18694  1.0000
  O   O1        1.0  0.25000  0.25000  0.23320  1.0000
