# generated using pymatgen
data_Sc8Rh8CO
_symmetry_space_group_name_H-M   P1
_cell_length_a   6.47981000
_cell_length_b   6.47981000
_cell_length_c   24.85990000
_cell_angle_alpha   90.00000000
_cell_angle_beta   90.00000000
_cell_angle_gamma   90.00000000
_symmetry_Int_Tables_number   1
_chemical_formula_structural   Sc8Rh8CO
_chemical_formula_sum   'Sc8 Rh8 C1 O1'
_cell_volume   1043.81593084
_cell_formula_units_Z   1
loop_
 _symmetry_equiv_pos_site_id
 _symmetry_equiv_pos_as_xyz
  1  'x, y, z'
loop_
 _atom_site_type_symbol
 _atom_site_label
 _atom_site_symmetry_multiplicity
 _atom_site_fract_x
 _atom_site_fract_y
 _atom_site_fract_z
 _atom_site_occupancy
  Sc  Sc0  1  0.00000000  0.00000000  0.91502000  1.0
  Sc  Sc1  1  0.00000000  0.50000000  0.91502000  1.0
  Sc  Sc2  1  0.50000000  0.00000000  0.91502000  1.0
  Sc  Sc3  1  0.50000000  0.50000000  0.91502000  1.0
  Sc  Sc4  1  0.50182000  0.50183000  0.04933000  1.0
  Sc  Sc5  1  0.50182000  0.99817000  0.04932000  1.0
  Sc  Sc6  1  0.99817000  0.99817000  0.04932000  1.0
  Sc  Sc7  1  0.99818000  0.50182000  0.04933000  1.0
  Rh  Rh8  1  0.24998000  0.75007000  0.10160000  1.0
  Rh  Rh9  1  0.25000000  0.25000000  0.98019000  1.0
  Rh  Rh10  1  0.25000000  0.75000000  0.98019000  1.0
  Rh  Rh11  1  0.25019000  0.24998000  0.10439000  1.0
  Rh  Rh12  1  0.74989000  0.24990000  0.10162000  1.0
  Rh  Rh13  1  0.74995000  0.75009000  0.10212000  1.0
  Rh  Rh14  1  0.75000000  0.25000000  0.98019000  1.0
  Rh  Rh15  1  0.75000000  0.75000000  0.98019000  1.0
  C  C16  1  0.25004000  0.25000000  0.18054000  1.0
  O  O17  1  0.24999000  0.25000000  0.22702000  1.0
