# generated using pymatgen
data_LiScGaPd
_symmetry_space_group_name_H-M   'P 1'
_cell_length_a   6.35289000
_cell_length_b   6.35289000
_cell_length_c   24.76470000
_cell_angle_alpha   90.00000000
_cell_angle_beta   90.00000000
_cell_angle_gamma   90.00000000
_symmetry_Int_Tables_number   1
_chemical_formula_structural   LiScGaPd
_chemical_formula_sum   'Li4 Sc4 Ga4 Pd4'
_cell_volume   999.48376137
_cell_formula_units_Z   4
loop_
 _symmetry_equiv_pos_site_id
 _symmetry_equiv_pos_as_xyz
  1  'x, y, z'
loop_
 _atom_site_type_symbol
 _atom_site_label
 _atom_site_symmetry_multiplicity
 _atom_site_fract_x
 _atom_site_fract_y
 _atom_site_fract_z
 _atom_site_occupancy
  Li  Li0  1  0.50000000  0.00000000  0.03207000  1.0
  Li  Li1  1  0.50000000  0.50000000  0.88130000  1.0
  Li  Li2  1  0.00000000  0.00000000  0.88130000  1.0
  Li  Li3  1  0.00000000  0.50000000  0.03207000  1.0
  Sc  Sc4  1  0.75000000  0.25000000  0.09620000  1.0
  Sc  Sc5  1  0.74990000  0.75005000  0.96775000  1.0
  Sc  Sc6  1  0.25010000  0.24995000  0.96775000  1.0
  Sc  Sc7  1  0.25000000  0.75000000  0.09620000  1.0
  Ga  Ga8  1  0.75000000  0.75000000  0.09620000  1.0
  Ga  Ga9  1  0.75009000  0.25004000  0.96627000  1.0
  Ga  Ga10  1  0.24991000  0.74996000  0.96627000  1.0
  Ga  Ga11  1  0.25000000  0.25000000  0.09620000  1.0
  Pd  Pd12  1  0.00000000  0.00000000  0.03207000  1.0
  Pd  Pd13  1  0.00000000  0.50000000  0.90973000  1.0
  Pd  Pd14  1  0.50000000  0.00000000  0.90974000  1.0
  Pd  Pd15  1  0.50000000  0.50000000  0.03207000  1.0
