# generated using pymatgen
data_LiScGaPd
_symmetry_space_group_name_H-M   P2
_cell_length_a   6.35289000
_cell_length_b   24.76470000
_cell_length_c   6.35289000
_cell_angle_alpha   90.00000000
_cell_angle_beta   90.00000000
_cell_angle_gamma   90.00000000
_symmetry_Int_Tables_number   3
_chemical_formula_structural   LiScGaPd
_chemical_formula_sum   'Li4 Sc4 Ga4 Pd4'
_cell_volume   999.48376137
_cell_formula_units_Z   4
loop_
 _symmetry_equiv_pos_site_id
 _symmetry_equiv_pos_as_xyz
  1  'x, y, z'
  2  '-x, y, -z'
  3  'z+1/2, y, x+1/2'
  4  '-z+1/2, y, -x+1/2'
loop_
 _atom_site_type_symbol
 _atom_site_label
 _atom_site_symmetry_multiplicity
 _atom_site_fract_x
 _atom_site_fract_y
 _atom_site_fract_z
 _atom_site_occupancy
  Li  Li0  2  0.00000000  0.11870000  0.00000000  1.0
  Li  Li1  1  0.00000000  0.96793000  0.50000000  1.0
  Li  Li2  1  0.50000000  0.96793000  0.00000000  1.0
  Sc  Sc3  2  0.24995000  0.03225000  0.25010000  1.0
  Sc  Sc4  2  0.25000000  0.90380000  0.75000000  1.0
  Ga  Ga5  2  0.25000000  0.90380000  0.25000000  1.0
  Ga  Ga6  2  0.25004000  0.03373000  0.75009000  1.0
  Pd  Pd7  2  0.00000000  0.96793000  0.00000000  1.0
  Pd  Pd8  1  0.00000000  0.09026000  0.50000000  1.0
  Pd  Pd9  1  0.50000000  0.09027000  0.00000000  1.0
