# generated using pymatgen
data_Li8Hf8Sn8Pd8CO
_symmetry_space_group_name_H-M   Pm
_cell_length_a   6.67688000
_cell_length_b   9.44254000
_cell_length_c   27.08190000
_cell_angle_alpha   90.00000000
_cell_angle_beta   90.00000000
_cell_angle_gamma   90.00000000
_symmetry_Int_Tables_number   6
_chemical_formula_structural   Li8Hf8Sn8Pd8CO
_chemical_formula_sum   'Li8 Hf8 Sn8 Pd8 C1 O1'
_cell_volume   1707.42460009
_cell_formula_units_Z   1
loop_
 _symmetry_equiv_pos_site_id
 _symmetry_equiv_pos_as_xyz
  1  'x, y, z'
  2  'x, -y, z'
loop_
 _atom_site_type_symbol
 _atom_site_label
 _atom_site_symmetry_multiplicity
 _atom_site_fract_x
 _atom_site_fract_y
 _atom_site_fract_z
 _atom_site_occupancy
  Li  Li0  2  0.50000000  0.25002000  0.86925000  1.0
  Li  Li1  2  0.50657000  0.24740000  0.03648000  1.0
  Li  Li2  1  0.00000000  0.00000000  0.95642000  1.0
  Li  Li3  1  0.00000000  0.50000000  0.95642000  1.0
  Li  Li4  1  0.95302000  0.00000000  0.15404000  1.0
  Li  Li5  1  0.96470000  0.50000000  0.14758000  1.0
  Hf  Hf6  2  0.00000000  0.24998000  0.86925000  1.0
  Hf  Hf7  2  0.05591000  0.24954000  0.06398000  1.0
  Hf  Hf8  1  0.42544000  0.00000000  0.11804000  1.0
  Hf  Hf9  1  0.42703000  0.50000000  0.11320000  1.0
  Hf  Hf10  1  0.50000000  0.00000000  0.95642000  1.0
  Hf  Hf11  1  0.50000000  0.50000000  0.95642000  1.0
  Sn  Sn12  2  0.25000000  0.24998000  0.95642000  1.0
  Sn  Sn13  2  0.26122000  0.25258000  0.16128000  1.0
  Sn  Sn14  1  0.75000000  0.00000000  0.86925000  1.0
  Sn  Sn15  1  0.75000000  0.50000000  0.86925000  1.0
  Sn  Sn16  1  0.77823000  0.00000000  0.04981000  1.0
  Sn  Sn17  1  0.78075000  0.50000000  0.04797000  1.0
  Pd  Pd18  2  0.68828000  0.25868000  0.11474000  1.0
  Pd  Pd19  2  0.75000000  0.24998000  0.95642000  1.0
  Pd  Pd20  1  0.21968000  0.50000000  0.03146000  1.0
  Pd  Pd21  1  0.22251000  0.00000000  0.03058000  1.0
  Pd  Pd22  1  0.25000000  0.00000000  0.86925000  1.0
  Pd  Pd23  1  0.25000000  0.50000000  0.86925000  1.0
  C  C24  1  0.60716000  0.00000000  0.18600000  1.0
  O  O25  1  0.71245000  0.00000000  0.22066000  1.0
