# generated using pymatgen
data_Li4Al4Fe4Pd4CO
_symmetry_space_group_name_H-M   P1
_cell_length_a   5.15535000
_cell_length_b   8.84236000
_cell_length_c   23.55420000
_cell_angle_alpha   90.00000000
_cell_angle_beta   90.00000000
_cell_angle_gamma   90.00000000
_symmetry_Int_Tables_number   1
_chemical_formula_structural   Li4Al4Fe4Pd4CO
_chemical_formula_sum   'Li4 Al4 Fe4 Pd4 C1 O1'
_cell_volume   1073.72905668
_cell_formula_units_Z   1
loop_
 _symmetry_equiv_pos_site_id
 _symmetry_equiv_pos_as_xyz
  1  'x, y, z'
loop_
 _atom_site_type_symbol
 _atom_site_label
 _atom_site_symmetry_multiplicity
 _atom_site_fract_x
 _atom_site_fract_y
 _atom_site_fract_z
 _atom_site_occupancy
  Li  Li0  1  0.69168000  0.24926000  0.02636000  1.0
  Li  Li1  1  0.69180000  0.75073000  0.02630000  1.0
  Li  Li2  1  0.95472000  0.25000000  0.92455000  1.0
  Li  Li3  1  0.95472000  0.75000000  0.92455000  1.0
  Al  Al4  1  0.04160000  0.49999000  0.07029000  1.0
  Al  Al5  1  0.04427000  0.00000000  0.07216000  1.0
  Al  Al6  1  0.30315000  0.00000000  0.97485000  1.0
  Al  Al7  1  0.30315000  0.50000000  0.97485000  1.0
  Fe  Fe8  1  0.56808000  0.99988000  0.05457000  1.0
  Fe  Fe9  1  0.57151000  0.50011000  0.05352000  1.0
  Fe  Fe10  1  0.80315000  0.00000000  0.97485000  1.0
  Fe  Fe11  1  0.80315000  0.50000000  0.97485000  1.0
  Pd  Pd12  1  0.18898000  0.24980000  0.03132000  1.0
  Pd  Pd13  1  0.18905000  0.75019000  0.03133000  1.0
  Pd  Pd14  1  0.45472000  0.25000000  0.92455000  1.0
  Pd  Pd15  1  0.45472000  0.75000000  0.92455000  1.0
  C  C16  1  0.00856000  0.99999000  0.15753000  1.0
  O  O17  1  0.97385000  0.99997000  0.20578000  1.0
