# generated using pymatgen
data_Li4Mg4Ag4Sn4C
_symmetry_space_group_name_H-M   'P 1'
_cell_length_a   6.75899000
_cell_length_b   6.75899000
_cell_length_c   25.06920000
_cell_angle_alpha   90.00000000
_cell_angle_beta   90.00000000
_cell_angle_gamma   90.00000000
_symmetry_Int_Tables_number   1
_chemical_formula_structural   Li4Mg4Ag4Sn4C
_chemical_formula_sum   'Li4 Mg4 Ag4 Sn4 C1'
_cell_volume   1145.25997455
_cell_formula_units_Z   1
loop_
 _symmetry_equiv_pos_site_id
 _symmetry_equiv_pos_as_xyz
  1  'x, y, z'
loop_
 _atom_site_type_symbol
 _atom_site_label
 _atom_site_symmetry_multiplicity
 _atom_site_fract_x
 _atom_site_fract_y
 _atom_site_fract_z
 _atom_site_occupancy
  Li  Li0  1  0.74914500  0.74914500  0.96607000  1
  Li  Li1  1  0.75000000  0.24999000  0.10110000  1
  Li  Li2  1  0.24999000  0.75000000  0.10110000  1
  Li  Li3  1  0.25034500  0.25034500  0.95916000  1
  Mg  Mg4  1  0.25076000  0.74944000  0.96300000  1
  Mg  Mg5  1  0.24999500  0.24999500  0.10110000  1
  Mg  Mg6  1  0.74999500  0.74999500  0.10110000  1
  Mg  Mg7  1  0.74944000  0.25076000  0.96300000  1
  Ag  Ag8  1  0.98413500  0.98413500  0.90496000  1
  Ag  Ag9  1  0.00000000  0.49999000  0.03370000  1
  Ag  Ag10  1  0.49999000  0.00000000  0.03370000  1
  Ag  Ag11  1  0.51441500  0.51441500  0.90427000  1
  Sn  Sn12  1  0.97444000  0.52577000  0.87198000  1
  Sn  Sn13  1  0.99999500  0.99999500  0.03370000  1
  Sn  Sn14  1  0.49999500  0.49999500  0.03370000  1
  Sn  Sn15  1  0.52577000  0.97444000  0.87198000  1
  C  C16  1  0.74907000  0.74907000  0.87870000  1
