# generated using pymatgen
data_Li8Mn8Al8Pd8C
_symmetry_space_group_name_H-M   'P 1'
_cell_length_a   8.62984000
_cell_length_b   6.10222000
_cell_length_c   26.47240000
_cell_angle_alpha   90.00000000
_cell_angle_beta   90.00000000
_cell_angle_gamma   90.00000000
_symmetry_Int_Tables_number   1
_chemical_formula_structural   Li8Mn8Al8Pd8C
_chemical_formula_sum   'Li8 Mn8 Al8 Pd8 C1'
_cell_volume   1394.06788086
_cell_formula_units_Z   1
loop_
 _symmetry_equiv_pos_site_id
 _symmetry_equiv_pos_as_xyz
  1  'x, y, z'
loop_
 _atom_site_type_symbol
 _atom_site_label
 _atom_site_symmetry_multiplicity
 _atom_site_fract_x
 _atom_site_fract_y
 _atom_site_fract_z
 _atom_site_occupancy
  Li  Li0  1  0.25000000  0.00000000  0.04075000  1.0
  Li  Li1  1  0.75000000  0.00000000  0.04075000  1.0
  Li  Li2  1  0.50000000  0.50000000  0.12225000  1.0
  Li  Li3  1  0.00000000  0.50000000  0.12225000  1.0
  Li  Li4  1  0.73052000  0.98468000  0.86377000  1.0
  Li  Li5  1  0.26948000  0.98468000  0.86377000  1.0
  Li  Li6  1  0.00000000  0.49496000  0.95877000  1.0
  Li  Li7  1  0.50000000  0.49981000  0.96556000  1.0
  Mn  Mn8  1  0.00000000  0.25000000  0.04075000  1.0
  Mn  Mn9  1  0.50000000  0.25000000  0.04075000  1.0
  Mn  Mn10  1  0.25000000  0.75000000  0.12225000  1.0
  Mn  Mn11  1  0.75000000  0.75000000  0.12225000  1.0
  Mn  Mn12  1  0.50000000  0.28684000  0.88182000  1.0
  Mn  Mn13  1  0.00000000  0.20670000  0.88251000  1.0
  Mn  Mn14  1  0.74881000  0.75210000  0.95554000  1.0
  Mn  Mn15  1  0.25119000  0.75210000  0.95554000  1.0
  Al  Al16  1  0.00000000  0.00000000  0.12225000  1.0
  Al  Al17  1  0.50000000  1.00000000  0.12225000  1.0
  Al  Al18  1  0.75000000  0.50000000  0.04075000  1.0
  Al  Al19  1  0.25000000  0.50000000  0.04075000  1.0
  Al  Al20  1  0.50000000  0.00251000  0.95847000  1.0
  Al  Al21  1  0.00000000  0.00428000  0.96593000  1.0
  Al  Al22  1  0.22968000  0.49529000  0.87036000  1.0
  Al  Al23  1  0.77032000  0.49529000  0.87036000  1.0
  Pd  Pd24  1  0.00000000  0.75000000  0.04075000  1.0
  Pd  Pd25  1  0.50000000  0.75000000  0.04075000  1.0
  Pd  Pd26  1  0.25000000  0.25000000  0.12225000  1.0
  Pd  Pd27  1  0.75000000  0.25000000  0.12225000  1.0
  Pd  Pd28  1  0.50000000  0.71574000  0.88542000  1.0
  Pd  Pd29  1  0.00000000  0.78117000  0.88690000  1.0
  Pd  Pd30  1  0.74909000  0.24968000  0.95695000  1.0
  Pd  Pd31  1  0.25091000  0.24968000  0.95695000  1.0
  C  C32  1  0.00000000  0.47877000  0.85205000  1.0
