# generated using pymatgen
data_Zr8Co16Sn8C
_symmetry_space_group_name_H-M   P1
_cell_length_a   6.31315000
_cell_length_b   8.92814000
_cell_length_c   26.69610000
_cell_angle_alpha   90.00000000
_cell_angle_beta   90.00000000
_cell_angle_gamma   90.00000000
_symmetry_Int_Tables_number   1
_chemical_formula_structural   Zr8Co16Sn8C
_chemical_formula_sum   'Zr8 Co16 Sn8 C1'
_cell_volume   1504.71732172
_cell_formula_units_Z   1
loop_
 _symmetry_equiv_pos_site_id
 _symmetry_equiv_pos_as_xyz
  1  'x, y, z'
loop_
 _atom_site_type_symbol
 _atom_site_label
 _atom_site_symmetry_multiplicity
 _atom_site_fract_x
 _atom_site_fract_y
 _atom_site_fract_z
 _atom_site_occupancy
  Zr  Zr0  1  0.00000000  0.00000000  0.87459000  1.0
  Zr  Zr1  1  0.00000000  0.50000000  0.87459000  1.0
  Zr  Zr2  1  0.50000000  0.25000000  0.95820000  1.0
  Zr  Zr3  1  0.50000000  0.75000000  0.95820000  1.0
  Zr  Zr4  1  0.51296000  0.74999000  0.12413000  1.0
  Zr  Zr5  1  0.55678000  0.24999000  0.12747000  1.0
  Zr  Zr6  1  0.99278000  0.50160000  0.04047000  1.0
  Zr  Zr7  1  0.99279000  0.99838000  0.04047000  1.0
  Co  Co8  1  0.19130000  0.04507000  0.11930000  1.0
  Co  Co9  1  0.19141000  0.45505000  0.11928000  1.0
  Co  Co10  1  0.23648000  0.24999000  0.04521000  1.0
  Co  Co11  1  0.25000000  0.00000000  0.95820000  1.0
  Co  Co12  1  0.25000000  0.25000000  0.87459000  1.0
  Co  Co13  1  0.25000000  0.50000000  0.95820000  1.0
  Co  Co14  1  0.25000000  0.75000000  0.87459000  1.0
  Co  Co15  1  0.26076000  0.74999000  0.04408000  1.0
  Co  Co16  1  0.73913000  0.75000000  0.04433000  1.0
  Co  Co17  1  0.74693000  0.24998000  0.04182000  1.0
  Co  Co18  1  0.75000000  0.00000000  0.95820000  1.0
  Co  Co19  1  0.75000000  0.25000000  0.87459000  1.0
  Co  Co20  1  0.75000000  0.50000000  0.95820000  1.0
  Co  Co21  1  0.75000000  0.75000000  0.87459000  1.0
  Co  Co22  1  0.77271000  0.49477000  0.11870000  1.0
  Co  Co23  1  0.77275000  0.00525000  0.11870000  1.0
  Sn  Sn24  1  0.00000000  0.25000000  0.95820000  1.0
  Sn  Sn25  1  0.00000000  0.75000000  0.95820000  1.0
  Sn  Sn26  1  0.01179000  0.75000000  0.13140000  1.0
  Sn  Sn27  1  0.49412000  0.00303000  0.04349000  1.0
  Sn  Sn28  1  0.49414000  0.49695000  0.04349000  1.0
  Sn  Sn29  1  0.50000000  0.00000000  0.87459000  1.0
  Sn  Sn30  1  0.50000000  0.50000000  0.87459000  1.0
  Sn  Sn31  1  0.96727000  0.25008000  0.18167000  1.0
  C  C32  1  0.20645000  0.25006000  0.11785000  1.0
