data_image0
_chemical_formula_structural       Cu4Au12C
_chemical_formula_sum              "Cu4 Au12 C1"
_cell_length_a       8.19423
_cell_length_b       5.79419
_cell_length_c       24.3456
_cell_angle_alpha    90
_cell_angle_beta     90
_cell_angle_gamma    90

_space_group_name_H-M_alt    "P 1"
_space_group_IT_number       1

loop_
  _space_group_symop_operation_xyz
  'x, y, z'

loop_
  _atom_site_type_symbol
  _atom_site_label
  _atom_site_symmetry_multiplicity
  _atom_site_fract_x
  _atom_site_fract_y
  _atom_site_fract_z
  _atom_site_occupancy
  Cu  Cu1       1.0  0.00000  0.00000  0.91075  1.0000
  Cu  Cu2       1.0  0.00000  0.50000  0.02575  1.0000
  Cu  Cu3       1.0  0.50000  0.00000  0.91075  1.0000
  Cu  Cu4       1.0  0.50000  0.50000  0.06007  1.0000
  Au  Au1       1.0  0.00000  0.50000  0.91075  1.0000
  Au  Au2       1.0  0.25000  0.75000  0.97025  1.0000
  Au  Au3       1.0  0.25000  0.25000  0.97025  1.0000
  Au  Au4       1.0  1.00000  1.00000  0.01809  1.0000
  Au  Au5       1.0  0.20991  0.25877  0.09487  1.0000
  Au  Au6       1.0  0.20992  0.74124  0.09487  1.0000
  Au  Au7       1.0  0.50000  0.50000  0.91075  1.0000
  Au  Au8       1.0  0.75000  0.75000  0.97025  1.0000
  Au  Au9       1.0  0.75000  0.25000  0.97025  1.0000
  Au  Au10      1.0  0.50000  0.00000  0.04112  1.0000
  Au  Au11      1.0  0.79009  0.25874  0.09487  1.0000
  Au  Au12      1.0  0.79009  0.74125  0.09487  1.0000
  C   C1        1.0  0.00005  0.00001  0.10561  1.0000
