# generated using pymatgen
data_Li4Mg4Al4Pd4C
_symmetry_space_group_name_H-M   'P 1'
_cell_length_a   6.28130000
_cell_length_b   6.28130000
_cell_length_c   24.71100000
_cell_angle_alpha   90.00000000
_cell_angle_beta   90.00000000
_cell_angle_gamma   90.00000000
_symmetry_Int_Tables_number   1
_chemical_formula_structural   Li4Mg4Al4Pd4C
_chemical_formula_sum   'Li4 Mg4 Al4 Pd4 C1'
_cell_volume   974.96582537
_cell_formula_units_Z   1
loop_
 _symmetry_equiv_pos_site_id
 _symmetry_equiv_pos_as_xyz
  1  'x, y, z'
loop_
 _atom_site_type_symbol
 _atom_site_label
 _atom_site_symmetry_multiplicity
 _atom_site_fract_x
 _atom_site_fract_y
 _atom_site_fract_z
 _atom_site_occupancy
  Li  Li0  1  0.25000000  0.25000000  0.03177000  1.0
  Li  Li1  1  0.24269000  0.74192000  0.87830000  1.0
  Li  Li2  1  0.75731000  0.25808000  0.87830000  1.0
  Li  Li3  1  0.75000000  0.75000000  0.03177000  1.0
  Mg  Mg4  1  0.00000000  0.50000000  0.09532000  1.0
  Mg  Mg5  1  0.00000000  0.00000000  0.96513000  1.0
  Mg  Mg6  1  0.50000000  0.50000000  0.96511000  1.0
  Mg  Mg7  1  0.50000000  0.00000000  0.09532000  1.0
  Al  Al8  1  0.00000000  0.00000000  0.09532000  1.0
  Al  Al9  1  0.00000000  0.50000000  0.97213000  1.0
  Al  Al10  1  0.50000000  0.00000000  0.95810000  1.0
  Al  Al11  1  0.50000000  0.50000000  0.09532000  1.0
  Pd  Pd12  1  0.75000000  0.25000000  0.03177000  1.0
  Pd  Pd13  1  0.76984000  0.73013000  0.90823000  1.0
  Pd  Pd14  1  0.23016000  0.26987000  0.90823000  1.0
  Pd  Pd15  1  0.25000000  0.75000000  0.03177000  1.0
  C  C16  1  0.00000000  0.50000000  0.89010000  1.0
