# generated using pymatgen
data_Li4Mg4Al4Pd4C
_symmetry_space_group_name_H-M   P2
_cell_length_a   6.28130000
_cell_length_b   24.71100000
_cell_length_c   6.28130000
_cell_angle_alpha   90.00000000
_cell_angle_beta   90.00000000
_cell_angle_gamma   90.00000000
_symmetry_Int_Tables_number   3
_chemical_formula_structural   Li4Mg4Al4Pd4C
_chemical_formula_sum   'Li4 Mg4 Al4 Pd4 C1'
_cell_volume   974.96582537
_cell_formula_units_Z   1
loop_
 _symmetry_equiv_pos_site_id
 _symmetry_equiv_pos_as_xyz
  1  'x, y, z'
  2  '-x, y, -z'
loop_
 _atom_site_type_symbol
 _atom_site_label
 _atom_site_symmetry_multiplicity
 _atom_site_fract_x
 _atom_site_fract_y
 _atom_site_fract_z
 _atom_site_occupancy
  Li  Li0  2  0.25000000  0.96823000  0.25000000  1.0
  Li  Li1  2  0.25808000  0.12170000  0.75731000  1.0
  Mg  Mg2  1  0.00000000  0.03487000  0.00000000  1.0
  Mg  Mg3  1  0.00000000  0.90468000  0.50000000  1.0
  Mg  Mg4  1  0.50000000  0.03489000  0.50000000  1.0
  Mg  Mg5  1  0.50000000  0.90468000  0.00000000  1.0
  Al  Al6  1  0.00000000  0.04190000  0.50000000  1.0
  Al  Al7  1  0.00000000  0.90468000  0.00000000  1.0
  Al  Al8  1  0.50000000  0.02787000  0.00000000  1.0
  Al  Al9  1  0.50000000  0.90468000  0.50000000  1.0
  Pd  Pd10  2  0.25000000  0.96823000  0.75000000  1.0
  Pd  Pd11  2  0.26987000  0.09177000  0.23016000  1.0
  C  C12  1  0.50000000  0.10990000  0.00000000  1.0
