# generated using pymatgen
data_YScGaPd
_symmetry_space_group_name_H-M   'P 1'
_cell_length_a   3.53366000
_cell_length_b   4.92803000
_cell_length_c   27.11150000
_cell_angle_alpha   90.00000000
_cell_angle_beta   90.00000000
_cell_angle_gamma   90.00000000
_symmetry_Int_Tables_number   1
_chemical_formula_structural   YScGaPd
_chemical_formula_sum   'Y2 Sc2 Ga2 Pd2'
_cell_volume   472.11918627
_cell_formula_units_Z   2
loop_
 _symmetry_equiv_pos_site_id
 _symmetry_equiv_pos_as_xyz
  1  'x, y, z'
loop_
 _atom_site_type_symbol
 _atom_site_label
 _atom_site_symmetry_multiplicity
 _atom_site_fract_x
 _atom_site_fract_y
 _atom_site_fract_z
 _atom_site_occupancy
  Y  Y0  1  0.50000000  0.50000000  0.13115000  1.0
  Y  Y1  1  0.50000000  0.50000000  0.95572000  1.0
  Sc  Sc2  1  0.50000000  0.00000000  0.04372000  1.0
  Sc  Sc3  1  0.50000000  0.00000000  0.86686000  1.0
  Ga  Ga4  1  0.00000000  0.00000000  0.13115000  1.0
  Ga  Ga5  1  0.00000000  0.00000000  0.95152250  1.0
  Pd  Pd6  1  0.00000000  0.50000000  0.04372000  1.0
  Pd  Pd7  1  0.00000000  0.50000000  0.87422000  1.0
