data_image0
_chemical_formula_structural       Zr8Al8Cu16CO
_chemical_formula_sum              "Zr8 Al8 Cu16 C1 O1"
_cell_length_a       6.27295
_cell_length_b       8.87129
_cell_length_c       26.6535
_cell_angle_alpha    90
_cell_angle_beta     90
_cell_angle_gamma    90

_space_group_name_H-M_alt    "P 1"
_space_group_IT_number       1

loop_
  _space_group_symop_operation_xyz
  'x, y, z'

loop_
  _atom_site_type_symbol
  _atom_site_label
  _atom_site_symmetry_multiplicity
  _atom_site_fract_x
  _atom_site_fract_y
  _atom_site_fract_z
  _atom_site_occupancy
  Zr  Zr1       1.0  0.00000  0.00000  0.87519  1.0000
  Zr  Zr2       1.0  0.50000  0.25000  0.95840  1.0000
  Zr  Zr3       1.0  0.50000  0.75000  0.95840  1.0000
  Zr  Zr4       1.0  0.00000  0.50000  0.87519  1.0000
  Zr  Zr5       1.0  0.99019  0.50001  0.04290  1.0000
  Zr  Zr6       1.0  0.46064  0.78041  0.12652  1.0000
  Zr  Zr7       1.0  0.46060  0.21954  0.12652  1.0000
  Zr  Zr8       1.0  0.01013  0.00000  0.04296  1.0000
  Al  Al1       1.0  0.00000  0.75000  0.95840  1.0000
  Al  Al2       1.0  0.50000  0.00000  0.87519  1.0000
  Al  Al3       1.0  0.00000  0.25000  0.95840  1.0000
  Al  Al4       1.0  0.50000  0.50000  0.87519  1.0000
  Al  Al5       1.0  0.98365  0.25895  0.12372  1.0000
  Al  Al6       1.0  0.49094  0.50001  0.04226  1.0000
  Al  Al7       1.0  0.98367  0.74106  0.12373  1.0000
  Al  Al8       1.0  0.49707  0.00000  0.04005  1.0000
  Cu  Cu1       1.0  0.25000  0.00000  0.95840  1.0000
  Cu  Cu2       1.0  0.75000  0.50000  0.95840  1.0000
  Cu  Cu3       1.0  0.75000  0.00000  0.95840  1.0000
  Cu  Cu4       1.0  0.25000  0.50000  0.95840  1.0000
  Cu  Cu5       1.0  0.75000  0.75000  0.87519  1.0000
  Cu  Cu6       1.0  0.25000  0.25000  0.87519  1.0000
  Cu  Cu7       1.0  0.25000  0.75000  0.87519  1.0000
  Cu  Cu8       1.0  0.75000  0.25000  0.87519  1.0000
  Cu  Cu9       1.0  0.25547  0.50000  0.12558  1.0000
  Cu  Cu10      1.0  0.75011  0.99999  0.12041  1.0000
  Cu  Cu11      1.0  0.70251  0.49999  0.12423  1.0000
  Cu  Cu12      1.0  0.12330  0.99999  0.14905  1.0000
  Cu  Cu13      1.0  0.73012  0.24957  0.04511  1.0000
  Cu  Cu14      1.0  0.24956  0.74466  0.04078  1.0000
  Cu  Cu15      1.0  0.24954  0.25536  0.04078  1.0000
  Cu  Cu16      1.0  0.73012  0.75044  0.04511  1.0000
  C   C1        1.0  0.39984  0.00015  0.18354  1.0000
  O   O1        1.0  0.44049  0.99992  0.22743  1.0000
