# generated using pymatgen
data_Zr8Al8Cu16CO
_symmetry_space_group_name_H-M   'P 1'
_cell_length_a   6.27295000
_cell_length_b   8.87129000
_cell_length_c   26.65350000
_cell_angle_alpha   90.00000000
_cell_angle_beta   90.00000000
_cell_angle_gamma   90.00000000
_symmetry_Int_Tables_number   1
_chemical_formula_structural   Zr8Al8Cu16CO
_chemical_formula_sum   'Zr8 Al8 Cu16 C1 O1'
_cell_volume   1483.24484889
_cell_formula_units_Z   1
loop_
 _symmetry_equiv_pos_site_id
 _symmetry_equiv_pos_as_xyz
  1  'x, y, z'
loop_
 _atom_site_type_symbol
 _atom_site_label
 _atom_site_symmetry_multiplicity
 _atom_site_fract_x
 _atom_site_fract_y
 _atom_site_fract_z
 _atom_site_occupancy
  Zr  Zr0  1  0.00000000  0.00000000  0.87519000  1.0
  Zr  Zr1  1  0.50000000  0.25000000  0.95840000  1.0
  Zr  Zr2  1  0.50000000  0.75000000  0.95840000  1.0
  Zr  Zr3  1  0.00000000  0.50000000  0.87519000  1.0
  Zr  Zr4  1  0.99601000  0.50490000  0.04176000  1.0
  Zr  Zr5  1  0.47749000  0.77730000  0.13361000  1.0
  Zr  Zr6  1  0.47800000  0.22669000  0.12803000  1.0
  Zr  Zr7  1  0.01020000  0.99922000  0.04284000  1.0
  Al  Al8  1  0.00000000  0.75000000  0.95840000  1.0
  Al  Al9  1  0.50000000  0.00000000  0.87519000  1.0
  Al  Al10  1  0.00000000  0.25000000  0.95840000  1.0
  Al  Al11  1  0.50000000  0.50000000  0.87519000  1.0
  Al  Al12  1  0.99072000  0.26777000  0.12260000  1.0
  Al  Al13  1  0.49713000  0.49971000  0.04071000  1.0
  Al  Al14  1  0.99655000  0.74704000  0.12024000  1.0
  Al  Al15  1  0.50321000  0.00132000  0.04036000  1.0
  Cu  Cu16  1  0.25000000  0.00000000  0.95840000  1.0
  Cu  Cu17  1  0.75000000  0.50000000  0.95840000  1.0
  Cu  Cu18  1  0.75000000  0.00000000  0.95840000  1.0
  Cu  Cu19  1  0.25000000  0.50000000  0.95840000  1.0
  Cu  Cu20  1  0.75000000  0.75000000  0.87519000  1.0
  Cu  Cu21  1  0.25000000  0.25000000  0.87519000  1.0
  Cu  Cu22  1  0.25000000  0.75000000  0.87519000  1.0
  Cu  Cu23  1  0.75000000  0.25000000  0.87519000  1.0
  Cu  Cu24  1  0.26295000  0.50468000  0.12389000  1.0
  Cu  Cu25  1  0.77346000  0.01022000  0.12471000  1.0
  Cu  Cu26  1  0.71564000  0.50551000  0.12250000  1.0
  Cu  Cu27  1  0.16518000  0.01313000  0.14057000  1.0
  Cu  Cu28  1  0.74036000  0.25132000  0.04348000  1.0
  Cu  Cu29  1  0.26679000  0.74749000  0.04309000  1.0
  Cu  Cu30  1  0.25279000  0.25617000  0.04110000  1.0
  Cu  Cu31  1  0.72642000  0.75114000  0.04640000  1.0
  C  C32  1  0.48268000  0.02234000  0.17213000  1.0
  O  O33  1  0.49282000  0.90397000  0.20112000  1.0
