# generated using pymatgen
data_Li8Mg8Al8Cu8C
_symmetry_space_group_name_H-M   'P 1'
_cell_length_a   8.75944000
_cell_length_b   6.19386000
_cell_length_c   26.56960000
_cell_angle_alpha   90.00000000
_cell_angle_beta   90.00000000
_cell_angle_gamma   90.00000000
_symmetry_Int_Tables_number   1
_chemical_formula_structural   Li8Mg8Al8Cu8C
_chemical_formula_sum   'Li8 Mg8 Al8 Cu8 C1'
_cell_volume   1441.52687377
_cell_formula_units_Z   1
loop_
 _symmetry_equiv_pos_site_id
 _symmetry_equiv_pos_as_xyz
  1  'x, y, z'
loop_
 _atom_site_type_symbol
 _atom_site_label
 _atom_site_symmetry_multiplicity
 _atom_site_fract_x
 _atom_site_fract_y
 _atom_site_fract_z
 _atom_site_occupancy
  Li  Li0  1  0.00000000  0.25000000  0.04121000  1.0
  Li  Li1  1  0.50000000  0.25000000  0.04121000  1.0
  Li  Li2  1  0.25000000  0.75000000  0.12363000  1.0
  Li  Li3  1  0.75000000  0.75000000  0.12363000  1.0
  Li  Li4  1  0.50000000  0.36206000  0.82650000  1.0
  Li  Li5  1  0.00000000  0.21561000  0.83593000  1.0
  Li  Li6  1  0.74973000  0.76064000  0.95453000  1.0
  Li  Li7  1  0.25027000  0.76064000  0.95453000  1.0
  Mg  Mg8  1  0.25000000  1.00000000  0.04121000  1.0
  Mg  Mg9  1  0.75000000  1.00000000  0.04121000  1.0
  Mg  Mg10  1  0.50000000  0.50000000  0.12363000  1.0
  Mg  Mg11  1  0.00000000  0.50000000  0.12363000  1.0
  Mg  Mg12  1  0.71845000  0.03021000  0.87056000  1.0
  Mg  Mg13  1  0.28155000  0.03021000  0.87056000  1.0
  Mg  Mg14  1  0.00000000  0.49355000  0.95318000  1.0
  Mg  Mg15  1  0.50000000  0.48514000  0.95544000  1.0
  Al  Al16  1  0.00000000  0.00000000  0.12363000  1.0
  Al  Al17  1  0.50000000  1.00000000  0.12363000  1.0
  Al  Al18  1  0.75000000  0.50000000  0.04121000  1.0
  Al  Al19  1  0.25000000  0.50000000  0.04121000  1.0
  Al  Al20  1  0.50000000  0.00514000  0.95704000  1.0
  Al  Al21  1  0.00000000  0.02838000  0.95595000  1.0
  Al  Al22  1  0.22611000  0.50495000  0.86867000  1.0
  Al  Al23  1  0.77389000  0.50495000  0.86867000  1.0
  Cu  Cu24  1  0.00000000  0.75000000  0.04121000  1.0
  Cu  Cu25  1  0.50000000  0.75000000  0.04121000  1.0
  Cu  Cu26  1  0.25000000  0.25000000  0.12363000  1.0
  Cu  Cu27  1  0.75000000  0.25000000  0.12363000  1.0
  Cu  Cu28  1  0.50000000  0.73405000  0.87856000  1.0
  Cu  Cu29  1  0.00000000  0.81767000  0.87947000  1.0
  Cu  Cu30  1  0.74798000  0.24867000  0.96293000  1.0
  Cu  Cu31  1  0.25202000  0.24867000  0.96293000  1.0
  C  C32  1  0.00000000  0.51536000  0.86484000  1.0
