data_image0
_chemical_formula_structural       Mn3SbMn3SbMn3SbMn3SbCO
_chemical_formula_sum              "Mn12 Sb4 C1 O1"
_cell_length_a       7.64649
_cell_length_b       5.40688
_cell_length_c       24.0552
_cell_angle_alpha    90
_cell_angle_beta     90
_cell_angle_gamma    90

_space_group_name_H-M_alt    "P 1"
_space_group_IT_number       1

loop_
  _space_group_symop_operation_xyz
  'x, y, z'

loop_
  _atom_site_type_symbol
  _atom_site_label
  _atom_site_symmetry_multiplicity
  _atom_site_fract_x
  _atom_site_fract_y
  _atom_site_fract_z
  _atom_site_occupancy
  Mn  Mn1       1.0  0.00000  0.50000  0.08429  1.0000
  Mn  Mn2       1.0  0.25000  0.75000  0.02810  1.0000
  Mn  Mn3       1.0  0.25000  0.25000  0.02810  1.0000
  Sb  Sb1       1.0  0.00000  0.00000  0.08429  1.0000
  Mn  Mn4       1.0  0.00000  0.00000  0.97190  1.0000
  Mn  Mn5       1.0  0.25000  0.25000  0.91571  1.0000
  Mn  Mn6       1.0  0.25000  0.75000  0.91571  1.0000
  Sb  Sb2       1.0  0.00000  0.50000  0.97190  1.0000
  Mn  Mn7       1.0  0.50000  0.50000  0.08429  1.0000
  Mn  Mn8       1.0  0.75000  0.75000  0.02810  1.0000
  Mn  Mn9       1.0  0.75000  0.25000  0.02810  1.0000
  Sb  Sb3       1.0  0.50000  0.00000  0.08429  1.0000
  Mn  Mn10      1.0  0.50000  0.00000  0.97190  1.0000
  Mn  Mn11      1.0  0.75000  0.25000  0.91571  1.0000
  Mn  Mn12      1.0  0.75000  0.75000  0.91571  1.0000
  Sb  Sb4       1.0  0.50000  0.50000  0.97190  1.0000
  C   C1        1.0  0.00000  0.00000  0.16327  1.0000
  O   O1        1.0  0.00000  0.00000  0.21108  1.0000
