# generated using pymatgen
data_Li8Mg8Al8Pt8CO
_symmetry_space_group_name_H-M   'P 1'
_cell_length_a   6.24880000
_cell_length_b   8.83714000
_cell_length_c   26.62790000
_cell_angle_alpha   90.00000000
_cell_angle_beta   90.00000000
_cell_angle_gamma   90.00000000
_symmetry_Int_Tables_number   1
_chemical_formula_structural   Li8Mg8Al8Pt8CO
_chemical_formula_sum   'Li8 Mg8 Al8 Pt8 C1 O1'
_cell_volume   1470.43312391
_cell_formula_units_Z   1
loop_
 _symmetry_equiv_pos_site_id
 _symmetry_equiv_pos_as_xyz
  1  'x, y, z'
loop_
 _atom_site_type_symbol
 _atom_site_label
 _atom_site_symmetry_multiplicity
 _atom_site_fract_x
 _atom_site_fract_y
 _atom_site_fract_z
 _atom_site_occupancy
  Li  Li0  1  0.75000000  0.00000000  0.95852000  1.0
  Li  Li1  1  0.75000000  0.50000000  0.95852000  1.0
  Li  Li2  1  0.25000000  0.75000000  0.87555000  1.0
  Li  Li3  1  0.25000000  0.25000000  0.87555000  1.0
  Li  Li4  1  0.72152000  0.50008000  0.13453000  1.0
  Li  Li5  1  0.73154000  0.99998000  0.13134000  1.0
  Li  Li6  1  0.24309000  0.24973000  0.03952000  1.0
  Li  Li7  1  0.24311000  0.75028000  0.03950000  1.0
  Mg  Mg8  1  0.00000000  0.75000000  0.95852000  1.0
  Mg  Mg9  1  0.00000000  0.25000000  0.95852000  1.0
  Mg  Mg10  1  0.50000000  0.50000000  0.87555000  1.0
  Mg  Mg11  1  0.50000000  0.00000000  0.87555000  1.0
  Mg  Mg12  1  0.00870000  0.25573000  0.12794000  1.0
  Mg  Mg13  1  0.00902000  0.74439000  0.12790000  1.0
  Mg  Mg14  1  0.49853000  0.00002000  0.04207000  1.0
  Mg  Mg15  1  0.51061000  0.50003000  0.03859000  1.0
  Al  Al16  1  0.00000000  0.00000000  0.87555000  1.0
  Al  Al17  1  0.00000000  0.50000000  0.87555000  1.0
  Al  Al18  1  0.50000000  0.25000000  0.95852000  1.0
  Al  Al19  1  0.50000000  0.75000000  0.95852000  1.0
  Al  Al20  1  0.99797000  0.50001000  0.04305000  1.0
  Al  Al21  1  0.99999000  0.00001000  0.04474000  1.0
  Al  Al22  1  0.48432000  0.74611000  0.11921000  1.0
  Al  Al23  1  0.48429000  0.25392000  0.11923000  1.0
  Pt  Pt24  1  0.25000000  0.00000000  0.95852000  1.0
  Pt  Pt25  1  0.25000000  0.50000000  0.95852000  1.0
  Pt  Pt26  1  0.75000000  0.75000000  0.87555000  1.0
  Pt  Pt27  1  0.75000000  0.25000000  0.87555000  1.0
  Pt  Pt28  1  0.26497000  0.50001000  0.11624000  1.0
  Pt  Pt29  1  0.25496000  0.99998000  0.12728000  1.0
  Pt  Pt30  1  0.75485000  0.24816000  0.04179000  1.0
  Pt  Pt31  1  0.75482000  0.75183000  0.04179000  1.0
  C  C32  1  0.24468000  0.99998000  0.20002000  1.0
  O  O33  1  0.24992000  0.99997000  0.24356000  1.0
