# generated using pymatgen
data_Cu24Sn8CO
_symmetry_space_group_name_H-M   'P 1'
_cell_length_a   8.81761000
_cell_length_b   6.23499000
_cell_length_c   26.61320000
_cell_angle_alpha   90.00000000
_cell_angle_beta   90.00000000
_cell_angle_gamma   90.00000000
_symmetry_Int_Tables_number   1
_chemical_formula_structural   Cu24Sn8CO
_chemical_formula_sum   'Cu24 Sn8 C1 O1'
_cell_volume   1463.13279640
_cell_formula_units_Z   1
loop_
 _symmetry_equiv_pos_site_id
 _symmetry_equiv_pos_as_xyz
  1  'x, y, z'
loop_
 _atom_site_type_symbol
 _atom_site_label
 _atom_site_symmetry_multiplicity
 _atom_site_fract_x
 _atom_site_fract_y
 _atom_site_fract_z
 _atom_site_occupancy
  Cu  Cu0  1  0.00000000  0.25000000  0.04142000  1.0
  Cu  Cu1  1  0.50000000  0.75000000  0.04142000  1.0
  Cu  Cu2  1  0.00000000  0.75000000  0.04142000  1.0
  Cu  Cu3  1  0.50000000  0.25000000  0.04142000  1.0
  Cu  Cu4  1  0.74998000  0.75000000  0.12425000  1.0
  Cu  Cu5  1  0.24998000  0.25000000  0.12425000  1.0
  Cu  Cu6  1  0.75002000  0.25000000  0.12425000  1.0
  Cu  Cu7  1  0.25002000  0.75000000  0.12425000  1.0
  Cu  Cu8  1  0.74998000  0.00000000  0.04142000  1.0
  Cu  Cu9  1  0.00000000  0.50000000  0.12425000  1.0
  Cu  Cu10  1  0.25002000  0.00000000  0.04142000  1.0
  Cu  Cu11  1  0.50000000  0.50000000  0.12425000  1.0
  Cu  Cu12  1  0.50000000  0.24743000  0.88018000  1.0
  Cu  Cu13  1  0.00000000  0.71351000  0.88662000  1.0
  Cu  Cu14  1  0.50000000  0.81501000  0.87012000  1.0
  Cu  Cu15  1  0.00000000  0.28820000  0.87236000  1.0
  Cu  Cu16  1  0.23664000  0.72858000  0.95609000  1.0
  Cu  Cu17  1  0.74072000  0.29775000  0.94753000  1.0
  Cu  Cu18  1  0.25928000  0.29775000  0.94753000  1.0
  Cu  Cu19  1  0.76336000  0.72858000  0.95609000  1.0
  Cu  Cu20  1  0.24513000  0.99593000  0.88432000  1.0
  Cu  Cu21  1  0.50000000  0.53691000  0.95328000  1.0
  Cu  Cu22  1  0.75487000  0.99593000  0.88432000  1.0
  Cu  Cu23  1  0.00000000  0.47667000  0.96228000  1.0
  Sn  Sn24  1  0.00000000  0.00000000  0.12425000  1.0
  Sn  Sn25  1  0.24998000  0.50000000  0.04142000  1.0
  Sn  Sn26  1  0.75002000  0.50000000  0.04142000  1.0
  Sn  Sn27  1  0.50000000  0.00000000  0.12425000  1.0
  Sn  Sn28  1  0.50000000  0.99900000  0.96108000  1.0
  Sn  Sn29  1  0.73067000  0.53499000  0.85884000  1.0
  Sn  Sn30  1  0.26933000  0.53499000  0.85884000  1.0
  Sn  Sn31  1  0.00000000  0.02235000  0.95617000  1.0
  C  C32  1  0.00000000  0.17842000  0.80623000  1.0
  O  O33  1  0.00000000  0.13060000  0.76455000  1.0
