# generated using pymatgen
data_Cu24Sn8CO
_symmetry_space_group_name_H-M   Pm
_cell_length_a   6.23499000
_cell_length_b   8.81761000
_cell_length_c   26.61320000
_cell_angle_alpha   90.00000000
_cell_angle_beta   90.00000000
_cell_angle_gamma   90.00000000
_symmetry_Int_Tables_number   6
_chemical_formula_structural   Cu24Sn8CO
_chemical_formula_sum   'Cu24 Sn8 C1 O1'
_cell_volume   1463.13279640
_cell_formula_units_Z   1
loop_
 _symmetry_equiv_pos_site_id
 _symmetry_equiv_pos_as_xyz
  1  'x, y, z'
  2  'x, -y, z'
loop_
 _atom_site_type_symbol
 _atom_site_label
 _atom_site_symmetry_multiplicity
 _atom_site_fract_x
 _atom_site_fract_y
 _atom_site_fract_z
 _atom_site_occupancy
  Cu  Cu0  2  0.00000000  0.25002000  0.95858000  1.0
  Cu  Cu1  2  0.25000000  0.24998000  0.87575000  1.0
  Cu  Cu2  2  0.29775000  0.25928000  0.05247000  1.0
  Cu  Cu3  2  0.72858000  0.23664000  0.04391000  1.0
  Cu  Cu4  2  0.75000000  0.25002000  0.87575000  1.0
  Cu  Cu5  2  0.99593000  0.24513000  0.11568000  1.0
  Cu  Cu6  1  0.24743000  0.50000000  0.11982000  1.0
  Cu  Cu7  1  0.25000000  0.00000000  0.95858000  1.0
  Cu  Cu8  1  0.25000000  0.50000000  0.95858000  1.0
  Cu  Cu9  1  0.28820000  0.00000000  0.12764000  1.0
  Cu  Cu10  1  0.47667000  0.00000000  0.03772000  1.0
  Cu  Cu11  1  0.50000000  0.00000000  0.87575000  1.0
  Cu  Cu12  1  0.50000000  0.50000000  0.87575000  1.0
  Cu  Cu13  1  0.53691000  0.50000000  0.04672000  1.0
  Cu  Cu14  1  0.71351000  0.00000000  0.11338000  1.0
  Cu  Cu15  1  0.75000000  0.00000000  0.95858000  1.0
  Cu  Cu16  1  0.75000000  0.50000000  0.95858000  1.0
  Cu  Cu17  1  0.81501000  0.50000000  0.12988000  1.0
  Sn  Sn18  2  0.50000000  0.24998000  0.95858000  1.0
  Sn  Sn19  2  0.53499000  0.26933000  0.14116000  1.0
  Sn  Sn20  1  0.00000000  0.00000000  0.87575000  1.0
  Sn  Sn21  1  0.00000000  0.50000000  0.87575000  1.0
  Sn  Sn22  1  0.02235000  0.00000000  0.04383000  1.0
  Sn  Sn23  1  0.99900000  0.50000000  0.03892000  1.0
  C  C24  1  0.17842000  0.00000000  0.19377000  1.0
  O  O25  1  0.13060000  0.00000000  0.23545000  1.0
