# generated using pymatgen
data_Ti16Ir16CO
_symmetry_space_group_name_H-M   'P 1'
_cell_length_a   8.85530000
_cell_length_b   6.26165000
_cell_length_c   26.64150000
_cell_angle_alpha   90.00000000
_cell_angle_beta   90.00000000
_cell_angle_gamma   90.00000000
_symmetry_Int_Tables_number   1
_chemical_formula_structural   Ti16Ir16CO
_chemical_formula_sum   'Ti16 Ir16 C1 O1'
_cell_volume   1477.23891867
_cell_formula_units_Z   1
loop_
 _symmetry_equiv_pos_site_id
 _symmetry_equiv_pos_as_xyz
  1  'x, y, z'
loop_
 _atom_site_type_symbol
 _atom_site_label
 _atom_site_symmetry_multiplicity
 _atom_site_fract_x
 _atom_site_fract_y
 _atom_site_fract_z
 _atom_site_occupancy
  Ti  Ti0  1  0.25000000  0.25000000  0.12465000  1.0
  Ti  Ti1  1  0.00000000  0.25000000  0.04155000  1.0
  Ti  Ti2  1  0.24928000  0.25009000  0.95737000  1.0
  Ti  Ti3  1  0.00000000  0.24988000  0.86970000  1.0
  Ti  Ti4  1  0.75000000  0.25000000  0.12465000  1.0
  Ti  Ti5  1  0.50000000  0.25000000  0.04155000  1.0
  Ti  Ti6  1  0.75072000  0.25009000  0.95737000  1.0
  Ti  Ti7  1  0.50000000  0.25014000  0.87166000  1.0
  Ti  Ti8  1  0.25000000  0.75000000  0.12465000  1.0
  Ti  Ti9  1  0.00000000  0.75000000  0.04155000  1.0
  Ti  Ti10  1  0.25027000  0.75004000  0.95733000  1.0
  Ti  Ti11  1  0.00000000  0.74990000  0.87236000  1.0
  Ti  Ti12  1  0.75000000  0.75000000  0.12465000  1.0
  Ti  Ti13  1  0.50000000  0.75000000  0.04155000  1.0
  Ti  Ti14  1  0.74973000  0.75004000  0.95733000  1.0
  Ti  Ti15  1  0.50000000  0.75007000  0.87164000  1.0
  Ir  Ir16  1  0.00000000  0.00000000  0.12465000  1.0
  Ir  Ir17  1  0.25000000  0.00000000  0.04155000  1.0
  Ir  Ir18  1  0.00000000  0.99927000  0.95818000  1.0
  Ir  Ir19  1  0.25138000  0.00061000  0.88153000  1.0
  Ir  Ir20  1  0.50000000  0.00000000  0.12465000  1.0
  Ir  Ir21  1  0.75000000  0.00000000  0.04155000  1.0
  Ir  Ir22  1  0.50000000  0.00021000  0.95753000  1.0
  Ir  Ir23  1  0.74862000  0.00061000  0.88153000  1.0
  Ir  Ir24  1  0.00000000  0.50000000  0.12465000  1.0
  Ir  Ir25  1  0.25000000  0.50000000  0.04155000  1.0
  Ir  Ir26  1  0.00000000  0.50088000  0.95825000  1.0
  Ir  Ir27  1  0.25126000  0.49956000  0.88154000  1.0
  Ir  Ir28  1  0.50000000  0.50000000  0.12465000  1.0
  Ir  Ir29  1  0.75000000  0.50000000  0.04155000  1.0
  Ir  Ir30  1  0.50000000  0.49991000  0.95758000  1.0
  Ir  Ir31  1  0.74874000  0.49956000  0.88154000  1.0
  C  C32  1  0.00000000  0.24760000  0.78971000  1.0
  O  O33  1  0.00000000  0.24719000  0.74656000  1.0
