# generated using pymatgen
data_Ti16Ir16CO
_symmetry_space_group_name_H-M   Pm
_cell_length_a   6.26165000
_cell_length_b   8.85530000
_cell_length_c   26.64150000
_cell_angle_alpha   90.00000000
_cell_angle_beta   90.00000000
_cell_angle_gamma   90.00000000
_symmetry_Int_Tables_number   6
_chemical_formula_structural   Ti16Ir16CO
_chemical_formula_sum   'Ti16 Ir16 C1 O1'
_cell_volume   1477.23891867
_cell_formula_units_Z   1
loop_
 _symmetry_equiv_pos_site_id
 _symmetry_equiv_pos_as_xyz
  1  'x, y, z'
  2  'x, -y, z'
loop_
 _atom_site_type_symbol
 _atom_site_label
 _atom_site_symmetry_multiplicity
 _atom_site_fract_x
 _atom_site_fract_y
 _atom_site_fract_z
 _atom_site_occupancy
  Ti  Ti0  2  0.25000000  0.25000000  0.87535000  1.0
  Ti  Ti1  2  0.25009000  0.24928000  0.04263000  1.0
  Ti  Ti2  2  0.75000000  0.25000000  0.87535000  1.0
  Ti  Ti3  2  0.75004000  0.25027000  0.04267000  1.0
  Ti  Ti4  1  0.24988000  0.00000000  0.13030000  1.0
  Ti  Ti5  1  0.25000000  0.00000000  0.95845000  1.0
  Ti  Ti6  1  0.25000000  0.50000000  0.95845000  1.0
  Ti  Ti7  1  0.25014000  0.50000000  0.12834000  1.0
  Ti  Ti8  1  0.74990000  0.00000000  0.12764000  1.0
  Ti  Ti9  1  0.75000000  0.00000000  0.95845000  1.0
  Ti  Ti10  1  0.75000000  0.50000000  0.95845000  1.0
  Ti  Ti11  1  0.75007000  0.50000000  0.12836000  1.0
  Ir  Ir12  2  0.00000000  0.25000000  0.95845000  1.0
  Ir  Ir13  2  0.00061000  0.25138000  0.11847000  1.0
  Ir  Ir14  2  0.49956000  0.25126000  0.11846000  1.0
  Ir  Ir15  2  0.50000000  0.25000000  0.95845000  1.0
  Ir  Ir16  1  0.00000000  0.00000000  0.87535000  1.0
  Ir  Ir17  1  0.00000000  0.50000000  0.87535000  1.0
  Ir  Ir18  1  0.00021000  0.50000000  0.04247000  1.0
  Ir  Ir19  1  0.49991000  0.50000000  0.04242000  1.0
  Ir  Ir20  1  0.50000000  0.00000000  0.87535000  1.0
  Ir  Ir21  1  0.50000000  0.50000000  0.87535000  1.0
  Ir  Ir22  1  0.50088000  0.00000000  0.04175000  1.0
  Ir  Ir23  1  0.99927000  0.00000000  0.04182000  1.0
  C  C24  1  0.24760000  0.00000000  0.21029000  1.0
  O  O25  1  0.24719000  0.00000000  0.25344000  1.0
