# generated using pymatgen
data_Hf8Al8Co16C
_symmetry_space_group_name_H-M   'P 1'
_cell_length_a   8.53335000
_cell_length_b   6.03399000
_cell_length_c   26.40000000
_cell_angle_alpha   90.00000000
_cell_angle_beta   90.00000000
_cell_angle_gamma   90.00000000
_symmetry_Int_Tables_number   1
_chemical_formula_structural   Hf8Al8Co16C
_chemical_formula_sum   'Hf8 Al8 Co16 C1'
_cell_volume   1359.33992216
_cell_formula_units_Z   1
loop_
 _symmetry_equiv_pos_site_id
 _symmetry_equiv_pos_as_xyz
  1  'x, y, z'
loop_
 _atom_site_type_symbol
 _atom_site_label
 _atom_site_symmetry_multiplicity
 _atom_site_fract_x
 _atom_site_fract_y
 _atom_site_fract_z
 _atom_site_occupancy
  Hf  Hf0  1  0.75000000  0.00000000  0.12121000  1.0
  Hf  Hf1  1  0.00000000  0.50000000  0.04040000  1.0
  Hf  Hf2  1  0.50000000  0.50000000  0.04040000  1.0
  Hf  Hf3  1  0.25000000  0.00000000  0.12121000  1.0
  Hf  Hf4  1  0.25000000  1.00000000  0.95960000  1.0
  Hf  Hf5  1  0.50000000  0.50000000  0.87879000  1.0
  Hf  Hf6  1  0.00000000  0.50000000  0.87879000  1.0
  Hf  Hf7  1  0.75000000  1.00000000  0.95960000  1.0
  Al  Al8  1  0.50000000  1.00000000  0.04040000  1.0
  Al  Al9  1  0.75000000  0.50000000  0.12121000  1.0
  Al  Al10  1  0.00000000  0.00000000  0.04040000  1.0
  Al  Al11  1  0.25000000  0.50000000  0.12121000  1.0
  Al  Al12  1  0.00000000  0.00000000  0.87879000  1.0
  Al  Al13  1  0.25000000  0.50000000  0.95960000  1.0
  Al  Al14  1  0.50000000  1.00000000  0.87879000  1.0
  Al  Al15  1  0.75000000  0.50000000  0.95960000  1.0
  Co  Co16  1  0.75000000  0.25000000  0.04040000  1.0
  Co  Co17  1  0.25000000  0.75000000  0.04040000  1.0
  Co  Co18  1  0.75000000  0.75000000  0.04040000  1.0
  Co  Co19  1  0.25000000  0.25000000  0.04040000  1.0
  Co  Co20  1  0.50000000  0.75000000  0.12121000  1.0
  Co  Co21  1  0.00000000  0.25000000  0.12121000  1.0
  Co  Co22  1  0.50000000  0.25000000  0.12121000  1.0
  Co  Co23  1  0.00000000  0.75000000  0.12121000  1.0
  Co  Co24  1  0.25000000  0.25000000  0.87879000  1.0
  Co  Co25  1  0.75000000  0.75000000  0.87879000  1.0
  Co  Co26  1  0.25000000  0.75000000  0.87879000  1.0
  Co  Co27  1  0.75000000  0.25000000  0.87879000  1.0
  Co  Co28  1  0.00000000  0.75000000  0.95960000  1.0
  Co  Co29  1  0.50000000  0.25000000  0.95960000  1.0
  Co  Co30  1  0.00000000  0.25000000  0.95960000  1.0
  Co  Co31  1  0.50000000  0.75000000  0.95960000  1.0
  C  C32  1  0.00000000  0.25000000  0.84848000  1.0
