# generated using pymatgen
data_Li4Al4Cu4Ge4CO
_symmetry_space_group_name_H-M   'P 1'
_cell_length_a   7.77412000
_cell_length_b   5.44580000
_cell_length_c   24.08340000
_cell_angle_alpha   90.00000000
_cell_angle_beta   90.00000000
_cell_angle_gamma   90.00000000
_symmetry_Int_Tables_number   1
_chemical_formula_structural   Li4Al4Cu4Ge4CO
_chemical_formula_sum   'Li4 Al4 Cu4 Ge4 C1 O1'
_cell_volume   1019.60211235
_cell_formula_units_Z   1
loop_
 _symmetry_equiv_pos_site_id
 _symmetry_equiv_pos_as_xyz
  1  'x, y, z'
loop_
 _atom_site_type_symbol
 _atom_site_label
 _atom_site_symmetry_multiplicity
 _atom_site_fract_x
 _atom_site_fract_y
 _atom_site_fract_z
 _atom_site_occupancy
  Li  Li0  1  0.75477000  0.74090000  0.96936000  1.0
  Li  Li1  1  0.75001000  0.23350000  0.08478000  1.0
  Li  Li2  1  0.24523000  0.74090000  0.96936000  1.0
  Li  Li3  1  0.24999000  0.23350000  0.08478000  1.0
  Al  Al4  1  0.50000000  0.99553000  0.92121000  1.0
  Al  Al5  1  0.50000000  0.48900000  0.02826000  1.0
  Al  Al6  1  0.00000000  0.98599000  0.90708000  1.0
  Al  Al7  1  0.00000000  0.48900000  0.02826000  1.0
  Cu  Cu8  1  0.50000000  0.50457000  0.91383000  1.0
  Cu  Cu9  1  0.50000000  0.98900000  0.02826000  1.0
  Cu  Cu10  1  0.00000000  0.51621000  0.91653000  1.0
  Cu  Cu11  1  0.00000000  0.98900000  0.02826000  1.0
  Ge  Ge12  1  0.75934000  0.24596000  0.95936000  1.0
  Ge  Ge13  1  0.75001000  0.73350000  0.08478000  1.0
  Ge  Ge14  1  0.24066000  0.24596000  0.95936000  1.0
  Ge  Ge15  1  0.24999000  0.73350000  0.08478000  1.0
  C  C16  1  0.50000000  0.50739000  0.83604000  1.0
  O  O17  1  0.50000000  0.50227000  0.78835000  1.0
