# generated using pymatgen
data_Li4Al4Cu4Ge4CO
_symmetry_space_group_name_H-M   Pm
_cell_length_a   5.44580000
_cell_length_b   7.77412000
_cell_length_c   24.08340000
_cell_angle_alpha   90.00000000
_cell_angle_beta   90.00000000
_cell_angle_gamma   90.00000000
_symmetry_Int_Tables_number   6
_chemical_formula_structural   Li4Al4Cu4Ge4CO
_chemical_formula_sum   'Li4 Al4 Cu4 Ge4 C1 O1'
_cell_volume   1019.60211235
_cell_formula_units_Z   1
loop_
 _symmetry_equiv_pos_site_id
 _symmetry_equiv_pos_as_xyz
  1  'x, y, z'
  2  'x, -y, z'
loop_
 _atom_site_type_symbol
 _atom_site_label
 _atom_site_symmetry_multiplicity
 _atom_site_fract_x
 _atom_site_fract_y
 _atom_site_fract_z
 _atom_site_occupancy
  Li  Li0  2  0.23350000  0.24999000  0.91522000  1.0
  Li  Li1  2  0.74090000  0.24523000  0.03064000  1.0
  Al  Al2  1  0.48900000  0.00000000  0.97174000  1.0
  Al  Al3  1  0.48900000  0.50000000  0.97174000  1.0
  Al  Al4  1  0.98599000  0.00000000  0.09292000  1.0
  Al  Al5  1  0.99553000  0.50000000  0.07879000  1.0
  Cu  Cu6  1  0.50457000  0.50000000  0.08617000  1.0
  Cu  Cu7  1  0.51621000  0.00000000  0.08347000  1.0
  Cu  Cu8  1  0.98900000  0.00000000  0.97174000  1.0
  Cu  Cu9  1  0.98900000  0.50000000  0.97174000  1.0
  Ge  Ge10  2  0.24596000  0.24066000  0.04064000  1.0
  Ge  Ge11  2  0.73350000  0.24999000  0.91522000  1.0
  C  C12  1  0.50739000  0.50000000  0.16396000  1.0
  O  O13  1  0.50227000  0.50000000  0.21165000  1.0
