# generated using pymatgen
data_Zr8Ni16Sb8C
_symmetry_space_group_name_H-M   Pm
_cell_length_a   8.96645000
_cell_length_b   6.34024000
_cell_length_c   26.72480000
_cell_angle_alpha   90.00000000
_cell_angle_beta   90.00000000
_cell_angle_gamma   90.00000000
_symmetry_Int_Tables_number   6
_chemical_formula_structural   Zr8Ni16Sb8C
_chemical_formula_sum   'Zr8 Ni16 Sb8 C1'
_cell_volume   1519.29004635
_cell_formula_units_Z   1
loop_
 _symmetry_equiv_pos_site_id
 _symmetry_equiv_pos_as_xyz
  1  'x, y, z'
  2  'x, -y, z'
loop_
 _atom_site_type_symbol
 _atom_site_label
 _atom_site_symmetry_multiplicity
 _atom_site_fract_x
 _atom_site_fract_y
 _atom_site_fract_z
 _atom_site_occupancy
  Zr  Zr0  1  0.00000000  0.00000000  0.87418000  1.0
  Zr  Zr1  1  0.00006000  0.00000000  0.05036000  1.0
  Zr  Zr2  1  0.22939000  0.50000000  0.12364000  1.0
  Zr  Zr3  1  0.25000000  0.50000000  0.95806000  1.0
  Zr  Zr4  1  0.49999000  0.00000000  0.04225000  1.0
  Zr  Zr5  1  0.50000000  0.00000000  0.87418000  1.0
  Zr  Zr6  1  0.75000000  0.50000000  0.95806000  1.0
  Zr  Zr7  1  0.77068000  0.50000000  0.12358000  1.0
  Ni  Ni8  2  0.00000000  0.25000000  0.95806000  1.0
  Ni  Ni9  2  0.00020000  0.19841000  0.13902000  1.0
  Ni  Ni10  2  0.25000000  0.25000000  0.87418000  1.0
  Ni  Ni11  2  0.25207000  0.23987000  0.04130000  1.0
  Ni  Ni12  2  0.49986000  0.27494000  0.11833000  1.0
  Ni  Ni13  2  0.50000000  0.25000000  0.95806000  1.0
  Ni  Ni14  2  0.74797000  0.23961000  0.04126000  1.0
  Ni  Ni15  2  0.75000000  0.25000000  0.87418000  1.0
  Sb  Sb16  1  0.00000000  0.50000000  0.87418000  1.0
  Sb  Sb17  1  0.00001000  0.50000000  0.03790000  1.0
  Sb  Sb18  1  0.25000000  0.00000000  0.95806000  1.0
  Sb  Sb19  1  0.26492000  0.00000000  0.13293000  1.0
  Sb  Sb20  1  0.50000000  0.50000000  0.87418000  1.0
  Sb  Sb21  1  0.50005000  0.50000000  0.03949000  1.0
  Sb  Sb22  1  0.73523000  0.00000000  0.13288000  1.0
  Sb  Sb23  1  0.75000000  0.00000000  0.95806000  1.0
  C  C24  1  0.99997000  0.50000000  0.14946000  1.0
