data_image0
_chemical_formula_structural       Li4Mg4In4Au4CO
_chemical_formula_sum              "Li4 Mg4 In4 Au4 C1 O1"
_cell_length_a       6.64779
_cell_length_b       6.64779
_cell_length_c       24.9858
_cell_angle_alpha    90
_cell_angle_beta     90
_cell_angle_gamma    90

_space_group_name_H-M_alt    "P 1"
_space_group_IT_number       1

loop_
  _space_group_symop_operation_xyz
  'x, y, z'

loop_
  _atom_site_type_symbol
  _atom_site_label
  _atom_site_symmetry_multiplicity
  _atom_site_fract_x
  _atom_site_fract_y
  _atom_site_fract_z
  _atom_site_occupancy
  Li  Li1       1.0  1.00000  0.50005  0.12369  1.0000
  Li  Li2       1.0  0.00000  0.00000  0.96674  1.0000
  Li  Li3       1.0  0.50000  0.50000  0.96674  1.0000
  Li  Li4       1.0  0.49991  0.99993  0.12241  1.0000
  Mg  Mg1       1.0  0.75018  0.25018  0.04022  1.0000
  Mg  Mg2       1.0  0.75000  0.75000  0.90023  1.0000
  Mg  Mg3       1.0  0.25000  0.25000  0.90023  1.0000
  Mg  Mg4       1.0  0.24982  0.74981  0.04021  1.0000
  In  In1       1.0  0.24987  0.25013  0.04008  1.0000
  In  In2       1.0  0.25000  0.75000  0.90023  1.0000
  In  In3       1.0  0.75000  0.25000  0.90023  1.0000
  In  In4       1.0  0.75013  0.74988  0.04008  1.0000
  Au  Au1       1.0  0.00003  0.99998  0.10121  1.0000
  Au  Au2       1.0  0.00000  0.50000  0.96674  1.0000
  Au  Au3       1.0  0.50000  0.00000  0.96674  1.0000
  Au  Au4       1.0  0.50000  0.50002  0.10121  1.0000
  C   C1        1.0  0.99999  0.50000  0.20793  1.0000
  O   O1        1.0  1.00000  0.49999  0.25351  1.0000
