# generated using pymatgen
data_Li4Mg4In4Au4CO
_symmetry_space_group_name_H-M   'P 1'
_cell_length_a   6.64779000
_cell_length_b   6.64779000
_cell_length_c   24.98580000
_cell_angle_alpha   90.00000000
_cell_angle_beta   90.00000000
_cell_angle_gamma   90.00000000
_symmetry_Int_Tables_number   1
_chemical_formula_structural   Li4Mg4In4Au4CO
_chemical_formula_sum   'Li4 Mg4 In4 Au4 C1 O1'
_cell_volume   1104.20025491
_cell_formula_units_Z   1
loop_
 _symmetry_equiv_pos_site_id
 _symmetry_equiv_pos_as_xyz
  1  'x, y, z'
loop_
 _atom_site_type_symbol
 _atom_site_label
 _atom_site_symmetry_multiplicity
 _atom_site_fract_x
 _atom_site_fract_y
 _atom_site_fract_z
 _atom_site_occupancy
  Li  Li0  1  0.50003000  0.49997000  0.87631000  1
  Li  Li1  1  0.00000000  0.49999000  0.03326000  1
  Li  Li2  1  0.50001000  1.00000000  0.03326000  1
  Li  Li3  1  0.99992500  0.00007500  0.87759000  1
  Mg  Mg4  1  0.25018500  0.74981500  0.95978000  1
  Mg  Mg5  1  0.75000000  0.74999000  0.09977000  1
  Mg  Mg6  1  0.25001000  0.25000000  0.09977000  1
  Mg  Mg7  1  0.74982000  0.25018000  0.95979000  1
  In  In8  1  0.25013000  0.25012000  0.95992000  1
  In  In9  1  0.75000500  0.24999500  0.09977000  1
  In  In10  1  0.25000500  0.74999500  0.09977000  1
  In  In11  1  0.74988000  0.74987000  0.95992000  1
  Au  Au12  1  0.99998000  0.49996000  0.89879000  1
  Au  Au13  1  0.50000500  0.49999500  0.03326000  1
  Au  Au14  1  0.00000500  0.99999500  0.03326000  1
  Au  Au15  1  0.50004000  0.00002000  0.89879000  1
  C  C16  1  0.50000000  0.50000000  0.79207000  1
  O  O17  1  0.50000000  0.50000000  0.74649000  1
