# generated using pymatgen
data_Li4Mg4In4Au4CO
_symmetry_space_group_name_H-M   Cm
_cell_length_a   9.40139478
_cell_length_b   9.40139478
_cell_length_c   24.98580000
_cell_angle_alpha   90.00000000
_cell_angle_beta   90.00000000
_cell_angle_gamma   90.00000000
_symmetry_Int_Tables_number   8
_chemical_formula_structural   Li4Mg4In4Au4CO
_chemical_formula_sum   'Li8 Mg8 In8 Au8 C2 O2'
_cell_volume   2208.40050983
_cell_formula_units_Z   2
loop_
 _symmetry_equiv_pos_site_id
 _symmetry_equiv_pos_as_xyz
  1  'x, y, z'
  2  'x, -y, z'
  3  'x+1/2, y+1/2, z'
  4  'x+1/2, -y+1/2, z'
loop_
 _atom_site_type_symbol
 _atom_site_label
 _atom_site_symmetry_multiplicity
 _atom_site_fract_x
 _atom_site_fract_y
 _atom_site_fract_z
 _atom_site_occupancy
  Li  Li0  4  0.25000500  0.25000500  0.96674000  1.0
  Li  Li1  2  0.00003000  0.50000000  0.12369000  1.0
  Li  Li2  2  0.49992500  0.50000000  0.12241000  1.0
  Mg  Mg3  4  0.00000500  0.25000500  0.90023000  1.0
  Mg  Mg4  2  0.24982000  0.50000000  0.04021000  1.0
  Mg  Mg5  2  0.25018500  0.00000000  0.04022000  1.0
  In  In6  4  0.00000500  0.25012500  0.04008000  1.0
  In  In7  2  0.25000500  0.00000000  0.90023000  1.0
  In  In8  2  0.25000500  0.50000000  0.90023000  1.0
  Au  Au9  4  0.25001000  0.25003000  0.10121000  1.0
  Au  Au10  2  0.00000500  0.00000000  0.96674000  1.0
  Au  Au11  2  0.00000500  0.50000000  0.96674000  1.0
  C  C12  2  0.00000000  0.50000000  0.20793000  1.0
  O  O13  2  0.00000000  0.50000000  0.25351000  1.0
