# generated using pymatgen
data_Li4Ga4Cu4Pd4CO
_symmetry_space_group_name_H-M   'P 1'
_cell_length_a   6.02537000
_cell_length_b   6.02537000
_cell_length_c   24.51900000
_cell_angle_alpha   90.00000000
_cell_angle_beta   90.00000000
_cell_angle_gamma   90.00000000
_symmetry_Int_Tables_number   1
_chemical_formula_structural   Li4Ga4Cu4Pd4CO
_chemical_formula_sum   'Li4 Ga4 Cu4 Pd4 C1 O1'
_cell_volume   890.16434569
_cell_formula_units_Z   1
loop_
 _symmetry_equiv_pos_site_id
 _symmetry_equiv_pos_as_xyz
  1  'x, y, z'
loop_
 _atom_site_type_symbol
 _atom_site_label
 _atom_site_symmetry_multiplicity
 _atom_site_fract_x
 _atom_site_fract_y
 _atom_site_fract_z
 _atom_site_occupancy
  Li  Li0  1  0.25000000  0.75000000  0.03072000  1
  Li  Li1  1  0.75041000  0.75049000  0.89933000  1
  Li  Li2  1  0.24951000  0.24959000  0.89933000  1
  Li  Li3  1  0.75000000  0.25000000  0.03072000  1
  Ga  Ga4  1  0.25000000  0.25000000  0.03072000  1
  Ga  Ga5  1  0.74959500  0.25040500  0.91089000  1
  Ga  Ga6  1  0.25042000  0.74958000  0.91129000  1
  Ga  Ga7  1  0.75000000  0.75000000  0.03072000  1
  Cu  Cu8  1  0.00000000  0.00000000  0.09215000  1
  Cu  Cu9  1  0.49879000  0.99895000  0.96757000  1
  Cu  Cu10  1  0.00105000  0.50121000  0.96757000  1
  Cu  Cu11  1  0.50000000  0.50000000  0.09215000  1
  Pd  Pd12  1  0.50000000  1.00000000  0.09215000  1
  Pd  Pd13  1  0.99930500  0.00069500  0.96631000  1
  Pd  Pd14  1  0.50071500  0.49928500  0.96643000  1
  Pd  Pd15  1  0.00000000  0.50000000  0.09215000  1
  C  C16  1  0.24972000  0.75028000  0.82965000  1
  O  O17  1  0.24967000  0.75033000  0.78219000  1
