# generated using pymatgen
data_Li4Mg4Pd4Pb4C
_symmetry_space_group_name_H-M   'P 1'
_cell_length_a   6.68280000
_cell_length_b   6.68280000
_cell_length_c   25.01210000
_cell_angle_alpha   90.00000000
_cell_angle_beta   90.00000000
_cell_angle_gamma   90.00000000
_symmetry_Int_Tables_number   1
_chemical_formula_structural   Li4Mg4Pd4Pb4C
_chemical_formula_sum   'Li4 Mg4 Pd4 Pb4 C1'
_cell_volume   1117.03577977
_cell_formula_units_Z   1
loop_
 _symmetry_equiv_pos_site_id
 _symmetry_equiv_pos_as_xyz
  1  'x, y, z'
loop_
 _atom_site_type_symbol
 _atom_site_label
 _atom_site_symmetry_multiplicity
 _atom_site_fract_x
 _atom_site_fract_y
 _atom_site_fract_z
 _atom_site_occupancy
  Li  Li0  1  0.02573000  0.97427000  0.87237000  1
  Li  Li1  1  0.50000000  1.00000000  0.03340000  1
  Li  Li2  1  1.00000000  0.50000000  0.03340000  1
  Li  Li3  1  0.47759000  0.52241000  0.87206000  1
  Mg  Mg4  1  0.25156000  0.25114000  0.96102000  1
  Mg  Mg5  1  0.75000000  0.25000000  0.10019000  1
  Mg  Mg6  1  0.25000000  0.75000000  0.10019000  1
  Mg  Mg7  1  0.74886000  0.74844000  0.96102000  1
  Pd  Pd8  1  0.46098000  0.96016000  0.89900000  1
  Pd  Pd9  1  0.00000000  0.00000000  0.03340000  1
  Pd  Pd10  1  0.50000000  0.50000000  0.03340000  1
  Pd  Pd11  1  0.03984000  0.53902000  0.89900000  1
  Pb  Pb12  1  0.24970000  0.75030000  0.97620000  1
  Pb  Pb13  1  0.75000000  0.75000000  0.10019000  1
  Pb  Pb14  1  0.25000000  0.25000000  0.10019000  1
  Pb  Pb15  1  0.75059000  0.24941000  0.94386000  1
  C  C16  1  0.25236000  0.74764000  0.87804000  1
