# generated using pymatgen
data_Li4Mg4Pd4Pb4C
_symmetry_space_group_name_H-M   Cm
_cell_length_a   9.45090639
_cell_length_b   9.45090639
_cell_length_c   25.01210000
_cell_angle_alpha   90.00000000
_cell_angle_beta   90.00000000
_cell_angle_gamma   90.00000000
_symmetry_Int_Tables_number   8
_chemical_formula_structural   Li4Mg4Pd4Pb4C
_chemical_formula_sum   'Li8 Mg8 Pd8 Pb8 C2'
_cell_volume   2234.07155954
_cell_formula_units_Z   2
loop_
 _symmetry_equiv_pos_site_id
 _symmetry_equiv_pos_as_xyz
  1  'x, y, z'
  2  'x, -y, z'
  3  'x+1/2, y+1/2, z'
  4  'x+1/2, -y+1/2, z'
loop_
 _atom_site_type_symbol
 _atom_site_label
 _atom_site_symmetry_multiplicity
 _atom_site_fract_x
 _atom_site_fract_y
 _atom_site_fract_z
 _atom_site_occupancy
  Li  Li0  4  0.25000000  0.25000000  0.96660000  1.0
  Li  Li1  2  0.02573000  0.00000000  0.12763000  1.0
  Li  Li2  2  0.47759000  0.00000000  0.12794000  1.0
  Mg  Mg3  4  0.00021000  0.25135000  0.03898000  1.0
  Mg  Mg4  2  0.25000000  0.50000000  0.89981000  1.0
  Mg  Mg5  2  0.25000000  0.00000000  0.89981000  1.0
  Pd  Pd6  4  0.25041000  0.21057000  0.10100000  1.0
  Pd  Pd7  2  -0.00000000  0.50000000  0.96660000  1.0
  Pd  Pd8  2  0.00000000  0.00000000  0.96660000  1.0
  Pb  Pb9  4  -0.00000000  0.25000000  0.89981000  1.0
  Pb  Pb10  2  0.24970000  0.00000000  0.02380000  1.0
  Pb  Pb11  2  0.25059000  0.50000000  0.05614000  1.0
  C  C12  2  0.25236000  0.00000000  0.12196000  1.0
