# generated using pymatgen
data_Li8Mg8Cu8Ge8CO
_symmetry_space_group_name_H-M   'P 1'
_cell_length_a   8.73308000
_cell_length_b   6.17522000
_cell_length_c   26.54980000
_cell_angle_alpha   90.00000000
_cell_angle_beta   90.00000000
_cell_angle_gamma   90.00000000
_symmetry_Int_Tables_number   1
_chemical_formula_structural   Li8Mg8Cu8Ge8CO
_chemical_formula_sum   'Li8 Mg8 Cu8 Ge8 C1 O1'
_cell_volume   1431.79594113
_cell_formula_units_Z   1
loop_
 _symmetry_equiv_pos_site_id
 _symmetry_equiv_pos_as_xyz
  1  'x, y, z'
loop_
 _atom_site_type_symbol
 _atom_site_label
 _atom_site_symmetry_multiplicity
 _atom_site_fract_x
 _atom_site_fract_y
 _atom_site_fract_z
 _atom_site_occupancy
  Li  Li0  1  0.00000000  0.00000000  0.04112000  1.0
  Li  Li1  1  0.50000000  0.00000000  0.04112000  1.0
  Li  Li2  1  0.25000000  0.50000000  0.12335000  1.0
  Li  Li3  1  0.75000000  0.50000000  0.12335000  1.0
  Li  Li4  1  0.50000000  0.13644000  0.82999000  1.0
  Li  Li5  1  0.00000000  0.11939000  0.83250000  1.0
  Li  Li6  1  0.74811000  0.51155000  0.95649000  1.0
  Li  Li7  1  0.25189000  0.51155000  0.95649000  1.0
  Mg  Mg8  1  0.75000000  0.75000000  0.04112000  1.0
  Mg  Mg9  1  0.25000000  0.75000000  0.04112000  1.0
  Mg  Mg10  1  0.00000000  0.25000000  0.12335000  1.0
  Mg  Mg11  1  0.50000000  0.25000000  0.12335000  1.0
  Mg  Mg12  1  0.25273000  0.79362000  0.87123000  1.0
  Mg  Mg13  1  0.74727000  0.79362000  0.87123000  1.0
  Mg  Mg14  1  0.50000000  0.22612000  0.94909000  1.0
  Mg  Mg15  1  0.00000000  0.23486000  0.95067000  1.0
  Cu  Cu16  1  0.75000000  0.00000000  0.12335000  1.0
  Cu  Cu17  1  0.25000000  0.00000000  0.12335000  1.0
  Cu  Cu18  1  0.50000000  0.50000000  0.04112000  1.0
  Cu  Cu19  1  0.00000000  0.50000000  0.04112000  1.0
  Cu  Cu20  1  0.24881000  0.99953000  0.96259000  1.0
  Cu  Cu21  1  0.75119000  0.99953000  0.96259000  1.0
  Cu  Cu22  1  0.00000000  0.51196000  0.87896000  1.0
  Cu  Cu23  1  0.50000000  0.51321000  0.87983000  1.0
  Ge  Ge24  1  0.75000000  0.25000000  0.04112000  1.0
  Ge  Ge25  1  0.25000000  0.25000000  0.04112000  1.0
  Ge  Ge26  1  0.00000000  0.75000000  0.12335000  1.0
  Ge  Ge27  1  0.50000000  0.75000000  0.12335000  1.0
  Ge  Ge28  1  0.24982000  0.28000000  0.87393000  1.0
  Ge  Ge29  1  0.75018000  0.28000000  0.87393000  1.0
  Ge  Ge30  1  0.50000000  0.76189000  0.95537000  1.0
  Ge  Ge31  1  0.00000000  0.76252000  0.95492000  1.0
  C  C32  1  0.00000000  0.00067000  0.75846000  1.0
  O  O33  1  0.00000000  0.92937000  0.71879000  1.0
