data_image0
_chemical_formula_structural       SbSnSbSnSbSnSbSnSbSnSbSnSbSnSbSnCO
_chemical_formula_sum              "Sb8 Sn8 C1 O1"
_cell_length_a       7.64519
_cell_length_b       7.64519
_cell_length_c       25.7339
_cell_angle_alpha    90
_cell_angle_beta     90
_cell_angle_gamma    90

_space_group_name_H-M_alt    "P 1"
_space_group_IT_number       1

loop_
  _space_group_symop_operation_xyz
  'x, y, z'

loop_
  _atom_site_type_symbol
  _atom_site_label
  _atom_site_symmetry_multiplicity
  _atom_site_fract_x
  _atom_site_fract_y
  _atom_site_fract_z
  _atom_site_occupancy
  Sb  Sb1       1.0  0.25000  0.25000  0.96334  1.0000
  Sn  Sn1       1.0  0.00000  0.00000  0.88906  1.0000
  Sb  Sb2       1.0  0.25000  0.25000  0.11188  1.0000
  Sn  Sn2       1.0  0.00000  0.00000  0.03761  1.0000
  Sb  Sb3       1.0  0.25000  0.75000  0.96334  1.0000
  Sn  Sn3       1.0  0.00000  0.50000  0.88906  1.0000
  Sb  Sb4       1.0  0.25000  0.75000  0.11188  1.0000
  Sn  Sn4       1.0  0.00000  0.50000  0.03761  1.0000
  Sb  Sb5       1.0  0.75000  0.25000  0.96334  1.0000
  Sn  Sn5       1.0  0.50000  0.00000  0.88906  1.0000
  Sb  Sb6       1.0  0.75000  0.25000  0.11188  1.0000
  Sn  Sn6       1.0  0.50000  0.00000  0.03761  1.0000
  Sb  Sb7       1.0  0.75000  0.75000  0.96334  1.0000
  Sn  Sn7       1.0  0.50000  0.50000  0.88906  1.0000
  Sb  Sb8       1.0  0.75000  0.75000  0.11188  1.0000
  Sn  Sn8       1.0  0.50000  0.50000  0.03761  1.0000
  C   C1        1.0  0.25000  0.25000  0.18571  1.0000
  O   O1        1.0  0.25000  0.25000  0.23040  1.0000
