# generated using pymatgen
data_TiRh3
_symmetry_space_group_name_H-M   Pm
_cell_length_a   7.73214000
_cell_length_b   5.46745000
_cell_length_c   24.10060000
_cell_angle_alpha   90.00000000
_cell_angle_beta   90.00000000
_cell_angle_gamma   90.00000000
_symmetry_Int_Tables_number   6
_chemical_formula_structural   TiRh3
_chemical_formula_sum   'Ti4 Rh12'
_cell_volume   1018.85500617
_cell_formula_units_Z   4
loop_
 _symmetry_equiv_pos_site_id
 _symmetry_equiv_pos_as_xyz
  1  'x, y, z'
  2  'x, -y, z'
loop_
 _atom_site_type_symbol
 _atom_site_label
 _atom_site_symmetry_multiplicity
 _atom_site_fract_x
 _atom_site_fract_y
 _atom_site_fract_z
 _atom_site_occupancy
  Ti  Ti0  1  0.00000000  0.50000000  0.97164000  1.0
  Ti  Ti1  1  0.50000000  0.50000000  0.97164000  1.0
  Ti  Ti2  1  0.50037000  0.00000000  0.07313000  1.0
  Ti  Ti3  1  0.99961000  0.00000000  0.07305000  1.0
  Rh  Rh4  2  0.25000000  0.25000000  0.91493000  1.0
  Rh  Rh5  2  0.25015000  0.25123000  0.02945000  1.0
  Rh  Rh6  2  0.74981000  0.25121000  0.02949000  1.0
  Rh  Rh7  2  0.75000000  0.25000000  0.91493000  1.0
  Rh  Rh8  1  0.00000000  0.00000000  0.97164000  1.0
  Rh  Rh9  1  0.00014000  0.50000000  0.08095000  1.0
  Rh  Rh10  1  0.49990000  0.50000000  0.08096000  1.0
  Rh  Rh11  1  0.50000000  0.00000000  0.97164000  1.0
