# generated using pymatgen
data_Li3Bi
_symmetry_space_group_name_H-M   Pmm2
_cell_length_a   4.76589500
_cell_length_b   6.74000000
_cell_length_c   27.14880000
_cell_angle_alpha   90.00000000
_cell_angle_beta   90.00000000
_cell_angle_gamma   90.00000000
_symmetry_Int_Tables_number   25
_chemical_formula_structural   Li3Bi
_chemical_formula_sum   'Li12 Bi4'
_cell_volume   872.07734539
_cell_formula_units_Z   4
loop_
 _symmetry_equiv_pos_site_id
 _symmetry_equiv_pos_as_xyz
  1  'x, y, z'
  2  '-x, -y, z'
  3  '-x, y, z'
  4  'x, -y, z'
loop_
 _atom_site_type_symbol
 _atom_site_label
 _atom_site_symmetry_multiplicity
 _atom_site_fract_x
 _atom_site_fract_y
 _atom_site_fract_z
 _atom_site_occupancy
  Li  Li0  2  0.00000000  0.25000000  0.04389000  1.0
  Li  Li1  2  0.00000000  0.28194500  0.86736000  1.0
  Li  Li2  2  0.50000000  0.25000000  0.13166000  1.0
  Li  Li3  2  0.50000000  0.25632500  0.95580000  1.0
  Li  Li4  1  0.00000000  0.50000000  0.13166000  1.0
  Li  Li5  1  0.00000000  0.50000000  0.95515500  1.0
  Li  Li6  1  0.50000000  0.00000000  0.04389000  1.0
  Li  Li7  1  0.50000000  0.00000000  0.87732000  1.0
  Bi  Bi8  1  0.00000000  0.00000000  0.13166000  1.0
  Bi  Bi9  1  0.00000000  0.00000000  0.95105500  1.0
  Bi  Bi10  1  0.50000000  0.50000000  0.04389000  1.0
  Bi  Bi11  1  0.50000000  0.50000000  0.86744000  1.0
