# generated using pymatgen
data_Li4Y4Ge4Pb4C
_symmetry_space_group_name_H-M   'P 1'
_cell_length_a   6.08443000
_cell_length_b   9.86128000
_cell_length_c   24.56300000
_cell_angle_alpha   90.00000000
_cell_angle_beta   90.00000000
_cell_angle_gamma   90.00000000
_symmetry_Int_Tables_number   1
_chemical_formula_structural   Li4Y4Ge4Pb4C
_chemical_formula_sum   'Li4 Y4 Ge4 Pb4 C1'
_cell_volume   1473.78657970
_cell_formula_units_Z   1
loop_
 _symmetry_equiv_pos_site_id
 _symmetry_equiv_pos_as_xyz
  1  'x, y, z'
loop_
 _atom_site_type_symbol
 _atom_site_label
 _atom_site_symmetry_multiplicity
 _atom_site_fract_x
 _atom_site_fract_y
 _atom_site_fract_z
 _atom_site_occupancy
  Li  Li0  1  0.32660000  0.25004000  0.01869000  1.0
  Li  Li1  1  0.74120000  0.25000000  0.90712000  1.0
  Li  Li2  1  0.23994000  0.75000000  0.03452000  1.0
  Li  Li3  1  0.74120000  0.75000000  0.90712000  1.0
  Y  Y4  1  0.49228000  0.02663000  0.09691000  1.0
  Y  Y5  1  0.99413000  0.00000000  0.96904000  1.0
  Y  Y6  1  0.49233000  0.47338000  0.09692000  1.0
  Y  Y7  1  0.99413000  0.50000000  0.96904000  1.0
  Ge  Ge8  1  0.99485000  0.96980000  0.09467000  1.0
  Ge  Ge9  1  0.49413000  0.00000000  0.96904000  1.0
  Ge  Ge10  1  0.99500000  0.53026000  0.09465000  1.0
  Ge  Ge11  1  0.49413000  0.50000000  0.96904000  1.0
  Pb  Pb12  1  0.85356000  0.24999000  0.04864000  1.0
  Pb  Pb13  1  0.24120000  0.25000000  0.90712000  1.0
  Pb  Pb14  1  0.74687000  0.75006000  0.04017000  1.0
  Pb  Pb15  1  0.24120000  0.75000000  0.90712000  1.0
  C  C16  1  0.51170000  0.25001000  0.08773000  1.0
