data_image0
_chemical_formula_structural       Na8Pb24CO
_chemical_formula_sum              "Na8 Pb24 C1 O1"
_cell_length_a       10.0239
_cell_length_b       10.0239
_cell_length_c       27.518
_cell_angle_alpha    90
_cell_angle_beta     90
_cell_angle_gamma    90

_space_group_name_H-M_alt    "P 1"
_space_group_IT_number       1

loop_
  _space_group_symop_operation_xyz
  'x, y, z'

loop_
  _atom_site_type_symbol
  _atom_site_label
  _atom_site_symmetry_multiplicity
  _atom_site_fract_x
  _atom_site_fract_y
  _atom_site_fract_z
  _atom_site_occupancy
  Na  Na1       1.0  0.99837  0.99837  0.14747  1.0000
  Na  Na2       1.0  0.00000  0.00000  0.95447  1.0000
  Na  Na3       1.0  0.99886  0.50035  0.14752  1.0000
  Na  Na4       1.0  0.00000  0.50000  0.95447  1.0000
  Na  Na5       1.0  0.50036  0.99886  0.14752  1.0000
  Na  Na6       1.0  0.50000  0.00000  0.95447  1.0000
  Na  Na7       1.0  0.49966  0.49965  0.14796  1.0000
  Na  Na8       1.0  0.50000  0.50000  0.95447  1.0000
  Pb  Pb1       1.0  0.00077  0.24939  0.05606  1.0000
  Pb  Pb2       1.0  0.24940  0.00076  0.05606  1.0000
  Pb  Pb3       1.0  0.24834  0.24833  0.13957  1.0000
  Pb  Pb4       1.0  0.00000  0.25000  0.86340  1.0000
  Pb  Pb5       1.0  0.25000  0.00000  0.86340  1.0000
  Pb  Pb6       1.0  0.25000  0.25000  0.95447  1.0000
  Pb  Pb7       1.0  0.99919  0.74953  0.05506  1.0000
  Pb  Pb8       1.0  0.24956  0.49819  0.05649  1.0000
  Pb  Pb9       1.0  0.24952  0.75004  0.13945  1.0000
  Pb  Pb10      1.0  0.00000  0.75000  0.86340  1.0000
  Pb  Pb11      1.0  0.25000  0.50000  0.86340  1.0000
  Pb  Pb12      1.0  0.25000  0.75000  0.95447  1.0000
  Pb  Pb13      1.0  0.49820  0.24955  0.05649  1.0000
  Pb  Pb14      1.0  0.74954  0.99919  0.05506  1.0000
  Pb  Pb15      1.0  0.75005  0.24952  0.13944  1.0000
  Pb  Pb16      1.0  0.50000  0.25000  0.86340  1.0000
  Pb  Pb17      1.0  0.75000  0.00000  0.86340  1.0000
  Pb  Pb18      1.0  0.75000  0.25000  0.95447  1.0000
  Pb  Pb19      1.0  0.50012  0.74948  0.05522  1.0000
  Pb  Pb20      1.0  0.74949  0.50011  0.05521  1.0000
  Pb  Pb21      1.0  0.74955  0.74955  0.13927  1.0000
  Pb  Pb22      1.0  0.50000  0.75000  0.86340  1.0000
  Pb  Pb23      1.0  0.75000  0.50000  0.86340  1.0000
  Pb  Pb24      1.0  0.75000  0.75000  0.95447  1.0000
  C   C1        1.0  0.27954  0.27979  0.28954  1.0000
  O   O1        1.0  0.23302  0.23298  0.32308  1.0000
