# generated using pymatgen
data_Na8Pb24CO
_symmetry_space_group_name_H-M   P1
_cell_length_a   10.02390000
_cell_length_b   10.02390000
_cell_length_c   27.51800000
_cell_angle_alpha   90.00000000
_cell_angle_beta   90.00000000
_cell_angle_gamma   90.00000000
_symmetry_Int_Tables_number   1
_chemical_formula_structural   Na8Pb24CO
_chemical_formula_sum   'Na8 Pb24 C1 O1'
_cell_volume   2764.96932256
_cell_formula_units_Z   1
loop_
 _symmetry_equiv_pos_site_id
 _symmetry_equiv_pos_as_xyz
  1  'x, y, z'
loop_
 _atom_site_type_symbol
 _atom_site_label
 _atom_site_symmetry_multiplicity
 _atom_site_fract_x
 _atom_site_fract_y
 _atom_site_fract_z
 _atom_site_occupancy
  Na  Na0  1  0.00000000  0.00000000  0.95447000  1.0
  Na  Na1  1  0.00000000  0.50000000  0.95447000  1.0
  Na  Na2  1  0.49888000  0.49895000  0.14667000  1.0
  Na  Na3  1  0.49941000  0.99980000  0.14603000  1.0
  Na  Na4  1  0.50000000  0.00000000  0.95447000  1.0
  Na  Na5  1  0.50000000  0.50000000  0.95447000  1.0
  Na  Na6  1  0.99933000  0.99922000  0.14612000  1.0
  Na  Na7  1  0.99975000  0.49931000  0.14609000  1.0
  Pb  Pb8  1  -0.00000000  0.25000000  0.86340000  1.0
  Pb  Pb9  1  -0.00000000  0.75000000  0.86340000  1.0
  Pb  Pb10  1  0.24897000  0.24885000  0.14019000  1.0
  Pb  Pb11  1  0.24936000  0.99940000  0.05581000  1.0
  Pb  Pb12  1  0.24947000  0.74971000  0.13952000  1.0
  Pb  Pb13  1  0.24976000  0.49945000  0.05610000  1.0
  Pb  Pb14  1  0.25000000  0.00000000  0.86340000  1.0
  Pb  Pb15  1  0.25000000  0.25000000  0.95447000  1.0
  Pb  Pb16  1  0.25000000  0.50000000  0.86340000  1.0
  Pb  Pb17  1  0.25000000  0.75000000  0.95447000  1.0
  Pb  Pb18  1  0.49950000  0.24972000  0.05609000  1.0
  Pb  Pb19  1  0.49972000  0.74926000  0.05567000  1.0
  Pb  Pb20  1  0.50000000  0.25000000  0.86340000  1.0
  Pb  Pb21  1  0.50000000  0.75000000  0.86340000  1.0
  Pb  Pb22  1  0.74927000  0.49970000  0.05568000  1.0
  Pb  Pb23  1  0.74951000  0.99934000  0.05550000  1.0
  Pb  Pb24  1  0.74952000  0.74941000  0.13951000  1.0
  Pb  Pb25  1  0.74979000  0.24939000  0.13952000  1.0
  Pb  Pb26  1  0.75000000  0.00000000  0.86340000  1.0
  Pb  Pb27  1  0.75000000  0.25000000  0.95447000  1.0
  Pb  Pb28  1  0.75000000  0.50000000  0.86340000  1.0
  Pb  Pb29  1  0.75000000  0.75000000  0.95447000  1.0
  Pb  Pb30  1  0.99936000  0.74953000  0.05551000  1.0
  Pb  Pb31  1  0.99945000  0.24935000  0.05582000  1.0
  C  C32  1  0.29316000  0.29692000  0.29057000  1.0
  O  O33  1  0.22818000  0.22806000  0.31313000  1.0
