# generated using pymatgen
data_Li8In8Ge8Au8CO
_symmetry_space_group_name_H-M   Pm
_cell_length_a   8.39470000
_cell_length_b   8.57796000
_cell_length_c   26.34910000
_cell_angle_alpha   90.00000000
_cell_angle_beta   90.00000000
_cell_angle_gamma   90.00000000
_symmetry_Int_Tables_number   6
_chemical_formula_structural   Li8In8Ge8Au8CO
_chemical_formula_sum   'Li8 In8 Ge8 Au8 C1 O1'
_cell_volume   1897.38290294
_cell_formula_units_Z   1
loop_
 _symmetry_equiv_pos_site_id
 _symmetry_equiv_pos_as_xyz
  1  'x, y, z'
  2  'x, -y, z'
loop_
 _atom_site_type_symbol
 _atom_site_label
 _atom_site_symmetry_multiplicity
 _atom_site_fract_x
 _atom_site_fract_y
 _atom_site_fract_z
 _atom_site_occupancy
  Li  Li0  2  0.25000000  0.24872000  0.95861000  1.0
  Li  Li1  2  0.25000000  0.24997000  0.12048000  1.0
  Li  Li2  2  0.75000000  0.24971000  0.95844000  1.0
  Li  Li3  2  0.75000000  0.24997000  0.12048000  1.0
  In  In4  1  0.25000000  0.00000000  0.04016000  1.0
  In  In5  1  0.25000000  0.00000000  0.85996000  1.0
  In  In6  1  0.25000000  0.50000000  0.04016000  1.0
  In  In7  1  0.25000000  0.50000000  0.86006000  1.0
  In  In8  1  0.74999000  0.00000000  0.85982000  1.0
  In  In9  1  0.75000000  0.00000000  0.04016000  1.0
  In  In10  1  0.75000000  0.50000000  0.04016000  1.0
  In  In11  1  0.75000000  0.50000000  0.86407000  1.0
  Ge  Ge12  1  0.00000000  0.00000000  0.12048000  1.0
  Ge  Ge13  1  0.00000000  0.50000000  0.12048000  1.0
  Ge  Ge14  1  0.00239000  0.50000000  0.96352000  1.0
  Ge  Ge15  1  0.49761000  0.50000000  0.96352000  1.0
  Ge  Ge16  1  0.50000000  0.00000000  0.12048000  1.0
  Ge  Ge17  1  0.50000000  0.50000000  0.12048000  1.0
  Ge  Ge18  1  0.50080000  0.00000000  0.96331000  1.0
  Ge  Ge19  1  0.99920000  0.00000000  0.96331000  1.0
  Au  Au20  2  0.00000000  0.24997000  0.04016000  1.0
  Au  Au21  2  0.00091000  0.24887000  0.88813000  1.0
  Au  Au22  2  0.49909000  0.24887000  0.88813000  1.0
  Au  Au23  2  0.50000000  0.24997000  0.04016000  1.0
  C  C24  1  0.75005000  0.50000000  0.71556000  1.0
  O  O25  1  0.74997000  0.50000000  0.67250000  1.0
