# generated using pymatgen
data_K3Sb
_symmetry_space_group_name_H-M   Pmm2
_cell_length_a   6.11885000
_cell_length_b   8.65338000
_cell_length_c   29.17830000
_cell_angle_alpha   90.00000000
_cell_angle_beta   90.00000000
_cell_angle_gamma   90.00000000
_symmetry_Int_Tables_number   25
_chemical_formula_structural   K3Sb
_chemical_formula_sum   'K12 Sb4'
_cell_volume   1544.95405149
_cell_formula_units_Z   4
loop_
 _symmetry_equiv_pos_site_id
 _symmetry_equiv_pos_as_xyz
  1  'x, y, z'
  2  '-x, -y, z'
  3  '-x, y, z'
  4  'x, -y, z'
loop_
 _atom_site_type_symbol
 _atom_site_label
 _atom_site_symmetry_multiplicity
 _atom_site_fract_x
 _atom_site_fract_y
 _atom_site_fract_z
 _atom_site_occupancy
  K  K0  2  0.00000000  0.25000000  0.05243000  1.0
  K  K1  2  0.00000000  0.28220000  0.82782000  1.0
  K  K2  2  0.50000000  0.25000000  0.15728000  1.0
  K  K3  2  0.50000000  0.25503000  0.95018500  1.0
  K  K4  1  0.00000000  0.50000000  0.15728000  1.0
  K  K5  1  0.00000000  0.50000000  0.93850000  1.0
  K  K6  1  0.50000000  0.00000000  0.05243000  1.0
  K  K7  1  0.50000000  0.00000000  0.85641000  1.0
  Sb  Sb8  1  0.00000000  0.00000000  0.15728000  1.0
  Sb  Sb9  1  0.00000000  0.00000000  0.93973000  1.0
  Sb  Sb10  1  0.50000000  0.50000000  0.05243000  1.0
  Sb  Sb11  1  0.50000000  0.50000000  0.85179000  1.0
