# generated using pymatgen
data_Li8Mn8Sb8Pd8C
_symmetry_space_group_name_H-M   'P 1'
_cell_length_a   9.12074000
_cell_length_b   6.44934000
_cell_length_c   26.84060000
_cell_angle_alpha   90.00000000
_cell_angle_beta   90.00000000
_cell_angle_gamma   90.00000000
_symmetry_Int_Tables_number   1
_chemical_formula_structural   Li8Mn8Sb8Pd8C
_chemical_formula_sum   'Li8 Mn8 Sb8 Pd8 C1'
_cell_volume   1578.83799254
_cell_formula_units_Z   1
loop_
 _symmetry_equiv_pos_site_id
 _symmetry_equiv_pos_as_xyz
  1  'x, y, z'
loop_
 _atom_site_type_symbol
 _atom_site_label
 _atom_site_symmetry_multiplicity
 _atom_site_fract_x
 _atom_site_fract_y
 _atom_site_fract_z
 _atom_site_occupancy
  Li  Li0  1  0.00000000  0.00000000  0.12743000  1.0
  Li  Li1  1  0.50000000  0.00000000  0.12743000  1.0
  Li  Li2  1  0.75000000  0.50000000  0.04248000  1.0
  Li  Li3  1  0.25000000  0.50000000  0.04248000  1.0
  Li  Li4  1  0.50000000  0.96146000  0.95218000  1.0
  Li  Li5  1  0.00000000  0.02002000  0.95872000  1.0
  Li  Li6  1  0.23536000  0.46778000  0.86338000  1.0
  Li  Li7  1  0.76464000  0.46778000  0.86338000  1.0
  Mn  Mn8  1  0.25000000  0.00000000  0.04248000  1.0
  Mn  Mn9  1  0.75000000  0.00000000  0.04248000  1.0
  Mn  Mn10  1  0.50000000  0.50000000  0.12743000  1.0
  Mn  Mn11  1  0.00000000  0.50000000  0.12743000  1.0
  Mn  Mn12  1  0.72613000  0.98429000  0.87467000  1.0
  Mn  Mn13  1  0.27387000  0.98429000  0.87467000  1.0
  Mn  Mn14  1  0.00000000  0.47012000  0.94717000  1.0
  Mn  Mn15  1  0.50000000  0.53247000  0.95593000  1.0
  Sb  Sb16  1  0.00000000  0.75000000  0.04248000  1.0
  Sb  Sb17  1  0.50000000  0.75000000  0.04248000  1.0
  Sb  Sb18  1  0.25000000  0.25000000  0.12743000  1.0
  Sb  Sb19  1  0.75000000  0.25000000  0.12743000  1.0
  Sb  Sb20  1  0.50000000  0.70919000  0.85935000  1.0
  Sb  Sb21  1  0.00000000  0.77968000  0.87229000  1.0
  Sb  Sb22  1  0.73503000  0.25155000  0.95870000  1.0
  Sb  Sb23  1  0.26497000  0.25155000  0.95870000  1.0
  Pd  Pd24  1  0.00000000  0.25000000  0.04248000  1.0
  Pd  Pd25  1  0.50000000  0.25000000  0.04248000  1.0
  Pd  Pd26  1  0.25000000  0.75000000  0.12743000  1.0
  Pd  Pd27  1  0.75000000  0.75000000  0.12743000  1.0
  Pd  Pd28  1  0.50000000  0.26166000  0.88256000  1.0
  Pd  Pd29  1  0.00000000  0.17129000  0.84883000  1.0
  Pd  Pd30  1  0.77399000  0.74173000  0.95831000  1.0
  Pd  Pd31  1  0.22601000  0.74173000  0.95831000  1.0
  C  C32  1  0.00000000  0.44999000  0.87717000  1.0
