data_image0
_chemical_formula_structural       Zn8Ni8
_chemical_formula_sum              "Zn8 Ni8"
_cell_length_a       5.79956
_cell_length_b       5.79956
_cell_length_c       24.3497
_cell_angle_alpha    90
_cell_angle_beta     90
_cell_angle_gamma    90

_space_group_name_H-M_alt    "P 1"
_space_group_IT_number       1

loop_
  _space_group_symop_operation_xyz
  'x, y, z'

loop_
  _atom_site_type_symbol
  _atom_site_label
  _atom_site_symmetry_multiplicity
  _atom_site_fract_x
  _atom_site_fract_y
  _atom_site_fract_z
  _atom_site_occupancy
  Zn  Zn1       1.0  0.25000  0.25000  0.96862  1.0000
  Zn  Zn2       1.0  0.25020  0.24983  0.08976  1.0000
  Zn  Zn3       1.0  0.25000  0.75000  0.96862  1.0000
  Zn  Zn4       1.0  0.25018  0.75020  0.08975  1.0000
  Zn  Zn5       1.0  0.75000  0.25000  0.96862  1.0000
  Zn  Zn6       1.0  0.74983  0.24990  0.08977  1.0000
  Zn  Zn7       1.0  0.75000  0.75000  0.96862  1.0000
  Zn  Zn8       1.0  0.74984  0.75013  0.08976  1.0000
  Ni  Ni1       1.0  0.00000  0.00000  0.90908  1.0000
  Ni  Ni2       1.0  0.99991  0.99996  0.03238  1.0000
  Ni  Ni3       1.0  0.00000  0.50000  0.90908  1.0000
  Ni  Ni4       1.0  0.99999  0.49997  0.03245  1.0000
  Ni  Ni5       1.0  0.50000  0.00000  0.90908  1.0000
  Ni  Ni6       1.0  0.50002  0.00002  0.03231  1.0000
  Ni  Ni7       1.0  0.50000  0.50000  0.90908  1.0000
  Ni  Ni8       1.0  0.49994  0.50001  0.03242  1.0000
