data_image0
_chemical_formula_structural       Ga4Ni12C
_chemical_formula_sum              "Ga4 Ni12 C1"
_cell_length_a       7.19971
_cell_length_b       5.09096
_cell_length_c       23.8182
_cell_angle_alpha    90
_cell_angle_beta     90
_cell_angle_gamma    90

_space_group_name_H-M_alt    "P 1"
_space_group_IT_number       1

loop_
  _space_group_symop_operation_xyz
  'x, y, z'

loop_
  _atom_site_type_symbol
  _atom_site_label
  _atom_site_symmetry_multiplicity
  _atom_site_fract_x
  _atom_site_fract_y
  _atom_site_fract_z
  _atom_site_occupancy
  Ga  Ga1       1.0  0.97833  0.99815  0.07898  1.0000
  Ga  Ga2       1.0  0.00000  0.50000  0.97328  1.0000
  Ga  Ga3       1.0  0.52165  0.99816  0.07896  1.0000
  Ga  Ga4       1.0  0.50000  0.50000  0.97328  1.0000
  Ni  Ni1       1.0  0.99961  0.49807  0.08157  1.0000
  Ni  Ni2       1.0  0.24999  0.75520  0.02969  1.0000
  Ni  Ni3       1.0  0.24999  0.24228  0.02971  1.0000
  Ni  Ni4       1.0  0.00000  0.00000  0.97328  1.0000
  Ni  Ni5       1.0  0.25000  0.25000  0.91985  1.0000
  Ni  Ni6       1.0  0.25000  0.75000  0.91985  1.0000
  Ni  Ni7       1.0  0.50040  0.49805  0.08157  1.0000
  Ni  Ni8       1.0  0.75002  0.74553  0.02640  1.0000
  Ni  Ni9       1.0  0.75001  0.25134  0.02639  1.0000
  Ni  Ni10      1.0  0.50000  0.00000  0.97328  1.0000
  Ni  Ni11      1.0  0.75000  0.25000  0.91985  1.0000
  Ni  Ni12      1.0  0.75000  0.75000  0.91985  1.0000
  C   C1        1.0  0.25001  0.49896  0.08510  1.0000
