# generated using pymatgen
data_Ga4Ni12C
_symmetry_space_group_name_H-M   'P 1'
_cell_length_a   7.19971000
_cell_length_b   5.09096000
_cell_length_c   23.81820000
_cell_angle_alpha   90.00000000
_cell_angle_beta   90.00000000
_cell_angle_gamma   90.00000000
_symmetry_Int_Tables_number   1
_chemical_formula_structural   Ga4Ni12C
_chemical_formula_sum   'Ga4 Ni12 C1'
_cell_volume   873.01886032
_cell_formula_units_Z   1
loop_
 _symmetry_equiv_pos_site_id
 _symmetry_equiv_pos_as_xyz
  1  'x, y, z'
loop_
 _atom_site_type_symbol
 _atom_site_label
 _atom_site_symmetry_multiplicity
 _atom_site_fract_x
 _atom_site_fract_y
 _atom_site_fract_z
 _atom_site_occupancy
  Ga  Ga0  1  0.77168000  0.00185000  0.07898000  1.0
  Ga  Ga1  1  0.75001000  0.50000000  0.97328000  1.0
  Ga  Ga2  1  0.22832000  0.00185000  0.07898000  1.0
  Ga  Ga3  1  0.24999000  0.50000000  0.97328000  1.0
  Ni  Ni4  1  0.75040000  0.50193000  0.08157000  1.0
  Ni  Ni5  1  0.50000000  0.24480000  0.02969000  1.0
  Ni  Ni6  1  0.50000000  0.75772000  0.02971000  1.0
  Ni  Ni7  1  0.75001000  0.00000000  0.97328000  1.0
  Ni  Ni8  1  0.50000000  0.75000000  0.91985000  1.0
  Ni  Ni9  1  0.50000000  0.25000000  0.91985000  1.0
  Ni  Ni10  1  0.24960000  0.50193000  0.08157000  1.0
  Ni  Ni11  1  0.00000000  0.25447000  0.02640000  1.0
  Ni  Ni12  1  0.00000000  0.74866000  0.02639000  1.0
  Ni  Ni13  1  0.24999000  0.00000000  0.97328000  1.0
  Ni  Ni14  1  0.00000000  0.75000000  0.91985000  1.0
  Ni  Ni15  1  0.00000000  0.25000000  0.91985000  1.0
  C  C16  1  0.50000000  0.50104000  0.08510000  1.0
