# generated using pymatgen
data_Ti8Co16Si8CO
_symmetry_space_group_name_H-M   'P 1'
_cell_length_a   5.76208000
_cell_length_b   8.14881000
_cell_length_c   26.11160000
_cell_angle_alpha   90.00000000
_cell_angle_beta   90.00000000
_cell_angle_gamma   90.00000000
_symmetry_Int_Tables_number   1
_chemical_formula_structural   Ti8Co16Si8CO
_chemical_formula_sum   'Ti8 Co16 Si8 C1 O1'
_cell_volume   1226.04655026
_cell_formula_units_Z   1
loop_
 _symmetry_equiv_pos_site_id
 _symmetry_equiv_pos_as_xyz
  1  'x, y, z'
loop_
 _atom_site_type_symbol
 _atom_site_label
 _atom_site_symmetry_multiplicity
 _atom_site_fract_x
 _atom_site_fract_y
 _atom_site_fract_z
 _atom_site_occupancy
  Ti  Ti0  1  0.00000000  0.75000000  0.88297000  1.0
  Ti  Ti1  1  0.50000000  0.00000000  0.96099000  1.0
  Ti  Ti2  1  0.50000000  0.50000000  0.96099000  1.0
  Ti  Ti3  1  0.00000000  0.25000000  0.88297000  1.0
  Ti  Ti4  1  0.00000000  0.25080000  0.03836000  1.0
  Ti  Ti5  1  0.50000000  0.50000000  0.12073000  1.0
  Ti  Ti6  1  0.50000000  0.00000000  0.12107000  1.0
  Ti  Ti7  1  0.00000000  0.74920000  0.03836000  1.0
  Co  Co8  1  0.25000000  0.75000000  0.96099000  1.0
  Co  Co9  1  0.75000000  0.25000000  0.96099000  1.0
  Co  Co10  1  0.75000000  0.75000000  0.96099000  1.0
  Co  Co11  1  0.25000000  0.25000000  0.96099000  1.0
  Co  Co12  1  0.75000000  0.50000000  0.88297000  1.0
  Co  Co13  1  0.25000000  0.00000000  0.88297000  1.0
  Co  Co14  1  0.25000000  0.50000000  0.88297000  1.0
  Co  Co15  1  0.75000000  0.00000000  0.88297000  1.0
  Co  Co16  1  0.23810000  0.25107000  0.11109000  1.0
  Co  Co17  1  0.76190000  0.74893000  0.11109000  1.0
  Co  Co18  1  0.76190000  0.25107000  0.11109000  1.0
  Co  Co19  1  0.23810000  0.74893000  0.11109000  1.0
  Co  Co20  1  0.74482000  0.00000000  0.03794000  1.0
  Co  Co21  1  0.25968000  0.50000000  0.03915000  1.0
  Co  Co22  1  0.25518000  0.00000000  0.03794000  1.0
  Co  Co23  1  0.74032000  0.50000000  0.03915000  1.0
  Si  Si24  1  0.00000000  0.50000000  0.96099000  1.0
  Si  Si25  1  0.50000000  0.75000000  0.88297000  1.0
  Si  Si26  1  0.00000000  0.00000000  0.96099000  1.0
  Si  Si27  1  0.50000000  0.25000000  0.88297000  1.0
  Si  Si28  1  0.00000000  0.00000000  0.11497000  1.0
  Si  Si29  1  0.50000000  0.24918000  0.04066000  1.0
  Si  Si30  1  0.00000000  0.50000000  0.11581000  1.0
  Si  Si31  1  0.50000000  0.75082000  0.04066000  1.0
  C  C32  1  0.50000000  0.00000000  0.20370000  1.0
  O  O33  1  0.50000000  0.00000000  0.24764000  1.0
