data_image0
_chemical_formula_structural       AuScAuScAuScAuScAuScAuScAuScAuScCO
_chemical_formula_sum              "Au8 Sc8 C1 O1"
_cell_length_a       6.85145
_cell_length_b       6.85145
_cell_length_c       25.1386
_cell_angle_alpha    90
_cell_angle_beta     90
_cell_angle_gamma    90

_space_group_name_H-M_alt    "P 1"
_space_group_IT_number       1

loop_
  _space_group_symop_operation_xyz
  'x, y, z'

loop_
  _atom_site_type_symbol
  _atom_site_label
  _atom_site_symmetry_multiplicity
  _atom_site_fract_x
  _atom_site_fract_y
  _atom_site_fract_z
  _atom_site_occupancy
  Au  Au1       1.0  0.25000  0.25000  0.98734  1.0000
  Sc  Sc1       1.0  0.00000  0.00000  0.91920  1.0000
  Au  Au2       1.0  0.25000  0.25000  0.12361  1.0000
  Sc  Sc2       1.0  0.00000  0.00000  0.05548  1.0000
  Au  Au3       1.0  0.25000  0.75000  0.98734  1.0000
  Sc  Sc3       1.0  0.00000  0.50000  0.91920  1.0000
  Au  Au4       1.0  0.25000  0.75000  0.12361  1.0000
  Sc  Sc4       1.0  0.00000  0.50000  0.05548  1.0000
  Au  Au5       1.0  0.75000  0.25000  0.98734  1.0000
  Sc  Sc5       1.0  0.50000  0.00000  0.91920  1.0000
  Au  Au6       1.0  0.75000  0.25000  0.12361  1.0000
  Sc  Sc6       1.0  0.50000  0.00000  0.05548  1.0000
  Au  Au7       1.0  0.75000  0.75000  0.98734  1.0000
  Sc  Sc7       1.0  0.50000  0.50000  0.91920  1.0000
  Au  Au8       1.0  0.75000  0.75000  0.12361  1.0000
  Sc  Sc8       1.0  0.50000  0.50000  0.05548  1.0000
  C   C1        1.0  0.25000  0.25000  0.19919  1.0000
  O   O1        1.0  0.25000  0.25000  0.24494  1.0000
