# generated using pymatgen
data_Li8Ga8Ni8Pd8C
_symmetry_space_group_name_H-M   P1
_cell_length_a   5.93220000
_cell_length_b   8.38940000
_cell_length_c   26.29200000
_cell_angle_alpha   90.00000000
_cell_angle_beta   90.00000000
_cell_angle_gamma   90.00000000
_symmetry_Int_Tables_number   1
_chemical_formula_structural   Li8Ga8Ni8Pd8C
_chemical_formula_sum   'Li8 Ga8 Ni8 Pd8 C1'
_cell_volume   1308.48970449
_cell_formula_units_Z   1
loop_
 _symmetry_equiv_pos_site_id
 _symmetry_equiv_pos_as_xyz
  1  'x, y, z'
loop_
 _atom_site_type_symbol
 _atom_site_label
 _atom_site_symmetry_multiplicity
 _atom_site_fract_x
 _atom_site_fract_y
 _atom_site_fract_z
 _atom_site_occupancy
  Li  Li0  1  0.00000000  0.25000000  0.96011000  1.0
  Li  Li1  1  0.00000000  0.75000000  0.96011000  1.0
  Li  Li2  1  0.03428000  0.75001000  0.14392000  1.0
  Li  Li3  1  0.50000000  0.00000000  0.88034000  1.0
  Li  Li4  1  0.50000000  0.50000000  0.88034000  1.0
  Li  Li5  1  0.50008000  0.00056000  0.04201000  1.0
  Li  Li6  1  0.50014000  0.49947000  0.04202000  1.0
  Li  Li7  1  0.93614000  0.24997000  0.17372000  1.0
  Ga  Ga8  1  0.00000000  0.00000000  0.88034000  1.0
  Ga  Ga9  1  0.00000000  0.50000000  0.88034000  1.0
  Ga  Ga10  1  0.00137000  0.50083000  0.03940000  1.0
  Ga  Ga11  1  0.00138000  0.99918000  0.03936000  1.0
  Ga  Ga12  1  0.49582000  0.74997000  0.12286000  1.0
  Ga  Ga13  1  0.50000000  0.25000000  0.96011000  1.0
  Ga  Ga14  1  0.50000000  0.75000000  0.96011000  1.0
  Ga  Ga15  1  0.56107000  0.25007000  0.11801000  1.0
  Ni  Ni16  1  0.23849000  0.46225000  0.11937000  1.0
  Ni  Ni17  1  0.23854000  0.03777000  0.11938000  1.0
  Ni  Ni18  1  0.25000000  0.00000000  0.96011000  1.0
  Ni  Ni19  1  0.25000000  0.50000000  0.96011000  1.0
  Ni  Ni20  1  0.75000000  0.25000000  0.88034000  1.0
  Ni  Ni21  1  0.75000000  0.75000000  0.88034000  1.0
  Ni  Ni22  1  0.75589000  0.75001000  0.04086000  1.0
  Ni  Ni23  1  0.76665000  0.25000000  0.03708000  1.0
  Pd  Pd24  1  0.24830000  0.74998000  0.04339000  1.0
  Pd  Pd25  1  0.25000000  0.25000000  0.88034000  1.0
  Pd  Pd26  1  0.25000000  0.75000000  0.88034000  1.0
  Pd  Pd27  1  0.25066000  0.25002000  0.03891000  1.0
  Pd  Pd28  1  0.75000000  0.00000000  0.96011000  1.0
  Pd  Pd29  1  0.75000000  0.50000000  0.96011000  1.0
  Pd  Pd30  1  0.75843000  0.51451000  0.11895000  1.0
  Pd  Pd31  1  0.75853000  0.98548000  0.11898000  1.0
  C  C32  1  0.22873000  0.25001000  0.13346000  1.0
