# generated using pymatgen
data_Li8Mg8In8Pt8C
_symmetry_space_group_name_H-M   'P 1'
_cell_length_a   9.19976000
_cell_length_b   6.50521000
_cell_length_c   26.89980000
_cell_angle_alpha   90.00000000
_cell_angle_beta   90.00000000
_cell_angle_gamma   90.00000000
_symmetry_Int_Tables_number   1
_chemical_formula_structural   Li8Mg8In8Pt8C
_chemical_formula_sum   'Li8 Mg8 In8 Pt8 C1'
_cell_volume   1609.85540389
_cell_formula_units_Z   1
loop_
 _symmetry_equiv_pos_site_id
 _symmetry_equiv_pos_as_xyz
  1  'x, y, z'
loop_
 _atom_site_type_symbol
 _atom_site_label
 _atom_site_symmetry_multiplicity
 _atom_site_fract_x
 _atom_site_fract_y
 _atom_site_fract_z
 _atom_site_occupancy
  Li  Li0  1  0.75000000  0.25000000  0.04275000  1.0
  Li  Li1  1  0.25000000  0.25000000  0.04275000  1.0
  Li  Li2  1  0.00000000  0.75000000  0.12825000  1.0
  Li  Li3  1  0.50000000  0.75000000  0.12825000  1.0
  Li  Li4  1  0.25971000  0.28927000  0.86626000  1.0
  Li  Li5  1  0.74029000  0.28927000  0.86626000  1.0
  Li  Li6  1  0.50000000  0.74726000  0.95882000  1.0
  Li  Li7  1  0.00000000  0.71302000  0.94561000  1.0
  Mg  Mg8  1  0.00000000  0.00000000  0.04275000  1.0
  Mg  Mg9  1  0.50000000  0.00000000  0.04275000  1.0
  Mg  Mg10  1  0.25000000  0.50000000  0.12825000  1.0
  Mg  Mg11  1  0.75000000  0.50000000  0.12825000  1.0
  Mg  Mg12  1  0.50000000  0.98062000  0.87208000  1.0
  Mg  Mg13  1  0.00000000  0.04390000  0.87207000  1.0
  Mg  Mg14  1  0.74687000  0.49151000  0.95836000  1.0
  Mg  Mg15  1  0.25313000  0.49151000  0.95836000  1.0
  In  In16  1  0.75000000  0.00000000  0.12825000  1.0
  In  In17  1  0.25000000  0.00000000  0.12825000  1.0
  In  In18  1  0.50000000  0.50000000  0.04275000  1.0
  In  In19  1  0.00000000  0.50000000  0.04275000  1.0
  In  In20  1  0.24733000  0.99610000  0.95472000  1.0
  In  In21  1  0.75267000  0.99610000  0.95472000  1.0
  In  In22  1  0.00000000  0.43044000  0.81762000  1.0
  In  In23  1  0.50000000  0.53211000  0.86661000  1.0
  Pt  Pt24  1  0.75000000  0.75000000  0.04275000  1.0
  Pt  Pt25  1  0.25000000  0.75000000  0.04275000  1.0
  Pt  Pt26  1  0.00000000  0.25000000  0.12825000  1.0
  Pt  Pt27  1  0.50000000  0.25000000  0.12825000  1.0
  Pt  Pt28  1  0.21535000  0.71561000  0.87548000  1.0
  Pt  Pt29  1  0.78465000  0.71561000  0.87548000  1.0
  Pt  Pt30  1  0.50000000  0.24520000  0.95504000  1.0
  Pt  Pt31  1  0.00000000  0.25133000  0.96028000  1.0
  C  C32  1  0.00000000  0.71925000  0.86175000  1.0
