# generated using pymatgen
data_Li8Al8Sn8Pd8C
_symmetry_space_group_name_H-M   Pm
_cell_length_a   6.48942000
_cell_length_b   9.17742000
_cell_length_c   26.88310000
_cell_angle_alpha   90.00000000
_cell_angle_beta   90.00000000
_cell_angle_gamma   90.00000000
_symmetry_Int_Tables_number   6
_chemical_formula_structural   Li8Al8Sn8Pd8C
_chemical_formula_sum   'Li8 Al8 Sn8 Pd8 C1'
_cell_volume   1601.05347627
_cell_formula_units_Z   1
loop_
 _symmetry_equiv_pos_site_id
 _symmetry_equiv_pos_as_xyz
  1  'x, y, z'
  2  'x, -y, z'
loop_
 _atom_site_type_symbol
 _atom_site_label
 _atom_site_symmetry_multiplicity
 _atom_site_fract_x
 _atom_site_fract_y
 _atom_site_fract_z
 _atom_site_occupancy
  Li  Li0  2  0.74362000  0.26506000  0.14714000  1.0
  Li  Li1  2  0.75000000  0.25000000  0.95733000  1.0
  Li  Li2  1  0.19637000  0.00000000  0.05672000  1.0
  Li  Li3  1  0.23583000  0.50000000  0.04134000  1.0
  Li  Li4  1  0.25000000  0.00000000  0.87198000  1.0
  Li  Li5  1  0.25000000  0.50000000  0.87198000  1.0
  Al  Al6  2  0.00000000  0.25000000  0.87198000  1.0
  Al  Al7  2  0.96954000  0.25694000  0.04493000  1.0
  Al  Al8  1  0.46094000  0.50000000  0.12709000  1.0
  Al  Al9  1  0.50000000  0.00000000  0.95733000  1.0
  Al  Al10  1  0.50000000  0.50000000  0.95733000  1.0
  Al  Al11  1  0.55573000  0.00000000  0.11957000  1.0
  Sn  Sn12  2  0.49733000  0.25289000  0.04566000  1.0
  Sn  Sn13  2  0.50000000  0.25000000  0.87198000  1.0
  Sn  Sn14  1  -0.00000000  0.50000000  0.95733000  1.0
  Sn  Sn15  1  0.00000000  0.00000000  0.95733000  1.0
  Sn  Sn16  1  0.99298000  0.50000000  0.13167000  1.0
  Sn  Sn17  1  0.99820000  0.00000000  0.17931000  1.0
  Pd  Pd18  2  0.20349000  0.23853000  0.11972000  1.0
  Pd  Pd19  2  0.25000000  0.25000000  0.95733000  1.0
  Pd  Pd20  1  0.74098000  0.00000000  0.03649000  1.0
  Pd  Pd21  1  0.74339000  0.50000000  0.03662000  1.0
  Pd  Pd22  1  0.75000000  0.00000000  0.87198000  1.0
  Pd  Pd23  1  0.75000000  0.50000000  0.87198000  1.0
  C  C24  1  0.26944000  0.00000000  0.13453000  1.0
