# generated using pymatgen
data_LiInPdRh
_symmetry_space_group_name_H-M   'P 1'
_cell_length_a   6.29773000
_cell_length_b   4.45317000
_cell_length_c   26.67980000
_cell_angle_alpha   90.00000000
_cell_angle_beta   90.00000000
_cell_angle_gamma   90.00000000
_symmetry_Int_Tables_number   1
_chemical_formula_structural   LiInPdRh
_chemical_formula_sum   'Li4 In4 Pd4 Rh4'
_cell_volume   748.23131730
_cell_formula_units_Z   4
loop_
 _symmetry_equiv_pos_site_id
 _symmetry_equiv_pos_as_xyz
  1  'x, y, z'
loop_
 _atom_site_type_symbol
 _atom_site_label
 _atom_site_symmetry_multiplicity
 _atom_site_fract_x
 _atom_site_fract_y
 _atom_site_fract_z
 _atom_site_occupancy
  Li  Li0  1  0.00000000  0.50000000  0.95827000  1.0
  Li  Li1  1  0.50000000  0.00000000  0.87482000  1.0
  Li  Li2  1  0.99652000  0.50000000  0.13142000  1.0
  Li  Li3  1  0.50072000  0.00000000  0.04145000  1.0
  In  In4  1  0.00000000  0.00000000  0.87482000  1.0
  In  In5  1  0.50000000  0.50000000  0.95827000  1.0
  In  In6  1  0.00072000  0.00000000  0.04089000  1.0
  In  In7  1  0.50564000  0.50000000  0.13310000  1.0
  Pd  Pd8  1  0.25000000  0.00000000  0.95827000  1.0
  Pd  Pd9  1  0.75000000  0.50000000  0.87482000  1.0
  Pd  Pd10  1  0.25391000  0.00000000  0.12236000  1.0
  Pd  Pd11  1  0.74705000  0.50000000  0.04359000  1.0
  Rh  Rh12  1  0.75000000  0.00000000  0.95827000  1.0
  Rh  Rh13  1  0.25000000  0.50000000  0.87482000  1.0
  Rh  Rh14  1  0.74311500  0.00000000  0.12065000  1.0
  Rh  Rh15  1  0.25449500  0.50000000  0.04524000  1.0
