data_image0
_chemical_formula_structural       Li4Sc4Ga4Ge4C
_chemical_formula_sum              "Li4 Sc4 Ga4 Ge4 C1"
_cell_length_a       5.77599
_cell_length_b       8.07712
_cell_length_c       24.3264
_cell_angle_alpha    90
_cell_angle_beta     90
_cell_angle_gamma    90

_space_group_name_H-M_alt    "P 1"
_space_group_IT_number       1

loop_
  _space_group_symop_operation_xyz
  'x, y, z'

loop_
  _atom_site_type_symbol
  _atom_site_label
  _atom_site_symmetry_multiplicity
  _atom_site_fract_x
  _atom_site_fract_y
  _atom_site_fract_z
  _atom_site_occupancy
  Li  Li1       1.0  0.27386  0.25000  0.02548  1.0000
  Li  Li2       1.0  0.71193  0.25000  0.91108  1.0000
  Li  Li3       1.0  0.24122  0.75000  0.04122  1.0000
  Li  Li4       1.0  0.71193  0.75000  0.91108  1.0000
  Sc  Sc1       1.0  0.56728  0.04599  0.09611  1.0000
  Sc  Sc2       1.0  0.97462  0.00000  0.97036  1.0000
  Sc  Sc3       1.0  0.56727  0.45400  0.09611  1.0000
  Sc  Sc4       1.0  0.97462  0.50000  0.97036  1.0000
  Ga  Ga1       1.0  0.05553  0.07947  0.11555  1.0000
  Ga  Ga2       1.0  0.47462  0.00000  0.97036  1.0000
  Ga  Ga3       1.0  0.05556  0.42049  0.11557  1.0000
  Ga  Ga4       1.0  0.47462  0.50000  0.97036  1.0000
  Ge  Ge1       1.0  0.78062  0.25001  0.02555  1.0000
  Ge  Ge2       1.0  0.21193  0.25000  0.91108  1.0000
  Ge  Ge3       1.0  0.73523  0.75000  0.03419  1.0000
  Ge  Ge4       1.0  0.21193  0.75000  0.91108  1.0000
  C   C1        1.0  0.33090  0.24999  0.11205  1.0000
