# generated using pymatgen
data_Li4Sc4Ga4Ge4C
_symmetry_space_group_name_H-M   Pm
_cell_length_a   5.77599000
_cell_length_b   8.07712000
_cell_length_c   24.32640000
_cell_angle_alpha   90.00000000
_cell_angle_beta   90.00000000
_cell_angle_gamma   90.00000000
_symmetry_Int_Tables_number   6
_chemical_formula_structural   Li4Sc4Ga4Ge4C
_chemical_formula_sum   'Li4 Sc4 Ga4 Ge4 C1'
_cell_volume   1134.90840249
_cell_formula_units_Z   1
loop_
 _symmetry_equiv_pos_site_id
 _symmetry_equiv_pos_as_xyz
  1  'x, y, z'
  2  'x, -y, z'
loop_
 _atom_site_type_symbol
 _atom_site_label
 _atom_site_symmetry_multiplicity
 _atom_site_fract_x
 _atom_site_fract_y
 _atom_site_fract_z
 _atom_site_occupancy
  Li  Li0  1  0.24122000  0.50000000  0.04122000  1.0
  Li  Li1  1  0.27386000  0.00000000  0.02548000  1.0
  Li  Li2  1  0.71193000  0.00000000  0.91108000  1.0
  Li  Li3  1  0.71193000  0.50000000  0.91108000  1.0
  Sc  Sc4  2  0.56728000  0.20400000  0.09611000  1.0
  Sc  Sc5  2  0.97462000  0.24999000  0.97036000  1.0
  Ga  Ga6  2  0.05553000  0.17052000  0.11555000  1.0
  Ga  Ga7  2  0.47462000  0.24999000  0.97036000  1.0
  Ge  Ge8  1  0.21193000  0.00000000  0.91108000  1.0
  Ge  Ge9  1  0.21193000  0.50000000  0.91108000  1.0
  Ge  Ge10  1  0.73523000  0.50000000  0.03419000  1.0
  Ge  Ge11  1  0.78062000  0.00000000  0.02555000  1.0
  C  C12  1  0.33090000  0.00000000  0.11205000  1.0
