# generated using pymatgen
data_In4Ni12C
_symmetry_space_group_name_H-M   'P 1'
_cell_length_a   7.55564000
_cell_length_b   5.34265000
_cell_length_c   24.00700000
_cell_angle_alpha   90.00000000
_cell_angle_beta   90.00000000
_cell_angle_gamma   90.00000000
_symmetry_Int_Tables_number   1
_chemical_formula_structural   In4Ni12C
_chemical_formula_sum   'In4 Ni12 C1'
_cell_volume   969.09393108
_cell_formula_units_Z   1
loop_
 _symmetry_equiv_pos_site_id
 _symmetry_equiv_pos_as_xyz
  1  'x, y, z'
loop_
 _atom_site_type_symbol
 _atom_site_label
 _atom_site_symmetry_multiplicity
 _atom_site_fract_x
 _atom_site_fract_y
 _atom_site_fract_z
 _atom_site_occupancy
  In  In0  1  0.00000000  0.50000000  0.08345000  1.0
  In  In1  1  0.99999000  0.00000000  0.98322000  1.0
  In  In2  1  0.50000000  0.50000000  0.08345000  1.0
  In  In3  1  0.50004000  0.00000000  0.95009000  1.0
  Ni  Ni4  1  0.00000000  0.00000000  0.08345000  1.0
  Ni  Ni5  1  0.25000000  0.25001000  0.02782000  1.0
  Ni  Ni6  1  0.25000000  0.74999000  0.02782000  1.0
  Ni  Ni7  1  0.00002000  0.50000000  0.97447000  1.0
  Ni  Ni8  1  0.17143000  0.75599000  0.90706000  1.0
  Ni  Ni9  1  0.17143000  0.24401000  0.90706000  1.0
  Ni  Ni10  1  0.50000000  0.00000000  0.08345000  1.0
  Ni  Ni11  1  0.75000000  0.25001000  0.02782000  1.0
  Ni  Ni12  1  0.75000000  0.74999000  0.02782000  1.0
  Ni  Ni13  1  0.50005000  0.50000000  0.96963000  1.0
  Ni  Ni14  1  0.82845000  0.75591000  0.90708000  1.0
  Ni  Ni15  1  0.82845000  0.24409000  0.90708000  1.0
  C  C16  1  0.99990000  0.00000000  0.88533000  1.0
