data_image0
_chemical_formula_structural       Ti4Zn12CO
_chemical_formula_sum              "Ti4 Zn12 C1 O1"
_cell_length_a       7.87849
_cell_length_b       5.57094
_cell_length_c       24.1782
_cell_angle_alpha    90
_cell_angle_beta     90
_cell_angle_gamma    90

_space_group_name_H-M_alt    "P 1"
_space_group_IT_number       1

loop_
  _space_group_symop_operation_xyz
  'x, y, z'

loop_
  _atom_site_type_symbol
  _atom_site_label
  _atom_site_symmetry_multiplicity
  _atom_site_fract_x
  _atom_site_fract_y
  _atom_site_fract_z
  _atom_site_occupancy
  Ti  Ti1       1.0  0.00000  0.00000  0.91360  1.0000
  Ti  Ti2       1.0  0.99990  0.50433  0.02878  1.0000
  Ti  Ti3       1.0  0.50000  0.00000  0.91360  1.0000
  Ti  Ti4       1.0  0.50011  0.50434  0.02876  1.0000
  Zn  Zn1       1.0  0.00000  0.50000  0.91360  1.0000
  Zn  Zn2       1.0  0.25000  0.75000  0.97120  1.0000
  Zn  Zn3       1.0  0.25000  0.25000  0.97120  1.0000
  Zn  Zn4       1.0  0.00552  0.00636  0.03557  1.0000
  Zn  Zn5       1.0  0.24998  0.26708  0.08958  1.0000
  Zn  Zn6       1.0  0.24998  0.74667  0.08414  1.0000
  Zn  Zn7       1.0  0.50000  0.50000  0.91360  1.0000
  Zn  Zn8       1.0  0.75000  0.75000  0.97120  1.0000
  Zn  Zn9       1.0  0.75000  0.25000  0.97120  1.0000
  Zn  Zn10      1.0  0.49447  0.00634  0.03548  1.0000
  Zn  Zn11      1.0  0.75002  0.25892  0.08510  1.0000
  Zn  Zn12      1.0  0.75003  0.75413  0.08428  1.0000
  C   C1        1.0  0.25015  0.20406  0.17336  1.0000
  O   O1        1.0  0.24994  0.20805  0.22079  1.0000
