# generated using pymatgen
data_Ti4Zn12CO
_symmetry_space_group_name_H-M   'P 1'
_cell_length_a   5.57094000
_cell_length_b   7.87849000
_cell_length_c   24.17820000
_cell_angle_alpha   90.00000000
_cell_angle_beta   90.00000000
_cell_angle_gamma   90.00000000
_symmetry_Int_Tables_number   1
_chemical_formula_structural   Ti4Zn12CO
_chemical_formula_sum   'Ti4 Zn12 C1 O1'
_cell_volume   1061.19558598
_cell_formula_units_Z   1
loop_
 _symmetry_equiv_pos_site_id
 _symmetry_equiv_pos_as_xyz
  1  'x, y, z'
loop_
 _atom_site_type_symbol
 _atom_site_label
 _atom_site_symmetry_multiplicity
 _atom_site_fract_x
 _atom_site_fract_y
 _atom_site_fract_z
 _atom_site_occupancy
  Ti  Ti0  1  0.00000000  0.00000000  0.08640000  1.0
  Ti  Ti1  1  0.49601000  0.00001000  0.97139000  1.0
  Ti  Ti2  1  0.00000000  0.50000000  0.08640000  1.0
  Ti  Ti3  1  0.49581000  0.49996000  0.97115000  1.0
  Zn  Zn4  1  0.50000000  0.00000000  0.08640000  1.0
  Zn  Zn5  1  0.25000000  0.75000000  0.02880000  1.0
  Zn  Zn6  1  0.75000000  0.75000000  0.02880000  1.0
  Zn  Zn7  1  0.99359000  0.99449000  0.96436000  1.0
  Zn  Zn8  1  0.73234000  0.74967000  0.91052000  1.0
  Zn  Zn9  1  0.25352000  0.74987000  0.91594000  1.0
  Zn  Zn10  1  0.50000000  0.50000000  0.08640000  1.0
  Zn  Zn11  1  0.25000000  0.25000000  0.02880000  1.0
  Zn  Zn12  1  0.75000000  0.25000000  0.02880000  1.0
  Zn  Zn13  1  0.99349000  0.50534000  0.96430000  1.0
  Zn  Zn14  1  0.74127000  0.25015000  0.91499000  1.0
  Zn  Zn15  1  0.24585000  0.25017000  0.91593000  1.0
  C  C16  1  0.80511000  0.75006000  0.82714000  1.0
  O  O17  1  0.81287000  0.74999000  0.77975000  1.0
