data_image0
_chemical_formula_structural       Cr8In8Co16
_chemical_formula_sum              "Cr8 In8 Co16"
_cell_length_a       6.00915
_cell_length_b       8.49821
_cell_length_c       26.3737
_cell_angle_alpha    90
_cell_angle_beta     90
_cell_angle_gamma    90

_space_group_name_H-M_alt    "P 1"
_space_group_IT_number       1

loop_
  _space_group_symop_operation_xyz
  'x, y, z'

loop_
  _atom_site_type_symbol
  _atom_site_label
  _atom_site_symmetry_multiplicity
  _atom_site_fract_x
  _atom_site_fract_y
  _atom_site_fract_z
  _atom_site_occupancy
  Cr  Cr1       1.0  0.00000  0.00000  0.87917  1.0000
  Cr  Cr2       1.0  0.50000  0.25000  0.95972  1.0000
  Cr  Cr3       1.0  0.50000  0.75000  0.95972  1.0000
  Cr  Cr4       1.0  0.00000  0.50000  0.87917  1.0000
  Cr  Cr5       1.0  0.00000  0.50000  0.04182  1.0000
  Cr  Cr6       1.0  0.50000  0.75000  0.11887  1.0000
  Cr  Cr7       1.0  0.50000  0.25000  0.11887  1.0000
  Cr  Cr8       1.0  0.00000  0.00000  0.04182  1.0000
  In  In1       1.0  0.00000  0.75000  0.95972  1.0000
  In  In2       1.0  0.50000  0.00000  0.87917  1.0000
  In  In3       1.0  0.00000  0.25000  0.95972  1.0000
  In  In4       1.0  0.50000  0.50000  0.87917  1.0000
  In  In5       1.0  0.00000  0.24999  0.12595  1.0000
  In  In6       1.0  0.50000  0.50000  0.03990  1.0000
  In  In7       1.0  0.00000  0.75001  0.12595  1.0000
  In  In8       1.0  0.50000  0.00000  0.03990  1.0000
  Co  Co1       1.0  0.25000  0.00000  0.95972  1.0000
  Co  Co2       1.0  0.75000  0.50000  0.95972  1.0000
  Co  Co3       1.0  0.75000  0.00000  0.95972  1.0000
  Co  Co4       1.0  0.25000  0.50000  0.95972  1.0000
  Co  Co5       1.0  0.75000  0.75000  0.87917  1.0000
  Co  Co6       1.0  0.25000  0.25000  0.87917  1.0000
  Co  Co7       1.0  0.25000  0.75000  0.87917  1.0000
  Co  Co8       1.0  0.75000  0.25000  0.87917  1.0000
  Co  Co9       1.0  0.25331  0.49999  0.11890  1.0000
  Co  Co10      1.0  0.74670  0.00001  0.11890  1.0000
  Co  Co11      1.0  0.74669  0.49999  0.11890  1.0000
  Co  Co12      1.0  0.25330  0.00001  0.11889  1.0000
  Co  Co13      1.0  0.75065  0.24997  0.04005  1.0000
  Co  Co14      1.0  0.24935  0.75003  0.04005  1.0000
  Co  Co15      1.0  0.24935  0.24997  0.04005  1.0000
  Co  Co16      1.0  0.75065  0.75003  0.04005  1.0000
