# generated using pymatgen
data_CrInCo2
_symmetry_space_group_name_H-M   'P 1'
_cell_length_a   4.24910500
_cell_length_b   6.00915000
_cell_length_c   26.37370000
_cell_angle_alpha   90.00000000
_cell_angle_beta   90.00000000
_cell_angle_gamma   90.00000000
_symmetry_Int_Tables_number   1
_chemical_formula_structural   CrInCo2
_chemical_formula_sum   'Cr4 In4 Co8'
_cell_volume   673.41311451
_cell_formula_units_Z   4
loop_
 _symmetry_equiv_pos_site_id
 _symmetry_equiv_pos_as_xyz
  1  'x, y, z'
loop_
 _atom_site_type_symbol
 _atom_site_label
 _atom_site_symmetry_multiplicity
 _atom_site_fract_x
 _atom_site_fract_y
 _atom_site_fract_z
 _atom_site_occupancy
  Cr  Cr0  1  0.00000000  0.00000000  0.12083000  1.0
  Cr  Cr1  1  0.50000000  0.50000000  0.04028000  1.0
  Cr  Cr2  1  0.00000000  0.00000000  0.95818000  1.0
  Cr  Cr3  1  0.50000000  0.50000000  0.88113000  1.0
  In  In4  1  0.50000000  0.00000000  0.04028000  1.0
  In  In5  1  0.00000000  0.50000000  0.12083000  1.0
  In  In6  1  0.50000000  0.00000000  0.87405000  1.0
  In  In7  1  0.00000000  0.50000000  0.96010000  1.0
  Co  Co8  1  0.00000000  0.75000000  0.04028000  1.0
  Co  Co9  1  0.00000000  0.25000000  0.04028000  1.0
  Co  Co10  1  0.50000000  0.25000000  0.12083000  1.0
  Co  Co11  1  0.50000000  0.75000000  0.12083000  1.0
  Co  Co12  1  0.00000000  0.74669500  0.88110500  1.0
  Co  Co13  1  0.00000000  0.25330500  0.88110500  1.0
  Co  Co14  1  0.50000000  0.24935000  0.95995000  1.0
  Co  Co15  1  0.50000000  0.75065000  0.95995000  1.0
