# generated using pymatgen
data_TiFe
_symmetry_space_group_name_H-M   'P 1'
_cell_length_a   2.96364000
_cell_length_b   4.19122000
_cell_length_c   26.28680000
_cell_angle_alpha   90.00000000
_cell_angle_beta   90.00000000
_cell_angle_gamma   90.00000000
_symmetry_Int_Tables_number   1
_chemical_formula_structural   TiFe
_chemical_formula_sum   'Ti4 Fe4'
_cell_volume   326.51536771
_cell_formula_units_Z   4
loop_
 _symmetry_equiv_pos_site_id
 _symmetry_equiv_pos_as_xyz
  1  'x, y, z'
loop_
 _atom_site_type_symbol
 _atom_site_label
 _atom_site_symmetry_multiplicity
 _atom_site_fract_x
 _atom_site_fract_y
 _atom_site_fract_z
 _atom_site_occupancy
  Ti  Ti0  1  0.00000000  0.00000000  0.88042000  1.0
  Ti  Ti1  1  0.00000000  0.50000000  0.96014000  1.0
  Ti  Ti2  1  0.00000000  0.00000000  0.04088000  1.0
  Ti  Ti3  1  0.00000000  0.50000000  0.12237000  1.0
  Fe  Fe4  1  0.50000000  0.50000000  0.88042000  1.0
  Fe  Fe5  1  0.50000000  0.00000000  0.96014000  1.0
  Fe  Fe6  1  0.50000000  0.50000000  0.04127000  1.0
  Fe  Fe7  1  0.50000000  0.00000000  0.11704000  1.0
