# generated using pymatgen
data_Sc16Ni16CO
_symmetry_space_group_name_H-M   Pmm2
_cell_length_a   6.35210000
_cell_length_b   8.98322000
_cell_length_c   26.73740000
_cell_angle_alpha   90.00000000
_cell_angle_beta   90.00000000
_cell_angle_gamma   90.00000000
_symmetry_Int_Tables_number   25
_chemical_formula_structural   Sc16Ni16CO
_chemical_formula_sum   'Sc16 Ni16 C1 O1'
_cell_volume   1525.69785451
_cell_formula_units_Z   1
loop_
 _symmetry_equiv_pos_site_id
 _symmetry_equiv_pos_as_xyz
  1  'x, y, z'
  2  '-x, -y, z'
  3  '-x, y, z'
  4  'x, -y, z'
loop_
 _atom_site_type_symbol
 _atom_site_label
 _atom_site_symmetry_multiplicity
 _atom_site_fract_x
 _atom_site_fract_y
 _atom_site_fract_z
 _atom_site_occupancy
  Sc  Sc0  2  0.00000000  0.25000000  0.87401000  1.0
  Sc  Sc1  2  0.00000000  0.25532000  0.04181000  1.0
  Sc  Sc2  2  0.50000000  0.25000000  0.87401000  1.0
  Sc  Sc3  2  0.50000000  0.25020000  0.04381000  1.0
  Sc  Sc4  1  0.00000000  0.00000000  0.12158000  1.0
  Sc  Sc5  1  0.00000000  0.00000000  0.95800000  1.0
  Sc  Sc6  1  0.00000000  0.50000000  0.12814000  1.0
  Sc  Sc7  1  0.00000000  0.50000000  0.95800000  1.0
  Sc  Sc8  1  0.50000000  0.00000000  0.12980000  1.0
  Sc  Sc9  1  0.50000000  0.00000000  0.95800000  1.0
  Sc  Sc10  1  0.50000000  0.50000000  0.12838000  1.0
  Sc  Sc11  1  0.50000000  0.50000000  0.95800000  1.0
  Ni  Ni12  4  0.25000000  0.25000000  0.95800000  1.0
  Ni  Ni13  4  0.25059000  0.25321000  0.11794000  1.0
  Ni  Ni14  2  0.25000000  0.00000000  0.87401000  1.0
  Ni  Ni15  2  0.25000000  0.50000000  0.87401000  1.0
  Ni  Ni16  2  0.25074000  0.50000000  0.04451000  1.0
  Ni  Ni17  2  0.25970000  0.00000000  0.04162000  1.0
  C  C18  1  0.00000000  0.00000000  0.20628000  1.0
  O  O19  1  0.00000000  0.00000000  0.24922000  1.0
