# generated using pymatgen
data_Li8Y8In8Pb8CO
_symmetry_space_group_name_H-M   P1
_cell_length_a   9.32892000
_cell_length_b   9.42336000
_cell_length_c   26.75090000
_cell_angle_alpha   90.00000000
_cell_angle_beta   90.00000000
_cell_angle_gamma   90.00000000
_symmetry_Int_Tables_number   1
_chemical_formula_structural   Li8Y8In8Pb8CO
_chemical_formula_sum   'Li8 Y8 In8 Pb8 C1 O1'
_cell_volume   2351.66550832
_cell_formula_units_Z   1
loop_
 _symmetry_equiv_pos_site_id
 _symmetry_equiv_pos_as_xyz
  1  'x, y, z'
loop_
 _atom_site_type_symbol
 _atom_site_label
 _atom_site_symmetry_multiplicity
 _atom_site_fract_x
 _atom_site_fract_y
 _atom_site_fract_z
 _atom_site_occupancy
  Li  Li0  1  0.24997000  0.49981000  0.11635000  1.0
  Li  Li1  1  0.24998000  0.99939000  0.08002000  1.0
  Li  Li2  1  0.25000000  0.00000000  0.95794000  1.0
  Li  Li3  1  0.25000000  0.50000000  0.95794000  1.0
  Li  Li4  1  0.74999000  0.99978000  0.11452000  1.0
  Li  Li5  1  0.75000000  0.00000000  0.95794000  1.0
  Li  Li6  1  0.75000000  0.50000000  0.95794000  1.0
  Li  Li7  1  0.75000000  0.50012000  0.11784000  1.0
  Y  Y8  1  0.00000000  0.25000000  0.95794000  1.0
  Y  Y9  1  0.00000000  0.75000000  0.95794000  1.0
  Y  Y10  1  0.03497000  0.20193000  0.12688000  1.0
  Y  Y11  1  0.03709000  0.79946000  0.12724000  1.0
  Y  Y12  1  0.46286000  0.79956000  0.12728000  1.0
  Y  Y13  1  0.46491000  0.20180000  0.12693000  1.0
  Y  Y14  1  0.50000000  0.25000000  0.95794000  1.0
  Y  Y15  1  0.50000000  0.75000000  0.95794000  1.0
  In  In16  1  0.00000000  0.00000000  0.87382000  1.0
  In  In17  1  0.00000000  0.50000000  0.87382000  1.0
  In  In18  1  0.50000000  0.00000000  0.87382000  1.0
  In  In19  1  0.50000000  0.50000000  0.87382000  1.0
  In  In20  1  0.50084000  0.50036000  0.04749000  1.0
  In  In21  1  0.51423000  0.00006000  0.03480000  1.0
  In  In22  1  0.98582000  0.00008000  0.03481000  1.0
  In  In23  1  0.99917000  0.50040000  0.04749000  1.0
  Pb  Pb24  1  0.24998000  0.26394000  0.03836000  1.0
  Pb  Pb25  1  0.25000000  0.25000000  0.87382000  1.0
  Pb  Pb26  1  0.25000000  0.75000000  0.87382000  1.0
  Pb  Pb27  1  0.25003000  0.73553000  0.03807000  1.0
  Pb  Pb28  1  0.75000000  0.25000000  0.87382000  1.0
  Pb  Pb29  1  0.75000000  0.75000000  0.87382000  1.0
  Pb  Pb30  1  0.75001000  0.74587000  0.04746000  1.0
  Pb  Pb31  1  0.75002000  0.25440000  0.04766000  1.0
  C  C32  1  0.25001000  0.98912000  0.15384000  1.0
  O  O33  1  0.25014000  0.00499000  0.20043000  1.0
