data_image0
_chemical_formula_structural       Sc16Ni16C
_chemical_formula_sum              "Sc16 Ni16 C1"
_cell_length_a       6.37073
_cell_length_b       9.00957
_cell_length_c       26.7572
_cell_angle_alpha    90
_cell_angle_beta     90
_cell_angle_gamma    90

_space_group_name_H-M_alt    "P 1"
_space_group_IT_number       1

loop_
  _space_group_symop_operation_xyz
  'x, y, z'

loop_
  _atom_site_type_symbol
  _atom_site_label
  _atom_site_symmetry_multiplicity
  _atom_site_fract_x
  _atom_site_fract_y
  _atom_site_fract_z
  _atom_site_occupancy
  Sc  Sc1       1.0  0.25000  0.25000  0.87373  1.0000
  Sc  Sc2       1.0  0.25000  0.00000  0.95791  1.0000
  Sc  Sc3       1.0  0.25200  0.24789  0.04320  1.0000
  Sc  Sc4       1.0  0.27260  0.00005  0.14120  1.0000
  Sc  Sc5       1.0  0.25000  0.75000  0.87373  1.0000
  Sc  Sc6       1.0  0.25000  0.50000  0.95791  1.0000
  Sc  Sc7       1.0  0.25199  0.75212  0.04321  1.0000
  Sc  Sc8       1.0  0.24793  0.50002  0.12844  1.0000
  Sc  Sc9       1.0  0.75000  0.25000  0.87373  1.0000
  Sc  Sc10      1.0  0.75000  0.00000  0.95791  1.0000
  Sc  Sc11      1.0  0.74803  0.24788  0.04321  1.0000
  Sc  Sc12      1.0  0.72739  0.00004  0.14122  1.0000
  Sc  Sc13      1.0  0.75000  0.75000  0.87373  1.0000
  Sc  Sc14      1.0  0.75000  0.50000  0.95791  1.0000
  Sc  Sc15      1.0  0.74804  0.75212  0.04321  1.0000
  Sc  Sc16      1.0  0.75208  0.50001  0.12844  1.0000
  Ni  Ni1       1.0  0.00000  0.00000  0.87373  1.0000
  Ni  Ni2       1.0  0.00000  0.25000  0.95791  1.0000
  Ni  Ni3       1.0  0.99991  0.00006  0.03287  1.0000
  Ni  Ni4       1.0  0.00000  0.24132  0.11904  1.0000
  Ni  Ni5       1.0  0.00000  0.50000  0.87373  1.0000
  Ni  Ni6       1.0  0.00000  0.75000  0.95791  1.0000
  Ni  Ni7       1.0  0.99998  0.50000  0.04685  1.0000
  Ni  Ni8       1.0  0.00002  0.75868  0.11905  1.0000
  Ni  Ni9       1.0  0.50000  0.00000  0.87373  1.0000
  Ni  Ni10      1.0  0.50000  0.25000  0.95791  1.0000
  Ni  Ni11      1.0  0.49997  0.00001  0.04705  1.0000
  Ni  Ni12      1.0  0.50000  0.25443  0.11982  1.0000
  Ni  Ni13      1.0  0.50000  0.50000  0.87373  1.0000
  Ni  Ni14      1.0  0.50000  0.75000  0.95791  1.0000
  Ni  Ni15      1.0  0.50002  0.49999  0.04584  1.0000
  Ni  Ni16      1.0  0.50003  0.74561  0.11982  1.0000
  C   C1        1.0  0.99997  0.99992  0.10099  1.0000
