# generated using pymatgen
data_LiGePdPb
_symmetry_space_group_name_H-M   'P 1'
_cell_length_a   6.74945000
_cell_length_b   6.74945000
_cell_length_c   25.06210000
_cell_angle_alpha   90.00000000
_cell_angle_beta   90.00000000
_cell_angle_gamma   90.00000000
_symmetry_Int_Tables_number   1
_chemical_formula_structural   LiGePdPb
_chemical_formula_sum   'Li4 Ge4 Pd4 Pb4'
_cell_volume   1141.70585274
_cell_formula_units_Z   4
loop_
 _symmetry_equiv_pos_site_id
 _symmetry_equiv_pos_as_xyz
  1  'x, y, z'
loop_
 _atom_site_type_symbol
 _atom_site_label
 _atom_site_symmetry_multiplicity
 _atom_site_fract_x
 _atom_site_fract_y
 _atom_site_fract_z
 _atom_site_occupancy
  Li  Li0  1  0.75000000  0.25000000  0.96634000  1
  Li  Li1  1  0.25078000  0.25078000  0.09929000  1
  Li  Li2  1  0.74922000  0.74922000  0.09929000  1
  Li  Li3  1  0.25000000  0.75000000  0.96634000  1
  Ge  Ge4  1  0.00000000  0.00000000  0.89901000  1
  Ge  Ge5  1  0.50000000  0.00000000  0.03619000  1
  Ge  Ge6  1  0.00000000  0.50000000  0.03619000  1
  Ge  Ge7  1  0.50000000  0.50000000  0.89901000  1
  Pd  Pd8  1  0.75000000  0.75000000  0.96634000  1
  Pd  Pd9  1  0.25031500  0.74968500  0.08218000  1
  Pd  Pd10  1  0.74968500  0.25031500  0.08218000  1
  Pd  Pd11  1  0.25000000  0.25000000  0.96634000  1
  Pb  Pb12  1  0.50000000  0.00000000  0.89901000  1
  Pb  Pb13  1  0.00000000  0.00000000  0.02740000  1
  Pb  Pb14  1  0.50000000  0.50000000  0.02714000  1
  Pb  Pb15  1  0.00000000  0.50000000  0.89901000  1
