# generated using pymatgen
data_LiGePdPb
_symmetry_space_group_name_H-M   Cmm2
_cell_length_a   9.54516373
_cell_length_b   9.54516373
_cell_length_c   25.06210000
_cell_angle_alpha   90.00000000
_cell_angle_beta   90.00000000
_cell_angle_gamma   90.00000000
_symmetry_Int_Tables_number   35
_chemical_formula_structural   LiGePdPb
_chemical_formula_sum   'Li8 Ge8 Pd8 Pb8'
_cell_volume   2283.41170548
_cell_formula_units_Z   8
loop_
 _symmetry_equiv_pos_site_id
 _symmetry_equiv_pos_as_xyz
  1  'x, y, z'
  2  '-x, -y, z'
  3  '-x, y, z'
  4  'x, -y, z'
  5  'x+1/2, y+1/2, z'
  6  '-x+1/2, -y+1/2, z'
  7  '-x+1/2, y+1/2, z'
  8  'x+1/2, -y+1/2, z'
loop_
 _atom_site_type_symbol
 _atom_site_label
 _atom_site_symmetry_multiplicity
 _atom_site_fract_x
 _atom_site_fract_y
 _atom_site_fract_z
 _atom_site_occupancy
  Li  Li0  4  0.00000000  0.25000000  0.96634000  1.0
  Li  Li1  4  0.24922000  0.50000000  0.09929000  1.0
  Ge  Ge2  4  0.25000000  0.25000000  0.03619000  1.0
  Ge  Ge3  2  0.00000000  0.00000000  0.89901000  1.0
  Ge  Ge4  2  0.00000000  0.50000000  0.89901000  1.0
  Pd  Pd5  4  0.00000000  0.25031500  0.08218000  1.0
  Pd  Pd6  4  0.25000000  0.00000000  0.96634000  1.0
  Pb  Pb7  4  0.25000000  0.25000000  0.89901000  1.0
  Pb  Pb8  2  0.00000000  0.00000000  0.02740000  1.0
  Pb  Pb9  2  0.00000000  0.50000000  0.02714000  1.0
