# generated using pymatgen
data_Li16Pb8Au8C
_symmetry_space_group_name_H-M   'P 1'
_cell_length_a   9.64550000
_cell_length_b   6.82040000
_cell_length_c   27.23410000
_cell_angle_alpha   90.00000000
_cell_angle_beta   90.00000000
_cell_angle_gamma   90.00000000
_symmetry_Int_Tables_number   1
_chemical_formula_structural   Li16Pb8Au8C
_chemical_formula_sum   'Li16 Pb8 Au8 C1'
_cell_volume   1791.62708338
_cell_formula_units_Z   1
loop_
 _symmetry_equiv_pos_site_id
 _symmetry_equiv_pos_as_xyz
  1  'x, y, z'
loop_
 _atom_site_type_symbol
 _atom_site_label
 _atom_site_symmetry_multiplicity
 _atom_site_fract_x
 _atom_site_fract_y
 _atom_site_fract_z
 _atom_site_occupancy
  Li  Li0  1  0.75000000  1.00000000  0.04427000  1.0
  Li  Li1  1  0.00000000  0.50000000  0.13281000  1.0
  Li  Li2  1  0.25000000  1.00000000  0.04427000  1.0
  Li  Li3  1  0.50000000  0.50000000  0.13281000  1.0
  Li  Li4  1  0.00000000  0.25000000  0.04427000  1.0
  Li  Li5  1  0.50000000  0.25000000  0.04427000  1.0
  Li  Li6  1  0.75000000  0.75000000  0.13281000  1.0
  Li  Li7  1  0.25000000  0.75000000  0.13281000  1.0
  Li  Li8  1  0.26358000  0.98300000  0.87273000  1.0
  Li  Li9  1  0.50000000  0.52138000  0.96421000  1.0
  Li  Li10  1  0.73642000  0.98300000  0.87273000  1.0
  Li  Li11  1  0.00000000  0.46731000  0.93823000  1.0
  Li  Li12  1  0.50000000  0.31835000  0.88110000  1.0
  Li  Li13  1  0.00000000  0.20139000  0.85955000  1.0
  Li  Li14  1  0.23537000  0.71088000  0.94711000  1.0
  Li  Li15  1  0.76463000  0.71088000  0.94711000  1.0
  Pb  Pb16  1  0.00000000  0.00000000  0.13281000  1.0
  Pb  Pb17  1  0.25000000  0.50000000  0.04427000  1.0
  Pb  Pb18  1  0.75000000  0.50000000  0.04427000  1.0
  Pb  Pb19  1  0.50000000  1.00000000  0.13281000  1.0
  Pb  Pb20  1  0.50000000  0.00248000  0.95838000  1.0
  Pb  Pb21  1  0.76300000  0.48351000  0.84081000  1.0
  Pb  Pb22  1  0.23700000  0.48351000  0.84081000  1.0
  Pb  Pb23  1  0.00000000  0.02859000  0.96040000  1.0
  Au  Au24  1  0.25000000  0.25000000  0.13281000  1.0
  Au  Au25  1  0.75000000  0.25000000  0.13281000  1.0
  Au  Au26  1  0.50000000  0.75000000  0.04427000  1.0
  Au  Au27  1  0.00000000  0.75000000  0.04427000  1.0
  Au  Au28  1  0.73687000  0.29040000  0.94352000  1.0
  Au  Au29  1  0.26313000  0.29040000  0.94352000  1.0
  Au  Au30  1  0.00000000  0.79363000  0.87623000  1.0
  Au  Au31  1  0.50000000  0.73252000  0.87763000  1.0
  C  C32  1  0.00000000  0.50145000  0.85305000  1.0
