# generated using pymatgen
data_K24Pd8C
_symmetry_space_group_name_H-M   'P 1'
_cell_length_a   11.07580000
_cell_length_b   11.07580000
_cell_length_c   28.30690000
_cell_angle_alpha   90.00000000
_cell_angle_beta   90.00000000
_cell_angle_gamma   90.00000000
_symmetry_Int_Tables_number   1
_chemical_formula_structural   K24Pd8C
_chemical_formula_sum   'K24 Pd8 C1'
_cell_volume   3472.50212770
_cell_formula_units_Z   1
loop_
 _symmetry_equiv_pos_site_id
 _symmetry_equiv_pos_as_xyz
  1  'x, y, z'
loop_
 _atom_site_type_symbol
 _atom_site_label
 _atom_site_symmetry_multiplicity
 _atom_site_fract_x
 _atom_site_fract_y
 _atom_site_fract_z
 _atom_site_occupancy
  K  K0  1  0.00000000  0.25000000  0.95109000  1.0
  K  K1  1  0.25000000  0.00000000  0.95109000  1.0
  K  K2  1  0.25000000  0.25000000  0.85327000  1.0
  K  K3  1  0.00077000  0.25148000  0.17797000  1.0
  K  K4  1  0.25130000  0.99975000  0.17949000  1.0
  K  K5  1  0.19870000  0.19551000  0.06031000  1.0
  K  K6  1  0.00000000  0.75000000  0.95109000  1.0
  K  K7  1  0.25000000  0.50000000  0.95109000  1.0
  K  K8  1  0.25000000  0.75000000  0.85327000  1.0
  K  K9  1  0.00081000  0.74882000  0.17848000  1.0
  K  K10  1  0.24455000  0.49953000  0.11552000  1.0
  K  K11  1  0.19807000  0.80341000  0.06012000  1.0
  K  K12  1  0.50000000  0.25000000  0.95109000  1.0
  K  K13  1  0.75000000  0.00000000  0.95109000  1.0
  K  K14  1  0.75000000  0.25000000  0.85327000  1.0
  K  K15  1  0.50031000  0.24507000  0.11670000  1.0
  K  K16  1  0.74986000  0.99979000  0.17733000  1.0
  K  K17  1  0.80347000  0.19764000  0.06000000  1.0
  K  K18  1  0.50000000  0.75000000  0.95109000  1.0
  K  K19  1  0.75000000  0.50000000  0.95109000  1.0
  K  K20  1  0.75000000  0.75000000  0.85327000  1.0
  K  K21  1  0.50048000  0.75558000  0.11612000  1.0
  K  K22  1  0.75453000  0.49976000  0.11702000  1.0
  K  K23  1  0.80386000  0.80112000  0.05995000  1.0
  Pd  Pd24  1  0.00000000  0.00000000  0.85327000  1.0
  Pd  Pd25  1  0.00066000  0.99964000  0.03564000  1.0
  Pd  Pd26  1  0.00000000  0.50000000  0.85327000  1.0
  Pd  Pd27  1  0.99855000  0.49836000  0.04359000  1.0
  Pd  Pd28  1  0.50000000  0.00000000  0.85327000  1.0
  Pd  Pd29  1  0.50295000  0.00066000  0.04361000  1.0
  Pd  Pd30  1  0.50000000  0.50000000  0.85327000  1.0
  Pd  Pd31  1  0.49965000  0.50050000  0.04411000  1.0
  C  C32  1  0.00308000  0.99814000  0.10284000  1.0
