data_image0
_chemical_formula_structural       K3PdK3PdK3PdK3PdK3PdK3PdK3PdK3PdC
_chemical_formula_sum              "K24 Pd8 C1"
_cell_length_a       11.0758
_cell_length_b       11.0758
_cell_length_c       28.3069
_cell_angle_alpha    90
_cell_angle_beta     90
_cell_angle_gamma    90

_space_group_name_H-M_alt    "P 1"
_space_group_IT_number       1

loop_
  _space_group_symop_operation_xyz
  'x, y, z'

loop_
  _atom_site_type_symbol
  _atom_site_label
  _atom_site_symmetry_multiplicity
  _atom_site_fract_x
  _atom_site_fract_y
  _atom_site_fract_z
  _atom_site_occupancy
  K   K1        1.0  0.00000  0.25000  0.95109  1.0000
  K   K2        1.0  0.25000  0.00000  0.95109  1.0000
  K   K3        1.0  0.25000  0.25000  0.85327  1.0000
  Pd  Pd1       1.0  0.00000  0.00000  0.85327  1.0000
  K   K4        1.0  0.00000  0.25000  0.14673  1.0000
  K   K5        1.0  0.25000  0.00000  0.14673  1.0000
  K   K6        1.0  0.25000  0.25000  0.04891  1.0000
  Pd  Pd2       1.0  0.00000  0.00000  0.04891  1.0000
  K   K7        1.0  0.00000  0.75000  0.95109  1.0000
  K   K8        1.0  0.25000  0.50000  0.95109  1.0000
  K   K9        1.0  0.25000  0.75000  0.85327  1.0000
  Pd  Pd3       1.0  0.00000  0.50000  0.85327  1.0000
  K   K10       1.0  0.00000  0.75000  0.14673  1.0000
  K   K11       1.0  0.25000  0.50000  0.14673  1.0000
  K   K12       1.0  0.25000  0.75000  0.04891  1.0000
  Pd  Pd4       1.0  0.00000  0.50000  0.04891  1.0000
  K   K13       1.0  0.50000  0.25000  0.95109  1.0000
  K   K14       1.0  0.75000  0.00000  0.95109  1.0000
  K   K15       1.0  0.75000  0.25000  0.85327  1.0000
  Pd  Pd5       1.0  0.50000  0.00000  0.85327  1.0000
  K   K16       1.0  0.50000  0.25000  0.14673  1.0000
  K   K17       1.0  0.75000  0.00000  0.14673  1.0000
  K   K18       1.0  0.75000  0.25000  0.04891  1.0000
  Pd  Pd6       1.0  0.50000  0.00000  0.04891  1.0000
  K   K19       1.0  0.50000  0.75000  0.95109  1.0000
  K   K20       1.0  0.75000  0.50000  0.95109  1.0000
  K   K21       1.0  0.75000  0.75000  0.85327  1.0000
  Pd  Pd7       1.0  0.50000  0.50000  0.85327  1.0000
  K   K22       1.0  0.50000  0.75000  0.14673  1.0000
  K   K23       1.0  0.75000  0.50000  0.14673  1.0000
  K   K24       1.0  0.75000  0.75000  0.04891  1.0000
  Pd  Pd8       1.0  0.50000  0.50000  0.04891  1.0000
  C   C1        1.0  0.00000  0.00000  0.17499  1.0000
