data_image0
_chemical_formula_structural       Sc16Al16CO
_chemical_formula_sum              "Sc16 Al16 C1 O1"
_cell_length_a       6.75388
_cell_length_b       9.55143
_cell_length_c       27.1636
_cell_angle_alpha    90
_cell_angle_beta     90
_cell_angle_gamma    90

_space_group_name_H-M_alt    "P 1"
_space_group_IT_number       1

loop_
  _space_group_symop_operation_xyz
  'x, y, z'

loop_
  _atom_site_type_symbol
  _atom_site_label
  _atom_site_symmetry_multiplicity
  _atom_site_fract_x
  _atom_site_fract_y
  _atom_site_fract_z
  _atom_site_occupancy
  Sc  Sc1       1.0  0.25000  0.25000  0.86814  1.0000
  Sc  Sc2       1.0  0.25000  0.00000  0.95605  1.0000
  Sc  Sc3       1.0  0.24994  0.24826  0.04187  1.0000
  Sc  Sc4       1.0  0.24984  0.50000  0.13845  1.0000
  Sc  Sc5       1.0  0.25000  0.75000  0.86814  1.0000
  Sc  Sc6       1.0  0.25000  0.50000  0.95605  1.0000
  Sc  Sc7       1.0  0.24994  0.75173  0.04187  1.0000
  Sc  Sc8       1.0  0.25007  0.00000  0.13153  1.0000
  Sc  Sc9       1.0  0.75000  0.25000  0.86814  1.0000
  Sc  Sc10      1.0  0.75000  0.00000  0.95605  1.0000
  Sc  Sc11      1.0  0.75004  0.25348  0.04164  1.0000
  Sc  Sc12      1.0  0.75013  0.50000  0.13849  1.0000
  Sc  Sc13      1.0  0.75000  0.75000  0.86814  1.0000
  Sc  Sc14      1.0  0.75000  0.50000  0.95605  1.0000
  Sc  Sc15      1.0  0.75004  0.74653  0.04164  1.0000
  Sc  Sc16      1.0  0.74984  0.00000  0.13876  1.0000
  Al  Al1       1.0  0.00000  0.00000  0.86814  1.0000
  Al  Al2       1.0  0.00000  0.25000  0.95605  1.0000
  Al  Al3       1.0  0.99008  0.00000  0.04662  1.0000
  Al  Al4       1.0  0.99815  0.25239  0.13007  1.0000
  Al  Al5       1.0  0.00000  0.50000  0.86814  1.0000
  Al  Al6       1.0  0.00000  0.75000  0.95605  1.0000
  Al  Al7       1.0  0.00261  0.50000  0.04884  1.0000
  Al  Al8       1.0  0.99815  0.74761  0.13007  1.0000
  Al  Al9       1.0  0.50000  0.00000  0.86814  1.0000
  Al  Al10      1.0  0.50000  0.25000  0.95605  1.0000
  Al  Al11      1.0  0.50987  1.00000  0.04660  1.0000
  Al  Al12      1.0  0.50182  0.25249  0.13004  1.0000
  Al  Al13      1.0  0.50000  0.50000  0.86814  1.0000
  Al  Al14      1.0  0.50000  0.75000  0.95605  1.0000
  Al  Al15      1.0  0.49737  0.50000  0.04888  1.0000
  Al  Al16      1.0  0.50182  0.74751  0.13004  1.0000
  C   C1        1.0  0.25253  0.00000  0.21532  1.0000
  O   O1        1.0  0.25335  0.00000  0.25772  1.0000
