# generated using pymatgen
data_Sc16Al16CO
_symmetry_space_group_name_H-M   'P 1'
_cell_length_a   9.55143000
_cell_length_b   6.75388000
_cell_length_c   27.16360000
_cell_angle_alpha   90.00000000
_cell_angle_beta   90.00000000
_cell_angle_gamma   90.00000000
_symmetry_Int_Tables_number   1
_chemical_formula_structural   Sc16Al16CO
_chemical_formula_sum   'Sc16 Al16 C1 O1'
_cell_volume   1752.30243240
_cell_formula_units_Z   1
loop_
 _symmetry_equiv_pos_site_id
 _symmetry_equiv_pos_as_xyz
  1  'x, y, z'
loop_
 _atom_site_type_symbol
 _atom_site_label
 _atom_site_symmetry_multiplicity
 _atom_site_fract_x
 _atom_site_fract_y
 _atom_site_fract_z
 _atom_site_occupancy
  Sc  Sc0  1  0.25000000  0.25000000  0.13186000  1.0
  Sc  Sc1  1  0.00000000  0.25000000  0.04395000  1.0
  Sc  Sc2  1  0.24826000  0.24994000  0.95813000  1.0
  Sc  Sc3  1  0.50000000  0.24984000  0.86155000  1.0
  Sc  Sc4  1  0.75000000  0.25000000  0.13186000  1.0
  Sc  Sc5  1  0.50000000  0.25000000  0.04395000  1.0
  Sc  Sc6  1  0.75174000  0.24994000  0.95813000  1.0
  Sc  Sc7  1  0.00000000  0.25007000  0.86847000  1.0
  Sc  Sc8  1  0.25000000  0.75000000  0.13186000  1.0
  Sc  Sc9  1  0.00000000  0.75000000  0.04395000  1.0
  Sc  Sc10  1  0.25348000  0.75004000  0.95836000  1.0
  Sc  Sc11  1  0.50000000  0.75013000  0.86151000  1.0
  Sc  Sc12  1  0.75000000  0.75000000  0.13186000  1.0
  Sc  Sc13  1  0.50000000  0.75000000  0.04395000  1.0
  Sc  Sc14  1  0.74652000  0.75004000  0.95836000  1.0
  Sc  Sc15  1  0.00000000  0.74984000  0.86124000  1.0
  Al  Al16  1  0.00000000  0.00000000  0.13186000  1.0
  Al  Al17  1  0.25000000  0.00000000  0.04395000  1.0
  Al  Al18  1  0.00000000  0.99008000  0.95338000  1.0
  Al  Al19  1  0.25239000  0.99815000  0.86993000  1.0
  Al  Al20  1  0.50000000  0.00000000  0.13186000  1.0
  Al  Al21  1  0.75000000  0.00000000  0.04395000  1.0
  Al  Al22  1  0.50000000  0.00261000  0.95116000  1.0
  Al  Al23  1  0.74761000  0.99815000  0.86993000  1.0
  Al  Al24  1  0.00000000  0.50000000  0.13186000  1.0
  Al  Al25  1  0.25000000  0.50000000  0.04395000  1.0
  Al  Al26  1  0.00000000  0.50987000  0.95340000  1.0
  Al  Al27  1  0.25249000  0.50182000  0.86996000  1.0
  Al  Al28  1  0.50000000  0.50000000  0.13186000  1.0
  Al  Al29  1  0.75000000  0.50000000  0.04395000  1.0
  Al  Al30  1  0.50000000  0.49737000  0.95112000  1.0
  Al  Al31  1  0.74751000  0.50182000  0.86996000  1.0
  C  C32  1  0.00000000  0.25253000  0.78468000  1.0
  O  O33  1  0.00000000  0.25335000  0.74228000  1.0
