# generated using pymatgen
data_Nb4Rh12C
_symmetry_space_group_name_H-M   Pmm2
_cell_length_a   5.52830000
_cell_length_b   7.81819000
_cell_length_c   24.14620000
_cell_angle_alpha   90.00000000
_cell_angle_beta   90.00000000
_cell_angle_gamma   90.00000000
_symmetry_Int_Tables_number   25
_chemical_formula_structural   Nb4Rh12C
_chemical_formula_sum   'Nb4 Rh12 C1'
_cell_volume   1043.63014868
_cell_formula_units_Z   1
loop_
 _symmetry_equiv_pos_site_id
 _symmetry_equiv_pos_as_xyz
  1  'x, y, z'
  2  '-x, -y, z'
  3  '-x, y, z'
  4  'x, -y, z'
loop_
 _atom_site_type_symbol
 _atom_site_label
 _atom_site_symmetry_multiplicity
 _atom_site_fract_x
 _atom_site_fract_y
 _atom_site_fract_z
 _atom_site_occupancy
  Nb  Nb0  1  0.00000000  0.00000000  0.08586000  1.0
  Nb  Nb1  1  0.00000000  0.50000000  0.08586000  1.0
  Nb  Nb2  1  0.50000000  0.00000000  0.97533000  1.0
  Nb  Nb3  1  0.50000000  0.50000000  0.97493000  1.0
  Rh  Rh4  4  0.24724000  0.19699000  0.91264000  1.0
  Rh  Rh5  4  0.25000000  0.25000000  0.02862000  1.0
  Rh  Rh6  1  0.00000000  0.00000000  0.98331000  1.0
  Rh  Rh7  1  0.00000000  0.50000000  0.97108000  1.0
  Rh  Rh8  1  0.50000000  0.00000000  0.08586000  1.0
  Rh  Rh9  1  0.50000000  0.50000000  0.08586000  1.0
  C  C10  1  0.00000000  0.00000000  0.89435000  1.0
