# generated using pymatgen
data_Ca4Pb12C
_symmetry_space_group_name_H-M   'P 1'
_cell_length_a   7.10117000
_cell_length_b   10.04260000
_cell_length_c   25.32590000
_cell_angle_alpha   90.00000000
_cell_angle_beta   90.00000000
_cell_angle_gamma   90.00000000
_symmetry_Int_Tables_number   1
_chemical_formula_structural   Ca4Pb12C
_chemical_formula_sum   'Ca4 Pb12 C1'
_cell_volume   1806.09654704
_cell_formula_units_Z   1
loop_
 _symmetry_equiv_pos_site_id
 _symmetry_equiv_pos_as_xyz
  1  'x, y, z'
loop_
 _atom_site_type_symbol
 _atom_site_label
 _atom_site_symmetry_multiplicity
 _atom_site_fract_x
 _atom_site_fract_y
 _atom_site_fract_z
 _atom_site_occupancy
  Ca  Ca0  1  0.99674000  0.94132000  0.89913000  1.0
  Ca  Ca1  1  0.50000000  1.00000000  0.03505000  1.0
  Ca  Ca2  1  0.99680000  0.55738000  0.89935000  1.0
  Ca  Ca3  1  0.50000000  0.50000000  0.03505000  1.0
  Pb  Pb4  1  0.53346000  0.91815000  0.87959000  1.0
  Pb  Pb5  1  0.26163000  0.74990000  0.97380000  1.0
  Pb  Pb6  1  0.72500000  0.74995000  0.97674000  1.0
  Pb  Pb7  1  0.00000000  0.00000000  0.03505000  1.0
  Pb  Pb8  1  0.75000000  0.75000000  0.10515000  1.0
  Pb  Pb9  1  0.25000000  0.75000000  0.10515000  1.0
  Pb  Pb10  1  0.53326000  0.58101000  0.87969000  1.0
  Pb  Pb11  1  0.24428000  0.24997000  0.96898000  1.0
  Pb  Pb12  1  0.74222000  0.25014000  0.96193000  1.0
  Pb  Pb13  1  0.00000000  0.50000000  0.03505000  1.0
  Pb  Pb14  1  0.75000000  0.25000000  0.10515000  1.0
  Pb  Pb15  1  0.25000000  0.25000000  0.10515000  1.0
  C  C16  1  0.79199000  0.74902000  0.88293000  1.0
