# generated using pymatgen
data_Mg4Ni8Sn4CO
_symmetry_space_group_name_H-M   'P 1'
_cell_length_a   6.22749000
_cell_length_b   6.22749000
_cell_length_c   24.67060000
_cell_angle_alpha   90.00000000
_cell_angle_beta   90.00000000
_cell_angle_gamma   90.00000000
_symmetry_Int_Tables_number   1
_chemical_formula_structural   Mg4Ni8Sn4CO
_chemical_formula_sum   'Mg4 Ni8 Sn4 C1 O1'
_cell_volume   956.76612302
_cell_formula_units_Z   1
loop_
 _symmetry_equiv_pos_site_id
 _symmetry_equiv_pos_as_xyz
  1  'x, y, z'
loop_
 _atom_site_type_symbol
 _atom_site_label
 _atom_site_symmetry_multiplicity
 _atom_site_fract_x
 _atom_site_fract_y
 _atom_site_fract_z
 _atom_site_occupancy
  Mg  Mg0  1  0.99986000  0.99996000  0.09512000  1.0
  Mg  Mg1  1  0.49995000  0.50005000  0.09517000  1.0
  Mg  Mg2  1  0.50000000  0.00000000  0.96845000  1.0
  Mg  Mg3  1  0.00000000  0.50000000  0.96845000  1.0
  Ni  Ni4  1  0.25107000  0.24887000  0.03396000  1.0
  Ni  Ni5  1  0.75000000  0.75000000  0.90534000  1.0
  Ni  Ni6  1  0.74882000  0.24884000  0.03397000  1.0
  Ni  Ni7  1  0.25000000  0.75000000  0.90534000  1.0
  Ni  Ni8  1  0.74887000  0.75115000  0.03391000  1.0
  Ni  Ni9  1  0.25000000  0.25000000  0.90534000  1.0
  Ni  Ni10  1  0.25102000  0.75115000  0.03393000  1.0
  Ni  Ni11  1  0.75000000  0.25000000  0.90534000  1.0
  Sn  Sn12  1  0.00000000  0.00000000  0.96845000  1.0
  Sn  Sn13  1  0.49992000  0.99990000  0.09862000  1.0
  Sn  Sn14  1  0.99996000  0.50001000  0.09692000  1.0
  Sn  Sn15  1  0.50000000  0.50000000  0.96845000  1.0
  C  C16  1  0.00009000  0.50004000  0.27644000  1.0
  O  O17  1  0.99979000  0.49927000  0.32248000  1.0
