# generated using pymatgen
data_Ca16Ni16CO
_symmetry_space_group_name_H-M   Pmm2
_cell_length_a   6.91175000
_cell_length_b   9.77469000
_cell_length_c   27.33100000
_cell_angle_alpha   90.00000000
_cell_angle_beta   90.00000000
_cell_angle_gamma   90.00000000
_symmetry_Int_Tables_number   25
_chemical_formula_structural   Ca16Ni16CO
_chemical_formula_sum   'Ca16 Ni16 C1 O1'
_cell_volume   1846.48819811
_cell_formula_units_Z   1
loop_
 _symmetry_equiv_pos_site_id
 _symmetry_equiv_pos_as_xyz
  1  'x, y, z'
  2  '-x, -y, z'
  3  '-x, y, z'
  4  'x, -y, z'
loop_
 _atom_site_type_symbol
 _atom_site_label
 _atom_site_symmetry_multiplicity
 _atom_site_fract_x
 _atom_site_fract_y
 _atom_site_fract_z
 _atom_site_occupancy
  Ca  Ca0  4  0.25000000  0.25000000  0.95529000  1.0
  Ca  Ca1  4  0.25255000  0.25212000  0.13712000  1.0
  Ca  Ca2  2  0.25000000  0.00000000  0.86588000  1.0
  Ca  Ca3  2  0.25000000  0.50000000  0.86588000  1.0
  Ca  Ca4  2  0.25075000  0.50000000  0.04579000  1.0
  Ca  Ca5  2  0.25495000  0.00000000  0.04365000  1.0
  Ni  Ni6  2  0.00000000  0.24470000  0.04896000  1.0
  Ni  Ni7  2  0.00000000  0.25000000  0.86588000  1.0
  Ni  Ni8  2  0.50000000  0.25000000  0.04760000  1.0
  Ni  Ni9  2  0.50000000  0.25000000  0.86588000  1.0
  Ni  Ni10  1  0.00000000  0.00000000  0.13643000  1.0
  Ni  Ni11  1  0.00000000  0.00000000  0.95529000  1.0
  Ni  Ni12  1  0.00000000  0.50000000  0.12814000  1.0
  Ni  Ni13  1  0.00000000  0.50000000  0.95529000  1.0
  Ni  Ni14  1  0.50000000  0.00000000  0.12659000  1.0
  Ni  Ni15  1  0.50000000  0.00000000  0.95529000  1.0
  Ni  Ni16  1  0.50000000  0.50000000  0.12827000  1.0
  Ni  Ni17  1  0.50000000  0.50000000  0.95529000  1.0
  C  C18  1  0.00000000  0.00000000  0.19937000  1.0
  O  O19  1  0.00000000  0.00000000  0.24192000  1.0
