# generated using pymatgen
data_Li4Al4Ag4Ge4C
_symmetry_space_group_name_H-M   P1
_cell_length_a   5.75991000
_cell_length_b   8.02734000
_cell_length_c   24.29680000
_cell_angle_alpha   90.00000000
_cell_angle_beta   90.00000000
_cell_angle_gamma   90.00000000
_symmetry_Int_Tables_number   1
_chemical_formula_structural   Li4Al4Ag4Ge4C
_chemical_formula_sum   'Li4 Al4 Ag4 Ge4 C1'
_cell_volume   1123.40521171
_cell_formula_units_Z   1
loop_
 _symmetry_equiv_pos_site_id
 _symmetry_equiv_pos_as_xyz
  1  'x, y, z'
loop_
 _atom_site_type_symbol
 _atom_site_label
 _atom_site_symmetry_multiplicity
 _atom_site_fract_x
 _atom_site_fract_y
 _atom_site_fract_z
 _atom_site_occupancy
  Li  Li0  1  0.21350000  0.25216000  0.03354000  1.0
  Li  Li1  1  0.21398000  0.75774000  0.03249000  1.0
  Li  Li2  1  0.67254000  0.25000000  0.91158000  1.0
  Li  Li3  1  0.67254000  0.75000000  0.91158000  1.0
  Al  Al4  1  0.44987000  0.49857000  0.09703000  1.0
  Al  Al5  1  0.45374000  0.03056000  0.10310000  1.0
  Al  Al6  1  0.94836000  0.00000000  0.97053000  1.0
  Al  Al7  1  0.94836000  0.50000000  0.97053000  1.0
  Ag  Ag8  1  0.44836000  0.00000000  0.97053000  1.0
  Ag  Ag9  1  0.44836000  0.50000000  0.97053000  1.0
  Ag  Ag10  1  0.99050000  0.53313000  0.08791000  1.0
  Ag  Ag11  1  0.99972000  0.98323000  0.09440000  1.0
  Ge  Ge12  1  0.17254000  0.25000000  0.91158000  1.0
  Ge  Ge13  1  0.17254000  0.75000000  0.91158000  1.0
  Ge  Ge14  1  0.67446000  0.77025000  0.05354000  1.0
  Ge  Ge15  1  0.73530000  0.25596000  0.02591000  1.0
  C  C16  1  0.52347000  0.26416000  0.08855000  1.0
