# generated using pymatgen
data_Zr8Ni16Sn8C
_symmetry_space_group_name_H-M   Pm
_cell_length_a   6.34847000
_cell_length_b   8.97809000
_cell_length_c   26.73360000
_cell_angle_alpha   90.00000000
_cell_angle_beta   90.00000000
_cell_angle_gamma   90.00000000
_symmetry_Int_Tables_number   6
_chemical_formula_structural   Zr8Ni16Sn8C
_chemical_formula_sum   'Zr8 Ni16 Sn8 C1'
_cell_volume   1523.73860883
_cell_formula_units_Z   1
loop_
 _symmetry_equiv_pos_site_id
 _symmetry_equiv_pos_as_xyz
  1  'x, y, z'
  2  'x, -y, z'
loop_
 _atom_site_type_symbol
 _atom_site_label
 _atom_site_symmetry_multiplicity
 _atom_site_fract_x
 _atom_site_fract_y
 _atom_site_fract_z
 _atom_site_occupancy
  Zr  Zr0  2  0.00000000  0.24999000  0.87406000  1.0
  Zr  Zr1  2  0.98980000  0.25734000  0.04101000  1.0
  Zr  Zr2  1  0.49236000  0.50000000  0.12608000  1.0
  Zr  Zr3  1  0.50000000  0.00000000  0.95802000  1.0
  Zr  Zr4  1  0.50000000  0.50000000  0.95802000  1.0
  Zr  Zr5  1  0.53576000  0.00000000  0.11965000  1.0
  Ni  Ni6  2  0.18831000  0.21561000  0.12344000  1.0
  Ni  Ni7  2  0.25000000  0.24999000  0.95802000  1.0
  Ni  Ni8  2  0.75000000  0.25001000  0.95802000  1.0
  Ni  Ni9  2  0.75356000  0.25816000  0.12141000  1.0
  Ni  Ni10  1  0.19317000  0.00000000  0.05522000  1.0
  Ni  Ni11  1  0.25000000  0.00000000  0.87406000  1.0
  Ni  Ni12  1  0.25000000  0.50000000  0.87406000  1.0
  Ni  Ni13  1  0.27257000  0.50000000  0.04280000  1.0
  Ni  Ni14  1  0.72253000  0.50000000  0.04653000  1.0
  Ni  Ni15  1  0.75000000  0.00000000  0.87406000  1.0
  Ni  Ni16  1  0.75000000  0.50000000  0.87406000  1.0
  Ni  Ni17  1  0.76473000  0.00000000  0.03857000  1.0
  Sn  Sn18  2  0.48870000  0.24308000  0.04235000  1.0
  Sn  Sn19  2  0.50000000  0.24999000  0.87406000  1.0
  Sn  Sn20  1  0.00000000  0.00000000  0.95802000  1.0
  Sn  Sn21  1  0.00000000  0.50000000  0.95802000  1.0
  Sn  Sn22  1  0.00969000  0.50000000  0.13147000  1.0
  Sn  Sn23  1  0.92680000  0.00000000  0.17716000  1.0
  C  C24  1  0.21048000  0.00000000  0.13192000  1.0
