# generated using pymatgen
data_Li16Ga8Au8CO
_symmetry_space_group_name_H-M   'P 1'
_cell_length_a   6.29417000
_cell_length_b   8.90130000
_cell_length_c   26.67600000
_cell_angle_alpha   90.00000000
_cell_angle_beta   90.00000000
_cell_angle_gamma   90.00000000
_symmetry_Int_Tables_number   1
_chemical_formula_structural   Li16Ga8Au8CO
_chemical_formula_sum   'Li16 Ga8 Au8 C1 O1'
_cell_volume   1494.55745665
_cell_formula_units_Z   1
loop_
 _symmetry_equiv_pos_site_id
 _symmetry_equiv_pos_as_xyz
  1  'x, y, z'
loop_
 _atom_site_type_symbol
 _atom_site_label
 _atom_site_symmetry_multiplicity
 _atom_site_fract_x
 _atom_site_fract_y
 _atom_site_fract_z
 _atom_site_occupancy
  Li  Li0  1  1.00000000  0.75000000  0.95829000  1.0
  Li  Li1  1  0.50000000  0.00000000  0.87487000  1.0
  Li  Li2  1  1.00000000  0.25000000  0.95829000  1.0
  Li  Li3  1  0.50000000  0.50000000  0.87487000  1.0
  Li  Li4  1  0.25000000  0.25000000  0.87487000  1.0
  Li  Li5  1  0.25000000  0.75000000  0.87487000  1.0
  Li  Li6  1  0.75000000  0.50000000  0.95829000  1.0
  Li  Li7  1  0.75000000  0.00000000  0.95829000  1.0
  Li  Li8  1  0.02386000  0.24261000  0.12838000  1.0
  Li  Li9  1  0.51329000  0.50021000  0.03582000  1.0
  Li  Li10  1  0.02446000  0.75766000  0.12823000  1.0
  Li  Li11  1  0.51633000  0.00040000  0.03532000  1.0
  Li  Li12  1  0.25501000  0.74993000  0.04196000  1.0
  Li  Li13  1  0.25644000  0.25072000  0.04213000  1.0
  Li  Li14  1  0.73844000  0.99967000  0.12326000  1.0
  Li  Li15  1  0.73900000  0.50016000  0.12266000  1.0
  Ga  Ga16  1  0.00000000  0.00000000  0.87487000  1.0
  Ga  Ga17  1  0.50000000  0.25000000  0.95829000  1.0
  Ga  Ga18  1  0.50000000  0.75000000  0.95829000  1.0
  Ga  Ga19  1  1.00000000  0.50000000  0.87487000  1.0
  Ga  Ga20  1  0.99740000  0.50015000  0.04040000  1.0
  Ga  Ga21  1  0.49311000  0.74835000  0.13199000  1.0
  Ga  Ga22  1  0.49360000  0.25131000  0.13230000  1.0
  Ga  Ga23  1  0.99749000  0.00052000  0.04077000  1.0
  Au  Au24  1  0.25000000  0.00000000  0.95829000  1.0
  Au  Au25  1  0.25000000  0.50000000  0.95829000  1.0
  Au  Au26  1  0.75000000  0.75000000  0.87487000  1.0
  Au  Au27  1  0.75000000  0.25000000  0.87487000  1.0
  Au  Au28  1  0.27284000  0.49977000  0.11568000  1.0
  Au  Au29  1  0.29015000  0.00012000  0.11419000  1.0
  Au  Au30  1  0.75156000  0.25028000  0.04648000  1.0
  Au  Au31  1  0.75186000  0.75039000  0.04616000  1.0
  C  C32  1  0.88517000  0.99558000  0.19246000  1.0
  O  O33  1  0.93846000  0.99409000  0.23361000  1.0
