# generated using pymatgen
data_Y8In8Cu8Sn8C
_symmetry_space_group_name_H-M   Pmm2
_cell_length_a   8.82850000
_cell_length_b   8.84740000
_cell_length_c   26.85960000
_cell_angle_alpha   90.00000000
_cell_angle_beta   90.00000000
_cell_angle_gamma   90.00000000
_symmetry_Int_Tables_number   25
_chemical_formula_structural   Y8In8Cu8Sn8C
_chemical_formula_sum   'Y8 In8 Cu8 Sn8 C1'
_cell_volume   2097.98377267
_cell_formula_units_Z   1
loop_
 _symmetry_equiv_pos_site_id
 _symmetry_equiv_pos_as_xyz
  1  'x, y, z'
  2  '-x, -y, z'
  3  '-x, y, z'
  4  'x, -y, z'
loop_
 _atom_site_type_symbol
 _atom_site_label
 _atom_site_symmetry_multiplicity
 _atom_site_fract_x
 _atom_site_fract_y
 _atom_site_fract_z
 _atom_site_occupancy
  Y  Y0  2  0.00000000  0.25000000  0.95744000  1.0
  Y  Y1  2  0.00000000  0.25881000  0.12940000  1.0
  Y  Y2  2  0.50000000  0.24751000  0.13004000  1.0
  Y  Y3  2  0.50000000  0.25000000  0.95744000  1.0
  In  In4  1  0.00000000  0.00000000  0.04503000  1.0
  In  In5  1  0.00000000  0.00000000  0.87231000  1.0
  In  In6  1  0.00000000  0.50000000  0.04300000  1.0
  In  In7  1  0.00000000  0.50000000  0.87231000  1.0
  In  In8  1  0.50000000  0.00000000  0.04708000  1.0
  In  In9  1  0.50000000  0.00000000  0.87231000  1.0
  In  In10  1  0.50000000  0.50000000  0.04424000  1.0
  In  In11  1  0.50000000  0.50000000  0.87231000  1.0
  Cu  Cu12  4  0.25000000  0.25000000  0.87231000  1.0
  Cu  Cu13  4  0.25416000  0.26068000  0.04425000  1.0
  Sn  Sn14  2  0.25000000  0.00000000  0.95744000  1.0
  Sn  Sn15  2  0.25000000  0.50000000  0.95744000  1.0
  Sn  Sn16  2  0.25271000  0.00000000  0.14767000  1.0
  Sn  Sn17  2  0.25671000  0.50000000  0.12592000  1.0
  C  C18  1  0.00000000  0.00000000  0.13194000  1.0
