# generated using pymatgen
data_LiYSnPd
_symmetry_space_group_name_H-M   'P 1'
_cell_length_a   6.77715000
_cell_length_b   6.77715000
_cell_length_c   25.08290000
_cell_angle_alpha   90.00000000
_cell_angle_beta   90.00000000
_cell_angle_gamma   90.00000000
_symmetry_Int_Tables_number   1
_chemical_formula_structural   LiYSnPd
_chemical_formula_sum   'Li4 Y4 Sn4 Pd4'
_cell_volume   1152.05163034
_cell_formula_units_Z   4
loop_
 _symmetry_equiv_pos_site_id
 _symmetry_equiv_pos_as_xyz
  1  'x, y, z'
loop_
 _atom_site_type_symbol
 _atom_site_label
 _atom_site_symmetry_multiplicity
 _atom_site_fract_x
 _atom_site_fract_y
 _atom_site_fract_z
 _atom_site_occupancy
  Li  Li0  1  0.50000000  0.50000000  0.11961000  1
  Li  Li1  1  1.00000000  0.50000000  0.96623000  1
  Li  Li2  1  0.50000000  0.00000000  0.96623000  1
  Li  Li3  1  1.00000000  0.00000000  0.11933000  1
  Y  Y4  1  0.25015000  0.74985000  0.03375000  1
  Y  Y5  1  0.75001500  0.75001500  0.89868000  1
  Y  Y6  1  0.24998500  0.24998500  0.89868000  1
  Y  Y7  1  0.74985000  0.25015000  0.03375000  1
  Sn  Sn8  1  0.25021500  0.25021500  0.03974000  1
  Sn  Sn9  1  0.74999500  0.25000500  0.89868000  1
  Sn  Sn10  1  0.25000500  0.74999500  0.89868000  1
  Sn  Sn11  1  0.74978500  0.74978500  0.03974000  1
  Pd  Pd12  1  1.00000000  0.50000000  0.09309000  1
  Pd  Pd13  1  0.50000000  0.50000000  0.96623000  1
  Pd  Pd14  1  1.00000000  0.00000000  0.96623000  1
  Pd  Pd15  1  0.50000000  0.00000000  0.09309000  1
