data_image0
_chemical_formula_structural       Pd3PbPd3PbPd3PbPd3PbPd3PbPd3PbPd3PbPd3PbCO
_chemical_formula_sum              "Pd24 Pb8 C1 O1"
_cell_length_a       8.32195
_cell_length_b       8.32195
_cell_length_c       26.2415
_cell_angle_alpha    90
_cell_angle_beta     90
_cell_angle_gamma    90

_space_group_name_H-M_alt    "P 1"
_space_group_IT_number       1

loop_
  _space_group_symop_operation_xyz
  'x, y, z'

loop_
  _atom_site_type_symbol
  _atom_site_label
  _atom_site_symmetry_multiplicity
  _atom_site_fract_x
  _atom_site_fract_y
  _atom_site_fract_z
  _atom_site_occupancy
  Pd  Pd1       1.0  0.00000  0.25000  0.03964  1.0000
  Pd  Pd2       1.0  0.25000  0.00000  0.03964  1.0000
  Pd  Pd3       1.0  0.25000  0.25000  0.11892  1.0000
  Pb  Pb1       1.0  0.00000  0.00000  0.11892  1.0000
  Pd  Pd4       1.0  0.00000  0.25000  0.88108  1.0000
  Pd  Pd5       1.0  0.25000  0.00000  0.88108  1.0000
  Pd  Pd6       1.0  0.25000  0.25000  0.96036  1.0000
  Pb  Pb2       1.0  0.00000  0.00000  0.96036  1.0000
  Pd  Pd7       1.0  0.00000  0.75000  0.03964  1.0000
  Pd  Pd8       1.0  0.25000  0.50000  0.03964  1.0000
  Pd  Pd9       1.0  0.25000  0.75000  0.11892  1.0000
  Pb  Pb3       1.0  0.00000  0.50000  0.11892  1.0000
  Pd  Pd10      1.0  0.00000  0.75000  0.88108  1.0000
  Pd  Pd11      1.0  0.25000  0.50000  0.88108  1.0000
  Pd  Pd12      1.0  0.25000  0.75000  0.96036  1.0000
  Pb  Pb4       1.0  0.00000  0.50000  0.96036  1.0000
  Pd  Pd13      1.0  0.50000  0.25000  0.03964  1.0000
  Pd  Pd14      1.0  0.75000  0.00000  0.03964  1.0000
  Pd  Pd15      1.0  0.75000  0.25000  0.11892  1.0000
  Pb  Pb5       1.0  0.50000  0.00000  0.11892  1.0000
  Pd  Pd16      1.0  0.50000  0.25000  0.88108  1.0000
  Pd  Pd17      1.0  0.75000  0.00000  0.88108  1.0000
  Pd  Pd18      1.0  0.75000  0.25000  0.96036  1.0000
  Pb  Pb6       1.0  0.50000  0.00000  0.96036  1.0000
  Pd  Pd19      1.0  0.50000  0.75000  0.03964  1.0000
  Pd  Pd20      1.0  0.75000  0.50000  0.03964  1.0000
  Pd  Pd21      1.0  0.75000  0.75000  0.11892  1.0000
  Pb  Pb7       1.0  0.50000  0.50000  0.11892  1.0000
  Pd  Pd22      1.0  0.50000  0.75000  0.88108  1.0000
  Pd  Pd23      1.0  0.75000  0.50000  0.88108  1.0000
  Pd  Pd24      1.0  0.75000  0.75000  0.96036  1.0000
  Pb  Pb8       1.0  0.50000  0.50000  0.96036  1.0000
  C   C1        1.0  0.25000  0.25000  0.19133  1.0000
  O   O1        1.0  0.25000  0.25000  0.23515  1.0000
