# generated using pymatgen
data_Pt12Pb4C
_symmetry_space_group_name_H-M   'P 1'
_cell_length_a   8.34058000
_cell_length_b   5.89768000
_cell_length_c   24.42330000
_cell_angle_alpha   90.00000000
_cell_angle_beta   90.00000000
_cell_angle_gamma   90.00000000
_symmetry_Int_Tables_number   1
_chemical_formula_structural   Pt12Pb4C
_chemical_formula_sum   'Pt12 Pb4 C1'
_cell_volume   1201.38388192
_cell_formula_units_Z   1
loop_
 _symmetry_equiv_pos_site_id
 _symmetry_equiv_pos_as_xyz
  1  'x, y, z'
loop_
 _atom_site_type_symbol
 _atom_site_label
 _atom_site_symmetry_multiplicity
 _atom_site_fract_x
 _atom_site_fract_y
 _atom_site_fract_z
 _atom_site_occupancy
  Pt  Pt0  1  0.74261000  0.53052000  0.08360000  1.0
  Pt  Pt1  1  0.50000000  0.21946000  0.05278000  1.0
  Pt  Pt2  1  0.50000000  0.78099000  0.02402000  1.0
  Pt  Pt3  1  0.75000000  0.00000000  0.96982000  1.0
  Pt  Pt4  1  0.50000000  0.75000000  0.90945000  1.0
  Pt  Pt5  1  0.50000000  0.25000000  0.90945000  1.0
  Pt  Pt6  1  0.25739000  0.53052000  0.08360000  1.0
  Pt  Pt7  1  0.00000000  0.25764000  0.03672000  1.0
  Pt  Pt8  1  0.00000000  0.77121000  0.03371000  1.0
  Pt  Pt9  1  0.25000000  0.00000000  0.96982000  1.0
  Pt  Pt10  1  0.00000000  0.75000000  0.90945000  1.0
  Pt  Pt11  1  0.00000000  0.25000000  0.90945000  1.0
  Pb  Pb12  1  0.77714000  0.01811000  0.10742000  1.0
  Pb  Pb13  1  0.75000000  0.50000000  0.96982000  1.0
  Pb  Pb14  1  0.22286000  0.01811000  0.10742000  1.0
  Pb  Pb15  1  0.25000000  0.50000000  0.96982000  1.0
  C  C16  1  0.50000000  0.53887000  0.08118000  1.0
