# generated using pymatgen
data_Pt12Pb4C
_symmetry_space_group_name_H-M   Pm
_cell_length_a   5.89768000
_cell_length_b   8.34058000
_cell_length_c   24.42330000
_cell_angle_alpha   90.00000000
_cell_angle_beta   90.00000000
_cell_angle_gamma   90.00000000
_symmetry_Int_Tables_number   6
_chemical_formula_structural   Pt12Pb4C
_chemical_formula_sum   'Pt12 Pb4 C1'
_cell_volume   1201.38388192
_cell_formula_units_Z   1
loop_
 _symmetry_equiv_pos_site_id
 _symmetry_equiv_pos_as_xyz
  1  'x, y, z'
  2  'x, -y, z'
loop_
 _atom_site_type_symbol
 _atom_site_label
 _atom_site_symmetry_multiplicity
 _atom_site_fract_x
 _atom_site_fract_y
 _atom_site_fract_z
 _atom_site_occupancy
  Pt  Pt0  2  0.00000000  0.25000000  0.03018000  1.0
  Pt  Pt1  2  0.53052000  0.25739000  0.91640000  1.0
  Pt  Pt2  1  0.21946000  0.50000000  0.94722000  1.0
  Pt  Pt3  1  0.25000000  0.00000000  0.09055000  1.0
  Pt  Pt4  1  0.25000000  0.50000000  0.09055000  1.0
  Pt  Pt5  1  0.25764000  0.00000000  0.96328000  1.0
  Pt  Pt6  1  0.75000000  0.00000000  0.09055000  1.0
  Pt  Pt7  1  0.75000000  0.50000000  0.09055000  1.0
  Pt  Pt8  1  0.77121000  0.00000000  0.96629000  1.0
  Pt  Pt9  1  0.78099000  0.50000000  0.97598000  1.0
  Pb  Pb10  2  0.01811000  0.22286000  0.89258000  1.0
  Pb  Pb11  2  0.50000000  0.25000000  0.03018000  1.0
  C  C12  1  0.53887000  0.50000000  0.91882000  1.0
