# generated using pymatgen
data_Li8In4Ag4C
_symmetry_space_group_name_H-M   'P 1'
_cell_length_a   6.67495000
_cell_length_b   6.67495000
_cell_length_c   25.00620000
_cell_angle_alpha   90.00000000
_cell_angle_beta   90.00000000
_cell_angle_gamma   90.00000000
_symmetry_Int_Tables_number   1
_chemical_formula_structural   Li8In4Ag4C
_chemical_formula_sum   'Li8 In4 Ag4 C1'
_cell_volume   1114.15017830
_cell_formula_units_Z   1
loop_
 _symmetry_equiv_pos_site_id
 _symmetry_equiv_pos_as_xyz
  1  'x, y, z'
loop_
 _atom_site_type_symbol
 _atom_site_label
 _atom_site_symmetry_multiplicity
 _atom_site_fract_x
 _atom_site_fract_y
 _atom_site_fract_z
 _atom_site_occupancy
  Li  Li0  1  0.00000000  0.00000000  0.96278000  1.0
  Li  Li1  1  0.50000000  0.00000000  0.10010000  1.0
  Li  Li2  1  0.00000000  0.50000000  0.10010000  1.0
  Li  Li3  1  0.50000000  0.50000000  0.96257000  1.0
  Li  Li4  1  0.24999000  0.25000000  0.03337000  1.0
  Li  Li5  1  0.22205000  0.72201000  0.87820000  1.0
  Li  Li6  1  0.75001000  0.75000000  0.03337000  1.0
  Li  Li7  1  0.77795000  0.27799000  0.87820000  1.0
  In  In8  1  0.00000000  0.00000000  0.10010000  1.0
  In  In9  1  0.50000000  0.50000000  0.10010000  1.0
  In  In10  1  0.50000000  0.00000000  0.95404000  1.0
  In  In11  1  0.00000000  0.50000000  0.97462000  1.0
  Ag  Ag12  1  0.23517000  0.26493000  0.89847000  1.0
  Ag  Ag13  1  0.24999000  0.75000000  0.03337000  1.0
  Ag  Ag14  1  0.76483000  0.73507000  0.89847000  1.0
  Ag  Ag15  1  0.75001000  0.25000000  0.03337000  1.0
  C  C16  1  0.00000000  0.50000000  0.88551000  1.0
