# generated using pymatgen
data_Nb8Ni16Sn8C
_symmetry_space_group_name_H-M   P1
_cell_length_a   6.22550000
_cell_length_b   8.80419000
_cell_length_c   26.60310000
_cell_angle_alpha   90.00000000
_cell_angle_beta   90.00000000
_cell_angle_gamma   90.00000000
_symmetry_Int_Tables_number   1
_chemical_formula_structural   Nb8Ni16Sn8C
_chemical_formula_sum   'Nb8 Ni16 Sn8 C1'
_cell_volume   1458.12880938
_cell_formula_units_Z   1
loop_
 _symmetry_equiv_pos_site_id
 _symmetry_equiv_pos_as_xyz
  1  'x, y, z'
loop_
 _atom_site_type_symbol
 _atom_site_label
 _atom_site_symmetry_multiplicity
 _atom_site_fract_x
 _atom_site_fract_y
 _atom_site_fract_z
 _atom_site_occupancy
  Nb  Nb0  1  0.00000000  0.00000000  0.87590000  1.0
  Nb  Nb1  1  0.00000000  0.50000000  0.87590000  1.0
  Nb  Nb2  1  0.48912000  0.74955000  0.12000000  1.0
  Nb  Nb3  1  0.50000000  0.25000000  0.95863000  1.0
  Nb  Nb4  1  0.50000000  0.75000000  0.95863000  1.0
  Nb  Nb5  1  0.53523000  0.24940000  0.11470000  1.0
  Nb  Nb6  1  0.98943000  0.99456000  0.04231000  1.0
  Nb  Nb7  1  0.98990000  0.50504000  0.04232000  1.0
  Ni  Ni8  1  0.17562000  0.24953000  0.05923000  1.0
  Ni  Ni9  1  0.21698000  0.47404000  0.12088000  1.0
  Ni  Ni10  1  0.21772000  0.02389000  0.12069000  1.0
  Ni  Ni11  1  0.25000000  0.00000000  0.95863000  1.0
  Ni  Ni12  1  0.25000000  0.25000000  0.87590000  1.0
  Ni  Ni13  1  0.25000000  0.50000000  0.95863000  1.0
  Ni  Ni14  1  0.25000000  0.75000000  0.87590000  1.0
  Ni  Ni15  1  0.25042000  0.75005000  0.04252000  1.0
  Ni  Ni16  1  0.74076000  0.98850000  0.11980000  1.0
  Ni  Ni17  1  0.74080000  0.51029000  0.11975000  1.0
  Ni  Ni18  1  0.74570000  0.74960000  0.04579000  1.0
  Ni  Ni19  1  0.75000000  0.00000000  0.95863000  1.0
  Ni  Ni20  1  0.75000000  0.25000000  0.87590000  1.0
  Ni  Ni21  1  0.75000000  0.50000000  0.95863000  1.0
  Ni  Ni22  1  0.75000000  0.75000000  0.87590000  1.0
  Ni  Ni23  1  0.76721000  0.25004000  0.03721000  1.0
  Sn  Sn24  1  0.00000000  0.25000000  0.95863000  1.0
  Sn  Sn25  1  0.00000000  0.75000000  0.95863000  1.0
  Sn  Sn26  1  0.01020000  0.74936000  0.13539000  1.0
  Sn  Sn27  1  0.48840000  0.49456000  0.04009000  1.0
  Sn  Sn28  1  0.48877000  0.00505000  0.04003000  1.0
  Sn  Sn29  1  0.50000000  0.00000000  0.87590000  1.0
  Sn  Sn30  1  0.50000000  0.50000000  0.87590000  1.0
  Sn  Sn31  1  0.91683000  0.24944000  0.17162000  1.0
  C  C32  1  0.22714000  0.24908000  0.13486000  1.0
