data_image0
_chemical_formula_structural       Li4Ga8Pt4CO
_chemical_formula_sum              "Li4 Ga8 Pt4 C1 O1"
_cell_length_a       6.22326
_cell_length_b       6.22326
_cell_length_c       24.6674
_cell_angle_alpha    90
_cell_angle_beta     90
_cell_angle_gamma    90

_space_group_name_H-M_alt    "P 1"
_space_group_IT_number       1

loop_
  _space_group_symop_operation_xyz
  'x, y, z'

loop_
  _atom_site_type_symbol
  _atom_site_label
  _atom_site_symmetry_multiplicity
  _atom_site_fract_x
  _atom_site_fract_y
  _atom_site_fract_z
  _atom_site_occupancy
  Li  Li1       1.0  0.99999  0.00001  0.10693  1.0000
  Li  Li2       1.0  0.50000  0.50001  0.10670  1.0000
  Li  Li3       1.0  0.50000  0.00000  0.96846  1.0000
  Li  Li4       1.0  0.00000  0.50000  0.96846  1.0000
  Ga  Ga1       1.0  0.25021  0.25021  0.03206  1.0000
  Ga  Ga2       1.0  0.75000  0.75000  0.90539  1.0000
  Ga  Ga3       1.0  0.74978  0.25022  0.03206  1.0000
  Ga  Ga4       1.0  0.25000  0.75000  0.90539  1.0000
  Ga  Ga5       1.0  0.74979  0.74979  0.03206  1.0000
  Ga  Ga6       1.0  0.25000  0.25000  0.90539  1.0000
  Ga  Ga7       1.0  0.25022  0.74979  0.03206  1.0000
  Ga  Ga8       1.0  0.75000  0.25000  0.90539  1.0000
  Pt  Pt1       1.0  0.00000  0.00000  0.96846  1.0000
  Pt  Pt2       1.0  0.50000  0.99999  0.08152  1.0000
  Pt  Pt3       1.0  0.00000  0.50000  0.08154  1.0000
  Pt  Pt4       1.0  0.50000  0.50000  0.96846  1.0000
  C   C1        1.0  0.99998  0.00001  0.19289  1.0000
  O   O1        1.0  1.00000  0.99999  0.23903  1.0000
