# generated using pymatgen
data_HfInCu2
_symmetry_space_group_name_H-M   Pmm2
_cell_length_a   4.49016500
_cell_length_b   6.35005000
_cell_length_c   26.73520000
_cell_angle_alpha   90.00000000
_cell_angle_beta   90.00000000
_cell_angle_gamma   90.00000000
_symmetry_Int_Tables_number   25
_chemical_formula_structural   HfInCu2
_chemical_formula_sum   'Hf4 In4 Cu8'
_cell_volume   762.29466888
_cell_formula_units_Z   4
loop_
 _symmetry_equiv_pos_site_id
 _symmetry_equiv_pos_as_xyz
  1  'x, y, z'
  2  '-x, -y, z'
  3  '-x, y, z'
  4  'x, -y, z'
loop_
 _atom_site_type_symbol
 _atom_site_label
 _atom_site_symmetry_multiplicity
 _atom_site_fract_x
 _atom_site_fract_y
 _atom_site_fract_z
 _atom_site_occupancy
  Hf  Hf0  1  0.00000000  0.00000000  0.12596000  1.0
  Hf  Hf1  1  0.00000000  0.00000000  0.95397000  1.0
  Hf  Hf2  1  0.50000000  0.50000000  0.04199000  1.0
  Hf  Hf3  1  0.50000000  0.50000000  0.87402000  1.0
  In  In4  1  0.00000000  0.50000000  0.12596000  1.0
  In  In5  1  0.00000000  0.50000000  0.95776000  1.0
  In  In6  1  0.50000000  0.00000000  0.04199000  1.0
  In  In7  1  0.50000000  0.00000000  0.85931000  1.0
  Cu  Cu8  2  0.00000000  0.25000000  0.04199000  1.0
  Cu  Cu9  2  0.00000000  0.26706000  0.86888000  1.0
  Cu  Cu10  2  0.50000000  0.24027500  0.95453000  1.0
  Cu  Cu11  2  0.50000000  0.25000000  0.12596000  1.0
