# generated using pymatgen
data_Zr4Pt12CO
_symmetry_space_group_name_H-M   Pmm2
_cell_length_a   5.75970000
_cell_length_b   8.14544000
_cell_length_c   24.31980000
_cell_angle_alpha   90.00000000
_cell_angle_beta   90.00000000
_cell_angle_gamma   90.00000000
_symmetry_Int_Tables_number   25
_chemical_formula_structural   Zr4Pt12CO
_chemical_formula_sum   'Zr4 Pt12 C1 O1'
_cell_volume   1140.97048842
_cell_formula_units_Z   1
loop_
 _symmetry_equiv_pos_site_id
 _symmetry_equiv_pos_as_xyz
  1  'x, y, z'
  2  '-x, -y, z'
  3  '-x, y, z'
  4  'x, -y, z'
loop_
 _atom_site_type_symbol
 _atom_site_label
 _atom_site_symmetry_multiplicity
 _atom_site_fract_x
 _atom_site_fract_y
 _atom_site_fract_z
 _atom_site_occupancy
  Zr  Zr0  1  0.00000000  0.00000000  0.91616000  1.0
  Zr  Zr1  1  0.00000000  0.50000000  0.92087000  1.0
  Zr  Zr2  1  0.50000000  0.00000000  0.02960000  1.0
  Zr  Zr3  1  0.50000000  0.50000000  0.02960000  1.0
  Pt  Pt4  4  0.24349000  0.24820000  0.96347000  1.0
  Pt  Pt5  4  0.25000000  0.25000000  0.08881000  1.0
  Pt  Pt6  1  0.00000000  0.00000000  0.02960000  1.0
  Pt  Pt7  1  0.00000000  0.50000000  0.02960000  1.0
  Pt  Pt8  1  0.50000000  0.00000000  0.91720000  1.0
  Pt  Pt9  1  0.50000000  0.50000000  0.91881000  1.0
  C  C10  1  0.00000000  0.00000000  0.81705000  1.0
  O  O11  1  0.00000000  0.00000000  0.76991000  1.0
