data_image0
_chemical_formula_structural       Li16Cu8Sn8CO
_chemical_formula_sum              "Li16 Cu8 Sn8 C1 O1"
_cell_length_a       6.34973
_cell_length_b       8.97987
_cell_length_c       26.7349
_cell_angle_alpha    90
_cell_angle_beta     90
_cell_angle_gamma    90

_space_group_name_H-M_alt    "P 1"
_space_group_IT_number       1

loop_
  _space_group_symop_operation_xyz
  'x, y, z'

loop_
  _atom_site_type_symbol
  _atom_site_label
  _atom_site_symmetry_multiplicity
  _atom_site_fract_x
  _atom_site_fract_y
  _atom_site_fract_z
  _atom_site_occupancy
  Li  Li1       1.0  0.00000  0.75000  0.95801  1.0000
  Li  Li2       1.0  0.50000  0.00000  0.87404  1.0000
  Li  Li3       1.0  0.00000  0.25000  0.95801  1.0000
  Li  Li4       1.0  0.50000  0.50000  0.87404  1.0000
  Li  Li5       1.0  0.25000  0.00000  0.95801  1.0000
  Li  Li6       1.0  0.25000  0.50000  0.95801  1.0000
  Li  Li7       1.0  0.75000  0.75000  0.87404  1.0000
  Li  Li8       1.0  0.75000  0.25000  0.87404  1.0000
  Li  Li9       1.0  0.98620  0.25000  0.12373  1.0000
  Li  Li10      1.0  0.48806  0.49942  0.03896  1.0000
  Li  Li11      1.0  0.98840  0.75000  0.12508  1.0000
  Li  Li12      1.0  0.48806  0.00058  0.03896  1.0000
  Li  Li13      1.0  0.26902  0.49741  0.13583  1.0000
  Li  Li14      1.0  0.26903  0.00259  0.13583  1.0000
  Li  Li15      1.0  0.75078  0.25000  0.04156  1.0000
  Li  Li16      1.0  0.74293  0.75000  0.04364  1.0000
  Cu  Cu1       1.0  0.25000  0.25000  0.87404  1.0000
  Cu  Cu2       1.0  0.25000  0.75000  0.87404  1.0000
  Cu  Cu3       1.0  0.75000  0.50000  0.95801  1.0000
  Cu  Cu4       1.0  0.75000  0.00000  0.95801  1.0000
  Cu  Cu5       1.0  0.26001  0.75000  0.04378  1.0000
  Cu  Cu6       1.0  0.25705  0.25000  0.04372  1.0000
  Cu  Cu7       1.0  0.72131  0.99703  0.11590  1.0000
  Cu  Cu8       1.0  0.72132  0.50297  0.11590  1.0000
  Sn  Sn1       1.0  0.00000  0.00000  0.87404  1.0000
  Sn  Sn2       1.0  0.50000  0.25000  0.95801  1.0000
  Sn  Sn3       1.0  0.50000  0.75000  0.95801  1.0000
  Sn  Sn4       1.0  0.00000  0.50000  0.87404  1.0000
  Sn  Sn5       1.0  0.01163  0.50049  0.04589  1.0000
  Sn  Sn6       1.0  0.50322  0.75000  0.13155  1.0000
  Sn  Sn7       1.0  0.51198  0.25000  0.12791  1.0000
  Sn  Sn8       1.0  0.01163  0.99951  0.04589  1.0000
  C   C1        1.0  0.00264  0.25000  0.20077  1.0000
  O   O1        1.0  0.00128  0.25000  0.24360  1.0000
