# generated using pymatgen
data_Li16Cu8Sn8CO
_symmetry_space_group_name_H-M   Pm
_cell_length_a   6.34973000
_cell_length_b   8.97987000
_cell_length_c   26.73490000
_cell_angle_alpha   90.00000000
_cell_angle_beta   90.00000000
_cell_angle_gamma   90.00000000
_symmetry_Int_Tables_number   6
_chemical_formula_structural   Li16Cu8Sn8CO
_chemical_formula_sum   'Li16 Cu8 Sn8 C1 O1'
_cell_volume   1524.41731254
_cell_formula_units_Z   1
loop_
 _symmetry_equiv_pos_site_id
 _symmetry_equiv_pos_as_xyz
  1  'x, y, z'
  2  'x, -y, z'
loop_
 _atom_site_type_symbol
 _atom_site_label
 _atom_site_symmetry_multiplicity
 _atom_site_fract_x
 _atom_site_fract_y
 _atom_site_fract_z
 _atom_site_occupancy
  Li  Li0  2  0.25000000  0.25000000  0.95801000  1.0
  Li  Li1  2  0.26822000  0.24764000  0.13621000  1.0
  Li  Li2  2  0.48860000  0.24956000  0.03914000  1.0
  Li  Li3  2  0.50000000  0.25000000  0.87404000  1.0
  Li  Li4  1  0.00000000  0.00000000  0.95801000  1.0
  Li  Li5  1  0.00000000  0.50000000  0.95801000  1.0
  Li  Li6  1  0.74319000  0.50000000  0.04354000  1.0
  Li  Li7  1  0.75000000  0.00000000  0.87404000  1.0
  Li  Li8  1  0.75000000  0.50000000  0.87404000  1.0
  Li  Li9  1  0.75037000  0.00000000  0.04137000  1.0
  Li  Li10  1  0.98585000  0.00000000  0.12396000  1.0
  Li  Li11  1  0.98699000  0.50000000  0.12501000  1.0
  Cu  Cu12  2  0.72044000  0.25296000  0.11600000  1.0
  Cu  Cu13  2  0.75000000  0.25000000  0.95801000  1.0
  Cu  Cu14  1  0.25000000  0.00000000  0.87404000  1.0
  Cu  Cu15  1  0.25000000  0.50000000  0.87404000  1.0
  Cu  Cu16  1  0.25719000  0.00000000  0.04381000  1.0
  Cu  Cu17  1  0.25972000  0.50000000  0.04385000  1.0
  Sn  Sn18  2  0.00000000  0.25000000  0.87404000  1.0
  Sn  Sn19  2  0.01211000  0.25038000  0.04597000  1.0
  Sn  Sn20  1  0.50000000  0.00000000  0.95801000  1.0
  Sn  Sn21  1  0.50000000  0.50000000  0.95801000  1.0
  Sn  Sn22  1  0.50249000  0.50000000  0.13159000  1.0
  Sn  Sn23  1  0.51154000  0.00000000  0.12776000  1.0
  C  C24  1  0.00323000  0.00000000  0.20082000  1.0
  O  O25  1  0.00114000  0.00000000  0.24364000  1.0
