data_image0
_chemical_formula_structural       Zr4Ni8Sn4
_chemical_formula_sum              "Zr4 Ni8 Sn4"
_cell_length_a       6.34024
_cell_length_b       6.34024
_cell_length_c       24.7552
_cell_angle_alpha    90
_cell_angle_beta     90
_cell_angle_gamma    90

_space_group_name_H-M_alt    "P 1"
_space_group_IT_number       1

loop_
  _space_group_symop_operation_xyz
  'x, y, z'

loop_
  _atom_site_type_symbol
  _atom_site_label
  _atom_site_symmetry_multiplicity
  _atom_site_fract_x
  _atom_site_fract_y
  _atom_site_fract_z
  _atom_site_occupancy
  Zr  Zr1       1.0  0.00000  0.00000  0.90396  1.0000
  Zr  Zr2       1.0  0.50000  0.50000  0.90396  1.0000
  Zr  Zr3       1.0  0.50021  0.00002  0.03416  1.0000
  Zr  Zr4       1.0  0.99974  0.49976  0.03408  1.0000
  Ni  Ni1       1.0  0.25000  0.25000  0.96799  1.0000
  Ni  Ni2       1.0  0.75137  0.75062  0.09136  1.0000
  Ni  Ni3       1.0  0.75000  0.25000  0.96799  1.0000
  Ni  Ni4       1.0  0.24944  0.75135  0.09081  1.0000
  Ni  Ni5       1.0  0.75000  0.75000  0.96799  1.0000
  Ni  Ni6       1.0  0.24940  0.24859  0.09011  1.0000
  Ni  Ni7       1.0  0.25000  0.75000  0.96799  1.0000
  Ni  Ni8       1.0  0.75044  0.25038  0.09076  1.0000
  Sn  Sn1       1.0  0.99950  0.00003  0.03528  1.0000
  Sn  Sn2       1.0  0.50000  0.00000  0.90396  1.0000
  Sn  Sn3       1.0  0.00000  0.50000  0.90396  1.0000
  Sn  Sn4       1.0  0.49965  0.50018  0.03600  1.0000
