# generated using pymatgen
data_ZrNi2Sn
_symmetry_space_group_name_H-M   'P 1'
_cell_length_a   6.34024000
_cell_length_b   6.34024000
_cell_length_c   24.75520000
_cell_angle_alpha   90.00000000
_cell_angle_beta   90.00000000
_cell_angle_gamma   90.00000000
_symmetry_Int_Tables_number   1
_chemical_formula_structural   ZrNi2Sn
_chemical_formula_sum   'Zr4 Ni8 Sn4'
_cell_volume   995.12545357
_cell_formula_units_Z   4
loop_
 _symmetry_equiv_pos_site_id
 _symmetry_equiv_pos_as_xyz
  1  'x, y, z'
loop_
 _atom_site_type_symbol
 _atom_site_label
 _atom_site_symmetry_multiplicity
 _atom_site_fract_x
 _atom_site_fract_y
 _atom_site_fract_z
 _atom_site_occupancy
  Zr  Zr0  1  0.00000000  0.00000000  0.90396000  1.0
  Zr  Zr1  1  0.50000000  0.50000000  0.90396000  1.0
  Zr  Zr2  1  0.50021000  0.00002000  0.03416000  1.0
  Zr  Zr3  1  0.99974000  0.49976000  0.03408000  1.0
  Ni  Ni4  1  0.25000000  0.25000000  0.96799000  1.0
  Ni  Ni5  1  0.75137000  0.75062000  0.09136000  1.0
  Ni  Ni6  1  0.75000000  0.25000000  0.96799000  1.0
  Ni  Ni7  1  0.24944000  0.75135000  0.09081000  1.0
  Ni  Ni8  1  0.75000000  0.75000000  0.96799000  1.0
  Ni  Ni9  1  0.24940000  0.24859000  0.09011000  1.0
  Ni  Ni10  1  0.25000000  0.75000000  0.96799000  1.0
  Ni  Ni11  1  0.75044000  0.25038000  0.09076000  1.0
  Sn  Sn12  1  0.99950000  0.00003000  0.03528000  1.0
  Sn  Sn13  1  0.50000000  0.00000000  0.90396000  1.0
  Sn  Sn14  1  0.00000000  0.50000000  0.90396000  1.0
  Sn  Sn15  1  0.49965000  0.50018000  0.03600000  1.0
