# generated using pymatgen
data_Li8Y8Sn8Ge8C
_symmetry_space_group_name_H-M   Pmm2
_cell_length_a   8.52742000
_cell_length_b   8.60818000
_cell_length_c   27.07540000
_cell_angle_alpha   90.00000000
_cell_angle_beta   90.00000000
_cell_angle_gamma   90.00000000
_symmetry_Int_Tables_number   25
_chemical_formula_structural   Li8Y8Sn8Ge8C
_chemical_formula_sum   'Li8 Y8 Sn8 Ge8 C1'
_cell_volume   1987.48506968
_cell_formula_units_Z   1
loop_
 _symmetry_equiv_pos_site_id
 _symmetry_equiv_pos_as_xyz
  1  'x, y, z'
  2  '-x, -y, z'
  3  '-x, y, z'
  4  'x, -y, z'
loop_
 _atom_site_type_symbol
 _atom_site_label
 _atom_site_symmetry_multiplicity
 _atom_site_fract_x
 _atom_site_fract_y
 _atom_site_fract_z
 _atom_site_occupancy
  Li  Li0  4  0.24577000  0.24422000  0.95485000  1.0
  Li  Li1  4  0.25000000  0.25000000  0.13066000  1.0
  Y  Y2  2  0.24233000  0.50000000  0.87184000  1.0
  Y  Y3  2  0.25000000  0.00000000  0.04355000  1.0
  Y  Y4  2  0.25000000  0.50000000  0.04355000  1.0
  Y  Y5  2  0.26129000  0.00000000  0.86547000  1.0
  Sn  Sn6  1  0.00000000  0.00000000  0.13066000  1.0
  Sn  Sn7  1  0.00000000  0.00000000  0.95383000  1.0
  Sn  Sn8  1  0.00000000  0.50000000  0.13066000  1.0
  Sn  Sn9  1  0.00000000  0.50000000  0.95706000  1.0
  Sn  Sn10  1  0.50000000  0.00000000  0.13066000  1.0
  Sn  Sn11  1  0.50000000  0.00000000  0.95571000  1.0
  Sn  Sn12  1  0.50000000  0.50000000  0.13066000  1.0
  Sn  Sn13  1  0.50000000  0.50000000  0.95603000  1.0
  Ge  Ge14  2  0.00000000  0.22242000  0.85994000  1.0
  Ge  Ge15  2  0.00000000  0.25000000  0.04355000  1.0
  Ge  Ge16  2  0.50000000  0.25000000  0.04355000  1.0
  Ge  Ge17  2  0.50000000  0.25831000  0.87902000  1.0
  C  C18  1  0.00000000  0.00000000  0.83466000  1.0
