# generated using pymatgen
data_Mg8Sc8Ga8Pd8C
_symmetry_space_group_name_H-M   'P 1'
_cell_length_a   6.56469000
_cell_length_b   9.28388000
_cell_length_c   26.96290000
_cell_angle_alpha   90.00000000
_cell_angle_beta   90.00000000
_cell_angle_gamma   90.00000000
_symmetry_Int_Tables_number   1
_chemical_formula_structural   Mg8Sc8Ga8Pd8C
_chemical_formula_sum   'Mg8 Sc8 Ga8 Pd8 C1'
_cell_volume   1643.27535436
_cell_formula_units_Z   1
loop_
 _symmetry_equiv_pos_site_id
 _symmetry_equiv_pos_as_xyz
  1  'x, y, z'
loop_
 _atom_site_type_symbol
 _atom_site_label
 _atom_site_symmetry_multiplicity
 _atom_site_fract_x
 _atom_site_fract_y
 _atom_site_fract_z
 _atom_site_occupancy
  Mg  Mg0  1  0.75000000  0.00000000  0.95696000  1.0
  Mg  Mg1  1  0.75000000  0.50000000  0.95696000  1.0
  Mg  Mg2  1  0.25000000  0.75000000  0.87088000  1.0
  Mg  Mg3  1  0.25000000  0.25000000  0.87088000  1.0
  Mg  Mg4  1  0.70553000  0.49994000  0.13988000  1.0
  Mg  Mg5  1  0.66094000  0.00001000  0.15285000  1.0
  Mg  Mg6  1  0.24306000  0.26885000  0.04573000  1.0
  Mg  Mg7  1  0.24303000  0.73112000  0.04573000  1.0
  Sc  Sc8  1  0.25000000  0.00000000  0.95696000  1.0
  Sc  Sc9  1  0.25000000  0.50000000  0.95696000  1.0
  Sc  Sc10  1  0.75000000  0.75000000  0.87088000  1.0
  Sc  Sc11  1  0.75000000  0.25000000  0.87088000  1.0
  Sc  Sc12  1  0.21976000  0.50007000  0.13489000  1.0
  Sc  Sc13  1  0.18080000  0.99992000  0.13263000  1.0
  Sc  Sc14  1  0.73374000  0.21408000  0.05646000  1.0
  Sc  Sc15  1  0.73373000  0.78574000  0.05641000  1.0
  Ga  Ga16  1  0.00000000  0.00000000  0.87088000  1.0
  Ga  Ga17  1  0.00000000  0.50000000  0.87088000  1.0
  Ga  Ga18  1  0.50000000  0.25000000  0.95696000  1.0
  Ga  Ga19  1  0.50000000  0.75000000  0.95696000  1.0
  Ga  Ga20  1  0.95174000  0.49997000  0.04958000  1.0
  Ga  Ga21  1  0.02999000  0.99996000  0.03427000  1.0
  Ga  Ga22  1  0.43932000  0.75009000  0.14357000  1.0
  Ga  Ga23  1  0.43902000  0.24989000  0.14360000  1.0
  Pd  Pd24  1  0.00000000  0.75000000  0.95696000  1.0
  Pd  Pd25  1  0.00000000  0.25000000  0.95696000  1.0
  Pd  Pd26  1  0.50000000  0.50000000  0.87088000  1.0
  Pd  Pd27  1  0.50000000  0.00000000  0.87088000  1.0
  Pd  Pd28  1  0.98884000  0.26762000  0.13127000  1.0
  Pd  Pd29  1  0.98856000  0.73239000  0.13127000  1.0
  Pd  Pd30  1  0.43605000  0.99993000  0.04723000  1.0
  Pd  Pd31  1  0.51454000  0.50003000  0.04416000  1.0
  C  C32  1  0.88467000  0.00051000  0.09694000  1.0
