data_image0
_chemical_formula_structural       Zr16Pt16
_chemical_formula_sum              "Zr16 Pt16"
_cell_length_a       6.75388
_cell_length_b       9.55143
_cell_length_c       27.1636
_cell_angle_alpha    90
_cell_angle_beta     90
_cell_angle_gamma    90

_space_group_name_H-M_alt    "P 1"
_space_group_IT_number       1

loop_
  _space_group_symop_operation_xyz
  'x, y, z'

loop_
  _atom_site_type_symbol
  _atom_site_label
  _atom_site_symmetry_multiplicity
  _atom_site_fract_x
  _atom_site_fract_y
  _atom_site_fract_z
  _atom_site_occupancy
  Zr  Zr1       1.0  0.25000  0.25000  0.86814  1.0000
  Zr  Zr2       1.0  0.25000  0.00000  0.95605  1.0000
  Zr  Zr3       1.0  0.25000  0.25000  0.04122  1.0000
  Zr  Zr4       1.0  0.25000  0.50000  0.13233  1.0000
  Zr  Zr5       1.0  0.25000  0.75000  0.86814  1.0000
  Zr  Zr6       1.0  0.25000  0.50000  0.95605  1.0000
  Zr  Zr7       1.0  0.25000  0.75000  0.04122  1.0000
  Zr  Zr8       1.0  0.25000  1.00000  0.13233  1.0000
  Zr  Zr9       1.0  0.75000  0.25000  0.86814  1.0000
  Zr  Zr10      1.0  0.75000  0.00000  0.95605  1.0000
  Zr  Zr11      1.0  0.75000  0.25000  0.04122  1.0000
  Zr  Zr12      1.0  0.75000  0.50000  0.13233  1.0000
  Zr  Zr13      1.0  0.75000  0.75000  0.86814  1.0000
  Zr  Zr14      1.0  0.75000  0.50000  0.95605  1.0000
  Zr  Zr15      1.0  0.75000  0.75000  0.04122  1.0000
  Zr  Zr16      1.0  0.75000  1.00000  0.13233  1.0000
  Pt  Pt1       1.0  0.00000  0.00000  0.86814  1.0000
  Pt  Pt2       1.0  0.00000  0.25000  0.95605  1.0000
  Pt  Pt3       1.0  1.00000  0.00001  0.05124  1.0000
  Pt  Pt4       1.0  0.00000  0.24999  0.12298  1.0000
  Pt  Pt5       1.0  0.00000  0.50000  0.86814  1.0000
  Pt  Pt6       1.0  0.00000  0.75000  0.95605  1.0000
  Pt  Pt7       1.0  0.00000  0.49999  0.05124  1.0000
  Pt  Pt8       1.0  1.00000  0.75001  0.12297  1.0000
  Pt  Pt9       1.0  0.50000  0.00000  0.86814  1.0000
  Pt  Pt10      1.0  0.50000  0.25000  0.95605  1.0000
  Pt  Pt11      1.0  0.50000  0.00001  0.05124  1.0000
  Pt  Pt12      1.0  0.50000  0.24999  0.12298  1.0000
  Pt  Pt13      1.0  0.50000  0.50000  0.86814  1.0000
  Pt  Pt14      1.0  0.50000  0.75000  0.95605  1.0000
  Pt  Pt15      1.0  0.50000  0.49999  0.05124  1.0000
  Pt  Pt16      1.0  0.50000  0.75001  0.12297  1.0000
