# generated using pymatgen
data_Y4Al4In4Pd4CO
_symmetry_space_group_name_H-M   Pm
_cell_length_a   6.02485000
_cell_length_b   9.21652000
_cell_length_c   24.50330000
_cell_angle_alpha   90.00000000
_cell_angle_beta   90.00000000
_cell_angle_gamma   90.00000000
_symmetry_Int_Tables_number   6
_chemical_formula_structural   Y4Al4In4Pd4CO
_chemical_formula_sum   'Y4 Al4 In4 Pd4 C1 O1'
_cell_volume   1360.62293069
_cell_formula_units_Z   1
loop_
 _symmetry_equiv_pos_site_id
 _symmetry_equiv_pos_as_xyz
  1  'x, y, z'
  2  'x, -y, z'
loop_
 _atom_site_type_symbol
 _atom_site_label
 _atom_site_symmetry_multiplicity
 _atom_site_fract_x
 _atom_site_fract_y
 _atom_site_fract_z
 _atom_site_occupancy
  Y  Y0  2  0.21514000  0.24998000  0.02823000  1.0
  Y  Y1  2  0.68818000  0.25000000  0.90811000  1.0
  Al  Al2  1  0.45879000  0.00000000  0.96937000  1.0
  Al  Al3  1  0.45879000  0.50000000  0.96937000  1.0
  Al  Al4  1  0.92703000  0.00000000  0.08247000  1.0
  Al  Al5  1  0.92867000  0.50000000  0.08240000  1.0
  In  In6  1  0.47438000  0.00000000  0.09285000  1.0
  In  In7  1  0.47613000  0.50000000  0.09296000  1.0
  In  In8  1  0.95879000  0.00000000  0.96937000  1.0
  In  In9  1  0.95879000  0.50000000  0.96937000  1.0
  Pd  Pd10  2  0.18818000  0.25000000  0.90811000  1.0
  Pd  Pd11  2  0.71841000  0.25029000  0.03430000  1.0
  C  C12  1  0.42525000  0.00000000  0.24500000  1.0
  O  O13  1  0.54989000  0.00000000  0.27977000  1.0
