# generated using pymatgen
data_Li8In8Ga8Pd8CO
_symmetry_space_group_name_H-M   Pm
_cell_length_a   6.46680000
_cell_length_b   9.14544000
_cell_length_c   26.85910000
_cell_angle_alpha   90.00000000
_cell_angle_beta   90.00000000
_cell_angle_gamma   90.00000000
_symmetry_Int_Tables_number   6
_chemical_formula_structural   Li8In8Ga8Pd8CO
_chemical_formula_sum   'Li8 In8 Ga8 Pd8 C1 O1'
_cell_volume   1588.49367763
_cell_formula_units_Z   1
loop_
 _symmetry_equiv_pos_site_id
 _symmetry_equiv_pos_as_xyz
  1  'x, y, z'
  2  'x, -y, z'
loop_
 _atom_site_type_symbol
 _atom_site_label
 _atom_site_symmetry_multiplicity
 _atom_site_fract_x
 _atom_site_fract_y
 _atom_site_fract_z
 _atom_site_occupancy
  Li  Li0  2  0.72954000  0.25180000  0.13596000  1.0
  Li  Li1  2  0.75000000  0.25000000  0.95744000  1.0
  Li  Li2  1  0.21758000  0.50000000  0.04927000  1.0
  Li  Li3  1  0.21836000  0.00000000  0.04474000  1.0
  Li  Li4  1  0.25000000  0.00000000  0.87231000  1.0
  Li  Li5  1  0.25000000  0.50000000  0.87231000  1.0
  In  In6  2  0.50000000  0.25000000  0.87231000  1.0
  In  In7  2  0.50435000  0.25672000  0.04274000  1.0
  In  In8  1  -0.00000000  0.50000000  0.95744000  1.0
  In  In9  1  0.00000000  0.00000000  0.95744000  1.0
  In  In10  1  0.00489000  0.00000000  0.14669000  1.0
  In  In11  1  0.99501000  0.50000000  0.14909000  1.0
  Ga  Ga12  2  0.00000000  0.25000000  0.87231000  1.0
  Ga  Ga13  2  0.98460000  0.25067000  0.04607000  1.0
  Ga  Ga14  1  0.46774000  0.00000000  0.12306000  1.0
  Ga  Ga15  1  0.48217000  0.50000000  0.13417000  1.0
  Ga  Ga16  1  0.50000000  0.00000000  0.95744000  1.0
  Ga  Ga17  1  0.50000000  0.50000000  0.95744000  1.0
  Pd  Pd18  2  0.23832000  0.25230000  0.12159000  1.0
  Pd  Pd19  2  0.25000000  0.25000000  0.95744000  1.0
  Pd  Pd20  1  0.75000000  0.00000000  0.87231000  1.0
  Pd  Pd21  1  0.75000000  0.50000000  0.87231000  1.0
  Pd  Pd22  1  0.75437000  0.00000000  0.04847000  1.0
  Pd  Pd23  1  0.76660000  0.50000000  0.04267000  1.0
  C  C24  1  0.61550000  0.00000000  0.19255000  1.0
  O  O25  1  0.59346000  0.00000000  0.23574000  1.0
