# generated using pymatgen
data_In16Ni16CO
_symmetry_space_group_name_H-M   Pm
_cell_length_a   9.00957000
_cell_length_b   6.37073000
_cell_length_c   26.75720000
_cell_angle_alpha   90.00000000
_cell_angle_beta   90.00000000
_cell_angle_gamma   90.00000000
_symmetry_Int_Tables_number   6
_chemical_formula_structural   In16Ni16CO
_chemical_formula_sum   'In16 Ni16 C1 O1'
_cell_volume   1535.79740073
_cell_formula_units_Z   1
loop_
 _symmetry_equiv_pos_site_id
 _symmetry_equiv_pos_as_xyz
  1  'x, y, z'
  2  'x, -y, z'
loop_
 _atom_site_type_symbol
 _atom_site_label
 _atom_site_symmetry_multiplicity
 _atom_site_fract_x
 _atom_site_fract_y
 _atom_site_fract_z
 _atom_site_occupancy
  In  In0  1  0.00000000  0.00000000  0.87373000  1.0
  In  In1  1  0.00000000  0.50000000  0.87373000  1.0
  In  In2  1  0.25000000  0.00000000  0.13363000  1.0
  In  In3  1  0.25000000  0.00000000  0.95791000  1.0
  In  In4  1  0.25000000  0.50000000  0.95791000  1.0
  In  In5  1  0.25004000  0.50000000  0.13462000  1.0
  In  In6  1  0.50000000  0.00000000  0.87373000  1.0
  In  In7  1  0.50000000  0.50000000  0.87373000  1.0
  In  In8  1  0.50005000  0.00000000  0.04197000  1.0
  In  In9  1  0.50034000  0.50000000  0.04216000  1.0
  In  In10  1  0.75000000  0.00000000  0.95791000  1.0
  In  In11  1  0.75000000  0.50000000  0.95791000  1.0
  In  In12  1  0.75002000  0.50000000  0.13429000  1.0
  In  In13  1  0.75006000  0.00000000  0.13484000  1.0
  In  In14  1  0.99970000  0.50000000  0.04213000  1.0
  In  In15  1  0.99999000  0.00000000  0.04196000  1.0
  Ni  Ni16  2  0.00000000  0.25000000  0.95791000  1.0
  Ni  Ni17  2  0.00018000  0.24943000  0.12077000  1.0
  Ni  Ni18  2  0.25000000  0.25000000  0.87373000  1.0
  Ni  Ni19  2  0.25002000  0.25113000  0.04192000  1.0
  Ni  Ni20  2  0.49988000  0.24940000  0.12079000  1.0
  Ni  Ni21  2  0.50000000  0.25000000  0.95791000  1.0
  Ni  Ni22  2  0.75000000  0.25000000  0.87373000  1.0
  Ni  Ni23  2  0.75002000  0.24970000  0.04238000  1.0
  C  C24  1  0.25023000  0.00000000  0.27384000  1.0
  O  O25  1  0.24990000  0.00000000  0.31625000  1.0
