# generated using pymatgen
data_Li8Cu8Sn8Pd8CO
_symmetry_space_group_name_H-M   'P 1'
_cell_length_a   8.95968000
_cell_length_b   6.33545000
_cell_length_c   26.71980000
_cell_angle_alpha   90.00000000
_cell_angle_beta   90.00000000
_cell_angle_gamma   90.00000000
_symmetry_Int_Tables_number   1
_chemical_formula_structural   Li8Cu8Sn8Pd8CO
_chemical_formula_sum   'Li8 Cu8 Sn8 Pd8 C1 O1'
_cell_volume   1516.71216369
_cell_formula_units_Z   1
loop_
 _symmetry_equiv_pos_site_id
 _symmetry_equiv_pos_as_xyz
  1  'x, y, z'
loop_
 _atom_site_type_symbol
 _atom_site_label
 _atom_site_symmetry_multiplicity
 _atom_site_fract_x
 _atom_site_fract_y
 _atom_site_fract_z
 _atom_site_occupancy
  Li  Li0  1  0.74999000  0.25000000  0.04192000  1.0
  Li  Li1  1  0.25001000  0.25000000  0.04192000  1.0
  Li  Li2  1  0.00000000  0.75000000  0.12575000  1.0
  Li  Li3  1  0.50000000  0.75000000  0.12575000  1.0
  Li  Li4  1  0.25715000  0.24841000  0.86917000  1.0
  Li  Li5  1  0.74285000  0.24841000  0.86917000  1.0
  Li  Li6  1  0.50000000  0.74888000  0.96463000  1.0
  Li  Li7  1  0.00000000  0.76632000  0.95976000  1.0
  Cu  Cu8  1  0.74999000  0.00000000  0.12575000  1.0
  Cu  Cu9  1  0.25001000  0.00000000  0.12575000  1.0
  Cu  Cu10  1  0.50000000  0.50000000  0.04192000  1.0
  Cu  Cu11  1  0.00000000  0.50000000  0.04192000  1.0
  Cu  Cu12  1  0.24986000  0.98842000  0.95086000  1.0
  Cu  Cu13  1  0.75014000  0.98842000  0.95086000  1.0
  Cu  Cu14  1  0.00000000  0.53518000  0.88497000  1.0
  Cu  Cu15  1  0.50000000  0.53409000  0.88503000  1.0
  Sn  Sn16  1  0.74999000  0.75000000  0.04192000  1.0
  Sn  Sn17  1  0.25001000  0.75000000  0.04192000  1.0
  Sn  Sn18  1  0.00000000  0.25000000  0.12575000  1.0
  Sn  Sn19  1  0.50000000  0.25000000  0.12575000  1.0
  Sn  Sn20  1  0.24927000  0.74208000  0.86320000  1.0
  Sn  Sn21  1  0.75073000  0.74208000  0.86320000  1.0
  Sn  Sn22  1  0.50000000  0.25174000  0.95903000  1.0
  Sn  Sn23  1  0.00000000  0.24240000  0.95784000  1.0
  Pd  Pd24  1  0.00000000  1.00000000  0.04192000  1.0
  Pd  Pd25  1  0.50000000  1.00000000  0.04192000  1.0
  Pd  Pd26  1  0.24999000  0.50000000  0.12575000  1.0
  Pd  Pd27  1  0.75001000  0.50000000  0.12575000  1.0
  Pd  Pd28  1  0.50000000  0.96668000  0.88415000  1.0
  Pd  Pd29  1  0.00000000  0.00743000  0.86673000  1.0
  Pd  Pd30  1  0.75373000  0.50385000  0.95360000  1.0
  Pd  Pd31  1  0.24627000  0.50385000  0.95360000  1.0
  C  C32  1  0.00000000  0.15698000  0.80254000  1.0
  O  O33  1  0.00000000  0.20571000  0.76086000  1.0
