# generated using pymatgen
data_Li8Cu8Sn8Pd8CO
_symmetry_space_group_name_H-M   Pm
_cell_length_a   6.33545000
_cell_length_b   8.95968000
_cell_length_c   26.71980000
_cell_angle_alpha   90.00000000
_cell_angle_beta   90.00000000
_cell_angle_gamma   90.00000000
_symmetry_Int_Tables_number   6
_chemical_formula_structural   Li8Cu8Sn8Pd8CO
_chemical_formula_sum   'Li8 Cu8 Sn8 Pd8 C1 O1'
_cell_volume   1516.71216369
_cell_formula_units_Z   1
loop_
 _symmetry_equiv_pos_site_id
 _symmetry_equiv_pos_as_xyz
  1  'x, y, z'
  2  'x, -y, z'
loop_
 _atom_site_type_symbol
 _atom_site_label
 _atom_site_symmetry_multiplicity
 _atom_site_fract_x
 _atom_site_fract_y
 _atom_site_fract_z
 _atom_site_occupancy
  Li  Li0  2  0.24841000  0.25715000  0.13083000  1.0
  Li  Li1  2  0.25000000  0.25001000  0.95808000  1.0
  Li  Li2  1  0.74888000  0.50000000  0.03537000  1.0
  Li  Li3  1  0.75000000  0.00000000  0.87425000  1.0
  Li  Li4  1  0.75000000  0.50000000  0.87425000  1.0
  Li  Li5  1  0.76632000  0.00000000  0.04024000  1.0
  Cu  Cu6  2  0.00000000  0.25001000  0.87425000  1.0
  Cu  Cu7  2  0.98842000  0.24986000  0.04914000  1.0
  Cu  Cu8  1  0.50000000  0.00000000  0.95808000  1.0
  Cu  Cu9  1  0.50000000  0.50000000  0.95808000  1.0
  Cu  Cu10  1  0.53409000  0.50000000  0.11497000  1.0
  Cu  Cu11  1  0.53518000  0.00000000  0.11503000  1.0
  Sn  Sn12  2  0.74208000  0.24927000  0.13680000  1.0
  Sn  Sn13  2  0.75000000  0.25001000  0.95808000  1.0
  Sn  Sn14  1  0.24240000  0.00000000  0.04216000  1.0
  Sn  Sn15  1  0.25000000  0.00000000  0.87425000  1.0
  Sn  Sn16  1  0.25000000  0.50000000  0.87425000  1.0
  Sn  Sn17  1  0.25174000  0.50000000  0.04097000  1.0
  Pd  Pd18  2  0.50000000  0.24999000  0.87425000  1.0
  Pd  Pd19  2  0.50385000  0.24627000  0.04640000  1.0
  Pd  Pd20  1  -0.00000000  0.50000000  0.95808000  1.0
  Pd  Pd21  1  -0.00000000  0.00000000  0.95808000  1.0
  Pd  Pd22  1  0.00743000  0.00000000  0.13327000  1.0
  Pd  Pd23  1  0.96668000  0.50000000  0.11585000  1.0
  C  C24  1  0.15698000  0.00000000  0.19746000  1.0
  O  O25  1  0.20571000  0.00000000  0.23914000  1.0
