# generated using pymatgen
data_Li16Sb8Pt8CO
_symmetry_space_group_name_H-M   'P 1'
_cell_length_a   9.05843000
_cell_length_b   6.40528000
_cell_length_c   26.79380000
_cell_angle_alpha   90.00000000
_cell_angle_beta   90.00000000
_cell_angle_gamma   90.00000000
_symmetry_Int_Tables_number   1
_chemical_formula_structural   Li16Sb8Pt8CO
_chemical_formula_sum   'Li16 Sb8 Pt8 C1 O1'
_cell_volume   1554.62398264
_cell_formula_units_Z   1
loop_
 _symmetry_equiv_pos_site_id
 _symmetry_equiv_pos_as_xyz
  1  'x, y, z'
loop_
 _atom_site_type_symbol
 _atom_site_label
 _atom_site_symmetry_multiplicity
 _atom_site_fract_x
 _atom_site_fract_y
 _atom_site_fract_z
 _atom_site_occupancy
  Li  Li0  1  0.50000000  0.00000000  0.04226000  1.0
  Li  Li1  1  0.75000000  0.50000000  0.12678000  1.0
  Li  Li2  1  0.00000000  0.00000000  0.04226000  1.0
  Li  Li3  1  0.25000000  0.50000000  0.12678000  1.0
  Li  Li4  1  0.00000000  0.25000000  0.12678000  1.0
  Li  Li5  1  0.50000000  0.25000000  0.12678000  1.0
  Li  Li6  1  0.25000000  0.75000000  0.04226000  1.0
  Li  Li7  1  0.75000000  0.75000000  0.04226000  1.0
  Li  Li8  1  0.00000000  0.02766000  0.87363000  1.0
  Li  Li9  1  0.24952000  0.51261000  0.96397000  1.0
  Li  Li10  1  0.50000000  0.02840000  0.87438000  1.0
  Li  Li11  1  0.75048000  0.51261000  0.96397000  1.0
  Li  Li12  1  0.50000000  0.27736000  0.95356000  1.0
  Li  Li13  1  0.00000000  0.26743000  0.95487000  1.0
  Li  Li14  1  0.75015000  0.72459000  0.87800000  1.0
  Li  Li15  1  0.24985000  0.72459000  0.87800000  1.0
  Sb  Sb16  1  0.75000000  0.00000000  0.12678000  1.0
  Sb  Sb17  1  0.00000000  0.50000000  0.04226000  1.0
  Sb  Sb18  1  0.50000000  0.50000000  0.04226000  1.0
  Sb  Sb19  1  0.25000000  0.00000000  0.12678000  1.0
  Sb  Sb20  1  0.25002000  0.99805000  0.95756000  1.0
  Sb  Sb21  1  0.50000000  0.49672000  0.86207000  1.0
  Sb  Sb22  1  0.00000000  0.49045000  0.86525000  1.0
  Sb  Sb23  1  0.74998000  0.99805000  0.95756000  1.0
  Pt  Pt24  1  0.75000000  0.25000000  0.04226000  1.0
  Pt  Pt25  1  0.25000000  0.25000000  0.04226000  1.0
  Pt  Pt26  1  0.50000000  0.75000000  0.12678000  1.0
  Pt  Pt27  1  0.00000000  0.75000000  0.12678000  1.0
  Pt  Pt28  1  0.25315000  0.28332000  0.88668000  1.0
  Pt  Pt29  1  0.74685000  0.28332000  0.88668000  1.0
  Pt  Pt30  1  0.00000000  0.74064000  0.95074000  1.0
  Pt  Pt31  1  0.50000000  0.74024000  0.95073000  1.0
  C  C32  1  0.00000000  0.99275000  0.79508000  1.0
  O  O33  1  0.00000000  0.99509000  0.75255000  1.0
