# generated using pymatgen
data_Li16Sb8Pt8CO
_symmetry_space_group_name_H-M   Pm
_cell_length_a   6.40528000
_cell_length_b   9.05843000
_cell_length_c   26.79380000
_cell_angle_alpha   90.00000000
_cell_angle_beta   90.00000000
_cell_angle_gamma   90.00000000
_symmetry_Int_Tables_number   6
_chemical_formula_structural   Li16Sb8Pt8CO
_chemical_formula_sum   'Li16 Sb8 Pt8 C1 O1'
_cell_volume   1554.62398264
_cell_formula_units_Z   1
loop_
 _symmetry_equiv_pos_site_id
 _symmetry_equiv_pos_as_xyz
  1  'x, y, z'
  2  'x, -y, z'
loop_
 _atom_site_type_symbol
 _atom_site_label
 _atom_site_symmetry_multiplicity
 _atom_site_fract_x
 _atom_site_fract_y
 _atom_site_fract_z
 _atom_site_occupancy
  Li  Li0  2  0.50000000  0.25000000  0.87322000  1.0
  Li  Li1  2  0.51261000  0.24952000  0.03603000  1.0
  Li  Li2  2  0.72459000  0.24985000  0.12200000  1.0
  Li  Li3  2  0.75000000  0.25000000  0.95774000  1.0
  Li  Li4  1  0.00000000  0.00000000  0.95774000  1.0
  Li  Li5  1  0.00000000  0.50000000  0.95774000  1.0
  Li  Li6  1  0.02766000  0.00000000  0.12637000  1.0
  Li  Li7  1  0.02840000  0.50000000  0.12562000  1.0
  Li  Li8  1  0.25000000  0.00000000  0.87322000  1.0
  Li  Li9  1  0.25000000  0.50000000  0.87322000  1.0
  Li  Li10  1  0.26743000  0.00000000  0.04513000  1.0
  Li  Li11  1  0.27736000  0.50000000  0.04644000  1.0
  Sb  Sb12  2  0.00000000  0.25000000  0.87322000  1.0
  Sb  Sb13  2  0.99805000  0.25002000  0.04244000  1.0
  Sb  Sb14  1  0.49045000  0.00000000  0.13475000  1.0
  Sb  Sb15  1  0.49672000  0.50000000  0.13793000  1.0
  Sb  Sb16  1  0.50000000  0.00000000  0.95774000  1.0
  Sb  Sb17  1  0.50000000  0.50000000  0.95774000  1.0
  Pt  Pt18  2  0.25000000  0.25000000  0.95774000  1.0
  Pt  Pt19  2  0.28332000  0.25315000  0.11332000  1.0
  Pt  Pt20  1  0.74024000  0.50000000  0.04927000  1.0
  Pt  Pt21  1  0.74064000  0.00000000  0.04926000  1.0
  Pt  Pt22  1  0.75000000  0.00000000  0.87322000  1.0
  Pt  Pt23  1  0.75000000  0.50000000  0.87322000  1.0
  C  C24  1  0.99275000  0.00000000  0.20492000  1.0
  O  O25  1  0.99509000  0.00000000  0.24745000  1.0
