# generated using pymatgen
data_VRu
_symmetry_space_group_name_H-M   Pmm2
_cell_length_a   3.01818000
_cell_length_b   4.26835000
_cell_length_c   26.40250000
_cell_angle_alpha   90.00000000
_cell_angle_beta   90.00000000
_cell_angle_gamma   90.00000000
_symmetry_Int_Tables_number   25
_chemical_formula_structural   VRu
_chemical_formula_sum   'V4 Ru4'
_cell_volume   340.13412974
_cell_formula_units_Z   4
loop_
 _symmetry_equiv_pos_site_id
 _symmetry_equiv_pos_as_xyz
  1  'x, y, z'
  2  '-x, -y, z'
  3  '-x, y, z'
  4  'x, -y, z'
loop_
 _atom_site_type_symbol
 _atom_site_label
 _atom_site_symmetry_multiplicity
 _atom_site_fract_x
 _atom_site_fract_y
 _atom_site_fract_z
 _atom_site_occupancy
  V  V0  1  0.50000000  0.00000000  0.12450500  1.0
  V  V1  1  0.50000000  0.00000000  0.95958000  1.0
  V  V2  1  0.50000000  0.50000000  0.04218500  1.0
  V  V3  1  0.50000000  0.50000000  0.87875000  1.0
  Ru  Ru4  1  0.00000000  0.00000000  0.04160250  1.0
  Ru  Ru5  1  0.00000000  0.00000000  0.87875000  1.0
  Ru  Ru6  1  0.00000000  0.50000000  0.11608500  1.0
  Ru  Ru7  1  0.00000000  0.50000000  0.95958000  1.0
