# generated using pymatgen
data_Li4Al4Ag4Sn4CO
_symmetry_space_group_name_H-M   'P 1'
_cell_length_a   8.66686000
_cell_length_b   5.91351000
_cell_length_c   24.43010000
_cell_angle_alpha   90.00000000
_cell_angle_beta   90.00000000
_cell_angle_gamma   90.00000000
_symmetry_Int_Tables_number   1
_chemical_formula_structural   Li4Al4Ag4Sn4CO
_chemical_formula_sum   'Li4 Al4 Ag4 Sn4 C1 O1'
_cell_volume   1252.08081605
_cell_formula_units_Z   1
loop_
 _symmetry_equiv_pos_site_id
 _symmetry_equiv_pos_as_xyz
  1  'x, y, z'
loop_
 _atom_site_type_symbol
 _atom_site_label
 _atom_site_symmetry_multiplicity
 _atom_site_fract_x
 _atom_site_fract_y
 _atom_site_fract_z
 _atom_site_occupancy
  Li  Li0  1  0.00000000  0.51764000  0.91440000  1.0
  Li  Li1  1  0.00000000  0.97614000  0.03022000  1.0
  Li  Li2  1  0.50000000  0.52780000  0.91484000  1.0
  Li  Li3  1  0.50000000  0.97614000  0.03022000  1.0
  Al  Al4  1  0.24163000  0.25799000  0.97070000  1.0
  Al  Al5  1  0.24999000  0.71421000  0.09067000  1.0
  Al  Al6  1  0.75837000  0.25799000  0.97070000  1.0
  Al  Al7  1  0.75001000  0.71421000  0.09067000  1.0
  Ag  Ag8  1  0.00000000  0.04787000  0.91843000  1.0
  Ag  Ag9  1  0.00000000  0.47614000  0.03022000  1.0
  Ag  Ag10  1  0.50000000  0.06798000  0.92734000  1.0
  Ag  Ag11  1  0.50000000  0.47614000  0.03022000  1.0
  Sn  Sn12  1  0.24761000  0.75203000  0.96782000  1.0
  Sn  Sn13  1  0.24999000  0.21421000  0.09067000  1.0
  Sn  Sn14  1  0.75239000  0.75203000  0.96782000  1.0
  Sn  Sn15  1  0.75001000  0.21421000  0.09067000  1.0
  C  C16  1  0.00000000  0.00077000  0.82981000  1.0
  O  O17  1  0.00000000  0.00670000  0.78282000  1.0
