# generated using pymatgen
data_Li8In8Pd8Ru8C
_symmetry_space_group_name_H-M   Pm
_cell_length_a   6.32045000
_cell_length_b   8.93846000
_cell_length_c   26.70380000
_cell_angle_alpha   90.00000000
_cell_angle_beta   90.00000000
_cell_angle_gamma   90.00000000
_symmetry_Int_Tables_number   6
_chemical_formula_structural   Li8In8Pd8Ru8C
_chemical_formula_sum   'Li8 In8 Pd8 Ru8 C1'
_cell_volume   1508.63357118
_cell_formula_units_Z   1
loop_
 _symmetry_equiv_pos_site_id
 _symmetry_equiv_pos_as_xyz
  1  'x, y, z'
  2  'x, -y, z'
loop_
 _atom_site_type_symbol
 _atom_site_label
 _atom_site_symmetry_multiplicity
 _atom_site_fract_x
 _atom_site_fract_y
 _atom_site_fract_z
 _atom_site_occupancy
  Li  Li0  2  -0.00000000  0.25000000  0.95816000  1.0
  Li  Li1  2  0.00027000  0.24557000  0.13643000  1.0
  Li  Li2  1  0.49839000  0.50000000  0.04184000  1.0
  Li  Li3  1  0.50000000  0.00000000  0.87448000  1.0
  Li  Li4  1  0.50000000  0.50000000  0.87448000  1.0
  Li  Li5  1  0.50738000  0.00000000  0.03862000  1.0
  In  In6  2  0.49617000  0.25850000  0.13280000  1.0
  In  In7  2  0.50000000  0.25000000  0.95816000  1.0
  In  In8  1  -0.00000000  0.50000000  0.87448000  1.0
  In  In9  1  0.00000000  0.00000000  0.87448000  1.0
  In  In10  1  0.99464000  0.00000000  0.04009000  1.0
  In  In11  1  0.99978000  0.50000000  0.03939000  1.0
  Pd  Pd12  2  0.25000000  0.25000000  0.87448000  1.0
  Pd  Pd13  2  0.25115000  0.24764000  0.04407000  1.0
  Ru  Ru14  2  0.74409000  0.25004000  0.04594000  1.0
  Ru  Ru15  2  0.75000000  0.25000000  0.87448000  1.0
  Ru  Ru16  1  0.24405000  0.50000000  0.12109000  1.0
  Ru  Ru17  1  0.25000000  0.00000000  0.95816000  1.0
  Ru  Ru18  1  0.25000000  0.50000000  0.95816000  1.0
  Ru  Ru19  1  0.25391000  0.00000000  0.12314000  1.0
  Pd  Pd20  1  0.74997000  0.00000000  0.12717000  1.0
  Pd  Pd21  1  0.75000000  0.00000000  0.95816000  1.0
  Pd  Pd22  1  0.75000000  0.50000000  0.95816000  1.0
  Pd  Pd23  1  0.76318000  0.50000000  0.12236000  1.0
  C  C24  1  0.03918000  0.00000000  0.16222000  1.0
