# generated using pymatgen
data_Li2AlPt
_symmetry_space_group_name_H-M   Cmm2
_cell_length_a   8.59020188
_cell_length_b   8.59020188
_cell_length_c   24.55560000
_cell_angle_alpha   90.00000000
_cell_angle_beta   90.00000000
_cell_angle_gamma   90.00000000
_symmetry_Int_Tables_number   35
_chemical_formula_structural   Li2AlPt
_chemical_formula_sum   'Li16 Al8 Pt8'
_cell_volume   1811.99623485
_cell_formula_units_Z   8
loop_
 _symmetry_equiv_pos_site_id
 _symmetry_equiv_pos_as_xyz
  1  'x, y, z'
  2  '-x, -y, z'
  3  '-x, y, z'
  4  'x, -y, z'
  5  'x+1/2, y+1/2, z'
  6  '-x+1/2, -y+1/2, z'
  7  '-x+1/2, y+1/2, z'
  8  'x+1/2, -y+1/2, z'
loop_
 _atom_site_type_symbol
 _atom_site_label
 _atom_site_symmetry_multiplicity
 _atom_site_fract_x
 _atom_site_fract_y
 _atom_site_fract_z
 _atom_site_occupancy
  Li  Li0  4  0.00000000  0.25010000  0.02710000  1.0
  Li  Li1  4  0.25000000  0.00000000  0.90724000  1.0
  Li  Li2  4  0.25000000  0.25000000  0.10021000  1.0
  Li  Li3  2  0.00000000  0.00000000  0.96908000  1.0
  Li  Li4  2  0.00000000  0.50000000  0.96908000  1.0
  Al  Al5  4  0.25000000  0.25000000  0.96908000  1.0
  Al  Al6  2  0.00000000  0.00000000  0.08450000  1.0
  Al  Al7  2  0.00000000  0.50000000  0.08447000  1.0
  Pt  Pt8  4  0.00000000  0.25000000  0.90724000  1.0
  Pt  Pt9  4  0.24998000  0.00000000  0.03131000  1.0
