# generated using pymatgen
data_Y4Sc4Ga4Pd4C
_symmetry_space_group_name_H-M   Pm
_cell_length_a   6.83834000
_cell_length_b   7.06732000
_cell_length_c   25.12490000
_cell_angle_alpha   90.00000000
_cell_angle_beta   90.00000000
_cell_angle_gamma   90.00000000
_symmetry_Int_Tables_number   6
_chemical_formula_structural   Y4Sc4Ga4Pd4C
_chemical_formula_sum   'Y4 Sc4 Ga4 Pd4 C1'
_cell_volume   1214.25468548
_cell_formula_units_Z   1
loop_
 _symmetry_equiv_pos_site_id
 _symmetry_equiv_pos_as_xyz
  1  'x, y, z'
  2  'x, -y, z'
loop_
 _atom_site_type_symbol
 _atom_site_label
 _atom_site_symmetry_multiplicity
 _atom_site_fract_x
 _atom_site_fract_y
 _atom_site_fract_z
 _atom_site_occupancy
  Y  Y0  1  0.25956000  0.50000000  0.95684000  1.0
  Y  Y1  1  0.26093000  0.00000000  0.96182000  1.0
  Y  Y2  1  0.77900000  0.00000000  0.10199000  1.0
  Y  Y3  1  0.77900000  0.50000000  0.10199000  1.0
  Sc  Sc4  1  0.27900000  0.00000000  0.10199000  1.0
  Sc  Sc5  1  0.27900000  0.50000000  0.10199000  1.0
  Sc  Sc6  1  0.77499000  0.00000000  0.97051000  1.0
  Sc  Sc7  1  0.77580000  0.50000000  0.96547000  1.0
  Ga  Ga8  2  0.51933000  0.25000000  0.03400000  1.0
  Ga  Ga9  2  0.96198000  0.22862000  0.89361000  1.0
  Pd  Pd10  2  0.01933000  0.25000000  0.03400000  1.0
  Pd  Pd11  2  0.55419000  0.23440000  0.91305000  1.0
  C  C12  1  0.99134000  0.50000000  0.89952000  1.0
