# generated using pymatgen
data_Zn16Au16CO
_symmetry_space_group_name_H-M   Pmm2
_cell_length_a   6.43103000
_cell_length_b   9.09485000
_cell_length_c   26.82110000
_cell_angle_alpha   90.00000000
_cell_angle_beta   90.00000000
_cell_angle_gamma   90.00000000
_symmetry_Int_Tables_number   25
_chemical_formula_structural   Zn16Au16CO
_chemical_formula_sum   'Zn16 Au16 C1 O1'
_cell_volume   1568.74610888
_cell_formula_units_Z   1
loop_
 _symmetry_equiv_pos_site_id
 _symmetry_equiv_pos_as_xyz
  1  'x, y, z'
  2  '-x, -y, z'
  3  '-x, y, z'
  4  'x, -y, z'
loop_
 _atom_site_type_symbol
 _atom_site_label
 _atom_site_symmetry_multiplicity
 _atom_site_fract_x
 _atom_site_fract_y
 _atom_site_fract_z
 _atom_site_occupancy
  Zn  Zn0  4  0.25000000  0.25000000  0.95761000  1.0
  Zn  Zn1  4  0.26245000  0.25505000  0.12877000  1.0
  Zn  Zn2  2  0.24023000  0.00000000  0.04582000  1.0
  Zn  Zn3  2  0.25000000  0.00000000  0.87284000  1.0
  Zn  Zn4  2  0.25000000  0.50000000  0.87284000  1.0
  Zn  Zn5  2  0.25283000  0.50000000  0.04551000  1.0
  Au  Au6  2  0.00000000  0.25000000  0.87284000  1.0
  Au  Au7  2  0.00000000  0.25116000  0.04375000  1.0
  Au  Au8  2  0.50000000  0.24952000  0.03853000  1.0
  Au  Au9  2  0.50000000  0.25000000  0.87284000  1.0
  Au  Au10  1  0.00000000  0.00000000  0.13452000  1.0
  Au  Au11  1  0.00000000  0.00000000  0.95761000  1.0
  Au  Au12  1  0.00000000  0.50000000  0.13012000  1.0
  Au  Au13  1  0.00000000  0.50000000  0.95761000  1.0
  Au  Au14  1  0.50000000  0.00000000  0.12658000  1.0
  Au  Au15  1  0.50000000  0.00000000  0.95761000  1.0
  Au  Au16  1  0.50000000  0.50000000  0.13417000  1.0
  Au  Au17  1  0.50000000  0.50000000  0.95761000  1.0
  C  C18  1  0.00000000  0.00000000  0.21391000  1.0
  O  O19  1  0.00000000  0.00000000  0.25652000  1.0
