# generated using pymatgen
data_Al8V8Fe16C
_symmetry_space_group_name_H-M   'P 1'
_cell_length_a   5.71239000
_cell_length_b   8.07854000
_cell_length_c   26.05890000
_cell_angle_alpha   90.00000000
_cell_angle_beta   90.00000000
_cell_angle_gamma   90.00000000
_symmetry_Int_Tables_number   1
_chemical_formula_structural   Al8V8Fe16C
_chemical_formula_sum   'Al8 V8 Fe16 C1'
_cell_volume   1202.56015259
_cell_formula_units_Z   1
loop_
 _symmetry_equiv_pos_site_id
 _symmetry_equiv_pos_as_xyz
  1  'x, y, z'
loop_
 _atom_site_type_symbol
 _atom_site_label
 _atom_site_symmetry_multiplicity
 _atom_site_fract_x
 _atom_site_fract_y
 _atom_site_fract_z
 _atom_site_occupancy
  Al  Al0  1  0.00000000  0.00000000  0.88375000  1.0
  Al  Al1  1  0.50000000  0.25000000  0.96125000  1.0
  Al  Al2  1  0.50000000  0.75000000  0.96125000  1.0
  Al  Al3  1  0.00000000  0.50000000  0.88375000  1.0
  Al  Al4  1  0.00000000  0.50000000  0.03936000  1.0
  Al  Al5  1  0.50000000  0.75732000  0.12265000  1.0
  Al  Al6  1  0.50000000  0.24268000  0.12265000  1.0
  Al  Al7  1  0.00000000  0.00000000  0.03736000  1.0
  V  V8  1  0.00000000  0.75000000  0.96125000  1.0
  V  V9  1  0.50000000  0.00000000  0.88375000  1.0
  V  V10  1  0.00000000  0.25000000  0.96125000  1.0
  V  V11  1  0.50000000  0.50000000  0.88375000  1.0
  V  V12  1  0.00000000  0.25299000  0.11670000  1.0
  V  V13  1  0.50000000  0.50000000  0.04041000  1.0
  V  V14  1  0.00000000  0.74701000  0.11670000  1.0
  V  V15  1  0.50000000  0.00000000  0.03787000  1.0
  Fe  Fe16  1  0.25000000  0.00000000  0.96125000  1.0
  Fe  Fe17  1  0.75000000  0.50000000  0.96125000  1.0
  Fe  Fe18  1  0.75000000  0.00000000  0.96125000  1.0
  Fe  Fe19  1  0.25000000  0.50000000  0.96125000  1.0
  Fe  Fe20  1  0.75000000  0.75000000  0.88375000  1.0
  Fe  Fe21  1  0.25000000  0.25000000  0.88375000  1.0
  Fe  Fe22  1  0.25000000  0.75000000  0.88375000  1.0
  Fe  Fe23  1  0.75000000  0.25000000  0.88375000  1.0
  Fe  Fe24  1  0.25744000  0.50000000  0.11696000  1.0
  Fe  Fe25  1  0.75554000  0.00000000  0.11363000  1.0
  Fe  Fe26  1  0.74256000  0.50000000  0.11696000  1.0
  Fe  Fe27  1  0.24446000  0.00000000  0.11363000  1.0
  Fe  Fe28  1  0.74871000  0.24998000  0.04029000  1.0
  Fe  Fe29  1  0.25129000  0.75002000  0.04029000  1.0
  Fe  Fe30  1  0.25129000  0.24998000  0.04029000  1.0
  Fe  Fe31  1  0.74871000  0.75002000  0.04029000  1.0
  C  C32  1  0.00000000  0.00000000  0.15499000  1.0
