# generated using pymatgen
data_Y4In4Cu4Sn4CO
_symmetry_space_group_name_H-M   'P 1'
_cell_length_a   8.82850000
_cell_length_b   6.36255000
_cell_length_c   24.76930000
_cell_angle_alpha   90.00000000
_cell_angle_beta   90.00000000
_cell_angle_gamma   90.00000000
_symmetry_Int_Tables_number   1
_chemical_formula_structural   Y4In4Cu4Sn4CO
_chemical_formula_sum   'Y4 In4 Cu4 Sn4 C1 O1'
_cell_volume   1391.33548892
_cell_formula_units_Z   1
loop_
 _symmetry_equiv_pos_site_id
 _symmetry_equiv_pos_as_xyz
  1  'x, y, z'
loop_
 _atom_site_type_symbol
 _atom_site_label
 _atom_site_symmetry_multiplicity
 _atom_site_fract_x
 _atom_site_fract_y
 _atom_site_fract_z
 _atom_site_occupancy
  Y  Y0  1  0.74726000  0.21094000  0.04324000  1.0
  Y  Y1  1  0.75000000  0.77490000  0.90373000  1.0
  Y  Y2  1  0.25274000  0.21094000  0.04324000  1.0
  Y  Y3  1  0.25000000  0.77490000  0.90373000  1.0
  In  In4  1  0.75571000  0.70011000  0.03325000  1.0
  In  In5  1  0.75000000  0.27490000  0.90373000  1.0
  In  In6  1  0.24429000  0.70011000  0.03325000  1.0
  In  In7  1  0.25000000  0.27490000  0.90373000  1.0
  Cu  Cu8  1  0.00000000  0.91936000  0.07930000  1.0
  Cu  Cu9  1  0.00000000  0.51660000  0.96791000  1.0
  Cu  Cu10  1  0.50000000  0.90893000  0.07424000  1.0
  Cu  Cu11  1  0.50000000  0.51660000  0.96791000  1.0
  Sn  Sn12  1  0.00000000  0.49206000  0.09708000  1.0
  Sn  Sn13  1  0.00000000  0.01660000  0.96791000  1.0
  Sn  Sn14  1  0.50000000  0.50059000  0.09896000  1.0
  Sn  Sn15  1  0.50000000  0.01660000  0.96791000  1.0
  C  C16  1  0.00000000  0.99045000  0.15262000  1.0
  O  O17  1  0.00000000  0.00029000  0.19907000  1.0
