data_image0
_chemical_formula_structural       Sc4Mn4In4Pd4CO
_chemical_formula_sum              "Sc4 Mn4 In4 Pd4 C1 O1"
_cell_length_a       6.62299
_cell_length_b       6.62299
_cell_length_c       24.9672
_cell_angle_alpha    90
_cell_angle_beta     90
_cell_angle_gamma    90

_space_group_name_H-M_alt    "P 1"
_space_group_IT_number       1

loop_
  _space_group_symop_operation_xyz
  'x, y, z'

loop_
  _atom_site_type_symbol
  _atom_site_label
  _atom_site_symmetry_multiplicity
  _atom_site_fract_x
  _atom_site_fract_y
  _atom_site_fract_z
  _atom_site_occupancy
  Sc  Sc1       1.0  0.99994  0.49995  0.10017  1.0000
  Sc  Sc2       1.0  0.00000  0.00000  0.96684  1.0000
  Sc  Sc3       1.0  0.50000  0.50000  0.96684  1.0000
  Sc  Sc4       1.0  0.49989  0.99984  0.10021  1.0000
  Mn  Mn1       1.0  0.74645  0.25334  0.03672  1.0000
  Mn  Mn2       1.0  0.75000  0.75000  0.90052  1.0000
  Mn  Mn3       1.0  0.25000  0.25000  0.90052  1.0000
  Mn  Mn4       1.0  0.25353  0.74642  0.03675  1.0000
  In  In1       1.0  0.99989  0.99980  0.10061  1.0000
  In  In2       1.0  0.00000  0.50000  0.96684  1.0000
  In  In3       1.0  0.50000  0.00000  0.96684  1.0000
  In  In4       1.0  0.50003  0.49976  0.10667  1.0000
  Pd  Pd1       1.0  0.25302  0.25297  0.03339  1.0000
  Pd  Pd2       1.0  0.25000  0.75000  0.90052  1.0000
  Pd  Pd3       1.0  0.75000  0.25000  0.90052  1.0000
  Pd  Pd4       1.0  0.74671  0.74675  0.03335  1.0000
  C   C1        1.0  0.00104  0.00450  0.28395  1.0000
  O   O1        1.0  0.99978  0.99891  0.32942  1.0000
