# generated using pymatgen
data_Sc4Mn4In4Pd4CO
_symmetry_space_group_name_H-M   P1
_cell_length_a   6.62299000
_cell_length_b   6.62299000
_cell_length_c   24.96720000
_cell_angle_alpha   90.00000000
_cell_angle_beta   90.00000000
_cell_angle_gamma   90.00000000
_symmetry_Int_Tables_number   1
_chemical_formula_structural   Sc4Mn4In4Pd4CO
_chemical_formula_sum   'Sc4 Mn4 In4 Pd4 C1 O1'
_cell_volume   1095.16117442
_cell_formula_units_Z   1
loop_
 _symmetry_equiv_pos_site_id
 _symmetry_equiv_pos_as_xyz
  1  'x, y, z'
loop_
 _atom_site_type_symbol
 _atom_site_label
 _atom_site_symmetry_multiplicity
 _atom_site_fract_x
 _atom_site_fract_y
 _atom_site_fract_z
 _atom_site_occupancy
  Sc  Sc0  1  0.00000000  0.00000000  0.96684000  1.0
  Sc  Sc1  1  0.49995000  0.99983000  0.09902000  1.0
  Sc  Sc2  1  0.50000000  0.50000000  0.96684000  1.0
  Sc  Sc3  1  0.99989000  0.49991000  0.09901000  1.0
  Mn  Mn4  1  0.25000000  0.25000000  0.90052000  1.0
  Mn  Mn5  1  0.25198000  0.74790000  0.03694000  1.0
  Mn  Mn6  1  0.74804000  0.25186000  0.03696000  1.0
  Mn  Mn7  1  0.75000000  0.75000000  0.90052000  1.0
  In  In8  1  -0.00000000  0.50000000  0.96684000  1.0
  In  In9  1  0.49997000  0.49983000  0.10535000  1.0
  In  In10  1  0.50000000  0.00000000  0.96684000  1.0
  In  In11  1  0.99994000  0.99974000  0.10302000  1.0
  Pd  Pd12  1  0.25000000  0.75000000  0.90052000  1.0
  Pd  Pd13  1  0.25173000  0.25173000  0.03259000  1.0
  Pd  Pd14  1  0.74810000  0.74806000  0.03256000  1.0
  Pd  Pd15  1  0.75000000  0.25000000  0.90052000  1.0
  C  C16  1  0.00158000  0.00710000  0.28386000  1.0
  O  O17  1  0.99964000  0.99822000  0.32925000  1.0
