# generated using pymatgen
data_Li8Y8Cu8Pd8CO
_symmetry_space_group_name_H-M   'P 1'
_cell_length_a   9.43388000
_cell_length_b   6.67076000
_cell_length_c   27.07540000
_cell_angle_alpha   90.00000000
_cell_angle_beta   90.00000000
_cell_angle_gamma   90.00000000
_symmetry_Int_Tables_number   1
_chemical_formula_structural   Li8Y8Cu8Pd8CO
_chemical_formula_sum   'Li8 Y8 Cu8 Pd8 C1 O1'
_cell_volume   1703.88604108
_cell_formula_units_Z   1
loop_
 _symmetry_equiv_pos_site_id
 _symmetry_equiv_pos_as_xyz
  1  'x, y, z'
loop_
 _atom_site_type_symbol
 _atom_site_label
 _atom_site_symmetry_multiplicity
 _atom_site_fract_x
 _atom_site_fract_y
 _atom_site_fract_z
 _atom_site_occupancy
  Li  Li0  1  0.00000000  0.25000000  0.04355000  1.0
  Li  Li1  1  0.50000000  0.25000000  0.04355000  1.0
  Li  Li2  1  0.25000000  0.75000000  0.13066000  1.0
  Li  Li3  1  0.75000000  0.75000000  0.13066000  1.0
  Li  Li4  1  0.50000000  0.25037000  0.86706000  1.0
  Li  Li5  1  0.00000000  0.25163000  0.86737000  1.0
  Li  Li6  1  0.74911000  0.75643000  0.95274000  1.0
  Li  Li7  1  0.25089000  0.75643000  0.95274000  1.0
  Y  Y8  1  0.00000000  0.75000000  0.04355000  1.0
  Y  Y9  1  0.50000000  0.75000000  0.04355000  1.0
  Y  Y10  1  0.25000000  0.25000000  0.13066000  1.0
  Y  Y11  1  0.75000000  0.25000000  0.13066000  1.0
  Y  Y12  1  0.50000000  0.75614000  0.85891000  1.0
  Y  Y13  1  0.00000000  0.75708000  0.87281000  1.0
  Y  Y14  1  0.73464000  0.25342000  0.95772000  1.0
  Y  Y15  1  0.26536000  0.25342000  0.95772000  1.0
  Cu  Cu16  1  0.00000000  0.00000000  0.13066000  1.0
  Cu  Cu17  1  0.50000000  0.00000000  0.13066000  1.0
  Cu  Cu18  1  0.75000000  0.50000000  0.04355000  1.0
  Cu  Cu19  1  0.25000000  0.50000000  0.04355000  1.0
  Cu  Cu20  1  0.50000000  0.96674000  0.94880000  1.0
  Cu  Cu21  1  0.00000000  0.02679000  0.95803000  1.0
  Cu  Cu22  1  0.25173000  0.48042000  0.87019000  1.0
  Cu  Cu23  1  0.74827000  0.48042000  0.87019000  1.0
  Pd  Pd24  1  0.25000000  1.00000000  0.04355000  1.0
  Pd  Pd25  1  0.75000000  1.00000000  0.04355000  1.0
  Pd  Pd26  1  0.50000000  0.50000000  0.13066000  1.0
  Pd  Pd27  1  0.00000000  0.50000000  0.13066000  1.0
  Pd  Pd28  1  0.74492000  0.01735000  0.87288000  1.0
  Pd  Pd29  1  0.25508000  0.01735000  0.87288000  1.0
  Pd  Pd30  1  0.00000000  0.48393000  0.95606000  1.0
  Pd  Pd31  1  0.50000000  0.53666000  0.94743000  1.0
  C  C32  1  0.00000000  0.73380000  0.77997000  1.0
  O  O33  1  0.00000000  0.73201000  0.73759000  1.0
