# generated using pymatgen
data_Li8Y8Cu8Pd8CO
_symmetry_space_group_name_H-M   Pm
_cell_length_a   6.67076000
_cell_length_b   9.43388000
_cell_length_c   27.07540000
_cell_angle_alpha   90.00000000
_cell_angle_beta   90.00000000
_cell_angle_gamma   90.00000000
_symmetry_Int_Tables_number   6
_chemical_formula_structural   Li8Y8Cu8Pd8CO
_chemical_formula_sum   'Li8 Y8 Cu8 Pd8 C1 O1'
_cell_volume   1703.88604108
_cell_formula_units_Z   1
loop_
 _symmetry_equiv_pos_site_id
 _symmetry_equiv_pos_as_xyz
  1  'x, y, z'
  2  'x, -y, z'
loop_
 _atom_site_type_symbol
 _atom_site_label
 _atom_site_symmetry_multiplicity
 _atom_site_fract_x
 _atom_site_fract_y
 _atom_site_fract_z
 _atom_site_occupancy
  Li  Li0  2  0.75000000  0.25000000  0.86934000  1.0
  Li  Li1  2  0.75643000  0.25089000  0.04726000  1.0
  Li  Li2  1  0.25000000  0.00000000  0.95645000  1.0
  Li  Li3  1  0.25000000  0.50000000  0.95645000  1.0
  Li  Li4  1  0.25037000  0.50000000  0.13294000  1.0
  Li  Li5  1  0.25163000  0.00000000  0.13263000  1.0
  Y  Y6  2  0.25000000  0.25000000  0.86934000  1.0
  Y  Y7  2  0.25342000  0.26536000  0.04228000  1.0
  Y  Y8  1  0.75000000  0.00000000  0.95645000  1.0
  Y  Y9  1  0.75000000  0.50000000  0.95645000  1.0
  Y  Y10  1  0.75614000  0.50000000  0.14109000  1.0
  Y  Y11  1  0.75708000  0.00000000  0.12719000  1.0
  Cu  Cu12  2  0.48042000  0.25173000  0.12981000  1.0
  Cu  Cu13  2  0.50000000  0.25000000  0.95645000  1.0
  Cu  Cu14  1  0.00000000  0.00000000  0.86934000  1.0
  Cu  Cu15  1  0.00000000  0.50000000  0.86934000  1.0
  Cu  Cu16  1  0.02679000  0.00000000  0.04197000  1.0
  Cu  Cu17  1  0.96674000  0.50000000  0.05120000  1.0
  Pd  Pd18  2  -0.00000000  0.25000000  0.95645000  1.0
  Pd  Pd19  2  0.01735000  0.25508000  0.12712000  1.0
  Pd  Pd20  1  0.48393000  0.00000000  0.04394000  1.0
  Pd  Pd21  1  0.50000000  0.00000000  0.86934000  1.0
  Pd  Pd22  1  0.50000000  0.50000000  0.86934000  1.0
  Pd  Pd23  1  0.53666000  0.50000000  0.05257000  1.0
  C  C24  1  0.73380000  0.00000000  0.22003000  1.0
  O  O25  1  0.73201000  0.00000000  0.26241000  1.0
