# generated using pymatgen
data_Li4Mg4In4Pd4CO
_symmetry_space_group_name_H-M   'P 1'
_cell_length_a   6.52273000
_cell_length_b   6.52273000
_cell_length_c   24.89210000
_cell_angle_alpha   90.00000000
_cell_angle_beta   90.00000000
_cell_angle_gamma   90.00000000
_symmetry_Int_Tables_number   1
_chemical_formula_structural   Li4Mg4In4Pd4CO
_chemical_formula_sum   'Li4 Mg4 In4 Pd4 C1 O1'
_cell_volume   1059.05945220
_cell_formula_units_Z   1
loop_
 _symmetry_equiv_pos_site_id
 _symmetry_equiv_pos_as_xyz
  1  'x, y, z'
loop_
 _atom_site_type_symbol
 _atom_site_label
 _atom_site_symmetry_multiplicity
 _atom_site_fract_x
 _atom_site_fract_y
 _atom_site_fract_z
 _atom_site_occupancy
  Li  Li0  1  0.24995000  0.75005000  0.03482000  1
  Li  Li1  1  0.75000500  0.75000500  0.90173000  1
  Li  Li2  1  0.24999500  0.24999500  0.90173000  1
  Li  Li3  1  0.75005000  0.24995000  0.03482000  1
  Mg  Mg4  1  1.00000000  0.50000000  0.09943000  1
  Mg  Mg5  1  0.50000000  0.50000000  0.96724000  1
  Mg  Mg6  1  1.00000000  0.00000000  0.96724000  1
  Mg  Mg7  1  0.50000000  0.00000000  0.09943000  1
  In  In8  1  0.50000000  0.50000000  0.09965000  1
  In  In9  1  1.00000000  0.50000000  0.96724000  1
  In  In10  1  0.50000000  0.00000000  0.96724000  1
  In  In11  1  1.00000000  0.00000000  0.10182000  1
  Pd  Pd12  1  0.24937500  0.24937500  0.03553000  1
  Pd  Pd13  1  0.75000500  0.24999500  0.90173000  1
  Pd  Pd14  1  0.24999500  0.75000500  0.90173000  1
  Pd  Pd15  1  0.75062500  0.75062500  0.03553000  1
  C  C16  1  0.50000000  0.50000000  0.19740000  1
  O  O17  1  0.50000000  0.50000000  0.24354000  1
