# generated using pymatgen
data_Sc8In8Ag8Pd8C
_symmetry_space_group_name_H-M   'P 1'
_cell_length_a   9.49324000
_cell_length_b   6.71273000
_cell_length_c   27.11990000
_cell_angle_alpha   90.00000000
_cell_angle_beta   90.00000000
_cell_angle_gamma   90.00000000
_symmetry_Int_Tables_number   1
_chemical_formula_structural   Sc8In8Ag8Pd8C
_chemical_formula_sum   'Sc8 In8 Ag8 Pd8 C1'
_cell_volume   1728.23073180
_cell_formula_units_Z   1
loop_
 _symmetry_equiv_pos_site_id
 _symmetry_equiv_pos_as_xyz
  1  'x, y, z'
loop_
 _atom_site_type_symbol
 _atom_site_label
 _atom_site_symmetry_multiplicity
 _atom_site_fract_x
 _atom_site_fract_y
 _atom_site_fract_z
 _atom_site_occupancy
  Sc  Sc0  1  0.75000000  0.75000000  0.04376000  1.0
  Sc  Sc1  1  0.25000000  0.75000000  0.04376000  1.0
  Sc  Sc2  1  0.00000000  0.25000000  0.13127000  1.0
  Sc  Sc3  1  0.50000000  0.25000000  0.13127000  1.0
  Sc  Sc4  1  0.25455000  0.72815000  0.87536000  1.0
  Sc  Sc5  1  0.74545000  0.72815000  0.87536000  1.0
  Sc  Sc6  1  0.50000000  0.27090000  0.94542000  1.0
  Sc  Sc7  1  0.00000000  0.27043000  0.94572000  1.0
  In  In8  1  0.75000000  0.25000000  0.04376000  1.0
  In  In9  1  0.25000000  0.25000000  0.04376000  1.0
  In  In10  1  0.00000000  0.75000000  0.13127000  1.0
  In  In11  1  0.50000000  0.75000000  0.13127000  1.0
  In  In12  1  0.24854000  0.23685000  0.86228000  1.0
  In  In13  1  0.75146000  0.23685000  0.86228000  1.0
  In  In14  1  0.50000000  0.74843000  0.95687000  1.0
  In  In15  1  0.00000000  0.75190000  0.95610000  1.0
  Ag  Ag16  1  0.75000000  0.00000000  0.13127000  1.0
  Ag  Ag17  1  0.25000000  0.00000000  0.13127000  1.0
  Ag  Ag18  1  0.50000000  0.50000000  0.04376000  1.0
  Ag  Ag19  1  0.00000000  0.50000000  0.04376000  1.0
  Ag  Ag20  1  0.25330000  0.01249000  0.95692000  1.0
  Ag  Ag21  1  0.74670000  0.01249000  0.95692000  1.0
  Ag  Ag22  1  0.00000000  0.52953000  0.83947000  1.0
  Ag  Ag23  1  0.50000000  0.48182000  0.84657000  1.0
  Pd  Pd24  1  0.00000000  0.00000000  0.04376000  1.0
  Pd  Pd25  1  0.50000000  0.00000000  0.04376000  1.0
  Pd  Pd26  1  0.25000000  0.50000000  0.13127000  1.0
  Pd  Pd27  1  0.75000000  0.50000000  0.13127000  1.0
  Pd  Pd28  1  0.50000000  0.98589000  0.87345000  1.0
  Pd  Pd29  1  0.00000000  0.92774000  0.86330000  1.0
  Pd  Pd30  1  0.74887000  0.50059000  0.95900000  1.0
  Pd  Pd31  1  0.25113000  0.50059000  0.95900000  1.0
  C  C32  1  0.00000000  0.22573000  0.86697000  1.0
