# generated using pymatgen
data_Li8Ge8Pd8Au8CO
_symmetry_space_group_name_H-M   Pm
_cell_length_a   6.30991000
_cell_length_b   8.92356000
_cell_length_c   26.69270000
_cell_angle_alpha   90.00000000
_cell_angle_beta   90.00000000
_cell_angle_gamma   90.00000000
_symmetry_Int_Tables_number   6
_chemical_formula_structural   Li8Ge8Pd8Au8CO
_chemical_formula_sum   'Li8 Ge8 Pd8 Au8 C1 O1'
_cell_volume   1502.98213472
_cell_formula_units_Z   1
loop_
 _symmetry_equiv_pos_site_id
 _symmetry_equiv_pos_as_xyz
  1  'x, y, z'
  2  'x, -y, z'
loop_
 _atom_site_type_symbol
 _atom_site_label
 _atom_site_symmetry_multiplicity
 _atom_site_fract_x
 _atom_site_fract_y
 _atom_site_fract_z
 _atom_site_occupancy
  Li  Li0  2  0.74688000  0.24725000  0.03881000  1.0
  Li  Li1  2  0.75000000  0.25000000  0.87463000  1.0
  Li  Li2  1  0.24762000  0.50000000  0.13265000  1.0
  Li  Li3  1  0.24767000  0.00000000  0.13621000  1.0
  Li  Li4  1  0.25000000  0.00000000  0.95821000  1.0
  Li  Li5  1  0.25000000  0.50000000  0.95821000  1.0
  Ge  Ge6  2  0.25000000  0.25000000  0.87463000  1.0
  Ge  Ge7  2  0.25354000  0.25085000  0.04336000  1.0
  Ge  Ge8  1  0.75000000  0.00000000  0.95821000  1.0
  Ge  Ge9  1  0.75000000  0.50000000  0.95821000  1.0
  Ge  Ge10  1  0.75973000  0.00000000  0.12874000  1.0
  Ge  Ge11  1  0.76698000  0.50000000  0.13338000  1.0
  Pd  Pd12  2  0.00000000  0.25000000  0.95821000  1.0
  Pd  Pd13  2  0.98640000  0.25208000  0.11801000  1.0
  Pd  Pd14  1  0.49112000  0.00000000  0.04894000  1.0
  Pd  Pd15  1  0.49944000  0.50000000  0.04404000  1.0
  Pd  Pd16  1  0.50000000  0.00000000  0.87463000  1.0
  Pd  Pd17  1  0.50000000  0.50000000  0.87463000  1.0
  Au  Au18  2  0.50000000  0.25000000  0.95821000  1.0
  Au  Au19  2  0.52076000  0.25602000  0.12349000  1.0
  Au  Au20  1  0.00000000  0.00000000  0.87463000  1.0
  Au  Au21  1  0.00000000  0.50000000  0.87463000  1.0
  Au  Au22  1  0.99051000  0.50000000  0.04386000  1.0
  Au  Au23  1  0.99862000  0.00000000  0.04426000  1.0
  C  C24  1  0.24576000  0.00000000  0.21628000  1.0
  O  O25  1  0.24256000  0.00000000  0.25887000  1.0
