# generated using pymatgen
data_Ti24Au8CO
_symmetry_space_group_name_H-M   'P 1'
_cell_length_a   8.18271000
_cell_length_b   8.18271000
_cell_length_c   26.13700000
_cell_angle_alpha   90.00000000
_cell_angle_beta   90.00000000
_cell_angle_gamma   90.00000000
_symmetry_Int_Tables_number   1
_chemical_formula_structural   Ti24Au8CO
_chemical_formula_sum   'Ti24 Au8 C1 O1'
_cell_volume   1750.04839033
_cell_formula_units_Z   1
loop_
 _symmetry_equiv_pos_site_id
 _symmetry_equiv_pos_as_xyz
  1  'x, y, z'
loop_
 _atom_site_type_symbol
 _atom_site_label
 _atom_site_symmetry_multiplicity
 _atom_site_fract_x
 _atom_site_fract_y
 _atom_site_fract_z
 _atom_site_occupancy
  Ti  Ti0  1  0.00000000  0.25000000  0.03913000  1.0
  Ti  Ti1  1  0.25000000  0.00000000  0.03913000  1.0
  Ti  Ti2  1  0.25000000  0.25000000  0.11740000  1.0
  Ti  Ti3  1  0.00000000  0.25000000  0.88260000  1.0
  Ti  Ti4  1  0.25000000  0.00000000  0.88260000  1.0
  Ti  Ti5  1  0.25000000  0.25000000  0.96087000  1.0
  Ti  Ti6  1  0.00000000  0.75000000  0.03913000  1.0
  Ti  Ti7  1  0.25000000  0.50000000  0.03913000  1.0
  Ti  Ti8  1  0.25000000  0.75000000  0.11740000  1.0
  Ti  Ti9  1  0.00000000  0.75000000  0.88260000  1.0
  Ti  Ti10  1  0.25000000  0.50000000  0.88260000  1.0
  Ti  Ti11  1  0.25000000  0.75000000  0.96087000  1.0
  Ti  Ti12  1  0.50000000  0.25000000  0.03913000  1.0
  Ti  Ti13  1  0.75000000  0.00000000  0.03913000  1.0
  Ti  Ti14  1  0.75000000  0.25000000  0.11740000  1.0
  Ti  Ti15  1  0.50000000  0.25000000  0.88260000  1.0
  Ti  Ti16  1  0.75000000  0.00000000  0.88260000  1.0
  Ti  Ti17  1  0.75000000  0.25000000  0.96087000  1.0
  Ti  Ti18  1  0.50000000  0.75000000  0.03913000  1.0
  Ti  Ti19  1  0.75000000  0.50000000  0.03913000  1.0
  Ti  Ti20  1  0.75000000  0.75000000  0.11740000  1.0
  Ti  Ti21  1  0.50000000  0.75000000  0.88260000  1.0
  Ti  Ti22  1  0.75000000  0.50000000  0.88260000  1.0
  Ti  Ti23  1  0.75000000  0.75000000  0.96087000  1.0
  Au  Au24  1  0.00000000  0.00000000  0.11740000  1.0
  Au  Au25  1  0.00000000  0.00000000  0.96087000  1.0
  Au  Au26  1  0.00000000  0.50000000  0.11740000  1.0
  Au  Au27  1  0.00000000  0.50000000  0.96087000  1.0
  Au  Au28  1  0.50000000  0.00000000  0.11740000  1.0
  Au  Au29  1  0.50000000  0.00000000  0.96087000  1.0
  Au  Au30  1  0.50000000  0.50000000  0.11740000  1.0
  Au  Au31  1  0.50000000  0.50000000  0.96087000  1.0
  C  C32  1  0.00000000  0.00000000  0.19009000  1.0
  O  O33  1  0.00000000  0.00000000  0.23409000  1.0
