# generated using pymatgen
data_Li8Al8Fe8Pd8CO
_symmetry_space_group_name_H-M   'P 1'
_cell_length_a   5.67696000
_cell_length_b   8.60712000
_cell_length_c   26.63180000
_cell_angle_alpha   90.00000000
_cell_angle_beta   90.00000000
_cell_angle_gamma   90.00000000
_symmetry_Int_Tables_number   1
_chemical_formula_structural   Li8Al8Fe8Pd8CO
_chemical_formula_sum   'Li8 Al8 Fe8 Pd8 C1 O1'
_cell_volume   1301.29036078
_cell_formula_units_Z   1
loop_
 _symmetry_equiv_pos_site_id
 _symmetry_equiv_pos_as_xyz
  1  'x, y, z'
loop_
 _atom_site_type_symbol
 _atom_site_label
 _atom_site_symmetry_multiplicity
 _atom_site_fract_x
 _atom_site_fract_y
 _atom_site_fract_z
 _atom_site_occupancy
  Li  Li0  1  0.00000000  0.25000000  0.95850000  1.0
  Li  Li1  1  0.99999000  0.24998000  0.13258000  1.0
  Li  Li2  1  0.00000000  0.75000000  0.95850000  1.0
  Li  Li3  1  0.99996000  0.74995000  0.14411000  1.0
  Li  Li4  1  0.50000000  0.25000000  0.95850000  1.0
  Li  Li5  1  0.50002000  0.25004000  0.14368000  1.0
  Li  Li6  1  0.50000000  0.75000000  0.95850000  1.0
  Li  Li7  1  0.50001000  0.74996000  0.13724000  1.0
  Al  Al8  1  0.00000000  0.00000000  0.87549000  1.0
  Al  Al9  1  0.00001000  0.01392000  0.03822000  1.0
  Al  Al10  1  0.00000000  0.50000000  0.87549000  1.0
  Al  Al11  1  0.99999000  0.48593000  0.03825000  1.0
  Al  Al12  1  0.50000000  0.00000000  0.87549000  1.0
  Al  Al13  1  0.49997000  0.98786000  0.03792000  1.0
  Al  Al14  1  0.50000000  0.50000000  0.87549000  1.0
  Al  Al15  1  0.49999000  0.51195000  0.03797000  1.0
  Fe  Fe16  1  0.25000000  0.25000000  0.87549000  1.0
  Fe  Fe17  1  0.28640000  0.24986000  0.04694000  1.0
  Fe  Fe18  1  0.25000000  0.75000000  0.87549000  1.0
  Fe  Fe19  1  0.22408000  0.75001000  0.04713000  1.0
  Fe  Fe20  1  0.75000000  0.25000000  0.87549000  1.0
  Fe  Fe21  1  0.71353000  0.24987000  0.04692000  1.0
  Fe  Fe22  1  0.75000000  0.75000000  0.87549000  1.0
  Fe  Fe23  1  0.77589000  0.75001000  0.04710000  1.0
  Pd  Pd24  1  0.25000000  0.00000000  0.95850000  1.0
  Pd  Pd25  1  0.25198000  0.99628000  0.11731000  1.0
  Pd  Pd26  1  0.25000000  0.50000000  0.95850000  1.0
  Pd  Pd27  1  0.25195000  0.50368000  0.11738000  1.0
  Pd  Pd28  1  0.75000000  0.00000000  0.95850000  1.0
  Pd  Pd29  1  0.74801000  0.99628000  0.11730000  1.0
  Pd  Pd30  1  0.75000000  0.50000000  0.95850000  1.0
  Pd  Pd31  1  0.74806000  0.50367000  0.11737000  1.0
  C  C32  1  0.00010000  0.25011000  0.21020000  1.0
  O  O33  1  0.00017000  0.25015000  0.25323000  1.0
