# generated using pymatgen
data_Li4Sc4Ga4Ge4CO
_symmetry_space_group_name_H-M   'P 1'
_cell_length_a   8.07712000
_cell_length_b   5.77599000
_cell_length_c   24.32640000
_cell_angle_alpha   90.00000000
_cell_angle_beta   90.00000000
_cell_angle_gamma   90.00000000
_symmetry_Int_Tables_number   1
_chemical_formula_structural   Li4Sc4Ga4Ge4CO
_chemical_formula_sum   'Li4 Sc4 Ga4 Ge4 C1 O1'
_cell_volume   1134.90840249
_cell_formula_units_Z   1
loop_
 _symmetry_equiv_pos_site_id
 _symmetry_equiv_pos_as_xyz
  1  'x, y, z'
loop_
 _atom_site_type_symbol
 _atom_site_label
 _atom_site_symmetry_multiplicity
 _atom_site_fract_x
 _atom_site_fract_y
 _atom_site_fract_z
 _atom_site_occupancy
  Li  Li0  1  0.00000000  0.23731000  0.02964000  1.0
  Li  Li1  1  0.00000000  0.64734000  0.88706000  1.0
  Li  Li2  1  0.50000000  0.23731000  0.02964000  1.0
  Li  Li3  1  0.50000000  0.65142000  0.89199000  1.0
  Sc  Sc4  1  0.74999000  0.50000000  0.08892000  1.0
  Sc  Sc5  1  0.75030000  0.92231000  0.96547000  1.0
  Sc  Sc6  1  0.25001000  0.50000000  0.08892000  1.0
  Sc  Sc7  1  0.24970000  0.92231000  0.96547000  1.0
  Ga  Ga8  1  0.74999000  0.00000000  0.08892000  1.0
  Ga  Ga9  1  0.75026000  0.42180000  0.94718000  1.0
  Ga  Ga10  1  0.25001000  0.00000000  0.08892000  1.0
  Ga  Ga11  1  0.24974000  0.42180000  0.94718000  1.0
  Ge  Ge12  1  0.00000000  0.73731000  0.02964000  1.0
  Ge  Ge13  1  0.00000000  0.16923000  0.91579000  1.0
  Ge  Ge14  1  0.50000000  0.73731000  0.02964000  1.0
  Ge  Ge15  1  0.50000000  0.16786000  0.91509000  1.0
  C  C16  1  0.00000000  0.68834000  0.80032000  1.0
  O  O17  1  0.00000000  0.71968000  0.75414000  1.0
