# generated using pymatgen
data_Li4Sc4Ga4Ge4CO
_symmetry_space_group_name_H-M   Pm
_cell_length_a   5.77599000
_cell_length_b   8.07712000
_cell_length_c   24.32640000
_cell_angle_alpha   90.00000000
_cell_angle_beta   90.00000000
_cell_angle_gamma   90.00000000
_symmetry_Int_Tables_number   6
_chemical_formula_structural   Li4Sc4Ga4Ge4CO
_chemical_formula_sum   'Li4 Sc4 Ga4 Ge4 C1 O1'
_cell_volume   1134.90840249
_cell_formula_units_Z   1
loop_
 _symmetry_equiv_pos_site_id
 _symmetry_equiv_pos_as_xyz
  1  'x, y, z'
  2  'x, -y, z'
loop_
 _atom_site_type_symbol
 _atom_site_label
 _atom_site_symmetry_multiplicity
 _atom_site_fract_x
 _atom_site_fract_y
 _atom_site_fract_z
 _atom_site_occupancy
  Li  Li0  1  0.23731000  0.00000000  0.97036000  1.0
  Li  Li1  1  0.23731000  0.50000000  0.97036000  1.0
  Li  Li2  1  0.64734000  0.00000000  0.11294000  1.0
  Li  Li3  1  0.65142000  0.50000000  0.10801000  1.0
  Sc  Sc4  2  0.50000000  0.25001000  0.91108000  1.0
  Sc  Sc5  2  0.92231000  0.24970000  0.03453000  1.0
  Ga  Ga6  2  0.00000000  0.25001000  0.91108000  1.0
  Ga  Ga7  2  0.42180000  0.24974000  0.05282000  1.0
  Ge  Ge8  1  0.16786000  0.50000000  0.08491000  1.0
  Ge  Ge9  1  0.16923000  0.00000000  0.08421000  1.0
  Ge  Ge10  1  0.73731000  0.00000000  0.97036000  1.0
  Ge  Ge11  1  0.73731000  0.50000000  0.97036000  1.0
  C  C12  1  0.68834000  0.00000000  0.19968000  1.0
  O  O13  1  0.71968000  0.00000000  0.24586000  1.0
