# generated using pymatgen
data_Ti8Ga8Fe16C
_symmetry_space_group_name_H-M   'P 1'
_cell_length_a   5.88011000
_cell_length_b   8.31574000
_cell_length_c   26.23680000
_cell_angle_alpha   90.00000000
_cell_angle_beta   90.00000000
_cell_angle_gamma   90.00000000
_symmetry_Int_Tables_number   1
_chemical_formula_structural   Ti8Ga8Fe16C
_chemical_formula_sum   'Ti8 Ga8 Fe16 C1'
_cell_volume   1282.91303415
_cell_formula_units_Z   1
loop_
 _symmetry_equiv_pos_site_id
 _symmetry_equiv_pos_as_xyz
  1  'x, y, z'
loop_
 _atom_site_type_symbol
 _atom_site_label
 _atom_site_symmetry_multiplicity
 _atom_site_fract_x
 _atom_site_fract_y
 _atom_site_fract_z
 _atom_site_occupancy
  Ti  Ti0  1  0.00000000  0.00000000  0.88114000  1.0
  Ti  Ti1  1  0.50000000  0.25000000  0.96038000  1.0
  Ti  Ti2  1  0.50000000  0.75000000  0.96038000  1.0
  Ti  Ti3  1  0.00000000  0.50000000  0.88114000  1.0
  Ti  Ti4  1  0.00540000  0.50146000  0.03516000  1.0
  Ti  Ti5  1  0.48705000  0.75012000  0.12174000  1.0
  Ti  Ti6  1  0.54794000  0.24986000  0.10869000  1.0
  Ti  Ti7  1  0.00541000  0.99856000  0.03514000  1.0
  Ga  Ga8  1  0.00000000  0.75000000  0.96038000  1.0
  Ga  Ga9  1  0.50000000  0.00000000  0.88114000  1.0
  Ga  Ga10  1  0.00000000  0.25000000  0.96038000  1.0
  Ga  Ga11  1  0.50000000  0.50000000  0.88114000  1.0
  Ga  Ga12  1  0.93028000  0.25011000  0.14318000  1.0
  Ga  Ga13  1  0.50119000  0.50114000  0.03818000  1.0
  Ga  Ga14  1  0.02099000  0.74996000  0.12725000  1.0
  Ga  Ga15  1  0.50126000  0.99883000  0.03823000  1.0
  Fe  Fe16  1  0.25000000  0.00000000  0.96038000  1.0
  Fe  Fe17  1  0.75000000  0.50000000  0.96038000  1.0
  Fe  Fe18  1  0.75000000  0.00000000  0.96038000  1.0
  Fe  Fe19  1  0.25000000  0.50000000  0.96038000  1.0
  Fe  Fe20  1  0.75000000  0.75000000  0.88114000  1.0
  Fe  Fe21  1  0.25000000  0.25000000  0.88114000  1.0
  Fe  Fe22  1  0.25000000  0.75000000  0.88114000  1.0
  Fe  Fe23  1  0.75000000  0.25000000  0.88114000  1.0
  Fe  Fe24  1  0.22691000  0.47591000  0.11687000  1.0
  Fe  Fe25  1  0.76927000  0.98280000  0.11235000  1.0
  Fe  Fe26  1  0.76876000  0.51722000  0.11236000  1.0
  Fe  Fe27  1  0.22644000  0.02411000  0.11687000  1.0
  Fe  Fe28  1  0.76055000  0.25001000  0.03675000  1.0
  Fe  Fe29  1  0.25067000  0.75000000  0.04400000  1.0
  Fe  Fe30  1  0.24443000  0.25001000  0.04310000  1.0
  Fe  Fe31  1  0.75017000  0.75000000  0.04314000  1.0
  C  C32  1  0.24953000  0.25001000  0.13859000  1.0
