data_image0
_chemical_formula_structural       LiBeLiBeLiBeLiBeLiBeLiBeLiBeLiBeC
_chemical_formula_sum              "Li8 Be8 C1"
_cell_length_a       5.62306
_cell_length_b       5.62306
_cell_length_c       24.2173
_cell_angle_alpha    90
_cell_angle_beta     90
_cell_angle_gamma    90

_space_group_name_H-M_alt    "P 1"
_space_group_IT_number       1

loop_
  _space_group_symop_operation_xyz
  'x, y, z'

loop_
  _atom_site_type_symbol
  _atom_site_label
  _atom_site_symmetry_multiplicity
  _atom_site_fract_x
  _atom_site_fract_y
  _atom_site_fract_z
  _atom_site_occupancy
  Li  Li1       1.0  0.00000  0.00000  0.90916  1.0000
  Be  Be1       1.0  0.25000  0.25000  0.96721  1.0000
  Li  Li2       1.0  0.00000  0.00000  0.02525  1.0000
  Be  Be2       1.0  0.25000  0.25000  0.08330  1.0000
  Li  Li3       1.0  0.00000  0.50000  0.90916  1.0000
  Be  Be3       1.0  0.25000  0.75000  0.96721  1.0000
  Li  Li4       1.0  0.00000  0.50000  0.02525  1.0000
  Be  Be4       1.0  0.25000  0.75000  0.08330  1.0000
  Li  Li5       1.0  0.50000  0.00000  0.90916  1.0000
  Be  Be5       1.0  0.75000  0.25000  0.96721  1.0000
  Li  Li6       1.0  0.50000  0.00000  0.02525  1.0000
  Be  Be6       1.0  0.75000  0.25000  0.08330  1.0000
  Li  Li7       1.0  0.50000  0.50000  0.90916  1.0000
  Be  Be7       1.0  0.75000  0.75000  0.96721  1.0000
  Li  Li8       1.0  0.50000  0.50000  0.02525  1.0000
  Be  Be8       1.0  0.75000  0.75000  0.08330  1.0000
  C   C1        1.0  0.00000  0.00000  0.11634  1.0000
