# generated using pymatgen
data_Li2AlPd
_symmetry_space_group_name_H-M   'P 1'
_cell_length_a   6.13337000
_cell_length_b   6.13337000
_cell_length_c   24.60000000
_cell_angle_alpha   90.00000000
_cell_angle_beta   90.00000000
_cell_angle_gamma   90.00000000
_symmetry_Int_Tables_number   1
_chemical_formula_structural   Li2AlPd
_chemical_formula_sum   'Li8 Al4 Pd4'
_cell_volume   925.40839790
_cell_formula_units_Z   4
loop_
 _symmetry_equiv_pos_site_id
 _symmetry_equiv_pos_as_xyz
  1  'x, y, z'
loop_
 _atom_site_type_symbol
 _atom_site_label
 _atom_site_symmetry_multiplicity
 _atom_site_fract_x
 _atom_site_fract_y
 _atom_site_fract_z
 _atom_site_occupancy
  Li  Li0  1  0.00000000  0.00000000  0.03230000  1
  Li  Li1  1  0.00000000  0.50000000  0.90650000  1
  Li  Li2  1  0.50000000  0.00000000  0.90650000  1
  Li  Li3  1  0.50000000  0.50000000  0.03251000  1
  Li  Li4  1  0.75000000  0.25000000  0.96883000  1
  Li  Li5  1  0.25124000  0.25124000  0.10850000  1
  Li  Li6  1  0.25000000  0.75000000  0.96883000  1
  Li  Li7  1  0.74876000  0.74876000  0.10850000  1
  Al  Al8  1  0.00000000  0.00000000  0.90650000  1
  Al  Al9  1  0.50000000  0.50000000  0.90650000  1
  Al  Al10  1  0.00000000  0.50000000  0.03219000  1
  Al  Al11  1  0.50000000  0.00000000  0.03219000  1
  Pd  Pd12  1  0.74947000  0.25053000  0.08611000  1
  Pd  Pd13  1  0.25000000  0.25000000  0.96883000  1
  Pd  Pd14  1  0.25053000  0.74947000  0.08611000  1
  Pd  Pd15  1  0.75000000  0.75000000  0.96883000  1
