# generated using pymatgen
data_LiMgInGe
_symmetry_space_group_name_H-M   'P 1'
_cell_length_a   8.40992000
_cell_length_b   8.75068000
_cell_length_c   26.31390000
_cell_angle_alpha   90.00000000
_cell_angle_beta   90.00000000
_cell_angle_gamma   90.00000000
_symmetry_Int_Tables_number   1
_chemical_formula_structural   LiMgInGe
_chemical_formula_sum   'Li8 Mg8 In8 Ge8'
_cell_volume   1936.50617902
_cell_formula_units_Z   8
loop_
 _symmetry_equiv_pos_site_id
 _symmetry_equiv_pos_as_xyz
  1  'x, y, z'
loop_
 _atom_site_type_symbol
 _atom_site_label
 _atom_site_symmetry_multiplicity
 _atom_site_fract_x
 _atom_site_fract_y
 _atom_site_fract_z
 _atom_site_occupancy
  Li  Li0  1  0.25000000  0.25000000  0.88003000  1.0
  Li  Li1  1  0.25004000  0.25020000  0.04125000  1.0
  Li  Li2  1  0.25000000  0.75000000  0.88003000  1.0
  Li  Li3  1  0.25002000  0.74978000  0.04126000  1.0
  Li  Li4  1  0.75000000  0.25000000  0.88003000  1.0
  Li  Li5  1  0.74999000  0.25018000  0.04125000  1.0
  Li  Li6  1  0.75000000  0.75000000  0.88003000  1.0
  Li  Li7  1  0.75002000  0.74985000  0.04128000  1.0
  Mg  Mg8  1  0.25000000  0.00000000  0.96001000  1.0
  Mg  Mg9  1  0.25004000  0.99997000  0.11791000  1.0
  Mg  Mg10  1  0.25000000  0.50000000  0.96001000  1.0
  Mg  Mg11  1  0.24998000  0.50004000  0.11837000  1.0
  Mg  Mg12  1  0.75000000  0.00000000  0.96001000  1.0
  Mg  Mg13  1  0.74973000  0.00021000  0.11787000  1.0
  Mg  Mg14  1  0.75000000  0.50000000  0.96001000  1.0
  Mg  Mg15  1  0.74999000  0.49998000  0.11819000  1.0
  In  In16  1  0.00000000  0.25000000  0.96001000  1.0
  In  In17  1  0.00014000  0.25014000  0.13294000  1.0
  In  In18  1  0.00000000  0.75000000  0.96001000  1.0
  In  In19  1  0.00010000  0.74991000  0.13306000  1.0
  In  In20  1  0.50000000  0.25000000  0.96001000  1.0
  In  In21  1  0.49985000  0.25011000  0.13296000  1.0
  In  In22  1  0.50000000  0.75000000  0.96001000  1.0
  In  In23  1  0.49990000  0.74994000  0.13308000  1.0
  Ge  Ge24  1  0.00000000  0.00000000  0.88003000  1.0
  Ge  Ge25  1  0.99991000  0.99999000  0.04438000  1.0
  Ge  Ge26  1  0.00000000  0.50000000  0.88003000  1.0
  Ge  Ge27  1  0.00002000  0.50000000  0.04440000  1.0
  Ge  Ge28  1  0.50000000  0.00000000  0.88003000  1.0
  Ge  Ge29  1  0.50005000  0.99993000  0.04433000  1.0
  Ge  Ge30  1  0.50000000  0.50000000  0.88003000  1.0
  Ge  Ge31  1  0.49999000  0.50025000  0.04442000  1.0
