data_image0
_chemical_formula_structural       Li4Sc4In4Pd4CO
_chemical_formula_sum              "Li4 Sc4 In4 Pd4 C1 O1"
_cell_length_a       6.59012
_cell_length_b       6.59012
_cell_length_c       24.9426
_cell_angle_alpha    90
_cell_angle_beta     90
_cell_angle_gamma    90

_space_group_name_H-M_alt    "P 1"
_space_group_IT_number       1

loop_
  _space_group_symop_operation_xyz
  'x, y, z'

loop_
  _atom_site_type_symbol
  _atom_site_label
  _atom_site_symmetry_multiplicity
  _atom_site_fract_x
  _atom_site_fract_y
  _atom_site_fract_z
  _atom_site_occupancy
  Li  Li1       1.0  0.75000  0.25000  0.96697  1.0000
  Li  Li2       1.0  0.74997  0.75003  0.12053  1.0000
  Li  Li3       1.0  0.24999  0.25001  0.12053  1.0000
  Li  Li4       1.0  0.25000  0.75000  0.96697  1.0000
  Sc  Sc1       1.0  0.00000  0.50000  0.90092  1.0000
  Sc  Sc2       1.0  0.00002  0.99999  0.03362  1.0000
  Sc  Sc3       1.0  0.49998  0.50000  0.03363  1.0000
  Sc  Sc4       1.0  0.50000  0.00000  0.90092  1.0000
  In  In1       1.0  0.00000  0.00000  0.90092  1.0000
  In  In2       1.0  0.99449  0.49451  0.03501  1.0000
  In  In3       1.0  0.50551  0.00550  0.03500  1.0000
  In  In4       1.0  0.50000  0.50000  0.90092  1.0000
  Pd  Pd1       1.0  0.25000  0.25000  0.96697  1.0000
  Pd  Pd2       1.0  0.25000  0.75001  0.09211  1.0000
  Pd  Pd3       1.0  0.75002  0.24998  0.10115  1.0000
  Pd  Pd4       1.0  0.75000  0.75000  0.96697  1.0000
  C   C1        1.0  0.75008  0.24990  0.17970  1.0000
  O   O1        1.0  0.75000  0.24998  0.22623  1.0000
