# generated using pymatgen
data_Zn8Ni8CO
_symmetry_space_group_name_H-M   'P 1'
_cell_length_a   5.37112000
_cell_length_b   5.37112000
_cell_length_c   25.02220000
_cell_angle_alpha   90.00000000
_cell_angle_beta   90.00000000
_cell_angle_gamma   90.00000000
_symmetry_Int_Tables_number   1
_chemical_formula_structural   Zn8Ni8CO
_chemical_formula_sum   'Zn8 Ni8 C1 O1'
_cell_volume   721.86369761
_cell_formula_units_Z   1
loop_
 _symmetry_equiv_pos_site_id
 _symmetry_equiv_pos_as_xyz
  1  'x, y, z'
loop_
 _atom_site_type_symbol
 _atom_site_label
 _atom_site_symmetry_multiplicity
 _atom_site_fract_x
 _atom_site_fract_y
 _atom_site_fract_z
 _atom_site_occupancy
  Zn  Zn0  1  0.25000000  0.25000000  0.96475000  1.0
  Zn  Zn1  1  0.25000000  0.24999000  0.10250000  1.0
  Zn  Zn2  1  0.25000000  0.75000000  0.96475000  1.0
  Zn  Zn3  1  0.24991000  0.75003000  0.09705000  1.0
  Zn  Zn4  1  0.75000000  0.25000000  0.96475000  1.0
  Zn  Zn5  1  0.75003000  0.24994000  0.09707000  1.0
  Zn  Zn6  1  0.75000000  0.75000000  0.96475000  1.0
  Zn  Zn7  1  0.75006000  0.75004000  0.09735000  1.0
  Ni  Ni8  1  0.00000000  0.00000000  0.89784000  1.0
  Ni  Ni9  1  0.00337000  0.00344000  0.03397000  1.0
  Ni  Ni10  1  0.00000000  0.50000000  0.89784000  1.0
  Ni  Ni11  1  0.00337000  0.49652000  0.03398000  1.0
  Ni  Ni12  1  0.50000000  0.00000000  0.89784000  1.0
  Ni  Ni13  1  0.49664000  0.00341000  0.03398000  1.0
  Ni  Ni14  1  0.50000000  0.50000000  0.89784000  1.0
  Ni  Ni15  1  0.49663000  0.49654000  0.03400000  1.0
  C  C16  1  0.25000000  0.25001000  0.18550000  1.0
  O  O17  1  0.25000000  0.25001000  0.23141000  1.0
