data_image0
_chemical_formula_structural       Na8Bi8C
_chemical_formula_sum              "Na8 Bi8 C1"
_cell_length_a       6.99788
_cell_length_b       6.99788
_cell_length_c       27.3389
_cell_angle_alpha    90
_cell_angle_beta     90
_cell_angle_gamma    90

_space_group_name_H-M_alt    "P 1"
_space_group_IT_number       1

loop_
  _space_group_symop_operation_xyz
  'x, y, z'

loop_
  _atom_site_type_symbol
  _atom_site_label
  _atom_site_symmetry_multiplicity
  _atom_site_fract_x
  _atom_site_fract_y
  _atom_site_fract_z
  _atom_site_occupancy
  Na  Na1       1.0  0.25000  0.25000  0.99113  1.0000
  Na  Na2       1.0  0.24691  0.24678  0.16857  1.0000
  Na  Na3       1.0  0.25000  0.75000  0.99113  1.0000
  Na  Na4       1.0  0.24689  0.75328  0.16855  1.0000
  Na  Na5       1.0  0.75000  0.25000  0.99113  1.0000
  Na  Na6       1.0  0.75322  0.24673  0.16868  1.0000
  Na  Na7       1.0  0.75000  0.75000  0.99113  1.0000
  Na  Na8       1.0  0.75324  0.75333  0.16866  1.0000
  Bi  Bi1       1.0  0.00000  0.00000  0.90165  1.0000
  Bi  Bi2       1.0  0.00000  0.00002  0.08419  1.0000
  Bi  Bi3       1.0  0.00000  0.50000  0.90165  1.0000
  Bi  Bi4       1.0  0.99746  0.49933  0.08093  1.0000
  Bi  Bi5       1.0  0.50000  0.00000  0.90165  1.0000
  Bi  Bi6       1.0  0.50118  0.00006  0.08117  1.0000
  Bi  Bi7       1.0  0.50000  0.50000  0.90165  1.0000
  Bi  Bi8       1.0  0.50054  0.49996  0.08879  1.0000
  C   C1        1.0  0.00005  0.00003  0.16554  1.0000
