# generated using pymatgen
data_Na8Bi8C
_symmetry_space_group_name_H-M   P1
_cell_length_a   6.99788000
_cell_length_b   6.99788000
_cell_length_c   27.33890000
_cell_angle_alpha   90.00000000
_cell_angle_beta   90.00000000
_cell_angle_gamma   90.00000000
_symmetry_Int_Tables_number   1
_chemical_formula_structural   Na8Bi8C
_chemical_formula_sum   'Na8 Bi8 C1'
_cell_volume   1338.79480432
_cell_formula_units_Z   1
loop_
 _symmetry_equiv_pos_site_id
 _symmetry_equiv_pos_as_xyz
  1  'x, y, z'
loop_
 _atom_site_type_symbol
 _atom_site_label
 _atom_site_symmetry_multiplicity
 _atom_site_fract_x
 _atom_site_fract_y
 _atom_site_fract_z
 _atom_site_occupancy
  Na  Na0  1  0.24689000  0.75328000  0.16855000  1.0
  Na  Na1  1  0.24691000  0.24678000  0.16857000  1.0
  Na  Na2  1  0.25000000  0.25000000  0.99113000  1.0
  Na  Na3  1  0.25000000  0.75000000  0.99113000  1.0
  Na  Na4  1  0.75000000  0.25000000  0.99113000  1.0
  Na  Na5  1  0.75000000  0.75000000  0.99113000  1.0
  Na  Na6  1  0.75322000  0.24673000  0.16868000  1.0
  Na  Na7  1  0.75324000  0.75333000  0.16866000  1.0
  Bi  Bi8  1  0.00000000  0.00000000  0.90165000  1.0
  Bi  Bi9  1  0.00000000  0.00002000  0.08419000  1.0
  Bi  Bi10  1  0.00000000  0.50000000  0.90165000  1.0
  Bi  Bi11  1  0.50000000  0.00000000  0.90165000  1.0
  Bi  Bi12  1  0.50000000  0.50000000  0.90165000  1.0
  Bi  Bi13  1  0.50054000  0.49996000  0.08879000  1.0
  Bi  Bi14  1  0.50118000  0.00006000  0.08117000  1.0
  Bi  Bi15  1  0.99746000  0.49933000  0.08093000  1.0
  C  C16  1  0.00005000  0.00003000  0.16554000  1.0
