# generated using pymatgen
data_Sc16Ag16C
_symmetry_space_group_name_H-M   P1
_cell_length_a   6.93038000
_cell_length_b   9.80104000
_cell_length_c   27.35080000
_cell_angle_alpha   90.00000000
_cell_angle_beta   90.00000000
_cell_angle_gamma   90.00000000
_symmetry_Int_Tables_number   1
_chemical_formula_structural   Sc16Ag16C
_chemical_formula_sum   'Sc16 Ag16 C1'
_cell_volume   1857.80121907
_cell_formula_units_Z   1
loop_
 _symmetry_equiv_pos_site_id
 _symmetry_equiv_pos_as_xyz
  1  'x, y, z'
loop_
 _atom_site_type_symbol
 _atom_site_label
 _atom_site_symmetry_multiplicity
 _atom_site_fract_x
 _atom_site_fract_y
 _atom_site_fract_z
 _atom_site_occupancy
  Sc  Sc0  1  0.24538000  0.50002000  0.13187000  1.0
  Sc  Sc1  1  0.25000000  0.00000000  0.95521000  1.0
  Sc  Sc2  1  0.25000000  0.25000000  0.86562000  1.0
  Sc  Sc3  1  0.25000000  0.50000000  0.95521000  1.0
  Sc  Sc4  1  0.25000000  0.75000000  0.86562000  1.0
  Sc  Sc5  1  0.25451000  0.74891000  0.04452000  1.0
  Sc  Sc6  1  0.25505000  0.25107000  0.04454000  1.0
  Sc  Sc7  1  0.28285000  0.00014000  0.13885000  1.0
  Sc  Sc8  1  0.71718000  0.99987000  0.13883000  1.0
  Sc  Sc9  1  0.74483000  0.25113000  0.04448000  1.0
  Sc  Sc10  1  0.74532000  0.74905000  0.04455000  1.0
  Sc  Sc11  1  0.75000000  0.00000000  0.95521000  1.0
  Sc  Sc12  1  0.75000000  0.25000000  0.86562000  1.0
  Sc  Sc13  1  0.75000000  0.50000000  0.95521000  1.0
  Sc  Sc14  1  0.75000000  0.75000000  0.86562000  1.0
  Sc  Sc15  1  0.75469000  0.50013000  0.13186000  1.0
  Ag  Ag16  1  -0.00000000  0.25000000  0.95521000  1.0
  Ag  Ag17  1  -0.00000000  0.75000000  0.95521000  1.0
  Ag  Ag18  1  -0.00000000  0.50000000  0.86562000  1.0
  Ag  Ag19  1  0.00000000  0.00000000  0.86562000  1.0
  Ag  Ag20  1  0.00022000  0.50054000  0.04204000  1.0
  Ag  Ag21  1  0.49991000  0.73825000  0.13011000  1.0
  Ag  Ag22  1  0.49996000  0.00031000  0.04380000  1.0
  Ag  Ag23  1  0.50000000  0.00000000  0.86562000  1.0
  Ag  Ag24  1  0.50000000  0.25000000  0.95521000  1.0
  Ag  Ag25  1  0.50000000  0.50000000  0.86562000  1.0
  Ag  Ag26  1  0.50000000  0.75000000  0.95521000  1.0
  Ag  Ag27  1  0.50007000  0.50010000  0.04672000  1.0
  Ag  Ag28  1  0.50010000  0.26166000  0.12986000  1.0
  Ag  Ag29  1  0.99999000  0.24869000  0.13153000  1.0
  Ag  Ag30  1  0.99999000  0.75129000  0.13146000  1.0
  Ag  Ag31  1  0.99999000  0.99948000  0.04148000  1.0
  C  C32  1  0.00001000  0.00014000  0.12629000  1.0
