# generated using pymatgen
data_YScInPd
_symmetry_space_group_name_H-M   'P 1'
_cell_length_a   6.06590000
_cell_length_b   5.05765000
_cell_length_c   24.38870000
_cell_angle_alpha   90.00000000
_cell_angle_beta   90.00000000
_cell_angle_gamma   90.00000000
_symmetry_Int_Tables_number   1
_chemical_formula_structural   YScInPd
_chemical_formula_sum   'Y2 Sc2 In2 Pd2'
_cell_volume   748.22578394
_cell_formula_units_Z   2
loop_
 _symmetry_equiv_pos_site_id
 _symmetry_equiv_pos_as_xyz
  1  'x, y, z'
loop_
 _atom_site_type_symbol
 _atom_site_label
 _atom_site_symmetry_multiplicity
 _atom_site_fract_x
 _atom_site_fract_y
 _atom_site_fract_z
 _atom_site_occupancy
  Y  Y0  1  0.14942500  0.00000000  0.97037500  1.0
  Y  Y1  1  0.55242000  0.00000000  0.08997000  1.0
  Sc  Sc2  1  0.61782000  0.50000000  0.91971000  1.0
  Sc  Sc3  1  0.86828000  0.50000000  0.02999000  1.0
  In  In4  1  0.11975000  0.50000000  0.89449000  1.0
  In  In5  1  0.36828000  0.50000000  0.02999000  1.0
  Pd  Pd6  1  0.64836000  0.00000000  0.98162000  1.0
  Pd  Pd7  1  0.05242000  0.00000000  0.08997000  1.0
