# generated using pymatgen
data_Li16Pd16C
_symmetry_space_group_name_H-M   Pmm2
_cell_length_a   6.06651000
_cell_length_b   8.57934000
_cell_length_c   26.43450000
_cell_angle_alpha   90.00000000
_cell_angle_beta   90.00000000
_cell_angle_gamma   90.00000000
_symmetry_Int_Tables_number   25
_chemical_formula_structural   Li16Pd16C
_chemical_formula_sum   'Li16 Pd16 C1'
_cell_volume   1375.82721974
_cell_formula_units_Z   1
loop_
 _symmetry_equiv_pos_site_id
 _symmetry_equiv_pos_as_xyz
  1  'x, y, z'
  2  '-x, -y, z'
  3  '-x, y, z'
  4  'x, -y, z'
loop_
 _atom_site_type_symbol
 _atom_site_label
 _atom_site_symmetry_multiplicity
 _atom_site_fract_x
 _atom_site_fract_y
 _atom_site_fract_z
 _atom_site_occupancy
  Li  Li0  2  0.00000000  0.25000000  0.95943000  1.0
  Li  Li1  2  0.00000000  0.25393000  0.13307000  1.0
  Li  Li2  2  0.50000000  0.25000000  0.95943000  1.0
  Li  Li3  2  0.50000000  0.25949000  0.13130000  1.0
  Li  Li4  1  0.00000000  0.00000000  0.03858000  1.0
  Li  Li5  1  0.00000000  0.00000000  0.87829000  1.0
  Li  Li6  1  0.00000000  0.50000000  0.03896000  1.0
  Li  Li7  1  0.00000000  0.50000000  0.87829000  1.0
  Li  Li8  1  0.50000000  0.00000000  0.03418000  1.0
  Li  Li9  1  0.50000000  0.00000000  0.87829000  1.0
  Li  Li10  1  0.50000000  0.50000000  0.03891000  1.0
  Li  Li11  1  0.50000000  0.50000000  0.87829000  1.0
  Pd  Pd12  4  0.25000000  0.25000000  0.87829000  1.0
  Pd  Pd13  4  0.25123000  0.24707000  0.04306000  1.0
  Pd  Pd14  2  0.24709000  0.50000000  0.11620000  1.0
  Pd  Pd15  2  0.25000000  0.00000000  0.95943000  1.0
  Pd  Pd16  2  0.25000000  0.50000000  0.95943000  1.0
  Pd  Pd17  2  0.26207000  0.00000000  0.11729000  1.0
  C  C18  1  0.00000000  0.00000000  0.15504000  1.0
