# generated using pymatgen
data_NbAlNi2
_symmetry_space_group_name_H-M   'P 1'
_cell_length_a   6.00915000
_cell_length_b   8.49821000
_cell_length_c   26.37370000
_cell_angle_alpha   90.00000000
_cell_angle_beta   90.00000000
_cell_angle_gamma   90.00000000
_symmetry_Int_Tables_number   1
_chemical_formula_structural   NbAlNi2
_chemical_formula_sum   'Nb8 Al8 Ni16'
_cell_volume   1346.82622902
_cell_formula_units_Z   8
loop_
 _symmetry_equiv_pos_site_id
 _symmetry_equiv_pos_as_xyz
  1  'x, y, z'
loop_
 _atom_site_type_symbol
 _atom_site_label
 _atom_site_symmetry_multiplicity
 _atom_site_fract_x
 _atom_site_fract_y
 _atom_site_fract_z
 _atom_site_occupancy
  Nb  Nb0  1  0.00000000  0.00000000  0.87917000  1.0
  Nb  Nb1  1  0.50000000  0.25000000  0.95972000  1.0
  Nb  Nb2  1  0.50000000  0.75000000  0.95972000  1.0
  Nb  Nb3  1  0.00000000  0.50000000  0.87917000  1.0
  Nb  Nb4  1  0.00000000  0.50000000  0.03945000  1.0
  Nb  Nb5  1  0.50000000  0.75001000  0.12223000  1.0
  Nb  Nb6  1  0.50000000  0.24999000  0.12223000  1.0
  Nb  Nb7  1  0.00000000  0.00000000  0.03944000  1.0
  Al  Al8  1  0.00000000  0.75000000  0.95972000  1.0
  Al  Al9  1  0.50000000  0.00000000  0.87917000  1.0
  Al  Al10  1  0.00000000  0.25000000  0.95972000  1.0
  Al  Al11  1  0.50000000  0.50000000  0.87917000  1.0
  Al  Al12  1  0.00000000  0.25000000  0.12022000  1.0
  Al  Al13  1  0.50000000  0.50000000  0.04006000  1.0
  Al  Al14  1  0.00000000  0.75000000  0.12022000  1.0
  Al  Al15  1  0.50000000  0.00000000  0.04005000  1.0
  Ni  Ni16  1  0.25000000  0.00000000  0.95972000  1.0
  Ni  Ni17  1  0.75000000  0.50000000  0.95972000  1.0
  Ni  Ni18  1  0.75000000  0.00000000  0.95972000  1.0
  Ni  Ni19  1  0.25000000  0.50000000  0.95972000  1.0
  Ni  Ni20  1  0.75000000  0.75000000  0.87917000  1.0
  Ni  Ni21  1  0.25000000  0.25000000  0.87917000  1.0
  Ni  Ni22  1  0.25000000  0.75000000  0.87917000  1.0
  Ni  Ni23  1  0.75000000  0.25000000  0.87917000  1.0
  Ni  Ni24  1  0.25164000  0.50000000  0.11591000  1.0
  Ni  Ni25  1  0.74833000  0.00000000  0.11592000  1.0
  Ni  Ni26  1  0.74836000  0.50000000  0.11591000  1.0
  Ni  Ni27  1  0.25167000  0.00000000  0.11592000  1.0
  Ni  Ni28  1  0.74069000  0.25006000  0.04327000  1.0
  Ni  Ni29  1  0.25931000  0.74994000  0.04327000  1.0
  Ni  Ni30  1  0.25931000  0.25006000  0.04327000  1.0
  Ni  Ni31  1  0.74069000  0.74994000  0.04327000  1.0
