# generated using pymatgen
data_NbAlNi2
_symmetry_space_group_name_H-M   Pmm2
_cell_length_a   6.00915000
_cell_length_b   8.49821000
_cell_length_c   26.37370000
_cell_angle_alpha   90.00000000
_cell_angle_beta   90.00000000
_cell_angle_gamma   90.00000000
_symmetry_Int_Tables_number   25
_chemical_formula_structural   NbAlNi2
_chemical_formula_sum   'Nb8 Al8 Ni16'
_cell_volume   1346.82622902
_cell_formula_units_Z   8
loop_
 _symmetry_equiv_pos_site_id
 _symmetry_equiv_pos_as_xyz
  1  'x, y, z'
  2  '-x, -y, z'
  3  '-x, y, z'
  4  'x, -y, z'
loop_
 _atom_site_type_symbol
 _atom_site_label
 _atom_site_symmetry_multiplicity
 _atom_site_fract_x
 _atom_site_fract_y
 _atom_site_fract_z
 _atom_site_occupancy
  Nb  Nb0  2  0.50000000  0.24999000  0.12223000  1.0
  Nb  Nb1  2  0.50000000  0.25000000  0.95972000  1.0
  Nb  Nb2  1  0.00000000  0.00000000  0.03944000  1.0
  Nb  Nb3  1  0.00000000  0.00000000  0.87917000  1.0
  Nb  Nb4  1  0.00000000  0.50000000  0.03945000  1.0
  Nb  Nb5  1  0.00000000  0.50000000  0.87917000  1.0
  Al  Al6  2  0.00000000  0.25000000  0.12022000  1.0
  Al  Al7  2  0.00000000  0.25000000  0.95972000  1.0
  Al  Al8  1  0.50000000  0.00000000  0.04005000  1.0
  Al  Al9  1  0.50000000  0.00000000  0.87917000  1.0
  Al  Al10  1  0.50000000  0.50000000  0.04006000  1.0
  Al  Al11  1  0.50000000  0.50000000  0.87917000  1.0
  Ni  Ni12  4  0.25000000  0.25000000  0.87917000  1.0
  Ni  Ni13  4  0.25931000  0.25006000  0.04327000  1.0
  Ni  Ni14  2  0.25000000  0.00000000  0.95972000  1.0
  Ni  Ni15  2  0.25000000  0.50000000  0.95972000  1.0
  Ni  Ni16  2  0.25164000  0.50000000  0.11591000  1.0
  Ni  Ni17  2  0.25167000  0.00000000  0.11592000  1.0
