data_image0
_chemical_formula_structural       Y12Al4CO
_chemical_formula_sum              "Y12 Al4 C1 O1"
_cell_length_a       9.55034
_cell_length_b       6.75311
_cell_length_c       25.0648
_cell_angle_alpha    90
_cell_angle_beta     90
_cell_angle_gamma    90

_space_group_name_H-M_alt    "P 1"
_space_group_IT_number       1

loop_
  _space_group_symop_operation_xyz
  'x, y, z'

loop_
  _atom_site_type_symbol
  _atom_site_label
  _atom_site_symmetry_multiplicity
  _atom_site_fract_x
  _atom_site_fract_y
  _atom_site_fract_z
  _atom_site_occupancy
  Y   Y1        1.0  0.00000  0.50000  0.89897  1.0000
  Y   Y2        1.0  0.25000  0.75000  0.96632  1.0000
  Y   Y3        1.0  0.25000  0.25000  0.96632  1.0000
  Y   Y4        1.0  0.99857  0.99975  0.02700  1.0000
  Y   Y5        1.0  0.25000  0.27191  0.09796  1.0000
  Y   Y6        1.0  0.25000  0.75698  0.10507  1.0000
  Y   Y7        1.0  0.50000  0.50000  0.89897  1.0000
  Y   Y8        1.0  0.75000  0.75000  0.96632  1.0000
  Y   Y9        1.0  0.75000  0.25000  0.96632  1.0000
  Y   Y10       1.0  0.50143  0.99975  0.02700  1.0000
  Y   Y11       1.0  0.75000  0.25956  0.10115  1.0000
  Y   Y12       1.0  0.75000  0.74211  0.10080  1.0000
  Al  Al1       1.0  0.00000  0.00000  0.89897  1.0000
  Al  Al2       1.0  0.99839  0.50285  0.03028  1.0000
  Al  Al3       1.0  0.50000  0.00000  0.89897  1.0000
  Al  Al4       1.0  0.50161  0.50285  0.03028  1.0000
  C   C1        1.0  0.25000  0.23946  0.19457  1.0000
  O   O1        1.0  0.25000  0.23547  0.24083  1.0000
