# generated using pymatgen
data_Y12Al4CO
_symmetry_space_group_name_H-M   Pm
_cell_length_a   6.75311000
_cell_length_b   9.55034000
_cell_length_c   25.06480000
_cell_angle_alpha   90.00000000
_cell_angle_beta   90.00000000
_cell_angle_gamma   90.00000000
_symmetry_Int_Tables_number   6
_chemical_formula_structural   Y12Al4CO
_chemical_formula_sum   'Y12 Al4 C1 O1'
_cell_volume   1616.54165731
_cell_formula_units_Z   1
loop_
 _symmetry_equiv_pos_site_id
 _symmetry_equiv_pos_as_xyz
  1  'x, y, z'
  2  'x, -y, z'
loop_
 _atom_site_type_symbol
 _atom_site_label
 _atom_site_symmetry_multiplicity
 _atom_site_fract_x
 _atom_site_fract_y
 _atom_site_fract_z
 _atom_site_occupancy
  Y  Y0  2  0.00025000  0.24857000  0.97300000  1.0
  Y  Y1  2  0.50000000  0.25000000  0.10103000  1.0
  Y  Y2  1  0.24302000  0.50000000  0.89493000  1.0
  Y  Y3  1  0.25000000  0.00000000  0.03368000  1.0
  Y  Y4  1  0.25000000  0.50000000  0.03368000  1.0
  Y  Y5  1  0.25789000  0.00000000  0.89920000  1.0
  Y  Y6  1  0.72809000  0.50000000  0.90204000  1.0
  Y  Y7  1  0.74044000  0.00000000  0.89885000  1.0
  Y  Y8  1  0.75000000  0.00000000  0.03368000  1.0
  Y  Y9  1  0.75000000  0.50000000  0.03368000  1.0
  Al  Al10  2  0.00000000  0.25000000  0.10103000  1.0
  Al  Al11  2  0.49715000  0.24839000  0.96972000  1.0
  C  C12  1  0.76054000  0.50000000  0.80543000  1.0
  O  O13  1  0.76453000  0.50000000  0.75917000  1.0
