# generated using pymatgen
data_Cr4Ga4Fe8C
_symmetry_space_group_name_H-M   P1
_cell_length_a   6.89656000
_cell_length_b   6.89656000
_cell_length_c   25.17240000
_cell_angle_alpha   90.00000000
_cell_angle_beta   90.00000000
_cell_angle_gamma   90.00000000
_symmetry_Int_Tables_number   1
_chemical_formula_structural   Cr4Ga4Fe8C
_chemical_formula_sum   'Cr4 Ga4 Fe8 C1'
_cell_volume   1197.26327771
_cell_formula_units_Z   1
loop_
 _symmetry_equiv_pos_site_id
 _symmetry_equiv_pos_as_xyz
  1  'x, y, z'
loop_
 _atom_site_type_symbol
 _atom_site_label
 _atom_site_symmetry_multiplicity
 _atom_site_fract_x
 _atom_site_fract_y
 _atom_site_fract_z
 _atom_site_occupancy
  Cr  Cr0  1  0.00000000  0.00000000  0.89726000  1.0
  Cr  Cr1  1  0.00490000  0.49509000  0.04222000  1.0
  Cr  Cr2  1  0.49795000  0.00211000  0.03707000  1.0
  Cr  Cr3  1  0.50000000  0.50000000  0.89726000  1.0
  Ga  Ga4  1  0.00000000  0.50000000  0.89726000  1.0
  Ga  Ga5  1  0.50000000  0.00000000  0.89726000  1.0
  Ga  Ga6  1  0.50064000  0.50043000  0.03322000  1.0
  Ga  Ga7  1  0.99971000  0.99917000  0.03322000  1.0
  Fe  Fe8  1  0.22571000  0.72625000  0.09700000  1.0
  Fe  Fe9  1  0.22593000  0.27429000  0.09673000  1.0
  Fe  Fe10  1  0.25000000  0.25000000  0.96575000  1.0
  Fe  Fe11  1  0.25000000  0.75000000  0.96575000  1.0
  Fe  Fe12  1  0.75000000  0.25000000  0.96575000  1.0
  Fe  Fe13  1  0.75000000  0.75000000  0.96575000  1.0
  Fe  Fe14  1  0.77265000  0.72744000  0.09762000  1.0
  Fe  Fe15  1  0.77356000  0.27418000  0.09704000  1.0
  C  C16  1  0.99781000  0.50222000  0.11222000  1.0
