# generated using pymatgen
data_Al8Fe16Ni8CO
_symmetry_space_group_name_H-M   'P 1'
_cell_length_a   5.78917000
_cell_length_b   8.18712000
_cell_length_c   26.14030000
_cell_angle_alpha   90.00000000
_cell_angle_beta   90.00000000
_cell_angle_gamma   90.00000000
_symmetry_Int_Tables_number   1
_chemical_formula_structural   Al8Fe16Ni8CO
_chemical_formula_sum   'Al8 Fe16 Ni8 C1 O1'
_cell_volume   1238.96211387
_cell_formula_units_Z   1
loop_
 _symmetry_equiv_pos_site_id
 _symmetry_equiv_pos_as_xyz
  1  'x, y, z'
loop_
 _atom_site_type_symbol
 _atom_site_label
 _atom_site_symmetry_multiplicity
 _atom_site_fract_x
 _atom_site_fract_y
 _atom_site_fract_z
 _atom_site_occupancy
  Al  Al0  1  0.00000000  0.00000000  0.88255000  1.0
  Al  Al1  1  0.50000000  0.25000000  0.96085000  1.0
  Al  Al2  1  0.50000000  0.75000000  0.96085000  1.0
  Al  Al3  1  0.00000000  0.50000000  0.88255000  1.0
  Al  Al4  1  0.99785000  0.56331000  0.03627000  1.0
  Al  Al5  1  0.50355000  0.74150000  0.12430000  1.0
  Al  Al6  1  0.49656000  0.24622000  0.12619000  1.0
  Al  Al7  1  0.00229000  0.06046000  0.03753000  1.0
  Fe  Fe8  1  0.25000000  0.00000000  0.96085000  1.0
  Fe  Fe9  1  0.75000000  0.50000000  0.96085000  1.0
  Fe  Fe10  1  0.75000000  0.00000000  0.96085000  1.0
  Fe  Fe11  1  0.25000000  0.50000000  0.96085000  1.0
  Fe  Fe12  1  0.75000000  0.75000000  0.88255000  1.0
  Fe  Fe13  1  0.25000000  0.25000000  0.88255000  1.0
  Fe  Fe14  1  0.25000000  0.75000000  0.88255000  1.0
  Fe  Fe15  1  0.75000000  0.25000000  0.88255000  1.0
  Fe  Fe16  1  0.24113000  0.49888000  0.11458000  1.0
  Fe  Fe17  1  0.74818000  0.99539000  0.11498000  1.0
  Fe  Fe18  1  0.75888000  0.49553000  0.11501000  1.0
  Fe  Fe19  1  0.25233000  0.99234000  0.11542000  1.0
  Fe  Fe20  1  0.74515000  0.31136000  0.04125000  1.0
  Fe  Fe21  1  0.25785000  0.81148000  0.04059000  1.0
  Fe  Fe22  1  0.25472000  0.31443000  0.04093000  1.0
  Fe  Fe23  1  0.74217000  0.81453000  0.04021000  1.0
  Ni  Ni24  1  0.00000000  0.75000000  0.96085000  1.0
  Ni  Ni25  1  0.50000000  0.00000000  0.88255000  1.0
  Ni  Ni26  1  0.00000000  0.25000000  0.96085000  1.0
  Ni  Ni27  1  0.50000000  0.50000000  0.88255000  1.0
  Ni  Ni28  1  0.00246000  0.23961000  0.11571000  1.0
  Ni  Ni29  1  0.50305000  0.56525000  0.03959000  1.0
  Ni  Ni30  1  0.99738000  0.74524000  0.11476000  1.0
  Ni  Ni31  1  0.49656000  0.06796000  0.03877000  1.0
  C  C32  1  0.49942000  0.25189000  0.20415000  1.0
  O  O33  1  0.50051000  0.24342000  0.24800000  1.0
