# generated using pymatgen
data_Sc4Pt12C
_symmetry_space_group_name_H-M   Pm
_cell_length_a   5.70388000
_cell_length_b   8.06651000
_cell_length_c   24.27790000
_cell_angle_alpha   90.00000000
_cell_angle_beta   90.00000000
_cell_angle_gamma   90.00000000
_symmetry_Int_Tables_number   6
_chemical_formula_structural   Sc4Pt12C
_chemical_formula_sum   'Sc4 Pt12 C1'
_cell_volume   1117.03601298
_cell_formula_units_Z   1
loop_
 _symmetry_equiv_pos_site_id
 _symmetry_equiv_pos_as_xyz
  1  'x, y, z'
  2  'x, -y, z'
loop_
 _atom_site_type_symbol
 _atom_site_label
 _atom_site_symmetry_multiplicity
 _atom_site_fract_x
 _atom_site_fract_y
 _atom_site_fract_z
 _atom_site_occupancy
  Sc  Sc0  2  0.00187000  0.23989000  0.91823000  1.0
  Sc  Sc1  2  0.50000000  0.25000000  0.02937000  1.0
  Pt  Pt2  2  0.00000000  0.25000000  0.02937000  1.0
  Pt  Pt3  2  0.50286000  0.25224000  0.91174000  1.0
  Pt  Pt4  1  0.24271000  0.50000000  0.96872000  1.0
  Pt  Pt5  1  0.25000000  0.00000000  0.08810000  1.0
  Pt  Pt6  1  0.25000000  0.50000000  0.08810000  1.0
  Pt  Pt7  1  0.25058000  0.00000000  0.96470000  1.0
  Pt  Pt8  1  0.75000000  0.00000000  0.08810000  1.0
  Pt  Pt9  1  0.75000000  0.50000000  0.08810000  1.0
  Pt  Pt10  1  0.75331000  0.00000000  0.96488000  1.0
  Pt  Pt11  1  0.76143000  0.50000000  0.96864000  1.0
  C  C12  1  0.50147000  0.50000000  0.90754000  1.0
