# generated using pymatgen
data_Zr8Ni16Sb8C
_symmetry_space_group_name_H-M   'P 1'
_cell_length_a   8.96645000
_cell_length_b   6.34024000
_cell_length_c   26.72480000
_cell_angle_alpha   90.00000000
_cell_angle_beta   90.00000000
_cell_angle_gamma   90.00000000
_symmetry_Int_Tables_number   1
_chemical_formula_structural   Zr8Ni16Sb8C
_chemical_formula_sum   'Zr8 Ni16 Sb8 C1'
_cell_volume   1519.29004635
_cell_formula_units_Z   1
loop_
 _symmetry_equiv_pos_site_id
 _symmetry_equiv_pos_as_xyz
  1  'x, y, z'
loop_
 _atom_site_type_symbol
 _atom_site_label
 _atom_site_symmetry_multiplicity
 _atom_site_fract_x
 _atom_site_fract_y
 _atom_site_fract_z
 _atom_site_occupancy
  Zr  Zr0  1  0.74999000  0.00000000  0.12582000  1.0
  Zr  Zr1  1  0.00000000  0.50000000  0.04194000  1.0
  Zr  Zr2  1  0.50000000  0.50000000  0.04194000  1.0
  Zr  Zr3  1  0.25001000  0.00000000  0.12582000  1.0
  Zr  Zr4  1  0.24344000  0.02849000  0.94883000  1.0
  Zr  Zr5  1  0.50000000  0.46583000  0.88262000  1.0
  Zr  Zr6  1  0.00000000  0.44535000  0.88427000  1.0
  Zr  Zr7  1  0.75656000  0.02849000  0.94883000  1.0
  Ni  Ni8  1  0.74999000  0.25000000  0.04194000  1.0
  Ni  Ni9  1  0.24999000  0.75000000  0.04194000  1.0
  Ni  Ni10  1  0.75001000  0.75000000  0.04194000  1.0
  Ni  Ni11  1  0.25001000  0.25000000  0.04194000  1.0
  Ni  Ni12  1  0.50000000  0.75000000  0.12582000  1.0
  Ni  Ni13  1  0.00000000  0.25000000  0.12582000  1.0
  Ni  Ni14  1  0.50000000  0.25000000  0.12582000  1.0
  Ni  Ni15  1  0.00000000  0.75000000  0.12582000  1.0
  Ni  Ni16  1  0.20566000  0.11916000  0.85456000  1.0
  Ni  Ni17  1  0.75826000  0.72930000  0.87888000  1.0
  Ni  Ni18  1  0.24174000  0.72930000  0.87888000  1.0
  Ni  Ni19  1  0.79434000  0.11916000  0.85456000  1.0
  Ni  Ni20  1  0.00000000  0.77809000  0.95930000  1.0
  Ni  Ni21  1  0.50000000  0.24522000  0.96333000  1.0
  Ni  Ni22  1  0.00000000  0.24870000  0.96821000  1.0
  Ni  Ni23  1  0.50000000  0.80443000  0.95351000  1.0
  Sb  Sb24  1  0.50000000  0.00000000  0.04194000  1.0
  Sb  Sb25  1  0.74999000  0.50000000  0.12582000  1.0
  Sb  Sb26  1  0.00000000  0.00000000  0.04194000  1.0
  Sb  Sb27  1  0.25001000  0.50000000  0.12582000  1.0
  Sb  Sb28  1  0.00000000  0.82022000  0.81985000  1.0
  Sb  Sb29  1  0.25247000  0.51619000  0.95989000  1.0
  Sb  Sb30  1  0.50000000  0.97497000  0.86005000  1.0
  Sb  Sb31  1  0.74753000  0.51619000  0.95989000  1.0
  C  C32  1  0.00000000  0.15482000  0.84268000  1.0
