# generated using pymatgen
data_Zr8Ni16Sb8C
_symmetry_space_group_name_H-M   Pm
_cell_length_a   6.34024000
_cell_length_b   8.96645000
_cell_length_c   26.72480000
_cell_angle_alpha   90.00000000
_cell_angle_beta   90.00000000
_cell_angle_gamma   90.00000000
_symmetry_Int_Tables_number   6
_chemical_formula_structural   Zr8Ni16Sb8C
_chemical_formula_sum   'Zr8 Ni16 Sb8 C1'
_cell_volume   1519.29004635
_cell_formula_units_Z   1
loop_
 _symmetry_equiv_pos_site_id
 _symmetry_equiv_pos_as_xyz
  1  'x, y, z'
  2  'x, -y, z'
loop_
 _atom_site_type_symbol
 _atom_site_label
 _atom_site_symmetry_multiplicity
 _atom_site_fract_x
 _atom_site_fract_y
 _atom_site_fract_z
 _atom_site_occupancy
  Zr  Zr0  2  0.00000000  0.25001000  0.87418000  1.0
  Zr  Zr1  2  0.02849000  0.24344000  0.05117000  1.0
  Zr  Zr2  1  0.44535000  0.00000000  0.11573000  1.0
  Zr  Zr3  1  0.46583000  0.50000000  0.11738000  1.0
  Zr  Zr4  1  0.50000000  0.00000000  0.95806000  1.0
  Zr  Zr5  1  0.50000000  0.50000000  0.95806000  1.0
  Ni  Ni6  2  0.11916000  0.20566000  0.14544000  1.0
  Ni  Ni7  2  0.25000000  0.25001000  0.95806000  1.0
  Ni  Ni8  2  0.72930000  0.24174000  0.12112000  1.0
  Ni  Ni9  2  0.75000000  0.24999000  0.95806000  1.0
  Ni  Ni10  1  0.24522000  0.50000000  0.03667000  1.0
  Ni  Ni11  1  0.24870000  0.00000000  0.03179000  1.0
  Ni  Ni12  1  0.25000000  0.00000000  0.87418000  1.0
  Ni  Ni13  1  0.25000000  0.50000000  0.87418000  1.0
  Ni  Ni14  1  0.75000000  0.00000000  0.87418000  1.0
  Ni  Ni15  1  0.75000000  0.50000000  0.87418000  1.0
  Ni  Ni16  1  0.77809000  0.00000000  0.04070000  1.0
  Ni  Ni17  1  0.80443000  0.50000000  0.04649000  1.0
  Sb  Sb18  2  0.50000000  0.25001000  0.87418000  1.0
  Sb  Sb19  2  0.51619000  0.25247000  0.04011000  1.0
  Sb  Sb20  1  0.00000000  0.00000000  0.95806000  1.0
  Sb  Sb21  1  0.00000000  0.50000000  0.95806000  1.0
  Sb  Sb22  1  0.82022000  0.00000000  0.18015000  1.0
  Sb  Sb23  1  0.97497000  0.50000000  0.13995000  1.0
  C  C24  1  0.15482000  0.00000000  0.15732000  1.0
