# generated using pymatgen
data_Li8Mg8Pd8Pb8C
_symmetry_space_group_name_H-M   'P 1'
_cell_length_a   9.45090000
_cell_length_b   6.68280000
_cell_length_c   27.08820000
_cell_angle_alpha   90.00000000
_cell_angle_beta   90.00000000
_cell_angle_gamma   90.00000000
_symmetry_Int_Tables_number   1
_chemical_formula_structural   Li8Mg8Pd8Pb8C
_chemical_formula_sum   'Li8 Mg8 Pd8 Pb8 C1'
_cell_volume   1710.84938949
_cell_formula_units_Z   1
loop_
 _symmetry_equiv_pos_site_id
 _symmetry_equiv_pos_as_xyz
  1  'x, y, z'
loop_
 _atom_site_type_symbol
 _atom_site_label
 _atom_site_symmetry_multiplicity
 _atom_site_fract_x
 _atom_site_fract_y
 _atom_site_fract_z
 _atom_site_occupancy
  Li  Li0  1  0.75000000  0.00000000  0.13084000  1.0
  Li  Li1  1  0.25000000  0.00000000  0.13084000  1.0
  Li  Li2  1  0.50000000  0.50000000  0.04361000  1.0
  Li  Li3  1  0.00000000  0.50000000  0.04361000  1.0
  Li  Li4  1  0.24971000  0.01842000  0.94969000  1.0
  Li  Li5  1  0.75029000  0.01842000  0.94969000  1.0
  Li  Li6  1  0.00000000  0.46798000  0.85540000  1.0
  Li  Li7  1  0.50000000  0.52640000  0.86413000  1.0
  Mg  Mg8  1  0.75000000  0.75000000  0.04361000  1.0
  Mg  Mg9  1  0.25000000  0.75000000  0.04361000  1.0
  Mg  Mg10  1  0.00000000  0.25000000  0.13084000  1.0
  Mg  Mg11  1  0.50000000  0.25000000  0.13084000  1.0
  Mg  Mg12  1  0.23249000  0.75943000  0.86356000  1.0
  Mg  Mg13  1  0.76751000  0.75943000  0.86356000  1.0
  Mg  Mg14  1  0.50000000  0.25380000  0.95215000  1.0
  Mg  Mg15  1  0.00000000  0.26081000  0.95625000  1.0
  Pd  Pd16  1  0.00000000  0.00000000  0.04361000  1.0
  Pd  Pd17  1  0.50000000  0.00000000  0.04361000  1.0
  Pd  Pd18  1  0.25000000  0.50000000  0.13084000  1.0
  Pd  Pd19  1  0.75000000  0.50000000  0.13084000  1.0
  Pd  Pd20  1  0.50000000  0.98079000  0.87499000  1.0
  Pd  Pd21  1  0.00000000  0.06489000  0.87115000  1.0
  Pd  Pd22  1  0.74739000  0.48476000  0.95145000  1.0
  Pd  Pd23  1  0.25261000  0.48476000  0.95145000  1.0
  Pb  Pb24  1  0.75000000  0.25000000  0.04361000  1.0
  Pb  Pb25  1  0.25000000  0.25000000  0.04361000  1.0
  Pb  Pb26  1  0.00000000  0.75000000  0.13084000  1.0
  Pb  Pb27  1  0.50000000  0.75000000  0.13084000  1.0
  Pb  Pb28  1  0.26714000  0.25238000  0.85191000  1.0
  Pb  Pb29  1  0.73286000  0.25238000  0.85191000  1.0
  Pb  Pb30  1  0.50000000  0.74229000  0.95793000  1.0
  Pb  Pb31  1  0.00000000  0.73919000  0.95574000  1.0
  C  C32  1  0.00000000  0.76547000  0.86394000  1.0
