# generated using pymatgen
data_Li8Mg8Pd8Pb8C
_symmetry_space_group_name_H-M   Pm
_cell_length_a   6.68280000
_cell_length_b   9.45090000
_cell_length_c   27.08820000
_cell_angle_alpha   90.00000000
_cell_angle_beta   90.00000000
_cell_angle_gamma   90.00000000
_symmetry_Int_Tables_number   6
_chemical_formula_structural   Li8Mg8Pd8Pb8C
_chemical_formula_sum   'Li8 Mg8 Pd8 Pb8 C1'
_cell_volume   1710.84938949
_cell_formula_units_Z   1
loop_
 _symmetry_equiv_pos_site_id
 _symmetry_equiv_pos_as_xyz
  1  'x, y, z'
  2  'x, -y, z'
loop_
 _atom_site_type_symbol
 _atom_site_label
 _atom_site_symmetry_multiplicity
 _atom_site_fract_x
 _atom_site_fract_y
 _atom_site_fract_z
 _atom_site_occupancy
  Li  Li0  2  0.00000000  0.25000000  0.86916000  1.0
  Li  Li1  2  0.01842000  0.24971000  0.05031000  1.0
  Li  Li2  1  0.46798000  0.00000000  0.14460000  1.0
  Li  Li3  1  0.50000000  0.00000000  0.95639000  1.0
  Li  Li4  1  0.50000000  0.50000000  0.95639000  1.0
  Li  Li5  1  0.52640000  0.50000000  0.13587000  1.0
  Mg  Mg6  2  0.75000000  0.25000000  0.95639000  1.0
  Mg  Mg7  2  0.75943000  0.23249000  0.13644000  1.0
  Mg  Mg8  1  0.25000000  0.00000000  0.86916000  1.0
  Mg  Mg9  1  0.25000000  0.50000000  0.86916000  1.0
  Mg  Mg10  1  0.25380000  0.50000000  0.04785000  1.0
  Mg  Mg11  1  0.26081000  0.00000000  0.04375000  1.0
  Pd  Pd12  2  0.48476000  0.25261000  0.04855000  1.0
  Pd  Pd13  2  0.50000000  0.25000000  0.86916000  1.0
  Pd  Pd14  1  0.00000000  0.00000000  0.95639000  1.0
  Pd  Pd15  1  0.00000000  0.50000000  0.95639000  1.0
  Pd  Pd16  1  0.06489000  0.00000000  0.12885000  1.0
  Pd  Pd17  1  0.98079000  0.50000000  0.12501000  1.0
  Pb  Pb18  2  0.25000000  0.25000000  0.95639000  1.0
  Pb  Pb19  2  0.25238000  0.26714000  0.14809000  1.0
  Pb  Pb20  1  0.73919000  0.00000000  0.04426000  1.0
  Pb  Pb21  1  0.74229000  0.50000000  0.04207000  1.0
  Pb  Pb22  1  0.75000000  0.00000000  0.86916000  1.0
  Pb  Pb23  1  0.75000000  0.50000000  0.86916000  1.0
  C  C24  1  0.76547000  0.00000000  0.13606000  1.0
