# generated using pymatgen
data_Ga16Ag16C
_symmetry_space_group_name_H-M   'P 1'
_cell_length_a   9.48244000
_cell_length_b   6.70510000
_cell_length_c   27.11180000
_cell_angle_alpha   90.00000000
_cell_angle_beta   90.00000000
_cell_angle_gamma   90.00000000
_symmetry_Int_Tables_number   1
_chemical_formula_structural   Ga16Ag16C
_chemical_formula_sum   'Ga16 Ag16 C1'
_cell_volume   1723.78745119
_cell_formula_units_Z   1
loop_
 _symmetry_equiv_pos_site_id
 _symmetry_equiv_pos_as_xyz
  1  'x, y, z'
loop_
 _atom_site_type_symbol
 _atom_site_label
 _atom_site_symmetry_multiplicity
 _atom_site_fract_x
 _atom_site_fract_y
 _atom_site_fract_z
 _atom_site_occupancy
  Ga  Ga0  1  0.00000000  0.25000000  0.13116000  1.0
  Ga  Ga1  1  0.75000000  0.25000000  0.04372000  1.0
  Ga  Ga2  1  0.00000000  0.25101000  0.94638000  1.0
  Ga  Ga3  1  0.78219000  0.25229000  0.84388000  1.0
  Ga  Ga4  1  0.50000000  0.25000000  0.13116000  1.0
  Ga  Ga5  1  0.25000000  0.25000000  0.04372000  1.0
  Ga  Ga6  1  0.50000000  0.25077000  0.95823000  1.0
  Ga  Ga7  1  0.21781000  0.25229000  0.84388000  1.0
  Ga  Ga8  1  0.00000000  0.75000000  0.13116000  1.0
  Ga  Ga9  1  0.75000000  0.75000000  0.04372000  1.0
  Ga  Ga10  1  0.00000000  0.75026000  0.96420000  1.0
  Ga  Ga11  1  0.73369000  0.74933000  0.85898000  1.0
  Ga  Ga12  1  0.50000000  0.75000000  0.13116000  1.0
  Ga  Ga13  1  0.25000000  0.75000000  0.04372000  1.0
  Ga  Ga14  1  0.50000000  0.74865000  0.95237000  1.0
  Ga  Ga15  1  0.26631000  0.74933000  0.85898000  1.0
  Ag  Ag16  1  0.75000000  0.00000000  0.13116000  1.0
  Ag  Ag17  1  0.00000000  0.00000000  0.04372000  1.0
  Ag  Ag18  1  0.74835000  0.00605000  0.95382000  1.0
  Ag  Ag19  1  0.00000000  0.94202000  0.87402000  1.0
  Ag  Ag20  1  0.25000000  0.00000000  0.13116000  1.0
  Ag  Ag21  1  0.50000000  1.00000000  0.04372000  1.0
  Ag  Ag22  1  0.25165000  0.00605000  0.95382000  1.0
  Ag  Ag23  1  0.50000000  0.02170000  0.87061000  1.0
  Ag  Ag24  1  0.75000000  0.50000000  0.13116000  1.0
  Ag  Ag25  1  0.00000000  0.50000000  0.04372000  1.0
  Ag  Ag26  1  0.74880000  0.49403000  0.95388000  1.0
  Ag  Ag27  1  0.00000000  0.56146000  0.87399000  1.0
  Ag  Ag28  1  0.25000000  0.50000000  0.13116000  1.0
  Ag  Ag29  1  0.50000000  0.50000000  0.04372000  1.0
  Ag  Ag30  1  0.25120000  0.49403000  0.95388000  1.0
  Ag  Ag31  1  0.50000000  0.47540000  0.87008000  1.0
  C  C32  1  0.00000000  0.25162000  0.86202000  1.0
