# generated using pymatgen
data_Ti8Al8Au16C
_symmetry_space_group_name_H-M   'P 1'
_cell_length_a   9.19068000
_cell_length_b   6.49880000
_cell_length_c   26.89300000
_cell_angle_alpha   90.00000000
_cell_angle_beta   90.00000000
_cell_angle_gamma   90.00000000
_symmetry_Int_Tables_number   1
_chemical_formula_structural   Ti8Al8Au16C
_chemical_formula_sum   'Ti8 Al8 Au16 C1'
_cell_volume   1606.27562411
_cell_formula_units_Z   1
loop_
 _symmetry_equiv_pos_site_id
 _symmetry_equiv_pos_as_xyz
  1  'x, y, z'
loop_
 _atom_site_type_symbol
 _atom_site_label
 _atom_site_symmetry_multiplicity
 _atom_site_fract_x
 _atom_site_fract_y
 _atom_site_fract_z
 _atom_site_occupancy
  Ti  Ti0  1  0.00000000  0.00000000  0.12816000  1.0
  Ti  Ti1  1  0.25000000  0.50000000  0.04272000  1.0
  Ti  Ti2  1  0.75000000  0.50000000  0.04272000  1.0
  Ti  Ti3  1  0.50000000  0.00000000  0.12816000  1.0
  Ti  Ti4  1  0.49995000  0.00000000  0.94954000  1.0
  Ti  Ti5  1  0.76150000  0.50000000  0.87797000  1.0
  Ti  Ti6  1  0.23862000  0.50000000  0.87797000  1.0
  Ti  Ti7  1  0.99996000  0.00000000  0.94942000  1.0
  Al  Al8  1  0.75000000  0.00000000  0.04272000  1.0
  Al  Al9  1  0.00000000  0.50000000  0.12816000  1.0
  Al  Al10  1  0.25000000  0.00000000  0.04272000  1.0
  Al  Al11  1  0.50000000  0.50000000  0.12816000  1.0
  Al  Al12  1  0.23092000  0.00000000  0.87373000  1.0
  Al  Al13  1  0.49997000  0.50000000  0.95738000  1.0
  Al  Al14  1  0.76907000  0.00000000  0.87371000  1.0
  Al  Al15  1  0.99998000  0.50000000  0.95800000  1.0
  Au  Au16  1  0.00000000  0.75000000  0.04272000  1.0
  Au  Au17  1  0.50000000  0.25000000  0.04272000  1.0
  Au  Au18  1  0.00000000  0.25000000  0.04272000  1.0
  Au  Au19  1  0.50000000  0.75000000  0.04272000  1.0
  Au  Au20  1  0.75000000  0.25000000  0.12816000  1.0
  Au  Au21  1  0.25000000  0.75000000  0.12816000  1.0
  Au  Au22  1  0.75000000  0.75000000  0.12816000  1.0
  Au  Au23  1  0.25000000  0.25000000  0.12816000  1.0
  Au  Au24  1  0.50013000  0.73246000  0.86759000  1.0
  Au  Au25  1  0.00003000  0.29307000  0.84060000  1.0
  Au  Au26  1  0.50013000  0.26754000  0.86759000  1.0
  Au  Au27  1  0.00003000  0.70693000  0.84060000  1.0
  Au  Au28  1  0.25239000  0.24583000  0.95923000  1.0
  Au  Au29  1  0.74755000  0.75418000  0.95923000  1.0
  Au  Au30  1  0.25239000  0.75417000  0.95923000  1.0
  Au  Au31  1  0.74755000  0.24582000  0.95923000  1.0
  C  C32  1  0.99999000  0.00000000  0.87458000  1.0
