# generated using pymatgen
data_Ti8Al8Au16C
_symmetry_space_group_name_H-M   Pm
_cell_length_a   9.19068000
_cell_length_b   6.49880000
_cell_length_c   26.89300000
_cell_angle_alpha   90.00000000
_cell_angle_beta   90.00000000
_cell_angle_gamma   90.00000000
_symmetry_Int_Tables_number   6
_chemical_formula_structural   Ti8Al8Au16C
_chemical_formula_sum   'Ti8 Al8 Au16 C1'
_cell_volume   1606.27562411
_cell_formula_units_Z   1
loop_
 _symmetry_equiv_pos_site_id
 _symmetry_equiv_pos_as_xyz
  1  'x, y, z'
  2  'x, -y, z'
loop_
 _atom_site_type_symbol
 _atom_site_label
 _atom_site_symmetry_multiplicity
 _atom_site_fract_x
 _atom_site_fract_y
 _atom_site_fract_z
 _atom_site_occupancy
  Ti  Ti0  1  0.00000000  0.00000000  0.87184000  1.0
  Ti  Ti1  1  0.23862000  0.50000000  0.12203000  1.0
  Ti  Ti2  1  0.25000000  0.50000000  0.95728000  1.0
  Ti  Ti3  1  0.49995000  0.00000000  0.05046000  1.0
  Ti  Ti4  1  0.50000000  0.00000000  0.87184000  1.0
  Ti  Ti5  1  0.75000000  0.50000000  0.95728000  1.0
  Ti  Ti6  1  0.76150000  0.50000000  0.12203000  1.0
  Ti  Ti7  1  0.99996000  0.00000000  0.05058000  1.0
  Al  Al8  1  0.00000000  0.50000000  0.87184000  1.0
  Al  Al9  1  0.23092000  0.00000000  0.12627000  1.0
  Al  Al10  1  0.25000000  0.00000000  0.95728000  1.0
  Al  Al11  1  0.49997000  0.50000000  0.04262000  1.0
  Al  Al12  1  0.50000000  0.50000000  0.87184000  1.0
  Al  Al13  1  0.75000000  0.00000000  0.95728000  1.0
  Al  Al14  1  0.76907000  0.00000000  0.12629000  1.0
  Al  Al15  1  0.99998000  0.50000000  0.04200000  1.0
  Au  Au16  2  0.00000000  0.25000000  0.95728000  1.0
  Au  Au17  2  0.00003000  0.29307000  0.15940000  1.0
  Au  Au18  2  0.25000000  0.25000000  0.87184000  1.0
  Au  Au19  2  0.25239000  0.24583000  0.04077000  1.0
  Au  Au20  2  0.50000000  0.25000000  0.95728000  1.0
  Au  Au21  2  0.50013000  0.26754000  0.13241000  1.0
  Au  Au22  2  0.74755000  0.24582000  0.04077000  1.0
  Au  Au23  2  0.75000000  0.25000000  0.87184000  1.0
  C  C24  1  0.99999000  0.00000000  0.12542000  1.0
