# generated using pymatgen
data_Li8Mg8Ge8Au8CO
_symmetry_space_group_name_H-M   'P 1'
_cell_length_a   9.20584000
_cell_length_b   6.50951000
_cell_length_c   26.90440000
_cell_angle_alpha   90.00000000
_cell_angle_beta   90.00000000
_cell_angle_gamma   90.00000000
_symmetry_Int_Tables_number   1
_chemical_formula_structural   Li8Mg8Ge8Au8CO
_chemical_formula_sum   'Li8 Mg8 Ge8 Au8 C1 O1'
_cell_volume   1612.25982502
_cell_formula_units_Z   1
loop_
 _symmetry_equiv_pos_site_id
 _symmetry_equiv_pos_as_xyz
  1  'x, y, z'
loop_
 _atom_site_type_symbol
 _atom_site_label
 _atom_site_symmetry_multiplicity
 _atom_site_fract_x
 _atom_site_fract_y
 _atom_site_fract_z
 _atom_site_occupancy
  Li  Li0  1  0.00000000  0.75000000  0.04277000  1.0
  Li  Li1  1  0.50000000  0.75000000  0.04277000  1.0
  Li  Li2  1  0.25000000  0.25000000  0.12831000  1.0
  Li  Li3  1  0.75000000  0.25000000  0.12831000  1.0
  Li  Li4  1  0.50000000  0.75393000  0.86769000  1.0
  Li  Li5  1  0.00000000  0.74831000  0.86252000  1.0
  Li  Li6  1  0.75182000  0.23910000  0.96126000  1.0
  Li  Li7  1  0.24818000  0.23910000  0.96126000  1.0
  Mg  Mg8  1  0.00000000  0.25000000  0.04277000  1.0
  Mg  Mg9  1  0.50000000  0.25000000  0.04277000  1.0
  Mg  Mg10  1  0.25000000  0.75000000  0.12831000  1.0
  Mg  Mg11  1  0.75000000  0.75000000  0.12831000  1.0
  Mg  Mg12  1  0.50000000  0.23809000  0.85633000  1.0
  Mg  Mg13  1  0.00000000  0.23431000  0.86004000  1.0
  Mg  Mg14  1  0.74795000  0.75550000  0.95555000  1.0
  Mg  Mg15  1  0.25205000  0.75550000  0.95555000  1.0
  Ge  Ge16  1  0.25000000  1.00000000  0.04277000  1.0
  Ge  Ge17  1  0.75000000  1.00000000  0.04277000  1.0
  Ge  Ge18  1  0.50000000  0.50000000  0.12831000  1.0
  Ge  Ge19  1  0.00000000  0.50000000  0.12831000  1.0
  Ge  Ge20  1  0.74775000  0.00397000  0.86718000  1.0
  Ge  Ge21  1  0.25225000  0.00397000  0.86718000  1.0
  Ge  Ge22  1  0.00000000  0.49312000  0.94654000  1.0
  Ge  Ge23  1  0.50000000  0.48533000  0.94672000  1.0
  Au  Au24  1  0.00000000  0.00000000  0.12831000  1.0
  Au  Au25  1  0.50000000  0.00000000  0.12831000  1.0
  Au  Au26  1  0.75000000  0.50000000  0.04277000  1.0
  Au  Au27  1  0.25000000  0.50000000  0.04277000  1.0
  Au  Au28  1  0.50000000  0.02341000  0.95039000  1.0
  Au  Au29  1  0.00000000  0.00978000  0.95119000  1.0
  Au  Au30  1  0.25187000  0.45967000  0.87921000  1.0
  Au  Au31  1  0.74813000  0.45967000  0.87921000  1.0
  C  C32  1  0.00000000  0.74255000  0.78405000  1.0
  O  O33  1  0.00000000  0.75114000  0.74166000  1.0
