data_image0
_chemical_formula_structural       Li8Mg8Cu8Sn8C
_chemical_formula_sum              "Li8 Mg8 Cu8 Sn8 C1"
_cell_length_a       6.48317
_cell_length_b       9.16858
_cell_length_c       26.8764
_cell_angle_alpha    90
_cell_angle_beta     90
_cell_angle_gamma    90

_space_group_name_H-M_alt    "P 1"
_space_group_IT_number       1

loop_
  _space_group_symop_operation_xyz
  'x, y, z'

loop_
  _atom_site_type_symbol
  _atom_site_label
  _atom_site_symmetry_multiplicity
  _atom_site_fract_x
  _atom_site_fract_y
  _atom_site_fract_z
  _atom_site_occupancy
  Li  Li1       1.0  0.00000  0.25000  0.95736  1.0000
  Li  Li2       1.0  0.00000  0.75000  0.95736  1.0000
  Li  Li3       1.0  0.50000  0.50000  0.87207  1.0000
  Li  Li4       1.0  0.50000  0.00000  0.87207  1.0000
  Li  Li5       1.0  0.98334  0.75000  0.14555  1.0000
  Li  Li6       1.0  0.04401  0.25000  0.16320  1.0000
  Li  Li7       1.0  0.50116  0.99967  0.04496  1.0000
  Li  Li8       1.0  0.50116  0.50033  0.04496  1.0000
  Mg  Mg1       1.0  0.75000  0.00000  0.95736  1.0000
  Mg  Mg2       1.0  0.75000  0.50000  0.95736  1.0000
  Mg  Mg3       1.0  0.25000  0.25000  0.87207  1.0000
  Mg  Mg4       1.0  0.25000  0.75000  0.87207  1.0000
  Mg  Mg5       1.0  0.74137  0.48494  0.13935  1.0000
  Mg  Mg6       1.0  0.74137  0.01506  0.13935  1.0000
  Mg  Mg7       1.0  0.24134  0.75000  0.04740  1.0000
  Mg  Mg8       1.0  0.23300  0.25000  0.05019  1.0000
  Cu  Cu1       1.0  0.00000  0.00000  0.87207  1.0000
  Cu  Cu2       1.0  0.00000  0.50000  0.87207  1.0000
  Cu  Cu3       1.0  0.50000  0.75000  0.95736  1.0000
  Cu  Cu4       1.0  0.50000  0.25000  0.95736  1.0000
  Cu  Cu5       1.0  0.99767  0.50385  0.04065  1.0000
  Cu  Cu6       1.0  0.99767  0.99615  0.04065  1.0000
  Cu  Cu7       1.0  0.45142  0.25000  0.13338  1.0000
  Cu  Cu8       1.0  0.50658  0.75000  0.12547  1.0000
  Sn  Sn1       1.0  0.25000  0.00000  0.95736  1.0000
  Sn  Sn2       1.0  0.25000  0.50000  0.95736  1.0000
  Sn  Sn3       1.0  0.75000  0.25000  0.87207  1.0000
  Sn  Sn4       1.0  0.75000  0.75000  0.87207  1.0000
  Sn  Sn5       1.0  0.24101  0.51206  0.13133  1.0000
  Sn  Sn6       1.0  0.24101  0.98794  0.13133  1.0000
  Sn  Sn7       1.0  0.75694  0.75000  0.04545  1.0000
  Sn  Sn8       1.0  0.76699  0.25001  0.05014  1.0000
  C   C1        1.0  0.74873  0.25000  0.13742  1.0000
