# generated using pymatgen
data_Li8Mg8Cu8Sn8C
_symmetry_space_group_name_H-M   'P 1'
_cell_length_a   9.16858000
_cell_length_b   6.48317000
_cell_length_c   26.87640000
_cell_angle_alpha   90.00000000
_cell_angle_beta   90.00000000
_cell_angle_gamma   90.00000000
_symmetry_Int_Tables_number   1
_chemical_formula_structural   Li8Mg8Cu8Sn8C
_chemical_formula_sum   'Li8 Mg8 Cu8 Sn8 C1'
_cell_volume   1597.57253076
_cell_formula_units_Z   1
loop_
 _symmetry_equiv_pos_site_id
 _symmetry_equiv_pos_as_xyz
  1  'x, y, z'
loop_
 _atom_site_type_symbol
 _atom_site_label
 _atom_site_symmetry_multiplicity
 _atom_site_fract_x
 _atom_site_fract_y
 _atom_site_fract_z
 _atom_site_occupancy
  Li  Li0  1  0.00000000  1.00000000  0.04264000  1.0
  Li  Li1  1  0.50000000  1.00000000  0.04264000  1.0
  Li  Li2  1  0.25000000  0.50000000  0.12793000  1.0
  Li  Li3  1  0.75000000  0.50000000  0.12793000  1.0
  Li  Li4  1  0.50000000  0.98334000  0.85445000  1.0
  Li  Li5  1  0.00000000  0.04401000  0.83680000  1.0
  Li  Li6  1  0.74967000  0.50116000  0.95504000  1.0
  Li  Li7  1  0.25033000  0.50116000  0.95504000  1.0
  Mg  Mg8  1  0.75000000  0.75000000  0.04264000  1.0
  Mg  Mg9  1  0.25000000  0.75000000  0.04264000  1.0
  Mg  Mg10  1  0.00000000  0.25000000  0.12793000  1.0
  Mg  Mg11  1  0.50000000  0.25000000  0.12793000  1.0
  Mg  Mg12  1  0.23494000  0.74137000  0.86065000  1.0
  Mg  Mg13  1  0.76506000  0.74137000  0.86065000  1.0
  Mg  Mg14  1  0.50000000  0.24134000  0.95260000  1.0
  Mg  Mg15  1  0.00000000  0.23300000  0.94981000  1.0
  Cu  Cu16  1  0.75000000  0.00000000  0.12793000  1.0
  Cu  Cu17  1  0.25000000  0.00000000  0.12793000  1.0
  Cu  Cu18  1  0.50000000  0.50000000  0.04264000  1.0
  Cu  Cu19  1  0.00000000  0.50000000  0.04264000  1.0
  Cu  Cu20  1  0.25385000  0.99767000  0.95935000  1.0
  Cu  Cu21  1  0.74615000  0.99767000  0.95935000  1.0
  Cu  Cu22  1  0.00000000  0.45142000  0.86662000  1.0
  Cu  Cu23  1  0.50000000  0.50658000  0.87453000  1.0
  Sn  Sn24  1  0.75000000  0.25000000  0.04264000  1.0
  Sn  Sn25  1  0.25000000  0.25000000  0.04264000  1.0
  Sn  Sn26  1  0.00000000  0.75000000  0.12793000  1.0
  Sn  Sn27  1  0.50000000  0.75000000  0.12793000  1.0
  Sn  Sn28  1  0.26206000  0.24101000  0.86867000  1.0
  Sn  Sn29  1  0.73794000  0.24101000  0.86867000  1.0
  Sn  Sn30  1  0.50000000  0.75694000  0.95455000  1.0
  Sn  Sn31  1  0.00000000  0.76699000  0.94986000  1.0
  C  C32  1  0.00000000  0.74873000  0.86258000  1.0
