# generated using pymatgen
data_Sc8Al8In8Pd8CO
_symmetry_space_group_name_H-M   'P 1'
_cell_length_a   8.33700000
_cell_length_b   8.60736000
_cell_length_c   26.22680000
_cell_angle_alpha   90.00000000
_cell_angle_beta   90.00000000
_cell_angle_gamma   90.00000000
_symmetry_Int_Tables_number   1
_chemical_formula_structural   Sc8Al8In8Pd8CO
_chemical_formula_sum   'Sc8 Al8 In8 Pd8 C1 O1'
_cell_volume   1882.02363660
_cell_formula_units_Z   1
loop_
 _symmetry_equiv_pos_site_id
 _symmetry_equiv_pos_as_xyz
  1  'x, y, z'
loop_
 _atom_site_type_symbol
 _atom_site_label
 _atom_site_symmetry_multiplicity
 _atom_site_fract_x
 _atom_site_fract_y
 _atom_site_fract_z
 _atom_site_occupancy
  Sc  Sc0  1  0.00000000  0.25000000  0.03957000  1.0
  Sc  Sc1  1  0.00000000  0.25000000  0.88129000  1.0
  Sc  Sc2  1  0.00000000  0.75000000  0.03957000  1.0
  Sc  Sc3  1  0.00000000  0.75000000  0.88129000  1.0
  Sc  Sc4  1  0.50000000  0.25000000  0.03957000  1.0
  Sc  Sc5  1  0.50000000  0.25000000  0.88129000  1.0
  Sc  Sc6  1  0.50000000  0.75000000  0.03957000  1.0
  Sc  Sc7  1  0.50000000  0.75000000  0.88129000  1.0
  Al  Al8  1  0.00000000  0.00000000  0.11871000  1.0
  Al  Al9  1  0.00000000  0.00000000  0.96043000  1.0
  Al  Al10  1  0.00000000  0.50000000  0.11871000  1.0
  Al  Al11  1  0.00000000  0.50000000  0.96043000  1.0
  Al  Al12  1  0.50000000  0.00000000  0.11871000  1.0
  Al  Al13  1  0.50000000  0.00000000  0.96043000  1.0
  Al  Al14  1  0.50000000  0.50000000  0.11871000  1.0
  Al  Al15  1  0.50000000  0.50000000  0.96043000  1.0
  In  In16  1  0.25000000  0.00000000  0.03957000  1.0
  In  In17  1  0.25000000  0.00000000  0.88129000  1.0
  In  In18  1  0.25000000  0.50000000  0.03957000  1.0
  In  In19  1  0.25000000  0.50000000  0.88129000  1.0
  In  In20  1  0.75000000  0.00000000  0.03957000  1.0
  In  In21  1  0.75000000  0.00000000  0.88129000  1.0
  In  In22  1  0.75000000  0.50000000  0.03957000  1.0
  In  In23  1  0.75000000  0.50000000  0.88129000  1.0
  Pd  Pd24  1  0.25000000  0.25000000  0.11871000  1.0
  Pd  Pd25  1  0.25000000  0.25000000  0.96043000  1.0
  Pd  Pd26  1  0.25000000  0.75000000  0.11871000  1.0
  Pd  Pd27  1  0.25000000  0.75000000  0.96043000  1.0
  Pd  Pd28  1  0.75000000  0.25000000  0.11871000  1.0
  Pd  Pd29  1  0.75000000  0.25000000  0.96043000  1.0
  Pd  Pd30  1  0.75000000  0.75000000  0.11871000  1.0
  Pd  Pd31  1  0.75000000  0.75000000  0.96043000  1.0
  C  C32  1  0.00000000  0.00000000  0.19116000  1.0
  O  O33  1  0.00000000  0.00000000  0.23500000  1.0
