# generated using pymatgen
data_Li8Cu8Ge8Pd8C
_symmetry_space_group_name_H-M   Pm
_cell_length_a   6.04231000
_cell_length_b   8.54512000
_cell_length_c   26.40880000
_cell_angle_alpha   90.00000000
_cell_angle_beta   90.00000000
_cell_angle_gamma   90.00000000
_symmetry_Int_Tables_number   6
_chemical_formula_structural   Li8Cu8Ge8Pd8C
_chemical_formula_sum   'Li8 Cu8 Ge8 Pd8 C1'
_cell_volume   1363.54613424
_cell_formula_units_Z   1
loop_
 _symmetry_equiv_pos_site_id
 _symmetry_equiv_pos_as_xyz
  1  'x, y, z'
  2  'x, -y, z'
loop_
 _atom_site_type_symbol
 _atom_site_label
 _atom_site_symmetry_multiplicity
 _atom_site_fract_x
 _atom_site_fract_y
 _atom_site_fract_z
 _atom_site_occupancy
  Li  Li0  2  0.24388000  0.26482000  0.13521000  1.0
  Li  Li1  2  0.25000000  0.25000000  0.95955000  1.0
  Li  Li2  1  0.74609000  0.00000000  0.03977000  1.0
  Li  Li3  1  0.75000000  0.00000000  0.87866000  1.0
  Li  Li4  1  0.75000000  0.50000000  0.87866000  1.0
  Li  Li5  1  0.75200000  0.50000000  0.03491000  1.0
  Cu  Cu6  2  0.00000000  0.25000000  0.87866000  1.0
  Cu  Cu7  2  0.99952000  0.25245000  0.04440000  1.0
  Cu  Cu8  1  0.46256000  0.00000000  0.11254000  1.0
  Cu  Cu9  1  0.50000000  0.00000000  0.95955000  1.0
  Cu  Cu10  1  0.50000000  0.50000000  0.95955000  1.0
  Cu  Cu11  1  0.51984000  0.50000000  0.11588000  1.0
  Ge  Ge12  2  0.74927000  0.23602000  0.13327000  1.0
  Ge  Ge13  2  0.75000000  0.25000000  0.95955000  1.0
  Ge  Ge14  1  0.24362000  0.50000000  0.04215000  1.0
  Ge  Ge15  1  0.25000000  0.00000000  0.87866000  1.0
  Ge  Ge16  1  0.25000000  0.50000000  0.87866000  1.0
  Ge  Ge17  1  0.26296000  0.00000000  0.03244000  1.0
  Pd  Pd18  2  0.50000000  0.25000000  0.87866000  1.0
  Pd  Pd19  2  0.50392000  0.25732000  0.04715000  1.0
  Pd  Pd20  1  0.00000000  0.00000000  0.95955000  1.0
  Pd  Pd21  1  0.00000000  0.50000000  0.95955000  1.0
  Pd  Pd22  1  0.03974000  0.00000000  0.11022000  1.0
  Pd  Pd23  1  0.96893000  0.50000000  0.11727000  1.0
  C  C24  1  0.73974000  0.00000000  0.14613000  1.0
