# generated using pymatgen
data_Li2AgSn
_symmetry_space_group_name_H-M   Cm
_cell_length_a   9.41809664
_cell_length_b   9.41809664
_cell_length_c   24.99470000
_cell_angle_alpha   90.00000000
_cell_angle_beta   90.00000000
_cell_angle_gamma   90.00000000
_symmetry_Int_Tables_number   8
_chemical_formula_structural   Li2AgSn
_chemical_formula_sum   'Li16 Ag8 Sn8'
_cell_volume   2217.04349512
_cell_formula_units_Z   8
loop_
 _symmetry_equiv_pos_site_id
 _symmetry_equiv_pos_as_xyz
  1  'x, y, z'
  2  '-x, -y, z'
  3  '-x, y, z'
  4  'x, -y, z'
  5  'x+1/2, y+1/2, z'
  6  '-x+1/2, -y+1/2, z'
  7  '-x+1/2, y+1/2, z'
  8  'x+1/2, -y+1/2, z'
loop_
 _atom_site_type_symbol
 _atom_site_label
 _atom_site_symmetry_multiplicity
 _atom_site_fract_x
 _atom_site_fract_y
 _atom_site_fract_z
 _atom_site_occupancy
  Li  Li0  4  0.00000500  0.25084500  0.10931000  1.0
  Li  Li1  4  0.24999500  0.24999500  0.90008000  1.0
  Li  Li2  4  0.24999500  0.00000000  0.96669000  1.0
  Li  Li3  2  0.00000000  0.50000000  0.03102000  1.0
  Li  Li4  2  0.49999000  0.50000000  0.03126000  1.0
  Ag  Ag5  4  0.24959500  0.50000000  0.09954000  1.0
  Ag  Ag6  4  0.49999500  0.25000500  0.96669000  1.0
  Sn  Sn7  4  0.25001000  0.25000000  0.03840000  1.0
  Sn  Sn8  2  0.49999500  0.50000000  0.90008000  1.0
  Sn  Sn9  2  0.49999500  0.00000000  0.90008000  1.0
