# generated using pymatgen
data_Li16Sn8Au8C
_symmetry_space_group_name_H-M   'P 1'
_cell_length_a   9.33952000
_cell_length_b   6.60404000
_cell_length_c   27.00460000
_cell_angle_alpha   90.00000000
_cell_angle_beta   90.00000000
_cell_angle_gamma   90.00000000
_symmetry_Int_Tables_number   1
_chemical_formula_structural   Li16Sn8Au8C
_chemical_formula_sum   'Li16 Sn8 Au8 C1'
_cell_volume   1665.60494023
_cell_formula_units_Z   1
loop_
 _symmetry_equiv_pos_site_id
 _symmetry_equiv_pos_as_xyz
  1  'x, y, z'
loop_
 _atom_site_type_symbol
 _atom_site_label
 _atom_site_symmetry_multiplicity
 _atom_site_fract_x
 _atom_site_fract_y
 _atom_site_fract_z
 _atom_site_occupancy
  Li  Li0  1  0.75000000  1.00000000  0.04323000  1.0
  Li  Li1  1  0.00000000  0.50000000  0.12969000  1.0
  Li  Li2  1  0.25000000  1.00000000  0.04323000  1.0
  Li  Li3  1  0.50000000  0.50000000  0.12969000  1.0
  Li  Li4  1  0.25000000  0.25000000  0.12969000  1.0
  Li  Li5  1  0.75000000  0.25000000  0.12969000  1.0
  Li  Li6  1  0.50000000  0.75000000  0.04323000  1.0
  Li  Li7  1  0.00000000  0.75000000  0.04323000  1.0
  Li  Li8  1  0.26607000  0.01905000  0.87220000  1.0
  Li  Li9  1  0.50000000  0.49491000  0.96544000  1.0
  Li  Li10  1  0.73393000  0.01905000  0.87220000  1.0
  Li  Li11  1  0.00000000  0.53207000  0.94398000  1.0
  Li  Li12  1  0.75800000  0.28064000  0.95017000  1.0
  Li  Li13  1  0.24200000  0.28064000  0.95017000  1.0
  Li  Li14  1  0.00000000  0.81144000  0.86019000  1.0
  Li  Li15  1  0.50000000  0.69704000  0.87829000  1.0
  Sn  Sn16  1  0.00000000  0.00000000  0.12969000  1.0
  Sn  Sn17  1  0.25000000  0.50000000  0.04323000  1.0
  Sn  Sn18  1  0.75000000  0.50000000  0.04323000  1.0
  Sn  Sn19  1  0.50000000  1.00000000  0.12969000  1.0
  Sn  Sn20  1  0.50000000  0.00219000  0.95711000  1.0
  Sn  Sn21  1  0.76641000  0.52886000  0.85072000  1.0
  Sn  Sn22  1  0.23359000  0.52886000  0.85072000  1.0
  Sn  Sn23  1  0.00000000  0.97824000  0.95989000  1.0
  Au  Au24  1  0.00000000  0.25000000  0.04323000  1.0
  Au  Au25  1  0.50000000  0.25000000  0.04323000  1.0
  Au  Au26  1  0.75000000  0.75000000  0.12969000  1.0
  Au  Au27  1  0.25000000  0.75000000  0.12969000  1.0
  Au  Au28  1  0.50000000  0.27484000  0.87905000  1.0
  Au  Au29  1  0.00000000  0.21196000  0.87874000  1.0
  Au  Au30  1  0.25911000  0.72906000  0.95028000  1.0
  Au  Au31  1  0.74089000  0.72906000  0.95028000  1.0
  C  C32  1  0.00000000  0.50659000  0.85001000  1.0
