# generated using pymatgen
data_Li16Sn8Au8C
_symmetry_space_group_name_H-M   Pm
_cell_length_a   6.60404000
_cell_length_b   9.33952000
_cell_length_c   27.00460000
_cell_angle_alpha   90.00000000
_cell_angle_beta   90.00000000
_cell_angle_gamma   90.00000000
_symmetry_Int_Tables_number   6
_chemical_formula_structural   Li16Sn8Au8C
_chemical_formula_sum   'Li16 Sn8 Au8 C1'
_cell_volume   1665.60494023
_cell_formula_units_Z   1
loop_
 _symmetry_equiv_pos_site_id
 _symmetry_equiv_pos_as_xyz
  1  'x, y, z'
  2  'x, -y, z'
loop_
 _atom_site_type_symbol
 _atom_site_label
 _atom_site_symmetry_multiplicity
 _atom_site_fract_x
 _atom_site_fract_y
 _atom_site_fract_z
 _atom_site_occupancy
  Li  Li0  2  -0.00000000  0.25000000  0.95677000  1.0
  Li  Li1  2  0.01905000  0.26607000  0.12780000  1.0
  Li  Li2  2  0.25000000  0.25000000  0.87031000  1.0
  Li  Li3  2  0.28064000  0.24200000  0.04983000  1.0
  Li  Li4  1  0.49491000  0.50000000  0.03456000  1.0
  Li  Li5  1  0.50000000  0.00000000  0.87031000  1.0
  Li  Li6  1  0.50000000  0.50000000  0.87031000  1.0
  Li  Li7  1  0.53207000  0.00000000  0.05602000  1.0
  Li  Li8  1  0.69704000  0.50000000  0.12171000  1.0
  Li  Li9  1  0.75000000  0.00000000  0.95677000  1.0
  Li  Li10  1  0.75000000  0.50000000  0.95677000  1.0
  Li  Li11  1  0.81144000  0.00000000  0.13981000  1.0
  Sn  Sn12  2  0.50000000  0.25000000  0.95677000  1.0
  Sn  Sn13  2  0.52886000  0.23359000  0.14928000  1.0
  Sn  Sn14  1  -0.00000000  0.50000000  0.87031000  1.0
  Sn  Sn15  1  0.00000000  0.00000000  0.87031000  1.0
  Sn  Sn16  1  0.00219000  0.50000000  0.04289000  1.0
  Sn  Sn17  1  0.97824000  0.00000000  0.04011000  1.0
  Au  Au18  2  0.72906000  0.25911000  0.04972000  1.0
  Au  Au19  2  0.75000000  0.25000000  0.87031000  1.0
  Au  Au20  1  0.21196000  0.00000000  0.12126000  1.0
  Au  Au21  1  0.25000000  0.00000000  0.95677000  1.0
  Au  Au22  1  0.25000000  0.50000000  0.95677000  1.0
  Au  Au23  1  0.27484000  0.50000000  0.12095000  1.0
  C  C24  1  0.50659000  0.00000000  0.14999000  1.0
