# generated using pymatgen
data_Na24As8CO
_symmetry_space_group_name_H-M   Pm
_cell_length_a   10.18400000
_cell_length_b   7.20118000
_cell_length_c   27.63800000
_cell_angle_alpha   90.00000000
_cell_angle_beta   90.00000000
_cell_angle_gamma   90.00000000
_symmetry_Int_Tables_number   6
_chemical_formula_structural   Na24As8CO
_chemical_formula_sum   'Na24 As8 C1 O1'
_cell_volume   2026.88295156
_cell_formula_units_Z   1
loop_
 _symmetry_equiv_pos_site_id
 _symmetry_equiv_pos_as_xyz
  1  'x, y, z'
  2  'x, -y, z'
loop_
 _atom_site_type_symbol
 _atom_site_label
 _atom_site_symmetry_multiplicity
 _atom_site_fract_x
 _atom_site_fract_y
 _atom_site_fract_z
 _atom_site_occupancy
  Na  Na0  2  0.00000000  0.25000000  0.95394000  1.0
  Na  Na1  2  0.00235000  0.28334000  0.14718000  1.0
  Na  Na2  2  0.24993000  0.25693000  0.04395000  1.0
  Na  Na3  2  0.25000000  0.25000000  0.86182000  1.0
  Na  Na4  2  0.49765000  0.28335000  0.14719000  1.0
  Na  Na5  2  0.50000000  0.25000000  0.95394000  1.0
  Na  Na6  2  0.75000000  0.25000000  0.86182000  1.0
  Na  Na7  2  0.75001000  0.24819000  0.04627000  1.0
  Na  Na8  1  0.00000000  0.50000000  0.86182000  1.0
  Na  Na9  1  0.25000000  0.00000000  0.95394000  1.0
  Na  Na10  1  0.25011000  0.00000000  0.12587000  1.0
  Na  Na11  1  0.50000000  0.50000000  0.86182000  1.0
  Na  Na12  1  0.50323000  0.50000000  0.05132000  1.0
  Na  Na13  1  0.74993000  0.00000000  0.13362000  1.0
  Na  Na14  1  0.75000000  0.00000000  0.95394000  1.0
  Na  Na15  1  0.99660000  0.50000000  0.05119000  1.0
  As  As16  1  0.00000000  0.00000000  0.86182000  1.0
  As  As17  1  0.00032000  0.00000000  0.05324000  1.0
  As  As18  1  0.24995000  0.50000000  0.13063000  1.0
  As  As19  1  0.25000000  0.50000000  0.95394000  1.0
  As  As20  1  0.49965000  0.00000000  0.05324000  1.0
  As  As21  1  0.50000000  0.00000000  0.86182000  1.0
  As  As22  1  0.74999000  0.50000000  0.13239000  1.0
  As  As23  1  0.75000000  0.50000000  0.95394000  1.0
  C  C24  1  0.25174000  0.00000000  0.21923000  1.0
  O  O25  1  0.24879000  0.00000000  0.26055000  1.0
