# generated using pymatgen
data_Li16Ag8Sn8CO
_symmetry_space_group_name_H-M   'P 1'
_cell_length_a   9.41809000
_cell_length_b   6.65960000
_cell_length_c   27.06360000
_cell_angle_alpha   90.00000000
_cell_angle_beta   90.00000000
_cell_angle_gamma   90.00000000
_symmetry_Int_Tables_number   1
_chemical_formula_structural   Li16Ag8Sn8CO
_chemical_formula_sum   'Li16 Ag8 Sn8 C1 O1'
_cell_volume   1697.44826572
_cell_formula_units_Z   1
loop_
 _symmetry_equiv_pos_site_id
 _symmetry_equiv_pos_as_xyz
  1  'x, y, z'
loop_
 _atom_site_type_symbol
 _atom_site_label
 _atom_site_symmetry_multiplicity
 _atom_site_fract_x
 _atom_site_fract_y
 _atom_site_fract_z
 _atom_site_occupancy
  Li  Li0  1  0.50000000  0.00000000  0.04350000  1.0
  Li  Li1  1  0.75000000  0.50000000  0.13050000  1.0
  Li  Li2  1  0.00000000  0.00000000  0.04350000  1.0
  Li  Li3  1  0.25000000  0.50000000  0.13050000  1.0
  Li  Li4  1  0.75000000  0.25000000  0.04350000  1.0
  Li  Li5  1  0.25000000  0.25000000  0.04350000  1.0
  Li  Li6  1  0.50000000  0.75000000  0.13050000  1.0
  Li  Li7  1  0.00000000  0.75000000  0.13050000  1.0
  Li  Li8  1  0.00000000  0.99269000  0.87253000  1.0
  Li  Li9  1  0.25117000  0.48820000  0.96340000  1.0
  Li  Li10  1  0.50000000  0.96943000  0.87192000  1.0
  Li  Li11  1  0.74883000  0.48820000  0.96340000  1.0
  Li  Li12  1  0.25956000  0.26607000  0.86934000  1.0
  Li  Li13  1  0.74044000  0.26607000  0.86934000  1.0
  Li  Li14  1  0.00000000  0.74983000  0.95305000  1.0
  Li  Li15  1  0.50000000  0.72587000  0.95317000  1.0
  Ag  Ag16  1  0.00000000  0.25000000  0.13050000  1.0
  Ag  Ag17  1  0.50000000  0.25000000  0.13050000  1.0
  Ag  Ag18  1  0.25000000  0.75000000  0.04350000  1.0
  Ag  Ag19  1  0.75000000  0.75000000  0.04350000  1.0
  Ag  Ag20  1  0.50000000  0.26775000  0.94940000  1.0
  Ag  Ag21  1  0.00000000  0.22625000  0.96186000  1.0
  Ag  Ag22  1  0.75161000  0.71260000  0.87773000  1.0
  Ag  Ag23  1  0.24839000  0.71260000  0.87773000  1.0
  Sn  Sn24  1  0.75000000  0.00000000  0.13050000  1.0
  Sn  Sn25  1  0.00000000  0.50000000  0.04350000  1.0
  Sn  Sn26  1  0.50000000  0.50000000  0.04350000  1.0
  Sn  Sn27  1  0.25000000  0.00000000  0.13050000  1.0
  Sn  Sn28  1  0.25739000  0.00127000  0.95338000  1.0
  Sn  Sn29  1  0.50000000  0.50104000  0.85681000  1.0
  Sn  Sn30  1  0.00000000  0.47321000  0.86150000  1.0
  Sn  Sn31  1  0.74261000  0.00127000  0.95338000  1.0
  C  C32  1  0.00000000  0.52616000  0.77751000  1.0
  O  O33  1  0.00000000  0.50707000  0.73521000  1.0
