# generated using pymatgen
data_Li16Ag8Sn8CO
_symmetry_space_group_name_H-M   Pm
_cell_length_a   6.65960000
_cell_length_b   9.41809000
_cell_length_c   27.06360000
_cell_angle_alpha   90.00000000
_cell_angle_beta   90.00000000
_cell_angle_gamma   90.00000000
_symmetry_Int_Tables_number   6
_chemical_formula_structural   Li16Ag8Sn8CO
_chemical_formula_sum   'Li16 Ag8 Sn8 C1 O1'
_cell_volume   1697.44826572
_cell_formula_units_Z   1
loop_
 _symmetry_equiv_pos_site_id
 _symmetry_equiv_pos_as_xyz
  1  'x, y, z'
  2  'x, -y, z'
loop_
 _atom_site_type_symbol
 _atom_site_label
 _atom_site_symmetry_multiplicity
 _atom_site_fract_x
 _atom_site_fract_y
 _atom_site_fract_z
 _atom_site_occupancy
  Li  Li0  2  0.25000000  0.25000000  0.95650000  1.0
  Li  Li1  2  0.26607000  0.25956000  0.13066000  1.0
  Li  Li2  2  0.48820000  0.25117000  0.03660000  1.0
  Li  Li3  2  0.50000000  0.25000000  0.86950000  1.0
  Li  Li4  1  0.00000000  0.00000000  0.95650000  1.0
  Li  Li5  1  0.00000000  0.50000000  0.95650000  1.0
  Li  Li6  1  0.72587000  0.50000000  0.04683000  1.0
  Li  Li7  1  0.74983000  0.00000000  0.04695000  1.0
  Li  Li8  1  0.75000000  0.00000000  0.86950000  1.0
  Li  Li9  1  0.75000000  0.50000000  0.86950000  1.0
  Li  Li10  1  0.96943000  0.50000000  0.12808000  1.0
  Li  Li11  1  0.99269000  0.00000000  0.12747000  1.0
  Ag  Ag12  2  0.71260000  0.24839000  0.12227000  1.0
  Ag  Ag13  2  0.75000000  0.25000000  0.95650000  1.0
  Ag  Ag14  1  0.22625000  0.00000000  0.03814000  1.0
  Ag  Ag15  1  0.25000000  0.00000000  0.86950000  1.0
  Ag  Ag16  1  0.25000000  0.50000000  0.86950000  1.0
  Ag  Ag17  1  0.26775000  0.50000000  0.05060000  1.0
  Sn  Sn18  2  0.00000000  0.25000000  0.86950000  1.0
  Sn  Sn19  2  0.00127000  0.25739000  0.04662000  1.0
  Sn  Sn20  1  0.47321000  0.00000000  0.13850000  1.0
  Sn  Sn21  1  0.50000000  0.00000000  0.95650000  1.0
  Sn  Sn22  1  0.50000000  0.50000000  0.95650000  1.0
  Sn  Sn23  1  0.50104000  0.50000000  0.14319000  1.0
  C  C24  1  0.52616000  0.00000000  0.22249000  1.0
  O  O25  1  0.50707000  0.00000000  0.26479000  1.0
