data_image0
_chemical_formula_structural       Li4In4Ag4Pd4CO
_chemical_formula_sum              "Li4 In4 Ag4 Pd4 C1 O1"
_cell_length_a       6.52372
_cell_length_b       6.52372
_cell_length_c       24.8928
_cell_angle_alpha    90
_cell_angle_beta     90
_cell_angle_gamma    90

_space_group_name_H-M_alt    "P 1"
_space_group_IT_number       1

loop_
  _space_group_symop_operation_xyz
  'x, y, z'

loop_
  _atom_site_type_symbol
  _atom_site_label
  _atom_site_symmetry_multiplicity
  _atom_site_fract_x
  _atom_site_fract_y
  _atom_site_fract_z
  _atom_site_occupancy
  Li  Li1       1.0  0.25000  0.25000  0.96724  1.0000
  Li  Li2       1.0  0.24986  0.75122  0.09837  1.0000
  Li  Li3       1.0  0.75029  0.25044  0.09845  1.0000
  Li  Li4       1.0  0.75000  0.75000  0.96724  1.0000
  In  In1       1.0  0.75000  0.25000  0.96724  1.0000
  In  In2       1.0  0.75309  0.75238  0.10414  1.0000
  In  In3       1.0  0.25161  0.25315  0.10485  1.0000
  In  In4       1.0  0.25000  0.75000  0.96724  1.0000
  Ag  Ag1       1.0  0.00000  0.00000  0.90172  1.0000
  Ag  Ag2       1.0  0.00039  0.49975  0.03445  1.0000
  Ag  Ag3       1.0  0.49893  0.00111  0.03490  1.0000
  Ag  Ag4       1.0  0.50000  0.50000  0.90172  1.0000
  Pd  Pd1       1.0  0.00000  0.50000  0.90172  1.0000
  Pd  Pd2       1.0  0.00279  0.00271  0.03773  1.0000
  Pd  Pd3       1.0  0.50139  0.50142  0.03776  1.0000
  Pd  Pd4       1.0  0.50000  0.00000  0.90172  1.0000
  C   C1        1.0  0.16812  0.27045  0.26485  1.0000
  O   O1        1.0  0.30356  0.23877  0.29235  1.0000
