# generated using pymatgen
data_Li4In4Ag4Pd4CO
_symmetry_space_group_name_H-M   'P 1'
_cell_length_a   6.52372000
_cell_length_b   6.52372000
_cell_length_c   24.89280000
_cell_angle_alpha   90.00000000
_cell_angle_beta   90.00000000
_cell_angle_gamma   90.00000000
_symmetry_Int_Tables_number   1
_chemical_formula_structural   Li4In4Ag4Pd4CO
_chemical_formula_sum   'Li4 In4 Ag4 Pd4 C1 O1'
_cell_volume   1059.41074945
_cell_formula_units_Z   1
loop_
 _symmetry_equiv_pos_site_id
 _symmetry_equiv_pos_as_xyz
  1  'x, y, z'
loop_
 _atom_site_type_symbol
 _atom_site_label
 _atom_site_symmetry_multiplicity
 _atom_site_fract_x
 _atom_site_fract_y
 _atom_site_fract_z
 _atom_site_occupancy
  Li  Li0  1  0.75000000  0.75000000  0.96724000  1.0
  Li  Li1  1  0.75014000  0.24878000  0.09837000  1.0
  Li  Li2  1  0.24971000  0.74956000  0.09845000  1.0
  Li  Li3  1  0.25000000  0.25000000  0.96724000  1.0
  In  In4  1  0.25000000  0.75000000  0.96724000  1.0
  In  In5  1  0.24691000  0.24762000  0.10414000  1.0
  In  In6  1  0.74839000  0.74685000  0.10485000  1.0
  In  In7  1  0.75000000  0.25000000  0.96724000  1.0
  Ag  Ag8  1  0.00000000  0.00000000  0.90172000  1.0
  Ag  Ag9  1  0.99961000  0.50025000  0.03445000  1.0
  Ag  Ag10  1  0.50107000  0.99889000  0.03490000  1.0
  Ag  Ag11  1  0.50000000  0.50000000  0.90172000  1.0
  Pd  Pd12  1  0.00000000  0.50000000  0.90172000  1.0
  Pd  Pd13  1  0.99721000  0.99729000  0.03773000  1.0
  Pd  Pd14  1  0.49861000  0.49858000  0.03776000  1.0
  Pd  Pd15  1  0.50000000  0.00000000  0.90172000  1.0
  C  C16  1  0.83188000  0.72955000  0.26485000  1.0
  O  O17  1  0.69644000  0.76123000  0.29235000  1.0
