# generated using pymatgen
data_Li4In4Ag4Pd4CO
_symmetry_space_group_name_H-M   P1
_cell_length_a   6.52372000
_cell_length_b   6.52372000
_cell_length_c   24.89280000
_cell_angle_alpha   90.00000000
_cell_angle_beta   90.00000000
_cell_angle_gamma   90.00000000
_symmetry_Int_Tables_number   1
_chemical_formula_structural   Li4In4Ag4Pd4CO
_chemical_formula_sum   'Li4 In4 Ag4 Pd4 C1 O1'
_cell_volume   1059.41074945
_cell_formula_units_Z   1
loop_
 _symmetry_equiv_pos_site_id
 _symmetry_equiv_pos_as_xyz
  1  'x, y, z'
loop_
 _atom_site_type_symbol
 _atom_site_label
 _atom_site_symmetry_multiplicity
 _atom_site_fract_x
 _atom_site_fract_y
 _atom_site_fract_z
 _atom_site_occupancy
  Li  Li0  1  0.24986000  0.75122000  0.09837000  1.0
  Li  Li1  1  0.25000000  0.25000000  0.96724000  1.0
  Li  Li2  1  0.75000000  0.75000000  0.96724000  1.0
  Li  Li3  1  0.75029000  0.25044000  0.09845000  1.0
  In  In4  1  0.25000000  0.75000000  0.96724000  1.0
  In  In5  1  0.25161000  0.25315000  0.10485000  1.0
  In  In6  1  0.75000000  0.25000000  0.96724000  1.0
  In  In7  1  0.75309000  0.75238000  0.10414000  1.0
  Ag  Ag8  1  0.00000000  0.00000000  0.90172000  1.0
  Ag  Ag9  1  0.00039000  0.49975000  0.03445000  1.0
  Ag  Ag10  1  0.49893000  0.00111000  0.03490000  1.0
  Ag  Ag11  1  0.50000000  0.50000000  0.90172000  1.0
  Pd  Pd12  1  0.00000000  0.50000000  0.90172000  1.0
  Pd  Pd13  1  0.00279000  0.00271000  0.03773000  1.0
  Pd  Pd14  1  0.50000000  0.00000000  0.90172000  1.0
  Pd  Pd15  1  0.50139000  0.50142000  0.03776000  1.0
  C  C16  1  0.16812000  0.27045000  0.26485000  1.0
  O  O17  1  0.30356000  0.23877000  0.29235000  1.0
