# generated using pymatgen
data_Li4Mg4In4Pb4CO
_symmetry_space_group_name_H-M   'P 1'
_cell_length_a   7.11424000
_cell_length_b   7.11424000
_cell_length_c   25.33570000
_cell_angle_alpha   90.00000000
_cell_angle_beta   90.00000000
_cell_angle_gamma   90.00000000
_symmetry_Int_Tables_number   1
_chemical_formula_structural   Li4Mg4In4Pb4CO
_chemical_formula_sum   'Li4 Mg4 In4 Pb4 C1 O1'
_cell_volume   1282.30085574
_cell_formula_units_Z   1
loop_
 _symmetry_equiv_pos_site_id
 _symmetry_equiv_pos_as_xyz
  1  'x, y, z'
loop_
 _atom_site_type_symbol
 _atom_site_label
 _atom_site_symmetry_multiplicity
 _atom_site_fract_x
 _atom_site_fract_y
 _atom_site_fract_z
 _atom_site_occupancy
  Li  Li0  1  0.74150000  0.24152000  0.03780000  1.0
  Li  Li1  1  0.75000000  0.75000000  0.89470000  1.0
  Li  Li2  1  0.25000000  0.25000000  0.89470000  1.0
  Li  Li3  1  0.25849000  0.75872000  0.03778000  1.0
  Mg  Mg4  1  0.25941000  0.24044000  0.03978000  1.0
  Mg  Mg5  1  0.25000000  0.75000000  0.89470000  1.0
  Mg  Mg6  1  0.75000000  0.25000000  0.89470000  1.0
  Mg  Mg7  1  0.74102000  0.75922000  0.03982000  1.0
  In  In8  1  0.00017000  0.00012000  0.11587000  1.0
  In  In9  1  0.00000000  0.50000000  0.96490000  1.0
  In  In10  1  0.50000000  0.00000000  0.96490000  1.0
  In  In11  1  0.49962000  0.49992000  0.11557000  1.0
  Pb  Pb12  1  0.00008000  0.49994000  0.10608000  1.0
  Pb  Pb13  1  0.00000000  0.00000000  0.96490000  1.0
  Pb  Pb14  1  0.50000000  0.50000000  0.96490000  1.0
  Pb  Pb15  1  0.50005000  0.99998000  0.12146000  1.0
  C  C16  1  0.99918000  0.49840000  0.25617000  1.0
  O  O17  1  0.00018000  0.50048000  0.30097000  1.0
