# generated using pymatgen
data_Mg8Ni16Sb8CO
_symmetry_space_group_name_H-M   'P 1'
_cell_length_a   6.22749000
_cell_length_b   8.80700000
_cell_length_c   26.60530000
_cell_angle_alpha   90.00000000
_cell_angle_beta   90.00000000
_cell_angle_gamma   90.00000000
_symmetry_Int_Tables_number   1
_chemical_formula_structural   Mg8Ni16Sb8CO
_chemical_formula_sum   'Mg8 Ni16 Sb8 C1 O1'
_cell_volume   1459.18109901
_cell_formula_units_Z   1
loop_
 _symmetry_equiv_pos_site_id
 _symmetry_equiv_pos_as_xyz
  1  'x, y, z'
loop_
 _atom_site_type_symbol
 _atom_site_label
 _atom_site_symmetry_multiplicity
 _atom_site_fract_x
 _atom_site_fract_y
 _atom_site_fract_z
 _atom_site_occupancy
  Mg  Mg0  1  0.00000000  0.00000000  0.87587000  1.0
  Mg  Mg1  1  0.50000000  0.25000000  0.95862000  1.0
  Mg  Mg2  1  0.50000000  0.75000000  0.95862000  1.0
  Mg  Mg3  1  0.00000000  0.50000000  0.87587000  1.0
  Mg  Mg4  1  0.99999000  0.49918000  0.03913000  1.0
  Mg  Mg5  1  0.49999000  0.74996000  0.13313000  1.0
  Mg  Mg6  1  0.49999000  0.25004000  0.13294000  1.0
  Mg  Mg7  1  0.99999000  0.00083000  0.03914000  1.0
  Ni  Ni8  1  0.25000000  0.00000000  0.95862000  1.0
  Ni  Ni9  1  0.75000000  0.50000000  0.95862000  1.0
  Ni  Ni10  1  0.75000000  0.00000000  0.95862000  1.0
  Ni  Ni11  1  0.25000000  0.50000000  0.95862000  1.0
  Ni  Ni12  1  0.75000000  0.75000000  0.87587000  1.0
  Ni  Ni13  1  0.25000000  0.25000000  0.87587000  1.0
  Ni  Ni14  1  0.25000000  0.75000000  0.87587000  1.0
  Ni  Ni15  1  0.75000000  0.25000000  0.87587000  1.0
  Ni  Ni16  1  0.23878000  0.50008000  0.11672000  1.0
  Ni  Ni17  1  0.76107000  0.99992000  0.11674000  1.0
  Ni  Ni18  1  0.76119000  0.50008000  0.11673000  1.0
  Ni  Ni19  1  0.23891000  0.99992000  0.11673000  1.0
  Ni  Ni20  1  0.74900000  0.25000000  0.04509000  1.0
  Ni  Ni21  1  0.24759000  0.75001000  0.04599000  1.0
  Ni  Ni22  1  0.25100000  0.25001000  0.04508000  1.0
  Ni  Ni23  1  0.75240000  0.75000000  0.04598000  1.0
  Sb  Sb24  1  0.00000000  0.75000000  0.95862000  1.0
  Sb  Sb25  1  0.50000000  0.00000000  0.87587000  1.0
  Sb  Sb26  1  0.00000000  0.25000000  0.95862000  1.0
  Sb  Sb27  1  0.50000000  0.50000000  0.87587000  1.0
  Sb  Sb28  1  0.99999000  0.24998000  0.12972000  1.0
  Sb  Sb29  1  0.49999000  0.50066000  0.04224000  1.0
  Sb  Sb30  1  0.99999000  0.75002000  0.13099000  1.0
  Sb  Sb31  1  0.50000000  0.99934000  0.04223000  1.0
  C  C32  1  0.00040000  0.24955000  0.28361000  1.0
  O  O33  1  0.99993000  0.25006000  0.32632000  1.0
