# generated using pymatgen
data_Y4Pd12CO
_symmetry_space_group_name_H-M   P1
_cell_length_a   5.89265000
_cell_length_b   8.33346000
_cell_length_c   24.41950000
_cell_angle_alpha   90.00000000
_cell_angle_beta   90.00000000
_cell_angle_gamma   90.00000000
_symmetry_Int_Tables_number   1
_chemical_formula_structural   Y4Pd12CO
_chemical_formula_sum   'Y4 Pd12 C1 O1'
_cell_volume   1199.14794906
_cell_formula_units_Z   1
loop_
 _symmetry_equiv_pos_site_id
 _symmetry_equiv_pos_as_xyz
  1  'x, y, z'
loop_
 _atom_site_type_symbol
 _atom_site_label
 _atom_site_symmetry_multiplicity
 _atom_site_fract_x
 _atom_site_fract_y
 _atom_site_fract_z
 _atom_site_occupancy
  Y  Y0  1  0.00000000  0.00000000  0.09049000  1.0
  Y  Y1  1  0.00000000  0.50000000  0.09049000  1.0
  Y  Y2  1  0.49774000  0.00174000  0.97087000  1.0
  Y  Y3  1  0.49843000  0.49805000  0.97067000  1.0
  Pd  Pd4  1  0.23370000  0.24999000  0.91467000  1.0
  Pd  Pd5  1  0.25000000  0.25000000  0.03016000  1.0
  Pd  Pd6  1  0.25000000  0.75000000  0.03016000  1.0
  Pd  Pd7  1  0.28408000  0.75005000  0.90796000  1.0
  Pd  Pd8  1  0.50000000  0.00000000  0.09049000  1.0
  Pd  Pd9  1  0.50000000  0.50000000  0.09049000  1.0
  Pd  Pd10  1  0.74401000  0.25011000  0.91468000  1.0
  Pd  Pd11  1  0.75000000  0.25000000  0.03016000  1.0
  Pd  Pd12  1  0.75000000  0.75000000  0.03016000  1.0
  Pd  Pd13  1  0.75999000  0.74979000  0.91114000  1.0
  Pd  Pd14  1  0.99240000  0.50066000  0.97401000  1.0
  Pd  Pd15  1  0.99354000  0.99946000  0.97400000  1.0
  C  C16  1  0.54556000  0.75032000  0.84861000  1.0
  O  O17  1  0.54962000  0.75033000  0.80073000  1.0
