# generated using pymatgen
data_Li16Cu8Sn8CO
_symmetry_space_group_name_H-M   Pm
_cell_length_a   6.34973000
_cell_length_b   8.97987000
_cell_length_c   26.73490000
_cell_angle_alpha   90.00000000
_cell_angle_beta   90.00000000
_cell_angle_gamma   90.00000000
_symmetry_Int_Tables_number   6
_chemical_formula_structural   Li16Cu8Sn8CO
_chemical_formula_sum   'Li16 Cu8 Sn8 C1 O1'
_cell_volume   1524.41731254
_cell_formula_units_Z   1
loop_
 _symmetry_equiv_pos_site_id
 _symmetry_equiv_pos_as_xyz
  1  'x, y, z'
  2  'x, -y, z'
loop_
 _atom_site_type_symbol
 _atom_site_label
 _atom_site_symmetry_multiplicity
 _atom_site_fract_x
 _atom_site_fract_y
 _atom_site_fract_z
 _atom_site_occupancy
  Li  Li0  2  0.00000000  0.25000000  0.95801000  1.0
  Li  Li1  2  0.74567000  0.24942000  0.04326000  1.0
  Li  Li2  2  0.75000000  0.25000000  0.87404000  1.0
  Li  Li3  2  0.98581000  0.25611000  0.12448000  1.0
  Li  Li4  1  0.24784000  0.00000000  0.14430000  1.0
  Li  Li5  1  0.25000000  0.00000000  0.95801000  1.0
  Li  Li6  1  0.25000000  0.50000000  0.95801000  1.0
  Li  Li7  1  0.27490000  0.50000000  0.14935000  1.0
  Li  Li8  1  0.48294000  0.50000000  0.04067000  1.0
  Li  Li9  1  0.48952000  0.00000000  0.04714000  1.0
  Li  Li10  1  0.50000000  0.00000000  0.87404000  1.0
  Li  Li11  1  0.50000000  0.50000000  0.87404000  1.0
  Cu  Cu12  2  0.25000000  0.25000000  0.87404000  1.0
  Cu  Cu13  2  0.25060000  0.24753000  0.04079000  1.0
  Cu  Cu14  1  0.71330000  0.50000000  0.11664000  1.0
  Cu  Cu15  1  0.74239000  0.00000000  0.12528000  1.0
  Cu  Cu16  1  0.75000000  0.00000000  0.95801000  1.0
  Cu  Cu17  1  0.75000000  0.50000000  0.95801000  1.0
  Sn  Sn18  2  0.48943000  0.24868000  0.12721000  1.0
  Sn  Sn19  2  0.50000000  0.25000000  0.95801000  1.0
  Sn  Sn20  1  0.00000000  0.00000000  0.87404000  1.0
  Sn  Sn21  1  0.00000000  0.50000000  0.87404000  1.0
  Sn  Sn22  1  0.00792000  0.00000000  0.04532000  1.0
  Sn  Sn23  1  0.01420000  0.50000000  0.04769000  1.0
  C  C24  1  0.84400000  0.00000000  0.19056000  1.0
  O  O25  1  0.86773000  0.00000000  0.23364000  1.0
