# generated using pymatgen
data_Li4Al4Ag4Pd4CO
_symmetry_space_group_name_H-M   P2
_cell_length_a   6.21941000
_cell_length_b   24.66460000
_cell_length_c   6.21941000
_cell_angle_alpha   90.00000000
_cell_angle_beta   90.00000000
_cell_angle_gamma   90.00000000
_symmetry_Int_Tables_number   3
_chemical_formula_structural   Li4Al4Ag4Pd4CO
_chemical_formula_sum   'Li4 Al4 Ag4 Pd4 C1 O1'
_cell_volume   954.05289093
_cell_formula_units_Z   1
loop_
 _symmetry_equiv_pos_site_id
 _symmetry_equiv_pos_as_xyz
  1  'x, y, z'
  2  '-x, y, -z'
loop_
 _atom_site_type_symbol
 _atom_site_label
 _atom_site_symmetry_multiplicity
 _atom_site_fract_x
 _atom_site_fract_y
 _atom_site_fract_z
 _atom_site_occupancy
  Li  Li0  2  0.24876000  0.03372000  0.24971000  1.0
  Li  Li1  2  0.25000000  0.90544000  0.75000000  1.0
  Al  Al2  2  0.24818000  0.03289000  0.74816000  1.0
  Al  Al3  2  0.25000000  0.90544000  0.25000000  1.0
  Ag  Ag4  1  0.00000000  0.09826000  0.00000000  1.0
  Ag  Ag5  1  0.00000000  0.96848000  0.50000000  1.0
  Ag  Ag6  1  0.50000000  0.09814000  0.50000000  1.0
  Ag  Ag7  1  0.50000000  0.96848000  0.00000000  1.0
  Pd  Pd8  1  0.00000000  0.08830000  0.50000000  1.0
  Pd  Pd9  1  0.00000000  0.96848000  0.00000000  1.0
  Pd  Pd10  1  0.50000000  0.09249000  0.00000000  1.0
  Pd  Pd11  1  0.50000000  0.96848000  0.50000000  1.0
  C  C12  1  0.50000000  0.17316000  0.00000000  1.0
  O  O13  1  0.50000000  0.21974000  0.00000000  1.0
