# generated using pymatgen
data_Li8Mg8Cu8Ge8C
_symmetry_space_group_name_H-M   Pm
_cell_length_a   6.17522000
_cell_length_b   8.73308000
_cell_length_c   26.54980000
_cell_angle_alpha   90.00000000
_cell_angle_beta   90.00000000
_cell_angle_gamma   90.00000000
_symmetry_Int_Tables_number   6
_chemical_formula_structural   Li8Mg8Cu8Ge8C
_chemical_formula_sum   'Li8 Mg8 Cu8 Ge8 C1'
_cell_volume   1431.79594113
_cell_formula_units_Z   1
loop_
 _symmetry_equiv_pos_site_id
 _symmetry_equiv_pos_as_xyz
  1  'x, y, z'
  2  'x, -y, z'
loop_
 _atom_site_type_symbol
 _atom_site_label
 _atom_site_symmetry_multiplicity
 _atom_site_fract_x
 _atom_site_fract_y
 _atom_site_fract_z
 _atom_site_occupancy
  Li  Li0  2  0.50000000  0.25001000  0.87665000  1.0
  Li  Li1  2  0.51394000  0.25172000  0.04419000  1.0
  Li  Li2  1  0.00000000  0.00000000  0.95888000  1.0
  Li  Li3  1  0.00000000  0.50000000  0.95888000  1.0
  Li  Li4  1  0.07873000  0.00000000  0.16409000  1.0
  Li  Li5  1  0.11438000  0.50000000  0.16733000  1.0
  Mg  Mg6  2  0.75000000  0.24999000  0.95888000  1.0
  Mg  Mg7  2  0.79071000  0.25126000  0.13249000  1.0
  Mg  Mg8  1  0.23283000  0.50000000  0.04946000  1.0
  Mg  Mg9  1  0.24033000  0.00000000  0.05130000  1.0
  Mg  Mg10  1  0.25000000  0.00000000  0.87665000  1.0
  Mg  Mg11  1  0.25000000  0.50000000  0.87665000  1.0
  Cu  Cu12  2  0.00000000  0.24999000  0.87665000  1.0
  Cu  Cu13  2  0.99973000  0.25243000  0.03768000  1.0
  Cu  Cu14  1  0.47403000  0.00000000  0.13212000  1.0
  Cu  Cu15  1  0.50000000  0.00000000  0.95888000  1.0
  Cu  Cu16  1  0.50000000  0.50000000  0.95888000  1.0
  Cu  Cu17  1  0.51303000  0.50000000  0.12099000  1.0
  Ge  Ge18  2  0.25000000  0.24999000  0.95888000  1.0
  Ge  Ge19  2  0.26978000  0.25757000  0.12594000  1.0
  Ge  Ge20  1  0.75000000  0.00000000  0.87665000  1.0
  Ge  Ge21  1  0.75000000  0.50000000  0.87665000  1.0
  Ge  Ge22  1  0.76338000  0.50000000  0.04443000  1.0
  Ge  Ge23  1  0.78361000  0.00000000  0.05084000  1.0
  C  C24  1  0.78631000  0.00000000  0.12828000  1.0
