# generated using pymatgen
data_Li8Mg8In8Au8CO
_symmetry_space_group_name_H-M   'P 1'
_cell_length_a   6.64779000
_cell_length_b   9.40140000
_cell_length_c   27.05110000
_cell_angle_alpha   90.00000000
_cell_angle_beta   90.00000000
_cell_angle_gamma   90.00000000
_symmetry_Int_Tables_number   1
_chemical_formula_structural   Li8Mg8In8Au8CO
_chemical_formula_sum   'Li8 Mg8 In8 Au8 C1 O1'
_cell_volume   1690.65406349
_cell_formula_units_Z   1
loop_
 _symmetry_equiv_pos_site_id
 _symmetry_equiv_pos_as_xyz
  1  'x, y, z'
loop_
 _atom_site_type_symbol
 _atom_site_label
 _atom_site_symmetry_multiplicity
 _atom_site_fract_x
 _atom_site_fract_y
 _atom_site_fract_z
 _atom_site_occupancy
  Li  Li0  1  1.00000000  0.25000000  0.95656000  1.0
  Li  Li1  1  1.00000000  0.75000000  0.95656000  1.0
  Li  Li2  1  0.50000000  0.50000000  0.86967000  1.0
  Li  Li3  1  0.50000000  0.00000000  0.86967000  1.0
  Li  Li4  1  0.01578000  0.74941000  0.14776000  1.0
  Li  Li5  1  0.01579000  0.25057000  0.14777000  1.0
  Li  Li6  1  0.49413000  0.00001000  0.04930000  1.0
  Li  Li7  1  0.48279000  0.50000000  0.04976000  1.0
  Mg  Mg8  1  0.75000000  0.00000000  0.95656000  1.0
  Mg  Mg9  1  0.75000000  0.50000000  0.95656000  1.0
  Mg  Mg10  1  0.25000000  0.25000000  0.86967000  1.0
  Mg  Mg11  1  0.25000000  0.75000000  0.86967000  1.0
  Mg  Mg12  1  0.74209000  0.49998000  0.13638000  1.0
  Mg  Mg13  1  0.74254000  0.99999000  0.13669000  1.0
  Mg  Mg14  1  0.24239000  0.75237000  0.04764000  1.0
  Mg  Mg15  1  0.24238000  0.24764000  0.04765000  1.0
  In  In16  1  0.25000000  0.00000000  0.95656000  1.0
  In  In17  1  0.25000000  0.50000000  0.95656000  1.0
  In  In18  1  0.75000000  0.25000000  0.86967000  1.0
  In  In19  1  0.75000000  0.75000000  0.86967000  1.0
  In  In20  1  0.24502000  0.49999000  0.14746000  1.0
  In  In21  1  0.24193000  0.99999000  0.14470000  1.0
  In  In22  1  0.75467000  0.74786000  0.04767000  1.0
  In  In23  1  0.75467000  0.25214000  0.04767000  1.0
  Au  Au24  1  0.00000000  0.00000000  0.86967000  1.0
  Au  Au25  1  0.00000000  0.50000000  0.86967000  1.0
  Au  Au26  1  0.50000000  0.75000000  0.95656000  1.0
  Au  Au27  1  0.50000000  0.25000000  0.95656000  1.0
  Au  Au28  1  0.01284000  0.50000000  0.04552000  1.0
  Au  Au29  1  0.00365000  0.00000000  0.04417000  1.0
  Au  Au30  1  0.49215000  0.24983000  0.13004000  1.0
  Au  Au31  1  0.49215000  0.75014000  0.13003000  1.0
  C  C32  1  0.11045000  0.00016000  0.28912000  1.0
  O  O33  1  0.27049000  0.99998000  0.30381000  1.0
