# generated using pymatgen
data_ScAlCuPd
_symmetry_space_group_name_H-M   Pm
_cell_length_a   6.32596000
_cell_length_b   4.47313000
_cell_length_c   26.70970000
_cell_angle_alpha   90.00000000
_cell_angle_beta   90.00000000
_cell_angle_gamma   90.00000000
_symmetry_Int_Tables_number   6
_chemical_formula_structural   ScAlCuPd
_chemical_formula_sum   'Sc4 Al4 Cu4 Pd4'
_cell_volume   755.80014621
_cell_formula_units_Z   4
loop_
 _symmetry_equiv_pos_site_id
 _symmetry_equiv_pos_as_xyz
  1  'x, y, z'
  2  'x, -y, z'
loop_
 _atom_site_type_symbol
 _atom_site_label
 _atom_site_symmetry_multiplicity
 _atom_site_fract_x
 _atom_site_fract_y
 _atom_site_fract_z
 _atom_site_occupancy
  Sc  Sc0  1  0.00000000  0.50000000  0.04187000  1.0
  Sc  Sc1  1  0.50000000  0.00000000  0.12560000  1.0
  Sc  Sc2  1  0.50026000  0.00000000  0.95965000  1.0
  Sc  Sc3  1  0.99945000  0.50000000  0.86878000  1.0
  Al  Al4  1  0.00000000  0.00000000  0.12560000  1.0
  Al  Al5  1  0.50000000  0.50000000  0.04187000  1.0
  Al  Al6  1  0.50131000  0.50000000  0.87854000  1.0
  Al  Al7  1  0.99799000  0.00000000  0.95491000  1.0
  Cu  Cu8  1  0.25000000  0.00000000  0.04187000  1.0
  Cu  Cu9  1  0.26896000  0.00000000  0.87694000  1.0
  Cu  Cu10  1  0.75000000  0.50000000  0.12560000  1.0
  Cu  Cu11  1  0.76592000  0.50000000  0.95591000  1.0
  Pd  Pd12  1  0.23335000  0.50000000  0.95612000  1.0
  Pd  Pd13  1  0.25000000  0.50000000  0.12560000  1.0
  Pd  Pd14  1  0.73163000  0.00000000  0.87709000  1.0
  Pd  Pd15  1  0.75000000  0.00000000  0.04187000  1.0
