# generated using pymatgen
data_Li8Mg8Ag8Pd8C
_symmetry_space_group_name_H-M   Pm
_cell_length_a   6.38329000
_cell_length_b   9.02734000
_cell_length_c   26.77050000
_cell_angle_alpha   90.00000000
_cell_angle_beta   90.00000000
_cell_angle_gamma   90.00000000
_symmetry_Int_Tables_number   6
_chemical_formula_structural   Li8Mg8Ag8Pd8C
_chemical_formula_sum   'Li8 Mg8 Ag8 Pd8 C1'
_cell_volume   1542.62674937
_cell_formula_units_Z   1
loop_
 _symmetry_equiv_pos_site_id
 _symmetry_equiv_pos_as_xyz
  1  'x, y, z'
  2  'x, -y, z'
loop_
 _atom_site_type_symbol
 _atom_site_label
 _atom_site_symmetry_multiplicity
 _atom_site_fract_x
 _atom_site_fract_y
 _atom_site_fract_z
 _atom_site_occupancy
  Li  Li0  2  0.75000000  0.25000000  0.95785000  1.0
  Li  Li1  2  0.76133000  0.26174000  0.13374000  1.0
  Li  Li2  1  0.25000000  0.00000000  0.87355000  1.0
  Li  Li3  1  0.25000000  0.50000000  0.87355000  1.0
  Li  Li4  1  0.25064000  0.50000000  0.04155000  1.0
  Li  Li5  1  0.25880000  0.00000000  0.04700000  1.0
  Mg  Mg6  2  0.24424000  0.24050000  0.13718000  1.0
  Mg  Mg7  2  0.25000000  0.25000000  0.95785000  1.0
  Mg  Mg8  1  0.74253000  0.00000000  0.03820000  1.0
  Mg  Mg9  1  0.75000000  0.00000000  0.87355000  1.0
  Mg  Mg10  1  0.75000000  0.50000000  0.87355000  1.0
  Mg  Mg11  1  0.75225000  0.50000000  0.04263000  1.0
  Ag  Ag12  2  0.00000000  0.25000000  0.87355000  1.0
  Ag  Ag13  2  0.00641000  0.24710000  0.04538000  1.0
  Ag  Ag14  1  0.48638000  0.50000000  0.12455000  1.0
  Ag  Ag15  1  0.50000000  0.00000000  0.95785000  1.0
  Ag  Ag16  1  0.50000000  0.50000000  0.95785000  1.0
  Ag  Ag17  1  0.54645000  0.00000000  0.13055000  1.0
  Pd  Pd18  2  0.49881000  0.25035000  0.04655000  1.0
  Pd  Pd19  2  0.50000000  0.25000000  0.87355000  1.0
  Pd  Pd20  1  0.00000000  0.00000000  0.95785000  1.0
  Pd  Pd21  1  0.00000000  0.50000000  0.95785000  1.0
  Pd  Pd22  1  0.02093000  0.50000000  0.12063000  1.0
  Pd  Pd23  1  0.96891000  0.00000000  0.12135000  1.0
  C  C24  1  0.23370000  0.00000000  0.15612000  1.0
