# generated using pymatgen
data_Al8Cu24C
_symmetry_space_group_name_H-M   Pm
_cell_length_a   5.88044000
_cell_length_b   8.31620000
_cell_length_c   26.23710000
_cell_angle_alpha   90.00000000
_cell_angle_beta   90.00000000
_cell_angle_gamma   90.00000000
_symmetry_Int_Tables_number   6
_chemical_formula_structural   Al8Cu24C
_chemical_formula_sum   'Al8 Cu24 C1'
_cell_volume   1283.07067450
_cell_formula_units_Z   1
loop_
 _symmetry_equiv_pos_site_id
 _symmetry_equiv_pos_as_xyz
  1  'x, y, z'
  2  'x, -y, z'
loop_
 _atom_site_type_symbol
 _atom_site_label
 _atom_site_symmetry_multiplicity
 _atom_site_fract_x
 _atom_site_fract_y
 _atom_site_fract_z
 _atom_site_occupancy
  Al  Al0  2  0.00000000  0.25000000  0.88114000  1.0
  Al  Al1  2  0.00277000  0.25117000  0.04049000  1.0
  Al  Al2  1  0.46872000  0.50000000  0.12156000  1.0
  Al  Al3  1  0.50000000  0.00000000  0.96038000  1.0
  Al  Al4  1  0.50000000  0.50000000  0.96038000  1.0
  Al  Al5  1  0.55587000  0.00000000  0.12138000  1.0
  Cu  Cu6  2  0.25000000  0.25000000  0.96038000  1.0
  Cu  Cu7  2  0.25051000  0.23175000  0.12289000  1.0
  Cu  Cu8  2  0.49635000  0.25002000  0.03930000  1.0
  Cu  Cu9  2  0.50000000  0.25000000  0.88114000  1.0
  Cu  Cu10  2  0.74868000  0.27307000  0.11838000  1.0
  Cu  Cu11  2  0.75000000  0.25000000  0.96038000  1.0
  Cu  Cu12  1  0.00000000  0.00000000  0.96038000  1.0
  Cu  Cu13  1  0.00000000  0.50000000  0.96038000  1.0
  Cu  Cu14  1  0.03126000  0.50000000  0.11543000  1.0
  Cu  Cu15  1  0.25000000  0.00000000  0.88114000  1.0
  Cu  Cu16  1  0.25000000  0.50000000  0.88114000  1.0
  Cu  Cu17  1  0.25138000  0.00000000  0.04250000  1.0
  Cu  Cu18  1  0.25567000  0.50000000  0.03614000  1.0
  Cu  Cu19  1  0.74494000  0.50000000  0.04161000  1.0
  Cu  Cu20  1  0.74832000  0.00000000  0.03572000  1.0
  Cu  Cu21  1  0.75000000  0.00000000  0.88114000  1.0
  Cu  Cu22  1  0.75000000  0.50000000  0.88114000  1.0
  Cu  Cu23  1  0.95197000  0.00000000  0.11876000  1.0
  C  C24  1  0.24842000  0.00000000  0.14128000  1.0
