# generated using pymatgen
data_Li8Cu8Sb8Pd8CO
_symmetry_space_group_name_H-M   Pm
_cell_length_a   6.37250000
_cell_length_b   9.01208000
_cell_length_c   26.75910000
_cell_angle_alpha   90.00000000
_cell_angle_beta   90.00000000
_cell_angle_gamma   90.00000000
_symmetry_Int_Tables_number   6
_chemical_formula_structural   Li8Cu8Sb8Pd8CO
_chemical_formula_sum   'Li8 Cu8 Sb8 Pd8 C1 O1'
_cell_volume   1536.76119292
_cell_formula_units_Z   1
loop_
 _symmetry_equiv_pos_site_id
 _symmetry_equiv_pos_as_xyz
  1  'x, y, z'
  2  'x, -y, z'
loop_
 _atom_site_type_symbol
 _atom_site_label
 _atom_site_symmetry_multiplicity
 _atom_site_fract_x
 _atom_site_fract_y
 _atom_site_fract_z
 _atom_site_occupancy
  Li  Li0  2  0.24352000  0.25138000  0.12945000  1.0
  Li  Li1  2  0.25000000  0.24999000  0.95790000  1.0
  Li  Li2  1  0.73887000  0.00000000  0.03597000  1.0
  Li  Li3  1  0.75000000  0.00000000  0.87371000  1.0
  Li  Li4  1  0.75000000  0.50000000  0.87371000  1.0
  Li  Li5  1  0.75008000  0.50000000  0.03471000  1.0
  Cu  Cu6  2  0.00000000  0.24999000  0.87371000  1.0
  Cu  Cu7  2  0.98259000  0.24797000  0.04938000  1.0
  Cu  Cu8  1  0.50000000  0.00000000  0.95790000  1.0
  Cu  Cu9  1  0.50000000  0.50000000  0.95790000  1.0
  Cu  Cu10  1  0.52133000  0.00000000  0.12390000  1.0
  Cu  Cu11  1  0.54882000  0.50000000  0.11466000  1.0
  Sb  Sb12  2  0.75000000  0.24999000  0.95790000  1.0
  Sb  Sb13  2  0.76276000  0.25665000  0.14073000  1.0
  Sb  Sb14  1  0.25000000  0.00000000  0.87371000  1.0
  Sb  Sb15  1  0.25000000  0.50000000  0.87371000  1.0
  Sb  Sb16  1  0.25712000  0.00000000  0.04198000  1.0
  Sb  Sb17  1  0.26666000  0.50000000  0.04024000  1.0
  Pd  Pd18  2  0.50000000  0.25001000  0.87371000  1.0
  Pd  Pd19  2  0.52179000  0.24497000  0.05424000  1.0
  Pd  Pd20  1  -0.00000000  0.50000000  0.95790000  1.0
  Pd  Pd21  1  -0.00000000  0.00000000  0.95790000  1.0
  Pd  Pd22  1  0.95716000  0.00000000  0.11282000  1.0
  Pd  Pd23  1  0.98598000  0.50000000  0.11205000  1.0
  C  C24  1  0.40277000  0.00000000  0.18814000  1.0
  O  O25  1  0.35773000  0.00000000  0.22985000  1.0
