data_image0
_chemical_formula_structural       Zr16Zn16CO
_chemical_formula_sum              "Zr16 Zn16 C1 O1"
_cell_length_a       6.67495
_cell_length_b       9.4398
_cell_length_c       27.0799
_cell_angle_alpha    90
_cell_angle_beta     90
_cell_angle_gamma    90

_space_group_name_H-M_alt    "P 1"
_space_group_IT_number       1

loop_
  _space_group_symop_operation_xyz
  'x, y, z'

loop_
  _atom_site_type_symbol
  _atom_site_label
  _atom_site_symmetry_multiplicity
  _atom_site_fract_x
  _atom_site_fract_y
  _atom_site_fract_z
  _atom_site_occupancy
  Zr  Zr1       1.0  0.25000  0.25000  0.86928  1.0000
  Zr  Zr2       1.0  0.25000  0.50000  0.95643  1.0000
  Zr  Zr3       1.0  0.24827  0.25000  0.04459  1.0000
  Zr  Zr4       1.0  0.25668  0.99695  0.12881  1.0000
  Zr  Zr5       1.0  0.25000  0.75000  0.86928  1.0000
  Zr  Zr6       1.0  0.25000  0.00000  0.95643  1.0000
  Zr  Zr7       1.0  0.25476  0.74999  0.04470  1.0000
  Zr  Zr8       1.0  0.25670  0.50306  0.12884  1.0000
  Zr  Zr9       1.0  0.75000  0.25000  0.86928  1.0000
  Zr  Zr10      1.0  0.75000  0.50000  0.95643  1.0000
  Zr  Zr11      1.0  0.75173  0.25000  0.04459  1.0000
  Zr  Zr12      1.0  0.74332  0.99695  0.12881  1.0000
  Zr  Zr13      1.0  0.75000  0.75000  0.86928  1.0000
  Zr  Zr14      1.0  0.75000  0.00000  0.95643  1.0000
  Zr  Zr15      1.0  0.74524  0.74999  0.04470  1.0000
  Zr  Zr16      1.0  0.74331  0.50306  0.12884  1.0000
  Zn  Zn1       1.0  0.00000  0.00000  0.86928  1.0000
  Zn  Zn2       1.0  0.00000  0.25000  0.95643  1.0000
  Zn  Zn3       1.0  1.00000  0.99627  0.04324  1.0000
  Zn  Zn4       1.0  0.00000  0.25006  0.13071  1.0000
  Zn  Zn5       1.0  0.00000  0.50000  0.86928  1.0000
  Zn  Zn6       1.0  0.00000  0.75000  0.95643  1.0000
  Zn  Zn7       1.0  0.00000  0.50375  0.04324  1.0000
  Zn  Zn8       1.0  1.00000  0.74994  0.13306  1.0000
  Zn  Zn9       1.0  0.50000  0.00000  0.86928  1.0000
  Zn  Zn10      1.0  0.50000  0.25000  0.95643  1.0000
  Zn  Zn11      1.0  0.50000  0.00198  0.04270  1.0000
  Zn  Zn12      1.0  0.50000  0.25004  0.13554  1.0000
  Zn  Zn13      1.0  0.50000  0.50000  0.86928  1.0000
  Zn  Zn14      1.0  0.50000  0.75000  0.95643  1.0000
  Zn  Zn15      1.0  0.50000  0.49800  0.04269  1.0000
  Zn  Zn16      1.0  0.50000  0.74993  0.14182  1.0000
  C   C1        1.0  1.00000  0.25006  0.20341  1.0000
  O   O1        1.0  1.00000  0.25004  0.24632  1.0000
