# generated using pymatgen
data_Zr16Zn16CO
_symmetry_space_group_name_H-M   Pm
_cell_length_a   9.43980000
_cell_length_b   6.67495000
_cell_length_c   27.07990000
_cell_angle_alpha   90.00000000
_cell_angle_beta   90.00000000
_cell_angle_gamma   90.00000000
_symmetry_Int_Tables_number   6
_chemical_formula_structural   Zr16Zn16CO
_chemical_formula_sum   'Zr16 Zn16 C1 O1'
_cell_volume   1706.30972569
_cell_formula_units_Z   1
loop_
 _symmetry_equiv_pos_site_id
 _symmetry_equiv_pos_as_xyz
  1  'x, y, z'
  2  'x, -y, z'
loop_
 _atom_site_type_symbol
 _atom_site_label
 _atom_site_symmetry_multiplicity
 _atom_site_fract_x
 _atom_site_fract_y
 _atom_site_fract_z
 _atom_site_occupancy
  Zr  Zr0  2  0.00000000  0.25000000  0.95643000  1.0
  Zr  Zr1  2  0.25000000  0.24827000  0.04459000  1.0
  Zr  Zr2  2  0.25000000  0.25000000  0.86928000  1.0
  Zr  Zr3  2  0.50000000  0.25000000  0.95643000  1.0
  Zr  Zr4  2  0.50306000  0.25670000  0.12884000  1.0
  Zr  Zr5  2  0.74999000  0.25476000  0.04470000  1.0
  Zr  Zr6  2  0.75000000  0.25000000  0.86928000  1.0
  Zr  Zr7  2  0.99695000  0.25668000  0.12881000  1.0
  Zn  Zn8  1  0.00000000  0.00000000  0.86928000  1.0
  Zn  Zn9  1  0.00000000  0.50000000  0.86928000  1.0
  Zn  Zn10  1  0.00198000  0.50000000  0.04270000  1.0
  Zn  Zn11  1  0.25000000  0.00000000  0.95643000  1.0
  Zn  Zn12  1  0.25000000  0.50000000  0.95643000  1.0
  Zn  Zn13  1  0.25004000  0.50000000  0.13554000  1.0
  Zn  Zn14  1  0.25006000  0.00000000  0.13071000  1.0
  Zn  Zn15  1  0.49800000  0.50000000  0.04269000  1.0
  Zn  Zn16  1  0.50000000  0.00000000  0.86928000  1.0
  Zn  Zn17  1  0.50000000  0.50000000  0.86928000  1.0
  Zn  Zn18  1  0.50375000  0.00000000  0.04324000  1.0
  Zn  Zn19  1  0.74993000  0.50000000  0.14182000  1.0
  Zn  Zn20  1  0.74994000  0.00000000  0.13306000  1.0
  Zn  Zn21  1  0.75000000  0.00000000  0.95643000  1.0
  Zn  Zn22  1  0.75000000  0.50000000  0.95643000  1.0
  Zn  Zn23  1  0.99627000  0.00000000  0.04324000  1.0
  C  C24  1  0.25006000  0.00000000  0.20341000  1.0
  O  O25  1  0.25004000  0.00000000  0.24632000  1.0
