# generated using pymatgen
data_Li8In8Ga8Pd8C
_symmetry_space_group_name_H-M   Pm
_cell_length_a   6.46680000
_cell_length_b   9.14544000
_cell_length_c   26.85910000
_cell_angle_alpha   90.00000000
_cell_angle_beta   90.00000000
_cell_angle_gamma   90.00000000
_symmetry_Int_Tables_number   6
_chemical_formula_structural   Li8In8Ga8Pd8C
_chemical_formula_sum   'Li8 In8 Ga8 Pd8 C1'
_cell_volume   1588.49367763
_cell_formula_units_Z   1
loop_
 _symmetry_equiv_pos_site_id
 _symmetry_equiv_pos_as_xyz
  1  'x, y, z'
  2  'x, -y, z'
loop_
 _atom_site_type_symbol
 _atom_site_label
 _atom_site_symmetry_multiplicity
 _atom_site_fract_x
 _atom_site_fract_y
 _atom_site_fract_z
 _atom_site_occupancy
  Li  Li0  2  0.21196000  0.25757000  0.05102000  1.0
  Li  Li1  2  0.25000000  0.24999000  0.87231000  1.0
  Li  Li2  1  0.67517000  0.50000000  0.16348000  1.0
  Li  Li3  1  0.71927000  0.00000000  0.13811000  1.0
  Li  Li4  1  0.75000000  0.00000000  0.95744000  1.0
  Li  Li5  1  0.75000000  0.50000000  0.95744000  1.0
  In  In6  2  0.00000000  0.24999000  0.95744000  1.0
  In  In7  2  0.96356000  0.25069000  0.14761000  1.0
  In  In8  1  0.48861000  0.00000000  0.04448000  1.0
  In  In9  1  0.49205000  0.50000000  0.04334000  1.0
  In  In10  1  0.50000000  0.00000000  0.87231000  1.0
  In  In11  1  0.50000000  0.50000000  0.87231000  1.0
  Ga  Ga12  2  0.47085000  0.24682000  0.13681000  1.0
  Ga  Ga13  2  0.50000000  0.25001000  0.95744000  1.0
  Ga  Ga14  1  -0.00000000  0.00000000  0.87231000  1.0
  Ga  Ga15  1  0.00000000  0.50000000  0.87231000  1.0
  Ga  Ga16  1  0.92560000  0.50000000  0.05796000  1.0
  Ga  Ga17  1  0.98045000  0.00000000  0.04242000  1.0
  Pd  Pd18  2  0.74787000  0.24300000  0.03994000  1.0
  Pd  Pd19  2  0.75000000  0.24999000  0.87231000  1.0
  Pd  Pd20  1  0.21665000  0.00000000  0.12182000  1.0
  Pd  Pd21  1  0.25000000  0.00000000  0.95744000  1.0
  Pd  Pd22  1  0.25000000  0.50000000  0.95744000  1.0
  Pd  Pd23  1  0.28606000  0.50000000  0.13034000  1.0
  C  C24  1  0.96940000  0.50000000  0.13398000  1.0
