# generated using pymatgen
data_Li8Y8Pd8Pb8CO
_symmetry_space_group_name_H-M   'P 1'
_cell_length_a   6.89083000
_cell_length_b   9.74510000
_cell_length_c   27.30880000
_cell_angle_alpha   90.00000000
_cell_angle_beta   90.00000000
_cell_angle_gamma   90.00000000
_symmetry_Int_Tables_number   1
_chemical_formula_structural   Li8Y8Pd8Pb8CO
_chemical_formula_sum   'Li8 Y8 Pd8 Pb8 C1 O1'
_cell_volume   1833.83582500
_cell_formula_units_Z   1
loop_
 _symmetry_equiv_pos_site_id
 _symmetry_equiv_pos_as_xyz
  1  'x, y, z'
loop_
 _atom_site_type_symbol
 _atom_site_label
 _atom_site_symmetry_multiplicity
 _atom_site_fract_x
 _atom_site_fract_y
 _atom_site_fract_z
 _atom_site_occupancy
  Li  Li0  1  0.00000000  0.00000000  0.86618000  1.0
  Li  Li1  1  0.00000000  0.50000000  0.86618000  1.0
  Li  Li2  1  0.50000000  0.25000000  0.95539000  1.0
  Li  Li3  1  0.50000000  0.75000000  0.95539000  1.0
  Li  Li4  1  0.99909000  0.49433000  0.04812000  1.0
  Li  Li5  1  0.00176000  0.99934000  0.04756000  1.0
  Li  Li6  1  0.61563000  0.74416000  0.18220000  1.0
  Li  Li7  1  0.69168000  0.24191000  0.18367000  1.0
  Y  Y8  1  0.25000000  0.00000000  0.95539000  1.0
  Y  Y9  1  0.25000000  0.50000000  0.95539000  1.0
  Y  Y10  1  0.75000000  0.75000000  0.86618000  1.0
  Y  Y11  1  0.75000000  0.25000000  0.86618000  1.0
  Y  Y12  1  0.28047000  0.50020000  0.13459000  1.0
  Y  Y13  1  0.27868000  0.99432000  0.13543000  1.0
  Y  Y14  1  0.73889000  0.24634000  0.05064000  1.0
  Y  Y15  1  0.74019000  0.74763000  0.04888000  1.0
  Pd  Pd16  1  0.00000000  0.75000000  0.95539000  1.0
  Pd  Pd17  1  0.00000000  0.25000000  0.95539000  1.0
  Pd  Pd18  1  0.50000000  0.50000000  0.86618000  1.0
  Pd  Pd19  1  0.50000000  0.00000000  0.86618000  1.0
  Pd  Pd20  1  0.01815000  0.24385000  0.12759000  1.0
  Pd  Pd21  1  0.01140000  0.74564000  0.13324000  1.0
  Pd  Pd22  1  0.49792000  0.99364000  0.04436000  1.0
  Pd  Pd23  1  0.50083000  0.49939000  0.04358000  1.0
  Pb  Pb24  1  0.75000000  0.00000000  0.95539000  1.0
  Pb  Pb25  1  0.75000000  0.50000000  0.95539000  1.0
  Pb  Pb26  1  0.25000000  0.75000000  0.86618000  1.0
  Pb  Pb27  1  0.25000000  0.25000000  0.86618000  1.0
  Pb  Pb28  1  0.76280000  0.49620000  0.13867000  1.0
  Pb  Pb29  1  0.76777000  0.99448000  0.13653000  1.0
  Pb  Pb30  1  0.25576000  0.24811000  0.04362000  1.0
  Pb  Pb31  1  0.24991000  0.74756000  0.04365000  1.0
  C  C32  1  0.28187000  0.71906000  0.17170000  1.0
  O  O33  1  0.34967000  0.82407000  0.19354000  1.0
