# generated using pymatgen
data_Sc4Pt12C
_symmetry_space_group_name_H-M   Pmm2
_cell_length_a   5.70388000
_cell_length_b   8.06651000
_cell_length_c   24.27790000
_cell_angle_alpha   90.00000000
_cell_angle_beta   90.00000000
_cell_angle_gamma   90.00000000
_symmetry_Int_Tables_number   25
_chemical_formula_structural   Sc4Pt12C
_chemical_formula_sum   'Sc4 Pt12 C1'
_cell_volume   1117.03601298
_cell_formula_units_Z   1
loop_
 _symmetry_equiv_pos_site_id
 _symmetry_equiv_pos_as_xyz
  1  'x, y, z'
  2  '-x, -y, z'
  3  '-x, y, z'
  4  'x, -y, z'
loop_
 _atom_site_type_symbol
 _atom_site_label
 _atom_site_symmetry_multiplicity
 _atom_site_fract_x
 _atom_site_fract_y
 _atom_site_fract_z
 _atom_site_occupancy
  Sc  Sc0  1  0.00000000  0.00000000  0.08810000  1.0
  Sc  Sc1  1  0.00000000  0.50000000  0.08810000  1.0
  Sc  Sc2  1  0.50000000  0.00000000  0.96143000  1.0
  Sc  Sc3  1  0.50000000  0.50000000  0.98220000  1.0
  Pt  Pt4  4  0.25000000  0.24999000  0.02937000  1.0
  Pt  Pt5  4  0.25850000  0.30859000  0.90710000  1.0
  Pt  Pt6  1  0.00000000  0.00000000  0.96485000  1.0
  Pt  Pt7  1  0.00000000  0.50000000  0.97940000  1.0
  Pt  Pt8  1  0.50000000  0.00000000  0.08810000  1.0
  Pt  Pt9  1  0.50000000  0.50000000  0.08810000  1.0
  C  C10  1  0.50000000  0.50000000  0.88518000  1.0
