# generated using pymatgen
data_Mg8Ni16Sn8C
_symmetry_space_group_name_H-M   'P 1'
_cell_length_a   8.78760000
_cell_length_b   6.21377000
_cell_length_c   26.59070000
_cell_angle_alpha   90.00000000
_cell_angle_beta   90.00000000
_cell_angle_gamma   90.00000000
_symmetry_Int_Tables_number   1
_chemical_formula_structural   Mg8Ni16Sn8C
_chemical_formula_sum   'Mg8 Ni16 Sn8 C1'
_cell_volume   1451.96191334
_cell_formula_units_Z   1
loop_
 _symmetry_equiv_pos_site_id
 _symmetry_equiv_pos_as_xyz
  1  'x, y, z'
loop_
 _atom_site_type_symbol
 _atom_site_label
 _atom_site_symmetry_multiplicity
 _atom_site_fract_x
 _atom_site_fract_y
 _atom_site_fract_z
 _atom_site_occupancy
  Mg  Mg0  1  0.75001000  0.00000000  0.12393000  1.0
  Mg  Mg1  1  0.00000000  0.50000000  0.04131000  1.0
  Mg  Mg2  1  0.50000000  0.50000000  0.04131000  1.0
  Mg  Mg3  1  0.24999000  0.00000000  0.12393000  1.0
  Mg  Mg4  1  0.25320000  0.00597000  0.95870000  1.0
  Mg  Mg5  1  0.50000000  0.49162000  0.86882000  1.0
  Mg  Mg6  1  0.00000000  0.53735000  0.87729000  1.0
  Mg  Mg7  1  0.74680000  0.00597000  0.95870000  1.0
  Ni  Ni8  1  0.75001000  0.25000000  0.04131000  1.0
  Ni  Ni9  1  0.25001000  0.75000000  0.04131000  1.0
  Ni  Ni10  1  0.74999000  0.75000000  0.04131000  1.0
  Ni  Ni11  1  0.24999000  0.25000000  0.04131000  1.0
  Ni  Ni12  1  0.50000000  0.75000000  0.12393000  1.0
  Ni  Ni13  1  0.00000000  0.25000000  0.12393000  1.0
  Ni  Ni14  1  0.50000000  0.25000000  0.12393000  1.0
  Ni  Ni15  1  0.00000000  0.75000000  0.12393000  1.0
  Ni  Ni16  1  0.20590000  0.24832000  0.87272000  1.0
  Ni  Ni17  1  0.73353000  0.76002000  0.88339000  1.0
  Ni  Ni18  1  0.26647000  0.76002000  0.88339000  1.0
  Ni  Ni19  1  0.79410000  0.24832000  0.87272000  1.0
  Ni  Ni20  1  0.00000000  0.74583000  0.96444000  1.0
  Ni  Ni21  1  0.50000000  0.24993000  0.95695000  1.0
  Ni  Ni22  1  0.00000000  0.24840000  0.95797000  1.0
  Ni  Ni23  1  0.50000000  0.74978000  0.95342000  1.0
  Sn  Sn24  1  0.50000000  0.00000000  0.04131000  1.0
  Sn  Sn25  1  0.75001000  0.50000000  0.12393000  1.0
  Sn  Sn26  1  0.00000000  0.00000000  0.04131000  1.0
  Sn  Sn27  1  0.24999000  0.50000000  0.12393000  1.0
  Sn  Sn28  1  0.00000000  0.94713000  0.87763000  1.0
  Sn  Sn29  1  0.25157000  0.49488000  0.95774000  1.0
  Sn  Sn30  1  0.50000000  0.01427000  0.86823000  1.0
  Sn  Sn31  1  0.74843000  0.49488000  0.95774000  1.0
  C  C32  1  0.00000000  0.24867000  0.84427000  1.0
