# generated using pymatgen
data_Mg8Ni16Sn8C
_symmetry_space_group_name_H-M   Pm
_cell_length_a   6.21377000
_cell_length_b   8.78760000
_cell_length_c   26.59070000
_cell_angle_alpha   90.00000000
_cell_angle_beta   90.00000000
_cell_angle_gamma   90.00000000
_symmetry_Int_Tables_number   6
_chemical_formula_structural   Mg8Ni16Sn8C
_chemical_formula_sum   'Mg8 Ni16 Sn8 C1'
_cell_volume   1451.96191334
_cell_formula_units_Z   1
loop_
 _symmetry_equiv_pos_site_id
 _symmetry_equiv_pos_as_xyz
  1  'x, y, z'
  2  'x, -y, z'
loop_
 _atom_site_type_symbol
 _atom_site_label
 _atom_site_symmetry_multiplicity
 _atom_site_fract_x
 _atom_site_fract_y
 _atom_site_fract_z
 _atom_site_occupancy
  Mg  Mg0  2  0.00000000  0.24999000  0.87607000  1.0
  Mg  Mg1  2  0.00597000  0.25320000  0.04130000  1.0
  Mg  Mg2  1  0.49162000  0.50000000  0.13118000  1.0
  Mg  Mg3  1  0.50000000  0.00000000  0.95869000  1.0
  Mg  Mg4  1  0.50000000  0.50000000  0.95869000  1.0
  Mg  Mg5  1  0.53735000  0.00000000  0.12271000  1.0
  Ni  Ni6  2  0.24832000  0.20590000  0.12728000  1.0
  Ni  Ni7  2  0.25000000  0.24999000  0.95869000  1.0
  Ni  Ni8  2  0.75000000  0.25001000  0.95869000  1.0
  Ni  Ni9  2  0.76002000  0.26647000  0.11661000  1.0
  Ni  Ni10  1  0.24840000  0.00000000  0.04203000  1.0
  Ni  Ni11  1  0.24993000  0.50000000  0.04305000  1.0
  Ni  Ni12  1  0.25000000  0.00000000  0.87607000  1.0
  Ni  Ni13  1  0.25000000  0.50000000  0.87607000  1.0
  Ni  Ni14  1  0.74583000  0.00000000  0.03556000  1.0
  Ni  Ni15  1  0.74978000  0.50000000  0.04658000  1.0
  Ni  Ni16  1  0.75000000  0.00000000  0.87607000  1.0
  Ni  Ni17  1  0.75000000  0.50000000  0.87607000  1.0
  Sn  Sn18  2  0.49488000  0.25157000  0.04226000  1.0
  Sn  Sn19  2  0.50000000  0.24999000  0.87607000  1.0
  Sn  Sn20  1  0.00000000  0.00000000  0.95869000  1.0
  Sn  Sn21  1  0.00000000  0.50000000  0.95869000  1.0
  Sn  Sn22  1  0.01427000  0.50000000  0.13177000  1.0
  Sn  Sn23  1  0.94713000  0.00000000  0.12237000  1.0
  C  C24  1  0.24867000  0.00000000  0.15573000  1.0
