# generated using pymatgen
data_Li8Sn8Pd16CO
_symmetry_space_group_name_H-M   Pmm2
_cell_length_a   6.41477000
_cell_length_b   9.07185000
_cell_length_c   26.80390000
_cell_angle_alpha   90.00000000
_cell_angle_beta   90.00000000
_cell_angle_gamma   90.00000000
_symmetry_Int_Tables_number   25
_chemical_formula_structural   Li8Sn8Pd16CO
_chemical_formula_sum   'Li8 Sn8 Pd16 C1 O1'
_cell_volume   1559.82163276
_cell_formula_units_Z   1
loop_
 _symmetry_equiv_pos_site_id
 _symmetry_equiv_pos_as_xyz
  1  'x, y, z'
  2  '-x, -y, z'
  3  '-x, y, z'
  4  'x, -y, z'
loop_
 _atom_site_type_symbol
 _atom_site_label
 _atom_site_symmetry_multiplicity
 _atom_site_fract_x
 _atom_site_fract_y
 _atom_site_fract_z
 _atom_site_occupancy
  Li  Li0  2  0.00000000  0.24964000  0.03887000  1.0
  Li  Li1  2  0.00000000  0.25000000  0.87308000  1.0
  Li  Li2  1  0.50000000  0.00000000  0.13085000  1.0
  Li  Li3  1  0.50000000  0.00000000  0.95769000  1.0
  Li  Li4  1  0.50000000  0.50000000  0.12808000  1.0
  Li  Li5  1  0.50000000  0.50000000  0.95769000  1.0
  Sn  Sn6  2  0.50000000  0.25000000  0.87308000  1.0
  Sn  Sn7  2  0.50000000  0.25043000  0.04168000  1.0
  Sn  Sn8  1  0.00000000  0.00000000  0.12978000  1.0
  Sn  Sn9  1  0.00000000  0.00000000  0.95769000  1.0
  Sn  Sn10  1  0.00000000  0.50000000  0.13205000  1.0
  Sn  Sn11  1  0.00000000  0.50000000  0.95769000  1.0
  Pd  Pd12  4  0.23059000  0.25126000  0.11884000  1.0
  Pd  Pd13  4  0.25000000  0.25000000  0.95769000  1.0
  Pd  Pd14  2  0.24548000  0.50000000  0.04258000  1.0
  Pd  Pd15  2  0.24825000  0.00000000  0.04252000  1.0
  Pd  Pd16  2  0.25000000  0.00000000  0.87308000  1.0
  Pd  Pd17  2  0.25000000  0.50000000  0.87308000  1.0
  C  C18  1  0.50000000  0.00000000  0.21006000  1.0
  O  O19  1  0.50000000  0.00000000  0.25253000  1.0
