# generated using pymatgen
data_Li4Sc4In4Ga4C
_symmetry_space_group_name_H-M   'P 1'
_cell_length_a   5.87074000
_cell_length_b   8.86716000
_cell_length_c   24.40240000
_cell_angle_alpha   90.00000000
_cell_angle_beta   90.00000000
_cell_angle_gamma   90.00000000
_symmetry_Int_Tables_number   1
_chemical_formula_structural   Li4Sc4In4Ga4C
_chemical_formula_sum   'Li4 Sc4 In4 Ga4 C1'
_cell_volume   1270.31063422
_cell_formula_units_Z   1
loop_
 _symmetry_equiv_pos_site_id
 _symmetry_equiv_pos_as_xyz
  1  'x, y, z'
loop_
 _atom_site_type_symbol
 _atom_site_label
 _atom_site_symmetry_multiplicity
 _atom_site_fract_x
 _atom_site_fract_y
 _atom_site_fract_z
 _atom_site_occupancy
  Li  Li0  1  0.74572000  0.25000000  0.96993000  1.0
  Li  Li1  1  0.37734000  0.16687000  0.11009000  1.0
  Li  Li2  1  0.74572000  0.75000000  0.96993000  1.0
  Li  Li3  1  0.37736000  0.83309000  0.11010000  1.0
  Sc  Sc4  1  0.50000000  0.00000000  0.90980000  1.0
  Sc  Sc5  1  0.98543000  0.99998000  0.03431000  1.0
  Sc  Sc6  1  0.50000000  0.50000000  0.90980000  1.0
  Sc  Sc7  1  0.04653000  0.49998000  0.04345000  1.0
  In  In8  1  0.24572000  0.25000000  0.96993000  1.0
  In  In9  1  0.83781000  0.25214000  0.10790000  1.0
  In  In10  1  0.24572000  0.75000000  0.96993000  1.0
  In  In11  1  0.83773000  0.74779000  0.10788000  1.0
  Ga  Ga12  1  0.00000000  0.00000000  0.90980000  1.0
  Ga  Ga13  1  0.49728000  0.99992000  0.02146000  1.0
  Ga  Ga14  1  0.00000000  0.50000000  0.90980000  1.0
  Ga  Ga15  1  0.55636000  0.50014000  0.03209000  1.0
  C  C16  1  0.68745000  0.00005000  0.09066000  1.0
