# generated using pymatgen
data_Li8Ni16Ge8CO
_symmetry_space_group_name_H-M   P1
_cell_length_a   5.71239000
_cell_length_b   8.07854000
_cell_length_c   26.05890000
_cell_angle_alpha   90.00000000
_cell_angle_beta   90.00000000
_cell_angle_gamma   90.00000000
_symmetry_Int_Tables_number   1
_chemical_formula_structural   Li8Ni16Ge8CO
_chemical_formula_sum   'Li8 Ni16 Ge8 C1 O1'
_cell_volume   1202.56015259
_cell_formula_units_Z   1
loop_
 _symmetry_equiv_pos_site_id
 _symmetry_equiv_pos_as_xyz
  1  'x, y, z'
loop_
 _atom_site_type_symbol
 _atom_site_label
 _atom_site_symmetry_multiplicity
 _atom_site_fract_x
 _atom_site_fract_y
 _atom_site_fract_z
 _atom_site_occupancy
  Li  Li0  1  0.00000000  0.00000000  0.88375000  1.0
  Li  Li1  1  0.00000000  0.50000000  0.88375000  1.0
  Li  Li2  1  0.00002000  0.00041000  0.03451000  1.0
  Li  Li3  1  0.00002000  0.49961000  0.03452000  1.0
  Li  Li4  1  0.50000000  0.25000000  0.96125000  1.0
  Li  Li5  1  0.50000000  0.75000000  0.96125000  1.0
  Li  Li6  1  0.50002000  0.75000000  0.13544000  1.0
  Li  Li7  1  0.50003000  0.25002000  0.13510000  1.0
  Ni  Ni8  1  0.22667000  0.99958000  0.10972000  1.0
  Ni  Ni9  1  0.22672000  0.50044000  0.10972000  1.0
  Ni  Ni10  1  0.25000000  0.00000000  0.96125000  1.0
  Ni  Ni11  1  0.25000000  0.25000000  0.88375000  1.0
  Ni  Ni12  1  0.25000000  0.50000000  0.96125000  1.0
  Ni  Ni13  1  0.25000000  0.75000000  0.88375000  1.0
  Ni  Ni14  1  0.25129000  0.74998000  0.04051000  1.0
  Ni  Ni15  1  0.25356000  0.25004000  0.03998000  1.0
  Ni  Ni16  1  0.74648000  0.25004000  0.03998000  1.0
  Ni  Ni17  1  0.74874000  0.74998000  0.04051000  1.0
  Ni  Ni18  1  0.75000000  0.00000000  0.96125000  1.0
  Ni  Ni19  1  0.75000000  0.25000000  0.88375000  1.0
  Ni  Ni20  1  0.75000000  0.50000000  0.96125000  1.0
  Ni  Ni21  1  0.75000000  0.75000000  0.88375000  1.0
  Ni  Ni22  1  0.77333000  0.50044000  0.10972000  1.0
  Ni  Ni23  1  0.77338000  0.99958000  0.10972000  1.0
  Ge  Ge24  1  0.00000000  0.25000000  0.96125000  1.0
  Ge  Ge25  1  0.00000000  0.75000000  0.96125000  1.0
  Ge  Ge26  1  0.00002000  0.75001000  0.12029000  1.0
  Ge  Ge27  1  0.00003000  0.25000000  0.11901000  1.0
  Ge  Ge28  1  0.50000000  0.00000000  0.88375000  1.0
  Ge  Ge29  1  0.50000000  0.50000000  0.88375000  1.0
  Ge  Ge30  1  0.50002000  0.50074000  0.03937000  1.0
  Ge  Ge31  1  0.50002000  0.99928000  0.03938000  1.0
  C  C32  1  0.99888000  0.25015000  0.27305000  1.0
  O  O33  1  0.00024000  0.24997000  0.31659000  1.0
