# generated using pymatgen
data_LiTiAlPd
_symmetry_space_group_name_H-M   Pm
_cell_length_a   6.17553000
_cell_length_b   4.36676000
_cell_length_c   26.55010000
_cell_angle_alpha   90.00000000
_cell_angle_beta   90.00000000
_cell_angle_gamma   90.00000000
_symmetry_Int_Tables_number   6
_chemical_formula_structural   LiTiAlPd
_chemical_formula_sum   'Li4 Ti4 Al4 Pd4'
_cell_volume   715.97807022
_cell_formula_units_Z   4
loop_
 _symmetry_equiv_pos_site_id
 _symmetry_equiv_pos_as_xyz
  1  'x, y, z'
  2  'x, -y, z'
loop_
 _atom_site_type_symbol
 _atom_site_label
 _atom_site_symmetry_multiplicity
 _atom_site_fract_x
 _atom_site_fract_y
 _atom_site_fract_z
 _atom_site_occupancy
  Li  Li0  1  0.25000000  0.00000000  0.04112000  1.0
  Li  Li1  1  0.32073500  0.00000000  0.83589000  1.0
  Li  Li2  1  0.75000000  0.50000000  0.12335000  1.0
  Li  Li3  1  0.75255000  0.50000000  0.95927000  1.0
  Ti  Ti4  1  -0.00000000  0.50000000  0.04112000  1.0
  Ti  Ti5  1  0.02547500  0.50000000  0.88025000  1.0
  Ti  Ti6  1  0.49117500  0.00000000  0.95512000  1.0
  Ti  Ti7  1  0.50000000  0.00000000  0.12335000  1.0
  Al  Al8  1  -0.00000000  0.00000000  0.12335000  1.0
  Al  Al9  1  0.00662000  0.00000000  0.95852000  1.0
  Al  Al10  1  0.50000000  0.50000000  0.04112000  1.0
  Al  Al11  1  0.51080500  0.50000000  0.87792000  1.0
  Pd  Pd12  1  0.24880500  0.50000000  0.96137000  1.0
  Pd  Pd13  1  0.25000000  0.50000000  0.12335000  1.0
  Pd  Pd14  1  0.75000000  0.00000000  0.04112000  1.0
  Pd  Pd15  1  0.76432000  0.00000000  0.88131000  1.0
