# generated using pymatgen
data_Li16Bi16CO
_symmetry_space_group_name_H-M   'P 1'
_cell_length_a   8.50772000
_cell_length_b   9.62191000
_cell_length_c   27.21640000
_cell_angle_alpha   90.00000000
_cell_angle_beta   90.00000000
_cell_angle_gamma   90.00000000
_symmetry_Int_Tables_number   1
_chemical_formula_structural   Li16Bi16CO
_chemical_formula_sum   'Li16 Bi16 C1 O1'
_cell_volume   2227.94855161
_cell_formula_units_Z   1
loop_
 _symmetry_equiv_pos_site_id
 _symmetry_equiv_pos_as_xyz
  1  'x, y, z'
loop_
 _atom_site_type_symbol
 _atom_site_label
 _atom_site_symmetry_multiplicity
 _atom_site_fract_x
 _atom_site_fract_y
 _atom_site_fract_z
 _atom_site_occupancy
  Li  Li0  1  0.00000000  0.25000000  0.13257000  1.0
  Li  Li1  1  0.00000000  0.50000000  0.04419000  1.0
  Li  Li2  1  0.00000000  0.25000000  0.95581000  1.0
  Li  Li3  1  0.00000000  0.50000000  0.86743000  1.0
  Li  Li4  1  0.50000000  0.25000000  0.13257000  1.0
  Li  Li5  1  0.50000000  0.50000000  0.04419000  1.0
  Li  Li6  1  0.50000000  0.25000000  0.95581000  1.0
  Li  Li7  1  0.50000000  0.50000000  0.86743000  1.0
  Li  Li8  1  0.00000000  0.75000000  0.13257000  1.0
  Li  Li9  1  0.00000000  0.00000000  0.04419000  1.0
  Li  Li10  1  0.00000000  0.75000000  0.95581000  1.0
  Li  Li11  1  0.00000000  0.00000000  0.86743000  1.0
  Li  Li12  1  0.50000000  0.75000000  0.13257000  1.0
  Li  Li13  1  0.50000000  0.00000000  0.04419000  1.0
  Li  Li14  1  0.50000000  0.75000000  0.95581000  1.0
  Li  Li15  1  0.50000000  0.00000000  0.86743000  1.0
  Bi  Bi16  1  0.75000000  0.00000000  0.13257000  1.0
  Bi  Bi17  1  0.75000000  0.25000000  0.04419000  1.0
  Bi  Bi18  1  0.75000000  0.50000000  0.95581000  1.0
  Bi  Bi19  1  0.75000000  0.25000000  0.86743000  1.0
  Bi  Bi20  1  0.25000000  0.00000000  0.13257000  1.0
  Bi  Bi21  1  0.25000000  0.25000000  0.04419000  1.0
  Bi  Bi22  1  0.25000000  0.50000000  0.95581000  1.0
  Bi  Bi23  1  0.25000000  0.25000000  0.86743000  1.0
  Bi  Bi24  1  0.75000000  0.50000000  0.13257000  1.0
  Bi  Bi25  1  0.75000000  0.75000000  0.04419000  1.0
  Bi  Bi26  1  0.75000000  0.00000000  0.95581000  1.0
  Bi  Bi27  1  0.75000000  0.75000000  0.86743000  1.0
  Bi  Bi28  1  0.25000000  0.50000000  0.13257000  1.0
  Bi  Bi29  1  0.25000000  0.75000000  0.04419000  1.0
  Bi  Bi30  1  0.25000000  0.00000000  0.95581000  1.0
  Bi  Bi31  1  0.25000000  0.75000000  0.86743000  1.0
  C  C32  1  0.00000000  0.00000000  0.79761000  1.0
  O  O33  1  0.00000000  0.00000000  0.75536000  1.0
