data_image0
_chemical_formula_structural       HfRuHfRuHfRuHfRuHfRuHfRuHfRuHfRuCO
_chemical_formula_sum              "Hf8 Ru8 C1 O1"
_cell_length_a       6.47981
_cell_length_b       6.47981
_cell_length_c       24.8599
_cell_angle_alpha    90
_cell_angle_beta     90
_cell_angle_gamma    90

_space_group_name_H-M_alt    "P 1"
_space_group_IT_number       1

loop_
  _space_group_symop_operation_xyz
  'x, y, z'

loop_
  _atom_site_type_symbol
  _atom_site_label
  _atom_site_symmetry_multiplicity
  _atom_site_fract_x
  _atom_site_fract_y
  _atom_site_fract_z
  _atom_site_occupancy
  Hf  Hf1       1.0  0.00000  0.00000  0.91128  1.0000
  Ru  Ru1       1.0  0.25000  0.25000  0.97644  1.0000
  Hf  Hf2       1.0  0.00000  0.00000  0.04160  1.0000
  Ru  Ru2       1.0  0.25000  0.25000  0.10677  1.0000
  Hf  Hf3       1.0  0.00000  0.50000  0.91128  1.0000
  Ru  Ru3       1.0  0.25000  0.75000  0.97644  1.0000
  Hf  Hf4       1.0  0.00000  0.50000  0.04160  1.0000
  Ru  Ru4       1.0  0.25000  0.75000  0.10677  1.0000
  Hf  Hf5       1.0  0.50000  0.00000  0.91128  1.0000
  Ru  Ru5       1.0  0.75000  0.25000  0.97644  1.0000
  Hf  Hf6       1.0  0.50000  0.00000  0.04160  1.0000
  Ru  Ru6       1.0  0.75000  0.25000  0.10677  1.0000
  Hf  Hf7       1.0  0.50000  0.50000  0.91128  1.0000
  Ru  Ru7       1.0  0.75000  0.75000  0.97644  1.0000
  Hf  Hf8       1.0  0.50000  0.50000  0.04160  1.0000
  Ru  Ru8       1.0  0.75000  0.75000  0.10677  1.0000
  C   C1        1.0  0.25000  0.25000  0.18320  1.0000
  O   O1        1.0  0.25000  0.25000  0.22946  1.0000
