# generated using pymatgen
data_Li4Al4Fe4Pd4CO
_symmetry_space_group_name_H-M   Pm
_cell_length_a   5.25393000
_cell_length_b   8.60712000
_cell_length_c   23.58290000
_cell_angle_alpha   90.00000000
_cell_angle_beta   90.00000000
_cell_angle_gamma   90.00000000
_symmetry_Int_Tables_number   6
_chemical_formula_structural   Li4Al4Fe4Pd4CO
_chemical_formula_sum   'Li4 Al4 Fe4 Pd4 C1 O1'
_cell_volume   1066.44717854
_cell_formula_units_Z   1
loop_
 _symmetry_equiv_pos_site_id
 _symmetry_equiv_pos_as_xyz
  1  'x, y, z'
  2  'x, -y, z'
loop_
 _atom_site_type_symbol
 _atom_site_label
 _atom_site_symmetry_multiplicity
 _atom_site_fract_x
 _atom_site_fract_y
 _atom_site_fract_z
 _atom_site_occupancy
  Li  Li0  2  0.67634000  0.25020000  0.03239000  1.0
  Li  Li1  2  0.93782000  0.24999000  0.92404000  1.0
  Al  Al2  1  0.00946000  0.50000000  0.06718000  1.0
  Al  Al3  1  0.29188000  0.00000000  0.97468000  1.0
  Al  Al4  1  0.29188000  0.50000000  0.97468000  1.0
  Al  Al5  1  0.99730000  0.00000000  0.06825000  1.0
  Fe  Fe6  2  0.19490000  0.25007000  0.01077000  1.0
  Fe  Fe7  2  0.43782000  0.24999000  0.92404000  1.0
  Pd  Pd8  1  0.46869000  0.00000000  0.07452000  1.0
  Pd  Pd9  1  0.48692000  0.50000000  0.08070000  1.0
  Pd  Pd10  1  0.79188000  0.00000000  0.97468000  1.0
  Pd  Pd11  1  0.79188000  0.50000000  0.97468000  1.0
  C  C12  1  0.52634000  0.50000000  0.16309000  1.0
  O  O13  1  0.52027000  0.50000000  0.21184000  1.0
