# generated using pymatgen
data_Li8Ag4Bi4CO
_symmetry_space_group_name_H-M   'P 1'
_cell_length_a   6.92564000
_cell_length_b   6.92564000
_cell_length_c   25.19420000
_cell_angle_alpha   90.00000000
_cell_angle_beta   90.00000000
_cell_angle_gamma   90.00000000
_symmetry_Int_Tables_number   1
_chemical_formula_structural   Li8Ag4Bi4CO
_chemical_formula_sum   'Li8 Ag4 Bi4 C1 O1'
_cell_volume   1208.42693908
_cell_formula_units_Z   1
loop_
 _symmetry_equiv_pos_site_id
 _symmetry_equiv_pos_as_xyz
  1  'x, y, z'
loop_
 _atom_site_type_symbol
 _atom_site_label
 _atom_site_symmetry_multiplicity
 _atom_site_fract_x
 _atom_site_fract_y
 _atom_site_fract_z
 _atom_site_occupancy
  Li  Li0  1  0.99957000  0.00042000  0.02533000  1.0
  Li  Li1  1  0.50000000  0.00000000  0.89692000  1.0
  Li  Li2  1  0.00000000  0.50000000  0.89692000  1.0
  Li  Li3  1  0.50045000  0.49956000  0.02533000  1.0
  Li  Li4  1  0.25000000  0.25000000  0.96564000  1.0
  Li  Li5  1  0.25001000  0.74999000  0.10425000  1.0
  Li  Li6  1  0.75000000  0.75000000  0.96564000  1.0
  Li  Li7  1  0.75000000  0.25000000  0.10632000  1.0
  Ag  Ag8  1  0.24988000  0.25007000  0.09837000  1.0
  Ag  Ag9  1  0.25000000  0.75000000  0.96564000  1.0
  Ag  Ag10  1  0.75001000  0.75005000  0.09834000  1.0
  Ag  Ag11  1  0.75000000  0.25000000  0.96564000  1.0
  Bi  Bi12  1  0.00000000  0.00000000  0.89692000  1.0
  Bi  Bi13  1  0.50000000  0.50000000  0.89692000  1.0
  Bi  Bi14  1  0.49853000  0.99853000  0.04364000  1.0
  Bi  Bi15  1  0.00147000  0.50148000  0.04364000  1.0
  C  C16  1  0.75001000  0.24998000  0.18935000  1.0
  O  O17  1  0.75001000  0.24997000  0.23468000  1.0
