# generated using pymatgen
data_In8Ni24C
_symmetry_space_group_name_H-M   Pmm2
_cell_length_a   7.55564000
_cell_length_b   7.55564000
_cell_length_c   25.66670000
_cell_angle_alpha   90.00000000
_cell_angle_beta   90.00000000
_cell_angle_gamma   90.00000000
_symmetry_Int_Tables_number   25
_chemical_formula_structural   In8Ni24C
_chemical_formula_sum   'In8 Ni24 C1'
_cell_volume   1465.25276204
_cell_formula_units_Z   1
loop_
 _symmetry_equiv_pos_site_id
 _symmetry_equiv_pos_as_xyz
  1  'x, y, z'
  2  '-x, -y, z'
  3  '-x, y, z'
  4  'x, -y, z'
loop_
 _atom_site_type_symbol
 _atom_site_label
 _atom_site_symmetry_multiplicity
 _atom_site_fract_x
 _atom_site_fract_y
 _atom_site_fract_z
 _atom_site_occupancy
  In  In0  2  0.25000000  0.00000000  0.11039000  1.0
  In  In1  2  0.25000000  0.00000000  0.96320000  1.0
  In  In2  2  0.25000000  0.50000000  0.11039000  1.0
  In  In3  2  0.25000000  0.50000000  0.96320000  1.0
  Ni  Ni4  4  0.25000000  0.25000000  0.03680000  1.0
  Ni  Ni5  4  0.25000000  0.25000000  0.88961000  1.0
  Ni  Ni6  2  0.00000000  0.25000000  0.11039000  1.0
  Ni  Ni7  2  0.00000000  0.25000000  0.96320000  1.0
  Ni  Ni8  2  0.50000000  0.25000000  0.11039000  1.0
  Ni  Ni9  2  0.50000000  0.25000000  0.96320000  1.0
  Ni  Ni10  1  0.00000000  0.00000000  0.03680000  1.0
  Ni  Ni11  1  0.00000000  0.00000000  0.88961000  1.0
  Ni  Ni12  1  0.00000000  0.50000000  0.03680000  1.0
  Ni  Ni13  1  0.00000000  0.50000000  0.88961000  1.0
  Ni  Ni14  1  0.50000000  0.00000000  0.03680000  1.0
  Ni  Ni15  1  0.50000000  0.00000000  0.88961000  1.0
  Ni  Ni16  1  0.50000000  0.50000000  0.03680000  1.0
  Ni  Ni17  1  0.50000000  0.50000000  0.88961000  1.0
  C  C18  1  0.00000000  0.00000000  0.14156000  1.0
