# generated using pymatgen
data_Y8In8Ag16CO
_symmetry_space_group_name_H-M   'P 1'
_cell_length_a   7.06522000
_cell_length_b   9.99173000
_cell_length_c   27.49380000
_cell_angle_alpha   90.00000000
_cell_angle_beta   90.00000000
_cell_angle_gamma   90.00000000
_symmetry_Int_Tables_number   1
_chemical_formula_structural   Y8In8Ag16CO
_chemical_formula_sum   'Y8 In8 Ag16 C1 O1'
_cell_volume   1940.89101096
_cell_formula_units_Z   1
loop_
 _symmetry_equiv_pos_site_id
 _symmetry_equiv_pos_as_xyz
  1  'x, y, z'
loop_
 _atom_site_type_symbol
 _atom_site_label
 _atom_site_symmetry_multiplicity
 _atom_site_fract_x
 _atom_site_fract_y
 _atom_site_fract_z
 _atom_site_occupancy
  Y  Y0  1  0.00000000  0.00000000  0.86372000  1.0
  Y  Y1  1  0.50000000  0.25000000  0.95457000  1.0
  Y  Y2  1  0.50000000  0.75000000  0.95457000  1.0
  Y  Y3  1  0.00000000  0.50000000  0.86372000  1.0
  Y  Y4  1  0.99997000  0.49841000  0.04827000  1.0
  Y  Y5  1  0.49999000  0.75176000  0.13522000  1.0
  Y  Y6  1  0.50005000  0.24881000  0.13510000  1.0
  Y  Y7  1  0.00003000  0.00108000  0.04826000  1.0
  In  In8  1  1.00000000  0.75000000  0.95457000  1.0
  In  In9  1  0.50000000  0.00000000  0.86372000  1.0
  In  In10  1  1.00000000  0.25000000  0.95457000  1.0
  In  In11  1  0.50000000  0.50000000  0.86372000  1.0
  In  In12  1  0.99999000  0.25126000  0.13502000  1.0
  In  In13  1  0.50001000  0.50091000  0.04619000  1.0
  In  In14  1  0.00004000  0.74923000  0.13816000  1.0
  In  In15  1  0.50001000  0.99896000  0.04635000  1.0
  Ag  Ag16  1  0.25000000  0.00000000  0.95457000  1.0
  Ag  Ag17  1  0.75000000  0.50000000  0.95457000  1.0
  Ag  Ag18  1  0.75000000  0.00000000  0.95457000  1.0
  Ag  Ag19  1  0.25000000  0.50000000  0.95457000  1.0
  Ag  Ag20  1  0.75000000  0.75000000  0.86372000  1.0
  Ag  Ag21  1  0.25000000  0.25000000  0.86372000  1.0
  Ag  Ag22  1  0.25000000  0.75000000  0.86372000  1.0
  Ag  Ag23  1  0.75000000  0.25000000  0.86372000  1.0
  Ag  Ag24  1  0.24521000  0.50083000  0.14182000  1.0
  Ag  Ag25  1  0.76028000  0.99965000  0.14273000  1.0
  Ag  Ag26  1  0.75483000  0.50086000  0.14184000  1.0
  Ag  Ag27  1  0.23975000  0.99969000  0.14275000  1.0
  Ag  Ag28  1  0.74462000  0.24987000  0.04490000  1.0
  Ag  Ag29  1  0.24970000  0.74959000  0.04558000  1.0
  Ag  Ag30  1  0.25540000  0.24990000  0.04491000  1.0
  Ag  Ag31  1  0.75032000  0.74962000  0.04559000  1.0
  C  C32  1  0.00002000  0.25342000  0.28182000  1.0
  O  O33  1  0.99985000  0.25127000  0.32307000  1.0
