data_image0
_chemical_formula_structural       Li8Al16Pd8CO
_chemical_formula_sum              "Li8 Al16 Pd8 C1 O1"
_cell_length_a       6.12388
_cell_length_b       8.66047
_cell_length_c       26.4954
_cell_angle_alpha    90
_cell_angle_beta     90
_cell_angle_gamma    90

_space_group_name_H-M_alt    "P 1"
_space_group_IT_number       1

loop_
  _space_group_symop_operation_xyz
  'x, y, z'

loop_
  _atom_site_type_symbol
  _atom_site_label
  _atom_site_symmetry_multiplicity
  _atom_site_fract_x
  _atom_site_fract_y
  _atom_site_fract_z
  _atom_site_occupancy
  Li  Li1       1.0  0.00000  0.00000  0.87742  1.0000
  Li  Li2       1.0  0.50000  0.25000  0.95914  1.0000
  Li  Li3       1.0  0.50000  0.75000  0.95914  1.0000
  Li  Li4       1.0  0.00000  0.50000  0.87742  1.0000
  Li  Li5       1.0  0.99622  0.50000  0.04097  1.0000
  Li  Li6       1.0  0.49963  0.74833  0.15951  1.0000
  Li  Li7       1.0  0.49963  0.25168  0.15952  1.0000
  Li  Li8       1.0  0.99779  0.00000  0.03863  1.0000
  Al  Al1       1.0  0.25000  0.00000  0.95914  1.0000
  Al  Al2       1.0  0.75000  0.50000  0.95914  1.0000
  Al  Al3       1.0  0.75000  0.00000  0.95914  1.0000
  Al  Al4       1.0  0.25000  0.50000  0.95914  1.0000
  Al  Al5       1.0  0.75000  0.75000  0.87742  1.0000
  Al  Al6       1.0  0.25000  0.25000  0.87742  1.0000
  Al  Al7       1.0  0.25000  0.75000  0.87742  1.0000
  Al  Al8       1.0  0.75000  0.25000  0.87742  1.0000
  Al  Al9       1.0  0.25782  0.49999  0.12188  1.0000
  Al  Al10      1.0  0.75352  0.00000  0.12167  1.0000
  Al  Al11      1.0  0.73935  0.50000  0.12220  1.0000
  Al  Al12      1.0  0.23398  0.00000  0.12031  1.0000
  Al  Al13      1.0  0.73441  0.24993  0.04472  1.0000
  Al  Al14      1.0  0.26363  0.74717  0.04481  1.0000
  Al  Al15      1.0  0.26362  0.25283  0.04481  1.0000
  Al  Al16      1.0  0.73440  0.75007  0.04472  1.0000
  Pd  Pd1       1.0  0.00000  0.75000  0.95914  1.0000
  Pd  Pd2       1.0  0.50000  0.00000  0.87742  1.0000
  Pd  Pd3       1.0  0.00000  0.25000  0.95914  1.0000
  Pd  Pd4       1.0  0.50000  0.50000  0.87742  1.0000
  Pd  Pd5       1.0  0.99687  0.25397  0.11836  1.0000
  Pd  Pd6       1.0  0.50014  0.50000  0.03631  1.0000
  Pd  Pd7       1.0  0.99687  0.74602  0.11836  1.0000
  Pd  Pd8       1.0  0.49479  0.00000  0.04032  1.0000
  C   C1        1.0  0.39123  0.00001  0.18563  1.0000
  O   O1        1.0  0.41030  0.00004  0.23043  1.0000
