# generated using pymatgen
data_Li8Al16Pd8CO
_symmetry_space_group_name_H-M   'P 1'
_cell_length_a   6.12388000
_cell_length_b   8.66047000
_cell_length_c   26.49540000
_cell_angle_alpha   90.00000000
_cell_angle_beta   90.00000000
_cell_angle_gamma   90.00000000
_symmetry_Int_Tables_number   1
_chemical_formula_structural   Li8Al16Pd8CO
_chemical_formula_sum   'Li8 Al16 Pd8 C1 O1'
_cell_volume   1405.20153000
_cell_formula_units_Z   1
loop_
 _symmetry_equiv_pos_site_id
 _symmetry_equiv_pos_as_xyz
  1  'x, y, z'
loop_
 _atom_site_type_symbol
 _atom_site_label
 _atom_site_symmetry_multiplicity
 _atom_site_fract_x
 _atom_site_fract_y
 _atom_site_fract_z
 _atom_site_occupancy
  Li  Li0  1  0.00000000  0.00000000  0.87742000  1.0
  Li  Li1  1  0.50000000  0.25000000  0.95914000  1.0
  Li  Li2  1  0.50000000  0.75000000  0.95914000  1.0
  Li  Li3  1  0.00000000  0.50000000  0.87742000  1.0
  Li  Li4  1  0.99536000  0.50000000  0.04079000  1.0
  Li  Li5  1  0.49096000  0.74221000  0.16752000  1.0
  Li  Li6  1  0.49090000  0.25778000  0.16755000  1.0
  Li  Li7  1  0.99785000  0.00000000  0.03916000  1.0
  Al  Al8  1  0.25000000  0.00000000  0.95914000  1.0
  Al  Al9  1  0.75000000  0.50000000  0.95914000  1.0
  Al  Al10  1  0.75000000  0.00000000  0.95914000  1.0
  Al  Al11  1  0.25000000  0.50000000  0.95914000  1.0
  Al  Al12  1  0.75000000  0.75000000  0.87742000  1.0
  Al  Al13  1  0.25000000  0.25000000  0.87742000  1.0
  Al  Al14  1  0.25000000  0.75000000  0.87742000  1.0
  Al  Al15  1  0.75000000  0.25000000  0.87742000  1.0
  Al  Al16  1  0.25573000  0.49999000  0.12199000  1.0
  Al  Al17  1  0.75033000  0.00000000  0.12112000  1.0
  Al  Al18  1  0.73380000  0.49999000  0.12225000  1.0
  Al  Al19  1  0.24325000  0.00000000  0.12100000  1.0
  Al  Al20  1  0.73089000  0.25013000  0.04541000  1.0
  Al  Al21  1  0.26279000  0.75000000  0.04514000  1.0
  Al  Al22  1  0.26279000  0.25001000  0.04513000  1.0
  Al  Al23  1  0.73089000  0.74987000  0.04542000  1.0
  Pd  Pd24  1  0.00000000  0.75000000  0.95914000  1.0
  Pd  Pd25  1  0.50000000  0.00000000  0.87742000  1.0
  Pd  Pd26  1  0.00000000  0.25000000  0.95914000  1.0
  Pd  Pd27  1  0.50000000  0.50000000  0.87742000  1.0
  Pd  Pd28  1  0.99702000  0.25412000  0.11787000  1.0
  Pd  Pd29  1  0.49771000  0.50000000  0.03648000  1.0
  Pd  Pd30  1  0.99702000  0.74588000  0.11787000  1.0
  Pd  Pd31  1  0.49803000  0.00000000  0.03764000  1.0
  C  C32  1  0.49866000  0.00000000  0.17390000  1.0
  O  O33  1  0.49938000  0.00006000  0.22055000  1.0
