data_image0
_chemical_formula_structural       Hf8In8Ni16CO
_chemical_formula_sum              "Hf8 In8 Ni16 C1 O1"
_cell_length_a       6.31539
_cell_length_b       8.93131
_cell_length_c       26.6985
_cell_angle_alpha    90
_cell_angle_beta     90
_cell_angle_gamma    90

_space_group_name_H-M_alt    "P 1"
_space_group_IT_number       1

loop_
  _space_group_symop_operation_xyz
  'x, y, z'

loop_
  _atom_site_type_symbol
  _atom_site_label
  _atom_site_symmetry_multiplicity
  _atom_site_fract_x
  _atom_site_fract_y
  _atom_site_fract_z
  _atom_site_occupancy
  Hf  Hf1       1.0  0.00000  0.00000  0.87455  1.0000
  Hf  Hf2       1.0  0.50000  0.25000  0.95818  1.0000
  Hf  Hf3       1.0  0.50000  0.75000  0.95818  1.0000
  Hf  Hf4       1.0  0.00000  0.50000  0.87455  1.0000
  Hf  Hf5       1.0  0.00000  0.50173  0.04354  1.0000
  Hf  Hf6       1.0  0.50000  0.74997  0.12367  1.0000
  Hf  Hf7       1.0  0.50000  0.25001  0.12365  1.0000
  Hf  Hf8       1.0  0.00000  0.99827  0.04355  1.0000
  In  In1       1.0  0.00000  0.75000  0.95818  1.0000
  In  In2       1.0  0.50000  0.00000  0.87455  1.0000
  In  In3       1.0  0.00000  0.25000  0.95818  1.0000
  In  In4       1.0  0.50000  0.50000  0.87455  1.0000
  In  In5       1.0  0.99999  0.25001  0.13297  1.0000
  In  In6       1.0  0.50000  0.49725  0.04009  1.0000
  In  In7       1.0  0.00000  0.75002  0.13336  1.0000
  In  In8       1.0  0.50000  0.00275  0.04009  1.0000
  Ni  Ni1       1.0  0.25000  0.00000  0.95818  1.0000
  Ni  Ni2       1.0  0.75000  0.50000  0.95818  1.0000
  Ni  Ni3       1.0  0.75000  0.00000  0.95818  1.0000
  Ni  Ni4       1.0  0.25000  0.50000  0.95818  1.0000
  Ni  Ni5       1.0  0.75000  0.75000  0.87455  1.0000
  Ni  Ni6       1.0  0.25000  0.25000  0.87455  1.0000
  Ni  Ni7       1.0  0.25000  0.75000  0.87455  1.0000
  Ni  Ni8       1.0  0.75000  0.25000  0.87455  1.0000
  Ni  Ni9       1.0  0.25329  0.50207  0.12067  1.0000
  Ni  Ni10      1.0  0.74657  0.99791  0.12066  1.0000
  Ni  Ni11      1.0  0.74672  0.50207  0.12066  1.0000
  Ni  Ni12      1.0  0.25341  0.99791  0.12066  1.0000
  Ni  Ni13      1.0  0.75868  0.24999  0.04272  1.0000
  Ni  Ni14      1.0  0.25595  0.75000  0.04440  1.0000
  Ni  Ni15      1.0  0.24132  0.24999  0.04272  1.0000
  Ni  Ni16      1.0  0.74407  0.75000  0.04440  1.0000
  C   C1        1.0  0.50000  0.25000  0.20836  1.0000
  O   O1        1.0  0.50000  0.24999  0.25148  1.0000
