# generated using pymatgen
data_Hf8In8Ni16CO
_symmetry_space_group_name_H-M   Pmm2
_cell_length_a   6.31539000
_cell_length_b   8.93131000
_cell_length_c   26.69850000
_cell_angle_alpha   90.00000000
_cell_angle_beta   90.00000000
_cell_angle_gamma   90.00000000
_symmetry_Int_Tables_number   25
_chemical_formula_structural   Hf8In8Ni16CO
_chemical_formula_sum   'Hf8 In8 Ni16 C1 O1'
_cell_volume   1505.92103943
_cell_formula_units_Z   1
loop_
 _symmetry_equiv_pos_site_id
 _symmetry_equiv_pos_as_xyz
  1  'x, y, z'
  2  '-x, -y, z'
  3  '-x, y, z'
  4  'x, -y, z'
loop_
 _atom_site_type_symbol
 _atom_site_label
 _atom_site_symmetry_multiplicity
 _atom_site_fract_x
 _atom_site_fract_y
 _atom_site_fract_z
 _atom_site_occupancy
  Hf  Hf0  2  0.00000000  0.25000000  0.87455000  1.0
  Hf  Hf1  2  0.00000000  0.25173000  0.04354000  1.0
  Hf  Hf2  1  0.50000000  0.00000000  0.12365000  1.0
  Hf  Hf3  1  0.50000000  0.00000000  0.95818000  1.0
  Hf  Hf4  1  0.50000000  0.50000000  0.12367000  1.0
  Hf  Hf5  1  0.50000000  0.50000000  0.95818000  1.0
  In  In6  2  0.50000000  0.24725000  0.04009000  1.0
  In  In7  2  0.50000000  0.25000000  0.87455000  1.0
  In  In8  1  0.00000000  0.00000000  0.13297000  1.0
  In  In9  1  0.00000000  0.00000000  0.95818000  1.0
  In  In10  1  0.00000000  0.50000000  0.13336000  1.0
  In  In11  1  0.00000000  0.50000000  0.95818000  1.0
  Ni  Ni12  4  0.25000000  0.25000000  0.95818000  1.0
  Ni  Ni13  4  0.25329000  0.25207000  0.12067000  1.0
  Ni  Ni14  2  0.24132000  0.00000000  0.04272000  1.0
  Ni  Ni15  2  0.25000000  0.00000000  0.87455000  1.0
  Ni  Ni16  2  0.25000000  0.50000000  0.87455000  1.0
  Ni  Ni17  2  0.25595000  0.50000000  0.04440000  1.0
  C  C18  1  0.50000000  0.00000000  0.20836000  1.0
  O  O19  1  0.50000000  0.00000000  0.25148000  1.0
