# generated using pymatgen
data_Li8Ag4Sn4CO
_symmetry_space_group_name_H-M   'P 1'
_cell_length_a   6.59455000
_cell_length_b   6.59455000
_cell_length_c   24.94590000
_cell_angle_alpha   90.00000000
_cell_angle_beta   90.00000000
_cell_angle_gamma   90.00000000
_symmetry_Int_Tables_number   1
_chemical_formula_structural   Li8Ag4Sn4CO
_chemical_formula_sum   'Li8 Ag4 Sn4 C1 O1'
_cell_volume   1084.84953691
_cell_formula_units_Z   1
loop_
 _symmetry_equiv_pos_site_id
 _symmetry_equiv_pos_as_xyz
  1  'x, y, z'
loop_
 _atom_site_type_symbol
 _atom_site_label
 _atom_site_symmetry_multiplicity
 _atom_site_fract_x
 _atom_site_fract_y
 _atom_site_fract_z
 _atom_site_occupancy
  Li  Li0  1  0.25000000  0.75000000  0.03304000  1.0
  Li  Li1  1  0.75000000  0.25000000  0.90087000  1.0
  Li  Li2  1  0.75000000  0.75000000  0.03304000  1.0
  Li  Li3  1  0.25000000  0.25000000  0.90087000  1.0
  Li  Li4  1  0.75000000  0.25000000  0.03304000  1.0
  Li  Li5  1  0.25000000  0.75000000  0.90087000  1.0
  Li  Li6  1  0.25000000  0.25000000  0.03304000  1.0
  Li  Li7  1  0.75000000  0.75000000  0.90087000  1.0
  Ag  Ag8  1  0.00000000  0.50000000  0.09913000  1.0
  Ag  Ag9  1  0.50000000  0.00000000  0.09913000  1.0
  Ag  Ag10  1  0.50000000  0.50000000  0.96696000  1.0
  Ag  Ag11  1  0.00000000  0.00000000  0.96696000  1.0
  Sn  Sn12  1  0.00000000  0.50000000  0.96696000  1.0
  Sn  Sn13  1  0.50000000  0.50000000  0.09913000  1.0
  Sn  Sn14  1  0.00000000  0.00000000  0.09913000  1.0
  Sn  Sn15  1  0.50000000  0.00000000  0.96696000  1.0
  C  C16  1  0.00000000  0.00000000  0.17530000  1.0
  O  O17  1  0.00000000  0.00000000  0.22140000  1.0
