# generated using pymatgen
data_Li8Al8In8Pd8CO
_symmetry_space_group_name_H-M   Pm
_cell_length_a   6.39489000
_cell_length_b   9.04374000
_cell_length_c   26.78280000
_cell_angle_alpha   90.00000000
_cell_angle_beta   90.00000000
_cell_angle_gamma   90.00000000
_symmetry_Int_Tables_number   6
_chemical_formula_structural   Li8Al8In8Pd8CO
_chemical_formula_sum   'Li8 Al8 In8 Pd8 C1 O1'
_cell_volume   1548.94902267
_cell_formula_units_Z   1
loop_
 _symmetry_equiv_pos_site_id
 _symmetry_equiv_pos_as_xyz
  1  'x, y, z'
  2  'x, -y, z'
loop_
 _atom_site_type_symbol
 _atom_site_label
 _atom_site_symmetry_multiplicity
 _atom_site_fract_x
 _atom_site_fract_y
 _atom_site_fract_z
 _atom_site_occupancy
  Li  Li0  2  0.21868000  0.24945000  0.04580000  1.0
  Li  Li1  2  0.25000000  0.24999000  0.87337000  1.0
  Li  Li2  1  0.69038000  0.50000000  0.16539000  1.0
  Li  Li3  1  0.69263000  0.00000000  0.17022000  1.0
  Li  Li4  1  0.75000000  0.00000000  0.95779000  1.0
  Li  Li5  1  0.75000000  0.50000000  0.95779000  1.0
  Al  Al6  2  0.47877000  0.24806000  0.12604000  1.0
  Al  Al7  2  0.50000000  0.25001000  0.95779000  1.0
  Al  Al8  1  0.00000000  0.00000000  0.87337000  1.0
  Al  Al9  1  0.00000000  0.50000000  0.87337000  1.0
  Al  Al10  1  0.96330000  0.00000000  0.05561000  1.0
  Al  Al11  1  0.96603000  0.50000000  0.05465000  1.0
  In  In12  2  0.00000000  0.24999000  0.95779000  1.0
  In  In13  2  0.96425000  0.24929000  0.14034000  1.0
  In  In14  1  0.49734000  0.00000000  0.04590000  1.0
  In  In15  1  0.49782000  0.50000000  0.04598000  1.0
  In  In16  1  0.50000000  0.00000000  0.87337000  1.0
  In  In17  1  0.50000000  0.50000000  0.87337000  1.0
  Pd  Pd18  2  0.74714000  0.25088000  0.03961000  1.0
  Pd  Pd19  2  0.75000000  0.24999000  0.87337000  1.0
  Pd  Pd20  1  0.24252000  0.50000000  0.12589000  1.0
  Pd  Pd21  1  0.24259000  0.00000000  0.12549000  1.0
  Pd  Pd22  1  0.25000000  0.00000000  0.95779000  1.0
  Pd  Pd23  1  0.25000000  0.50000000  0.95779000  1.0
  C  C24  1  0.70534000  0.00000000  0.24908000  1.0
  O  O25  1  0.71229000  0.00000000  0.29157000  1.0
