data_image0
_chemical_formula_structural       Li8Mn8Sb8Pd8CO
_chemical_formula_sum              "Li8 Mn8 Sb8 Pd8 C1 O1"
_cell_length_a       6.44934
_cell_length_b       9.12074
_cell_length_c       26.8406
_cell_angle_alpha    90
_cell_angle_beta     90
_cell_angle_gamma    90

_space_group_name_H-M_alt    "P 1"
_space_group_IT_number       1

loop_
  _space_group_symop_operation_xyz
  'x, y, z'

loop_
  _atom_site_type_symbol
  _atom_site_label
  _atom_site_symmetry_multiplicity
  _atom_site_fract_x
  _atom_site_fract_y
  _atom_site_fract_z
  _atom_site_occupancy
  Li  Li1       1.0  0.00000  0.00000  0.87257  1.0000
  Li  Li2       1.0  0.00000  0.50000  0.87257  1.0000
  Li  Li3       1.0  0.50000  0.75000  0.95752  1.0000
  Li  Li4       1.0  0.50000  0.25000  0.95752  1.0000
  Li  Li5       1.0  0.97939  0.50000  0.04363  1.0000
  Li  Li6       1.0  0.99032  1.00000  0.04050  1.0000
  Li  Li7       1.0  0.48496  0.24873  0.13755  1.0000
  Li  Li8       1.0  0.48499  0.75127  0.13755  1.0000
  Mn  Mn1       1.0  0.00000  0.25000  0.95752  1.0000
  Mn  Mn2       1.0  0.00000  0.75000  0.95752  1.0000
  Mn  Mn3       1.0  0.50000  0.50000  0.87257  1.0000
  Mn  Mn4       1.0  0.50000  0.00000  0.87257  1.0000
  Mn  Mn5       1.0  0.98370  0.74736  0.12646  1.0000
  Mn  Mn6       1.0  0.98373  0.25265  0.12648  1.0000
  Mn  Mn7       1.0  0.50162  0.99999  0.04446  1.0000
  Mn  Mn8       1.0  0.51434  0.50000  0.04568  1.0000
  Sb  Sb1       1.0  0.75000  0.00000  0.95752  1.0000
  Sb  Sb2       1.0  0.75000  0.50000  0.95752  1.0000
  Sb  Sb3       1.0  0.25000  0.25000  0.87257  1.0000
  Sb  Sb4       1.0  0.25000  0.75000  0.87257  1.0000
  Sb  Sb5       1.0  0.74483  0.50001  0.13641  1.0000
  Sb  Sb6       1.0  0.74878  0.99999  0.13111  1.0000
  Sb  Sb7       1.0  0.25467  0.74710  0.04490  1.0000
  Sb  Sb8       1.0  0.25467  0.25289  0.04489  1.0000
  Pd  Pd1       1.0  0.25000  0.00000  0.95752  1.0000
  Pd  Pd2       1.0  0.25000  0.50000  0.95752  1.0000
  Pd  Pd3       1.0  0.75000  0.25000  0.87257  1.0000
  Pd  Pd4       1.0  0.75000  0.75000  0.87257  1.0000
  Pd  Pd5       1.0  0.22341  0.50000  0.11803  1.0000
  Pd  Pd6       1.0  0.21211  0.00001  0.11716  1.0000
  Pd  Pd7       1.0  0.74007  0.75560  0.04103  1.0000
  Pd  Pd8       1.0  0.74007  0.24439  0.04103  1.0000
  C   C1        1.0  0.65262  0.00001  0.27758  1.0000
  O   O1        1.0  0.78801  1.00000  0.30464  1.0000
