# generated using pymatgen
data_LiInCuPt
_symmetry_space_group_name_H-M   Pm
_cell_length_a   6.33470000
_cell_length_b   4.47931000
_cell_length_c   26.71900000
_cell_angle_alpha   90.00000000
_cell_angle_beta   90.00000000
_cell_angle_gamma   90.00000000
_symmetry_Int_Tables_number   6
_chemical_formula_structural   LiInCuPt
_chemical_formula_sum   'Li4 In4 Cu4 Pt4'
_cell_volume   758.15389764
_cell_formula_units_Z   4
loop_
 _symmetry_equiv_pos_site_id
 _symmetry_equiv_pos_as_xyz
  1  'x, y, z'
  2  'x, -y, z'
loop_
 _atom_site_type_symbol
 _atom_site_label
 _atom_site_symmetry_multiplicity
 _atom_site_fract_x
 _atom_site_fract_y
 _atom_site_fract_z
 _atom_site_occupancy
  Li  Li0  1  0.25000000  0.00000000  0.04191000  1.0
  Li  Li1  1  0.27777500  0.00000000  0.86845000  1.0
  Li  Li2  1  0.75000000  0.50000000  0.12573000  1.0
  Li  Li3  1  0.76862000  0.50000000  0.95672000  1.0
  In  In4  1  -0.00000000  0.50000000  0.04191000  1.0
  In  In5  1  0.49319000  0.00000000  0.95959000  1.0
  In  In6  1  0.50000000  0.00000000  0.12573000  1.0
  In  In7  1  0.98984000  0.50000000  0.86217000  1.0
  Cu  Cu8  1  -0.00000000  0.00000000  0.12573000  1.0
  Cu  Cu9  1  0.00862000  0.00000000  0.95924000  1.0
  Cu  Cu10  1  0.50000000  0.50000000  0.04191000  1.0
  Cu  Cu11  1  0.52259000  0.50000000  0.88203000  1.0
  Pt  Pt12  1  0.23841000  0.50000000  0.95511500  1.0
  Pt  Pt13  1  0.25000000  0.50000000  0.12573000  1.0
  Pt  Pt14  1  0.75000000  0.00000000  0.04191000  1.0
  Pt  Pt15  1  0.75299000  0.00000000  0.87981000  1.0
