# generated using pymatgen
data_Mo16C
_symmetry_space_group_name_H-M   P4mm
_cell_length_a   6.34058000
_cell_length_b   6.34058000
_cell_length_c   24.75540000
_cell_angle_alpha   90.00000000
_cell_angle_beta   90.00000000
_cell_angle_gamma   90.00000000
_symmetry_Int_Tables_number   99
_chemical_formula_structural   Mo16C
_chemical_formula_sum   'Mo16 C1'
_cell_volume   995.24022568
_cell_formula_units_Z   1
loop_
 _symmetry_equiv_pos_site_id
 _symmetry_equiv_pos_as_xyz
  1  'x, y, z'
  2  '-y, x, z'
  3  '-x, -y, z'
  4  'y, -x, z'
  5  '-x, y, z'
  6  'y, x, z'
  7  'x, -y, z'
  8  '-y, -x, z'
loop_
 _atom_site_type_symbol
 _atom_site_label
 _atom_site_symmetry_multiplicity
 _atom_site_fract_x
 _atom_site_fract_y
 _atom_site_fract_z
 _atom_site_occupancy
  Mo  Mo0  4  0.25000000  0.25000000  0.09605000  1.0
  Mo  Mo1  4  0.25000000  0.25000000  0.96798000  1.0
  Mo  Mo2  2  0.00000000  0.50000000  0.03202000  1.0
  Mo  Mo3  2  0.00000000  0.50000000  0.90395000  1.0
  Mo  Mo4  1  0.00000000  0.00000000  0.03202000  1.0
  Mo  Mo5  1  0.00000000  0.00000000  0.90395000  1.0
  Mo  Mo6  1  0.50000000  0.50000000  0.03202000  1.0
  Mo  Mo7  1  0.50000000  0.50000000  0.90395000  1.0
  C  C8  1  0.00000000  0.00000000  0.12836000  1.0
