# generated using pymatgen
data_Li8Hf8Sn8Pd8CO
_symmetry_space_group_name_H-M   P1
_cell_length_a   6.67688000
_cell_length_b   9.44254000
_cell_length_c   27.08190000
_cell_angle_alpha   90.00000000
_cell_angle_beta   90.00000000
_cell_angle_gamma   90.00000000
_symmetry_Int_Tables_number   1
_chemical_formula_structural   Li8Hf8Sn8Pd8CO
_chemical_formula_sum   'Li8 Hf8 Sn8 Pd8 C1 O1'
_cell_volume   1707.42460009
_cell_formula_units_Z   1
loop_
 _symmetry_equiv_pos_site_id
 _symmetry_equiv_pos_as_xyz
  1  'x, y, z'
loop_
 _atom_site_type_symbol
 _atom_site_label
 _atom_site_symmetry_multiplicity
 _atom_site_fract_x
 _atom_site_fract_y
 _atom_site_fract_z
 _atom_site_occupancy
  Li  Li0  1  0.00000000  0.25000000  0.95642000  1.0
  Li  Li1  1  0.00000000  0.75000000  0.95642000  1.0
  Li  Li2  1  0.49179000  0.50264000  0.03859000  1.0
  Li  Li3  1  0.50000000  0.00000000  0.86925000  1.0
  Li  Li4  1  0.50000000  0.50000000  0.86925000  1.0
  Li  Li5  1  0.50604000  0.00076000  0.03590000  1.0
  Li  Li6  1  0.94587000  0.72189000  0.14134000  1.0
  Li  Li7  1  0.94635000  0.28265000  0.14219000  1.0
  Hf  Hf8  1  0.00000000  0.00000000  0.86925000  1.0
  Hf  Hf9  1  0.00000000  0.50000000  0.86925000  1.0
  Hf  Hf10  1  0.04989000  0.00260000  0.05672000  1.0
  Hf  Hf11  1  0.40327000  0.18102000  0.12595000  1.0
  Hf  Hf12  1  0.40757000  0.82243000  0.12808000  1.0
  Hf  Hf13  1  0.50000000  0.25000000  0.95642000  1.0
  Hf  Hf14  1  0.50000000  0.75000000  0.95642000  1.0
  Hf  Hf15  1  0.98883000  0.50130000  0.04626000  1.0
  Sn  Sn16  1  0.09581000  0.00214000  0.16839000  1.0
  Sn  Sn17  1  0.25000000  0.00000000  0.95642000  1.0
  Sn  Sn18  1  0.25000000  0.50000000  0.95642000  1.0
  Sn  Sn19  1  0.27095000  0.50266000  0.13200000  1.0
  Sn  Sn20  1  0.74083000  0.24464000  0.04964000  1.0
  Sn  Sn21  1  0.74135000  0.75755000  0.04945000  1.0
  Sn  Sn22  1  0.75000000  0.25000000  0.86925000  1.0
  Sn  Sn23  1  0.75000000  0.75000000  0.86925000  1.0
  Pd  Pd24  1  0.24256000  0.73983000  0.03874000  1.0
  Pd  Pd25  1  0.24707000  0.26488000  0.04021000  1.0
  Pd  Pd26  1  0.25000000  0.25000000  0.86925000  1.0
  Pd  Pd27  1  0.25000000  0.75000000  0.86925000  1.0
  Pd  Pd28  1  0.69429000  0.49962000  0.11516000  1.0
  Pd  Pd29  1  0.73067000  0.00440000  0.11761000  1.0
  Pd  Pd30  1  0.75000000  0.00000000  0.95642000  1.0
  Pd  Pd31  1  0.75000000  0.50000000  0.95642000  1.0
  C  C32  1  0.52495000  0.96048000  0.18582000  1.0
  O  O33  1  0.57452000  0.02167000  0.22248000  1.0
