# generated using pymatgen
data_Li4Y4In4Pb4C
_symmetry_space_group_name_H-M   'P 1'
_cell_length_a   9.42336000
_cell_length_b   6.48172000
_cell_length_c   24.85820000
_cell_angle_alpha   90.00000000
_cell_angle_beta   90.00000000
_cell_angle_gamma   90.00000000
_symmetry_Int_Tables_number   1
_chemical_formula_structural   Li4Y4In4Pb4C
_chemical_formula_sum   'Li4 Y4 In4 Pb4 C1'
_cell_volume   1518.32843990
_cell_formula_units_Z   1
loop_
 _symmetry_equiv_pos_site_id
 _symmetry_equiv_pos_as_xyz
  1  'x, y, z'
loop_
 _atom_site_type_symbol
 _atom_site_label
 _atom_site_symmetry_multiplicity
 _atom_site_fract_x
 _atom_site_fract_y
 _atom_site_fract_z
 _atom_site_occupancy
  Li  Li0  1  0.00000000  0.50000000  0.09772000  1.0
  Li  Li1  1  0.00000000  0.93962000  0.96531000  1.0
  Li  Li2  1  0.50000000  0.50000000  0.09772000  1.0
  Li  Li3  1  0.50000000  0.96157000  0.96816000  1.0
  Y  Y4  1  0.25000000  0.24106000  0.03257000  1.0
  Y  Y5  1  0.23107000  0.69974000  0.89626000  1.0
  Y  Y6  1  0.75000000  0.24106000  0.03257000  1.0
  Y  Y7  1  0.76893000  0.69974000  0.89626000  1.0
  In  In8  1  0.00000000  0.00000000  0.09772000  1.0
  In  In9  1  0.00000000  0.39807000  0.95530000  1.0
  In  In10  1  0.50000000  0.00000000  0.09772000  1.0
  In  In11  1  0.50000000  0.45630000  0.96571000  1.0
  Pb  Pb12  1  0.25000000  0.74106000  0.03257000  1.0
  Pb  Pb13  1  0.28836000  0.20514000  0.89275000  1.0
  Pb  Pb14  1  0.75000000  0.74106000  0.03257000  1.0
  Pb  Pb15  1  0.71164000  0.20514000  0.89275000  1.0
  C  C16  1  0.00000000  0.69427000  0.90973000  1.0
