# generated using pymatgen
data_Li4Y4In4Pb4C
_symmetry_space_group_name_H-M   Pm
_cell_length_a   6.48172000
_cell_length_b   9.42336000
_cell_length_c   24.85820000
_cell_angle_alpha   90.00000000
_cell_angle_beta   90.00000000
_cell_angle_gamma   90.00000000
_symmetry_Int_Tables_number   6
_chemical_formula_structural   Li4Y4In4Pb4C
_chemical_formula_sum   'Li4 Y4 In4 Pb4 C1'
_cell_volume   1518.32843990
_cell_formula_units_Z   1
loop_
 _symmetry_equiv_pos_site_id
 _symmetry_equiv_pos_as_xyz
  1  'x, y, z'
  2  'x, -y, z'
loop_
 _atom_site_type_symbol
 _atom_site_label
 _atom_site_symmetry_multiplicity
 _atom_site_fract_x
 _atom_site_fract_y
 _atom_site_fract_z
 _atom_site_occupancy
  Li  Li0  1  0.50000000  0.00000000  0.90228000  1.0
  Li  Li1  1  0.50000000  0.50000000  0.90228000  1.0
  Li  Li2  1  0.93962000  0.00000000  0.03469000  1.0
  Li  Li3  1  0.96157000  0.50000000  0.03184000  1.0
  Y  Y4  2  0.24106000  0.25000000  0.96743000  1.0
  Y  Y5  2  0.69974000  0.23107000  0.10374000  1.0
  In  In6  1  0.00000000  0.00000000  0.90228000  1.0
  In  In7  1  0.00000000  0.50000000  0.90228000  1.0
  In  In8  1  0.39807000  0.00000000  0.04470000  1.0
  In  In9  1  0.45630000  0.50000000  0.03429000  1.0
  Pb  Pb10  2  0.20514000  0.28836000  0.10725000  1.0
  Pb  Pb11  2  0.74106000  0.25000000  0.96743000  1.0
  C  C12  1  0.69427000  0.00000000  0.09027000  1.0
