# generated using pymatgen
data_Al4Pt12CO
_symmetry_space_group_name_H-M   Pmm2
_cell_length_a   5.57908000
_cell_length_b   7.89001000
_cell_length_c   24.18430000
_cell_angle_alpha   90.00000000
_cell_angle_beta   90.00000000
_cell_angle_gamma   90.00000000
_symmetry_Int_Tables_number   25
_chemical_formula_structural   Al4Pt12CO
_chemical_formula_sum   'Al4 Pt12 C1 O1'
_cell_volume   1064.56862892
_cell_formula_units_Z   1
loop_
 _symmetry_equiv_pos_site_id
 _symmetry_equiv_pos_as_xyz
  1  'x, y, z'
  2  '-x, -y, z'
  3  '-x, y, z'
  4  'x, -y, z'
loop_
 _atom_site_type_symbol
 _atom_site_label
 _atom_site_symmetry_multiplicity
 _atom_site_fract_x
 _atom_site_fract_y
 _atom_site_fract_z
 _atom_site_occupancy
  Al  Al0  1  0.00000000  0.00000000  0.92389000  1.0
  Al  Al1  1  0.00000000  0.50000000  0.92384000  1.0
  Al  Al2  1  0.50000000  0.00000000  0.02884000  1.0
  Al  Al3  1  0.50000000  0.50000000  0.02884000  1.0
  Pt  Pt4  4  0.24351000  0.24953000  0.96530000  1.0
  Pt  Pt5  4  0.25000000  0.25000000  0.08651000  1.0
  Pt  Pt6  1  0.00000000  0.00000000  0.02884000  1.0
  Pt  Pt7  1  0.00000000  0.50000000  0.02884000  1.0
  Pt  Pt8  1  0.50000000  0.00000000  0.91926000  1.0
  Pt  Pt9  1  0.50000000  0.50000000  0.91909000  1.0
  C  C10  1  0.00000000  0.00000000  0.83786000  1.0
  O  O11  1  0.00000000  0.00000000  0.79066000  1.0
