# generated using pymatgen
data_Li4Y4In4Sn4C
_symmetry_space_group_name_H-M   Pm
_cell_length_a   6.50942000
_cell_length_b   8.86856000
_cell_length_c   24.87900000
_cell_angle_alpha   90.00000000
_cell_angle_beta   90.00000000
_cell_angle_gamma   90.00000000
_symmetry_Int_Tables_number   6
_chemical_formula_structural   Li4Y4In4Sn4C
_chemical_formula_sum   'Li4 Y4 In4 Sn4 C1'
_cell_volume   1436.24431488
_cell_formula_units_Z   1
loop_
 _symmetry_equiv_pos_site_id
 _symmetry_equiv_pos_as_xyz
  1  'x, y, z'
  2  'x, -y, z'
loop_
 _atom_site_type_symbol
 _atom_site_label
 _atom_site_symmetry_multiplicity
 _atom_site_fract_x
 _atom_site_fract_y
 _atom_site_fract_z
 _atom_site_occupancy
  Li  Li0  1  0.27644000  0.00000000  0.09806000  1.0
  Li  Li1  1  0.27644000  0.50000000  0.09806000  1.0
  Li  Li2  1  0.74192000  0.50000000  0.95614000  1.0
  Li  Li3  1  0.75967000  0.00000000  0.96537000  1.0
  Y  Y4  1  0.24171000  0.50000000  0.96639000  1.0
  Y  Y5  1  0.27592000  0.00000000  0.96449000  1.0
  Y  Y6  1  0.77644000  0.00000000  0.09806000  1.0
  Y  Y7  1  0.77644000  0.50000000  0.09806000  1.0
  In  In8  2  0.51763000  0.25000000  0.03269000  1.0
  In  In9  2  0.97716000  0.22392000  0.90388000  1.0
  Sn  Sn10  2  0.01763000  0.25000000  0.03269000  1.0
  Sn  Sn11  2  0.50144000  0.26497000  0.88963000  1.0
  C  C12  1  0.47936000  0.50000000  0.90049000  1.0
