# generated using pymatgen
data_Li8V8Ge8Pd8C
_symmetry_space_group_name_H-M   'P 1'
_cell_length_a   8.64114000
_cell_length_b   9.40562000
_cell_length_c   24.26620000
_cell_angle_alpha   90.00000000
_cell_angle_beta   90.00000000
_cell_angle_gamma   90.00000000
_symmetry_Int_Tables_number   1
_chemical_formula_structural   Li8V8Ge8Pd8C
_chemical_formula_sum   'Li8 V8 Ge8 Pd8 C1'
_cell_volume   1972.24218029
_cell_formula_units_Z   1
loop_
 _symmetry_equiv_pos_site_id
 _symmetry_equiv_pos_as_xyz
  1  'x, y, z'
loop_
 _atom_site_type_symbol
 _atom_site_label
 _atom_site_symmetry_multiplicity
 _atom_site_fract_x
 _atom_site_fract_y
 _atom_site_fract_z
 _atom_site_occupancy
  Li  Li0  1  0.50000000  0.25000000  0.97070000  1.0
  Li  Li1  1  0.50000000  0.23215000  0.09763000  1.0
  Li  Li2  1  0.50000000  0.75000000  0.97070000  1.0
  Li  Li3  1  0.50000000  0.76785000  0.09763000  1.0
  Li  Li4  1  0.00000000  0.25000000  0.97070000  1.0
  Li  Li5  1  0.00000000  0.24822000  0.09575000  1.0
  Li  Li6  1  0.00000000  0.75000000  0.97070000  1.0
  Li  Li7  1  0.00000000  0.75178000  0.09575000  1.0
  V  V8  1  0.75001000  0.00000000  0.97070000  1.0
  V  V9  1  0.71818000  0.00000000  0.07839000  1.0
  V  V10  1  0.75001000  0.50000000  0.97070000  1.0
  V  V11  1  0.74892000  0.50000000  0.06625000  1.0
  V  V12  1  0.24999000  0.00000000  0.97070000  1.0
  V  V13  1  0.28182000  0.00000000  0.07839000  1.0
  V  V14  1  0.24999000  0.50000000  0.97070000  1.0
  V  V15  1  0.25108000  0.50000000  0.06625000  1.0
  Ge  Ge16  1  0.50000000  0.00000000  0.91210000  1.0
  Ge  Ge17  1  0.50000000  0.00000000  0.01626000  1.0
  Ge  Ge18  1  0.50000000  0.50000000  0.91210000  1.0
  Ge  Ge19  1  0.50000000  0.50000000  0.02310000  1.0
  Ge  Ge20  1  0.00000000  0.00000000  0.91210000  1.0
  Ge  Ge21  1  0.00000000  0.00000000  0.03314000  1.0
  Ge  Ge22  1  0.00000000  0.50000000  0.91210000  1.0
  Ge  Ge23  1  0.00000000  0.50000000  0.02376000  1.0
  Pd  Pd24  1  0.75001000  0.25000000  0.91210000  1.0
  Pd  Pd25  1  0.75735000  0.24470000  0.03489000  1.0
  Pd  Pd26  1  0.75001000  0.75000000  0.91210000  1.0
  Pd  Pd27  1  0.75735000  0.75530000  0.03489000  1.0
  Pd  Pd28  1  0.24999000  0.25000000  0.91210000  1.0
  Pd  Pd29  1  0.24265000  0.24470000  0.03489000  1.0
  Pd  Pd30  1  0.24999000  0.75000000  0.91210000  1.0
  Pd  Pd31  1  0.24265000  0.75530000  0.03489000  1.0
  C  C32  1  0.50000000  0.00000000  0.10142000  1.0
