# generated using pymatgen
data_Li8V8Ge8Pd8C
_symmetry_space_group_name_H-M   Pmm2
_cell_length_a   8.64114000
_cell_length_b   9.40562000
_cell_length_c   24.26620000
_cell_angle_alpha   90.00000000
_cell_angle_beta   90.00000000
_cell_angle_gamma   90.00000000
_symmetry_Int_Tables_number   25
_chemical_formula_structural   Li8V8Ge8Pd8C
_chemical_formula_sum   'Li8 V8 Ge8 Pd8 C1'
_cell_volume   1972.24218029
_cell_formula_units_Z   1
loop_
 _symmetry_equiv_pos_site_id
 _symmetry_equiv_pos_as_xyz
  1  'x, y, z'
  2  '-x, -y, z'
  3  '-x, y, z'
  4  'x, -y, z'
loop_
 _atom_site_type_symbol
 _atom_site_label
 _atom_site_symmetry_multiplicity
 _atom_site_fract_x
 _atom_site_fract_y
 _atom_site_fract_z
 _atom_site_occupancy
  Li  Li0  2  0.00000000  0.24822000  0.09575000  1.0
  Li  Li1  2  0.00000000  0.25000000  0.97070000  1.0
  Li  Li2  2  0.50000000  0.23215000  0.09763000  1.0
  Li  Li3  2  0.50000000  0.25000000  0.97070000  1.0
  V  V4  2  0.24999000  0.00000000  0.97070000  1.0
  V  V5  2  0.24999000  0.50000000  0.97070000  1.0
  V  V6  2  0.25108000  0.50000000  0.06625000  1.0
  V  V7  2  0.28182000  0.00000000  0.07839000  1.0
  Ge  Ge8  1  0.00000000  0.00000000  0.03314000  1.0
  Ge  Ge9  1  0.00000000  0.00000000  0.91210000  1.0
  Ge  Ge10  1  0.00000000  0.50000000  0.02376000  1.0
  Ge  Ge11  1  0.00000000  0.50000000  0.91210000  1.0
  Ge  Ge12  1  0.50000000  0.00000000  0.01626000  1.0
  Ge  Ge13  1  0.50000000  0.00000000  0.91210000  1.0
  Ge  Ge14  1  0.50000000  0.50000000  0.02310000  1.0
  Ge  Ge15  1  0.50000000  0.50000000  0.91210000  1.0
  Pd  Pd16  4  0.24265000  0.24470000  0.03489000  1.0
  Pd  Pd17  4  0.24999000  0.25000000  0.91210000  1.0
  C  C18  1  0.50000000  0.00000000  0.10142000  1.0
