# generated using pymatgen
data_Zr4Zn4Cu8CO
_symmetry_space_group_name_H-M   Cmm2
_cell_length_a   8.84444919
_cell_length_b   8.84444919
_cell_length_c   24.69050000
_cell_angle_alpha   90.00000000
_cell_angle_beta   90.00000000
_cell_angle_gamma   90.00000000
_symmetry_Int_Tables_number   35
_chemical_formula_structural   Zr4Zn4Cu8CO
_chemical_formula_sum   'Zr8 Zn8 Cu16 C2 O2'
_cell_volume   1931.39662291
_cell_formula_units_Z   2
loop_
 _symmetry_equiv_pos_site_id
 _symmetry_equiv_pos_as_xyz
  1  'x, y, z'
  2  '-x, -y, z'
  3  '-x, y, z'
  4  'x, -y, z'
  5  'x+1/2, y+1/2, z'
  6  '-x+1/2, -y+1/2, z'
  7  '-x+1/2, y+1/2, z'
  8  'x+1/2, -y+1/2, z'
loop_
 _atom_site_type_symbol
 _atom_site_label
 _atom_site_symmetry_multiplicity
 _atom_site_fract_x
 _atom_site_fract_y
 _atom_site_fract_z
 _atom_site_occupancy
  Zr  Zr0  4  0.00000000  0.25000000  0.90501000  1.0
  Zr  Zr1  4  0.25000000  0.50000000  0.03166000  1.0
  Zn  Zn2  4  0.00000000  0.25000000  0.03166000  1.0
  Zn  Zn3  4  0.25000000  0.50000000  0.90501000  1.0
  Cu  Cu4  4  0.25000000  0.25000000  0.09499000  1.0
  Cu  Cu5  4  0.25000000  0.25000000  0.96834000  1.0
  Cu  Cu6  2  0.00000000  0.00000000  0.09499000  1.0
  Cu  Cu7  2  0.00000000  0.00000000  0.96834000  1.0
  Cu  Cu8  2  0.00000000  0.50000000  0.09499000  1.0
  Cu  Cu9  2  0.00000000  0.50000000  0.96834000  1.0
  C  C10  2  0.00000000  0.50000000  0.17194000  1.0
  O  O11  2  0.00000000  0.50000000  0.21851000  1.0
