data_image0
_chemical_formula_structural       Cr4Ga4Fe8
_chemical_formula_sum              "Cr4 Ga4 Fe8"
_cell_length_a       6.89656
_cell_length_b       6.89656
_cell_length_c       25.1724
_cell_angle_alpha    90
_cell_angle_beta     90
_cell_angle_gamma    90

_space_group_name_H-M_alt    "P 1"
_space_group_IT_number       1

loop_
  _space_group_symop_operation_xyz
  'x, y, z'

loop_
  _atom_site_type_symbol
  _atom_site_label
  _atom_site_symmetry_multiplicity
  _atom_site_fract_x
  _atom_site_fract_y
  _atom_site_fract_z
  _atom_site_occupancy
  Cr  Cr1       1.0  0.99905  0.99859  0.06961  1.0000
  Cr  Cr2       1.0  0.50061  0.50145  0.06964  1.0000
  Cr  Cr3       1.0  0.50000  0.00000  0.96575  1.0000
  Cr  Cr4       1.0  0.00000  0.50000  0.96575  1.0000
  Ga  Ga1       1.0  0.00000  0.00000  0.96575  1.0000
  Ga  Ga2       1.0  0.50386  0.99553  0.06658  1.0000
  Ga  Ga3       1.0  0.99643  0.50448  0.06653  1.0000
  Ga  Ga4       1.0  0.50000  0.50000  0.96575  1.0000
  Fe  Fe1       1.0  0.24997  0.24996  0.00269  1.0000
  Fe  Fe2       1.0  0.75000  0.75000  0.89726  1.0000
  Fe  Fe3       1.0  0.75001  0.25009  0.00236  1.0000
  Fe  Fe4       1.0  0.25000  0.75000  0.89726  1.0000
  Fe  Fe5       1.0  0.75005  0.74995  0.00268  1.0000
  Fe  Fe6       1.0  0.25000  0.25000  0.89726  1.0000
  Fe  Fe7       1.0  0.24997  0.75002  0.00216  1.0000
  Fe  Fe8       1.0  0.75000  0.25000  0.89726  1.0000
