# generated using pymatgen
data_CrGaFe2
_symmetry_space_group_name_H-M   P1
_cell_length_a   6.89656000
_cell_length_b   6.89656000
_cell_length_c   25.17240000
_cell_angle_alpha   90.00000000
_cell_angle_beta   90.00000000
_cell_angle_gamma   90.00000000
_symmetry_Int_Tables_number   1
_chemical_formula_structural   CrGaFe2
_chemical_formula_sum   'Cr4 Ga4 Fe8'
_cell_volume   1197.26327771
_cell_formula_units_Z   4
loop_
 _symmetry_equiv_pos_site_id
 _symmetry_equiv_pos_as_xyz
  1  'x, y, z'
loop_
 _atom_site_type_symbol
 _atom_site_label
 _atom_site_symmetry_multiplicity
 _atom_site_fract_x
 _atom_site_fract_y
 _atom_site_fract_z
 _atom_site_occupancy
  Cr  Cr0  1  0.00000000  0.50000000  0.96575000  1.0
  Cr  Cr1  1  0.50000000  0.00000000  0.96575000  1.0
  Cr  Cr2  1  0.50061000  0.50145000  0.06964000  1.0
  Cr  Cr3  1  0.99905000  0.99859000  0.06961000  1.0
  Ga  Ga4  1  0.00000000  0.00000000  0.96575000  1.0
  Ga  Ga5  1  0.50000000  0.50000000  0.96575000  1.0
  Ga  Ga6  1  0.50386000  0.99553000  0.06658000  1.0
  Ga  Ga7  1  0.99643000  0.50448000  0.06653000  1.0
  Fe  Fe8  1  0.24997000  0.24996000  0.00269000  1.0
  Fe  Fe9  1  0.24997000  0.75002000  0.00216000  1.0
  Fe  Fe10  1  0.25000000  0.25000000  0.89726000  1.0
  Fe  Fe11  1  0.25000000  0.75000000  0.89726000  1.0
  Fe  Fe12  1  0.75000000  0.25000000  0.89726000  1.0
  Fe  Fe13  1  0.75000000  0.75000000  0.89726000  1.0
  Fe  Fe14  1  0.75001000  0.25009000  0.00236000  1.0
  Fe  Fe15  1  0.75005000  0.74995000  0.00268000  1.0
