# generated using pymatgen
data_Sc8Ga8Ge8Pd8C
_symmetry_space_group_name_H-M   Pmm2
_cell_length_a   7.83718000
_cell_length_b   8.58414000
_cell_length_c   26.06500000
_cell_angle_alpha   90.00000000
_cell_angle_beta   90.00000000
_cell_angle_gamma   90.00000000
_symmetry_Int_Tables_number   25
_chemical_formula_structural   Sc8Ga8Ge8Pd8C
_chemical_formula_sum   'Sc8 Ga8 Ge8 Pd8 C1'
_cell_volume   1753.53461273
_cell_formula_units_Z   1
loop_
 _symmetry_equiv_pos_site_id
 _symmetry_equiv_pos_as_xyz
  1  'x, y, z'
  2  '-x, -y, z'
  3  '-x, y, z'
  4  'x, -y, z'
loop_
 _atom_site_type_symbol
 _atom_site_label
 _atom_site_symmetry_multiplicity
 _atom_site_fract_x
 _atom_site_fract_y
 _atom_site_fract_z
 _atom_site_occupancy
  Sc  Sc0  2  0.25000000  0.00000000  0.03878000  1.0
  Sc  Sc1  2  0.25000000  0.50000000  0.03878000  1.0
  Sc  Sc2  2  0.25490000  0.50000000  0.87939000  1.0
  Sc  Sc3  2  0.27168000  0.00000000  0.87946000  1.0
  Ga  Ga4  4  0.25000000  0.25000000  0.11634000  1.0
  Ga  Ga5  4  0.25197000  0.25113000  0.96059000  1.0
  Ge  Ge6  1  0.00000000  0.00000000  0.11634000  1.0
  Ge  Ge7  1  0.00000000  0.00000000  0.95976000  1.0
  Ge  Ge8  1  0.00000000  0.50000000  0.11634000  1.0
  Ge  Ge9  1  0.00000000  0.50000000  0.95748000  1.0
  Ge  Ge10  1  0.50000000  0.00000000  0.11634000  1.0
  Ge  Ge11  1  0.50000000  0.00000000  0.96330000  1.0
  Ge  Ge12  1  0.50000000  0.50000000  0.11634000  1.0
  Ge  Ge13  1  0.50000000  0.50000000  0.96147000  1.0
  Pd  Pd14  2  0.00000000  0.25000000  0.03878000  1.0
  Pd  Pd15  2  0.00000000  0.26084000  0.88892000  1.0
  Pd  Pd16  2  0.50000000  0.25000000  0.03878000  1.0
  Pd  Pd17  2  0.50000000  0.26142000  0.88861000  1.0
  C  C18  1  0.00000000  0.00000000  0.87952000  1.0
