# generated using pymatgen
data_LiVGePd
_symmetry_space_group_name_H-M   Pmm2
_cell_length_a   4.32057000
_cell_length_b   5.68832000
_cell_length_c   27.05420000
_cell_angle_alpha   90.00000000
_cell_angle_beta   90.00000000
_cell_angle_gamma   90.00000000
_symmetry_Int_Tables_number   25
_chemical_formula_structural   LiVGePd
_chemical_formula_sum   'Li4 V4 Ge4 Pd4'
_cell_volume   664.90524978
_cell_formula_units_Z   4
loop_
 _symmetry_equiv_pos_site_id
 _symmetry_equiv_pos_as_xyz
  1  'x, y, z'
  2  '-x, -y, z'
  3  '-x, y, z'
  4  'x, -y, z'
loop_
 _atom_site_type_symbol
 _atom_site_label
 _atom_site_symmetry_multiplicity
 _atom_site_fract_x
 _atom_site_fract_y
 _atom_site_fract_z
 _atom_site_occupancy
  Li  Li0  1  0.50000000  0.00000000  0.13037000  1.0
  Li  Li1  1  0.50000000  0.00000000  0.95288000  1.0
  Li  Li2  1  0.50000000  0.50000000  0.13037000  1.0
  Li  Li3  1  0.50000000  0.50000000  0.95288000  1.0
  V  V4  1  0.00000000  0.00000000  0.04346000  1.0
  V  V5  1  0.00000000  0.00000000  0.87396000  1.0
  V  V6  1  0.00000000  0.50000000  0.04346000  1.0
  V  V7  1  0.00000000  0.50000000  0.87396000  1.0
  Ge  Ge8  2  0.50000000  0.25000000  0.04346000  1.0
  Ge  Ge9  2  0.50000000  0.25014000  0.86091000  1.0
  Pd  Pd10  2  0.00000000  0.24998500  0.95770000  1.0
  Pd  Pd11  2  0.00000000  0.25000000  0.13037000  1.0
