data_image0
_chemical_formula_structural       Mn3GeMn3GeMn3GeMn3GeCO
_chemical_formula_sum              "Mn12 Ge4 C1 O1"
_cell_length_a       7.42262
_cell_length_b       5.24858
_cell_length_c       23.9364
_cell_angle_alpha    90
_cell_angle_beta     90
_cell_angle_gamma    90

_space_group_name_H-M_alt    "P 1"
_space_group_IT_number       1

loop_
  _space_group_symop_operation_xyz
  'x, y, z'

loop_
  _atom_site_type_symbol
  _atom_site_label
  _atom_site_symmetry_multiplicity
  _atom_site_fract_x
  _atom_site_fract_y
  _atom_site_fract_z
  _atom_site_occupancy
  Mn  Mn1       1.0  0.00000  0.50000  0.91777  1.0000
  Mn  Mn2       1.0  0.25000  0.75000  0.97259  1.0000
  Mn  Mn3       1.0  0.25000  0.25000  0.97259  1.0000
  Ge  Ge1       1.0  0.00000  0.00000  0.91777  1.0000
  Mn  Mn4       1.0  0.00000  1.00000  0.02741  1.0000
  Mn  Mn5       1.0  0.25000  0.25000  0.08223  1.0000
  Mn  Mn6       1.0  0.25000  0.75000  0.08223  1.0000
  Ge  Ge2       1.0  0.00000  0.50000  0.02741  1.0000
  Mn  Mn7       1.0  0.50000  0.50000  0.91777  1.0000
  Mn  Mn8       1.0  0.75000  0.75000  0.97259  1.0000
  Mn  Mn9       1.0  0.75000  0.25000  0.97259  1.0000
  Ge  Ge3       1.0  0.50000  0.00000  0.91777  1.0000
  Mn  Mn10      1.0  0.50000  1.00000  0.02741  1.0000
  Mn  Mn11      1.0  0.75000  0.25000  0.08223  1.0000
  Mn  Mn12      1.0  0.75000  0.75000  0.08223  1.0000
  Ge  Ge4       1.0  0.50000  0.50000  0.02741  1.0000
  C   C1        1.0  0.25000  0.25000  0.16160  1.0000
  O   O1        1.0  0.25000  0.25000  0.20965  1.0000
