data_image0
_chemical_formula_structural       Sc4Ir12C
_chemical_formula_sum              "Sc4 Ir12 C1"
_cell_length_a       7.92728
_cell_length_b       5.60543
_cell_length_c       24.2041
_cell_angle_alpha    90
_cell_angle_beta     90
_cell_angle_gamma    90

_space_group_name_H-M_alt    "P 1"
_space_group_IT_number       1

loop_
  _space_group_symop_operation_xyz
  'x, y, z'

loop_
  _atom_site_type_symbol
  _atom_site_label
  _atom_site_symmetry_multiplicity
  _atom_site_fract_x
  _atom_site_fract_y
  _atom_site_fract_z
  _atom_site_occupancy
  Sc  Sc1       1.0  0.98819  0.99941  0.08099  1.0000
  Sc  Sc2       1.0  0.00000  0.50000  0.97105  1.0000
  Sc  Sc3       1.0  0.51181  0.99941  0.08099  1.0000
  Sc  Sc4       1.0  0.50000  0.50000  0.97105  1.0000
  Ir  Ir1       1.0  0.99770  0.49968  0.08278  1.0000
  Ir  Ir2       1.0  0.25000  0.75432  0.02576  1.0000
  Ir  Ir3       1.0  0.25000  0.24501  0.02575  1.0000
  Ir  Ir4       1.0  0.00000  0.00000  0.97105  1.0000
  Ir  Ir5       1.0  0.25000  0.25000  0.91315  1.0000
  Ir  Ir6       1.0  0.25000  0.75000  0.91315  1.0000
  Ir  Ir7       1.0  0.50230  0.49968  0.08278  1.0000
  Ir  Ir8       1.0  0.75000  0.74644  0.02687  1.0000
  Ir  Ir9       1.0  0.75000  0.25293  0.02688  1.0000
  Ir  Ir10      1.0  0.50000  0.00000  0.97105  1.0000
  Ir  Ir11      1.0  0.75000  0.25000  0.91315  1.0000
  Ir  Ir12      1.0  0.75000  0.75000  0.91315  1.0000
  C   C1        1.0  0.25000  0.49919  0.08806  1.0000
