# generated using pymatgen
data_Sc4Ir12C
_symmetry_space_group_name_H-M   Pm
_cell_length_a   5.60543000
_cell_length_b   7.92728000
_cell_length_c   24.20410000
_cell_angle_alpha   90.00000000
_cell_angle_beta   90.00000000
_cell_angle_gamma   90.00000000
_symmetry_Int_Tables_number   6
_chemical_formula_structural   Sc4Ir12C
_chemical_formula_sum   'Sc4 Ir12 C1'
_cell_volume   1075.52886459
_cell_formula_units_Z   1
loop_
 _symmetry_equiv_pos_site_id
 _symmetry_equiv_pos_as_xyz
  1  'x, y, z'
  2  'x, -y, z'
loop_
 _atom_site_type_symbol
 _atom_site_label
 _atom_site_symmetry_multiplicity
 _atom_site_fract_x
 _atom_site_fract_y
 _atom_site_fract_z
 _atom_site_occupancy
  Sc  Sc0  2  0.00059000  0.23819000  0.91901000  1.0
  Sc  Sc1  2  0.50000000  0.25000000  0.02895000  1.0
  Ir  Ir2  2  0.00000000  0.25000000  0.02895000  1.0
  Ir  Ir3  2  0.50032000  0.24770000  0.91722000  1.0
  Ir  Ir4  1  0.24568000  0.50000000  0.97424000  1.0
  Ir  Ir5  1  0.25000000  0.00000000  0.08685000  1.0
  Ir  Ir6  1  0.25000000  0.50000000  0.08685000  1.0
  Ir  Ir7  1  0.25356000  0.00000000  0.97313000  1.0
  Ir  Ir8  1  0.74707000  0.00000000  0.97312000  1.0
  Ir  Ir9  1  0.75000000  0.00000000  0.08685000  1.0
  Ir  Ir10  1  0.75000000  0.50000000  0.08685000  1.0
  Ir  Ir11  1  0.75499000  0.50000000  0.97425000  1.0
  C  C12  1  0.50081000  0.50000000  0.91194000  1.0
