# generated using pymatgen
data_Y8In8Cu16CO
_symmetry_space_group_name_H-M   'P 1'
_cell_length_a   9.47494000
_cell_length_b   6.69979000
_cell_length_c   27.10620000
_cell_angle_alpha   90.00000000
_cell_angle_beta   90.00000000
_cell_angle_gamma   90.00000000
_symmetry_Int_Tables_number   1
_chemical_formula_structural   Y8In8Cu16CO
_chemical_formula_sum   'Y8 In8 Cu16 C1 O1'
_cell_volume   1720.70451059
_cell_formula_units_Z   1
loop_
 _symmetry_equiv_pos_site_id
 _symmetry_equiv_pos_as_xyz
  1  'x, y, z'
loop_
 _atom_site_type_symbol
 _atom_site_label
 _atom_site_symmetry_multiplicity
 _atom_site_fract_x
 _atom_site_fract_y
 _atom_site_fract_z
 _atom_site_occupancy
  Y  Y0  1  0.00000000  0.00000000  0.13108000  1.0
  Y  Y1  1  0.25000000  0.50000000  0.04369000  1.0
  Y  Y2  1  0.75000000  0.50000000  0.04369000  1.0
  Y  Y3  1  0.50000000  1.00000000  0.13108000  1.0
  Y  Y4  1  0.50000000  0.99531000  0.95503000  1.0
  Y  Y5  1  0.77600000  0.47952000  0.86455000  1.0
  Y  Y6  1  0.22400000  0.47952000  0.86455000  1.0
  Y  Y7  1  0.00000000  0.01056000  0.95558000  1.0
  In  In8  1  0.75000000  1.00000000  0.04369000  1.0
  In  In9  1  0.00000000  0.50000000  0.13108000  1.0
  In  In10  1  0.25000000  1.00000000  0.04369000  1.0
  In  In11  1  0.50000000  0.50000000  0.13108000  1.0
  In  In12  1  0.26428000  0.98913000  0.86809000  1.0
  In  In13  1  0.50000000  0.49950000  0.95916000  1.0
  In  In14  1  0.73572000  0.98913000  0.86809000  1.0
  In  In15  1  0.00000000  0.50218000  0.95672000  1.0
  Cu  Cu16  1  0.00000000  0.25000000  0.04369000  1.0
  Cu  Cu17  1  0.50000000  0.75000000  0.04369000  1.0
  Cu  Cu18  1  0.00000000  0.75000000  0.04369000  1.0
  Cu  Cu19  1  0.50000000  0.25000000  0.04369000  1.0
  Cu  Cu20  1  0.75000000  0.75000000  0.13108000  1.0
  Cu  Cu21  1  0.25000000  0.25000000  0.13108000  1.0
  Cu  Cu22  1  0.75000000  0.25000000  0.13108000  1.0
  Cu  Cu23  1  0.25000000  0.75000000  0.13108000  1.0
  Cu  Cu24  1  0.50000000  0.27879000  0.87213000  1.0
  Cu  Cu25  1  0.00000000  0.77664000  0.86915000  1.0
  Cu  Cu26  1  0.50000000  0.69951000  0.87080000  1.0
  Cu  Cu27  1  0.00000000  0.13875000  0.84456000  1.0
  Cu  Cu28  1  0.25011000  0.73532000  0.95249000  1.0
  Cu  Cu29  1  0.74536000  0.25913000  0.95457000  1.0
  Cu  Cu30  1  0.25464000  0.25913000  0.95457000  1.0
  Cu  Cu31  1  0.74989000  0.73532000  0.95249000  1.0
  C  C32  1  0.00000000  0.38659000  0.80557000  1.0
  O  O33  1  0.00000000  0.41808000  0.76232000  1.0
