# generated using pymatgen
data_Li8Cu8Ge8Pd8CO
_symmetry_space_group_name_H-M   'P 1'
_cell_length_a   8.54512000
_cell_length_b   6.04231000
_cell_length_c   26.40880000
_cell_angle_alpha   90.00000000
_cell_angle_beta   90.00000000
_cell_angle_gamma   90.00000000
_symmetry_Int_Tables_number   1
_chemical_formula_structural   Li8Cu8Ge8Pd8CO
_chemical_formula_sum   'Li8 Cu8 Ge8 Pd8 C1 O1'
_cell_volume   1363.54613424
_cell_formula_units_Z   1
loop_
 _symmetry_equiv_pos_site_id
 _symmetry_equiv_pos_as_xyz
  1  'x, y, z'
loop_
 _atom_site_type_symbol
 _atom_site_label
 _atom_site_symmetry_multiplicity
 _atom_site_fract_x
 _atom_site_fract_y
 _atom_site_fract_z
 _atom_site_occupancy
  Li  Li0  1  0.50000000  0.25000000  0.04045000  1.0
  Li  Li1  1  0.00000000  0.25000000  0.04045000  1.0
  Li  Li2  1  0.75003000  0.75000000  0.12134000  1.0
  Li  Li3  1  0.24997000  0.75000000  0.12134000  1.0
  Li  Li4  1  0.00000000  0.25352000  0.86707000  1.0
  Li  Li5  1  0.50000000  0.24679000  0.85940000  1.0
  Li  Li6  1  0.25537000  0.75057000  0.96443000  1.0
  Li  Li7  1  0.74463000  0.75057000  0.96443000  1.0
  Cu  Cu8  1  0.50000000  0.00000000  0.12134000  1.0
  Cu  Cu9  1  0.00000000  0.00000000  0.12134000  1.0
  Cu  Cu10  1  0.25003000  0.50000000  0.04045000  1.0
  Cu  Cu11  1  0.74997000  0.50000000  0.04045000  1.0
  Cu  Cu12  1  0.00000000  0.99938000  0.95569000  1.0
  Cu  Cu13  1  0.50000000  0.01340000  0.95295000  1.0
  Cu  Cu14  1  0.75140000  0.53012000  0.88505000  1.0
  Cu  Cu15  1  0.24860000  0.53012000  0.88505000  1.0
  Ge  Ge16  1  0.50000000  0.75000000  0.04045000  1.0
  Ge  Ge17  1  0.00000000  0.75000000  0.04045000  1.0
  Ge  Ge18  1  0.75003000  0.25000000  0.12134000  1.0
  Ge  Ge19  1  0.24997000  0.25000000  0.12134000  1.0
  Ge  Ge20  1  0.00000000  0.74947000  0.87213000  1.0
  Ge  Ge21  1  0.50000000  0.75621000  0.87356000  1.0
  Ge  Ge22  1  0.24826000  0.25115000  0.95932000  1.0
  Ge  Ge23  1  0.75174000  0.25115000  0.95932000  1.0
  Pd  Pd24  1  0.75003000  0.00000000  0.04045000  1.0
  Pd  Pd25  1  0.24997000  0.00000000  0.04045000  1.0
  Pd  Pd26  1  0.00000000  0.50000000  0.12134000  1.0
  Pd  Pd27  1  0.50000000  0.50000000  0.12134000  1.0
  Pd  Pd28  1  0.24718000  0.98279000  0.88457000  1.0
  Pd  Pd29  1  0.75282000  0.98279000  0.88457000  1.0
  Pd  Pd30  1  0.50000000  0.48880000  0.95147000  1.0
  Pd  Pd31  1  0.00000000  0.50159000  0.95575000  1.0
  C  C32  1  0.50000000  0.34884000  0.78180000  1.0
  O  O33  1  0.50000000  0.41451000  0.74140000  1.0
