# generated using pymatgen
data_Li8Cu8Ge8Pd8CO
_symmetry_space_group_name_H-M   Pm
_cell_length_a   6.04231000
_cell_length_b   8.54512000
_cell_length_c   26.40880000
_cell_angle_alpha   90.00000000
_cell_angle_beta   90.00000000
_cell_angle_gamma   90.00000000
_symmetry_Int_Tables_number   6
_chemical_formula_structural   Li8Cu8Ge8Pd8CO
_chemical_formula_sum   'Li8 Cu8 Ge8 Pd8 C1 O1'
_cell_volume   1363.54613424
_cell_formula_units_Z   1
loop_
 _symmetry_equiv_pos_site_id
 _symmetry_equiv_pos_as_xyz
  1  'x, y, z'
  2  'x, -y, z'
loop_
 _atom_site_type_symbol
 _atom_site_label
 _atom_site_symmetry_multiplicity
 _atom_site_fract_x
 _atom_site_fract_y
 _atom_site_fract_z
 _atom_site_occupancy
  Li  Li0  2  0.75000000  0.24997000  0.87866000  1.0
  Li  Li1  2  0.75057000  0.25537000  0.03557000  1.0
  Li  Li2  1  0.24679000  0.50000000  0.14060000  1.0
  Li  Li3  1  0.25000000  0.00000000  0.95955000  1.0
  Li  Li4  1  0.25000000  0.50000000  0.95955000  1.0
  Li  Li5  1  0.25352000  0.00000000  0.13293000  1.0
  Cu  Cu6  2  0.50000000  0.25003000  0.95955000  1.0
  Cu  Cu7  2  0.53012000  0.24860000  0.11495000  1.0
  Cu  Cu8  1  0.00000000  0.50000000  0.87866000  1.0
  Cu  Cu9  1  0.00000000  0.00000000  0.87866000  1.0
  Cu  Cu10  1  0.01340000  0.50000000  0.04705000  1.0
  Cu  Cu11  1  0.99938000  0.00000000  0.04431000  1.0
  Ge  Ge12  2  0.25000000  0.24997000  0.87866000  1.0
  Ge  Ge13  2  0.25115000  0.24826000  0.04068000  1.0
  Ge  Ge14  1  0.74947000  0.00000000  0.12787000  1.0
  Ge  Ge15  1  0.75000000  0.00000000  0.95955000  1.0
  Ge  Ge16  1  0.75000000  0.50000000  0.95955000  1.0
  Ge  Ge17  1  0.75621000  0.50000000  0.12644000  1.0
  Pd  Pd18  2  0.00000000  0.24997000  0.95955000  1.0
  Pd  Pd19  2  0.98279000  0.24718000  0.11543000  1.0
  Pd  Pd20  1  0.48880000  0.50000000  0.04853000  1.0
  Pd  Pd21  1  0.50000000  0.00000000  0.87866000  1.0
  Pd  Pd22  1  0.50000000  0.50000000  0.87866000  1.0
  Pd  Pd23  1  0.50159000  0.00000000  0.04425000  1.0
  C  C24  1  0.34884000  0.50000000  0.21820000  1.0
  O  O25  1  0.41451000  0.50000000  0.25860000  1.0
