data_image0
_chemical_formula_structural       Li4Al12CO
_chemical_formula_sum              "Li4 Al12 C1 O1"
_cell_length_a       8.00621
_cell_length_b       5.66125
_cell_length_c       24.2459
_cell_angle_alpha    90
_cell_angle_beta     90
_cell_angle_gamma    90

_space_group_name_H-M_alt    "P 1"
_space_group_IT_number       1

loop_
  _space_group_symop_operation_xyz
  'x, y, z'

loop_
  _atom_site_type_symbol
  _atom_site_label
  _atom_site_symmetry_multiplicity
  _atom_site_fract_x
  _atom_site_fract_y
  _atom_site_fract_z
  _atom_site_occupancy
  Li  Li1       1.0  0.00000  0.00000  0.91244  1.0000
  Li  Li2       1.0  0.99961  0.50113  0.03398  1.0000
  Li  Li3       1.0  0.50000  0.00000  0.91244  1.0000
  Li  Li4       1.0  0.50039  0.50113  0.03398  1.0000
  Al  Al1       1.0  0.00000  0.50000  0.91244  1.0000
  Al  Al2       1.0  0.25000  0.75000  0.97081  1.0000
  Al  Al3       1.0  0.25000  0.25000  0.97081  1.0000
  Al  Al4       1.0  0.00007  0.00024  0.03474  1.0000
  Al  Al5       1.0  0.25000  0.25299  0.08775  1.0000
  Al  Al6       1.0  0.25000  0.75373  0.08611  1.0000
  Al  Al7       1.0  0.50000  0.50000  0.91244  1.0000
  Al  Al8       1.0  0.75000  0.75000  0.97081  1.0000
  Al  Al9       1.0  0.75000  0.25000  0.97081  1.0000
  Al  Al10      1.0  0.49993  0.00023  0.03475  1.0000
  Al  Al11      1.0  0.75000  0.24660  0.08944  1.0000
  Al  Al12      1.0  0.75000  0.75448  0.08895  1.0000
  C   C1        1.0  0.24999  0.25060  0.17019  1.0000
  O   O1        1.0  0.25000  0.24669  0.21768  1.0000
