# generated using pymatgen
data_Li4Al12CO
_symmetry_space_group_name_H-M   'P 1'
_cell_length_a   8.00621000
_cell_length_b   5.66125000
_cell_length_c   24.24590000
_cell_angle_alpha   90.00000000
_cell_angle_beta   90.00000000
_cell_angle_gamma   90.00000000
_symmetry_Int_Tables_number   1
_chemical_formula_structural   Li4Al12CO
_chemical_formula_sum   'Li4 Al12 C1 O1'
_cell_volume   1098.94920865
_cell_formula_units_Z   1
loop_
 _symmetry_equiv_pos_site_id
 _symmetry_equiv_pos_as_xyz
  1  'x, y, z'
loop_
 _atom_site_type_symbol
 _atom_site_label
 _atom_site_symmetry_multiplicity
 _atom_site_fract_x
 _atom_site_fract_y
 _atom_site_fract_z
 _atom_site_occupancy
  Li  Li0  1  0.74999000  0.00000000  0.91244000  1.0
  Li  Li1  1  0.75038000  0.49887000  0.03398000  1.0
  Li  Li2  1  0.25001000  0.00000000  0.91244000  1.0
  Li  Li3  1  0.24962000  0.49887000  0.03398000  1.0
  Al  Al4  1  0.74999000  0.50000000  0.91244000  1.0
  Al  Al5  1  0.50000000  0.25000000  0.97081000  1.0
  Al  Al6  1  0.50000000  0.75000000  0.97081000  1.0
  Al  Al7  1  0.74992000  0.99976000  0.03474000  1.0
  Al  Al8  1  0.50000000  0.74701000  0.08775000  1.0
  Al  Al9  1  0.50000000  0.24627000  0.08611000  1.0
  Al  Al10  1  0.25001000  0.50000000  0.91244000  1.0
  Al  Al11  1  0.00000000  0.25000000  0.97081000  1.0
  Al  Al12  1  0.00000000  0.75000000  0.97081000  1.0
  Al  Al13  1  0.25008000  0.99976000  0.03474000  1.0
  Al  Al14  1  0.00000000  0.75340000  0.08944000  1.0
  Al  Al15  1  0.00000000  0.24552000  0.08895000  1.0
  C  C16  1  0.50000000  0.74940000  0.17019000  1.0
  O  O17  1  0.50000000  0.75331000  0.21768000  1.0
