# generated using pymatgen
data_Li4Al12CO
_symmetry_space_group_name_H-M   Pm
_cell_length_a   5.66125000
_cell_length_b   8.00621000
_cell_length_c   24.24590000
_cell_angle_alpha   90.00000000
_cell_angle_beta   90.00000000
_cell_angle_gamma   90.00000000
_symmetry_Int_Tables_number   6
_chemical_formula_structural   Li4Al12CO
_chemical_formula_sum   'Li4 Al12 C1 O1'
_cell_volume   1098.94920865
_cell_formula_units_Z   1
loop_
 _symmetry_equiv_pos_site_id
 _symmetry_equiv_pos_as_xyz
  1  'x, y, z'
  2  'x, -y, z'
loop_
 _atom_site_type_symbol
 _atom_site_label
 _atom_site_symmetry_multiplicity
 _atom_site_fract_x
 _atom_site_fract_y
 _atom_site_fract_z
 _atom_site_occupancy
  Li  Li0  2  0.00000000  0.25001000  0.08756000  1.0
  Li  Li1  2  0.49887000  0.24962000  0.96602000  1.0
  Al  Al2  2  0.50000000  0.25001000  0.08756000  1.0
  Al  Al3  2  0.99976000  0.25008000  0.96526000  1.0
  Al  Al4  1  0.24552000  0.00000000  0.91105000  1.0
  Al  Al5  1  0.24627000  0.50000000  0.91389000  1.0
  Al  Al6  1  0.25000000  0.00000000  0.02919000  1.0
  Al  Al7  1  0.25000000  0.50000000  0.02919000  1.0
  Al  Al8  1  0.74701000  0.50000000  0.91225000  1.0
  Al  Al9  1  0.75000000  0.00000000  0.02919000  1.0
  Al  Al10  1  0.75000000  0.50000000  0.02919000  1.0
  Al  Al11  1  0.75340000  0.00000000  0.91056000  1.0
  C  C12  1  0.74940000  0.50000000  0.82981000  1.0
  O  O13  1  0.75331000  0.50000000  0.78232000  1.0
