# generated using pymatgen
data_Y4Ga4Sn4Pd4C
_symmetry_space_group_name_H-M   Pm
_cell_length_a   6.14219000
_cell_length_b   8.88338000
_cell_length_c   24.60430000
_cell_angle_alpha   90.00000000
_cell_angle_beta   90.00000000
_cell_angle_gamma   90.00000000
_symmetry_Int_Tables_number   6
_chemical_formula_structural   Y4Ga4Sn4Pd4C
_chemical_formula_sum   'Y4 Ga4 Sn4 Pd4 C1'
_cell_volume   1342.49445459
_cell_formula_units_Z   1
loop_
 _symmetry_equiv_pos_site_id
 _symmetry_equiv_pos_as_xyz
  1  'x, y, z'
  2  'x, -y, z'
loop_
 _atom_site_type_symbol
 _atom_site_label
 _atom_site_symmetry_multiplicity
 _atom_site_fract_x
 _atom_site_fract_y
 _atom_site_fract_z
 _atom_site_occupancy
  Y  Y0  2  0.24196000  0.25000000  0.96881000  1.0
  Y  Y1  2  0.72022000  0.22954000  0.09021000  1.0
  Ga  Ga2  1  0.00000000  0.00000000  0.90643000  1.0
  Ga  Ga3  1  0.00000000  0.50000000  0.90643000  1.0
  Ga  Ga4  1  0.51007000  0.00000000  0.01627000  1.0
  Ga  Ga5  1  0.62817000  0.50000000  0.01922000  1.0
  Sn  Sn6  1  0.14582000  0.50000000  0.06828000  1.0
  Sn  Sn7  1  0.50000000  0.00000000  0.90643000  1.0
  Sn  Sn8  1  0.50000000  0.50000000  0.90643000  1.0
  Sn  Sn9  1  0.97375000  0.00000000  0.02222000  1.0
  Pd  Pd10  2  0.24786000  0.18030000  0.08667000  1.0
  Pd  Pd11  2  0.74196000  0.25000000  0.96881000  1.0
  C  C12  1  0.50171000  0.00000000  0.09832000  1.0
