# generated using pymatgen
data_Y4Sc4Ga4Pd4CO
_symmetry_space_group_name_H-M   Pm
_cell_length_a   5.91305000
_cell_length_b   9.85606000
_cell_length_c   24.24990000
_cell_angle_alpha   90.00000000
_cell_angle_beta   90.00000000
_cell_angle_gamma   90.00000000
_symmetry_Int_Tables_number   6
_chemical_formula_structural   Y4Sc4Ga4Pd4CO
_chemical_formula_sum   'Y4 Sc4 Ga4 Pd4 C1 O1'
_cell_volume   1413.26902995
_cell_formula_units_Z   1
loop_
 _symmetry_equiv_pos_site_id
 _symmetry_equiv_pos_as_xyz
  1  'x, y, z'
  2  'x, -y, z'
loop_
 _atom_site_type_symbol
 _atom_site_label
 _atom_site_symmetry_multiplicity
 _atom_site_fract_x
 _atom_site_fract_y
 _atom_site_fract_z
 _atom_site_occupancy
  Y  Y0  2  0.15869000  0.24169000  0.03132000  1.0
  Y  Y1  2  0.53570000  0.24997000  0.91237000  1.0
  Sc  Sc2  1  0.56574000  0.50000000  0.08038000  1.0
  Sc  Sc3  1  0.60519000  0.00000000  0.08377000  1.0
  Sc  Sc4  1  0.85713000  0.00000000  0.97079000  1.0
  Sc  Sc5  1  0.85713000  0.50000000  0.97079000  1.0
  Ga  Ga6  1  0.07565000  0.50000000  0.08608000  1.0
  Ga  Ga7  1  0.09495000  0.00000000  0.09961000  1.0
  Ga  Ga8  1  0.35713000  0.00000000  0.97079000  1.0
  Ga  Ga9  1  0.35713000  0.50000000  0.97079000  1.0
  Pd  Pd10  2  0.03570000  0.24997000  0.91237000  1.0
  Pd  Pd11  2  0.64772000  0.25515000  0.02069000  1.0
  C  C12  1  0.72819000  0.00000000  0.17287000  1.0
  O  O13  1  0.78025000  0.00000000  0.21885000  1.0
