# generated using pymatgen
data_Y8In8Cu8Sn8CO
_symmetry_space_group_name_H-M   P1
_cell_length_a   8.82850000
_cell_length_b   9.14612000
_cell_length_c   26.63560000
_cell_angle_alpha   90.00000000
_cell_angle_beta   90.00000000
_cell_angle_gamma   90.00000000
_symmetry_Int_Tables_number   1
_chemical_formula_structural   Y8In8Cu8Sn8CO
_chemical_formula_sum   'Y8 In8 Cu8 Sn8 C1 O1'
_cell_volume   2150.73201930
_cell_formula_units_Z   1
loop_
 _symmetry_equiv_pos_site_id
 _symmetry_equiv_pos_as_xyz
  1  'x, y, z'
loop_
 _atom_site_type_symbol
 _atom_site_label
 _atom_site_symmetry_multiplicity
 _atom_site_fract_x
 _atom_site_fract_y
 _atom_site_fract_z
 _atom_site_occupancy
  Y  Y0  1  0.24998000  0.74839000  0.95758000  1.0
  Y  Y1  1  0.25000000  0.25000000  0.12456000  1.0
  Y  Y2  1  0.25000000  0.25165000  0.95755000  1.0
  Y  Y3  1  0.25000000  0.75000000  0.12456000  1.0
  Y  Y4  1  0.75000000  0.25000000  0.12456000  1.0
  Y  Y5  1  0.75000000  0.75000000  0.12456000  1.0
  Y  Y6  1  0.75001000  0.25353000  0.95756000  1.0
  Y  Y7  1  0.75001000  0.74645000  0.95754000  1.0
  In  In8  1  0.24981000  0.99992000  0.87425000  1.0
  In  In9  1  0.25000000  0.00000000  0.04152000  1.0
  In  In10  1  0.25000000  0.50000000  0.04152000  1.0
  In  In11  1  0.25002000  0.50013000  0.87026000  1.0
  In  In12  1  0.74957000  0.49990000  0.86914000  1.0
  In  In13  1  0.74977000  0.00009000  0.87851000  1.0
  In  In14  1  0.75000000  0.00000000  0.04152000  1.0
  In  In15  1  0.75000000  0.50000000  0.04152000  1.0
  Cu  Cu16  1  0.00000000  0.00000000  0.12456000  1.0
  Cu  Cu17  1  0.00000000  0.50000000  0.12456000  1.0
  Cu  Cu18  1  0.00220000  0.49999000  0.95791000  1.0
  Cu  Cu19  1  0.00402000  0.00002000  0.96326000  1.0
  Cu  Cu20  1  0.49584000  0.00001000  0.96320000  1.0
  Cu  Cu21  1  0.49757000  0.49996000  0.95798000  1.0
  Cu  Cu22  1  0.50000000  0.00000000  0.12456000  1.0
  Cu  Cu23  1  0.50000000  0.50000000  0.12456000  1.0
  Sn  Sn24  1  0.00000000  0.25000000  0.04152000  1.0
  Sn  Sn25  1  0.00000000  0.75000000  0.04152000  1.0
  Sn  Sn26  1  0.00013000  0.25554000  0.87025000  1.0
  Sn  Sn27  1  0.00029000  0.74440000  0.87026000  1.0
  Sn  Sn28  1  0.49973000  0.74512000  0.87009000  1.0
  Sn  Sn29  1  0.49993000  0.25483000  0.87009000  1.0
  Sn  Sn30  1  0.50000000  0.25000000  0.04152000  1.0
  Sn  Sn31  1  0.50000000  0.75000000  0.04152000  1.0
  C  C32  1  0.75547000  0.99994000  0.75889000  1.0
  O  O33  1  0.74973000  0.00002000  0.71632000  1.0
