# generated using pymatgen
data_Bi16C
_symmetry_space_group_name_H-M   P4mm
_cell_length_a   8.07272000
_cell_length_b   8.07272000
_cell_length_c   26.05450000
_cell_angle_alpha   90.00000000
_cell_angle_beta   90.00000000
_cell_angle_gamma   90.00000000
_symmetry_Int_Tables_number   99
_chemical_formula_structural   Bi16C
_chemical_formula_sum   'Bi16 C1'
_cell_volume   1697.94071321
_cell_formula_units_Z   1
loop_
 _symmetry_equiv_pos_site_id
 _symmetry_equiv_pos_as_xyz
  1  'x, y, z'
  2  '-y, x, z'
  3  '-x, -y, z'
  4  'y, -x, z'
  5  '-x, y, z'
  6  'y, x, z'
  7  'x, -y, z'
  8  '-y, -x, z'
loop_
 _atom_site_type_symbol
 _atom_site_label
 _atom_site_symmetry_multiplicity
 _atom_site_fract_x
 _atom_site_fract_y
 _atom_site_fract_z
 _atom_site_occupancy
  Bi  Bi0  4  0.20529000  0.20529000  0.14282000  1.0
  Bi  Bi1  4  0.25000000  0.25000000  0.96127000  1.0
  Bi  Bi2  2  0.00000000  0.50000000  0.07640000  1.0
  Bi  Bi3  2  0.00000000  0.50000000  0.88381000  1.0
  Bi  Bi4  1  0.00000000  0.00000000  0.01992000  1.0
  Bi  Bi5  1  0.00000000  0.00000000  0.88381000  1.0
  Bi  Bi6  1  0.50000000  0.50000000  0.01629000  1.0
  Bi  Bi7  1  0.50000000  0.50000000  0.88381000  1.0
  C  C8  1  0.00000000  0.00000000  0.11118000  1.0
