# generated using pymatgen
data_Mn16V8Ga8C
_symmetry_space_group_name_H-M   'P 1'
_cell_length_a   5.83886000
_cell_length_b   8.25739000
_cell_length_c   26.19300000
_cell_angle_alpha   90.00000000
_cell_angle_beta   90.00000000
_cell_angle_gamma   90.00000000
_symmetry_Int_Tables_number   1
_chemical_formula_structural   Mn16V8Ga8C
_chemical_formula_sum   'Mn16 V8 Ga8 C1'
_cell_volume   1262.86260119
_cell_formula_units_Z   1
loop_
 _symmetry_equiv_pos_site_id
 _symmetry_equiv_pos_as_xyz
  1  'x, y, z'
loop_
 _atom_site_type_symbol
 _atom_site_label
 _atom_site_symmetry_multiplicity
 _atom_site_fract_x
 _atom_site_fract_y
 _atom_site_fract_z
 _atom_site_occupancy
  Mn  Mn0  1  0.25000000  0.00000000  0.96059000  1.0
  Mn  Mn1  1  0.75000000  0.50000000  0.96059000  1.0
  Mn  Mn2  1  0.75000000  0.00000000  0.96059000  1.0
  Mn  Mn3  1  0.25000000  0.50000000  0.96059000  1.0
  Mn  Mn4  1  0.75000000  0.75000000  0.88178000  1.0
  Mn  Mn5  1  0.25000000  0.25000000  0.88178000  1.0
  Mn  Mn6  1  0.25000000  0.75000000  0.88178000  1.0
  Mn  Mn7  1  0.75000000  0.25000000  0.88178000  1.0
  Mn  Mn8  1  0.25898000  0.50000000  0.12306000  1.0
  Mn  Mn9  1  0.78425000  0.00000000  0.11615000  1.0
  Mn  Mn10  1  0.74102000  0.50000000  0.12306000  1.0
  Mn  Mn11  1  0.21575000  0.00000000  0.11615000  1.0
  Mn  Mn12  1  0.75487000  0.24955000  0.04246000  1.0
  Mn  Mn13  1  0.24513000  0.75045000  0.04246000  1.0
  Mn  Mn14  1  0.24513000  0.24955000  0.04246000  1.0
  Mn  Mn15  1  0.75487000  0.75045000  0.04246000  1.0
  V  V16  1  0.00000000  0.00000000  0.88178000  1.0
  V  V17  1  0.50000000  0.25000000  0.96059000  1.0
  V  V18  1  0.50000000  0.75000000  0.96059000  1.0
  V  V19  1  0.00000000  0.50000000  0.88178000  1.0
  V  V20  1  0.00000000  0.50000000  0.04141000  1.0
  V  V21  1  0.50000000  0.75618000  0.11744000  1.0
  V  V22  1  0.50000000  0.24382000  0.11744000  1.0
  V  V23  1  0.00000000  0.00000000  0.03689000  1.0
  Ga  Ga24  1  0.00000000  0.75000000  0.96059000  1.0
  Ga  Ga25  1  0.50000000  0.00000000  0.88178000  1.0
  Ga  Ga26  1  0.00000000  0.25000000  0.96059000  1.0
  Ga  Ga27  1  0.50000000  0.50000000  0.88178000  1.0
  Ga  Ga28  1  0.00000000  0.25657000  0.13058000  1.0
  Ga  Ga29  1  0.50000000  0.50000000  0.04115000  1.0
  Ga  Ga30  1  0.00000000  0.74343000  0.13058000  1.0
  Ga  Ga31  1  0.50000000  0.00000000  0.03939000  1.0
  C  C32  1  0.50000000  0.00000000  0.14442000  1.0
