# generated using pymatgen
data_Li12Bi4CO
_symmetry_space_group_name_H-M   P4mm
_cell_length_a   6.74000000
_cell_length_b   6.74000000
_cell_length_c   25.05500000
_cell_angle_alpha   90.00000000
_cell_angle_beta   90.00000000
_cell_angle_gamma   90.00000000
_symmetry_Int_Tables_number   99
_chemical_formula_structural   Li12Bi4CO
_chemical_formula_sum   'Li12 Bi4 C1 O1'
_cell_volume   1138.18851800
_cell_formula_units_Z   1
loop_
 _symmetry_equiv_pos_site_id
 _symmetry_equiv_pos_as_xyz
  1  'x, y, z'
  2  '-y, x, z'
  3  '-x, -y, z'
  4  'y, -x, z'
  5  '-x, y, z'
  6  'y, x, z'
  7  'x, -y, z'
  8  '-y, -x, z'
loop_
 _atom_site_type_symbol
 _atom_site_label
 _atom_site_symmetry_multiplicity
 _atom_site_fract_x
 _atom_site_fract_y
 _atom_site_fract_z
 _atom_site_occupancy
  Li  Li0  4  0.25000000  0.25000000  0.89912000  1.0
  Li  Li1  4  0.25000000  0.25000000  0.03363000  1.0
  Li  Li2  2  0.00000000  0.50000000  0.10088000  1.0
  Li  Li3  1  0.00000000  0.00000000  0.96637000  1.0
  Li  Li4  1  0.50000000  0.50000000  0.96637000  1.0
  Bi  Bi5  2  0.00000000  0.50000000  0.96637000  1.0
  Bi  Bi6  1  0.00000000  0.00000000  0.10088000  1.0
  Bi  Bi7  1  0.50000000  0.50000000  0.10088000  1.0
  C  C8  1  0.00000000  0.00000000  0.17671000  1.0
  O  O9  1  0.00000000  0.00000000  0.22261000  1.0
