# generated using pymatgen
data_Mg16Pd16CO
_symmetry_space_group_name_H-M   'P 1'
_cell_length_a   6.43103000
_cell_length_b   9.09485000
_cell_length_c   26.82110000
_cell_angle_alpha   90.00000000
_cell_angle_beta   90.00000000
_cell_angle_gamma   90.00000000
_symmetry_Int_Tables_number   1
_chemical_formula_structural   Mg16Pd16CO
_chemical_formula_sum   'Mg16 Pd16 C1 O1'
_cell_volume   1568.74610888
_cell_formula_units_Z   1
loop_
 _symmetry_equiv_pos_site_id
 _symmetry_equiv_pos_as_xyz
  1  'x, y, z'
loop_
 _atom_site_type_symbol
 _atom_site_label
 _atom_site_symmetry_multiplicity
 _atom_site_fract_x
 _atom_site_fract_y
 _atom_site_fract_z
 _atom_site_occupancy
  Mg  Mg0  1  0.00000000  0.75000000  0.87284000  1.0
  Mg  Mg1  1  0.00000000  0.00000000  0.95761000  1.0
  Mg  Mg2  1  0.00000000  0.25027000  0.04151000  1.0
  Mg  Mg3  1  0.00000000  0.00000000  0.13218000  1.0
  Mg  Mg4  1  0.00000000  0.25000000  0.87284000  1.0
  Mg  Mg5  1  0.00000000  0.50000000  0.95761000  1.0
  Mg  Mg6  1  0.00000000  0.74973000  0.04151000  1.0
  Mg  Mg7  1  0.00000000  0.50000000  0.12932000  1.0
  Mg  Mg8  1  0.50000000  0.75000000  0.87284000  1.0
  Mg  Mg9  1  0.50000000  0.00000000  0.95761000  1.0
  Mg  Mg10  1  0.50000000  0.24903000  0.04095000  1.0
  Mg  Mg11  1  0.50000000  0.00000000  0.12894000  1.0
  Mg  Mg12  1  0.50000000  0.25000000  0.87284000  1.0
  Mg  Mg13  1  0.50000000  0.50000000  0.95761000  1.0
  Mg  Mg14  1  0.50000000  0.75097000  0.04095000  1.0
  Mg  Mg15  1  0.50000000  0.50000000  0.12997000  1.0
  Pd  Pd16  1  0.25000000  0.00000000  0.87284000  1.0
  Pd  Pd17  1  0.25000000  0.75000000  0.95761000  1.0
  Pd  Pd18  1  0.24709000  0.00000000  0.04344000  1.0
  Pd  Pd19  1  0.25211000  0.25173000  0.12179000  1.0
  Pd  Pd20  1  0.25000000  0.50000000  0.87284000  1.0
  Pd  Pd21  1  0.25000000  0.25000000  0.95761000  1.0
  Pd  Pd22  1  0.25128000  0.50000000  0.04242000  1.0
  Pd  Pd23  1  0.25211000  0.74827000  0.12179000  1.0
  Pd  Pd24  1  0.75000000  0.00000000  0.87284000  1.0
  Pd  Pd25  1  0.75000000  0.75000000  0.95761000  1.0
  Pd  Pd26  1  0.75291000  0.00000000  0.04344000  1.0
  Pd  Pd27  1  0.74789000  0.25173000  0.12179000  1.0
  Pd  Pd28  1  0.75000000  0.50000000  0.87284000  1.0
  Pd  Pd29  1  0.75000000  0.25000000  0.95761000  1.0
  Pd  Pd30  1  0.74872000  0.50000000  0.04242000  1.0
  Pd  Pd31  1  0.74789000  0.74827000  0.12179000  1.0
  C  C32  1  0.00000000  0.00000000  0.21777000  1.0
  O  O33  1  0.00000000  0.00000000  0.26037000  1.0
