# generated using pymatgen
data_Mg16Pd16CO
_symmetry_space_group_name_H-M   Pmm2
_cell_length_a   6.43103000
_cell_length_b   9.09485000
_cell_length_c   26.82110000
_cell_angle_alpha   90.00000000
_cell_angle_beta   90.00000000
_cell_angle_gamma   90.00000000
_symmetry_Int_Tables_number   25
_chemical_formula_structural   Mg16Pd16CO
_chemical_formula_sum   'Mg16 Pd16 C1 O1'
_cell_volume   1568.74610888
_cell_formula_units_Z   1
loop_
 _symmetry_equiv_pos_site_id
 _symmetry_equiv_pos_as_xyz
  1  'x, y, z'
  2  '-x, -y, z'
  3  '-x, y, z'
  4  'x, -y, z'
loop_
 _atom_site_type_symbol
 _atom_site_label
 _atom_site_symmetry_multiplicity
 _atom_site_fract_x
 _atom_site_fract_y
 _atom_site_fract_z
 _atom_site_occupancy
  Mg  Mg0  2  0.00000000  0.25000000  0.87284000  1.0
  Mg  Mg1  2  0.00000000  0.25027000  0.04151000  1.0
  Mg  Mg2  2  0.50000000  0.24903000  0.04095000  1.0
  Mg  Mg3  2  0.50000000  0.25000000  0.87284000  1.0
  Mg  Mg4  1  0.00000000  0.00000000  0.13218000  1.0
  Mg  Mg5  1  0.00000000  0.00000000  0.95761000  1.0
  Mg  Mg6  1  0.00000000  0.50000000  0.12932000  1.0
  Mg  Mg7  1  0.00000000  0.50000000  0.95761000  1.0
  Mg  Mg8  1  0.50000000  0.00000000  0.12894000  1.0
  Mg  Mg9  1  0.50000000  0.00000000  0.95761000  1.0
  Mg  Mg10  1  0.50000000  0.50000000  0.12997000  1.0
  Mg  Mg11  1  0.50000000  0.50000000  0.95761000  1.0
  Pd  Pd12  4  0.25000000  0.25000000  0.95761000  1.0
  Pd  Pd13  4  0.25211000  0.25173000  0.12179000  1.0
  Pd  Pd14  2  0.24709000  0.00000000  0.04344000  1.0
  Pd  Pd15  2  0.25000000  0.00000000  0.87284000  1.0
  Pd  Pd16  2  0.25000000  0.50000000  0.87284000  1.0
  Pd  Pd17  2  0.25128000  0.50000000  0.04242000  1.0
  C  C18  1  0.00000000  0.00000000  0.21777000  1.0
  O  O19  1  0.00000000  0.00000000  0.26037000  1.0
