# generated using pymatgen
data_ScGaGePd
_symmetry_space_group_name_H-M   'P 1'
_cell_length_a   5.63062000
_cell_length_b   4.29207000
_cell_length_c   24.22090000
_cell_angle_alpha   90.00000000
_cell_angle_beta   90.00000000
_cell_angle_gamma   90.00000000
_symmetry_Int_Tables_number   1
_chemical_formula_structural   ScGaGePd
_chemical_formula_sum   'Sc2 Ga2 Ge2 Pd2'
_cell_volume   585.34685806
_cell_formula_units_Z   2
loop_
 _symmetry_equiv_pos_site_id
 _symmetry_equiv_pos_as_xyz
  1  'x, y, z'
loop_
 _atom_site_type_symbol
 _atom_site_label
 _atom_site_symmetry_multiplicity
 _atom_site_fract_x
 _atom_site_fract_y
 _atom_site_fract_z
 _atom_site_occupancy
  Sc  Sc0  1  0.25783000  0.50000000  0.97096000  1.0
  Sc  Sc1  1  0.76795500  0.50000000  0.08465000  1.0
  Ga  Ga2  1  0.00000000  0.00000000  0.91287000  1.0
  Ga  Ga3  1  0.50227000  0.00000000  0.03521000  1.0
  Ge  Ge4  1  0.75783000  0.50000000  0.97096000  1.0
  Ge  Ge5  1  0.27132000  0.50000000  0.09088000  1.0
  Pd  Pd6  1  0.50000000  0.00000000  0.91287000  1.0
  Pd  Pd7  1  0.01638500  0.00000000  0.03667000  1.0
