# generated using pymatgen
data_Li16Sn8Au8CO
_symmetry_space_group_name_H-M   'P 1'
_cell_length_a   6.60404000
_cell_length_b   9.33952000
_cell_length_c   27.00460000
_cell_angle_alpha   90.00000000
_cell_angle_beta   90.00000000
_cell_angle_gamma   90.00000000
_symmetry_Int_Tables_number   1
_chemical_formula_structural   Li16Sn8Au8CO
_chemical_formula_sum   'Li16 Sn8 Au8 C1 O1'
_cell_volume   1665.60494023
_cell_formula_units_Z   1
loop_
 _symmetry_equiv_pos_site_id
 _symmetry_equiv_pos_as_xyz
  1  'x, y, z'
loop_
 _atom_site_type_symbol
 _atom_site_label
 _atom_site_symmetry_multiplicity
 _atom_site_fract_x
 _atom_site_fract_y
 _atom_site_fract_z
 _atom_site_occupancy
  Li  Li0  1  0.00000000  0.75000000  0.95677000  1.0
  Li  Li1  1  0.50000000  0.00000000  0.87031000  1.0
  Li  Li2  1  0.00000000  0.25000000  0.95677000  1.0
  Li  Li3  1  0.50000000  0.50000000  0.87031000  1.0
  Li  Li4  1  0.25000000  0.25000000  0.87031000  1.0
  Li  Li5  1  0.25000000  0.75000000  0.87031000  1.0
  Li  Li6  1  0.75000000  0.50000000  0.95677000  1.0
  Li  Li7  1  0.75000000  0.00000000  0.95677000  1.0
  Li  Li8  1  0.02259000  0.24998000  0.12761000  1.0
  Li  Li9  1  0.51073000  0.49768000  0.03679000  1.0
  Li  Li10  1  0.02315000  0.75003000  0.12770000  1.0
  Li  Li11  1  0.51085000  0.00242000  0.03680000  1.0
  Li  Li12  1  0.28032000  0.75008000  0.04988000  1.0
  Li  Li13  1  0.26913000  0.24997000  0.04743000  1.0
  Li  Li14  1  0.72065000  0.99829000  0.12554000  1.0
  Li  Li15  1  0.72051000  0.50147000  0.12546000  1.0
  Sn  Sn16  1  0.00000000  0.00000000  0.87031000  1.0
  Sn  Sn17  1  0.50000000  0.25000000  0.95677000  1.0
  Sn  Sn18  1  0.50000000  0.75000000  0.95677000  1.0
  Sn  Sn19  1  0.00000000  0.50000000  0.87031000  1.0
  Sn  Sn20  1  0.99443000  0.50225000  0.04322000  1.0
  Sn  Sn21  1  0.50040000  0.74988000  0.14595000  1.0
  Sn  Sn22  1  0.50464000  0.24988000  0.14089000  1.0
  Sn  Sn23  1  0.99447000  0.99782000  0.04333000  1.0
  Au  Au24  1  0.25000000  0.00000000  0.95677000  1.0
  Au  Au25  1  0.25000000  0.50000000  0.95677000  1.0
  Au  Au26  1  0.75000000  0.75000000  0.87031000  1.0
  Au  Au27  1  0.75000000  0.25000000  0.87031000  1.0
  Au  Au28  1  0.28496000  0.50113000  0.11768000  1.0
  Au  Au29  1  0.28518000  0.99872000  0.11775000  1.0
  Au  Au30  1  0.73779000  0.25001000  0.04933000  1.0
  Au  Au31  1  0.72808000  0.75012000  0.05194000  1.0
  C  C32  1  0.34203000  0.25004000  0.27518000  1.0
  O  O33  1  0.48787000  0.25001000  0.29760000  1.0
