# generated using pymatgen
data_Na4Li8Sb4C
_symmetry_space_group_name_H-M   'P 1'
_cell_length_a   6.84524000
_cell_length_b   6.84524000
_cell_length_c   25.13390000
_cell_angle_alpha   90.00000000
_cell_angle_beta   90.00000000
_cell_angle_gamma   90.00000000
_symmetry_Int_Tables_number   1
_chemical_formula_structural   Na4Li8Sb4C
_chemical_formula_sum   'Na4 Li8 Sb4 C1'
_cell_volume   1177.70696034
_cell_formula_units_Z   1
loop_
 _symmetry_equiv_pos_site_id
 _symmetry_equiv_pos_as_xyz
  1  'x, y, z'
loop_
 _atom_site_type_symbol
 _atom_site_label
 _atom_site_symmetry_multiplicity
 _atom_site_fract_x
 _atom_site_fract_y
 _atom_site_fract_z
 _atom_site_occupancy
  Na  Na0  1  0.00000000  0.00000000  0.89787000  1.0
  Na  Na1  1  0.50000000  0.50000000  0.89787000  1.0
  Na  Na2  1  0.50000000  0.00000000  0.03404000  1.0
  Na  Na3  1  0.00000000  0.50000000  0.03404000  1.0
  Li  Li4  1  0.25000000  0.25000000  0.96596000  1.0
  Li  Li5  1  0.75000000  0.75000000  0.10213000  1.0
  Li  Li6  1  0.75000000  0.25000000  0.96596000  1.0
  Li  Li7  1  0.25000000  0.75000000  0.10213000  1.0
  Li  Li8  1  0.75000000  0.75000000  0.96596000  1.0
  Li  Li9  1  0.25000000  0.25000000  0.10213000  1.0
  Li  Li10  1  0.25000000  0.75000000  0.96596000  1.0
  Li  Li11  1  0.75000000  0.25000000  0.10213000  1.0
  Sb  Sb12  1  0.00000000  0.00000000  0.03404000  1.0
  Sb  Sb13  1  0.50000000  0.00000000  0.89787000  1.0
  Sb  Sb14  1  0.00000000  0.50000000  0.89787000  1.0
  Sb  Sb15  1  0.50000000  0.50000000  0.03404000  1.0
  C  C16  1  0.00000000  0.00000000  0.13396000  1.0
