# generated using pymatgen
data_Mn24Pt8C
_symmetry_space_group_name_H-M   Pm
_cell_length_a   8.81047000
_cell_length_b   8.81047000
_cell_length_c   26.60790000
_cell_angle_alpha   90.00000000
_cell_angle_beta   90.00000000
_cell_angle_gamma   90.00000000
_symmetry_Int_Tables_number   6
_chemical_formula_structural   Mn24Pt8C
_chemical_formula_sum   'Mn24 Pt8 C1'
_cell_volume   2065.42178373
_cell_formula_units_Z   1
loop_
 _symmetry_equiv_pos_site_id
 _symmetry_equiv_pos_as_xyz
  1  'x, y, z'
  2  'x, -y, z'
loop_
 _atom_site_type_symbol
 _atom_site_label
 _atom_site_symmetry_multiplicity
 _atom_site_fract_x
 _atom_site_fract_y
 _atom_site_fract_z
 _atom_site_occupancy
  Mn  Mn0  2  -0.00000000  0.24999000  0.87583000  1.0
  Mn  Mn1  2  0.25000000  0.24999000  0.95861000  1.0
  Mn  Mn2  2  0.25002000  0.23334000  0.08869000  1.0
  Mn  Mn3  2  0.50000000  0.24999000  0.87583000  1.0
  Mn  Mn4  2  0.50302000  0.25390000  0.01973000  1.0
  Mn  Mn5  2  0.75000000  0.22510000  0.08832000  1.0
  Mn  Mn6  2  0.75000000  0.24999000  0.95861000  1.0
  Mn  Mn7  2  0.99698000  0.25390000  0.01973000  1.0
  Mn  Mn8  1  0.25000000  0.00000000  0.87583000  1.0
  Mn  Mn9  1  0.25000000  0.50000000  0.02343000  1.0
  Mn  Mn10  1  0.25000000  0.50000000  0.87583000  1.0
  Mn  Mn11  1  0.25001000  0.00000000  0.01576000  1.0
  Mn  Mn12  1  0.75000000  0.00000000  0.01879000  1.0
  Mn  Mn13  1  0.75000000  0.00000000  0.87583000  1.0
  Mn  Mn14  1  0.75000000  0.50000000  0.02182000  1.0
  Mn  Mn15  1  0.75000000  0.50000000  0.87583000  1.0
  Pt  Pt16  1  -0.00000000  0.50000000  0.95861000  1.0
  Pt  Pt17  1  0.00000000  0.00000000  0.95861000  1.0
  Pt  Pt18  1  0.00236000  0.00000000  0.07670000  1.0
  Pt  Pt19  1  0.49763000  0.00000000  0.07669000  1.0
  Pt  Pt20  1  0.50000000  0.00000000  0.95861000  1.0
  Pt  Pt21  1  0.50000000  0.50000000  0.95861000  1.0
  Pt  Pt22  1  0.50459000  0.50000000  0.07713000  1.0
  Pt  Pt23  1  0.99541000  0.50000000  0.07713000  1.0
  C  C24  1  0.24996000  0.00000000  0.08799000  1.0
