# generated using pymatgen
data_Li4Ga4Cu4Pd4C
_symmetry_space_group_name_H-M   'P 1'
_cell_length_a   6.02537000
_cell_length_b   6.02537000
_cell_length_c   24.51900000
_cell_angle_alpha   90.00000000
_cell_angle_beta   90.00000000
_cell_angle_gamma   90.00000000
_symmetry_Int_Tables_number   1
_chemical_formula_structural   Li4Ga4Cu4Pd4C
_chemical_formula_sum   'Li4 Ga4 Cu4 Pd4 C1'
_cell_volume   890.16434569
_cell_formula_units_Z   1
loop_
 _symmetry_equiv_pos_site_id
 _symmetry_equiv_pos_as_xyz
  1  'x, y, z'
loop_
 _atom_site_type_symbol
 _atom_site_label
 _atom_site_symmetry_multiplicity
 _atom_site_fract_x
 _atom_site_fract_y
 _atom_site_fract_z
 _atom_site_occupancy
  Li  Li0  1  0.25000000  0.25000000  0.03072000  1.0
  Li  Li1  1  0.25094000  0.75069000  0.89386000  1.0
  Li  Li2  1  0.74906000  0.24931000  0.89386000  1.0
  Li  Li3  1  0.75000000  0.75000000  0.03072000  1.0
  Ga  Ga4  1  0.75000000  0.25000000  0.03072000  1.0
  Ga  Ga5  1  0.76840000  0.73191000  0.90315000  1.0
  Ga  Ga6  1  0.23160000  0.26809000  0.90315000  1.0
  Ga  Ga7  1  0.25000000  0.75000000  0.03072000  1.0
  Cu  Cu8  1  0.00000000  0.00000000  0.09215000  1.0
  Cu  Cu9  1  0.00000000  0.50000000  0.97546000  1.0
  Cu  Cu10  1  0.50000000  0.00000000  0.95844000  1.0
  Cu  Cu11  1  0.50000000  0.50000000  0.09215000  1.0
  Pd  Pd12  1  0.00000000  0.50000000  0.09215000  1.0
  Pd  Pd13  1  0.00000000  0.00000000  0.96683000  1.0
  Pd  Pd14  1  0.50000000  0.50000000  0.96680000  1.0
  Pd  Pd15  1  0.50000000  0.00000000  0.09215000  1.0
  C  C16  1  0.00000000  0.50000000  0.89320000  1.0
