# generated using pymatgen
data_Li4Ga4Cu4Pd4C
_symmetry_space_group_name_H-M   P2
_cell_length_a   6.02537000
_cell_length_b   24.51900000
_cell_length_c   6.02537000
_cell_angle_alpha   90.00000000
_cell_angle_beta   90.00000000
_cell_angle_gamma   90.00000000
_symmetry_Int_Tables_number   3
_chemical_formula_structural   Li4Ga4Cu4Pd4C
_chemical_formula_sum   'Li4 Ga4 Cu4 Pd4 C1'
_cell_volume   890.16434569
_cell_formula_units_Z   1
loop_
 _symmetry_equiv_pos_site_id
 _symmetry_equiv_pos_as_xyz
  1  'x, y, z'
  2  '-x, y, -z'
loop_
 _atom_site_type_symbol
 _atom_site_label
 _atom_site_symmetry_multiplicity
 _atom_site_fract_x
 _atom_site_fract_y
 _atom_site_fract_z
 _atom_site_occupancy
  Li  Li0  2  0.24931000  0.10614000  0.74906000  1.0
  Li  Li1  2  0.25000000  0.96928000  0.25000000  1.0
  Ga  Ga2  2  0.25000000  0.96928000  0.75000000  1.0
  Ga  Ga3  2  0.26809000  0.09685000  0.23160000  1.0
  Cu  Cu4  1  0.00000000  0.04156000  0.50000000  1.0
  Cu  Cu5  1  0.00000000  0.90785000  0.00000000  1.0
  Cu  Cu6  1  0.50000000  0.02454000  0.00000000  1.0
  Cu  Cu7  1  0.50000000  0.90785000  0.50000000  1.0
  Pd  Pd8  1  0.00000000  0.03317000  0.00000000  1.0
  Pd  Pd9  1  0.00000000  0.90785000  0.50000000  1.0
  Pd  Pd10  1  0.50000000  0.03320000  0.50000000  1.0
  Pd  Pd11  1  0.50000000  0.90785000  0.00000000  1.0
  C  C12  1  0.50000000  0.10680000  0.00000000  1.0
