# generated using pymatgen
data_Ga16Ag16C
_symmetry_space_group_name_H-M   'P 1'
_cell_length_a   6.70510000
_cell_length_b   9.48244000
_cell_length_c   27.11180000
_cell_angle_alpha   90.00000000
_cell_angle_beta   90.00000000
_cell_angle_gamma   90.00000000
_symmetry_Int_Tables_number   1
_chemical_formula_structural   Ga16Ag16C
_chemical_formula_sum   'Ga16 Ag16 C1'
_cell_volume   1723.78745119
_cell_formula_units_Z   1
loop_
 _symmetry_equiv_pos_site_id
 _symmetry_equiv_pos_as_xyz
  1  'x, y, z'
loop_
 _atom_site_type_symbol
 _atom_site_label
 _atom_site_symmetry_multiplicity
 _atom_site_fract_x
 _atom_site_fract_y
 _atom_site_fract_z
 _atom_site_occupancy
  Ga  Ga0  1  0.25000000  0.25000000  0.86884000  1.0
  Ga  Ga1  1  0.25000000  0.00000000  0.95628000  1.0
  Ga  Ga2  1  0.25340000  0.25365000  0.04340000  1.0
  Ga  Ga3  1  0.28917000  0.00000000  0.14431000  1.0
  Ga  Ga4  1  0.25000000  0.75000000  0.86884000  1.0
  Ga  Ga5  1  0.25000000  0.50000000  0.95628000  1.0
  Ga  Ga6  1  0.25340000  0.74635000  0.04340000  1.0
  Ga  Ga7  1  0.22785000  0.50000000  0.14296000  1.0
  Ga  Ga8  1  0.75000000  0.25000000  0.86884000  1.0
  Ga  Ga9  1  0.75000000  0.00000000  0.95628000  1.0
  Ga  Ga10  1  0.74660000  0.25365000  0.04340000  1.0
  Ga  Ga11  1  0.71083000  0.00000000  0.14431000  1.0
  Ga  Ga12  1  0.75000000  0.75000000  0.86884000  1.0
  Ga  Ga13  1  0.75000000  0.50000000  0.95628000  1.0
  Ga  Ga14  1  0.74660000  0.74635000  0.04340000  1.0
  Ga  Ga15  1  0.77215000  0.50000000  0.14296000  1.0
  Ag  Ag16  1  0.00000000  0.00000000  0.86884000  1.0
  Ag  Ag17  1  0.00000000  0.25000000  0.95628000  1.0
  Ag  Ag18  1  0.00000000  0.00000000  0.04501000  1.0
  Ag  Ag19  1  0.00000000  0.25390000  0.13208000  1.0
  Ag  Ag20  1  0.00000000  0.50000000  0.86884000  1.0
  Ag  Ag21  1  0.00000000  0.75000000  0.95628000  1.0
  Ag  Ag22  1  0.00000000  0.50000000  0.04545000  1.0
  Ag  Ag23  1  0.00000000  0.74610000  0.13208000  1.0
  Ag  Ag24  1  0.50000000  0.00000000  0.86884000  1.0
  Ag  Ag25  1  0.50000000  0.25000000  0.95628000  1.0
  Ag  Ag26  1  0.50000000  0.00000000  0.04515000  1.0
  Ag  Ag27  1  0.50000000  0.26745000  0.12944000  1.0
  Ag  Ag28  1  0.50000000  0.50000000  0.86884000  1.0
  Ag  Ag29  1  0.50000000  0.75000000  0.95628000  1.0
  Ag  Ag30  1  0.50000000  0.50000000  0.04598000  1.0
  Ag  Ag31  1  0.50000000  0.73255000  0.12944000  1.0
  C  C32  1  0.00000000  0.00000000  0.13084000  1.0
