# generated using pymatgen
data_Ga16Ag16C
_symmetry_space_group_name_H-M   Pmm2
_cell_length_a   6.70510000
_cell_length_b   9.48244000
_cell_length_c   27.11180000
_cell_angle_alpha   90.00000000
_cell_angle_beta   90.00000000
_cell_angle_gamma   90.00000000
_symmetry_Int_Tables_number   25
_chemical_formula_structural   Ga16Ag16C
_chemical_formula_sum   'Ga16 Ag16 C1'
_cell_volume   1723.78745119
_cell_formula_units_Z   1
loop_
 _symmetry_equiv_pos_site_id
 _symmetry_equiv_pos_as_xyz
  1  'x, y, z'
  2  '-x, -y, z'
  3  '-x, y, z'
  4  'x, -y, z'
loop_
 _atom_site_type_symbol
 _atom_site_label
 _atom_site_symmetry_multiplicity
 _atom_site_fract_x
 _atom_site_fract_y
 _atom_site_fract_z
 _atom_site_occupancy
  Ga  Ga0  4  0.25000000  0.25000000  0.86884000  1.0
  Ga  Ga1  4  0.25340000  0.25365000  0.04340000  1.0
  Ga  Ga2  2  0.22785000  0.50000000  0.14296000  1.0
  Ga  Ga3  2  0.25000000  0.00000000  0.95628000  1.0
  Ga  Ga4  2  0.25000000  0.50000000  0.95628000  1.0
  Ga  Ga5  2  0.28917000  0.00000000  0.14431000  1.0
  Ag  Ag6  2  0.00000000  0.25000000  0.95628000  1.0
  Ag  Ag7  2  0.00000000  0.25390000  0.13208000  1.0
  Ag  Ag8  2  0.50000000  0.25000000  0.95628000  1.0
  Ag  Ag9  2  0.50000000  0.26745000  0.12944000  1.0
  Ag  Ag10  1  0.00000000  0.00000000  0.04501000  1.0
  Ag  Ag11  1  0.00000000  0.00000000  0.86884000  1.0
  Ag  Ag12  1  0.00000000  0.50000000  0.04545000  1.0
  Ag  Ag13  1  0.00000000  0.50000000  0.86884000  1.0
  Ag  Ag14  1  0.50000000  0.00000000  0.04515000  1.0
  Ag  Ag15  1  0.50000000  0.00000000  0.86884000  1.0
  Ag  Ag16  1  0.50000000  0.50000000  0.04598000  1.0
  Ag  Ag17  1  0.50000000  0.50000000  0.86884000  1.0
  C  C18  1  0.00000000  0.00000000  0.13084000  1.0
