# generated using pymatgen
data_Ti8Co16Si8C
_symmetry_space_group_name_H-M   'P 1'
_cell_length_a   8.14881000
_cell_length_b   5.76208000
_cell_length_c   26.11160000
_cell_angle_alpha   90.00000000
_cell_angle_beta   90.00000000
_cell_angle_gamma   90.00000000
_symmetry_Int_Tables_number   1
_chemical_formula_structural   Ti8Co16Si8C
_chemical_formula_sum   'Ti8 Co16 Si8 C1'
_cell_volume   1226.04655026
_cell_formula_units_Z   1
loop_
 _symmetry_equiv_pos_site_id
 _symmetry_equiv_pos_as_xyz
  1  'x, y, z'
loop_
 _atom_site_type_symbol
 _atom_site_label
 _atom_site_symmetry_multiplicity
 _atom_site_fract_x
 _atom_site_fract_y
 _atom_site_fract_z
 _atom_site_occupancy
  Ti  Ti0  1  0.75000000  0.00000000  0.11703000  1.0
  Ti  Ti1  1  0.00000000  0.50000000  0.03901000  1.0
  Ti  Ti2  1  0.50000000  0.50000000  0.03901000  1.0
  Ti  Ti3  1  0.25000000  0.00000000  0.11703000  1.0
  Ti  Ti4  1  0.25245000  0.00200000  0.96158000  1.0
  Ti  Ti5  1  0.50000000  0.50167000  0.87852000  1.0
  Ti  Ti6  1  0.00000000  0.54385000  0.87739000  1.0
  Ti  Ti7  1  0.74755000  0.00200000  0.96158000  1.0
  Co  Co8  1  0.75000000  0.25000000  0.03901000  1.0
  Co  Co9  1  0.25000000  0.75000000  0.03901000  1.0
  Co  Co10  1  0.75000000  0.75000000  0.03901000  1.0
  Co  Co11  1  0.25000000  0.25000000  0.03901000  1.0
  Co  Co12  1  0.50000000  0.75000000  0.11703000  1.0
  Co  Co13  1  0.00000000  0.25000000  0.11703000  1.0
  Co  Co14  1  0.50000000  0.25000000  0.11703000  1.0
  Co  Co15  1  0.00000000  0.75000000  0.11703000  1.0
  Co  Co16  1  0.23956000  0.23834000  0.88610000  1.0
  Co  Co17  1  0.74257000  0.75843000  0.89055000  1.0
  Co  Co18  1  0.25743000  0.75843000  0.89055000  1.0
  Co  Co19  1  0.76044000  0.23834000  0.88610000  1.0
  Co  Co20  1  0.00000000  0.74711000  0.96392000  1.0
  Co  Co21  1  0.50000000  0.26084000  0.95926000  1.0
  Co  Co22  1  0.00000000  0.25479000  0.95971000  1.0
  Co  Co23  1  0.50000000  0.74039000  0.96116000  1.0
  Si  Si24  1  0.50000000  1.00000000  0.03901000  1.0
  Si  Si25  1  0.75000000  0.50000000  0.11703000  1.0
  Si  Si26  1  0.00000000  0.00000000  0.03901000  1.0
  Si  Si27  1  0.25000000  0.50000000  0.11703000  1.0
  Si  Si28  1  0.00000000  0.95687000  0.88532000  1.0
  Si  Si29  1  0.24866000  0.49756000  0.95910000  1.0
  Si  Si30  1  0.50000000  0.99935000  0.88397000  1.0
  Si  Si31  1  0.75134000  0.49756000  0.95910000  1.0
  C  C32  1  0.00000000  0.23170000  0.85630000  1.0
