# generated using pymatgen
data_Ti8Co16Si8C
_symmetry_space_group_name_H-M   Pm
_cell_length_a   5.76208000
_cell_length_b   8.14881000
_cell_length_c   26.11160000
_cell_angle_alpha   90.00000000
_cell_angle_beta   90.00000000
_cell_angle_gamma   90.00000000
_symmetry_Int_Tables_number   6
_chemical_formula_structural   Ti8Co16Si8C
_chemical_formula_sum   'Ti8 Co16 Si8 C1'
_cell_volume   1226.04655026
_cell_formula_units_Z   1
loop_
 _symmetry_equiv_pos_site_id
 _symmetry_equiv_pos_as_xyz
  1  'x, y, z'
  2  'x, -y, z'
loop_
 _atom_site_type_symbol
 _atom_site_label
 _atom_site_symmetry_multiplicity
 _atom_site_fract_x
 _atom_site_fract_y
 _atom_site_fract_z
 _atom_site_occupancy
  Ti  Ti0  2  0.00000000  0.25000000  0.88297000  1.0
  Ti  Ti1  2  0.00200000  0.25245000  0.03842000  1.0
  Ti  Ti2  1  0.50000000  0.00000000  0.96099000  1.0
  Ti  Ti3  1  0.50000000  0.50000000  0.96099000  1.0
  Ti  Ti4  1  0.50167000  0.50000000  0.12148000  1.0
  Ti  Ti5  1  0.54385000  0.00000000  0.12261000  1.0
  Co  Co6  2  0.23834000  0.23956000  0.11390000  1.0
  Co  Co7  2  0.25000000  0.25000000  0.96099000  1.0
  Co  Co8  2  0.75000000  0.25000000  0.96099000  1.0
  Co  Co9  2  0.75843000  0.25743000  0.10945000  1.0
  Co  Co10  1  0.25000000  0.00000000  0.88297000  1.0
  Co  Co11  1  0.25000000  0.50000000  0.88297000  1.0
  Co  Co12  1  0.25479000  0.00000000  0.04029000  1.0
  Co  Co13  1  0.26084000  0.50000000  0.04074000  1.0
  Co  Co14  1  0.74039000  0.50000000  0.03884000  1.0
  Co  Co15  1  0.74711000  0.00000000  0.03608000  1.0
  Co  Co16  1  0.75000000  0.00000000  0.88297000  1.0
  Co  Co17  1  0.75000000  0.50000000  0.88297000  1.0
  Si  Si18  2  0.49756000  0.24866000  0.04090000  1.0
  Si  Si19  2  0.50000000  0.25000000  0.88297000  1.0
  Si  Si20  1  -0.00000000  0.50000000  0.96099000  1.0
  Si  Si21  1  0.00000000  0.00000000  0.96099000  1.0
  Si  Si22  1  0.95687000  0.00000000  0.11468000  1.0
  Si  Si23  1  0.99935000  0.50000000  0.11603000  1.0
  C  C24  1  0.23170000  0.00000000  0.14370000  1.0
