# generated using pymatgen
data_Li8Ga4Au4C
_symmetry_space_group_name_H-M   Cm
_cell_length_a   8.90130058
_cell_length_b   8.90130058
_cell_length_c   24.72060000
_cell_angle_alpha   90.00000000
_cell_angle_beta   90.00000000
_cell_angle_gamma   90.00000000
_symmetry_Int_Tables_number   8
_chemical_formula_structural   Li8Ga4Au4C
_chemical_formula_sum   'Li16 Ga8 Au8 C2'
_cell_volume   1958.69105678
_cell_formula_units_Z   2
loop_
 _symmetry_equiv_pos_site_id
 _symmetry_equiv_pos_as_xyz
  1  'x, y, z'
  2  'x, -y, z'
  3  'x+1/2, y+1/2, z'
  4  'x+1/2, -y+1/2, z'
loop_
 _atom_site_type_symbol
 _atom_site_label
 _atom_site_symmetry_multiplicity
 _atom_site_fract_x
 _atom_site_fract_y
 _atom_site_fract_z
 _atom_site_occupancy
  Li  Li0  4  0.00000000  0.25000000  0.90452000  1.0
  Li  Li1  4  0.24991500  0.26356500  0.10704000  1.0
  Li  Li2  2  0.00000000  0.00000000  0.96817000  1.0
  Li  Li3  2  0.00000000  0.50000000  0.96817000  1.0
  Li  Li4  2  0.24996000  0.00000000  0.04633000  1.0
  Li  Li5  2  0.25111000  0.50000000  0.02701000  1.0
  Ga  Ga6  4  0.25000000  0.25000000  0.96817000  1.0
  Ga  Ga7  2  0.03323500  0.50000000  0.10059000  1.0
  Ga  Ga8  2  0.46775000  0.50000000  0.10077000  1.0
  Au  Au9  4  0.00009000  0.25018000  0.03149000  1.0
  Au  Au10  2  0.25000000  0.00000000  0.90452000  1.0
  Au  Au11  2  0.25000000  0.50000000  0.90452000  1.0
  C  C12  2  0.25063000  0.50000000  0.11105000  1.0
