# generated using pymatgen
data_Hf8Ru8C
_symmetry_space_group_name_H-M   'P 1'
_cell_length_a   6.47981000
_cell_length_b   6.47981000
_cell_length_c   24.85990000
_cell_angle_alpha   90.00000000
_cell_angle_beta   90.00000000
_cell_angle_gamma   90.00000000
_symmetry_Int_Tables_number   1
_chemical_formula_structural   Hf8Ru8C
_chemical_formula_sum   'Hf8 Ru8 C1'
_cell_volume   1043.81593084
_cell_formula_units_Z   1
loop_
 _symmetry_equiv_pos_site_id
 _symmetry_equiv_pos_as_xyz
  1  'x, y, z'
loop_
 _atom_site_type_symbol
 _atom_site_label
 _atom_site_symmetry_multiplicity
 _atom_site_fract_x
 _atom_site_fract_y
 _atom_site_fract_z
 _atom_site_occupancy
  Hf  Hf0  1  0.25000000  0.25000000  0.97644000  1.0
  Hf  Hf1  1  0.25000000  0.25000000  0.10677000  1.0
  Hf  Hf2  1  0.25000000  0.75000000  0.97644000  1.0
  Hf  Hf3  1  0.25000000  0.75000000  0.10677000  1.0
  Hf  Hf4  1  0.75000000  0.25000000  0.97644000  1.0
  Hf  Hf5  1  0.75000000  0.25000000  0.10677000  1.0
  Hf  Hf6  1  0.75000000  0.75000000  0.97644000  1.0
  Hf  Hf7  1  0.75000000  0.75000000  0.10677000  1.0
  Ru  Ru8  1  0.00000000  0.00000000  0.91128000  1.0
  Ru  Ru9  1  0.00000000  0.00000000  0.04160000  1.0
  Ru  Ru10  1  0.00000000  0.50000000  0.91128000  1.0
  Ru  Ru11  1  0.00000000  0.50000000  0.04160000  1.0
  Ru  Ru12  1  0.50000000  0.00000000  0.91128000  1.0
  Ru  Ru13  1  0.50000000  0.00000000  0.04160000  1.0
  Ru  Ru14  1  0.50000000  0.50000000  0.91128000  1.0
  Ru  Ru15  1  0.50000000  0.50000000  0.04160000  1.0
  C  C16  1  0.00000000  0.00000000  0.13895000  1.0
