data_image0
_chemical_formula_structural       Li4In4Cu4Pd4CO
_chemical_formula_sum              "Li4 In4 Cu4 Pd4 C1 O1"
_cell_length_a       6.33486
_cell_length_b       6.33486
_cell_length_c       24.7511
_cell_angle_alpha    90
_cell_angle_beta     90
_cell_angle_gamma    90

_space_group_name_H-M_alt    "P 1"
_space_group_IT_number       1

loop_
  _space_group_symop_operation_xyz
  'x, y, z'

loop_
  _atom_site_type_symbol
  _atom_site_label
  _atom_site_symmetry_multiplicity
  _atom_site_fract_x
  _atom_site_fract_y
  _atom_site_fract_z
  _atom_site_occupancy
  Li  Li1       1.0  0.25000  0.25000  0.96801  1.0000
  Li  Li2       1.0  0.24999  0.75001  0.09848  1.0000
  Li  Li3       1.0  0.74999  0.25002  0.09846  1.0000
  Li  Li4       1.0  0.75000  0.75000  0.96801  1.0000
  In  In1       1.0  0.75000  0.25000  0.96801  1.0000
  In  In2       1.0  0.74997  0.75004  0.10951  1.0000
  In  In3       1.0  0.24997  0.25004  0.09537  1.0000
  In  In4       1.0  0.25000  0.75000  0.96801  1.0000
  Cu  Cu1       1.0  0.00000  0.00000  0.90402  1.0000
  Cu  Cu2       1.0  0.98742  0.51255  0.03396  1.0000
  Cu  Cu3       1.0  0.51253  0.98751  0.03396  1.0000
  Cu  Cu4       1.0  0.50000  0.50000  0.90402  1.0000
  Pd  Pd1       1.0  0.00000  0.50000  0.90402  1.0000
  Pd  Pd2       1.0  0.98702  0.98708  0.03714  1.0000
  Pd  Pd3       1.0  0.51297  0.51294  0.03714  1.0000
  Pd  Pd4       1.0  0.50000  0.00000  0.90402  1.0000
  C   C1        1.0  0.25054  0.24939  0.25914  1.0000
  O   O1        1.0  0.24981  0.25019  0.30497  1.0000
