# generated using pymatgen
data_Y12Al4C
_symmetry_space_group_name_H-M   Pm
_cell_length_a   6.75311000
_cell_length_b   9.55034000
_cell_length_c   25.06480000
_cell_angle_alpha   90.00000000
_cell_angle_beta   90.00000000
_cell_angle_gamma   90.00000000
_symmetry_Int_Tables_number   6
_chemical_formula_structural   Y12Al4C
_chemical_formula_sum   'Y12 Al4 C1'
_cell_volume   1616.54165731
_cell_formula_units_Z   1
loop_
 _symmetry_equiv_pos_site_id
 _symmetry_equiv_pos_as_xyz
  1  'x, y, z'
  2  'x, -y, z'
loop_
 _atom_site_type_symbol
 _atom_site_label
 _atom_site_symmetry_multiplicity
 _atom_site_fract_x
 _atom_site_fract_y
 _atom_site_fract_z
 _atom_site_occupancy
  Y  Y0  2  0.00000000  0.25000000  0.03368000  1.0
  Y  Y1  2  0.50185000  0.26890000  0.88439000  1.0
  Y  Y2  1  0.25000000  0.00000000  0.10103000  1.0
  Y  Y3  1  0.25000000  0.50000000  0.10103000  1.0
  Y  Y4  1  0.25471000  0.50000000  0.96400000  1.0
  Y  Y5  1  0.25617000  0.00000000  0.96352000  1.0
  Y  Y6  1  0.74572000  0.00000000  0.96370000  1.0
  Y  Y7  1  0.74793000  0.50000000  0.96399000  1.0
  Y  Y8  1  0.75000000  0.00000000  0.10103000  1.0
  Y  Y9  1  0.75000000  0.50000000  0.10103000  1.0
  Al  Al10  2  0.00111000  0.24438000  0.91645000  1.0
  Al  Al11  2  0.50000000  0.25000000  0.03368000  1.0
  C  C12  1  0.50117000  0.50000000  0.90074000  1.0
