# generated using pymatgen
data_Nb8Al8Co16CO
_symmetry_space_group_name_H-M   Pmm2
_cell_length_a   5.97844000
_cell_length_b   8.45478000
_cell_length_c   26.34110000
_cell_angle_alpha   90.00000000
_cell_angle_beta   90.00000000
_cell_angle_gamma   90.00000000
_symmetry_Int_Tables_number   25
_chemical_formula_structural   Nb8Al8Co16CO
_chemical_formula_sum   'Nb8 Al8 Co16 C1 O1'
_cell_volume   1331.44764384
_cell_formula_units_Z   1
loop_
 _symmetry_equiv_pos_site_id
 _symmetry_equiv_pos_as_xyz
  1  'x, y, z'
  2  '-x, -y, z'
  3  '-x, y, z'
  4  'x, -y, z'
loop_
 _atom_site_type_symbol
 _atom_site_label
 _atom_site_symmetry_multiplicity
 _atom_site_fract_x
 _atom_site_fract_y
 _atom_site_fract_z
 _atom_site_occupancy
  Nb  Nb0  2  0.00000000  0.24973000  0.04091000  1.0
  Nb  Nb1  2  0.00000000  0.25000000  0.87964000  1.0
  Nb  Nb2  1  0.50000000  0.00000000  0.11702000  1.0
  Nb  Nb3  1  0.50000000  0.00000000  0.95988000  1.0
  Nb  Nb4  1  0.50000000  0.50000000  0.12046000  1.0
  Nb  Nb5  1  0.50000000  0.50000000  0.95988000  1.0
  Al  Al6  2  0.50000000  0.25000000  0.04044000  1.0
  Al  Al7  2  0.50000000  0.25000000  0.87964000  1.0
  Al  Al8  1  0.00000000  0.00000000  0.12058000  1.0
  Al  Al9  1  0.00000000  0.00000000  0.95988000  1.0
  Al  Al10  1  0.00000000  0.50000000  0.12065000  1.0
  Al  Al11  1  0.00000000  0.50000000  0.95988000  1.0
  Co  Co12  4  0.24952000  0.25044000  0.11962000  1.0
  Co  Co13  4  0.25000000  0.25000000  0.95988000  1.0
  Co  Co14  2  0.24923000  0.00000000  0.03975000  1.0
  Co  Co15  2  0.25000000  0.00000000  0.87964000  1.0
  Co  Co16  2  0.25000000  0.50000000  0.87964000  1.0
  Co  Co17  2  0.25096000  0.50000000  0.04019000  1.0
  C  C18  1  0.50000000  0.00000000  0.19514000  1.0
  O  O19  1  0.50000000  0.00000000  0.23746000  1.0
