data_image0
_chemical_formula_structural       Ca4Sn12C
_chemical_formula_sum              "Ca4 Sn12 C1"
_cell_length_a       9.62927
_cell_length_b       6.80892
_cell_length_c       25.1067
_cell_angle_alpha    90
_cell_angle_beta     90
_cell_angle_gamma    90

_space_group_name_H-M_alt    "P 1"
_space_group_IT_number       1

loop_
  _space_group_symop_operation_xyz
  'x, y, z'

loop_
  _atom_site_type_symbol
  _atom_site_label
  _atom_site_symmetry_multiplicity
  _atom_site_fract_x
  _atom_site_fract_y
  _atom_site_fract_z
  _atom_site_occupancy
  Ca  Ca1       1.0  0.00000  0.00000  0.89830  1.0000
  Ca  Ca2       1.0  1.00000  0.49998  0.03206  1.0000
  Ca  Ca3       1.0  0.50000  0.00000  0.89830  1.0000
  Ca  Ca4       1.0  0.49999  0.49998  0.03703  1.0000
  Sn  Sn1       1.0  0.00000  0.50000  0.89830  1.0000
  Sn  Sn2       1.0  0.25000  0.75000  0.96610  1.0000
  Sn  Sn3       1.0  0.25000  0.25000  0.96610  1.0000
  Sn  Sn4       1.0  0.99999  0.99997  0.01913  1.0000
  Sn  Sn5       1.0  0.21339  0.21489  0.10136  1.0000
  Sn  Sn6       1.0  0.21335  0.78512  0.10136  1.0000
  Sn  Sn7       1.0  0.50000  0.50000  0.89830  1.0000
  Sn  Sn8       1.0  0.75000  0.75000  0.96610  1.0000
  Sn  Sn9       1.0  0.75000  0.25000  0.96610  1.0000
  Sn  Sn10      1.0  0.50000  0.99998  0.04387  1.0000
  Sn  Sn11      1.0  0.78662  0.21486  0.10135  1.0000
  Sn  Sn12      1.0  0.78662  0.78511  0.10135  1.0000
  C   C1        1.0  0.00006  0.00015  0.10843  1.0000
