# generated using pymatgen
data_Sc8Al8Cu16C
_symmetry_space_group_name_H-M   'P 1'
_cell_length_a   8.81761000
_cell_length_b   6.23499000
_cell_length_c   26.61320000
_cell_angle_alpha   90.00000000
_cell_angle_beta   90.00000000
_cell_angle_gamma   90.00000000
_symmetry_Int_Tables_number   1
_chemical_formula_structural   Sc8Al8Cu16C
_chemical_formula_sum   'Sc8 Al8 Cu16 C1'
_cell_volume   1463.13279640
_cell_formula_units_Z   1
loop_
 _symmetry_equiv_pos_site_id
 _symmetry_equiv_pos_as_xyz
  1  'x, y, z'
loop_
 _atom_site_type_symbol
 _atom_site_label
 _atom_site_symmetry_multiplicity
 _atom_site_fract_x
 _atom_site_fract_y
 _atom_site_fract_z
 _atom_site_occupancy
  Sc  Sc0  1  0.75001000  0.00000000  0.12425000  1.0
  Sc  Sc1  1  0.00000000  0.50000000  0.04142000  1.0
  Sc  Sc2  1  0.50000000  0.50000000  0.04142000  1.0
  Sc  Sc3  1  0.24999000  0.00000000  0.12425000  1.0
  Sc  Sc4  1  0.25563000  0.00088000  0.95933000  1.0
  Sc  Sc5  1  0.50000000  0.46584000  0.87129000  1.0
  Sc  Sc6  1  0.00000000  0.51434000  0.87195000  1.0
  Sc  Sc7  1  0.74437000  0.00088000  0.95933000  1.0
  Al  Al8  1  0.50000000  0.00000000  0.04142000  1.0
  Al  Al9  1  0.75001000  0.50000000  0.12425000  1.0
  Al  Al10  1  0.00000000  0.00000000  0.04142000  1.0
  Al  Al11  1  0.24999000  0.50000000  0.12425000  1.0
  Al  Al12  1  0.00000000  0.94992000  0.88181000  1.0
  Al  Al13  1  0.24892000  0.49633000  0.95809000  1.0
  Al  Al14  1  0.50000000  0.00090000  0.87954000  1.0
  Al  Al15  1  0.75108000  0.49633000  0.95809000  1.0
  Cu  Cu16  1  0.75001000  0.25000000  0.04142000  1.0
  Cu  Cu17  1  0.25001000  0.75000000  0.04142000  1.0
  Cu  Cu18  1  0.74999000  0.75000000  0.04142000  1.0
  Cu  Cu19  1  0.24999000  0.25000000  0.04142000  1.0
  Cu  Cu20  1  0.50000000  0.75000000  0.12425000  1.0
  Cu  Cu21  1  0.00000000  0.25000000  0.12425000  1.0
  Cu  Cu22  1  0.50000000  0.25000000  0.12425000  1.0
  Cu  Cu23  1  0.00000000  0.75000000  0.12425000  1.0
  Cu  Cu24  1  0.22960000  0.20126000  0.86588000  1.0
  Cu  Cu25  1  0.73607000  0.75161000  0.87933000  1.0
  Cu  Cu26  1  0.26393000  0.75161000  0.87933000  1.0
  Cu  Cu27  1  0.77040000  0.20126000  0.86588000  1.0
  Cu  Cu28  1  0.00000000  0.74646000  0.96216000  1.0
  Cu  Cu29  1  0.50000000  0.26180000  0.96018000  1.0
  Cu  Cu30  1  0.00000000  0.25399000  0.95754000  1.0
  Cu  Cu31  1  0.50000000  0.72431000  0.95395000  1.0
  C  C32  1  0.00000000  0.20986000  0.84566000  1.0
