# generated using pymatgen
data_Sc8Al8Cu16C
_symmetry_space_group_name_H-M   Pm
_cell_length_a   6.23499000
_cell_length_b   8.81761000
_cell_length_c   26.61320000
_cell_angle_alpha   90.00000000
_cell_angle_beta   90.00000000
_cell_angle_gamma   90.00000000
_symmetry_Int_Tables_number   6
_chemical_formula_structural   Sc8Al8Cu16C
_chemical_formula_sum   'Sc8 Al8 Cu16 C1'
_cell_volume   1463.13279640
_cell_formula_units_Z   1
loop_
 _symmetry_equiv_pos_site_id
 _symmetry_equiv_pos_as_xyz
  1  'x, y, z'
  2  'x, -y, z'
loop_
 _atom_site_type_symbol
 _atom_site_label
 _atom_site_symmetry_multiplicity
 _atom_site_fract_x
 _atom_site_fract_y
 _atom_site_fract_z
 _atom_site_occupancy
  Sc  Sc0  2  0.00000000  0.24999000  0.87575000  1.0
  Sc  Sc1  2  0.00088000  0.25563000  0.04067000  1.0
  Sc  Sc2  1  0.46584000  0.50000000  0.12871000  1.0
  Sc  Sc3  1  0.50000000  0.00000000  0.95858000  1.0
  Sc  Sc4  1  0.50000000  0.50000000  0.95858000  1.0
  Sc  Sc5  1  0.51434000  0.00000000  0.12805000  1.0
  Al  Al6  2  0.49633000  0.24892000  0.04191000  1.0
  Al  Al7  2  0.50000000  0.24999000  0.87575000  1.0
  Al  Al8  1  0.00000000  0.00000000  0.95858000  1.0
  Al  Al9  1  0.00000000  0.50000000  0.95858000  1.0
  Al  Al10  1  0.00090000  0.50000000  0.12046000  1.0
  Al  Al11  1  0.94992000  0.00000000  0.11819000  1.0
  Cu  Cu12  2  0.20126000  0.22960000  0.13412000  1.0
  Cu  Cu13  2  0.25000000  0.24999000  0.95858000  1.0
  Cu  Cu14  2  0.75000000  0.25001000  0.95858000  1.0
  Cu  Cu15  2  0.75161000  0.26393000  0.12067000  1.0
  Cu  Cu16  1  0.25000000  0.00000000  0.87575000  1.0
  Cu  Cu17  1  0.25000000  0.50000000  0.87575000  1.0
  Cu  Cu18  1  0.25399000  0.00000000  0.04246000  1.0
  Cu  Cu19  1  0.26180000  0.50000000  0.03982000  1.0
  Cu  Cu20  1  0.72431000  0.50000000  0.04605000  1.0
  Cu  Cu21  1  0.74646000  0.00000000  0.03784000  1.0
  Cu  Cu22  1  0.75000000  0.00000000  0.87575000  1.0
  Cu  Cu23  1  0.75000000  0.50000000  0.87575000  1.0
  C  C24  1  0.20986000  0.00000000  0.15434000  1.0
