# generated using pymatgen
data_Li8Al4Rh4C
_symmetry_space_group_name_H-M   'P 1'
_cell_length_a   6.01864000
_cell_length_b   6.01864000
_cell_length_c   24.51400000
_cell_angle_alpha   90.00000000
_cell_angle_beta   90.00000000
_cell_angle_gamma   90.00000000
_symmetry_Int_Tables_number   1
_chemical_formula_structural   Li8Al4Rh4C
_chemical_formula_sum   'Li8 Al4 Rh4 C1'
_cell_volume   887.99580890
_cell_formula_units_Z   1
loop_
 _symmetry_equiv_pos_site_id
 _symmetry_equiv_pos_as_xyz
  1  'x, y, z'
loop_
 _atom_site_type_symbol
 _atom_site_label
 _atom_site_symmetry_multiplicity
 _atom_site_fract_x
 _atom_site_fract_y
 _atom_site_fract_z
 _atom_site_occupancy
  Li  Li0  1  0.50000000  0.50000000  0.96439000  1.0
  Li  Li1  1  0.00000000  0.50000000  0.09207000  1.0
  Li  Li2  1  0.50000000  0.00000000  0.09207000  1.0
  Li  Li3  1  0.00000000  0.00000000  0.96375000  1.0
  Li  Li4  1  0.75612000  0.74012000  0.88520000  1.0
  Li  Li5  1  0.75002000  0.25001000  0.03069000  1.0
  Li  Li6  1  0.24388000  0.25988000  0.88520000  1.0
  Li  Li7  1  0.24998000  0.74999000  0.03069000  1.0
  Al  Al8  1  0.50000000  0.50000000  0.09207000  1.0
  Al  Al9  1  0.00000000  0.00000000  0.09207000  1.0
  Al  Al10  1  0.00000000  0.50000000  0.96673000  1.0
  Al  Al11  1  0.50000000  0.00000000  0.97450000  1.0
  Rh  Rh12  1  0.75002000  0.75001000  0.03069000  1.0
  Rh  Rh13  1  0.71267000  0.21242000  0.90600000  1.0
  Rh  Rh14  1  0.24998000  0.24999000  0.03069000  1.0
  Rh  Rh15  1  0.28733000  0.78758000  0.90600000  1.0
  C  C16  1  0.50000000  0.00000000  0.88606000  1.0
