# generated using pymatgen
data_Li8Al4Rh4C
_symmetry_space_group_name_H-M   P2
_cell_length_a   6.01864000
_cell_length_b   24.51400000
_cell_length_c   6.01864000
_cell_angle_alpha   90.00000000
_cell_angle_beta   90.00000000
_cell_angle_gamma   90.00000000
_symmetry_Int_Tables_number   3
_chemical_formula_structural   Li8Al4Rh4C
_chemical_formula_sum   'Li8 Al4 Rh4 C1'
_cell_volume   887.99580890
_cell_formula_units_Z   1
loop_
 _symmetry_equiv_pos_site_id
 _symmetry_equiv_pos_as_xyz
  1  'x, y, z'
  2  '-x, y, -z'
loop_
 _atom_site_type_symbol
 _atom_site_label
 _atom_site_symmetry_multiplicity
 _atom_site_fract_x
 _atom_site_fract_y
 _atom_site_fract_z
 _atom_site_occupancy
  Li  Li0  2  0.25001000  0.96931000  0.75002000  1.0
  Li  Li1  2  0.25988000  0.11480000  0.24388000  1.0
  Li  Li2  1  0.00000000  0.03625000  0.00000000  1.0
  Li  Li3  1  0.00000000  0.90793000  0.50000000  1.0
  Li  Li4  1  0.50000000  0.03561000  0.50000000  1.0
  Li  Li5  1  0.50000000  0.90793000  0.00000000  1.0
  Al  Al6  1  0.00000000  0.02550000  0.50000000  1.0
  Al  Al7  1  0.00000000  0.90793000  0.00000000  1.0
  Al  Al8  1  0.50000000  0.03327000  0.00000000  1.0
  Al  Al9  1  0.50000000  0.90793000  0.50000000  1.0
  Rh  Rh10  2  0.21242000  0.09400000  0.71267000  1.0
  Rh  Rh11  2  0.24999000  0.96931000  0.24998000  1.0
  C  C12  1  0.00000000  0.11394000  0.50000000  1.0
