# generated using pymatgen
data_LiYSnPb
_symmetry_space_group_name_H-M   P1
_cell_length_a   8.87168000
_cell_length_b   9.64462000
_cell_length_c   27.02620000
_cell_angle_alpha   90.00000000
_cell_angle_beta   90.00000000
_cell_angle_gamma   90.00000000
_symmetry_Int_Tables_number   1
_chemical_formula_structural   LiYSnPb
_chemical_formula_sum   'Li8 Y8 Sn8 Pb8'
_cell_volume   2312.46930010
_cell_formula_units_Z   8
loop_
 _symmetry_equiv_pos_site_id
 _symmetry_equiv_pos_as_xyz
  1  'x, y, z'
loop_
 _atom_site_type_symbol
 _atom_site_label
 _atom_site_symmetry_multiplicity
 _atom_site_fract_x
 _atom_site_fract_y
 _atom_site_fract_z
 _atom_site_occupancy
  Li  Li0  1  0.00000000  0.00000000  0.04333000  1.0
  Li  Li1  1  0.00000000  0.50000000  0.04333000  1.0
  Li  Li2  1  0.50000000  -0.00000000  0.04333000  1.0
  Li  Li3  1  0.50000000  0.50000000  0.04333000  1.0
  Li  Li4  1  0.50000000  0.50000000  0.86676000  1.0
  Li  Li5  1  0.50003000  0.99999000  0.86675000  1.0
  Li  Li6  1  0.99997000  -0.00000000  0.86674000  1.0
  Li  Li7  1  0.99999000  0.50000000  0.86676000  1.0
  Y  Y8  1  0.00000000  0.24999000  0.95810000  1.0
  Y  Y9  1  0.00000000  0.25000000  0.12999000  1.0
  Y  Y10  1  0.00000000  0.75000000  0.12999000  1.0
  Y  Y11  1  0.00000000  0.75000000  0.95811000  1.0
  Y  Y12  1  0.50000000  0.25000000  0.12999000  1.0
  Y  Y13  1  0.50000000  0.75000000  0.12999000  1.0
  Y  Y14  1  0.50000000  0.75000000  0.95810000  1.0
  Y  Y15  1  0.50001000  0.24999000  0.95810000  1.0
  Sn  Sn16  1  0.24992000  0.75019000  0.86869000  1.0
  Sn  Sn17  1  0.24994000  0.24983000  0.86866000  1.0
  Sn  Sn18  1  0.25000000  0.25000000  0.04333000  1.0
  Sn  Sn19  1  0.25000000  0.75000000  0.04333000  1.0
  Sn  Sn20  1  0.75000000  0.25000000  0.04333000  1.0
  Sn  Sn21  1  0.75000000  0.75000000  0.04333000  1.0
  Sn  Sn22  1  0.75005000  0.24989000  0.86861000  1.0
  Sn  Sn23  1  0.75007000  0.75012000  0.86865000  1.0
  Pb  Pb24  1  0.25000000  -0.00000000  0.12999000  1.0
  Pb  Pb25  1  0.25000000  -0.00000000  0.95049000  1.0
  Pb  Pb26  1  0.25000000  0.50000000  0.12999000  1.0
  Pb  Pb27  1  0.25001000  0.49999000  0.95047000  1.0
  Pb  Pb28  1  0.74999000  0.49999000  0.95046000  1.0
  Pb  Pb29  1  0.75000000  -0.00000000  0.12999000  1.0
  Pb  Pb30  1  0.75000000  0.50000000  0.12999000  1.0
  Pb  Pb31  1  0.75001000  0.00001000  0.95049000  1.0
