# generated using pymatgen
data_Ti8Ni16Sn8CO
_symmetry_space_group_name_H-M   'P 1'
_cell_length_a   6.14873000
_cell_length_b   8.69561000
_cell_length_c   26.52170000
_cell_angle_alpha   90.00000000
_cell_angle_beta   90.00000000
_cell_angle_gamma   90.00000000
_symmetry_Int_Tables_number   1
_chemical_formula_structural   Ti8Ni16Sn8CO
_chemical_formula_sum   'Ti8 Ni16 Sn8 C1 O1'
_cell_volume   1418.03462199
_cell_formula_units_Z   1
loop_
 _symmetry_equiv_pos_site_id
 _symmetry_equiv_pos_as_xyz
  1  'x, y, z'
loop_
 _atom_site_type_symbol
 _atom_site_label
 _atom_site_symmetry_multiplicity
 _atom_site_fract_x
 _atom_site_fract_y
 _atom_site_fract_z
 _atom_site_occupancy
  Ti  Ti0  1  0.00000000  0.00000000  0.87705000  1.0
  Ti  Ti1  1  0.50000000  0.25000000  0.95902000  1.0
  Ti  Ti2  1  0.50000000  0.75000000  0.95902000  1.0
  Ti  Ti3  1  0.00000000  0.50000000  0.87705000  1.0
  Ti  Ti4  1  0.99415000  0.50000000  0.04239000  1.0
  Ti  Ti5  1  0.49614000  0.74773000  0.12047000  1.0
  Ti  Ti6  1  0.49612000  0.25232000  0.12045000  1.0
  Ti  Ti7  1  0.99839000  0.00000000  0.04233000  1.0
  Ni  Ni8  1  0.25000000  0.00000000  0.95902000  1.0
  Ni  Ni9  1  0.75000000  0.50000000  0.95902000  1.0
  Ni  Ni10  1  0.75000000  0.00000000  0.95902000  1.0
  Ni  Ni11  1  0.25000000  0.50000000  0.95902000  1.0
  Ni  Ni12  1  0.75000000  0.75000000  0.87705000  1.0
  Ni  Ni13  1  0.25000000  0.25000000  0.87705000  1.0
  Ni  Ni14  1  0.25000000  0.75000000  0.87705000  1.0
  Ni  Ni15  1  0.75000000  0.25000000  0.87705000  1.0
  Ni  Ni16  1  0.26411000  0.50008000  0.11775000  1.0
  Ni  Ni17  1  0.75097000  0.99993000  0.11509000  1.0
  Ni  Ni18  1  0.71823000  0.50008000  0.11888000  1.0
  Ni  Ni19  1  0.26143000  0.99993000  0.12852000  1.0
  Ni  Ni20  1  0.75740000  0.24786000  0.04408000  1.0
  Ni  Ni21  1  0.23067000  0.74897000  0.04632000  1.0
  Ni  Ni22  1  0.23067000  0.25105000  0.04634000  1.0
  Ni  Ni23  1  0.75739000  0.75212000  0.04407000  1.0
  Sn  Sn24  1  0.00000000  0.75000000  0.95902000  1.0
  Sn  Sn25  1  0.50000000  0.00000000  0.87705000  1.0
  Sn  Sn26  1  0.00000000  0.25000000  0.95902000  1.0
  Sn  Sn27  1  0.50000000  0.50000000  0.87705000  1.0
  Sn  Sn28  1  0.99067000  0.25636000  0.13316000  1.0
  Sn  Sn29  1  0.49645000  0.50000000  0.03756000  1.0
  Sn  Sn30  1  0.99069000  0.74363000  0.13317000  1.0
  Sn  Sn31  1  0.48808000  0.00000000  0.04020000  1.0
  C  C32  1  0.37180000  0.99996000  0.18966000  1.0
  O  O33  1  0.42429000  0.00003000  0.23184000  1.0
