data_image0
_chemical_formula_structural       Ta4Co12CO
_chemical_formula_sum              "Ta4 Co12 C1 O1"
_cell_length_a       7.30495
_cell_length_b       5.16538
_cell_length_c       23.874
_cell_angle_alpha    90
_cell_angle_beta     90
_cell_angle_gamma    90

_space_group_name_H-M_alt    "P 1"
_space_group_IT_number       1

loop_
  _space_group_symop_operation_xyz
  'x, y, z'

loop_
  _atom_site_type_symbol
  _atom_site_label
  _atom_site_symmetry_multiplicity
  _atom_site_fract_x
  _atom_site_fract_y
  _atom_site_fract_z
  _atom_site_occupancy
  Ta  Ta1       1.0  0.00000  0.00000  0.91887  1.0000
  Ta  Ta2       1.0  0.00513  0.49732  0.02761  1.0000
  Ta  Ta3       1.0  0.50000  0.00000  0.91887  1.0000
  Ta  Ta4       1.0  0.49499  0.49741  0.02740  1.0000
  Co  Co1       1.0  0.00000  0.50000  0.91887  1.0000
  Co  Co2       1.0  0.25000  0.75000  0.97296  1.0000
  Co  Co3       1.0  0.25000  0.25000  0.97296  1.0000
  Co  Co4       1.0  0.99885  0.99734  0.02302  1.0000
  Co  Co5       1.0  0.25034  0.24382  0.07751  1.0000
  Co  Co6       1.0  0.25024  0.77489  0.07665  1.0000
  Co  Co7       1.0  0.50000  0.50000  0.91887  1.0000
  Co  Co8       1.0  0.75000  0.75000  0.97296  1.0000
  Co  Co9       1.0  0.75000  0.25000  0.97296  1.0000
  Co  Co10      1.0  0.50111  0.99735  0.02311  1.0000
  Co  Co11      1.0  0.74977  0.23069  0.07560  1.0000
  Co  Co12      1.0  0.74979  0.76647  0.07524  1.0000
  C   C1        1.0  0.25001  0.26582  0.15091  1.0000
  O   O1        1.0  0.24992  0.28122  0.19937  1.0000
