data_image0
_chemical_formula_structural       Li4In4Ag8CO
_chemical_formula_sum              "Li4 In4 Ag8 C1 O1"
_cell_length_a       6.74
_cell_length_b       6.74
_cell_length_c       25.055
_cell_angle_alpha    90
_cell_angle_beta     90
_cell_angle_gamma    90

_space_group_name_H-M_alt    "P 1"
_space_group_IT_number       1

loop_
  _space_group_symop_operation_xyz
  'x, y, z'

loop_
  _atom_site_type_symbol
  _atom_site_label
  _atom_site_symmetry_multiplicity
  _atom_site_fract_x
  _atom_site_fract_y
  _atom_site_fract_z
  _atom_site_occupancy
  Li  Li1       1.0  0.00702  0.99797  0.09664  1.0000
  Li  Li2       1.0  0.49958  0.50048  0.09645  1.0000
  Li  Li3       1.0  0.50000  0.00000  0.96637  1.0000
  Li  Li4       1.0  0.00000  0.50000  0.96637  1.0000
  In  In1       1.0  0.00000  0.00000  0.96637  1.0000
  In  In2       1.0  0.50277  0.00000  0.11513  1.0000
  In  In3       1.0  0.00114  0.50065  0.09203  1.0000
  In  In4       1.0  0.50000  0.50000  0.96637  1.0000
  Ag  Ag1       1.0  0.26789  0.23283  0.03671  1.0000
  Ag  Ag2       1.0  0.75000  0.75000  0.89912  1.0000
  Ag  Ag3       1.0  0.73461  0.23379  0.03738  1.0000
  Ag  Ag4       1.0  0.25000  0.75000  0.89912  1.0000
  Ag  Ag5       1.0  0.73442  0.76649  0.03734  1.0000
  Ag  Ag6       1.0  0.25000  0.25000  0.89912  1.0000
  Ag  Ag7       1.0  0.26809  0.76687  0.03682  1.0000
  Ag  Ag8       1.0  0.75000  0.25000  0.89912  1.0000
  C   C1        1.0  0.95571  0.50145  0.24254  1.0000
  O   O1        1.0  0.03118  0.50011  0.28330  1.0000
