# generated using pymatgen
data_Zr8In8Pt16C
_symmetry_space_group_name_H-M   'P 1'
_cell_length_a   9.46152000
_cell_length_b   6.69031000
_cell_length_c   27.09610000
_cell_angle_alpha   90.00000000
_cell_angle_beta   90.00000000
_cell_angle_gamma   90.00000000
_symmetry_Int_Tables_number   1
_chemical_formula_structural   Zr8In8Pt16C
_chemical_formula_sum   'Zr8 In8 Pt16 C1'
_cell_volume   1715.19672875
_cell_formula_units_Z   1
loop_
 _symmetry_equiv_pos_site_id
 _symmetry_equiv_pos_as_xyz
  1  'x, y, z'
loop_
 _atom_site_type_symbol
 _atom_site_label
 _atom_site_symmetry_multiplicity
 _atom_site_fract_x
 _atom_site_fract_y
 _atom_site_fract_z
 _atom_site_occupancy
  Zr  Zr0  1  0.75000000  0.00000000  0.13094000  1.0
  Zr  Zr1  1  0.00000000  0.50000000  0.04365000  1.0
  Zr  Zr2  1  0.50000000  0.50000000  0.04365000  1.0
  Zr  Zr3  1  0.25000000  0.00000000  0.13094000  1.0
  Zr  Zr4  1  0.25084000  0.99902000  0.95336000  1.0
  Zr  Zr5  1  0.50000000  0.49213000  0.87581000  1.0
  Zr  Zr6  1  0.00000000  0.51400000  0.87326000  1.0
  Zr  Zr7  1  0.74916000  0.99902000  0.95336000  1.0
  In  In8  1  0.50000000  0.00000000  0.04365000  1.0
  In  In9  1  0.75000000  0.50000000  0.13094000  1.0
  In  In10  1  0.00000000  0.00000000  0.04365000  1.0
  In  In11  1  0.25000000  0.50000000  0.13094000  1.0
  In  In12  1  0.00000000  0.90819000  0.82330000  1.0
  In  In13  1  0.24673000  0.49436000  0.95565000  1.0
  In  In14  1  0.50000000  0.02029000  0.86355000  1.0
  In  In15  1  0.75327000  0.49436000  0.95565000  1.0
  Pt  Pt16  1  0.75000000  0.25000000  0.04365000  1.0
  Pt  Pt17  1  0.25000000  0.75000000  0.04365000  1.0
  Pt  Pt18  1  0.75000000  0.75000000  0.04365000  1.0
  Pt  Pt19  1  0.25000000  0.25000000  0.04365000  1.0
  Pt  Pt20  1  0.50000000  0.75000000  0.13094000  1.0
  Pt  Pt21  1  0.00000000  0.25000000  0.13094000  1.0
  Pt  Pt22  1  0.50000000  0.25000000  0.13094000  1.0
  Pt  Pt23  1  0.00000000  0.75000000  0.13094000  1.0
  Pt  Pt24  1  0.21965000  0.19810000  0.86889000  1.0
  Pt  Pt25  1  0.74044000  0.73564000  0.87270000  1.0
  Pt  Pt26  1  0.25956000  0.73564000  0.87270000  1.0
  Pt  Pt27  1  0.78035000  0.19810000  0.86889000  1.0
  Pt  Pt28  1  0.00000000  0.76548000  0.95877000  1.0
  Pt  Pt29  1  0.50000000  0.26447000  0.95979000  1.0
  Pt  Pt30  1  0.00000000  0.25178000  0.95982000  1.0
  Pt  Pt31  1  0.50000000  0.76033000  0.95415000  1.0
  C  C32  1  0.00000000  0.22516000  0.84488000  1.0
