data_image0
_chemical_formula_structural       Li16Al8Rh8CO
_chemical_formula_sum              "Li16 Al8 Rh8 C1 O1"
_cell_length_a       6.01864
_cell_length_b       8.51164
_cell_length_c       26.3837
_cell_angle_alpha    90
_cell_angle_beta     90
_cell_angle_gamma    90

_space_group_name_H-M_alt    "P 1"
_space_group_IT_number       1

loop_
  _space_group_symop_operation_xyz
  'x, y, z'

loop_
  _atom_site_type_symbol
  _atom_site_label
  _atom_site_symmetry_multiplicity
  _atom_site_fract_x
  _atom_site_fract_y
  _atom_site_fract_z
  _atom_site_occupancy
  Li  Li1       1.0  0.00000  0.75000  0.95967  1.0000
  Li  Li2       1.0  0.50000  0.00000  0.87902  1.0000
  Li  Li3       1.0  0.00000  0.25000  0.95967  1.0000
  Li  Li4       1.0  0.50000  0.50000  0.87902  1.0000
  Li  Li5       1.0  0.25000  0.25000  0.87902  1.0000
  Li  Li6       1.0  0.25000  0.75000  0.87902  1.0000
  Li  Li7       1.0  0.75000  0.50000  0.95967  1.0000
  Li  Li8       1.0  0.75000  0.00000  0.95967  1.0000
  Li  Li9       1.0  0.01109  0.24238  0.13600  1.0000
  Li  Li10      1.0  0.50313  0.49996  0.03903  1.0000
  Li  Li11      1.0  0.00994  0.75584  0.13632  1.0000
  Li  Li12      1.0  0.50438  0.00043  0.03917  1.0000
  Li  Li13      1.0  0.23675  0.74889  0.03887  1.0000
  Li  Li14      1.0  0.23720  0.25236  0.03898  1.0000
  Li  Li15      1.0  0.73491  0.99958  0.12313  1.0000
  Li  Li16      1.0  0.74502  0.49877  0.12374  1.0000
  Al  Al1       1.0  0.00000  0.00000  0.87902  1.0000
  Al  Al2       1.0  0.50000  0.25000  0.95967  1.0000
  Al  Al3       1.0  0.50000  0.75000  0.95967  1.0000
  Al  Al4       1.0  0.00000  0.50000  0.87902  1.0000
  Al  Al5       1.0  0.99386  0.50037  0.03951  1.0000
  Al  Al6       1.0  0.47285  0.74826  0.11715  1.0000
  Al  Al7       1.0  0.47234  0.25047  0.11727  1.0000
  Al  Al8       1.0  0.99260  0.00037  0.03962  1.0000
  Rh  Rh1       1.0  0.25000  0.00000  0.95967  1.0000
  Rh  Rh2       1.0  0.25000  0.50000  0.95967  1.0000
  Rh  Rh3       1.0  0.75000  0.75000  0.87902  1.0000
  Rh  Rh4       1.0  0.75000  0.25000  0.87902  1.0000
  Rh  Rh5       1.0  0.25485  0.50182  0.11378  1.0000
  Rh  Rh6       1.0  0.25159  0.99802  0.11274  1.0000
  Rh  Rh7       1.0  0.75551  0.25004  0.04492  1.0000
  Rh  Rh8       1.0  0.75541  0.75021  0.04535  1.0000
  C   C1        1.0  0.87746  0.00030  0.19279  1.0000
  O   O1        1.0  0.93985  0.00031  0.23453  1.0000
