# generated using pymatgen
data_Li16Al8Rh8CO
_symmetry_space_group_name_H-M   'P 1'
_cell_length_a   6.01864000
_cell_length_b   8.51164000
_cell_length_c   26.38370000
_cell_angle_alpha   90.00000000
_cell_angle_beta   90.00000000
_cell_angle_gamma   90.00000000
_symmetry_Int_Tables_number   1
_chemical_formula_structural   Li16Al8Rh8CO
_chemical_formula_sum   'Li16 Al8 Rh8 C1 O1'
_cell_volume   1351.59729550
_cell_formula_units_Z   1
loop_
 _symmetry_equiv_pos_site_id
 _symmetry_equiv_pos_as_xyz
  1  'x, y, z'
loop_
 _atom_site_type_symbol
 _atom_site_label
 _atom_site_symmetry_multiplicity
 _atom_site_fract_x
 _atom_site_fract_y
 _atom_site_fract_z
 _atom_site_occupancy
  Li  Li0  1  0.00000000  0.75000000  0.95967000  1.0
  Li  Li1  1  0.50000000  0.00000000  0.87902000  1.0
  Li  Li2  1  0.00000000  0.25000000  0.95967000  1.0
  Li  Li3  1  0.50000000  0.50000000  0.87902000  1.0
  Li  Li4  1  0.25000000  0.25000000  0.87902000  1.0
  Li  Li5  1  0.25000000  0.75000000  0.87902000  1.0
  Li  Li6  1  0.75000000  0.50000000  0.95967000  1.0
  Li  Li7  1  0.75000000  0.00000000  0.95967000  1.0
  Li  Li8  1  0.01099000  0.25251000  0.13328000  1.0
  Li  Li9  1  0.50041000  0.50007000  0.03825000  1.0
  Li  Li10  1  0.01062000  0.74349000  0.13516000  1.0
  Li  Li11  1  0.50205000  0.99909000  0.03834000  1.0
  Li  Li12  1  0.23410000  0.74958000  0.03778000  1.0
  Li  Li13  1  0.23368000  0.24975000  0.03750000  1.0
  Li  Li14  1  0.74146000  0.99895000  0.12520000  1.0
  Li  Li15  1  0.73510000  0.49783000  0.12438000  1.0
  Al  Al16  1  0.00000000  0.00000000  0.87902000  1.0
  Al  Al17  1  0.50000000  0.25000000  0.95967000  1.0
  Al  Al18  1  0.50000000  0.75000000  0.95967000  1.0
  Al  Al19  1  0.00000000  0.50000000  0.87902000  1.0
  Al  Al20  1  0.98968000  0.49930000  0.04017000  1.0
  Al  Al21  1  0.47261000  0.74692000  0.11695000  1.0
  Al  Al22  1  0.47122000  0.24969000  0.11671000  1.0
  Al  Al23  1  0.99101000  0.00013000  0.03954000  1.0
  Rh  Rh24  1  0.25000000  0.00000000  0.95967000  1.0
  Rh  Rh25  1  0.25000000  0.50000000  0.95967000  1.0
  Rh  Rh26  1  0.75000000  0.75000000  0.87902000  1.0
  Rh  Rh27  1  0.75000000  0.25000000  0.87902000  1.0
  Rh  Rh28  1  0.25294000  0.49882000  0.11264000  1.0
  Rh  Rh29  1  0.24165000  0.99799000  0.12018000  1.0
  Rh  Rh30  1  0.74977000  0.24994000  0.04519000  1.0
  Rh  Rh31  1  0.75201000  0.74917000  0.04571000  1.0
  C  C32  1  0.12545000  0.00144000  0.18599000  1.0
  O  O33  1  0.06145000  0.00440000  0.22794000  1.0
