# generated using pymatgen
data_V12Pt4CO
_symmetry_space_group_name_H-M   'P 1'
_cell_length_a   7.64728000
_cell_length_b   5.40744000
_cell_length_c   24.05560000
_cell_angle_alpha   90.00000000
_cell_angle_beta   90.00000000
_cell_angle_gamma   90.00000000
_symmetry_Int_Tables_number   1
_chemical_formula_structural   V12Pt4CO
_chemical_formula_sum   'V12 Pt4 C1 O1'
_cell_volume   994.75216907
_cell_formula_units_Z   1
loop_
 _symmetry_equiv_pos_site_id
 _symmetry_equiv_pos_as_xyz
  1  'x, y, z'
loop_
 _atom_site_type_symbol
 _atom_site_label
 _atom_site_symmetry_multiplicity
 _atom_site_fract_x
 _atom_site_fract_y
 _atom_site_fract_z
 _atom_site_occupancy
  V  V0  1  0.74999000  0.50000000  0.91570000  1.0
  V  V1  1  0.50000000  0.25000000  0.97190000  1.0
  V  V2  1  0.50000000  0.75000000  0.97190000  1.0
  V  V3  1  0.74578000  0.94621000  0.02111000  1.0
  V  V4  1  0.50000000  0.67253000  0.08437000  1.0
  V  V5  1  0.50000000  0.12453000  0.07069000  1.0
  V  V6  1  0.25001000  0.50000000  0.91570000  1.0
  V  V7  1  0.00000000  0.25000000  0.97190000  1.0
  V  V8  1  0.00000000  0.75000000  0.97190000  1.0
  V  V9  1  0.25422000  0.94621000  0.02111000  1.0
  V  V10  1  0.00000000  0.69494000  0.08159000  1.0
  V  V11  1  0.00000000  0.12492000  0.06633000  1.0
  Pt  Pt12  1  0.74999000  0.00000000  0.91570000  1.0
  Pt  Pt13  1  0.74988000  0.46397000  0.03343000  1.0
  Pt  Pt14  1  0.25001000  0.00000000  0.91570000  1.0
  Pt  Pt15  1  0.25012000  0.46397000  0.03343000  1.0
  C  C16  1  0.50000000  0.89238000  0.14796000  1.0
  O  O17  1  0.50000000  0.02416000  0.18749000  1.0
