# generated using pymatgen
data_Li16Pd16CO
_symmetry_space_group_name_H-M   'P 1'
_cell_length_a   8.57934000
_cell_length_b   6.06651000
_cell_length_c   26.43450000
_cell_angle_alpha   90.00000000
_cell_angle_beta   90.00000000
_cell_angle_gamma   90.00000000
_symmetry_Int_Tables_number   1
_chemical_formula_structural   Li16Pd16CO
_chemical_formula_sum   'Li16 Pd16 C1 O1'
_cell_volume   1375.82721974
_cell_formula_units_Z   1
loop_
 _symmetry_equiv_pos_site_id
 _symmetry_equiv_pos_as_xyz
  1  'x, y, z'
loop_
 _atom_site_type_symbol
 _atom_site_label
 _atom_site_symmetry_multiplicity
 _atom_site_fract_x
 _atom_site_fract_y
 _atom_site_fract_z
 _atom_site_occupancy
  Li  Li0  1  0.00000000  0.00000000  0.12171000  1.0
  Li  Li1  1  0.25000000  0.00000000  0.04057000  1.0
  Li  Li2  1  0.00000000  0.99433000  0.96210000  1.0
  Li  Li3  1  0.25129000  0.99951000  0.87323000  1.0
  Li  Li4  1  0.50000000  0.00000000  0.12171000  1.0
  Li  Li5  1  0.75000000  0.00000000  0.04057000  1.0
  Li  Li6  1  0.50000000  0.00160000  0.96092000  1.0
  Li  Li7  1  0.74871000  0.99951000  0.87323000  1.0
  Li  Li8  1  0.00000000  0.50000000  0.12171000  1.0
  Li  Li9  1  0.25000000  0.50000000  0.04057000  1.0
  Li  Li10  1  0.00000000  0.50434000  0.96172000  1.0
  Li  Li11  1  0.25079000  0.50071000  0.87301000  1.0
  Li  Li12  1  0.50000000  0.50000000  0.12171000  1.0
  Li  Li13  1  0.75000000  0.50000000  0.04057000  1.0
  Li  Li14  1  0.50000000  0.49760000  0.96097000  1.0
  Li  Li15  1  0.74921000  0.50071000  0.87301000  1.0
  Pd  Pd16  1  0.25000000  0.25000000  0.12171000  1.0
  Pd  Pd17  1  0.00000000  0.25000000  0.04057000  1.0
  Pd  Pd18  1  0.24319000  0.25007000  0.95792000  1.0
  Pd  Pd19  1  0.00000000  0.24922000  0.87773000  1.0
  Pd  Pd20  1  0.75000000  0.25000000  0.12171000  1.0
  Pd  Pd21  1  0.50000000  0.25000000  0.04057000  1.0
  Pd  Pd22  1  0.75681000  0.25007000  0.95792000  1.0
  Pd  Pd23  1  0.50000000  0.25060000  0.88419000  1.0
  Pd  Pd24  1  0.25000000  0.75000000  0.12171000  1.0
  Pd  Pd25  1  0.00000000  0.75000000  0.04057000  1.0
  Pd  Pd26  1  0.25143000  0.75006000  0.95863000  1.0
  Pd  Pd27  1  0.00000000  0.75056000  0.88473000  1.0
  Pd  Pd28  1  0.75000000  0.75000000  0.12171000  1.0
  Pd  Pd29  1  0.50000000  0.75000000  0.04057000  1.0
  Pd  Pd30  1  0.74857000  0.75006000  0.95863000  1.0
  Pd  Pd31  1  0.50000000  0.74960000  0.88304000  1.0
  C  C32  1  0.00000000  0.24865000  0.80510000  1.0
  O  O33  1  0.00000000  0.24934000  0.76135000  1.0
