# generated using pymatgen
data_Li16Pd16CO
_symmetry_space_group_name_H-M   Pm
_cell_length_a   6.06651000
_cell_length_b   8.57934000
_cell_length_c   26.43450000
_cell_angle_alpha   90.00000000
_cell_angle_beta   90.00000000
_cell_angle_gamma   90.00000000
_symmetry_Int_Tables_number   6
_chemical_formula_structural   Li16Pd16CO
_chemical_formula_sum   'Li16 Pd16 C1 O1'
_cell_volume   1375.82721974
_cell_formula_units_Z   1
loop_
 _symmetry_equiv_pos_site_id
 _symmetry_equiv_pos_as_xyz
  1  'x, y, z'
  2  'x, -y, z'
loop_
 _atom_site_type_symbol
 _atom_site_label
 _atom_site_symmetry_multiplicity
 _atom_site_fract_x
 _atom_site_fract_y
 _atom_site_fract_z
 _atom_site_occupancy
  Li  Li0  2  0.00000000  0.25000000  0.95943000  1.0
  Li  Li1  2  0.50000000  0.25000000  0.95943000  1.0
  Li  Li2  2  0.50071000  0.25079000  0.12699000  1.0
  Li  Li3  2  0.99951000  0.25129000  0.12677000  1.0
  Li  Li4  1  0.00000000  0.00000000  0.87829000  1.0
  Li  Li5  1  0.00000000  0.50000000  0.87829000  1.0
  Li  Li6  1  0.00160000  0.50000000  0.03908000  1.0
  Li  Li7  1  0.49760000  0.50000000  0.03903000  1.0
  Li  Li8  1  0.50000000  0.00000000  0.87829000  1.0
  Li  Li9  1  0.50000000  0.50000000  0.87829000  1.0
  Li  Li10  1  0.50434000  0.00000000  0.03828000  1.0
  Li  Li11  1  0.99433000  0.00000000  0.03790000  1.0
  Pd  Pd12  2  0.25000000  0.25000000  0.87829000  1.0
  Pd  Pd13  2  0.25007000  0.24319000  0.04208000  1.0
  Pd  Pd14  2  0.75000000  0.25000000  0.87829000  1.0
  Pd  Pd15  2  0.75006000  0.25143000  0.04137000  1.0
  Pd  Pd16  1  0.24922000  0.00000000  0.12227000  1.0
  Pd  Pd17  1  0.25000000  0.00000000  0.95943000  1.0
  Pd  Pd18  1  0.25000000  0.50000000  0.95943000  1.0
  Pd  Pd19  1  0.25060000  0.50000000  0.11581000  1.0
  Pd  Pd20  1  0.74960000  0.50000000  0.11696000  1.0
  Pd  Pd21  1  0.75000000  0.00000000  0.95943000  1.0
  Pd  Pd22  1  0.75000000  0.50000000  0.95943000  1.0
  Pd  Pd23  1  0.75056000  0.00000000  0.11527000  1.0
  C  C24  1  0.24865000  0.00000000  0.19490000  1.0
  O  O25  1  0.24934000  0.00000000  0.23865000  1.0
