# generated using pymatgen
data_Y4Ga4Sn4Pd4C
_symmetry_space_group_name_H-M   Pm
_cell_length_a   6.14219000
_cell_length_b   8.88338000
_cell_length_c   24.60430000
_cell_angle_alpha   90.00000000
_cell_angle_beta   90.00000000
_cell_angle_gamma   90.00000000
_symmetry_Int_Tables_number   6
_chemical_formula_structural   Y4Ga4Sn4Pd4C
_chemical_formula_sum   'Y4 Ga4 Sn4 Pd4 C1'
_cell_volume   1342.49445459
_cell_formula_units_Z   1
loop_
 _symmetry_equiv_pos_site_id
 _symmetry_equiv_pos_as_xyz
  1  'x, y, z'
  2  'x, -y, z'
loop_
 _atom_site_type_symbol
 _atom_site_label
 _atom_site_symmetry_multiplicity
 _atom_site_fract_x
 _atom_site_fract_y
 _atom_site_fract_z
 _atom_site_occupancy
  Y  Y0  2  0.24196000  0.24999000  0.96881000  1.0
  Y  Y1  2  0.69047000  0.24945000  0.09382000  1.0
  Ga  Ga2  1  0.00000000  0.50000000  0.90643000  1.0
  Ga  Ga3  1  0.00000000  0.00000000  0.90643000  1.0
  Ga  Ga4  1  0.40072000  0.00000000  0.04609000  1.0
  Ga  Ga5  1  0.40784000  0.50000000  0.04646000  1.0
  Sn  Sn6  1  0.50000000  0.00000000  0.90643000  1.0
  Sn  Sn7  1  0.50000000  0.50000000  0.90643000  1.0
  Sn  Sn8  1  0.91457000  0.00000000  0.02458000  1.0
  Sn  Sn9  1  0.93397000  0.50000000  0.02662000  1.0
  Pd  Pd10  2  0.20284000  0.24439000  0.07975000  1.0
  Pd  Pd11  2  0.74196000  0.24999000  0.96881000  1.0
  C  C12  1  0.68197000  0.50000000  0.09294000  1.0
