data_image0
_chemical_formula_structural       Li8Ga16Ru8CO
_chemical_formula_sum              "Li8 Ga16 Ru8 C1 O1"
_cell_length_a       6.09317
_cell_length_b       8.61704
_cell_length_c       26.4628
_cell_angle_alpha    90
_cell_angle_beta     90
_cell_angle_gamma    90

_space_group_name_H-M_alt    "P 1"
_space_group_IT_number       1

loop_
  _space_group_symop_operation_xyz
  'x, y, z'

loop_
  _atom_site_type_symbol
  _atom_site_label
  _atom_site_symmetry_multiplicity
  _atom_site_fract_x
  _atom_site_fract_y
  _atom_site_fract_z
  _atom_site_occupancy
  Li  Li1       1.0  0.00000  0.00000  0.87789  1.0000
  Li  Li2       1.0  0.50000  0.25000  0.95930  1.0000
  Li  Li3       1.0  0.50000  0.75000  0.95930  1.0000
  Li  Li4       1.0  0.00000  0.50000  0.87789  1.0000
  Li  Li5       1.0  0.99944  0.50000  0.03870  1.0000
  Li  Li6       1.0  0.49942  0.75014  0.12810  1.0000
  Li  Li7       1.0  0.49942  0.24986  0.12810  1.0000
  Li  Li8       1.0  0.99854  1.00000  0.03852  1.0000
  Ga  Ga1       1.0  0.25000  0.00000  0.95930  1.0000
  Ga  Ga2       1.0  0.75000  0.50000  0.95930  1.0000
  Ga  Ga3       1.0  0.75000  0.00000  0.95930  1.0000
  Ga  Ga4       1.0  0.25000  0.50000  0.95930  1.0000
  Ga  Ga5       1.0  0.75000  0.75000  0.87789  1.0000
  Ga  Ga6       1.0  0.25000  0.25000  0.87789  1.0000
  Ga  Ga7       1.0  0.25000  0.75000  0.87789  1.0000
  Ga  Ga8       1.0  0.75000  0.25000  0.87789  1.0000
  Ga  Ga9       1.0  0.22671  0.50000  0.12415  1.0000
  Ga  Ga10      1.0  0.77172  1.00000  0.12404  1.0000
  Ga  Ga11      1.0  0.76916  0.50000  0.12412  1.0000
  Ga  Ga12      1.0  0.22649  1.00000  0.12292  1.0000
  Ga  Ga13      1.0  0.74826  0.25029  0.03979  1.0000
  Ga  Ga14      1.0  0.24984  0.75012  0.03986  1.0000
  Ga  Ga15      1.0  0.24983  0.24988  0.03986  1.0000
  Ga  Ga16      1.0  0.74825  0.74971  0.03980  1.0000
  Ru  Ru1       1.0  0.00000  0.75000  0.95930  1.0000
  Ru  Ru2       1.0  0.50000  0.00000  0.87789  1.0000
  Ru  Ru3       1.0  0.00000  0.25000  0.95930  1.0000
  Ru  Ru4       1.0  0.50000  0.50000  0.87789  1.0000
  Ru  Ru5       1.0  0.99840  0.25052  0.11594  1.0000
  Ru  Ru6       1.0  0.49833  0.50000  0.04308  1.0000
  Ru  Ru7       1.0  0.99840  0.74948  0.11594  1.0000
  Ru  Ru8       1.0  0.49981  1.00000  0.04331  1.0000
  C   C1        1.0  0.39226  0.00000  0.25510  1.0000
  O   O1        1.0  0.23714  1.00000  0.27882  1.0000
