# generated using pymatgen
data_Li8Ga16Ru8CO
_symmetry_space_group_name_H-M   'P 1'
_cell_length_a   8.61704000
_cell_length_b   6.09317000
_cell_length_c   26.46280000
_cell_angle_alpha   90.00000000
_cell_angle_beta   90.00000000
_cell_angle_gamma   90.00000000
_symmetry_Int_Tables_number   1
_chemical_formula_structural   Li8Ga16Ru8CO
_chemical_formula_sum   'Li8 Ga16 Ru8 C1 O1'
_cell_volume   1389.43168551
_cell_formula_units_Z   1
loop_
 _symmetry_equiv_pos_site_id
 _symmetry_equiv_pos_as_xyz
  1  'x, y, z'
loop_
 _atom_site_type_symbol
 _atom_site_label
 _atom_site_symmetry_multiplicity
 _atom_site_fract_x
 _atom_site_fract_y
 _atom_site_fract_z
 _atom_site_occupancy
  Li  Li0  1  0.00000000  0.00000000  0.12211000  1.0
  Li  Li1  1  0.25000000  0.50000000  0.04070000  1.0
  Li  Li2  1  0.75000000  0.50000000  0.04070000  1.0
  Li  Li3  1  0.50000000  0.00000000  0.12211000  1.0
  Li  Li4  1  0.50000000  0.99944000  0.96130000  1.0
  Li  Li5  1  0.75014000  0.49942000  0.87190000  1.0
  Li  Li6  1  0.24986000  0.49942000  0.87190000  1.0
  Li  Li7  1  0.00000000  0.99854000  0.96148000  1.0
  Ga  Ga8  1  0.00000000  0.25000000  0.04070000  1.0
  Ga  Ga9  1  0.50000000  0.75000000  0.04070000  1.0
  Ga  Ga10  1  0.00000000  0.75000000  0.04070000  1.0
  Ga  Ga11  1  0.50000000  0.25000000  0.04070000  1.0
  Ga  Ga12  1  0.75000000  0.75000000  0.12211000  1.0
  Ga  Ga13  1  0.25000000  0.25000000  0.12211000  1.0
  Ga  Ga14  1  0.75000000  0.25000000  0.12211000  1.0
  Ga  Ga15  1  0.25000000  0.75000000  0.12211000  1.0
  Ga  Ga16  1  0.50000000  0.22671000  0.87585000  1.0
  Ga  Ga17  1  0.00000000  0.77172000  0.87596000  1.0
  Ga  Ga18  1  0.50000000  0.76916000  0.87588000  1.0
  Ga  Ga19  1  0.00000000  0.22649000  0.87708000  1.0
  Ga  Ga20  1  0.25029000  0.74826000  0.96021000  1.0
  Ga  Ga21  1  0.75012000  0.24984000  0.96014000  1.0
  Ga  Ga22  1  0.24988000  0.24984000  0.96014000  1.0
  Ga  Ga23  1  0.74971000  0.74826000  0.96021000  1.0
  Ru  Ru24  1  0.75000000  0.00000000  0.04070000  1.0
  Ru  Ru25  1  0.00000000  0.50000000  0.12211000  1.0
  Ru  Ru26  1  0.25000000  0.00000000  0.04070000  1.0
  Ru  Ru27  1  0.50000000  0.50000000  0.12211000  1.0
  Ru  Ru28  1  0.25052000  0.99840000  0.88406000  1.0
  Ru  Ru29  1  0.50000000  0.49833000  0.95692000  1.0
  Ru  Ru30  1  0.74948000  0.99840000  0.88406000  1.0
  Ru  Ru31  1  0.00000000  0.49981000  0.95669000  1.0
  C  C32  1  0.00000000  0.39226000  0.74490000  1.0
  O  O33  1  0.00000000  0.23714000  0.72118000  1.0
