# generated using pymatgen
data_Li8Ga16Ru8CO
_symmetry_space_group_name_H-M   Pm
_cell_length_a   6.09317000
_cell_length_b   8.61704000
_cell_length_c   26.46280000
_cell_angle_alpha   90.00000000
_cell_angle_beta   90.00000000
_cell_angle_gamma   90.00000000
_symmetry_Int_Tables_number   6
_chemical_formula_structural   Li8Ga16Ru8CO
_chemical_formula_sum   'Li8 Ga16 Ru8 C1 O1'
_cell_volume   1389.43168551
_cell_formula_units_Z   1
loop_
 _symmetry_equiv_pos_site_id
 _symmetry_equiv_pos_as_xyz
  1  'x, y, z'
  2  'x, -y, z'
loop_
 _atom_site_type_symbol
 _atom_site_label
 _atom_site_symmetry_multiplicity
 _atom_site_fract_x
 _atom_site_fract_y
 _atom_site_fract_z
 _atom_site_occupancy
  Li  Li0  2  0.49942000  0.24986000  0.12810000  1.0
  Li  Li1  2  0.50000000  0.25000000  0.95930000  1.0
  Li  Li2  1  0.00000000  0.00000000  0.87789000  1.0
  Li  Li3  1  0.00000000  0.50000000  0.87789000  1.0
  Li  Li4  1  0.99854000  0.00000000  0.03852000  1.0
  Li  Li5  1  0.99944000  0.50000000  0.03870000  1.0
  Ga  Ga6  2  0.24984000  0.24988000  0.03986000  1.0
  Ga  Ga7  2  0.25000000  0.25000000  0.87789000  1.0
  Ga  Ga8  2  0.74826000  0.25029000  0.03979000  1.0
  Ga  Ga9  2  0.75000000  0.25000000  0.87789000  1.0
  Ga  Ga10  1  0.22649000  0.00000000  0.12292000  1.0
  Ga  Ga11  1  0.22671000  0.50000000  0.12415000  1.0
  Ga  Ga12  1  0.25000000  0.00000000  0.95930000  1.0
  Ga  Ga13  1  0.25000000  0.50000000  0.95930000  1.0
  Ga  Ga14  1  0.75000000  0.00000000  0.95930000  1.0
  Ga  Ga15  1  0.75000000  0.50000000  0.95930000  1.0
  Ga  Ga16  1  0.76916000  0.50000000  0.12412000  1.0
  Ga  Ga17  1  0.77172000  0.00000000  0.12404000  1.0
  Ru  Ru18  2  0.00000000  0.25000000  0.95930000  1.0
  Ru  Ru19  2  0.99840000  0.25052000  0.11594000  1.0
  Ru  Ru20  1  0.49833000  0.50000000  0.04308000  1.0
  Ru  Ru21  1  0.49981000  0.00000000  0.04331000  1.0
  Ru  Ru22  1  0.50000000  0.00000000  0.87789000  1.0
  Ru  Ru23  1  0.50000000  0.50000000  0.87789000  1.0
  C  C24  1  0.39226000  0.00000000  0.25510000  1.0
  O  O25  1  0.23714000  0.00000000  0.27882000  1.0
