# generated using pymatgen
data_Ni24Sn8C
_symmetry_space_group_name_H-M   P4mm
_cell_length_a   7.51544000
_cell_length_b   7.51544000
_cell_length_c   25.63660000
_cell_angle_alpha   90.00000000
_cell_angle_beta   90.00000000
_cell_angle_gamma   90.00000000
_symmetry_Int_Tables_number   99
_chemical_formula_structural   Ni24Sn8C
_chemical_formula_sum   'Ni24 Sn8 C1'
_cell_volume   1448.00229816
_cell_formula_units_Z   1
loop_
 _symmetry_equiv_pos_site_id
 _symmetry_equiv_pos_as_xyz
  1  'x, y, z'
  2  '-y, x, z'
  3  '-x, -y, z'
  4  'y, -x, z'
  5  '-x, y, z'
  6  'y, x, z'
  7  'x, -y, z'
  8  '-y, -x, z'
loop_
 _atom_site_type_symbol
 _atom_site_label
 _atom_site_symmetry_multiplicity
 _atom_site_fract_x
 _atom_site_fract_y
 _atom_site_fract_z
 _atom_site_occupancy
  Ni  Ni0  4  0.00000000  0.25000000  0.10993000  1.0
  Ni  Ni1  4  0.00000000  0.25000000  0.96336000  1.0
  Ni  Ni2  4  0.25000000  0.25000000  0.03664000  1.0
  Ni  Ni3  4  0.25000000  0.25000000  0.89007000  1.0
  Ni  Ni4  4  0.25000000  0.50000000  0.10993000  1.0
  Ni  Ni5  4  0.25000000  0.50000000  0.96336000  1.0
  Sn  Sn6  2  0.00000000  0.50000000  0.03664000  1.0
  Sn  Sn7  2  0.00000000  0.50000000  0.89007000  1.0
  Sn  Sn8  1  0.00000000  0.00000000  0.03664000  1.0
  Sn  Sn9  1  0.00000000  0.00000000  0.89007000  1.0
  Sn  Sn10  1  0.50000000  0.50000000  0.03664000  1.0
  Sn  Sn11  1  0.50000000  0.50000000  0.89007000  1.0
  C  C12  1  0.00000000  0.00000000  0.14114000  1.0
