# generated using pymatgen
data_Y4Sc4Ga4Pd4CO
_symmetry_space_group_name_H-M   'P 1'
_cell_length_a   9.48206000
_cell_length_b   6.06401000
_cell_length_c   24.30750000
_cell_angle_alpha   90.00000000
_cell_angle_beta   90.00000000
_cell_angle_gamma   90.00000000
_symmetry_Int_Tables_number   1
_chemical_formula_structural   Y4Sc4Ga4Pd4CO
_chemical_formula_sum   'Y4 Sc4 Ga4 Pd4 C1 O1'
_cell_volume   1397.66439665
_cell_formula_units_Z   1
loop_
 _symmetry_equiv_pos_site_id
 _symmetry_equiv_pos_as_xyz
  1  'x, y, z'
loop_
 _atom_site_type_symbol
 _atom_site_label
 _atom_site_symmetry_multiplicity
 _atom_site_fract_x
 _atom_site_fract_y
 _atom_site_fract_z
 _atom_site_occupancy
  Y  Y0  1  0.75000000  0.50000000  0.08861000  1.0
  Y  Y1  1  0.75146000  0.83310000  0.96777000  1.0
  Y  Y2  1  0.25000000  0.50000000  0.08861000  1.0
  Y  Y3  1  0.24854000  0.83310000  0.96777000  1.0
  Sc  Sc4  1  0.00000000  0.16979000  0.02954000  1.0
  Sc  Sc5  1  0.00000000  0.49414000  0.92153000  1.0
  Sc  Sc6  1  0.50000000  0.16979000  0.02954000  1.0
  Sc  Sc7  1  0.50000000  0.50051000  0.92246000  1.0
  Ga  Ga8  1  0.75000000  0.00000000  0.08861000  1.0
  Ga  Ga9  1  0.74905000  0.33056000  0.96591000  1.0
  Ga  Ga10  1  0.25000000  0.00000000  0.08861000  1.0
  Ga  Ga11  1  0.25095000  0.33056000  0.96591000  1.0
  Pd  Pd12  1  0.00000000  0.66979000  0.02954000  1.0
  Pd  Pd13  1  0.00000000  0.02688000  0.92689000  1.0
  Pd  Pd14  1  0.50000000  0.66979000  0.02954000  1.0
  Pd  Pd15  1  0.50000000  0.02649000  0.92777000  1.0
  C  C16  1  0.00000000  0.50983000  0.82567000  1.0
  O  O17  1  0.00000000  0.51350000  0.77844000  1.0
