# generated using pymatgen
data_Li4Al4Cu4Pd4C
_symmetry_space_group_name_H-M   P2
_cell_length_a   6.00833000
_cell_length_b   24.50620000
_cell_length_c   6.00833000
_cell_angle_alpha   90.00000000
_cell_angle_beta   90.00000000
_cell_angle_gamma   90.00000000
_symmetry_Int_Tables_number   3
_chemical_formula_structural   Li4Al4Cu4Pd4C
_chemical_formula_sum   'Li4 Al4 Cu4 Pd4 C1'
_cell_volume   884.67454021
_cell_formula_units_Z   1
loop_
 _symmetry_equiv_pos_site_id
 _symmetry_equiv_pos_as_xyz
  1  'x, y, z'
  2  '-x, y, -z'
loop_
 _atom_site_type_symbol
 _atom_site_label
 _atom_site_symmetry_multiplicity
 _atom_site_fract_x
 _atom_site_fract_y
 _atom_site_fract_z
 _atom_site_occupancy
  Li  Li0  1  0.00000000  0.03596000  0.00000000  1.0
  Li  Li1  1  0.00000000  0.90806000  0.50000000  1.0
  Li  Li2  1  0.50000000  0.03661000  0.50000000  1.0
  Li  Li3  1  0.50000000  0.90806000  0.00000000  1.0
  Al  Al4  1  0.00000000  0.03577000  0.50000000  1.0
  Al  Al5  1  0.00000000  0.90806000  0.00000000  1.0
  Al  Al6  1  0.50000000  0.02704000  0.00000000  1.0
  Al  Al7  1  0.50000000  0.90806000  0.50000000  1.0
  Cu  Cu8  2  0.25000000  0.96935000  0.25000000  1.0
  Cu  Cu9  2  0.26688000  0.09838000  0.76739000  1.0
  Pd  Pd10  2  0.25000000  0.96935000  0.75000000  1.0
  Pd  Pd11  2  0.25080000  0.09704000  0.24861000  1.0
  C  C12  1  0.50000000  0.11178000  0.00000000  1.0
