# generated using pymatgen
data_Sc8Ga8Cu16C
_symmetry_space_group_name_H-M   Pm
_cell_length_a   6.23499000
_cell_length_b   8.81761000
_cell_length_c   26.61320000
_cell_angle_alpha   90.00000000
_cell_angle_beta   90.00000000
_cell_angle_gamma   90.00000000
_symmetry_Int_Tables_number   6
_chemical_formula_structural   Sc8Ga8Cu16C
_chemical_formula_sum   'Sc8 Ga8 Cu16 C1'
_cell_volume   1463.13279640
_cell_formula_units_Z   1
loop_
 _symmetry_equiv_pos_site_id
 _symmetry_equiv_pos_as_xyz
  1  'x, y, z'
  2  'x, -y, z'
loop_
 _atom_site_type_symbol
 _atom_site_label
 _atom_site_symmetry_multiplicity
 _atom_site_fract_x
 _atom_site_fract_y
 _atom_site_fract_z
 _atom_site_occupancy
  Sc  Sc0  2  0.00000000  0.24999000  0.87575000  1.0
  Sc  Sc1  2  0.00111000  0.25907000  0.04483000  1.0
  Sc  Sc2  1  0.42850000  0.50000000  0.12779000  1.0
  Sc  Sc3  1  0.46324000  0.00000000  0.11742000  1.0
  Sc  Sc4  1  0.50000000  0.00000000  0.95858000  1.0
  Sc  Sc5  1  0.50000000  0.50000000  0.95858000  1.0
  Ga  Ga6  2  0.49770000  0.24643000  0.03912000  1.0
  Ga  Ga7  2  0.50000000  0.24999000  0.87575000  1.0
  Ga  Ga8  1  0.00000000  0.00000000  0.95858000  1.0
  Ga  Ga9  1  0.00000000  0.50000000  0.95858000  1.0
  Ga  Ga10  1  0.86109000  0.00000000  0.15074000  1.0
  Ga  Ga11  1  0.98397000  0.50000000  0.12404000  1.0
  Cu  Cu12  2  0.15204000  0.22694000  0.14261000  1.0
  Cu  Cu13  2  0.25000000  0.24999000  0.95858000  1.0
  Cu  Cu14  2  0.72100000  0.25974000  0.12247000  1.0
  Cu  Cu15  2  0.75000000  0.25001000  0.95858000  1.0
  Cu  Cu16  1  0.22680000  0.00000000  0.03586000  1.0
  Cu  Cu17  1  0.25000000  0.00000000  0.87575000  1.0
  Cu  Cu18  1  0.25000000  0.50000000  0.87575000  1.0
  Cu  Cu19  1  0.25462000  0.50000000  0.03744000  1.0
  Cu  Cu20  1  0.70738000  0.50000000  0.05083000  1.0
  Cu  Cu21  1  0.75000000  0.00000000  0.87575000  1.0
  Cu  Cu22  1  0.75000000  0.50000000  0.87575000  1.0
  Cu  Cu23  1  0.76662000  0.00000000  0.04216000  1.0
  C  C24  1  0.16726000  0.00000000  0.15187000  1.0
