# generated using pymatgen
data_Y4In4Sn4Pd4C
_symmetry_space_group_name_H-M   'P 1'
_cell_length_a   9.16402000
_cell_length_b   6.29351000
_cell_length_c   24.71690000
_cell_angle_alpha   90.00000000
_cell_angle_beta   90.00000000
_cell_angle_gamma   90.00000000
_symmetry_Int_Tables_number   1
_chemical_formula_structural   Y4In4Sn4Pd4C
_chemical_formula_sum   'Y4 In4 Sn4 Pd4 C1'
_cell_volume   1425.51882039
_cell_formula_units_Z   1
loop_
 _symmetry_equiv_pos_site_id
 _symmetry_equiv_pos_as_xyz
  1  'x, y, z'
loop_
 _atom_site_type_symbol
 _atom_site_label
 _atom_site_symmetry_multiplicity
 _atom_site_fract_x
 _atom_site_fract_y
 _atom_site_fract_z
 _atom_site_occupancy
  Y  Y0  1  0.25000000  0.74073000  0.03181000  1.0
  Y  Y1  1  0.20078000  0.21730000  0.90423000  1.0
  Y  Y2  1  0.75000000  0.74073000  0.03181000  1.0
  Y  Y3  1  0.79922000  0.21730000  0.90423000  1.0
  In  In4  1  0.00000000  0.00000000  0.09542000  1.0
  In  In5  1  0.00000000  0.48604000  0.98131000  1.0
  In  In6  1  0.50000000  0.00000000  0.09542000  1.0
  In  In7  1  0.50000000  0.51829000  0.94425000  1.0
  Sn  Sn8  1  0.25000000  0.24073000  0.03181000  1.0
  Sn  Sn9  1  0.17858000  0.71670000  0.88791000  1.0
  Sn  Sn10  1  0.75000000  0.24073000  0.03181000  1.0
  Sn  Sn11  1  0.82142000  0.71670000  0.88791000  1.0
  Pd  Pd12  1  0.00000000  0.50000000  0.09542000  1.0
  Pd  Pd13  1  0.00000000  0.94496000  0.96885000  1.0
  Pd  Pd14  1  0.50000000  0.50000000  0.09542000  1.0
  Pd  Pd15  1  0.50000000  0.98262000  0.97669000  1.0
  C  C16  1  0.00000000  0.44022000  0.88515000  1.0
