data_image0
_chemical_formula_structural       K12Sb4C
_chemical_formula_sum              "K12 Sb4 C1"
_cell_length_a       8.65338
_cell_length_b       8.65338
_cell_length_c       26.49
_cell_angle_alpha    90
_cell_angle_beta     90
_cell_angle_gamma    90

_space_group_name_H-M_alt    "P 1"
_space_group_IT_number       1

loop_
  _space_group_symop_operation_xyz
  'x, y, z'

loop_
  _atom_site_type_symbol
  _atom_site_label
  _atom_site_symmetry_multiplicity
  _atom_site_fract_x
  _atom_site_fract_y
  _atom_site_fract_z
  _atom_site_occupancy
  K   K1        1.0  0.24996  0.24990  0.03077  1.0000
  K   K2        1.0  0.75000  0.75000  0.87750  1.0000
  K   K3        1.0  0.74989  0.25007  0.05819  1.0000
  K   K4        1.0  0.25000  0.75000  0.87750  1.0000
  K   K5        1.0  0.75029  0.75026  0.05518  1.0000
  K   K6        1.0  0.25000  0.25000  0.87750  1.0000
  K   K7        1.0  0.25033  0.74993  0.05814  1.0000
  K   K8        1.0  0.75000  0.25000  0.87750  1.0000
  K   K9        1.0  0.00000  0.00000  0.95917  1.0000
  K   K10       1.0  0.47953  0.02051  0.18157  1.0000
  K   K11       1.0  0.02025  0.47945  0.18155  1.0000
  K   K12       1.0  0.50000  0.50000  0.95917  1.0000
  Sb  Sb1       1.0  0.08311  0.08309  0.13980  1.0000
  Sb  Sb2       1.0  0.41669  0.41684  0.13982  1.0000
  Sb  Sb3       1.0  0.50000  0.00000  0.95917  1.0000
  Sb  Sb4       1.0  0.00000  0.50000  0.95917  1.0000
  C   C1        1.0  0.24987  0.25000  0.13941  1.0000
