# generated using pymatgen
data_K12Sb4C
_symmetry_space_group_name_H-M   'P 1'
_cell_length_a   8.65338000
_cell_length_b   8.65338000
_cell_length_c   26.49000000
_cell_angle_alpha   90.00000000
_cell_angle_beta   90.00000000
_cell_angle_gamma   90.00000000
_symmetry_Int_Tables_number   1
_chemical_formula_structural   K12Sb4C
_chemical_formula_sum   'K12 Sb4 C1'
_cell_volume   1983.59730389
_cell_formula_units_Z   1
loop_
 _symmetry_equiv_pos_site_id
 _symmetry_equiv_pos_as_xyz
  1  'x, y, z'
loop_
 _atom_site_type_symbol
 _atom_site_label
 _atom_site_symmetry_multiplicity
 _atom_site_fract_x
 _atom_site_fract_y
 _atom_site_fract_z
 _atom_site_occupancy
  K  K0  1  0.24996000  0.24990000  0.03077000  1.0
  K  K1  1  0.75000000  0.75000000  0.87750000  1.0
  K  K2  1  0.74989000  0.25007000  0.05819000  1.0
  K  K3  1  0.25000000  0.75000000  0.87750000  1.0
  K  K4  1  0.75029000  0.75026000  0.05518000  1.0
  K  K5  1  0.25000000  0.25000000  0.87750000  1.0
  K  K6  1  0.25033000  0.74993000  0.05814000  1.0
  K  K7  1  0.75000000  0.25000000  0.87750000  1.0
  K  K8  1  0.00000000  0.00000000  0.95917000  1.0
  K  K9  1  0.47953000  0.02051000  0.18157000  1.0
  K  K10  1  0.02025000  0.47945000  0.18155000  1.0
  K  K11  1  0.50000000  0.50000000  0.95917000  1.0
  Sb  Sb12  1  0.08311000  0.08309000  0.13980000  1.0
  Sb  Sb13  1  0.41669000  0.41684000  0.13982000  1.0
  Sb  Sb14  1  0.50000000  0.00000000  0.95917000  1.0
  Sb  Sb15  1  0.00000000  0.50000000  0.95917000  1.0
  C  C16  1  0.24987000  0.25000000  0.13941000  1.0
