# generated using pymatgen
data_Li8In16Pt8C
_symmetry_space_group_name_H-M   'P 1'
_cell_length_a   6.69031000
_cell_length_b   9.46152000
_cell_length_c   27.09610000
_cell_angle_alpha   90.00000000
_cell_angle_beta   90.00000000
_cell_angle_gamma   90.00000000
_symmetry_Int_Tables_number   1
_chemical_formula_structural   Li8In16Pt8C
_chemical_formula_sum   'Li8 In16 Pt8 C1'
_cell_volume   1715.19672875
_cell_formula_units_Z   1
loop_
 _symmetry_equiv_pos_site_id
 _symmetry_equiv_pos_as_xyz
  1  'x, y, z'
loop_
 _atom_site_type_symbol
 _atom_site_label
 _atom_site_symmetry_multiplicity
 _atom_site_fract_x
 _atom_site_fract_y
 _atom_site_fract_z
 _atom_site_occupancy
  Li  Li0  1  0.00000000  0.00000000  0.86906000  1.0
  Li  Li1  1  0.50000000  0.25000000  0.95635000  1.0
  Li  Li2  1  0.50000000  0.75000000  0.95635000  1.0
  Li  Li3  1  0.00000000  0.50000000  0.86906000  1.0
  Li  Li4  1  0.00000000  0.50000000  0.05096000  1.0
  Li  Li5  1  0.50000000  0.77542000  0.17593000  1.0
  Li  Li6  1  0.50000000  0.22458000  0.17593000  1.0
  Li  Li7  1  0.00000000  0.00000000  0.04436000  1.0
  In  In8  1  0.25000000  0.00000000  0.95635000  1.0
  In  In9  1  0.75000000  0.50000000  0.95635000  1.0
  In  In10  1  0.75000000  0.00000000  0.95635000  1.0
  In  In11  1  0.25000000  0.50000000  0.95635000  1.0
  In  In12  1  0.75000000  0.75000000  0.86906000  1.0
  In  In13  1  0.25000000  0.25000000  0.86906000  1.0
  In  In14  1  0.25000000  0.75000000  0.86906000  1.0
  In  In15  1  0.75000000  0.25000000  0.86906000  1.0
  In  In16  1  0.25440000  0.50000000  0.14278000  1.0
  In  In17  1  0.77061000  0.00000000  0.13418000  1.0
  In  In18  1  0.74560000  0.50000000  0.14278000  1.0
  In  In19  1  0.22939000  0.00000000  0.13418000  1.0
  In  In20  1  0.73717000  0.25381000  0.04603000  1.0
  In  In21  1  0.26283000  0.74619000  0.04603000  1.0
  In  In22  1  0.26283000  0.25381000  0.04603000  1.0
  In  In23  1  0.73717000  0.74619000  0.04603000  1.0
  Pt  Pt24  1  0.00000000  0.75000000  0.95635000  1.0
  Pt  Pt25  1  0.50000000  0.00000000  0.86906000  1.0
  Pt  Pt26  1  0.00000000  0.25000000  0.95635000  1.0
  Pt  Pt27  1  0.50000000  0.50000000  0.86906000  1.0
  Pt  Pt28  1  0.00000000  0.25892000  0.12246000  1.0
  Pt  Pt29  1  0.50000000  0.50000000  0.03862000  1.0
  Pt  Pt30  1  0.00000000  0.74108000  0.12246000  1.0
  Pt  Pt31  1  0.50000000  0.00000000  0.04135000  1.0
  C  C32  1  0.50000000  0.00000000  0.17585000  1.0
