data_image0
_chemical_formula_structural       Hf16Co16CO
_chemical_formula_sum              "Hf16 Co16 C1 O1"
_cell_length_a       6.31043
_cell_length_b       8.9243
_cell_length_c       26.6932
_cell_angle_alpha    90
_cell_angle_beta     90
_cell_angle_gamma    90

_space_group_name_H-M_alt    "P 1"
_space_group_IT_number       1

loop_
  _space_group_symop_operation_xyz
  'x, y, z'

loop_
  _atom_site_type_symbol
  _atom_site_label
  _atom_site_symmetry_multiplicity
  _atom_site_fract_x
  _atom_site_fract_y
  _atom_site_fract_z
  _atom_site_occupancy
  Hf  Hf1       1.0  0.00000  0.00000  0.87463  1.0000
  Hf  Hf2       1.0  0.00000  0.25000  0.95821  1.0000
  Hf  Hf3       1.0  0.99889  0.00000  0.04210  1.0000
  Hf  Hf4       1.0  0.99906  0.25046  0.12573  1.0000
  Hf  Hf5       1.0  0.00000  0.50000  0.87463  1.0000
  Hf  Hf6       1.0  0.00000  0.75000  0.95821  1.0000
  Hf  Hf7       1.0  0.99978  0.50000  0.04245  1.0000
  Hf  Hf8       1.0  0.99906  0.74954  0.12573  1.0000
  Hf  Hf9       1.0  0.50000  0.00000  0.87463  1.0000
  Hf  Hf10      1.0  0.50000  0.25000  0.95821  1.0000
  Hf  Hf11      1.0  0.50111  0.00000  0.04210  1.0000
  Hf  Hf12      1.0  0.50095  0.25046  0.12573  1.0000
  Hf  Hf13      1.0  0.50000  0.50000  0.87463  1.0000
  Hf  Hf14      1.0  0.50000  0.75000  0.95821  1.0000
  Hf  Hf15      1.0  0.50023  0.50000  0.04246  1.0000
  Hf  Hf16      1.0  0.50094  0.74954  0.12573  1.0000
  Co  Co1       1.0  0.25000  0.25000  0.87463  1.0000
  Co  Co2       1.0  0.25000  0.00000  0.95821  1.0000
  Co  Co3       1.0  0.25000  0.24954  0.04209  1.0000
  Co  Co4       1.0  0.25000  0.00000  0.12651  1.0000
  Co  Co5       1.0  0.25000  0.75000  0.87463  1.0000
  Co  Co6       1.0  0.25000  0.50000  0.95821  1.0000
  Co  Co7       1.0  0.25001  0.75046  0.04209  1.0000
  Co  Co8       1.0  0.25001  0.50000  0.12433  1.0000
  Co  Co9       1.0  0.75000  0.25000  0.87463  1.0000
  Co  Co10      1.0  0.75000  0.00000  0.95821  1.0000
  Co  Co11      1.0  0.75000  0.25000  0.04202  1.0000
  Co  Co12      1.0  0.75000  0.00000  0.12411  1.0000
  Co  Co13      1.0  0.75000  0.75000  0.87463  1.0000
  Co  Co14      1.0  0.75000  0.50000  0.95821  1.0000
  Co  Co15      1.0  0.75000  0.75000  0.04202  1.0000
  Co  Co16      1.0  0.75000  0.50000  0.12424  1.0000
  C   C1        1.0  0.24991  0.00000  0.19410  1.0000
  O   O1        1.0  0.25000  0.00000  0.24067  1.0000
