# generated using pymatgen
data_Hf16Co16CO
_symmetry_space_group_name_H-M   'P 1'
_cell_length_a   8.92430000
_cell_length_b   6.31043000
_cell_length_c   26.69320000
_cell_angle_alpha   90.00000000
_cell_angle_beta   90.00000000
_cell_angle_gamma   90.00000000
_symmetry_Int_Tables_number   1
_chemical_formula_structural   Hf16Co16CO
_chemical_formula_sum   'Hf16 Co16 C1 O1'
_cell_volume   1503.25880103
_cell_formula_units_Z   1
loop_
 _symmetry_equiv_pos_site_id
 _symmetry_equiv_pos_as_xyz
  1  'x, y, z'
loop_
 _atom_site_type_symbol
 _atom_site_label
 _atom_site_symmetry_multiplicity
 _atom_site_fract_x
 _atom_site_fract_y
 _atom_site_fract_z
 _atom_site_occupancy
  Hf  Hf0  1  0.00000000  0.00000000  0.12537000  1.0
  Hf  Hf1  1  0.25000000  0.00000000  0.04179000  1.0
  Hf  Hf2  1  0.00000000  0.99810000  0.95766000  1.0
  Hf  Hf3  1  0.25075000  0.99848000  0.87390000  1.0
  Hf  Hf4  1  0.50000000  0.00000000  0.12537000  1.0
  Hf  Hf5  1  0.75000000  0.00000000  0.04179000  1.0
  Hf  Hf6  1  0.50000000  0.99967000  0.95705000  1.0
  Hf  Hf7  1  0.74925000  0.99848000  0.87390000  1.0
  Hf  Hf8  1  0.00000000  0.50000000  0.12537000  1.0
  Hf  Hf9  1  0.25000000  0.50000000  0.04179000  1.0
  Hf  Hf10  1  0.00000000  0.50191000  0.95766000  1.0
  Hf  Hf11  1  0.25075000  0.50154000  0.87390000  1.0
  Hf  Hf12  1  0.50000000  0.50000000  0.12537000  1.0
  Hf  Hf13  1  0.75000000  0.50000000  0.04179000  1.0
  Hf  Hf14  1  0.50000000  0.50035000  0.95704000  1.0
  Hf  Hf15  1  0.74925000  0.50154000  0.87390000  1.0
  Co  Co16  1  0.25000000  0.25000000  0.12537000  1.0
  Co  Co17  1  0.00000000  0.25000000  0.04179000  1.0
  Co  Co18  1  0.24904000  0.25001000  0.95760000  1.0
  Co  Co19  1  0.00000000  0.25000000  0.87291000  1.0
  Co  Co20  1  0.75000000  0.25000000  0.12537000  1.0
  Co  Co21  1  0.50000000  0.25000000  0.04179000  1.0
  Co  Co22  1  0.75096000  0.25001000  0.95760000  1.0
  Co  Co23  1  0.50000000  0.25001000  0.87663000  1.0
  Co  Co24  1  0.25000000  0.75000000  0.12537000  1.0
  Co  Co25  1  0.00000000  0.75000000  0.04179000  1.0
  Co  Co26  1  0.25002000  0.75000000  0.95775000  1.0
  Co  Co27  1  0.00000000  0.75000000  0.87704000  1.0
  Co  Co28  1  0.75000000  0.75000000  0.12537000  1.0
  Co  Co29  1  0.50000000  0.75000000  0.04179000  1.0
  Co  Co30  1  0.74998000  0.75000000  0.95775000  1.0
  Co  Co31  1  0.50000000  0.75000000  0.87678000  1.0
  C  C32  1  0.00000000  0.24982000  0.80283000  1.0
  O  O33  1  0.00000000  0.24999000  0.76338000  1.0
