# generated using pymatgen
data_Hf16Co16CO
_symmetry_space_group_name_H-M   Pm
_cell_length_a   6.31043000
_cell_length_b   8.92430000
_cell_length_c   26.69320000
_cell_angle_alpha   90.00000000
_cell_angle_beta   90.00000000
_cell_angle_gamma   90.00000000
_symmetry_Int_Tables_number   6
_chemical_formula_structural   Hf16Co16CO
_chemical_formula_sum   'Hf16 Co16 C1 O1'
_cell_volume   1503.25880103
_cell_formula_units_Z   1
loop_
 _symmetry_equiv_pos_site_id
 _symmetry_equiv_pos_as_xyz
  1  'x, y, z'
  2  'x, -y, z'
loop_
 _atom_site_type_symbol
 _atom_site_label
 _atom_site_symmetry_multiplicity
 _atom_site_fract_x
 _atom_site_fract_y
 _atom_site_fract_z
 _atom_site_occupancy
  Hf  Hf0  2  0.00000000  0.25000000  0.95821000  1.0
  Hf  Hf1  2  0.50000000  0.25000000  0.95821000  1.0
  Hf  Hf2  2  0.50154000  0.25075000  0.12610000  1.0
  Hf  Hf3  2  0.99848000  0.25075000  0.12610000  1.0
  Hf  Hf4  1  0.00000000  0.00000000  0.87463000  1.0
  Hf  Hf5  1  0.00000000  0.50000000  0.87463000  1.0
  Hf  Hf6  1  0.50000000  0.00000000  0.87463000  1.0
  Hf  Hf7  1  0.50000000  0.50000000  0.87463000  1.0
  Hf  Hf8  1  0.50035000  0.50000000  0.04296000  1.0
  Hf  Hf9  1  0.50191000  0.00000000  0.04234000  1.0
  Hf  Hf10  1  0.99810000  0.00000000  0.04234000  1.0
  Hf  Hf11  1  0.99967000  0.50000000  0.04295000  1.0
  Co  Co12  2  0.25000000  0.25000000  0.87463000  1.0
  Co  Co13  2  0.25001000  0.24904000  0.04240000  1.0
  Co  Co14  2  0.75000000  0.25000000  0.87463000  1.0
  Co  Co15  2  0.75000000  0.25002000  0.04225000  1.0
  Co  Co16  1  0.25000000  0.00000000  0.12709000  1.0
  Co  Co17  1  0.25000000  0.00000000  0.95821000  1.0
  Co  Co18  1  0.25000000  0.50000000  0.95821000  1.0
  Co  Co19  1  0.25001000  0.50000000  0.12337000  1.0
  Co  Co20  1  0.75000000  0.00000000  0.12296000  1.0
  Co  Co21  1  0.75000000  0.00000000  0.95821000  1.0
  Co  Co22  1  0.75000000  0.50000000  0.12322000  1.0
  Co  Co23  1  0.75000000  0.50000000  0.95821000  1.0
  C  C24  1  0.24982000  0.00000000  0.19717000  1.0
  O  O25  1  0.24999000  0.00000000  0.23662000  1.0
