data_image0
_chemical_formula_structural       ZnMnZnMnZnMnZnMnZnMnZnMnZnMnZnMnC
_chemical_formula_sum              "Zn8 Mn8 C1"
_cell_length_a       6.05499
_cell_length_b       6.05499
_cell_length_c       24.5412
_cell_angle_alpha    90
_cell_angle_beta     90
_cell_angle_gamma    90

_space_group_name_H-M_alt    "P 1"
_space_group_IT_number       1

loop_
  _space_group_symop_operation_xyz
  'x, y, z'

loop_
  _atom_site_type_symbol
  _atom_site_label
  _atom_site_symmetry_multiplicity
  _atom_site_fract_x
  _atom_site_fract_y
  _atom_site_fract_z
  _atom_site_occupancy
  Zn  Zn1       1.0  0.00000  0.00000  0.90480  1.0000
  Mn  Mn1       1.0  0.25000  0.25000  0.96648  1.0000
  Zn  Zn2       1.0  0.00000  0.00000  0.02816  1.0000
  Mn  Mn2       1.0  0.25000  0.25000  0.08985  1.0000
  Zn  Zn3       1.0  0.00000  0.50000  0.90480  1.0000
  Mn  Mn3       1.0  0.25000  0.75000  0.96648  1.0000
  Zn  Zn4       1.0  0.00000  0.50000  0.02816  1.0000
  Mn  Mn4       1.0  0.25000  0.75000  0.08985  1.0000
  Zn  Zn5       1.0  0.50000  0.00000  0.90480  1.0000
  Mn  Mn5       1.0  0.75000  0.25000  0.96648  1.0000
  Zn  Zn6       1.0  0.50000  0.00000  0.02816  1.0000
  Mn  Mn6       1.0  0.75000  0.25000  0.08985  1.0000
  Zn  Zn7       1.0  0.50000  0.50000  0.90480  1.0000
  Mn  Mn7       1.0  0.75000  0.75000  0.96648  1.0000
  Zn  Zn8       1.0  0.50000  0.50000  0.02816  1.0000
  Mn  Mn8       1.0  0.75000  0.75000  0.08985  1.0000
  C   C1        1.0  0.00000  0.00000  0.12244  1.0000
