# generated using pymatgen
data_Mn8Zn8C
_symmetry_space_group_name_H-M   P4mm
_cell_length_a   6.05499000
_cell_length_b   6.05499000
_cell_length_c   24.54120000
_cell_angle_alpha   90.00000000
_cell_angle_beta   90.00000000
_cell_angle_gamma   90.00000000
_symmetry_Int_Tables_number   99
_chemical_formula_structural   Mn8Zn8C
_chemical_formula_sum   'Mn8 Zn8 C1'
_cell_volume   899.75165719
_cell_formula_units_Z   1
loop_
 _symmetry_equiv_pos_site_id
 _symmetry_equiv_pos_as_xyz
  1  'x, y, z'
  2  '-y, x, z'
  3  '-x, -y, z'
  4  'y, -x, z'
  5  '-x, y, z'
  6  'y, x, z'
  7  'x, -y, z'
  8  '-y, -x, z'
loop_
 _atom_site_type_symbol
 _atom_site_label
 _atom_site_symmetry_multiplicity
 _atom_site_fract_x
 _atom_site_fract_y
 _atom_site_fract_z
 _atom_site_occupancy
  Mn  Mn0  4  0.25000000  0.25000000  0.08985000  1.0
  Mn  Mn1  4  0.25000000  0.25000000  0.96648000  1.0
  Zn  Zn2  2  0.00000000  0.50000000  0.02816000  1.0
  Zn  Zn3  2  0.00000000  0.50000000  0.90480000  1.0
  Zn  Zn4  1  0.00000000  0.00000000  0.02816000  1.0
  Zn  Zn5  1  0.00000000  0.00000000  0.90480000  1.0
  Zn  Zn6  1  0.50000000  0.50000000  0.02816000  1.0
  Zn  Zn7  1  0.50000000  0.50000000  0.90480000  1.0
  C  C8  1  0.00000000  0.00000000  0.12244000  1.0
