# generated using pymatgen
data_Li8Ag4Sn4CO
_symmetry_space_group_name_H-M   'P 1'
_cell_length_a   6.65960000
_cell_length_b   6.65960000
_cell_length_c   24.99470000
_cell_angle_alpha   90.00000000
_cell_angle_beta   90.00000000
_cell_angle_gamma   90.00000000
_symmetry_Int_Tables_number   1
_chemical_formula_structural   Li8Ag4Sn4CO
_chemical_formula_sum   'Li8 Ag4 Sn4 C1 O1'
_cell_volume   1108.52174756
_cell_formula_units_Z   1
loop_
 _symmetry_equiv_pos_site_id
 _symmetry_equiv_pos_as_xyz
  1  'x, y, z'
loop_
 _atom_site_type_symbol
 _atom_site_label
 _atom_site_symmetry_multiplicity
 _atom_site_fract_x
 _atom_site_fract_y
 _atom_site_fract_z
 _atom_site_occupancy
  Li  Li0  1  0.00627500  0.99372500  0.96919000  1
  Li  Li1  1  0.00000000  0.50000000  0.09992000  1
  Li  Li2  1  0.50000000  1.00000000  0.09992000  1
  Li  Li3  1  0.49423000  0.50577000  0.96960000  1
  Li  Li4  1  0.25000000  0.75000000  0.03331000  1
  Li  Li5  1  0.74902000  0.74946000  0.89321000  1
  Li  Li6  1  0.75000000  0.25000000  0.03331000  1
  Li  Li7  1  0.25054000  0.25098000  0.89321000  1
  Ag  Ag8  1  0.25037000  0.74963000  0.89616000  1
  Ag  Ag9  1  0.75000000  0.75000000  0.03331000  1
  Ag  Ag10  1  0.74929500  0.25070500  0.90665000  1
  Ag  Ag11  1  0.25000000  0.25000000  0.03331000  1
  Sn  Sn12  1  0.00000000  0.00000000  0.09992000  1
  Sn  Sn13  1  0.50000000  0.50000000  0.09992000  1
  Sn  Sn14  1  0.00921000  0.50893000  0.96352000  1
  Sn  Sn15  1  0.49107000  0.99079000  0.96352000  1
  C  C16  1  0.25143000  0.74857000  0.81025000  1
  O  O17  1  0.25031500  0.74968500  0.76423000  1
