# generated using pymatgen
data_Y8Mg8In8Pd8CO
_symmetry_space_group_name_H-M   'P 1'
_cell_length_a   9.89420000
_cell_length_b   6.99626000
_cell_length_c   27.42070000
_cell_angle_alpha   90.00000000
_cell_angle_beta   90.00000000
_cell_angle_gamma   90.00000000
_symmetry_Int_Tables_number   1
_chemical_formula_structural   Y8Mg8In8Pd8CO
_chemical_formula_sum   'Y8 Mg8 In8 Pd8 C1 O1'
_cell_volume   1898.12654555
_cell_formula_units_Z   1
loop_
 _symmetry_equiv_pos_site_id
 _symmetry_equiv_pos_as_xyz
  1  'x, y, z'
loop_
 _atom_site_type_symbol
 _atom_site_label
 _atom_site_symmetry_multiplicity
 _atom_site_fract_x
 _atom_site_fract_y
 _atom_site_fract_z
 _atom_site_occupancy
  Y  Y0  1  0.74999000  0.75000000  0.04510000  1.0
  Y  Y1  1  0.25001000  0.75000000  0.04510000  1.0
  Y  Y2  1  0.00000000  0.25000000  0.13531000  1.0
  Y  Y3  1  0.50000000  0.25000000  0.13531000  1.0
  Y  Y4  1  0.22880000  0.73161000  0.85698000  1.0
  Y  Y5  1  0.77120000  0.73161000  0.85698000  1.0
  Y  Y6  1  0.50000000  0.24741000  0.95331000  1.0
  Y  Y7  1  0.00000000  0.25707000  0.95283000  1.0
  Mg  Mg8  1  0.74999000  0.25000000  0.04510000  1.0
  Mg  Mg9  1  0.25001000  0.25000000  0.04510000  1.0
  Mg  Mg10  1  0.00000000  0.75000000  0.13531000  1.0
  Mg  Mg11  1  0.50000000  0.75000000  0.13531000  1.0
  Mg  Mg12  1  0.26399000  0.23962000  0.86519000  1.0
  Mg  Mg13  1  0.73601000  0.23962000  0.86519000  1.0
  Mg  Mg14  1  0.50000000  0.73507000  0.95259000  1.0
  Mg  Mg15  1  0.00000000  0.73558000  0.95070000  1.0
  In  In16  1  0.74999000  0.00000000  0.13531000  1.0
  In  In17  1  0.25001000  0.00000000  0.13531000  1.0
  In  In18  1  0.50000000  0.50000000  0.04510000  1.0
  In  In19  1  0.00000000  0.50000000  0.04510000  1.0
  In  In20  1  0.24724000  0.98100000  0.94994000  1.0
  In  In21  1  0.75276000  0.98100000  0.94994000  1.0
  In  In22  1  0.00000000  0.41883000  0.84205000  1.0
  In  In23  1  0.50000000  0.50457000  0.85265000  1.0
  Pd  Pd24  1  0.00000000  0.00000000  0.04510000  1.0
  Pd  Pd25  1  0.50000000  0.00000000  0.04510000  1.0
  Pd  Pd26  1  0.24999000  0.50000000  0.13531000  1.0
  Pd  Pd27  1  0.75001000  0.50000000  0.13531000  1.0
  Pd  Pd28  1  0.50000000  0.97412000  0.87461000  1.0
  Pd  Pd29  1  0.00000000  0.00991000  0.86573000  1.0
  Pd  Pd30  1  0.74762000  0.51863000  0.95061000  1.0
  Pd  Pd31  1  0.25238000  0.51863000  0.95061000  1.0
  C  C32  1  0.00000000  0.92567000  0.79681000  1.0
  O  O33  1  0.00000000  0.93145000  0.75423000  1.0
