# generated using pymatgen
data_YInCuSn
_symmetry_space_group_name_H-M   Pmm2
_cell_length_a   4.42370000
_cell_length_b   4.57306000
_cell_length_c   26.62140000
_cell_angle_alpha   90.00000000
_cell_angle_beta   90.00000000
_cell_angle_gamma   90.00000000
_symmetry_Int_Tables_number   25
_chemical_formula_structural   YInCuSn
_chemical_formula_sum   'Y2 In2 Cu2 Sn2'
_cell_volume   538.54680958
_cell_formula_units_Z   2
loop_
 _symmetry_equiv_pos_site_id
 _symmetry_equiv_pos_as_xyz
  1  'x, y, z'
  2  '-x, -y, z'
  3  '-x, y, z'
  4  'x, -y, z'
loop_
 _atom_site_type_symbol
 _atom_site_label
 _atom_site_symmetry_multiplicity
 _atom_site_fract_x
 _atom_site_fract_y
 _atom_site_fract_z
 _atom_site_occupancy
  Y  Y0  1  0.00000000  0.50000000  0.04199000  1.0
  Y  Y1  1  0.00000000  0.50000000  0.87564000  1.0
  In  In2  1  0.50000000  0.00000000  0.04963000  1.0
  In  In3  1  0.50000000  0.00000000  0.87564000  1.0
  Cu  Cu4  1  0.00000000  0.00000000  0.11464000  1.0
  Cu  Cu5  1  0.00000000  0.00000000  0.95855000  1.0
  Sn  Sn6  1  0.50000000  0.50000000  0.13336000  1.0
  Sn  Sn7  1  0.50000000  0.50000000  0.95855000  1.0
