# generated using pymatgen
data_Li8Mg8In8Pd8CO
_symmetry_space_group_name_H-M   'P 1'
_cell_length_a   9.22454000
_cell_length_b   6.52273000
_cell_length_c   26.91840000
_cell_angle_alpha   90.00000000
_cell_angle_beta   90.00000000
_cell_angle_gamma   90.00000000
_symmetry_Int_Tables_number   1
_chemical_formula_structural   Li8Mg8In8Pd8CO
_chemical_formula_sum   'Li8 Mg8 In8 Pd8 C1 O1'
_cell_volume   1619.65815705
_cell_formula_units_Z   1
loop_
 _symmetry_equiv_pos_site_id
 _symmetry_equiv_pos_as_xyz
  1  'x, y, z'
loop_
 _atom_site_type_symbol
 _atom_site_label
 _atom_site_symmetry_multiplicity
 _atom_site_fract_x
 _atom_site_fract_y
 _atom_site_fract_z
 _atom_site_occupancy
  Li  Li0  1  0.75000000  0.25000000  0.04284000  1.0
  Li  Li1  1  0.25000000  0.25000000  0.04284000  1.0
  Li  Li2  1  0.00000000  0.75000000  0.12851000  1.0
  Li  Li3  1  0.50000000  0.75000000  0.12851000  1.0
  Li  Li4  1  0.25044000  0.26230000  0.86561000  1.0
  Li  Li5  1  0.74956000  0.26230000  0.86561000  1.0
  Li  Li6  1  0.50000000  0.74246000  0.95464000  1.0
  Li  Li7  1  0.00000000  0.74534000  0.95626000  1.0
  Mg  Mg8  1  0.00000000  1.00000000  0.04284000  1.0
  Mg  Mg9  1  0.50000000  1.00000000  0.04284000  1.0
  Mg  Mg10  1  0.25000000  0.50000000  0.12851000  1.0
  Mg  Mg11  1  0.75000000  0.50000000  0.12851000  1.0
  Mg  Mg12  1  0.50000000  0.98379000  0.86803000  1.0
  Mg  Mg13  1  0.00000000  0.98100000  0.86937000  1.0
  Mg  Mg14  1  0.74988000  0.49420000  0.95774000  1.0
  Mg  Mg15  1  0.25012000  0.49420000  0.95774000  1.0
  In  In16  1  0.75000000  0.00000000  0.12851000  1.0
  In  In17  1  0.25000000  0.00000000  0.12851000  1.0
  In  In18  1  0.50000000  0.50000000  0.04284000  1.0
  In  In19  1  0.00000000  0.50000000  0.04284000  1.0
  In  In20  1  0.24986000  0.00434000  0.95601000  1.0
  In  In21  1  0.75014000  0.00434000  0.95601000  1.0
  In  In22  1  0.00000000  0.50706000  0.86449000  1.0
  In  In23  1  0.50000000  0.49958000  0.86198000  1.0
  Pd  Pd24  1  0.75000000  0.75000000  0.04284000  1.0
  Pd  Pd25  1  0.25000000  0.75000000  0.04284000  1.0
  Pd  Pd26  1  0.00000000  0.25000000  0.12851000  1.0
  Pd  Pd27  1  0.50000000  0.25000000  0.12851000  1.0
  Pd  Pd28  1  0.25342000  0.73679000  0.87731000  1.0
  Pd  Pd29  1  0.74658000  0.73679000  0.87731000  1.0
  Pd  Pd30  1  0.50000000  0.25185000  0.95578000  1.0
  Pd  Pd31  1  0.00000000  0.25107000  0.95348000  1.0
  C  C32  1  0.00000000  0.01163000  0.78639000  1.0
  O  O33  1  0.00000000  0.01345000  0.74382000  1.0
