data_image0
_chemical_formula_structural       Zn8Ag8CO
_chemical_formula_sum              "Zn8 Ag8 C1 O1"
_cell_length_a       6.41951
_cell_length_b       6.41951
_cell_length_c       24.8146
_cell_angle_alpha    90
_cell_angle_beta     90
_cell_angle_gamma    90

_space_group_name_H-M_alt    "P 1"
_space_group_IT_number       1

loop_
  _space_group_symop_operation_xyz
  'x, y, z'

loop_
  _atom_site_type_symbol
  _atom_site_label
  _atom_site_symmetry_multiplicity
  _atom_site_fract_x
  _atom_site_fract_y
  _atom_site_fract_z
  _atom_site_occupancy
  Zn  Zn1       1.0  0.00000  0.00000  0.91092  1.0000
  Zn  Zn2       1.0  0.00225  0.00223  0.04552  1.0000
  Zn  Zn3       1.0  0.00000  0.50000  0.91092  1.0000
  Zn  Zn4       1.0  0.00225  0.49777  0.04552  1.0000
  Zn  Zn5       1.0  0.50000  0.00000  0.91092  1.0000
  Zn  Zn6       1.0  0.49775  0.00223  0.04552  1.0000
  Zn  Zn7       1.0  0.50000  0.50000  0.91092  1.0000
  Zn  Zn8       1.0  0.49775  0.49777  0.04552  1.0000
  Ag  Ag1       1.0  0.25000  0.25000  0.97559  1.0000
  Ag  Ag2       1.0  0.25000  0.25000  0.11225  1.0000
  Ag  Ag3       1.0  0.25000  0.75000  0.97559  1.0000
  Ag  Ag4       1.0  0.25000  0.75000  0.10683  1.0000
  Ag  Ag5       1.0  0.75000  0.25000  0.97559  1.0000
  Ag  Ag6       1.0  0.75000  0.25000  0.10681  1.0000
  Ag  Ag7       1.0  0.75000  0.75000  0.97559  1.0000
  Ag  Ag8       1.0  0.75000  0.75000  0.10662  1.0000
  C   C1        1.0  0.25000  0.24999  0.20272  1.0000
  O   O1        1.0  0.25001  0.25001  0.24871  1.0000
