data_image0
_chemical_formula_structural       Ni4Sn4Rh8
_chemical_formula_sum              "Ni4 Sn4 Rh8"
_cell_length_a       6.23499
_cell_length_b       6.23499
_cell_length_c       24.6762
_cell_angle_alpha    90
_cell_angle_beta     90
_cell_angle_gamma    90

_space_group_name_H-M_alt    "P 1"
_space_group_IT_number       1

loop_
  _space_group_symop_operation_xyz
  'x, y, z'

loop_
  _atom_site_type_symbol
  _atom_site_label
  _atom_site_symmetry_multiplicity
  _atom_site_fract_x
  _atom_site_fract_y
  _atom_site_fract_z
  _atom_site_occupancy
  Ni  Ni1       1.0  0.99966  0.99995  0.09281  1.0000
  Ni  Ni2       1.0  0.50000  0.50023  0.09334  1.0000
  Ni  Ni3       1.0  0.50000  0.00000  0.96842  1.0000
  Ni  Ni4       1.0  0.00000  0.50000  0.96842  1.0000
  Sn  Sn1       1.0  0.00000  0.00000  0.96842  1.0000
  Sn  Sn2       1.0  0.50014  0.99994  0.09822  1.0000
  Sn  Sn3       1.0  0.00001  0.50003  0.09816  1.0000
  Sn  Sn4       1.0  0.50000  0.50000  0.96842  1.0000
  Rh  Rh1       1.0  0.25021  0.24992  0.03411  1.0000
  Rh  Rh2       1.0  0.75000  0.75000  0.90525  1.0000
  Rh  Rh3       1.0  0.74979  0.25013  0.03407  1.0000
  Rh  Rh4       1.0  0.25000  0.75000  0.90525  1.0000
  Rh  Rh5       1.0  0.74984  0.74988  0.03403  1.0000
  Rh  Rh6       1.0  0.25000  0.25000  0.90525  1.0000
  Rh  Rh7       1.0  0.25015  0.75010  0.03408  1.0000
  Rh  Rh8       1.0  0.75000  0.25000  0.90525  1.0000
