# generated using pymatgen
data_LiYInSn
_symmetry_space_group_name_H-M   Pm
_cell_length_a   6.44949000
_cell_length_b   9.04200000
_cell_length_c   24.82990000
_cell_angle_alpha   90.00000000
_cell_angle_beta   90.00000000
_cell_angle_gamma   90.00000000
_symmetry_Int_Tables_number   6
_chemical_formula_structural   LiYInSn
_chemical_formula_sum   'Li4 Y4 In4 Sn4'
_cell_volume   1447.98761381
_cell_formula_units_Z   4
loop_
 _symmetry_equiv_pos_site_id
 _symmetry_equiv_pos_as_xyz
  1  'x, y, z'
  2  'x, -y, z'
loop_
 _atom_site_type_symbol
 _atom_site_label
 _atom_site_symmetry_multiplicity
 _atom_site_fract_x
 _atom_site_fract_y
 _atom_site_fract_z
 _atom_site_occupancy
  Li  Li0  2  0.27762000  0.25003000  0.02724000  1.0
  Li  Li1  2  0.70907000  0.25000000  0.90274000  1.0
  Y  Y2  1  0.56605000  0.00000000  0.09974000  1.0
  Y  Y3  1  0.56622000  0.50000000  0.09978000  1.0
  Y  Y4  1  0.97271000  0.00000000  0.96758000  1.0
  Y  Y5  1  0.97271000  0.50000000  0.96758000  1.0
  In  In6  1  0.06853000  0.00000000  0.10671000  1.0
  In  In7  1  0.06874000  0.50000000  0.10672000  1.0
  In  In8  1  0.47271000  0.00000000  0.96758000  1.0
  In  In9  1  0.47271000  0.50000000  0.96758000  1.0
  Sn  Sn10  2  0.20907000  0.25000000  0.90274000  1.0
  Sn  Sn11  2  0.79930000  0.25001000  0.04454000  1.0
