# generated using pymatgen
data_Y4Sc4Ga4Pd4CO
_symmetry_space_group_name_H-M   'P 1'
_cell_length_a   9.48206000
_cell_length_b   6.06401000
_cell_length_c   24.30750000
_cell_angle_alpha   90.00000000
_cell_angle_beta   90.00000000
_cell_angle_gamma   90.00000000
_symmetry_Int_Tables_number   1
_chemical_formula_structural   Y4Sc4Ga4Pd4CO
_chemical_formula_sum   'Y4 Sc4 Ga4 Pd4 C1 O1'
_cell_volume   1397.66439665
_cell_formula_units_Z   1
loop_
 _symmetry_equiv_pos_site_id
 _symmetry_equiv_pos_as_xyz
  1  'x, y, z'
loop_
 _atom_site_type_symbol
 _atom_site_label
 _atom_site_symmetry_multiplicity
 _atom_site_fract_x
 _atom_site_fract_y
 _atom_site_fract_z
 _atom_site_occupancy
  Y  Y0  1  0.74999000  0.50000000  0.08861000  1.0
  Y  Y1  1  0.75258000  0.82560000  0.96878000  1.0
  Y  Y2  1  0.25001000  0.50000000  0.08861000  1.0
  Y  Y3  1  0.24742000  0.82560000  0.96878000  1.0
  Sc  Sc4  1  0.00000000  0.16979000  0.02954000  1.0
  Sc  Sc5  1  0.00000000  0.48924000  0.92258000  1.0
  Sc  Sc6  1  0.50000000  0.16979000  0.02954000  1.0
  Sc  Sc7  1  0.50000000  0.49388000  0.92402000  1.0
  Ga  Ga8  1  0.74999000  0.00000000  0.08861000  1.0
  Ga  Ga9  1  0.75162000  0.31733000  0.96344000  1.0
  Ga  Ga10  1  0.25001000  0.00000000  0.08861000  1.0
  Ga  Ga11  1  0.24838000  0.31733000  0.96344000  1.0
  Pd  Pd12  1  0.00000000  0.66979000  0.02954000  1.0
  Pd  Pd13  1  0.00000000  0.02329000  0.91969000  1.0
  Pd  Pd14  1  0.50000000  0.66979000  0.02954000  1.0
  Pd  Pd15  1  0.50000000  0.01803000  0.92881000  1.0
  C  C16  1  0.00000000  0.99557000  0.83930000  1.0
  O  O17  1  0.00000000  0.98839000  0.79167000  1.0
