# generated using pymatgen
data_Li8Al16Rh8C
_symmetry_space_group_name_H-M   'P 1'
_cell_length_a   8.54165000
_cell_length_b   6.03986000
_cell_length_c   26.40620000
_cell_angle_alpha   90.00000000
_cell_angle_beta   90.00000000
_cell_angle_gamma   90.00000000
_symmetry_Int_Tables_number   1
_chemical_formula_structural   Li8Al16Rh8C
_chemical_formula_sum   'Li8 Al16 Rh8 C1'
_cell_volume   1362.30563276
_cell_formula_units_Z   1
loop_
 _symmetry_equiv_pos_site_id
 _symmetry_equiv_pos_as_xyz
  1  'x, y, z'
loop_
 _atom_site_type_symbol
 _atom_site_label
 _atom_site_symmetry_multiplicity
 _atom_site_fract_x
 _atom_site_fract_y
 _atom_site_fract_z
 _atom_site_occupancy
  Li  Li0  1  0.75000000  0.00000000  0.12130000  1.0
  Li  Li1  1  0.00000000  0.50000000  0.04043000  1.0
  Li  Li2  1  0.50000000  0.50000000  0.04043000  1.0
  Li  Li3  1  0.25000000  0.00000000  0.12130000  1.0
  Li  Li4  1  0.24955000  0.00021000  0.96087000  1.0
  Li  Li5  1  0.50000000  0.47737000  0.86071000  1.0
  Li  Li6  1  0.00000000  0.53750000  0.83203000  1.0
  Li  Li7  1  0.75045000  0.00021000  0.96087000  1.0
  Al  Al8  1  0.75000000  0.25000000  0.04043000  1.0
  Al  Al9  1  0.25000000  0.75000000  0.04043000  1.0
  Al  Al10  1  0.75000000  0.75000000  0.04043000  1.0
  Al  Al11  1  0.25000000  0.25000000  0.04043000  1.0
  Al  Al12  1  0.50000000  0.75000000  0.12130000  1.0
  Al  Al13  1  0.00000000  0.25000000  0.12130000  1.0
  Al  Al14  1  0.50000000  0.25000000  0.12130000  1.0
  Al  Al15  1  0.00000000  0.75000000  0.12130000  1.0
  Al  Al16  1  0.23387000  0.25174000  0.87794000  1.0
  Al  Al17  1  0.73697000  0.75573000  0.87936000  1.0
  Al  Al18  1  0.26303000  0.75573000  0.87936000  1.0
  Al  Al19  1  0.76613000  0.25174000  0.87794000  1.0
  Al  Al20  1  0.00000000  0.73960000  0.96224000  1.0
  Al  Al21  1  0.50000000  0.25338000  0.95935000  1.0
  Al  Al22  1  0.00000000  0.26565000  0.95462000  1.0
  Al  Al23  1  0.50000000  0.75028000  0.95803000  1.0
  Rh  Rh24  1  0.50000000  1.00000000  0.04043000  1.0
  Rh  Rh25  1  0.75000000  0.50000000  0.12130000  1.0
  Rh  Rh26  1  0.00000000  1.00000000  0.04043000  1.0
  Rh  Rh27  1  0.25000000  0.50000000  0.12130000  1.0
  Rh  Rh28  1  0.00000000  0.92328000  0.88117000  1.0
  Rh  Rh29  1  0.25574000  0.50008000  0.96217000  1.0
  Rh  Rh30  1  0.50000000  0.01299000  0.88384000  1.0
  Rh  Rh31  1  0.74426000  0.50008000  0.96217000  1.0
  C  C32  1  0.00000000  0.25059000  0.87338000  1.0
