# generated using pymatgen
data_Li8Al16Rh8C
_symmetry_space_group_name_H-M   Pm
_cell_length_a   6.03986000
_cell_length_b   8.54165000
_cell_length_c   26.40620000
_cell_angle_alpha   90.00000000
_cell_angle_beta   90.00000000
_cell_angle_gamma   90.00000000
_symmetry_Int_Tables_number   6
_chemical_formula_structural   Li8Al16Rh8C
_chemical_formula_sum   'Li8 Al16 Rh8 C1'
_cell_volume   1362.30563276
_cell_formula_units_Z   1
loop_
 _symmetry_equiv_pos_site_id
 _symmetry_equiv_pos_as_xyz
  1  'x, y, z'
  2  'x, -y, z'
loop_
 _atom_site_type_symbol
 _atom_site_label
 _atom_site_symmetry_multiplicity
 _atom_site_fract_x
 _atom_site_fract_y
 _atom_site_fract_z
 _atom_site_occupancy
  Li  Li0  2  0.00000000  0.25000000  0.87870000  1.0
  Li  Li1  2  0.00021000  0.24955000  0.03913000  1.0
  Li  Li2  1  0.47737000  0.50000000  0.13929000  1.0
  Li  Li3  1  0.50000000  0.00000000  0.95957000  1.0
  Li  Li4  1  0.50000000  0.50000000  0.95957000  1.0
  Li  Li5  1  0.53750000  0.00000000  0.16797000  1.0
  Al  Al6  2  0.25000000  0.25000000  0.95957000  1.0
  Al  Al7  2  0.25174000  0.23387000  0.12206000  1.0
  Al  Al8  2  0.75000000  0.25000000  0.95957000  1.0
  Al  Al9  2  0.75573000  0.26303000  0.12064000  1.0
  Al  Al10  1  0.25000000  0.00000000  0.87870000  1.0
  Al  Al11  1  0.25000000  0.50000000  0.87870000  1.0
  Al  Al12  1  0.25338000  0.50000000  0.04065000  1.0
  Al  Al13  1  0.26565000  0.00000000  0.04538000  1.0
  Al  Al14  1  0.73960000  0.00000000  0.03776000  1.0
  Al  Al15  1  0.75000000  0.00000000  0.87870000  1.0
  Al  Al16  1  0.75000000  0.50000000  0.87870000  1.0
  Al  Al17  1  0.75028000  0.50000000  0.04197000  1.0
  Rh  Rh18  2  0.50000000  0.25000000  0.87870000  1.0
  Rh  Rh19  2  0.50008000  0.25574000  0.03783000  1.0
  Rh  Rh20  1  -0.00000000  0.50000000  0.95957000  1.0
  Rh  Rh21  1  -0.00000000  0.00000000  0.95957000  1.0
  Rh  Rh22  1  0.01299000  0.50000000  0.11616000  1.0
  Rh  Rh23  1  0.92328000  0.00000000  0.11883000  1.0
  C  C24  1  0.25059000  0.00000000  0.12662000  1.0
