data_image0
_chemical_formula_structural       Hf4In4Ni8CO
_chemical_formula_sum              "Hf4 In4 Ni8 C1 O1"
_cell_length_a       6.30953
_cell_length_b       6.30953
_cell_length_c       24.7321
_cell_angle_alpha    90
_cell_angle_beta     90
_cell_angle_gamma    90

_space_group_name_H-M_alt    "P 1"
_space_group_IT_number       1

loop_
  _space_group_symop_operation_xyz
  'x, y, z'

loop_
  _atom_site_type_symbol
  _atom_site_label
  _atom_site_symmetry_multiplicity
  _atom_site_fract_x
  _atom_site_fract_y
  _atom_site_fract_z
  _atom_site_occupancy
  Hf  Hf1       1.0  0.00000  0.00000  0.90433  1.0000
  Hf  Hf2       1.0  0.50000  0.50000  0.90433  1.0000
  Hf  Hf3       1.0  0.50413  0.99579  0.03415  1.0000
  Hf  Hf4       1.0  0.99582  0.50414  0.03415  1.0000
  In  In1       1.0  0.00153  0.00157  0.03433  1.0000
  In  In2       1.0  0.50000  0.00000  0.90433  1.0000
  In  In3       1.0  0.00000  0.50000  0.90433  1.0000
  In  In4       1.0  0.49821  0.49824  0.03448  1.0000
  Ni  Ni1       1.0  0.25000  0.25000  0.96811  1.0000
  Ni  Ni2       1.0  0.74995  0.74993  0.09150  1.0000
  Ni  Ni3       1.0  0.75000  0.25000  0.96811  1.0000
  Ni  Ni4       1.0  0.24993  0.75011  0.09100  1.0000
  Ni  Ni5       1.0  0.75000  0.75000  0.96811  1.0000
  Ni  Ni6       1.0  0.24963  0.24962  0.09497  1.0000
  Ni  Ni7       1.0  0.25000  0.75000  0.96811  1.0000
  Ni  Ni8       1.0  0.75009  0.24996  0.09100  1.0000
  C   C1        1.0  0.24881  0.24880  0.16720  1.0000
  O   O1        1.0  0.24876  0.24875  0.21384  1.0000
