# generated using pymatgen
data_Hf4In4Ni8CO
_symmetry_space_group_name_H-M   'P 1'
_cell_length_a   6.30953000
_cell_length_b   6.30953000
_cell_length_c   24.73210000
_cell_angle_alpha   90.00000000
_cell_angle_beta   90.00000000
_cell_angle_gamma   90.00000000
_symmetry_Int_Tables_number   1
_chemical_formula_structural   Hf4In4Ni8CO
_chemical_formula_sum   'Hf4 In4 Ni8 C1 O1'
_cell_volume   984.58907630
_cell_formula_units_Z   1
loop_
 _symmetry_equiv_pos_site_id
 _symmetry_equiv_pos_as_xyz
  1  'x, y, z'
loop_
 _atom_site_type_symbol
 _atom_site_label
 _atom_site_symmetry_multiplicity
 _atom_site_fract_x
 _atom_site_fract_y
 _atom_site_fract_z
 _atom_site_occupancy
  Hf  Hf0  1  0.99999500  0.99999500  0.09567000  1
  Hf  Hf1  1  0.49999500  0.49999500  0.09567000  1
  Hf  Hf2  1  0.99579000  0.50412000  0.96585000  1
  Hf  Hf3  1  0.50412000  0.99579000  0.96585000  1
  In  In4  1  0.00154500  0.00154500  0.96567000  1
  In  In5  1  0.00000000  0.49999000  0.09567000  1
  In  In6  1  0.49999000  0.00000000  0.09567000  1
  In  In7  1  0.49822000  0.49822000  0.96552000  1
  Ni  Ni8  1  0.24999500  0.24999500  0.03189000  1
  Ni  Ni9  1  0.74993500  0.74993500  0.90850000  1
  Ni  Ni10  1  0.25000000  0.74999000  0.03189000  1
  Ni  Ni11  1  0.75011000  0.24992000  0.90900000  1
  Ni  Ni12  1  0.74999500  0.74999500  0.03189000  1
  Ni  Ni13  1  0.24962000  0.24962000  0.90503000  1
  Ni  Ni14  1  0.74999000  0.25000000  0.03189000  1
  Ni  Ni15  1  0.24992000  0.75011000  0.90900000  1
  C  C16  1  0.24880000  0.24880000  0.83280000  1
  O  O17  1  0.24875000  0.24875000  0.78616000  1
