# generated using pymatgen
data_Hf4In4Ni8CO
_symmetry_space_group_name_H-M   Cm
_cell_length_a   8.92302290
_cell_length_b   8.92302290
_cell_length_c   24.73210000
_cell_angle_alpha   90.00000000
_cell_angle_beta   90.00000000
_cell_angle_gamma   90.00000000
_symmetry_Int_Tables_number   8
_chemical_formula_structural   Hf4In4Ni8CO
_chemical_formula_sum   'Hf8 In8 Ni16 C2 O2'
_cell_volume   1969.17815259
_cell_formula_units_Z   2
loop_
 _symmetry_equiv_pos_site_id
 _symmetry_equiv_pos_as_xyz
  1  'x, y, z'
  2  'x, -y, z'
  3  'x+1/2, y+1/2, z'
  4  'x+1/2, -y+1/2, z'
loop_
 _atom_site_type_symbol
 _atom_site_label
 _atom_site_symmetry_multiplicity
 _atom_site_fract_x
 _atom_site_fract_y
 _atom_site_fract_z
 _atom_site_occupancy
  Hf  Hf0  4  0.24995500  0.25416500  0.03415000  1.0
  Hf  Hf1  2  0.49999500  0.00000000  0.90433000  1.0
  Hf  Hf2  2  0.49999500  0.50000000  0.90433000  1.0
  In  In3  4  0.24999500  0.24999500  0.90433000  1.0
  In  In4  2  0.00154500  0.00000000  0.03433000  1.0
  In  In5  2  0.49822000  0.00000000  0.03448000  1.0
  Ni  Ni6  4  0.00001500  0.24990500  0.09100000  1.0
  Ni  Ni7  4  0.49999500  0.24999500  0.96811000  1.0
  Ni  Ni8  2  0.24962000  0.00000000  0.09497000  1.0
  Ni  Ni9  2  0.24993500  0.50000000  0.09150000  1.0
  Ni  Ni10  2  0.24999500  0.50000000  0.96811000  1.0
  Ni  Ni11  2  0.24999500  0.00000000  0.96811000  1.0
  C  C12  2  0.24880000  0.00000000  0.16720000  1.0
  O  O13  2  0.24875000  0.00000000  0.21384000  1.0
