# generated using pymatgen
data_VRh3
_symmetry_space_group_name_H-M   'P 1'
_cell_length_a   3.81948500
_cell_length_b   5.40157000
_cell_length_c   24.05120000
_cell_angle_alpha   90.00000000
_cell_angle_beta   90.00000000
_cell_angle_gamma   90.00000000
_symmetry_Int_Tables_number   1
_chemical_formula_structural   VRh3
_chemical_formula_sum   'V2 Rh6'
_cell_volume   496.20549243
_cell_formula_units_Z   2
loop_
 _symmetry_equiv_pos_site_id
 _symmetry_equiv_pos_as_xyz
  1  'x, y, z'
loop_
 _atom_site_type_symbol
 _atom_site_label
 _atom_site_symmetry_multiplicity
 _atom_site_fract_x
 _atom_site_fract_y
 _atom_site_fract_z
 _atom_site_occupancy
  V  V0  1  0.00000000  0.00000000  0.91578000  1.0
  V  V1  1  0.00000000  0.50000000  0.03104500  1.0
  Rh  Rh2  1  0.00000000  0.50000000  0.91578000  1.0
  Rh  Rh3  1  0.50000000  0.75000000  0.97193000  1.0
  Rh  Rh4  1  0.50000000  0.25000000  0.97193000  1.0
  Rh  Rh5  1  0.00000000  0.00000000  0.02251000  1.0
  Rh  Rh6  1  0.50000000  0.25996000  0.08038000  1.0
  Rh  Rh7  1  0.50000000  0.74004000  0.08038000  1.0
