# generated using pymatgen
data_Y4Sc4In4Pd4CO
_symmetry_space_group_name_H-M   P1
_cell_length_a   6.98742000
_cell_length_b   7.36232000
_cell_length_c   25.23460000
_cell_angle_alpha   90.00000000
_cell_angle_beta   90.00000000
_cell_angle_gamma   90.00000000
_symmetry_Int_Tables_number   1
_chemical_formula_structural   Y4Sc4In4Pd4CO
_chemical_formula_sum   'Y4 Sc4 In4 Pd4 C1 O1'
_cell_volume   1298.15922408
_cell_formula_units_Z   1
loop_
 _symmetry_equiv_pos_site_id
 _symmetry_equiv_pos_as_xyz
  1  'x, y, z'
loop_
 _atom_site_type_symbol
 _atom_site_label
 _atom_site_symmetry_multiplicity
 _atom_site_fract_x
 _atom_site_fract_y
 _atom_site_fract_z
 _atom_site_occupancy
  Y  Y0  1  0.26196000  0.25000000  0.03457000  1.0
  Y  Y1  1  0.26196000  0.75000000  0.03457000  1.0
  Y  Y2  1  0.78556000  0.24999000  0.89220000  1.0
  Y  Y3  1  0.81302000  0.75001000  0.89089000  1.0
  Sc  Sc4  1  0.25887000  0.24997000  0.90610000  1.0
  Sc  Sc5  1  0.26625000  0.75002000  0.89815000  1.0
  Sc  Sc6  1  0.76196000  0.25000000  0.03457000  1.0
  Sc  Sc7  1  0.76196000  0.75000000  0.03457000  1.0
  In  In8  1  0.00000000  0.00000000  0.10372000  1.0
  In  In9  1  0.00000000  0.50000000  0.10372000  1.0
  In  In10  1  0.53286000  0.50518000  0.95827000  1.0
  In  In11  1  0.53294000  0.99482000  0.95824000  1.0
  Pd  Pd12  1  0.50000000  0.00000000  0.10372000  1.0
  Pd  Pd13  1  0.50000000  0.50000000  0.10372000  1.0
  Pd  Pd14  1  0.99449000  0.02778000  0.96583000  1.0
  Pd  Pd15  1  0.99450000  0.47219000  0.96582000  1.0
  C  C16  1  0.08032000  0.75005000  0.83458000  1.0
  O  O17  1  0.93265000  0.75007000  0.80643000  1.0
