# generated using pymatgen
data_Li4Y4Sn4Ge4C
_symmetry_space_group_name_H-M   'P 1'
_cell_length_a   9.43388000
_cell_length_b   6.05842000
_cell_length_c   24.54360000
_cell_angle_alpha   90.00000000
_cell_angle_beta   90.00000000
_cell_angle_gamma   90.00000000
_symmetry_Int_Tables_number   1
_chemical_formula_structural   Li4Y4Sn4Ge4C
_chemical_formula_sum   'Li4 Y4 Sn4 Ge4 C1'
_cell_volume   1402.77491026
_cell_formula_units_Z   1
loop_
 _symmetry_equiv_pos_site_id
 _symmetry_equiv_pos_as_xyz
  1  'x, y, z'
loop_
 _atom_site_type_symbol
 _atom_site_label
 _atom_site_symmetry_multiplicity
 _atom_site_fract_x
 _atom_site_fract_y
 _atom_site_fract_z
 _atom_site_occupancy
  Li  Li0  1  0.25000000  0.75236000  0.03085000  1.0
  Li  Li1  1  0.26531000  0.31643000  0.90940000  1.0
  Li  Li2  1  0.75000000  0.75236000  0.03085000  1.0
  Li  Li3  1  0.73469000  0.31643000  0.90940000  1.0
  Y  Y4  1  0.00000000  0.50000000  0.09256000  1.0
  Y  Y5  1  0.00000000  0.03172000  0.97179000  1.0
  Y  Y6  1  0.50000000  0.50000000  0.09256000  1.0
  Y  Y7  1  0.50000000  0.98024000  0.96786000  1.0
  Sn  Sn8  1  0.25000000  0.25236000  0.03085000  1.0
  Sn  Sn9  1  0.22692000  0.79395000  0.88745000  1.0
  Sn  Sn10  1  0.75000000  0.25236000  0.03085000  1.0
  Sn  Sn11  1  0.77308000  0.79395000  0.88745000  1.0
  Ge  Ge12  1  0.00000000  0.00000000  0.09256000  1.0
  Ge  Ge13  1  0.00000000  0.50776000  0.95703000  1.0
  Ge  Ge14  1  0.50000000  0.00000000  0.09256000  1.0
  Ge  Ge15  1  0.50000000  0.48400000  0.96846000  1.0
  C  C16  1  0.00000000  0.77272000  0.90174000  1.0
