# generated using pymatgen
data_Li4Y4Sn4Ge4C
_symmetry_space_group_name_H-M   Pm
_cell_length_a   6.05842000
_cell_length_b   9.43388000
_cell_length_c   24.54360000
_cell_angle_alpha   90.00000000
_cell_angle_beta   90.00000000
_cell_angle_gamma   90.00000000
_symmetry_Int_Tables_number   6
_chemical_formula_structural   Li4Y4Sn4Ge4C
_chemical_formula_sum   'Li4 Y4 Sn4 Ge4 C1'
_cell_volume   1402.77491026
_cell_formula_units_Z   1
loop_
 _symmetry_equiv_pos_site_id
 _symmetry_equiv_pos_as_xyz
  1  'x, y, z'
  2  'x, -y, z'
loop_
 _atom_site_type_symbol
 _atom_site_label
 _atom_site_symmetry_multiplicity
 _atom_site_fract_x
 _atom_site_fract_y
 _atom_site_fract_z
 _atom_site_occupancy
  Li  Li0  2  0.31643000  0.26531000  0.09060000  1.0
  Li  Li1  2  0.75236000  0.25000000  0.96915000  1.0
  Y  Y2  1  0.03172000  0.00000000  0.02821000  1.0
  Y  Y3  1  0.50000000  0.00000000  0.90744000  1.0
  Y  Y4  1  0.50000000  0.50000000  0.90744000  1.0
  Y  Y5  1  0.98024000  0.50000000  0.03214000  1.0
  Sn  Sn6  2  0.25236000  0.25000000  0.96915000  1.0
  Sn  Sn7  2  0.79395000  0.22692000  0.11255000  1.0
  Ge  Ge8  1  0.00000000  0.00000000  0.90744000  1.0
  Ge  Ge9  1  0.00000000  0.50000000  0.90744000  1.0
  Ge  Ge10  1  0.48400000  0.50000000  0.03154000  1.0
  Ge  Ge11  1  0.50776000  0.00000000  0.04297000  1.0
  C  C12  1  0.77272000  0.00000000  0.09826000  1.0
