# generated using pymatgen
data_Li4Mg4Sb4Pd4CO
_symmetry_space_group_name_H-M   Cmm2
_cell_length_a   9.29346200
_cell_length_b   9.29346200
_cell_length_c   24.92860000
_cell_angle_alpha   90.00000000
_cell_angle_beta   90.00000000
_cell_angle_gamma   90.00000000
_symmetry_Int_Tables_number   35
_chemical_formula_structural   Li4Mg4Sb4Pd4CO
_chemical_formula_sum   'Li8 Mg8 Sb8 Pd8 C2 O2'
_cell_volume   2153.04419172
_cell_formula_units_Z   2
loop_
 _symmetry_equiv_pos_site_id
 _symmetry_equiv_pos_as_xyz
  1  'x, y, z'
  2  '-x, -y, z'
  3  '-x, y, z'
  4  'x, -y, z'
  5  'x+1/2, y+1/2, z'
  6  '-x+1/2, -y+1/2, z'
  7  '-x+1/2, y+1/2, z'
  8  'x+1/2, -y+1/2, z'
loop_
 _atom_site_type_symbol
 _atom_site_label
 _atom_site_symmetry_multiplicity
 _atom_site_fract_x
 _atom_site_fract_y
 _atom_site_fract_z
 _atom_site_occupancy
  Li  Li0  4  0.00000000  0.25130500  0.03514000  1.0
  Li  Li1  4  0.24999000  0.50000000  0.90115000  1.0
  Mg  Mg2  4  0.25000000  0.25000000  0.96705000  1.0
  Mg  Mg3  2  0.00000000  0.00000000  0.09983000  1.0
  Mg  Mg4  2  0.00000000  0.50000000  0.10086000  1.0
  Sb  Sb5  4  0.25000000  0.25000000  0.10349000  1.0
  Sb  Sb6  2  0.00000000  0.00000000  0.96705000  1.0
  Sb  Sb7  2  0.00000000  0.50000000  0.96705000  1.0
  Pd  Pd8  4  0.00000000  0.25001000  0.90115000  1.0
  Pd  Pd9  4  0.24725000  0.50000000  0.03581000  1.0
  C  C10  2  0.00000000  0.50000000  0.19120000  1.0
  O  O11  2  0.00000000  0.50000000  0.23690000  1.0
