# generated using pymatgen
data_Li16Ag8Bi8C
_symmetry_space_group_name_H-M   'P 1'
_cell_length_a   9.79433000
_cell_length_b   6.92564000
_cell_length_c   27.34580000
_cell_angle_alpha   90.00000000
_cell_angle_beta   90.00000000
_cell_angle_gamma   90.00000000
_symmetry_Int_Tables_number   1
_chemical_formula_structural   Li16Ag8Bi8C
_chemical_formula_sum   'Li16 Ag8 Bi8 C1'
_cell_volume   1854.92040462
_cell_formula_units_Z   1
loop_
 _symmetry_equiv_pos_site_id
 _symmetry_equiv_pos_as_xyz
  1  'x, y, z'
loop_
 _atom_site_type_symbol
 _atom_site_label
 _atom_site_symmetry_multiplicity
 _atom_site_fract_x
 _atom_site_fract_y
 _atom_site_fract_z
 _atom_site_occupancy
  Li  Li0  1  0.50000000  1.00000000  0.04477000  1.0
  Li  Li1  1  0.75001000  0.50000000  0.13431000  1.0
  Li  Li2  1  0.00000000  1.00000000  0.04477000  1.0
  Li  Li3  1  0.24999000  0.50000000  0.13431000  1.0
  Li  Li4  1  0.75001000  0.25000000  0.04477000  1.0
  Li  Li5  1  0.24999000  0.25000000  0.04477000  1.0
  Li  Li6  1  0.50000000  0.75000000  0.13431000  1.0
  Li  Li7  1  0.00000000  0.75000000  0.13431000  1.0
  Li  Li8  1  0.00000000  0.00252000  0.87207000  1.0
  Li  Li9  1  0.25071000  0.49565000  0.95984000  1.0
  Li  Li10  1  0.50000000  0.95494000  0.87803000  1.0
  Li  Li11  1  0.74929000  0.49565000  0.95984000  1.0
  Li  Li12  1  0.27528000  0.27280000  0.86912000  1.0
  Li  Li13  1  0.72472000  0.27280000  0.86912000  1.0
  Li  Li14  1  0.00000000  0.73315000  0.94486000  1.0
  Li  Li15  1  0.50000000  0.72661000  0.95661000  1.0
  Ag  Ag16  1  0.00000000  0.25000000  0.13431000  1.0
  Ag  Ag17  1  0.50000000  0.25000000  0.13431000  1.0
  Ag  Ag18  1  0.25001000  0.75000000  0.04477000  1.0
  Ag  Ag19  1  0.74999000  0.75000000  0.04477000  1.0
  Ag  Ag20  1  0.50000000  0.28532000  0.94662000  1.0
  Ag  Ag21  1  0.00000000  0.25546000  0.95401000  1.0
  Ag  Ag22  1  0.76842000  0.72717000  0.87276000  1.0
  Ag  Ag23  1  0.23158000  0.72717000  0.87276000  1.0
  Bi  Bi24  1  0.75001000  0.00000000  0.13431000  1.0
  Bi  Bi25  1  0.00000000  0.50000000  0.04477000  1.0
  Bi  Bi26  1  0.50000000  0.50000000  0.04477000  1.0
  Bi  Bi27  1  0.24999000  0.00000000  0.13431000  1.0
  Bi  Bi28  1  0.25939000  0.01147000  0.95457000  1.0
  Bi  Bi29  1  0.50000000  0.53195000  0.85643000  1.0
  Bi  Bi30  1  0.00000000  0.40722000  0.84802000  1.0
  Bi  Bi31  1  0.74061000  0.01147000  0.95457000  1.0
  C  C32  1  0.00000000  0.71789000  0.86628000  1.0
