# generated using pymatgen
data_Mn8Ni16Sn8C
_symmetry_space_group_name_H-M   Pmm2
_cell_length_a   6.10266000
_cell_length_b   8.63046000
_cell_length_c   26.47280000
_cell_angle_alpha   90.00000000
_cell_angle_beta   90.00000000
_cell_angle_gamma   90.00000000
_symmetry_Int_Tables_number   25
_chemical_formula_structural   Mn8Ni16Sn8C
_chemical_formula_sum   'Mn8 Ni16 Sn8 C1'
_cell_volume   1394.28962977
_cell_formula_units_Z   1
loop_
 _symmetry_equiv_pos_site_id
 _symmetry_equiv_pos_as_xyz
  1  'x, y, z'
  2  '-x, -y, z'
  3  '-x, y, z'
  4  'x, -y, z'
loop_
 _atom_site_type_symbol
 _atom_site_label
 _atom_site_symmetry_multiplicity
 _atom_site_fract_x
 _atom_site_fract_y
 _atom_site_fract_z
 _atom_site_occupancy
  Mn  Mn0  2  0.50000000  0.23147000  0.12517000  1.0
  Mn  Mn1  2  0.50000000  0.25000000  0.95925000  1.0
  Mn  Mn2  1  0.00000000  0.00000000  0.03889000  1.0
  Mn  Mn3  1  0.00000000  0.00000000  0.87775000  1.0
  Mn  Mn4  1  0.00000000  0.50000000  0.04132000  1.0
  Mn  Mn5  1  0.00000000  0.50000000  0.87775000  1.0
  Ni  Ni6  4  0.24461000  0.24946000  0.04346000  1.0
  Ni  Ni7  4  0.25000000  0.25000000  0.87775000  1.0
  Ni  Ni8  2  0.21122000  0.00000000  0.11945000  1.0
  Ni  Ni9  2  0.25000000  0.50000000  0.95925000  1.0
  Ni  Ni10  2  0.25000000  0.00000000  0.95925000  1.0
  Ni  Ni11  2  0.26249000  0.50000000  0.11782000  1.0
  Sn  Sn12  2  0.00000000  0.25000000  0.95925000  1.0
  Sn  Sn13  2  0.00000000  0.26235000  0.13060000  1.0
  Sn  Sn14  1  0.50000000  0.00000000  0.03928000  1.0
  Sn  Sn15  1  0.50000000  0.00000000  0.87775000  1.0
  Sn  Sn16  1  0.50000000  0.50000000  0.03907000  1.0
  Sn  Sn17  1  0.50000000  0.50000000  0.87775000  1.0
  C  C18  1  0.50000000  0.00000000  0.13884000  1.0
