# generated using pymatgen
data_Li8Sc8In8Ge8CO
_symmetry_space_group_name_H-M   'P 1'
_cell_length_a   8.12626000
_cell_length_b   8.97372000
_cell_length_c   26.16540000
_cell_angle_alpha   90.00000000
_cell_angle_beta   90.00000000
_cell_angle_gamma   90.00000000
_symmetry_Int_Tables_number   1
_chemical_formula_structural   Li8Sc8In8Ge8CO
_chemical_formula_sum   'Li8 Sc8 In8 Ge8 C1 O1'
_cell_volume   1908.05375719
_cell_formula_units_Z   1
loop_
 _symmetry_equiv_pos_site_id
 _symmetry_equiv_pos_as_xyz
  1  'x, y, z'
loop_
 _atom_site_type_symbol
 _atom_site_label
 _atom_site_symmetry_multiplicity
 _atom_site_fract_x
 _atom_site_fract_y
 _atom_site_fract_z
 _atom_site_occupancy
  Li  Li0  1  0.75001000  0.74977000  0.86130000  1.0
  Li  Li1  1  0.75000000  0.75000000  0.03927000  1.0
  Li  Li2  1  0.25000000  0.75003000  0.86386000  1.0
  Li  Li3  1  0.25000000  0.75000000  0.03927000  1.0
  Li  Li4  1  0.75000000  0.25000000  0.86378000  1.0
  Li  Li5  1  0.75000000  0.25000000  0.03927000  1.0
  Li  Li6  1  0.25001000  0.25005000  0.86380000  1.0
  Li  Li7  1  0.25000000  0.25000000  0.03927000  1.0
  Sc  Sc8  1  0.75000000  0.00064000  0.95961000  1.0
  Sc  Sc9  1  0.75000000  0.00000000  0.11782000  1.0
  Sc  Sc10  1  0.25000000  0.99912000  0.95998000  1.0
  Sc  Sc11  1  0.25000000  0.00000000  0.11782000  1.0
  Sc  Sc12  1  0.75000000  0.49938000  0.95961000  1.0
  Sc  Sc13  1  0.75000000  0.50000000  0.11782000  1.0
  Sc  Sc14  1  0.25000000  0.50091000  0.95997000  1.0
  Sc  Sc15  1  0.25000000  0.50000000  0.11782000  1.0
  In  In16  1  0.99888000  0.75002000  0.94801000  1.0
  In  In17  1  0.00000000  0.75000000  0.11782000  1.0
  In  In18  1  0.50113000  0.75000000  0.94801000  1.0
  In  In19  1  0.50000000  0.75000000  0.11782000  1.0
  In  In20  1  0.00018000  0.25000000  0.94937000  1.0
  In  In21  1  0.00000000  0.25000000  0.11782000  1.0
  In  In22  1  0.49982000  0.25001000  0.94937000  1.0
  In  In23  1  0.50000000  0.25000000  0.11782000  1.0
  Ge  Ge24  1  0.00171000  0.00242000  0.87824000  1.0
  Ge  Ge25  1  0.00000000  0.00000000  0.03927000  1.0
  Ge  Ge26  1  0.49829000  0.00242000  0.87824000  1.0
  Ge  Ge27  1  0.50000000  0.00000000  0.03927000  1.0
  Ge  Ge28  1  0.00172000  0.49760000  0.87824000  1.0
  Ge  Ge29  1  0.00000000  0.50000000  0.03927000  1.0
  Ge  Ge30  1  0.49830000  0.49759000  0.87824000  1.0
  Ge  Ge31  1  0.50000000  0.50000000  0.03927000  1.0
  C  C32  1  0.74993000  0.74982000  0.78039000  1.0
  O  O33  1  0.74994000  0.74993000  0.73690000  1.0
