# generated using pymatgen
data_HfInNi2
_symmetry_space_group_name_H-M   'P 1'
_cell_length_a   4.46151000
_cell_length_b   6.30953000
_cell_length_c   26.69230000
_cell_angle_alpha   90.00000000
_cell_angle_beta   90.00000000
_cell_angle_gamma   90.00000000
_symmetry_Int_Tables_number   1
_chemical_formula_structural   HfInNi2
_chemical_formula_sum   'Hf4 In4 Ni8'
_cell_volume   751.38907754
_cell_formula_units_Z   4
loop_
 _symmetry_equiv_pos_site_id
 _symmetry_equiv_pos_as_xyz
  1  'x, y, z'
loop_
 _atom_site_type_symbol
 _atom_site_label
 _atom_site_symmetry_multiplicity
 _atom_site_fract_x
 _atom_site_fract_y
 _atom_site_fract_z
 _atom_site_occupancy
  Hf  Hf0  1  0.00000000  0.00000000  0.12536000  1.0
  Hf  Hf1  1  0.50000000  0.50000000  0.04179000  1.0
  Hf  Hf2  1  0.00000000  0.00000000  0.95651000  1.0
  Hf  Hf3  1  0.50000000  0.50000000  0.87680500  1.0
  In  In4  1  0.50000000  0.00000000  0.04179000  1.0
  In  In5  1  0.00000000  0.50000000  0.12536000  1.0
  In  In6  1  0.50000000  0.00000000  0.86682000  1.0
  In  In7  1  0.00000000  0.50000000  0.96014500  1.0
  Ni  Ni8  1  0.00000000  0.75000000  0.04179000  1.0
  Ni  Ni9  1  0.00000000  0.25000000  0.04179000  1.0
  Ni  Ni10  1  0.50000000  0.25000000  0.12536000  1.0
  Ni  Ni11  1  0.50000000  0.75000000  0.12536000  1.0
  Ni  Ni12  1  0.00000000  0.74537000  0.87954000  1.0
  Ni  Ni13  1  0.00000000  0.25463000  0.87954000  1.0
  Ni  Ni14  1  0.50000000  0.25093000  0.95575500  1.0
  Ni  Ni15  1  0.50000000  0.74907000  0.95575500  1.0
