# generated using pymatgen
data_Li4Cu4Sn4Ge4C
_symmetry_space_group_name_H-M   'P 1'
_cell_length_a   6.57410000
_cell_length_b   6.57410000
_cell_length_c   24.93060000
_cell_angle_alpha   90.00000000
_cell_angle_beta   90.00000000
_cell_angle_gamma   90.00000000
_symmetry_Int_Tables_number   1
_chemical_formula_structural   Li4Cu4Sn4Ge4C
_chemical_formula_sum   'Li4 Cu4 Sn4 Ge4 C1'
_cell_volume   1077.47038617
_cell_formula_units_Z   1
loop_
 _symmetry_equiv_pos_site_id
 _symmetry_equiv_pos_as_xyz
  1  'x, y, z'
loop_
 _atom_site_type_symbol
 _atom_site_label
 _atom_site_symmetry_multiplicity
 _atom_site_fract_x
 _atom_site_fract_y
 _atom_site_fract_z
 _atom_site_occupancy
  Li  Li0  1  0.27491500  0.27491500  0.11207000  1
  Li  Li1  1  0.75000000  0.25000000  0.96704000  1
  Li  Li2  1  0.25000000  0.75000000  0.96704000  1
  Li  Li3  1  0.72508500  0.72508500  0.11207000  1
  Cu  Cu4  1  0.70837000  0.29163000  0.08962000  1
  Cu  Cu5  1  0.25000000  0.25000000  0.96704000  1
  Cu  Cu6  1  0.75000000  0.75000000  0.96704000  1
  Cu  Cu7  1  0.29163000  0.70837000  0.08962000  1
  Sn  Sn8  1  0.50000000  0.00000000  0.03239000  1
  Sn  Sn9  1  0.00000000  0.00000000  0.90111000  1
  Sn  Sn10  1  0.50000000  0.50000000  0.90111000  1
  Sn  Sn11  1  1.00000000  0.50000000  0.03239000  1
  Ge  Ge12  1  0.50000000  0.50000000  0.02241000  1
  Ge  Ge13  1  1.00000000  0.50000000  0.90111000  1
  Ge  Ge14  1  0.50000000  0.00000000  0.90111000  1
  Ge  Ge15  1  0.00000000  0.00000000  0.04620000  1
  C  C16  1  0.50000000  0.50000000  0.10475000  1
