# generated using pymatgen
data_Mg16Rh16CO
_symmetry_space_group_name_H-M   'P 1'
_cell_length_a   8.89794000
_cell_length_b   6.29180000
_cell_length_c   26.67350000
_cell_angle_alpha   90.00000000
_cell_angle_beta   90.00000000
_cell_angle_gamma   90.00000000
_symmetry_Int_Tables_number   1
_chemical_formula_structural   Mg16Rh16CO
_chemical_formula_sum   'Mg16 Rh16 C1 O1'
_cell_volume   1493.29079486
_cell_formula_units_Z   1
loop_
 _symmetry_equiv_pos_site_id
 _symmetry_equiv_pos_as_xyz
  1  'x, y, z'
loop_
 _atom_site_type_symbol
 _atom_site_label
 _atom_site_symmetry_multiplicity
 _atom_site_fract_x
 _atom_site_fract_y
 _atom_site_fract_z
 _atom_site_occupancy
  Mg  Mg0  1  0.00000000  0.50000000  0.12510000  1.0
  Mg  Mg1  1  0.25000000  0.50000000  0.04170000  1.0
  Mg  Mg2  1  0.00036000  0.50000000  0.95943000  1.0
  Mg  Mg3  1  0.25004000  0.50000000  0.87382000  1.0
  Mg  Mg4  1  0.50000000  0.50000000  0.12510000  1.0
  Mg  Mg5  1  0.75000000  0.50000000  0.04170000  1.0
  Mg  Mg6  1  0.49962000  0.50000000  0.95943000  1.0
  Mg  Mg7  1  0.75005000  0.50000000  0.87250000  1.0
  Mg  Mg8  1  0.00000000  0.00000000  0.12510000  1.0
  Mg  Mg9  1  0.25000000  0.00000000  0.04170000  1.0
  Mg  Mg10  1  0.99933000  0.00000000  0.96015000  1.0
  Mg  Mg11  1  0.25008000  0.00000000  0.87522000  1.0
  Mg  Mg12  1  0.50000000  0.00000000  0.12510000  1.0
  Mg  Mg13  1  0.75000000  0.00000000  0.04170000  1.0
  Mg  Mg14  1  0.50068000  0.00000000  0.96014000  1.0
  Mg  Mg15  1  0.75002000  0.00000000  0.87259000  1.0
  Rh  Rh16  1  0.25000000  0.25001000  0.12510000  1.0
  Rh  Rh17  1  0.50000000  0.25001000  0.04170000  1.0
  Rh  Rh18  1  0.24996000  0.25114000  0.95830000  1.0
  Rh  Rh19  1  0.99751000  0.24600000  0.87960000  1.0
  Rh  Rh20  1  0.75000000  0.25001000  0.12510000  1.0
  Rh  Rh21  1  0.00000000  0.25001000  0.04170000  1.0
  Rh  Rh22  1  0.75004000  0.25170000  0.95797000  1.0
  Rh  Rh23  1  0.50259000  0.24604000  0.87958000  1.0
  Rh  Rh24  1  0.25000000  0.74999000  0.12510000  1.0
  Rh  Rh25  1  0.50000000  0.74999000  0.04170000  1.0
  Rh  Rh26  1  0.24996000  0.74886000  0.95830000  1.0
  Rh  Rh27  1  0.99751000  0.75400000  0.87960000  1.0
  Rh  Rh28  1  0.75000000  0.74999000  0.12510000  1.0
  Rh  Rh29  1  0.00000000  0.74999000  0.04170000  1.0
  Rh  Rh30  1  0.75004000  0.74830000  0.95797000  1.0
  Rh  Rh31  1  0.50259000  0.75396000  0.87958000  1.0
  C  C32  1  0.24998000  0.50000000  0.78722000  1.0
  O  O33  1  0.24998000  0.50000000  0.74440000  1.0
