# generated using pymatgen
data_Mg16Rh16CO
_symmetry_space_group_name_H-M   Pm
_cell_length_a   8.89794000
_cell_length_b   6.29180000
_cell_length_c   26.67350000
_cell_angle_alpha   90.00000000
_cell_angle_beta   90.00000000
_cell_angle_gamma   90.00000000
_symmetry_Int_Tables_number   6
_chemical_formula_structural   Mg16Rh16CO
_chemical_formula_sum   'Mg16 Rh16 C1 O1'
_cell_volume   1493.29079486
_cell_formula_units_Z   1
loop_
 _symmetry_equiv_pos_site_id
 _symmetry_equiv_pos_as_xyz
  1  'x, y, z'
  2  'x, -y, z'
loop_
 _atom_site_type_symbol
 _atom_site_label
 _atom_site_symmetry_multiplicity
 _atom_site_fract_x
 _atom_site_fract_y
 _atom_site_fract_z
 _atom_site_occupancy
  Mg  Mg0  1  0.00000000  0.00000000  0.87490000  1.0
  Mg  Mg1  1  0.00000000  0.50000000  0.87490000  1.0
  Mg  Mg2  1  0.00036000  0.50000000  0.04057000  1.0
  Mg  Mg3  1  0.25000000  0.00000000  0.95830000  1.0
  Mg  Mg4  1  0.25000000  0.50000000  0.95830000  1.0
  Mg  Mg5  1  0.25004000  0.50000000  0.12618000  1.0
  Mg  Mg6  1  0.25008000  0.00000000  0.12478000  1.0
  Mg  Mg7  1  0.49962000  0.50000000  0.04057000  1.0
  Mg  Mg8  1  0.50000000  0.00000000  0.87490000  1.0
  Mg  Mg9  1  0.50000000  0.50000000  0.87490000  1.0
  Mg  Mg10  1  0.50068000  0.00000000  0.03986000  1.0
  Mg  Mg11  1  0.75000000  0.00000000  0.95830000  1.0
  Mg  Mg12  1  0.75000000  0.50000000  0.95830000  1.0
  Mg  Mg13  1  0.75002000  0.00000000  0.12741000  1.0
  Mg  Mg14  1  0.75005000  0.50000000  0.12750000  1.0
  Mg  Mg15  1  0.99933000  0.00000000  0.03985000  1.0
  Rh  Rh16  2  0.00000000  0.25001000  0.95830000  1.0
  Rh  Rh17  2  0.24996000  0.25114000  0.04170000  1.0
  Rh  Rh18  2  0.25000000  0.25001000  0.87490000  1.0
  Rh  Rh19  2  0.50000000  0.25001000  0.95830000  1.0
  Rh  Rh20  2  0.50259000  0.24604000  0.12042000  1.0
  Rh  Rh21  2  0.75000000  0.25001000  0.87490000  1.0
  Rh  Rh22  2  0.75004000  0.25170000  0.04203000  1.0
  Rh  Rh23  2  0.99751000  0.24600000  0.12040000  1.0
  C  C24  1  0.24998000  0.50000000  0.21278000  1.0
  O  O25  1  0.24998000  0.50000000  0.25560000  1.0
