# generated using pymatgen
data_Li16Al8Pd8CO
_symmetry_space_group_name_H-M   'P 1'
_cell_length_a   8.67390000
_cell_length_b   6.13337000
_cell_length_c   26.50540000
_cell_angle_alpha   90.00000000
_cell_angle_beta   90.00000000
_cell_angle_gamma   90.00000000
_symmetry_Int_Tables_number   1
_chemical_formula_structural   Li16Al8Pd8CO
_chemical_formula_sum   'Li16 Al8 Pd8 C1 O1'
_cell_volume   1410.09358942
_cell_formula_units_Z   1
loop_
 _symmetry_equiv_pos_site_id
 _symmetry_equiv_pos_as_xyz
  1  'x, y, z'
loop_
 _atom_site_type_symbol
 _atom_site_label
 _atom_site_symmetry_multiplicity
 _atom_site_fract_x
 _atom_site_fract_y
 _atom_site_fract_z
 _atom_site_occupancy
  Li  Li0  1  0.50000000  0.00000000  0.04091000  1.0
  Li  Li1  1  0.75000000  0.50000000  0.12272000  1.0
  Li  Li2  1  0.00000000  0.00000000  0.04091000  1.0
  Li  Li3  1  0.25000000  0.50000000  0.12272000  1.0
  Li  Li4  1  0.75000000  0.25000000  0.04091000  1.0
  Li  Li5  1  0.25000000  0.25000000  0.04091000  1.0
  Li  Li6  1  0.50000000  0.75000000  0.12272000  1.0
  Li  Li7  1  0.00000000  0.75000000  0.12272000  1.0
  Li  Li8  1  0.00000000  0.98649000  0.87660000  1.0
  Li  Li9  1  0.25069000  0.49395000  0.96135000  1.0
  Li  Li10  1  0.50000000  0.98350000  0.87348000  1.0
  Li  Li11  1  0.74931000  0.49395000  0.96135000  1.0
  Li  Li12  1  0.24578000  0.25346000  0.87063000  1.0
  Li  Li13  1  0.75422000  0.25346000  0.87063000  1.0
  Li  Li14  1  0.00000000  0.76345000  0.96355000  1.0
  Li  Li15  1  0.50000000  0.76043000  0.96150000  1.0
  Al  Al16  1  0.75000000  0.00000000  0.12272000  1.0
  Al  Al17  1  0.00000000  0.50000000  0.04091000  1.0
  Al  Al18  1  0.50000000  0.50000000  0.04091000  1.0
  Al  Al19  1  0.25000000  0.00000000  0.12272000  1.0
  Al  Al20  1  0.24951000  0.00709000  0.95783000  1.0
  Al  Al21  1  0.50000000  0.50989000  0.88107000  1.0
  Al  Al22  1  0.00000000  0.51981000  0.88331000  1.0
  Al  Al23  1  0.75049000  0.00709000  0.95783000  1.0
  Pd  Pd24  1  0.00000000  0.25000000  0.12272000  1.0
  Pd  Pd25  1  0.50000000  0.25000000  0.12272000  1.0
  Pd  Pd26  1  0.25000000  0.75000000  0.04091000  1.0
  Pd  Pd27  1  0.75000000  0.75000000  0.04091000  1.0
  Pd  Pd28  1  0.50000000  0.24638000  0.95799000  1.0
  Pd  Pd29  1  0.00000000  0.24982000  0.95861000  1.0
  Pd  Pd30  1  0.74772000  0.73080000  0.88546000  1.0
  Pd  Pd31  1  0.25228000  0.73080000  0.88546000  1.0
  C  C32  1  0.00000000  0.00966000  0.79974000  1.0
  O  O33  1  0.00000000  0.00053000  0.75656000  1.0
