# generated using pymatgen
data_Li16Al8Pd8CO
_symmetry_space_group_name_H-M   Pm
_cell_length_a   6.13337000
_cell_length_b   8.67390000
_cell_length_c   26.50540000
_cell_angle_alpha   90.00000000
_cell_angle_beta   90.00000000
_cell_angle_gamma   90.00000000
_symmetry_Int_Tables_number   6
_chemical_formula_structural   Li16Al8Pd8CO
_chemical_formula_sum   'Li16 Al8 Pd8 C1 O1'
_cell_volume   1410.09358942
_cell_formula_units_Z   1
loop_
 _symmetry_equiv_pos_site_id
 _symmetry_equiv_pos_as_xyz
  1  'x, y, z'
  2  'x, -y, z'
loop_
 _atom_site_type_symbol
 _atom_site_label
 _atom_site_symmetry_multiplicity
 _atom_site_fract_x
 _atom_site_fract_y
 _atom_site_fract_z
 _atom_site_occupancy
  Li  Li0  2  0.25000000  0.25000000  0.95909000  1.0
  Li  Li1  2  0.25346000  0.24578000  0.12937000  1.0
  Li  Li2  2  0.49395000  0.25069000  0.03865000  1.0
  Li  Li3  2  0.50000000  0.25000000  0.87728000  1.0
  Li  Li4  1  0.00000000  0.00000000  0.95909000  1.0
  Li  Li5  1  0.00000000  0.50000000  0.95909000  1.0
  Li  Li6  1  0.75000000  0.00000000  0.87728000  1.0
  Li  Li7  1  0.75000000  0.50000000  0.87728000  1.0
  Li  Li8  1  0.76043000  0.50000000  0.03850000  1.0
  Li  Li9  1  0.76345000  0.00000000  0.03645000  1.0
  Li  Li10  1  0.98350000  0.50000000  0.12652000  1.0
  Li  Li11  1  0.98649000  0.00000000  0.12340000  1.0
  Al  Al12  2  0.00000000  0.25000000  0.87728000  1.0
  Al  Al13  2  0.00709000  0.24951000  0.04217000  1.0
  Al  Al14  1  0.50000000  0.00000000  0.95909000  1.0
  Al  Al15  1  0.50000000  0.50000000  0.95909000  1.0
  Al  Al16  1  0.50989000  0.50000000  0.11893000  1.0
  Al  Al17  1  0.51981000  0.00000000  0.11669000  1.0
  Pd  Pd18  2  0.73080000  0.25228000  0.11454000  1.0
  Pd  Pd19  2  0.75000000  0.25000000  0.95909000  1.0
  Pd  Pd20  1  0.24638000  0.50000000  0.04201000  1.0
  Pd  Pd21  1  0.24982000  0.00000000  0.04139000  1.0
  Pd  Pd22  1  0.25000000  0.00000000  0.87728000  1.0
  Pd  Pd23  1  0.25000000  0.50000000  0.87728000  1.0
  C  C24  1  0.00966000  0.00000000  0.20026000  1.0
  O  O25  1  0.00053000  0.00000000  0.24344000  1.0
