# generated using pymatgen
data_Li4In4Cu4Pt4C
_symmetry_space_group_name_H-M   'P 1'
_cell_length_a   6.33470000
_cell_length_b   6.33470000
_cell_length_c   24.75100000
_cell_angle_alpha   90.00000000
_cell_angle_beta   90.00000000
_cell_angle_gamma   90.00000000
_symmetry_Int_Tables_number   1
_chemical_formula_structural   Li4In4Cu4Pt4C
_chemical_formula_sum   'Li4 In4 Cu4 Pt4 C1'
_cell_volume   993.21862465
_cell_formula_units_Z   1
loop_
 _symmetry_equiv_pos_site_id
 _symmetry_equiv_pos_as_xyz
  1  'x, y, z'
loop_
 _atom_site_type_symbol
 _atom_site_label
 _atom_site_symmetry_multiplicity
 _atom_site_fract_x
 _atom_site_fract_y
 _atom_site_fract_z
 _atom_site_occupancy
  Li  Li0  1  0.50000000  1.00000000  0.03199000  1
  Li  Li1  1  0.00000000  0.00000000  0.90402000  1
  Li  Li2  1  0.50000000  0.50000000  0.90402000  1
  Li  Li3  1  0.00000000  0.50000000  0.03199000  1
  In  In4  1  0.25000000  0.25000000  0.09598000  1
  In  In5  1  0.75000000  0.25000000  0.96801000  1
  In  In6  1  0.25000000  0.75000000  0.96801000  1
  In  In7  1  0.75000000  0.75000000  0.09598000  1
  Cu  Cu8  1  0.75000000  0.25000000  0.09598000  1
  Cu  Cu9  1  0.25000000  0.25000000  0.96801000  1
  Cu  Cu10  1  0.75000000  0.75000000  0.96801000  1
  Cu  Cu11  1  0.25000000  0.75000000  0.09598000  1
  Pt  Pt12  1  0.50000000  0.50000000  0.03199000  1
  Pt  Pt13  1  0.00000000  0.50000000  0.90402000  1
  Pt  Pt14  1  0.50000000  1.00000000  0.90402000  1
  Pt  Pt15  1  0.00000000  0.00000000  0.03199000  1
  C  C16  1  0.50000000  0.50000000  0.12830000  1
