# generated using pymatgen
data_Li16Al8Ag8C
_symmetry_space_group_name_H-M   'P 1'
_cell_length_a   8.97791000
_cell_length_b   6.34834000
_cell_length_c   26.73340000
_cell_angle_alpha   90.00000000
_cell_angle_beta   90.00000000
_cell_angle_gamma   90.00000000
_symmetry_Int_Tables_number   1
_chemical_formula_structural   Li16Al8Ag8C
_chemical_formula_sum   'Li16 Al8 Ag8 C1'
_cell_volume   1523.66545918
_cell_formula_units_Z   1
loop_
 _symmetry_equiv_pos_site_id
 _symmetry_equiv_pos_as_xyz
  1  'x, y, z'
loop_
 _atom_site_type_symbol
 _atom_site_label
 _atom_site_symmetry_multiplicity
 _atom_site_fract_x
 _atom_site_fract_y
 _atom_site_fract_z
 _atom_site_occupancy
  Li  Li0  1  0.75000000  1.00000000  0.04198000  1.0
  Li  Li1  1  0.00000000  0.50000000  0.12594000  1.0
  Li  Li2  1  0.25000000  1.00000000  0.04198000  1.0
  Li  Li3  1  0.50000000  0.50000000  0.12594000  1.0
  Li  Li4  1  0.00000000  0.25000000  0.04198000  1.0
  Li  Li5  1  0.50000000  0.25000000  0.04198000  1.0
  Li  Li6  1  0.75000000  0.75000000  0.12594000  1.0
  Li  Li7  1  0.25000000  0.75000000  0.12594000  1.0
  Li  Li8  1  0.22239000  0.95313000  0.87085000  1.0
  Li  Li9  1  0.50000000  0.49792000  0.96070000  1.0
  Li  Li10  1  0.77761000  0.95313000  0.87085000  1.0
  Li  Li11  1  0.00000000  0.50498000  0.95654000  1.0
  Li  Li12  1  0.50000000  0.20440000  0.87047000  1.0
  Li  Li13  1  0.00000000  0.21788000  0.87274000  1.0
  Li  Li14  1  0.23423000  0.75160000  0.95421000  1.0
  Li  Li15  1  0.76577000  0.75160000  0.95421000  1.0
  Al  Al16  1  0.00000000  0.00000000  0.12594000  1.0
  Al  Al17  1  0.25000000  0.50000000  0.04198000  1.0
  Al  Al18  1  0.75000000  0.50000000  0.04198000  1.0
  Al  Al19  1  0.50000000  1.00000000  0.12594000  1.0
  Al  Al20  1  0.50000000  0.98712000  0.95784000  1.0
  Al  Al21  1  0.73344000  0.47776000  0.87083000  1.0
  Al  Al22  1  0.26656000  0.47776000  0.87083000  1.0
  Al  Al23  1  0.00000000  0.01789000  0.96522000  1.0
  Ag  Ag24  1  0.25000000  0.25000000  0.12594000  1.0
  Ag  Ag25  1  0.75000000  0.25000000  0.12594000  1.0
  Ag  Ag26  1  0.50000000  0.75000000  0.04198000  1.0
  Ag  Ag27  1  0.00000000  0.75000000  0.04198000  1.0
  Ag  Ag28  1  0.74263000  0.25036000  0.95692000  1.0
  Ag  Ag29  1  0.25737000  0.25036000  0.95692000  1.0
  Ag  Ag30  1  0.00000000  0.62737000  0.85718000  1.0
  Ag  Ag31  1  0.50000000  0.72849000  0.87810000  1.0
  C  C32  1  0.00000000  0.90780000  0.89964000  1.0
