# generated using pymatgen
data_Zr8Ga8Ni16C
_symmetry_space_group_name_H-M   Pm
_cell_length_a   8.68219000
_cell_length_b   6.13924000
_cell_length_c   26.51160000
_cell_angle_alpha   90.00000000
_cell_angle_beta   90.00000000
_cell_angle_gamma   90.00000000
_symmetry_Int_Tables_number   6
_chemical_formula_structural   Zr8Ga8Ni16C
_chemical_formula_sum   'Zr8 Ga8 Ni16 C1'
_cell_volume   1413.12257935
_cell_formula_units_Z   1
loop_
 _symmetry_equiv_pos_site_id
 _symmetry_equiv_pos_as_xyz
  1  'x, y, z'
  2  'x, -y, z'
loop_
 _atom_site_type_symbol
 _atom_site_label
 _atom_site_symmetry_multiplicity
 _atom_site_fract_x
 _atom_site_fract_y
 _atom_site_fract_z
 _atom_site_occupancy
  Zr  Zr0  1  0.00000000  0.00000000  0.87719000  1.0
  Zr  Zr1  1  0.00001000  0.00000000  0.04191000  1.0
  Zr  Zr2  1  0.25000000  0.50000000  0.95906000  1.0
  Zr  Zr3  1  0.26045000  0.50000000  0.12598000  1.0
  Zr  Zr4  1  0.49993000  0.00000000  0.03930000  1.0
  Zr  Zr5  1  0.50000000  0.00000000  0.87719000  1.0
  Zr  Zr6  1  0.73958000  0.50000000  0.12600000  1.0
  Zr  Zr7  1  0.75000000  0.50000000  0.95906000  1.0
  Ga  Ga8  1  0.00000000  0.50000000  0.87719000  1.0
  Ga  Ga9  1  0.00004000  0.50000000  0.04112000  1.0
  Ga  Ga10  1  0.25000000  0.00000000  0.95906000  1.0
  Ga  Ga11  1  0.25132000  0.00000000  0.12286000  1.0
  Ga  Ga12  1  0.50000000  0.50000000  0.04193000  1.0
  Ga  Ga13  1  0.50000000  0.50000000  0.87719000  1.0
  Ga  Ga14  1  0.74866000  0.00000000  0.12290000  1.0
  Ga  Ga15  1  0.75000000  0.00000000  0.95906000  1.0
  Ni  Ni16  2  0.00000000  0.25000000  0.95906000  1.0
  Ni  Ni17  2  0.25000000  0.25000000  0.87719000  1.0
  Ni  Ni18  2  0.25182000  0.26637000  0.04321000  1.0
  Ni  Ni19  2  0.50000000  0.25000000  0.95906000  1.0
  Ni  Ni20  2  0.50008000  0.22774000  0.12025000  1.0
  Ni  Ni21  2  0.74812000  0.26642000  0.04321000  1.0
  Ni  Ni22  2  0.75000000  0.25000000  0.87719000  1.0
  Ni  Ni23  2  0.99998000  0.28914000  0.12320000  1.0
  C  C24  1  0.99998000  0.00000000  0.13329000  1.0
