# generated using pymatgen
data_Li8Ni16Ge8CO
_symmetry_space_group_name_H-M   'P 1'
_cell_length_a   5.73354000
_cell_length_b   8.10846000
_cell_length_c   26.08130000
_cell_angle_alpha   90.00000000
_cell_angle_beta   90.00000000
_cell_angle_gamma   90.00000000
_symmetry_Int_Tables_number   1
_chemical_formula_structural   Li8Ni16Ge8CO
_chemical_formula_sum   'Li8 Ni16 Ge8 C1 O1'
_cell_volume   1212.52432507
_cell_formula_units_Z   1
loop_
 _symmetry_equiv_pos_site_id
 _symmetry_equiv_pos_as_xyz
  1  'x, y, z'
loop_
 _atom_site_type_symbol
 _atom_site_label
 _atom_site_symmetry_multiplicity
 _atom_site_fract_x
 _atom_site_fract_y
 _atom_site_fract_z
 _atom_site_occupancy
  Li  Li0  1  0.00000000  0.00000000  0.88342000  1.0
  Li  Li1  1  0.50000000  0.25000000  0.96114000  1.0
  Li  Li2  1  0.50000000  0.75000000  0.96114000  1.0
  Li  Li3  1  0.00000000  0.50000000  0.88342000  1.0
  Li  Li4  1  0.99999000  0.49616000  0.03395000  1.0
  Li  Li5  1  0.50012000  0.74871000  0.13147000  1.0
  Li  Li6  1  0.50002000  0.24920000  0.13536000  1.0
  Li  Li7  1  0.00004000  0.00347000  0.03382000  1.0
  Ni  Ni8  1  0.25000000  0.00000000  0.96114000  1.0
  Ni  Ni9  1  0.75000000  0.50000000  0.96114000  1.0
  Ni  Ni10  1  0.75000000  0.00000000  0.96114000  1.0
  Ni  Ni11  1  0.25000000  0.50000000  0.96114000  1.0
  Ni  Ni12  1  0.75000000  0.75000000  0.88342000  1.0
  Ni  Ni13  1  0.25000000  0.25000000  0.88342000  1.0
  Ni  Ni14  1  0.25000000  0.75000000  0.88342000  1.0
  Ni  Ni15  1  0.75000000  0.25000000  0.88342000  1.0
  Ni  Ni16  1  0.22454000  0.49851000  0.10905000  1.0
  Ni  Ni17  1  0.77529000  0.00043000  0.10896000  1.0
  Ni  Ni18  1  0.77545000  0.49850000  0.10904000  1.0
  Ni  Ni19  1  0.22473000  0.00043000  0.10898000  1.0
  Ni  Ni20  1  0.74328000  0.24975000  0.04019000  1.0
  Ni  Ni21  1  0.24779000  0.74971000  0.03945000  1.0
  Ni  Ni22  1  0.25674000  0.24976000  0.04021000  1.0
  Ni  Ni23  1  0.75219000  0.74972000  0.03943000  1.0
  Ge  Ge24  1  0.00000000  0.75000000  0.96114000  1.0
  Ge  Ge25  1  0.50000000  0.00000000  0.88342000  1.0
  Ge  Ge26  1  0.00000000  0.25000000  0.96114000  1.0
  Ge  Ge27  1  0.50000000  0.50000000  0.88342000  1.0
  Ge  Ge28  1  0.99998000  0.24922000  0.11898000  1.0
  Ge  Ge29  1  0.49999000  0.50263000  0.03902000  1.0
  Ge  Ge30  1  0.99998000  0.74960000  0.11830000  1.0
  Ge  Ge31  1  0.49996000  0.99685000  0.03885000  1.0
  C  C32  1  0.99908000  0.25506000  0.26768000  1.0
  O  O33  1  0.00024000  0.24852000  0.31115000  1.0
