# generated using pymatgen
data_V8Ga8Co16C
_symmetry_space_group_name_H-M   Pm
_cell_length_a   5.77968000
_cell_length_b   8.17370000
_cell_length_c   26.13030000
_cell_angle_alpha   90.00000000
_cell_angle_beta   90.00000000
_cell_angle_gamma   90.00000000
_symmetry_Int_Tables_number   6
_chemical_formula_structural   V8Ga8Co16C
_chemical_formula_sum   'V8 Ga8 Co16 C1'
_cell_volume   1234.43118138
_cell_formula_units_Z   1
loop_
 _symmetry_equiv_pos_site_id
 _symmetry_equiv_pos_as_xyz
  1  'x, y, z'
  2  'x, -y, z'
loop_
 _atom_site_type_symbol
 _atom_site_label
 _atom_site_symmetry_multiplicity
 _atom_site_fract_x
 _atom_site_fract_y
 _atom_site_fract_z
 _atom_site_occupancy
  V  V0  2  0.00000000  0.25001000  0.88270000  1.0
  V  V1  2  0.99601000  0.25156000  0.04063000  1.0
  V  V2  1  0.50000000  0.00000000  0.96090000  1.0
  V  V3  1  0.50000000  0.50000000  0.96090000  1.0
  V  V4  1  0.50425000  0.50000000  0.11604000  1.0
  V  V5  1  0.55617000  0.00000000  0.11321000  1.0
  Ga  Ga6  2  0.49577000  0.24786000  0.03893000  1.0
  Ga  Ga7  2  0.50000000  0.25001000  0.88270000  1.0
  Ga  Ga8  1  0.00000000  0.00000000  0.96090000  1.0
  Ga  Ga9  1  0.00000000  0.50000000  0.96090000  1.0
  Ga  Ga10  1  0.01121000  0.50000000  0.12524000  1.0
  Ga  Ga11  1  0.93565000  0.00000000  0.15281000  1.0
  Co  Co12  2  0.22113000  0.23492000  0.11249000  1.0
  Co  Co13  2  0.25000000  0.25001000  0.96090000  1.0
  Co  Co14  2  0.75000000  0.24999000  0.96090000  1.0
  Co  Co15  2  0.75135000  0.25682000  0.11355000  1.0
  Co  Co16  1  0.23300000  0.00000000  0.04338000  1.0
  Co  Co17  1  0.25000000  0.00000000  0.88270000  1.0
  Co  Co18  1  0.25000000  0.50000000  0.88270000  1.0
  Co  Co19  1  0.25209000  0.50000000  0.04036000  1.0
  Co  Co20  1  0.74864000  0.50000000  0.04109000  1.0
  Co  Co21  1  0.75000000  0.00000000  0.88270000  1.0
  Co  Co22  1  0.75000000  0.50000000  0.88270000  1.0
  Co  Co23  1  0.75417000  0.00000000  0.03684000  1.0
  C  C24  1  0.24386000  0.00000000  0.12350000  1.0
