data_image0
_chemical_formula_structural       In16Pd16CO
_chemical_formula_sum              "In16 Pd16 C1 O1"
_cell_length_a       6.68646
_cell_length_b       9.45609
_cell_length_c       27.0921
_cell_angle_alpha    90
_cell_angle_beta     90
_cell_angle_gamma    90

_space_group_name_H-M_alt    "P 1"
_space_group_IT_number       1

loop_
  _space_group_symop_operation_xyz
  'x, y, z'

loop_
  _atom_site_type_symbol
  _atom_site_label
  _atom_site_symmetry_multiplicity
  _atom_site_fract_x
  _atom_site_fract_y
  _atom_site_fract_z
  _atom_site_occupancy
  In  In1       1.0  0.00000  0.00000  0.86911  1.0000
  In  In2       1.0  0.00000  0.25000  0.95637  1.0000
  In  In3       1.0  0.00001  0.99856  0.04445  1.0000
  In  In4       1.0  0.00001  0.25000  0.13616  1.0000
  In  In5       1.0  0.00000  0.50000  0.86911  1.0000
  In  In6       1.0  0.00000  0.75000  0.95637  1.0000
  In  In7       1.0  0.00001  0.50144  0.04445  1.0000
  In  In8       1.0  0.00001  0.75000  0.13874  1.0000
  In  In9       1.0  0.50000  0.00000  0.86911  1.0000
  In  In10      1.0  0.50000  0.25000  0.95637  1.0000
  In  In11      1.0  0.50001  0.00063  0.04455  1.0000
  In  In12      1.0  0.50001  0.25000  0.13839  1.0000
  In  In13      1.0  0.50000  0.50000  0.86911  1.0000
  In  In14      1.0  0.50000  0.75000  0.95637  1.0000
  In  In15      1.0  0.50001  0.49937  0.04455  1.0000
  In  In16      1.0  0.50001  0.75000  0.13692  1.0000
  Pd  Pd1       1.0  0.25000  0.25000  0.86911  1.0000
  Pd  Pd2       1.0  0.25000  0.00000  0.95637  1.0000
  Pd  Pd3       1.0  0.24920  0.25000  0.04185  1.0000
  Pd  Pd4       1.0  0.24962  0.99993  0.12704  1.0000
  Pd  Pd5       1.0  0.25000  0.75000  0.86911  1.0000
  Pd  Pd6       1.0  0.25000  0.50000  0.95637  1.0000
  Pd  Pd7       1.0  0.25079  0.75000  0.04206  1.0000
  Pd  Pd8       1.0  0.24962  0.50007  0.12705  1.0000
  Pd  Pd9       1.0  0.75000  0.25000  0.86911  1.0000
  Pd  Pd10      1.0  0.75000  0.00000  0.95637  1.0000
  Pd  Pd11      1.0  0.75081  0.25000  0.04185  1.0000
  Pd  Pd12      1.0  0.75039  0.99993  0.12704  1.0000
  Pd  Pd13      1.0  0.75000  0.75000  0.86911  1.0000
  Pd  Pd14      1.0  0.75000  0.50000  0.95637  1.0000
  Pd  Pd15      1.0  0.74922  0.75000  0.04206  1.0000
  Pd  Pd16      1.0  0.75039  0.50007  0.12704  1.0000
  C   C1        1.0  0.99970  0.24999  0.27945  1.0000
  O   O1        1.0  0.00001  0.25000  0.32133  1.0000
