# generated using pymatgen
data_In16Pd16CO
_symmetry_space_group_name_H-M   'P 1'
_cell_length_a   9.45609000
_cell_length_b   6.68646000
_cell_length_c   27.09210000
_cell_angle_alpha   90.00000000
_cell_angle_beta   90.00000000
_cell_angle_gamma   90.00000000
_symmetry_Int_Tables_number   1
_chemical_formula_structural   In16Pd16CO
_chemical_formula_sum   'In16 Pd16 C1 O1'
_cell_volume   1712.97300101
_cell_formula_units_Z   1
loop_
 _symmetry_equiv_pos_site_id
 _symmetry_equiv_pos_as_xyz
  1  'x, y, z'
loop_
 _atom_site_type_symbol
 _atom_site_label
 _atom_site_symmetry_multiplicity
 _atom_site_fract_x
 _atom_site_fract_y
 _atom_site_fract_z
 _atom_site_occupancy
  In  In0  1  0.75001000  0.00000000  0.13089000  1.0
  In  In1  1  0.00000000  1.00000000  0.04363000  1.0
  In  In2  1  0.74857000  0.00001000  0.95555000  1.0
  In  In3  1  0.00000000  0.00001000  0.86384000  1.0
  In  In4  1  0.24999000  0.00000000  0.13089000  1.0
  In  In5  1  0.50000000  1.00000000  0.04363000  1.0
  In  In6  1  0.25143000  0.00001000  0.95555000  1.0
  In  In7  1  0.50000000  0.00001000  0.86126000  1.0
  In  In8  1  0.75001000  0.50000000  0.13089000  1.0
  In  In9  1  0.00000000  0.50000000  0.04363000  1.0
  In  In10  1  0.75064000  0.50001000  0.95545000  1.0
  In  In11  1  0.00000000  0.50001000  0.86161000  1.0
  In  In12  1  0.24999000  0.50000000  0.13089000  1.0
  In  In13  1  0.50000000  0.50000000  0.04363000  1.0
  In  In14  1  0.24936000  0.50001000  0.95545000  1.0
  In  In15  1  0.50000000  0.50001000  0.86308000  1.0
  Pd  Pd16  1  0.00000000  0.25000000  0.13089000  1.0
  Pd  Pd17  1  0.75001000  0.25000000  0.04363000  1.0
  Pd  Pd18  1  0.00000000  0.24920000  0.95815000  1.0
  Pd  Pd19  1  0.74994000  0.24962000  0.87296000  1.0
  Pd  Pd20  1  0.50000000  0.25000000  0.13089000  1.0
  Pd  Pd21  1  0.24999000  0.25000000  0.04363000  1.0
  Pd  Pd22  1  0.50000000  0.25079000  0.95794000  1.0
  Pd  Pd23  1  0.25006000  0.24962000  0.87296000  1.0
  Pd  Pd24  1  0.00000000  0.75000000  0.13089000  1.0
  Pd  Pd25  1  0.75001000  0.75000000  0.04363000  1.0
  Pd  Pd26  1  0.00000000  0.75081000  0.95815000  1.0
  Pd  Pd27  1  0.74994000  0.75039000  0.87296000  1.0
  Pd  Pd28  1  0.50000000  0.75000000  0.13089000  1.0
  Pd  Pd29  1  0.24999000  0.75000000  0.04363000  1.0
  Pd  Pd30  1  0.50000000  0.74922000  0.95794000  1.0
  Pd  Pd31  1  0.25006000  0.75039000  0.87296000  1.0
  C  C32  1  0.00000000  0.99970000  0.72055000  1.0
  O  O33  1  0.00000000  0.00001000  0.67867000  1.0
