# generated using pymatgen
data_Li8Mg8In8Pt8CO
_symmetry_space_group_name_H-M   'P 1'
_cell_length_a   9.19976000
_cell_length_b   6.50521000
_cell_length_c   26.89980000
_cell_angle_alpha   90.00000000
_cell_angle_beta   90.00000000
_cell_angle_gamma   90.00000000
_symmetry_Int_Tables_number   1
_chemical_formula_structural   Li8Mg8In8Pt8CO
_chemical_formula_sum   'Li8 Mg8 In8 Pt8 C1 O1'
_cell_volume   1609.85540389
_cell_formula_units_Z   1
loop_
 _symmetry_equiv_pos_site_id
 _symmetry_equiv_pos_as_xyz
  1  'x, y, z'
loop_
 _atom_site_type_symbol
 _atom_site_label
 _atom_site_symmetry_multiplicity
 _atom_site_fract_x
 _atom_site_fract_y
 _atom_site_fract_z
 _atom_site_occupancy
  Li  Li0  1  0.50000000  0.25000000  0.04275000  1.0
  Li  Li1  1  0.00000000  0.25000000  0.04275000  1.0
  Li  Li2  1  0.75001000  0.75000000  0.12825000  1.0
  Li  Li3  1  0.24999000  0.75000000  0.12825000  1.0
  Li  Li4  1  0.00000000  0.25634000  0.86727000  1.0
  Li  Li5  1  0.50000000  0.26901000  0.86753000  1.0
  Li  Li6  1  0.25024000  0.73747000  0.95539000  1.0
  Li  Li7  1  0.74976000  0.73747000  0.95539000  1.0
  Mg  Mg8  1  0.75001000  0.00000000  0.04275000  1.0
  Mg  Mg9  1  0.24999000  0.00000000  0.04275000  1.0
  Mg  Mg10  1  0.00000000  0.50000000  0.12825000  1.0
  Mg  Mg11  1  0.50000000  0.50000000  0.12825000  1.0
  Mg  Mg12  1  0.25141000  0.98143000  0.87123000  1.0
  Mg  Mg13  1  0.74859000  0.98143000  0.87123000  1.0
  Mg  Mg14  1  0.50000000  0.49280000  0.95873000  1.0
  Mg  Mg15  1  0.00000000  0.49451000  0.95771000  1.0
  In  In16  1  0.50000000  0.00000000  0.12825000  1.0
  In  In17  1  0.00000000  0.00000000  0.12825000  1.0
  In  In18  1  0.25001000  0.50000000  0.04275000  1.0
  In  In19  1  0.74999000  0.50000000  0.04275000  1.0
  In  In20  1  0.00000000  0.00474000  0.95758000  1.0
  In  In21  1  0.50000000  0.00390000  0.95706000  1.0
  In  In22  1  0.75298000  0.50750000  0.86127000  1.0
  In  In23  1  0.24702000  0.50750000  0.86127000  1.0
  Pt  Pt24  1  0.50000000  0.75000000  0.04275000  1.0
  Pt  Pt25  1  0.00000000  0.75000000  0.04275000  1.0
  Pt  Pt26  1  0.75001000  0.25000000  0.12825000  1.0
  Pt  Pt27  1  0.24999000  0.25000000  0.12825000  1.0
  Pt  Pt28  1  0.00000000  0.74329000  0.87845000  1.0
  Pt  Pt29  1  0.50000000  0.73102000  0.87970000  1.0
  Pt  Pt30  1  0.25067000  0.25401000  0.95466000  1.0
  Pt  Pt31  1  0.74933000  0.25401000  0.95466000  1.0
  C  C32  1  0.50000000  0.18127000  0.79424000  1.0
  O  O33  1  0.50000000  0.15016000  0.75228000  1.0
