# generated using pymatgen
data_Zr8Ni16Sb8CO
_symmetry_space_group_name_H-M   'P 1'
_cell_length_a   6.34024000
_cell_length_b   8.96645000
_cell_length_c   26.72480000
_cell_angle_alpha   90.00000000
_cell_angle_beta   90.00000000
_cell_angle_gamma   90.00000000
_symmetry_Int_Tables_number   1
_chemical_formula_structural   Zr8Ni16Sb8CO
_chemical_formula_sum   'Zr8 Ni16 Sb8 C1 O1'
_cell_volume   1519.29004635
_cell_formula_units_Z   1
loop_
 _symmetry_equiv_pos_site_id
 _symmetry_equiv_pos_as_xyz
  1  'x, y, z'
loop_
 _atom_site_type_symbol
 _atom_site_label
 _atom_site_symmetry_multiplicity
 _atom_site_fract_x
 _atom_site_fract_y
 _atom_site_fract_z
 _atom_site_occupancy
  Zr  Zr0  1  0.00000000  0.00000000  0.87418000  1.0
  Zr  Zr1  1  0.50000000  0.25000000  0.95806000  1.0
  Zr  Zr2  1  0.50000000  0.75000000  0.95806000  1.0
  Zr  Zr3  1  0.00000000  0.50000000  0.87418000  1.0
  Zr  Zr4  1  0.99882000  0.50000000  0.04093000  1.0
  Zr  Zr5  1  0.49944000  0.74928000  0.12560000  1.0
  Zr  Zr6  1  0.49942000  0.25072000  0.12561000  1.0
  Zr  Zr7  1  0.00372000  0.00002000  0.04162000  1.0
  Ni  Ni8  1  0.25000000  0.00000000  0.95806000  1.0
  Ni  Ni9  1  0.75000000  0.50000000  0.95806000  1.0
  Ni  Ni10  1  0.75000000  0.00000000  0.95806000  1.0
  Ni  Ni11  1  0.25000000  0.50000000  0.95806000  1.0
  Ni  Ni12  1  0.75000000  0.75000000  0.87418000  1.0
  Ni  Ni13  1  0.25000000  0.25000000  0.87418000  1.0
  Ni  Ni14  1  0.25000000  0.75000000  0.87418000  1.0
  Ni  Ni15  1  0.75000000  0.25000000  0.87418000  1.0
  Ni  Ni16  1  0.27903000  0.49999000  0.11780000  1.0
  Ni  Ni17  1  0.75059000  0.00001000  0.11546000  1.0
  Ni  Ni18  1  0.71680000  0.49999000  0.11779000  1.0
  Ni  Ni19  1  0.25643000  0.00000000  0.13034000  1.0
  Ni  Ni20  1  0.75648000  0.24831000  0.04645000  1.0
  Ni  Ni21  1  0.24506000  0.74970000  0.04875000  1.0
  Ni  Ni22  1  0.24518000  0.25032000  0.04874000  1.0
  Ni  Ni23  1  0.75665000  0.75170000  0.04645000  1.0
  Sb  Sb24  1  0.00000000  0.75000000  0.95806000  1.0
  Sb  Sb25  1  0.50000000  0.00000000  0.87418000  1.0
  Sb  Sb26  1  0.00000000  0.25000000  0.95806000  1.0
  Sb  Sb27  1  0.50000000  0.50000000  0.87418000  1.0
  Sb  Sb28  1  0.99314000  0.25931000  0.13318000  1.0
  Sb  Sb29  1  0.49852000  0.50002000  0.03790000  1.0
  Sb  Sb30  1  0.99313000  0.74069000  0.13320000  1.0
  Sb  Sb31  1  0.49455000  0.99998000  0.04088000  1.0
  C  C32  1  0.35826000  0.99999000  0.19140000  1.0
  O  O33  1  0.40252000  0.00000000  0.23379000  1.0
