# generated using pymatgen
data_Ti4Zn12C
_symmetry_space_group_name_H-M   'P 1'
_cell_length_a   5.57094000
_cell_length_b   7.87849000
_cell_length_c   24.17820000
_cell_angle_alpha   90.00000000
_cell_angle_beta   90.00000000
_cell_angle_gamma   90.00000000
_symmetry_Int_Tables_number   1
_chemical_formula_structural   Ti4Zn12C
_chemical_formula_sum   'Ti4 Zn12 C1'
_cell_volume   1061.19558598
_cell_formula_units_Z   1
loop_
 _symmetry_equiv_pos_site_id
 _symmetry_equiv_pos_as_xyz
  1  'x, y, z'
loop_
 _atom_site_type_symbol
 _atom_site_label
 _atom_site_symmetry_multiplicity
 _atom_site_fract_x
 _atom_site_fract_y
 _atom_site_fract_z
 _atom_site_occupancy
  Ti  Ti0  1  0.00000000  0.50000000  0.08640000  1.0
  Ti  Ti1  1  0.50000000  0.50000000  0.97559000  1.0
  Ti  Ti2  1  0.00000000  0.00000000  0.08640000  1.0
  Ti  Ti3  1  0.50000000  0.00000000  0.96982000  1.0
  Zn  Zn4  1  0.50000000  0.50000000  0.08640000  1.0
  Zn  Zn5  1  0.75000000  0.75001000  0.02880000  1.0
  Zn  Zn6  1  0.25000000  0.75001000  0.02880000  1.0
  Zn  Zn7  1  0.00000000  0.50000000  0.97446000  1.0
  Zn  Zn8  1  0.25847000  0.73072000  0.91151000  1.0
  Zn  Zn9  1  0.74153000  0.73072000  0.91151000  1.0
  Zn  Zn10  1  0.50000000  0.00000000  0.08640000  1.0
  Zn  Zn11  1  0.75000000  0.24999000  0.02880000  1.0
  Zn  Zn12  1  0.25000000  0.24999000  0.02880000  1.0
  Zn  Zn13  1  0.00000000  0.00000000  0.94940000  1.0
  Zn  Zn14  1  0.25847000  0.26928000  0.91151000  1.0
  Zn  Zn15  1  0.74153000  0.26928000  0.91151000  1.0
  C  C16  1  0.50000000  0.50000000  0.89744000  1.0
