# generated using pymatgen
data_LiCaGePd
_symmetry_space_group_name_H-M   'P 1'
_cell_length_a   6.62107000
_cell_length_b   4.68180000
_cell_length_c   27.02270000
_cell_angle_alpha   90.00000000
_cell_angle_beta   90.00000000
_cell_angle_gamma   90.00000000
_symmetry_Int_Tables_number   1
_chemical_formula_structural   LiCaGePd
_chemical_formula_sum   'Li4 Ca4 Ge4 Pd4'
_cell_volume   837.66385573
_cell_formula_units_Z   4
loop_
 _symmetry_equiv_pos_site_id
 _symmetry_equiv_pos_as_xyz
  1  'x, y, z'
loop_
 _atom_site_type_symbol
 _atom_site_label
 _atom_site_symmetry_multiplicity
 _atom_site_fract_x
 _atom_site_fract_y
 _atom_site_fract_z
 _atom_site_occupancy
  Li  Li0  1  0.25000000  0.00000000  0.95669000  1.0
  Li  Li1  1  0.75000000  0.50000000  0.87006000  1.0
  Li  Li2  1  0.17125000  0.00000000  0.14462000  1.0
  Li  Li3  1  0.72483500  0.50000000  0.05174500  1.0
  Ca  Ca4  1  0.00000000  0.00000000  0.87006000  1.0
  Ca  Ca5  1  0.50000000  0.50000000  0.95669000  1.0
  Ca  Ca6  1  0.02386000  0.00000000  0.04146000  1.0
  Ca  Ca7  1  0.53385000  0.50000000  0.15222500  1.0
  Ge  Ge8  1  0.00000000  0.50000000  0.95669000  1.0
  Ge  Ge9  1  0.50000000  0.00000000  0.87006000  1.0
  Ge  Ge10  1  0.99327500  0.50000000  0.12790000  1.0
  Ge  Ge11  1  0.50420000  0.00000000  0.05068000  1.0
  Pd  Pd12  1  0.75000000  0.00000000  0.95669000  1.0
  Pd  Pd13  1  0.25000000  0.50000000  0.87006000  1.0
  Pd  Pd14  1  0.77505000  0.00000000  0.12260000  1.0
  Pd  Pd15  1  0.29888000  0.50000000  0.06407500  1.0
