# generated using pymatgen
data_Nb8Ga8Co16CO
_symmetry_space_group_name_H-M   'P 1'
_cell_length_a   5.97844000
_cell_length_b   8.45478000
_cell_length_c   26.34110000
_cell_angle_alpha   90.00000000
_cell_angle_beta   90.00000000
_cell_angle_gamma   90.00000000
_symmetry_Int_Tables_number   1
_chemical_formula_structural   Nb8Ga8Co16CO
_chemical_formula_sum   'Nb8 Ga8 Co16 C1 O1'
_cell_volume   1331.44764384
_cell_formula_units_Z   1
loop_
 _symmetry_equiv_pos_site_id
 _symmetry_equiv_pos_as_xyz
  1  'x, y, z'
loop_
 _atom_site_type_symbol
 _atom_site_label
 _atom_site_symmetry_multiplicity
 _atom_site_fract_x
 _atom_site_fract_y
 _atom_site_fract_z
 _atom_site_occupancy
  Nb  Nb0  1  0.00000000  0.75000000  0.87964000  1.0
  Nb  Nb1  1  0.50000000  0.00000000  0.95988000  1.0
  Nb  Nb2  1  0.50000000  0.50000000  0.95988000  1.0
  Nb  Nb3  1  0.00000000  0.25000000  0.87964000  1.0
  Nb  Nb4  1  0.00000000  0.25041000  0.04147000  1.0
  Nb  Nb5  1  0.50000000  0.50000000  0.12016000  1.0
  Nb  Nb6  1  0.50000000  0.00000000  0.11988000  1.0
  Nb  Nb7  1  0.00000000  0.74959000  0.04147000  1.0
  Ga  Ga8  1  0.00000000  0.50000000  0.95988000  1.0
  Ga  Ga9  1  0.50000000  0.75000000  0.87964000  1.0
  Ga  Ga10  1  0.00000000  0.00000000  0.95988000  1.0
  Ga  Ga11  1  0.50000000  0.25000000  0.87964000  1.0
  Ga  Ga12  1  0.00000000  0.00000000  0.11855000  1.0
  Ga  Ga13  1  0.50000000  0.24998000  0.04065000  1.0
  Ga  Ga14  1  0.00000000  0.50000000  0.12142000  1.0
  Ga  Ga15  1  0.50000000  0.75002000  0.04065000  1.0
  Co  Co16  1  0.25000000  0.75000000  0.95988000  1.0
  Co  Co17  1  0.75000000  0.25000000  0.95988000  1.0
  Co  Co18  1  0.75000000  0.75000000  0.95988000  1.0
  Co  Co19  1  0.25000000  0.25000000  0.95988000  1.0
  Co  Co20  1  0.75000000  0.50000000  0.87964000  1.0
  Co  Co21  1  0.25000000  0.00000000  0.87964000  1.0
  Co  Co22  1  0.25000000  0.50000000  0.87964000  1.0
  Co  Co23  1  0.75000000  0.00000000  0.87964000  1.0
  Co  Co24  1  0.25108000  0.25053000  0.11876000  1.0
  Co  Co25  1  0.74892000  0.74947000  0.11876000  1.0
  Co  Co26  1  0.74892000  0.25053000  0.11876000  1.0
  Co  Co27  1  0.25108000  0.74947000  0.11876000  1.0
  Co  Co28  1  0.74828000  0.00000000  0.04046000  1.0
  Co  Co29  1  0.25223000  0.50000000  0.04029000  1.0
  Co  Co30  1  0.25172000  0.00000000  0.04046000  1.0
  Co  Co31  1  0.74777000  0.50000000  0.04029000  1.0
  C  C32  1  0.00000000  0.00000000  0.19402000  1.0
  O  O33  1  0.00000000  0.00000000  0.23772000  1.0
