# generated using pymatgen
data_FeCo2Si
_symmetry_space_group_name_H-M   Pmmn
_cell_length_a   3.99169000
_cell_length_b   5.64511000
_cell_length_c   25.98750000
_cell_angle_alpha   90.00000000
_cell_angle_beta   90.00000000
_cell_angle_gamma   90.00000000
_symmetry_Int_Tables_number   59
_chemical_formula_structural   FeCo2Si
_chemical_formula_sum   'Fe4 Co8 Si4'
_cell_volume   585.59008842
_cell_formula_units_Z   4
loop_
 _symmetry_equiv_pos_site_id
 _symmetry_equiv_pos_as_xyz
  1  'x, y, z'
  2  '-x, -y, z'
  3  'x+1/2, -y+1/2, -z'
  4  '-x+1/2, y+1/2, -z'
  5  '-x+1/2, -y+1/2, -z'
  6  'x+1/2, y+1/2, -z'
  7  '-x, y, z'
  8  'x, -y, z'
loop_
 _atom_site_type_symbol
 _atom_site_label
 _atom_site_symmetry_multiplicity
 _atom_site_fract_x
 _atom_site_fract_y
 _atom_site_fract_z
 _atom_site_occupancy
  Fe  Fe0  2  0.00000000  0.00000000  0.11520000  1.0
  Fe  Fe1  2  0.00000000  0.00000000  0.96160000  1.0
  Co  Co2  4  0.00000000  0.25000000  0.03840000  1.0
  Co  Co3  4  0.00000000  0.25000000  0.88480000  1.0
  Si  Si4  2  0.00000000  0.50000000  0.11520000  1.0
  Si  Si5  2  0.00000000  0.50000000  0.96160000  1.0
