data_image0
_chemical_formula_structural       Ga16Ni16CO
_chemical_formula_sum              "Ga16 Ni16 C1 O1"
_cell_length_a       5.87849
_cell_length_b       8.31345
_cell_length_c       26.2351
_cell_angle_alpha    90
_cell_angle_beta     90
_cell_angle_gamma    90

_space_group_name_H-M_alt    "P 1"
_space_group_IT_number       1

loop_
  _space_group_symop_operation_xyz
  'x, y, z'

loop_
  _atom_site_type_symbol
  _atom_site_label
  _atom_site_symmetry_multiplicity
  _atom_site_fract_x
  _atom_site_fract_y
  _atom_site_fract_z
  _atom_site_occupancy
  Ga  Ga1       1.0  0.00000  0.00000  0.88117  1.0000
  Ga  Ga2       1.0  0.00000  0.25000  0.96039  1.0000
  Ga  Ga3       1.0  0.00000  0.99925  0.03935  1.0000
  Ga  Ga4       1.0  0.00001  0.24994  0.12250  1.0000
  Ga  Ga5       1.0  0.00000  0.50000  0.88117  1.0000
  Ga  Ga6       1.0  0.00000  0.75000  0.96039  1.0000
  Ga  Ga7       1.0  0.99999  0.50088  0.03950  1.0000
  Ga  Ga8       1.0  0.00001  0.74992  0.12695  1.0000
  Ga  Ga9       1.0  0.50000  0.00000  0.88117  1.0000
  Ga  Ga10      1.0  0.50000  0.25000  0.96039  1.0000
  Ga  Ga11      1.0  0.49998  0.99909  0.03888  1.0000
  Ga  Ga12      1.0  0.49999  0.24995  0.12545  1.0000
  Ga  Ga13      1.0  0.50000  0.50000  0.88117  1.0000
  Ga  Ga14      1.0  0.50000  0.75000  0.96039  1.0000
  Ga  Ga15      1.0  0.50002  0.50095  0.03905  1.0000
  Ga  Ga16      1.0  0.49999  0.74980  0.12441  1.0000
  Ni  Ni1       1.0  0.25000  0.25000  0.88117  1.0000
  Ni  Ni2       1.0  0.25000  0.00000  0.96039  1.0000
  Ni  Ni3       1.0  0.25132  0.24994  0.03829  1.0000
  Ni  Ni4       1.0  0.25047  0.99918  0.11396  1.0000
  Ni  Ni5       1.0  0.25000  0.75000  0.88117  1.0000
  Ni  Ni6       1.0  0.25000  0.50000  0.96039  1.0000
  Ni  Ni7       1.0  0.24940  0.75005  0.03831  1.0000
  Ni  Ni8       1.0  0.25026  0.50057  0.11417  1.0000
  Ni  Ni9       1.0  0.75000  0.25000  0.88117  1.0000
  Ni  Ni10      1.0  0.75000  0.00000  0.96039  1.0000
  Ni  Ni11      1.0  0.74871  0.24993  0.03830  1.0000
  Ni  Ni12      1.0  0.74953  0.99918  0.11396  1.0000
  Ni  Ni13      1.0  0.75000  0.75000  0.88117  1.0000
  Ni  Ni14      1.0  0.75000  0.50000  0.96039  1.0000
  Ni  Ni15      1.0  0.75059  0.75009  0.03832  1.0000
  Ni  Ni16      1.0  0.74975  0.50057  0.11418  1.0000
  C   C1        1.0  0.00003  0.24967  0.22139  1.0000
  O   O1        1.0  0.99999  0.25028  0.26475  1.0000
