# generated using pymatgen
data_Ga16Ni16CO
_symmetry_space_group_name_H-M   Pm
_cell_length_a   8.31345000
_cell_length_b   5.87849000
_cell_length_c   26.23510000
_cell_angle_alpha   90.00000000
_cell_angle_beta   90.00000000
_cell_angle_gamma   90.00000000
_symmetry_Int_Tables_number   6
_chemical_formula_structural   Ga16Ni16CO
_chemical_formula_sum   'Ga16 Ni16 C1 O1'
_cell_volume   1282.12331219
_cell_formula_units_Z   1
loop_
 _symmetry_equiv_pos_site_id
 _symmetry_equiv_pos_as_xyz
  1  'x, y, z'
  2  'x, -y, z'
loop_
 _atom_site_type_symbol
 _atom_site_label
 _atom_site_symmetry_multiplicity
 _atom_site_fract_x
 _atom_site_fract_y
 _atom_site_fract_z
 _atom_site_occupancy
  Ga  Ga0  1  0.00000000  0.00000000  0.88117000  1.0
  Ga  Ga1  1  0.00000000  0.50000000  0.88117000  1.0
  Ga  Ga2  1  0.24994000  0.50000000  0.12250000  1.0
  Ga  Ga3  1  0.24995000  0.00000000  0.12545000  1.0
  Ga  Ga4  1  0.25000000  0.00000000  0.96039000  1.0
  Ga  Ga5  1  0.25000000  0.50000000  0.96039000  1.0
  Ga  Ga6  1  0.50000000  0.00000000  0.88117000  1.0
  Ga  Ga7  1  0.50000000  0.50000000  0.88117000  1.0
  Ga  Ga8  1  0.50088000  0.50000000  0.03950000  1.0
  Ga  Ga9  1  0.50095000  0.00000000  0.03905000  1.0
  Ga  Ga10  1  0.74980000  0.00000000  0.12441000  1.0
  Ga  Ga11  1  0.74992000  0.50000000  0.12695000  1.0
  Ga  Ga12  1  0.75000000  0.00000000  0.96039000  1.0
  Ga  Ga13  1  0.75000000  0.50000000  0.96039000  1.0
  Ga  Ga14  1  0.99909000  0.00000000  0.03888000  1.0
  Ga  Ga15  1  0.99925000  0.50000000  0.03935000  1.0
  Ni  Ni16  2  0.00000000  0.25003000  0.96039000  1.0
  Ni  Ni17  2  0.24994000  0.24871000  0.03829000  1.0
  Ni  Ni18  2  0.25000000  0.25003000  0.88117000  1.0
  Ni  Ni19  2  0.50000000  0.25003000  0.96039000  1.0
  Ni  Ni20  2  0.50057000  0.24977000  0.11417000  1.0
  Ni  Ni21  2  0.75000000  0.25003000  0.88117000  1.0
  Ni  Ni22  2  0.75005000  0.25063000  0.03831000  1.0
  Ni  Ni23  2  0.99918000  0.24956000  0.11396000  1.0
  C  C24  1  0.24967000  0.50000000  0.22139000  1.0
  O  O25  1  0.25028000  0.50000000  0.26475000  1.0
