# generated using pymatgen
data_Fe8Pd8C
_symmetry_space_group_name_H-M   'P 1'
_cell_length_a   5.49166000
_cell_length_b   5.49166000
_cell_length_c   25.68790000
_cell_angle_alpha   90.00000000
_cell_angle_beta   90.00000000
_cell_angle_gamma   90.00000000
_symmetry_Int_Tables_number   1
_chemical_formula_structural   Fe8Pd8C
_chemical_formula_sum   'Fe8 Pd8 C1'
_cell_volume   774.70415379
_cell_formula_units_Z   1
loop_
 _symmetry_equiv_pos_site_id
 _symmetry_equiv_pos_as_xyz
  1  'x, y, z'
loop_
 _atom_site_type_symbol
 _atom_site_label
 _atom_site_symmetry_multiplicity
 _atom_site_fract_x
 _atom_site_fract_y
 _atom_site_fract_z
 _atom_site_occupancy
  Fe  Fe0  1  0.00000000  0.00000000  0.87779000  1.0
  Fe  Fe1  1  0.00000000  0.00000000  0.02540000  1.0
  Fe  Fe2  1  0.00000000  0.50000000  0.87779000  1.0
  Fe  Fe3  1  0.00000000  0.50000000  0.02540000  1.0
  Fe  Fe4  1  0.50000000  0.00000000  0.87779000  1.0
  Fe  Fe5  1  0.50000000  0.00000000  0.02540000  1.0
  Fe  Fe6  1  0.50000000  0.50000000  0.87779000  1.0
  Fe  Fe7  1  0.50000000  0.50000000  0.02540000  1.0
  Pd  Pd8  1  0.25000000  0.25000000  0.95159000  1.0
  Pd  Pd9  1  0.25000000  0.25000000  0.09921000  1.0
  Pd  Pd10  1  0.25000000  0.75000000  0.95159000  1.0
  Pd  Pd11  1  0.25000000  0.75000000  0.09921000  1.0
  Pd  Pd12  1  0.75000000  0.25000000  0.95159000  1.0
  Pd  Pd13  1  0.75000000  0.25000000  0.09921000  1.0
  Pd  Pd14  1  0.75000000  0.75000000  0.95159000  1.0
  Pd  Pd15  1  0.75000000  0.75000000  0.09921000  1.0
  C  C16  1  0.00000000  0.00000000  0.13035000  1.0
