# generated using pymatgen
data_LiYCuPd
_symmetry_space_group_name_H-M   'P 1'
_cell_length_a   6.67076000
_cell_length_b   4.71694000
_cell_length_c   27.07540000
_cell_angle_alpha   90.00000000
_cell_angle_beta   90.00000000
_cell_angle_gamma   90.00000000
_symmetry_Int_Tables_number   1
_chemical_formula_structural   LiYCuPd
_chemical_formula_sum   'Li4 Y4 Cu4 Pd4'
_cell_volume   851.94302054
_cell_formula_units_Z   4
loop_
 _symmetry_equiv_pos_site_id
 _symmetry_equiv_pos_as_xyz
  1  'x, y, z'
loop_
 _atom_site_type_symbol
 _atom_site_label
 _atom_site_symmetry_multiplicity
 _atom_site_fract_x
 _atom_site_fract_y
 _atom_site_fract_z
 _atom_site_occupancy
  Li  Li0  1  0.75000000  0.00000000  0.95645000  1.0
  Li  Li1  1  0.25000000  0.50000000  0.86934000  1.0
  Li  Li2  1  0.74930500  0.00000000  0.13019000  1.0
  Li  Li3  1  0.24462500  0.50000000  0.04785000  1.0
  Y  Y4  1  0.25000000  0.00000000  0.95645000  1.0
  Y  Y5  1  0.75000000  0.50000000  0.86934000  1.0
  Y  Y6  1  0.24276500  0.00000000  0.13515500  1.0
  Y  Y7  1  0.74755000  0.50000000  0.04183000  1.0
  Cu  Cu8  1  1.00000000  0.00000000  0.86934000  1.0
  Cu  Cu9  1  0.50000000  0.50000000  0.95645000  1.0
  Cu  Cu10  1  0.01471000  0.00000000  0.04707500  1.0
  Cu  Cu11  1  0.51965000  0.50000000  0.12920000  1.0
  Pd  Pd12  1  1.00000000  0.50000000  0.95645000  1.0
  Pd  Pd13  1  0.50000000  0.00000000  0.86934000  1.0
  Pd  Pd14  1  0.98159000  0.50000000  0.12731000  1.0
  Pd  Pd15  1  0.48064500  0.00000000  0.04911500  1.0
