# generated using pymatgen
data_Li8Mg8In8Ge8CO
_symmetry_space_group_name_H-M   Pmm2
_cell_length_a   8.41850000
_cell_length_b   8.75068000
_cell_length_c   26.30740000
_cell_angle_alpha   90.00000000
_cell_angle_beta   90.00000000
_cell_angle_gamma   90.00000000
_symmetry_Int_Tables_number   25
_chemical_formula_structural   Li8Mg8In8Ge8CO
_chemical_formula_sum   'Li8 Mg8 In8 Ge8 C1 O1'
_cell_volume   1938.00300919
_cell_formula_units_Z   1
loop_
 _symmetry_equiv_pos_site_id
 _symmetry_equiv_pos_as_xyz
  1  'x, y, z'
  2  '-x, -y, z'
  3  '-x, y, z'
  4  'x, -y, z'
loop_
 _atom_site_type_symbol
 _atom_site_label
 _atom_site_symmetry_multiplicity
 _atom_site_fract_x
 _atom_site_fract_y
 _atom_site_fract_z
 _atom_site_occupancy
  Li  Li0  2  0.00000000  0.25000000  0.11988000  1.0
  Li  Li1  2  0.00000000  0.25585000  0.95980000  1.0
  Li  Li2  2  0.50000000  0.25000000  0.11988000  1.0
  Li  Li3  2  0.50000000  0.25126000  0.95574000  1.0
  Mg  Mg4  2  0.23571000  0.00000000  0.95752000  1.0
  Mg  Mg5  2  0.24999000  0.00000000  0.11988000  1.0
  Mg  Mg6  2  0.24999000  0.50000000  0.11988000  1.0
  Mg  Mg7  2  0.26027000  0.50000000  0.95796000  1.0
  In  In8  4  0.23390000  0.26269000  0.86235000  1.0
  In  In9  4  0.24999000  0.25000000  0.03996000  1.0
  Ge  Ge10  1  0.00000000  0.00000000  0.03996000  1.0
  Ge  Ge11  1  0.00000000  0.00000000  0.88067000  1.0
  Ge  Ge12  1  0.00000000  0.50000000  0.03996000  1.0
  Ge  Ge13  1  0.00000000  0.50000000  0.89158000  1.0
  Ge  Ge14  1  0.50000000  0.00000000  0.03996000  1.0
  Ge  Ge15  1  0.50000000  0.00000000  0.89210000  1.0
  Ge  Ge16  1  0.50000000  0.50000000  0.03996000  1.0
  Ge  Ge17  1  0.50000000  0.50000000  0.87861000  1.0
  C  C18  1  0.50000000  0.00000000  0.81901000  1.0
  O  O19  1  0.50000000  0.00000000  0.77474000  1.0
