# generated using pymatgen
data_Ta8Al8Ni16CO
_symmetry_space_group_name_H-M   Pmm2
_cell_length_a   5.99379000
_cell_length_b   8.47650000
_cell_length_c   26.35740000
_cell_angle_alpha   90.00000000
_cell_angle_beta   90.00000000
_cell_angle_gamma   90.00000000
_symmetry_Int_Tables_number   25
_chemical_formula_structural   Ta8Al8Ni16CO
_chemical_formula_sum   'Ta8 Al8 Ni16 C1 O1'
_cell_volume   1339.12357771
_cell_formula_units_Z   1
loop_
 _symmetry_equiv_pos_site_id
 _symmetry_equiv_pos_as_xyz
  1  'x, y, z'
  2  '-x, -y, z'
  3  '-x, y, z'
  4  'x, -y, z'
loop_
 _atom_site_type_symbol
 _atom_site_label
 _atom_site_symmetry_multiplicity
 _atom_site_fract_x
 _atom_site_fract_y
 _atom_site_fract_z
 _atom_site_occupancy
  Ta  Ta0  2  0.00000000  0.25000000  0.87940000  1.0
  Ta  Ta1  2  0.00000000  0.25229000  0.04064000  1.0
  Ta  Ta2  1  0.50000000  0.00000000  0.11897000  1.0
  Ta  Ta3  1  0.50000000  0.00000000  0.95980000  1.0
  Ta  Ta4  1  0.50000000  0.50000000  0.12147000  1.0
  Ta  Ta5  1  0.50000000  0.50000000  0.95980000  1.0
  Al  Al6  2  0.50000000  0.24801000  0.03883000  1.0
  Al  Al7  2  0.50000000  0.25000000  0.87940000  1.0
  Al  Al8  1  0.00000000  0.00000000  0.12279000  1.0
  Al  Al9  1  0.00000000  0.00000000  0.95980000  1.0
  Al  Al10  1  0.00000000  0.50000000  0.12177000  1.0
  Al  Al11  1  0.00000000  0.50000000  0.95980000  1.0
  Ni  Ni12  4  0.25000000  0.25000000  0.95980000  1.0
  Ni  Ni13  4  0.26106000  0.25192000  0.11478000  1.0
  Ni  Ni14  2  0.24463000  0.00000000  0.04261000  1.0
  Ni  Ni15  2  0.25000000  0.00000000  0.87940000  1.0
  Ni  Ni16  2  0.25000000  0.50000000  0.87940000  1.0
  Ni  Ni17  2  0.26124000  0.50000000  0.04203000  1.0
  C  C18  1  0.00000000  0.00000000  0.19867000  1.0
  O  O19  1  0.00000000  0.00000000  0.24239000  1.0
