# generated using pymatgen
data_Li2GaIr
_symmetry_space_group_name_H-M   'P 1'
_cell_length_a   6.01864000
_cell_length_b   4.25582000
_cell_length_c   26.38370000
_cell_angle_alpha   90.00000000
_cell_angle_beta   90.00000000
_cell_angle_gamma   90.00000000
_symmetry_Int_Tables_number   1
_chemical_formula_structural   Li2GaIr
_chemical_formula_sum   'Li8 Ga4 Ir4'
_cell_volume   675.79864775
_cell_formula_units_Z   4
loop_
 _symmetry_equiv_pos_site_id
 _symmetry_equiv_pos_as_xyz
  1  'x, y, z'
loop_
 _atom_site_type_symbol
 _atom_site_label
 _atom_site_symmetry_multiplicity
 _atom_site_fract_x
 _atom_site_fract_y
 _atom_site_fract_z
 _atom_site_occupancy
  Li  Li0  1  0.00000000  0.50000000  0.95967000  1.0
  Li  Li1  1  0.50000000  0.00000000  0.87902000  1.0
  Li  Li2  1  0.75000000  0.00000000  0.95967000  1.0
  Li  Li3  1  0.25000000  0.50000000  0.87902000  1.0
  Li  Li4  1  0.00590500  0.50000000  0.12068000  1.0
  Li  Li5  1  0.51133000  0.00000000  0.03910000  1.0
  Li  Li6  1  0.72681000  0.00000000  0.13811000  1.0
  Li  Li7  1  0.24783000  0.50000000  0.03809000  1.0
  Ga  Ga8  1  0.75000000  0.50000000  0.87902000  1.0
  Ga  Ga9  1  0.25000000  0.00000000  0.95967000  1.0
  Ga  Ga10  1  0.75416000  0.50000000  0.03879000  1.0
  Ga  Ga11  1  0.27386000  0.00000000  0.11910000  1.0
  Ir  Ir12  1  0.00000000  0.00000000  0.87902000  1.0
  Ir  Ir13  1  0.50000000  0.50000000  0.95967000  1.0
  Ir  Ir14  1  0.99424000  0.00000000  0.04535000  1.0
  Ir  Ir15  1  0.49764000  0.50000000  0.11369000  1.0
