# generated using pymatgen
data_Li8Y8In8Ag8CO
_symmetry_space_group_name_H-M   P1
_cell_length_a   6.90709000
_cell_length_b   9.76810000
_cell_length_c   27.32610000
_cell_angle_alpha   90.00000000
_cell_angle_beta   90.00000000
_cell_angle_gamma   90.00000000
_symmetry_Int_Tables_number   1
_chemical_formula_structural   Li8Y8In8Ag8CO
_chemical_formula_sum   'Li8 Y8 In8 Ag8 C1 O1'
_cell_volume   1843.66862584
_cell_formula_units_Z   1
loop_
 _symmetry_equiv_pos_site_id
 _symmetry_equiv_pos_as_xyz
  1  'x, y, z'
loop_
 _atom_site_type_symbol
 _atom_site_label
 _atom_site_symmetry_multiplicity
 _atom_site_fract_x
 _atom_site_fract_y
 _atom_site_fract_z
 _atom_site_occupancy
  Li  Li0  1  0.00000000  0.25000000  0.95532000  1.0
  Li  Li1  1  0.00000000  0.75000000  0.95532000  1.0
  Li  Li2  1  0.13315000  0.24054000  0.18000000  1.0
  Li  Li3  1  0.13361000  0.75989000  0.18036000  1.0
  Li  Li4  1  0.50000000  0.00000000  0.86595000  1.0
  Li  Li5  1  0.50000000  0.50000000  0.86595000  1.0
  Li  Li6  1  0.51723000  0.50028000  0.04951000  1.0
  Li  Li7  1  0.52038000  0.00024000  0.04741000  1.0
  Y  Y8  1  0.24886000  0.74864000  0.05143000  1.0
  Y  Y9  1  0.24914000  0.25170000  0.05138000  1.0
  Y  Y10  1  0.25000000  0.25000000  0.86595000  1.0
  Y  Y11  1  0.25000000  0.75000000  0.86595000  1.0
  Y  Y12  1  0.75000000  0.00000000  0.95532000  1.0
  Y  Y13  1  0.75000000  0.50000000  0.95532000  1.0
  Y  Y14  1  0.79630000  0.50017000  0.13674000  1.0
  Y  Y15  1  0.80162000  0.99990000  0.13667000  1.0
  In  In16  1  0.25000000  0.00000000  0.95532000  1.0
  In  In17  1  0.25000000  0.50000000  0.95532000  1.0
  In  In18  1  0.26686000  0.50008000  0.13726000  1.0
  In  In19  1  0.27734000  0.00020000  0.13123000  1.0
  In  In20  1  0.75000000  0.25000000  0.86595000  1.0
  In  In21  1  0.75000000  0.75000000  0.86595000  1.0
  In  In22  1  0.75754000  0.75034000  0.04513000  1.0
  In  In23  1  0.75764000  0.25002000  0.04515000  1.0
  Ag  Ag24  1  0.00000000  0.00000000  0.86595000  1.0
  Ag  Ag25  1  0.00000000  0.50000000  0.86595000  1.0
  Ag  Ag26  1  0.00220000  0.50020000  0.04299000  1.0
  Ag  Ag27  1  0.00623000  0.00030000  0.04120000  1.0
  Ag  Ag28  1  0.50000000  0.25000000  0.95532000  1.0
  Ag  Ag29  1  0.50000000  0.75000000  0.95532000  1.0
  Ag  Ag30  1  0.52338000  0.74868000  0.13586000  1.0
  Ag  Ag31  1  0.52366000  0.25142000  0.13582000  1.0
  C  C32  1  0.95716000  0.99876000  0.21435000  1.0
  O  O33  1  0.01503000  0.99859000  0.25490000  1.0
