# generated using pymatgen
data_Li8Ga8Ge8Pd8C
_symmetry_space_group_name_H-M   Pm
_cell_length_a   6.27488000
_cell_length_b   8.87402000
_cell_length_c   26.65550000
_cell_angle_alpha   90.00000000
_cell_angle_beta   90.00000000
_cell_angle_gamma   90.00000000
_symmetry_Int_Tables_number   6
_chemical_formula_structural   Li8Ga8Ge8Pd8C
_chemical_formula_sum   'Li8 Ga8 Ge8 Pd8 C1'
_cell_volume   1484.26915172
_cell_formula_units_Z   1
loop_
 _symmetry_equiv_pos_site_id
 _symmetry_equiv_pos_as_xyz
  1  'x, y, z'
  2  'x, -y, z'
loop_
 _atom_site_type_symbol
 _atom_site_label
 _atom_site_symmetry_multiplicity
 _atom_site_fract_x
 _atom_site_fract_y
 _atom_site_fract_z
 _atom_site_occupancy
  Li  Li0  2  0.75000000  0.25000000  0.95839000  1.0
  Li  Li1  2  0.76727000  0.23985000  0.13767000  1.0
  Li  Li2  1  0.22045000  0.00000000  0.04707000  1.0
  Li  Li3  1  0.25000000  0.00000000  0.87516000  1.0
  Li  Li4  1  0.25000000  0.50000000  0.87516000  1.0
  Li  Li5  1  0.26254000  0.50000000  0.04234000  1.0
  Ga  Ga6  2  0.00000000  0.25000000  0.87516000  1.0
  Ga  Ga7  2  0.99025000  0.25869000  0.04266000  1.0
  Ga  Ga8  1  0.47257000  0.00000000  0.12669000  1.0
  Ga  Ga9  1  0.49976000  0.50000000  0.13262000  1.0
  Ga  Ga10  1  0.50000000  0.00000000  0.95839000  1.0
  Ga  Ga11  1  0.50000000  0.50000000  0.95839000  1.0
  Ge  Ge12  2  0.50000000  0.25000000  0.87516000  1.0
  Ge  Ge13  2  0.50748000  0.24666000  0.04406000  1.0
  Ge  Ge14  1  0.00000000  0.00000000  0.95839000  1.0
  Ge  Ge15  1  0.00000000  0.50000000  0.95839000  1.0
  Ge  Ge16  1  0.04841000  0.00000000  0.16237000  1.0
  Ge  Ge17  1  0.99572000  0.50000000  0.12494000  1.0
  Pd  Pd18  2  0.24860000  0.25334000  0.11847000  1.0
  Pd  Pd19  2  0.25000000  0.25000000  0.95839000  1.0
  Pd  Pd20  1  0.74083000  0.50000000  0.03623000  1.0
  Pd  Pd21  1  0.75000000  0.00000000  0.87516000  1.0
  Pd  Pd22  1  0.75000000  0.50000000  0.87516000  1.0
  Pd  Pd23  1  0.76357000  0.00000000  0.04153000  1.0
  C  C24  1  0.78276000  0.00000000  0.12751000  1.0
