# generated using pymatgen
data_Li16Ge8Au8CO
_symmetry_space_group_name_H-M   'P 1'
_cell_length_a   8.92302000
_cell_length_b   6.30953000
_cell_length_c   26.69230000
_cell_angle_alpha   90.00000000
_cell_angle_beta   90.00000000
_cell_angle_gamma   90.00000000
_symmetry_Int_Tables_number   1
_chemical_formula_structural   Li16Ge8Au8CO
_chemical_formula_sum   'Li16 Ge8 Au8 C1 O1'
_cell_volume   1502.77815508
_cell_formula_units_Z   1
loop_
 _symmetry_equiv_pos_site_id
 _symmetry_equiv_pos_as_xyz
  1  'x, y, z'
loop_
 _atom_site_type_symbol
 _atom_site_label
 _atom_site_symmetry_multiplicity
 _atom_site_fract_x
 _atom_site_fract_y
 _atom_site_fract_z
 _atom_site_occupancy
  Li  Li0  1  0.50000000  1.00000000  0.04179000  1.0
  Li  Li1  1  0.75000000  0.50000000  0.12536000  1.0
  Li  Li2  1  0.00000000  0.00000000  0.04179000  1.0
  Li  Li3  1  0.25000000  0.50000000  0.12536000  1.0
  Li  Li4  1  0.00000000  0.25000000  0.12536000  1.0
  Li  Li5  1  0.50000000  0.25000000  0.12536000  1.0
  Li  Li6  1  0.25000000  0.75000000  0.04179000  1.0
  Li  Li7  1  0.75000000  0.75000000  0.04179000  1.0
  Li  Li8  1  0.00000000  0.03230000  0.87386000  1.0
  Li  Li9  1  0.24929000  0.51497000  0.96370000  1.0
  Li  Li10  1  0.50000000  0.02063000  0.87284000  1.0
  Li  Li11  1  0.75071000  0.51497000  0.96370000  1.0
  Li  Li12  1  0.50000000  0.25959000  0.95603000  1.0
  Li  Li13  1  0.00000000  0.25487000  0.95822000  1.0
  Li  Li14  1  0.75382000  0.72306000  0.87162000  1.0
  Li  Li15  1  0.24618000  0.72306000  0.87162000  1.0
  Ge  Ge16  1  0.75000000  0.00000000  0.12536000  1.0
  Ge  Ge17  1  0.00000000  0.50000000  0.04179000  1.0
  Ge  Ge18  1  0.50000000  0.50000000  0.04179000  1.0
  Ge  Ge19  1  0.25000000  0.00000000  0.12536000  1.0
  Ge  Ge20  1  0.24921000  0.99263000  0.95551000  1.0
  Ge  Ge21  1  0.50000000  0.50637000  0.86696000  1.0
  Ge  Ge22  1  0.00000000  0.49049000  0.87011000  1.0
  Ge  Ge23  1  0.75079000  0.99263000  0.95551000  1.0
  Au  Au24  1  0.75000000  0.25000000  0.04179000  1.0
  Au  Au25  1  0.25000000  0.25000000  0.04179000  1.0
  Au  Au26  1  0.50000000  0.75000000  0.12536000  1.0
  Au  Au27  1  0.00000000  0.75000000  0.12536000  1.0
  Au  Au28  1  0.25519000  0.28246000  0.88465000  1.0
  Au  Au29  1  0.74481000  0.28246000  0.88465000  1.0
  Au  Au30  1  0.00000000  0.74653000  0.95207000  1.0
  Au  Au31  1  0.50000000  0.74610000  0.95391000  1.0
  C  C32  1  0.00000000  0.99183000  0.79637000  1.0
  O  O33  1  0.00000000  0.98707000  0.75359000  1.0
