# generated using pymatgen
data_Mg8Ni16Sb8C
_symmetry_space_group_name_H-M   Pm
_cell_length_a   8.80700000
_cell_length_b   6.22749000
_cell_length_c   26.60530000
_cell_angle_alpha   90.00000000
_cell_angle_beta   90.00000000
_cell_angle_gamma   90.00000000
_symmetry_Int_Tables_number   6
_chemical_formula_structural   Mg8Ni16Sb8C
_chemical_formula_sum   'Mg8 Ni16 Sb8 C1'
_cell_volume   1459.18109901
_cell_formula_units_Z   1
loop_
 _symmetry_equiv_pos_site_id
 _symmetry_equiv_pos_as_xyz
  1  'x, y, z'
  2  'x, -y, z'
loop_
 _atom_site_type_symbol
 _atom_site_label
 _atom_site_symmetry_multiplicity
 _atom_site_fract_x
 _atom_site_fract_y
 _atom_site_fract_z
 _atom_site_occupancy
  Mg  Mg0  1  0.00000000  0.50000000  0.87587000  1.0
  Mg  Mg1  1  0.00011000  0.50000000  0.04231000  1.0
  Mg  Mg2  1  0.25000000  0.00000000  0.95862000  1.0
  Mg  Mg3  1  0.25450000  0.00000000  0.13399000  1.0
  Mg  Mg4  1  0.49995000  0.50000000  0.03872000  1.0
  Mg  Mg5  1  0.50000000  0.50000000  0.87587000  1.0
  Mg  Mg6  1  0.74544000  0.00000000  0.13400000  1.0
  Mg  Mg7  1  0.75000000  0.00000000  0.95862000  1.0
  Ni  Ni8  2  0.00000000  0.25002000  0.95862000  1.0
  Ni  Ni9  2  0.25000000  0.25002000  0.87587000  1.0
  Ni  Ni10  2  0.25031000  0.24946000  0.04478000  1.0
  Ni  Ni11  2  0.49998000  0.25244000  0.11588000  1.0
  Ni  Ni12  2  0.50000000  0.24998000  0.95862000  1.0
  Ni  Ni13  2  0.74971000  0.24959000  0.04482000  1.0
  Ni  Ni14  2  0.75000000  0.24998000  0.87587000  1.0
  Ni  Ni15  2  0.99995000  0.28282000  0.12954000  1.0
  Sb  Sb16  1  0.00000000  0.00000000  0.87587000  1.0
  Sb  Sb17  1  0.00001000  0.00000000  0.04112000  1.0
  Sb  Sb18  1  0.25000000  0.50000000  0.95862000  1.0
  Sb  Sb19  1  0.25860000  0.50000000  0.13007000  1.0
  Sb  Sb20  1  0.50000000  0.00000000  0.87587000  1.0
  Sb  Sb21  1  0.50004000  0.00000000  0.04026000  1.0
  Sb  Sb22  1  0.74142000  0.50000000  0.13008000  1.0
  Sb  Sb23  1  0.75000000  0.50000000  0.95862000  1.0
  C  C24  1  0.00001000  0.00000000  0.14127000  1.0
