data_image0
_chemical_formula_structural       Ti8Ni16Sb8C
_chemical_formula_sum              "Ti8 Ni16 Sb8 C1"
_cell_length_a       6.14888
_cell_length_b       8.69583
_cell_length_c       26.5219
_cell_angle_alpha    90
_cell_angle_beta     90
_cell_angle_gamma    90

_space_group_name_H-M_alt    "P 1"
_space_group_IT_number       1

loop_
  _space_group_symop_operation_xyz
  'x, y, z'

loop_
  _atom_site_type_symbol
  _atom_site_label
  _atom_site_symmetry_multiplicity
  _atom_site_fract_x
  _atom_site_fract_y
  _atom_site_fract_z
  _atom_site_occupancy
  Ti  Ti1       1.0  0.00000  0.00000  0.87705  1.0000
  Ti  Ti2       1.0  0.50000  0.25000  0.95902  1.0000
  Ti  Ti3       1.0  0.50000  0.75000  0.95902  1.0000
  Ti  Ti4       1.0  0.00000  0.50000  0.87705  1.0000
  Ti  Ti5       1.0  0.99192  0.50175  0.04173  1.0000
  Ti  Ti6       1.0  0.50216  0.75001  0.12033  1.0000
  Ti  Ti7       1.0  0.52888  0.25000  0.11227  1.0000
  Ti  Ti8       1.0  0.99193  0.99824  0.04173  1.0000
  Ni  Ni1       1.0  0.25000  0.00000  0.95902  1.0000
  Ni  Ni2       1.0  0.75000  0.50000  0.95902  1.0000
  Ni  Ni3       1.0  0.75000  0.00000  0.95902  1.0000
  Ni  Ni4       1.0  0.25000  0.50000  0.95902  1.0000
  Ni  Ni5       1.0  0.75000  0.75000  0.87705  1.0000
  Ni  Ni6       1.0  0.25000  0.25000  0.87705  1.0000
  Ni  Ni7       1.0  0.25000  0.75000  0.87705  1.0000
  Ni  Ni8       1.0  0.75000  0.25000  0.87705  1.0000
  Ni  Ni9       1.0  0.22224  0.47762  0.11769  1.0000
  Ni  Ni10      1.0  0.75417  0.99688  0.11960  1.0000
  Ni  Ni11      1.0  0.75414  0.50313  0.11959  1.0000
  Ni  Ni12      1.0  0.22220  0.02240  0.11769  1.0000
  Ni  Ni13      1.0  0.75733  0.24999  0.03591  1.0000
  Ni  Ni14      1.0  0.23272  0.74998  0.04604  1.0000
  Ni  Ni15      1.0  0.17973  0.25000  0.05438  1.0000
  Ni  Ni16      1.0  0.77004  0.75000  0.04955  1.0000
  Sb  Sb1       1.0  0.00000  0.75000  0.95902  1.0000
  Sb  Sb2       1.0  0.50000  0.00000  0.87705  1.0000
  Sb  Sb3       1.0  0.00000  0.25000  0.95902  1.0000
  Sb  Sb4       1.0  0.50000  0.50000  0.87705  1.0000
  Sb  Sb5       1.0  0.91105  0.25000  0.17022  1.0000
  Sb  Sb6       1.0  0.49610  0.50242  0.04039  1.0000
  Sb  Sb7       1.0  0.01710  0.75000  0.13723  1.0000
  Sb  Sb8       1.0  0.49609  0.99757  0.04039  1.0000
  C   C1        1.0  0.21665  0.25000  0.12970  1.0000
