# generated using pymatgen
data_Ti8Ni16Sb8C
_symmetry_space_group_name_H-M   P1
_cell_length_a   6.14888000
_cell_length_b   8.69583000
_cell_length_c   26.52190000
_cell_angle_alpha   90.00000000
_cell_angle_beta   90.00000000
_cell_angle_gamma   90.00000000
_symmetry_Int_Tables_number   1
_chemical_formula_structural   Ti8Ni16Sb8C
_chemical_formula_sum   'Ti8 Ni16 Sb8 C1'
_cell_volume   1418.11578659
_cell_formula_units_Z   1
loop_
 _symmetry_equiv_pos_site_id
 _symmetry_equiv_pos_as_xyz
  1  'x, y, z'
loop_
 _atom_site_type_symbol
 _atom_site_label
 _atom_site_symmetry_multiplicity
 _atom_site_fract_x
 _atom_site_fract_y
 _atom_site_fract_z
 _atom_site_occupancy
  Ti  Ti0  1  -0.00000000  0.50000000  0.87705000  1.0
  Ti  Ti1  1  0.00000000  0.00000000  0.87705000  1.0
  Ti  Ti2  1  0.49778000  0.75004000  0.12013000  1.0
  Ti  Ti3  1  0.50000000  0.25000000  0.95902000  1.0
  Ti  Ti4  1  0.50000000  0.75000000  0.95902000  1.0
  Ti  Ti5  1  0.52203000  0.25006000  0.11219000  1.0
  Ti  Ti6  1  0.98943000  0.50161000  0.04125000  1.0
  Ti  Ti7  1  0.98946000  0.99829000  0.04125000  1.0
  Ni  Ni8  1  0.17930000  0.24992000  0.05353000  1.0
  Ni  Ni9  1  0.21281000  0.47608000  0.11755000  1.0
  Ni  Ni10  1  0.21292000  0.02388000  0.11758000  1.0
  Ni  Ni11  1  0.22908000  0.74995000  0.04671000  1.0
  Ni  Ni12  1  0.25000000  0.00000000  0.95902000  1.0
  Ni  Ni13  1  0.25000000  0.25000000  0.87705000  1.0
  Ni  Ni14  1  0.25000000  0.50000000  0.95902000  1.0
  Ni  Ni15  1  0.25000000  0.75000000  0.87705000  1.0
  Ni  Ni16  1  0.75000000  0.00000000  0.95902000  1.0
  Ni  Ni17  1  0.75000000  0.25000000  0.87705000  1.0
  Ni  Ni18  1  0.75000000  0.50000000  0.95902000  1.0
  Ni  Ni19  1  0.75000000  0.75000000  0.87705000  1.0
  Ni  Ni20  1  0.75101000  0.50274000  0.11915000  1.0
  Ni  Ni21  1  0.75125000  0.99750000  0.11912000  1.0
  Ni  Ni22  1  0.75553000  0.24996000  0.03615000  1.0
  Ni  Ni23  1  0.76833000  0.74997000  0.04946000  1.0
  Sb  Sb24  1  -0.00000000  0.25000000  0.95902000  1.0
  Sb  Sb25  1  -0.00000000  0.75000000  0.95902000  1.0
  Sb  Sb26  1  0.01138000  0.75003000  0.13746000  1.0
  Sb  Sb27  1  0.49318000  0.99689000  0.04052000  1.0
  Sb  Sb28  1  0.49320000  0.50309000  0.04051000  1.0
  Sb  Sb29  1  0.50000000  0.00000000  0.87705000  1.0
  Sb  Sb30  1  0.50000000  0.50000000  0.87705000  1.0
  Sb  Sb31  1  0.90387000  0.25005000  0.17023000  1.0
  C  C32  1  0.20900000  0.24998000  0.12952000  1.0
