# generated using pymatgen
data_Li8Y8Sn8Pb8CO
_symmetry_space_group_name_H-M   Pm
_cell_length_a   9.64462000
_cell_length_b   8.87168000
_cell_length_c   27.02620000
_cell_angle_alpha   90.00000000
_cell_angle_beta   90.00000000
_cell_angle_gamma   90.00000000
_symmetry_Int_Tables_number   6
_chemical_formula_structural   Li8Y8Sn8Pb8CO
_chemical_formula_sum   'Li8 Y8 Sn8 Pb8 C1 O1'
_cell_volume   2312.46930010
_cell_formula_units_Z   1
loop_
 _symmetry_equiv_pos_site_id
 _symmetry_equiv_pos_as_xyz
  1  'x, y, z'
  2  'x, -y, z'
loop_
 _atom_site_type_symbol
 _atom_site_label
 _atom_site_symmetry_multiplicity
 _atom_site_fract_x
 _atom_site_fract_y
 _atom_site_fract_z
 _atom_site_occupancy
  Li  Li0  2  0.00000000  0.25000000  0.95667000  1.0
  Li  Li1  2  0.50000000  0.25000000  0.95667000  1.0
  Li  Li2  2  0.50954000  0.23235000  0.13611000  1.0
  Li  Li3  2  0.99046000  0.23237000  0.13611000  1.0
  Y  Y4  2  0.25000000  0.24779000  0.04391000  1.0
  Y  Y5  2  0.25000000  0.25000000  0.87001000  1.0
  Y  Y6  2  0.75000000  0.25000000  0.87001000  1.0
  Y  Y7  2  0.75000000  0.25381000  0.04182000  1.0
  Sn  Sn8  1  0.25000000  0.00000000  0.95667000  1.0
  Sn  Sn9  1  0.25000000  0.50000000  0.13737000  1.0
  Sn  Sn10  1  0.25000000  0.50000000  0.95667000  1.0
  Sn  Sn11  1  0.25002000  0.00000000  0.13612000  1.0
  Sn  Sn12  1  0.75000000  0.00000000  0.13051000  1.0
  Sn  Sn13  1  0.75000000  0.00000000  0.95667000  1.0
  Sn  Sn14  1  0.75000000  0.50000000  0.13571000  1.0
  Sn  Sn15  1  0.75000000  0.50000000  0.95667000  1.0
  Pb  Pb16  1  -0.00000000  0.00000000  0.87001000  1.0
  Pb  Pb17  1  0.00000000  0.50000000  0.87001000  1.0
  Pb  Pb18  1  0.00214000  0.50000000  0.05618000  1.0
  Pb  Pb19  1  0.49787000  0.50000000  0.05618000  1.0
  Pb  Pb20  1  0.50000000  0.00000000  0.87001000  1.0
  Pb  Pb21  1  0.50000000  0.50000000  0.87001000  1.0
  Pb  Pb22  1  0.50557000  0.00000000  0.04493000  1.0
  Pb  Pb23  1  0.99442000  0.00000000  0.04493000  1.0
  C  C24  1  0.24981000  0.00000000  0.22399000  1.0
  O  O25  1  0.25005000  0.00000000  0.26662000  1.0
