# generated using pymatgen
data_Li8In8Cu8Au8C
_symmetry_space_group_name_H-M   Pm
_cell_length_a   6.41124000
_cell_length_b   9.06686000
_cell_length_c   26.80010000
_cell_angle_alpha   90.00000000
_cell_angle_beta   90.00000000
_cell_angle_gamma   90.00000000
_symmetry_Int_Tables_number   6
_chemical_formula_structural   Li8In8Cu8Au8C
_chemical_formula_sum   'Li8 In8 Cu8 Au8 C1'
_cell_volume   1557.88486855
_cell_formula_units_Z   1
loop_
 _symmetry_equiv_pos_site_id
 _symmetry_equiv_pos_as_xyz
  1  'x, y, z'
  2  'x, -y, z'
loop_
 _atom_site_type_symbol
 _atom_site_label
 _atom_site_symmetry_multiplicity
 _atom_site_fract_x
 _atom_site_fract_y
 _atom_site_fract_z
 _atom_site_occupancy
  Li  Li0  2  0.71809000  0.27483000  0.14156000  1.0
  Li  Li1  2  0.75000000  0.25000000  0.95771000  1.0
  Li  Li2  1  0.22611000  0.50000000  0.04168000  1.0
  Li  Li3  1  0.25000000  0.00000000  0.87313000  1.0
  Li  Li4  1  0.25000000  0.50000000  0.87313000  1.0
  Li  Li5  1  0.26413000  0.00000000  0.04742000  1.0
  In  In6  2  0.50000000  0.25000000  0.87313000  1.0
  In  In7  2  0.50657000  0.25971000  0.04295000  1.0
  In  In8  1  -0.00000000  0.50000000  0.95771000  1.0
  In  In9  1  -0.00000000  0.00000000  0.95771000  1.0
  In  In10  1  0.03528000  0.50000000  0.14368000  1.0
  In  In11  1  0.95743000  0.00000000  0.12485000  1.0
  Cu  Cu12  2  0.25000000  0.25000000  0.95771000  1.0
  Cu  Cu13  2  0.26150000  0.21696000  0.13065000  1.0
  Cu  Cu14  1  0.74344000  0.00000000  0.03770000  1.0
  Cu  Cu15  1  0.75000000  0.00000000  0.87313000  1.0
  Cu  Cu16  1  0.75000000  0.50000000  0.87313000  1.0
  Cu  Cu17  1  0.77501000  0.50000000  0.04887000  1.0
  Au  Au18  2  0.00000000  0.25000000  0.87313000  1.0
  Au  Au19  2  0.00289000  0.24906000  0.04534000  1.0
  Au  Au20  1  0.46200000  0.50000000  0.12001000  1.0
  Au  Au21  1  0.50000000  0.00000000  0.95771000  1.0
  Au  Au22  1  0.50000000  0.50000000  0.95771000  1.0
  Au  Au23  1  0.55922000  0.00000000  0.13001000  1.0
  C  C24  1  0.26304000  0.00000000  0.15235000  1.0
