# generated using pymatgen
data_Li8Ca8Ge8Pd8CO
_symmetry_space_group_name_H-M   'P 1'
_cell_length_a   6.62107000
_cell_length_b   9.36360000
_cell_length_c   27.02270000
_cell_angle_alpha   90.00000000
_cell_angle_beta   90.00000000
_cell_angle_gamma   90.00000000
_symmetry_Int_Tables_number   1
_chemical_formula_structural   Li8Ca8Ge8Pd8CO
_chemical_formula_sum   'Li8 Ca8 Ge8 Pd8 C1 O1'
_cell_volume   1675.32771146
_cell_formula_units_Z   1
loop_
 _symmetry_equiv_pos_site_id
 _symmetry_equiv_pos_as_xyz
  1  'x, y, z'
loop_
 _atom_site_type_symbol
 _atom_site_label
 _atom_site_symmetry_multiplicity
 _atom_site_fract_x
 _atom_site_fract_y
 _atom_site_fract_z
 _atom_site_occupancy
  Li  Li0  1  0.75000000  0.00000000  0.95669000  1.0
  Li  Li1  1  0.75000000  0.50000000  0.95669000  1.0
  Li  Li2  1  0.25000000  0.25000000  0.87006000  1.0
  Li  Li3  1  0.25000000  0.75000000  0.87006000  1.0
  Li  Li4  1  0.80527000  0.50002000  0.13940000  1.0
  Li  Li5  1  0.79377000  0.00001000  0.13887000  1.0
  Li  Li6  1  0.27870000  0.75027000  0.05296000  1.0
  Li  Li7  1  0.27889000  0.24983000  0.05298000  1.0
  Ca  Ca8  1  0.00000000  0.00000000  0.87006000  1.0
  Ca  Ca9  1  0.00000000  0.50000000  0.87006000  1.0
  Ca  Ca10  1  0.50000000  0.75000000  0.95669000  1.0
  Ca  Ca11  1  0.50000000  0.25000000  0.95669000  1.0
  Ca  Ca12  1  0.97939000  0.49994000  0.04151000  1.0
  Ca  Ca13  1  0.97467000  0.99985000  0.04045000  1.0
  Ca  Ca14  1  0.45904000  0.24347000  0.15564000  1.0
  Ca  Ca15  1  0.45914000  0.75647000  0.15555000  1.0
  Ge  Ge16  1  0.00000000  0.25000000  0.95669000  1.0
  Ge  Ge17  1  0.00000000  0.75000000  0.95669000  1.0
  Ge  Ge18  1  0.50000000  0.50000000  0.87006000  1.0
  Ge  Ge19  1  0.50000000  0.00000000  0.87006000  1.0
  Ge  Ge20  1  0.00392000  0.74970000  0.12824000  1.0
  Ge  Ge21  1  0.00405000  0.25026000  0.12823000  1.0
  Ge  Ge22  1  0.49237000  0.00012000  0.05312000  1.0
  Ge  Ge23  1  0.50089000  0.49999000  0.05604000  1.0
  Pd  Pd24  1  0.25000000  0.00000000  0.95669000  1.0
  Pd  Pd25  1  0.25000000  0.50000000  0.95669000  1.0
  Pd  Pd26  1  0.75000000  0.25000000  0.87006000  1.0
  Pd  Pd27  1  0.75000000  0.75000000  0.87006000  1.0
  Pd  Pd28  1  0.21981000  0.49997000  0.12519000  1.0
  Pd  Pd29  1  0.20458000  0.99997000  0.12354000  1.0
  Pd  Pd30  1  0.69756000  0.75110000  0.06757000  1.0
  Pd  Pd31  1  0.69765000  0.24897000  0.06762000  1.0
  C  C32  1  0.67751000  0.99994000  0.20891000  1.0
  O  O33  1  0.64979000  0.99997000  0.25148000  1.0
