# generated using pymatgen
data_Li8Zn8Ge8Pd8CO
_symmetry_space_group_name_H-M   Pm
_cell_length_a   6.18512000
_cell_length_b   8.74708000
_cell_length_c   26.56030000
_cell_angle_alpha   90.00000000
_cell_angle_beta   90.00000000
_cell_angle_gamma   90.00000000
_symmetry_Int_Tables_number   6
_chemical_formula_structural   Li8Zn8Ge8Pd8CO
_chemical_formula_sum   'Li8 Zn8 Ge8 Pd8 C1 O1'
_cell_volume   1436.95843030
_cell_formula_units_Z   1
loop_
 _symmetry_equiv_pos_site_id
 _symmetry_equiv_pos_as_xyz
  1  'x, y, z'
  2  'x, -y, z'
loop_
 _atom_site_type_symbol
 _atom_site_label
 _atom_site_symmetry_multiplicity
 _atom_site_fract_x
 _atom_site_fract_y
 _atom_site_fract_z
 _atom_site_occupancy
  Li  Li0  2  0.73257000  0.24549000  0.13248000  1.0
  Li  Li1  2  0.75000000  0.25001000  0.95883000  1.0
  Li  Li2  1  0.25000000  0.00000000  0.87650000  1.0
  Li  Li3  1  0.25000000  0.50000000  0.87650000  1.0
  Li  Li4  1  0.25704000  0.50000000  0.04304000  1.0
  Li  Li5  1  0.25760000  0.00000000  0.04065000  1.0
  Zn  Zn6  2  0.50000000  0.24999000  0.87650000  1.0
  Zn  Zn7  2  0.51180000  0.24941000  0.04076000  1.0
  Zn  Zn8  1  0.00000000  0.00000000  0.95883000  1.0
  Zn  Zn9  1  0.00000000  0.50000000  0.95883000  1.0
  Zn  Zn10  1  0.03228000  0.00000000  0.12294000  1.0
  Zn  Zn11  1  0.99804000  0.50000000  0.12744000  1.0
  Ge  Ge12  2  0.00000000  0.25001000  0.87650000  1.0
  Ge  Ge13  2  0.99302000  0.25007000  0.04445000  1.0
  Ge  Ge14  1  0.47716000  0.00000000  0.13103000  1.0
  Ge  Ge15  1  0.50000000  0.00000000  0.95883000  1.0
  Ge  Ge16  1  0.50000000  0.50000000  0.95883000  1.0
  Ge  Ge17  1  0.50004000  0.50000000  0.13187000  1.0
  Pd  Pd18  2  0.25000000  0.25001000  0.95883000  1.0
  Pd  Pd19  2  0.26322000  0.25784000  0.11789000  1.0
  Pd  Pd20  1  0.74662000  0.50000000  0.04028000  1.0
  Pd  Pd21  1  0.74994000  0.00000000  0.04703000  1.0
  Pd  Pd22  1  0.75000000  0.00000000  0.87650000  1.0
  Pd  Pd23  1  0.75000000  0.50000000  0.87650000  1.0
  C  C24  1  0.94834000  0.00000000  0.19855000  1.0
  O  O25  1  0.95219000  0.00000000  0.24181000  1.0
