# generated using pymatgen
data_Li8Sc8In8Ga8C
_symmetry_space_group_name_H-M   Pmm2
_cell_length_a   8.23116000
_cell_length_b   8.37318000
_cell_length_c   26.65040000
_cell_angle_alpha   90.00000000
_cell_angle_beta   90.00000000
_cell_angle_gamma   90.00000000
_symmetry_Int_Tables_number   25
_chemical_formula_structural   Li8Sc8In8Ga8C
_chemical_formula_sum   'Li8 Sc8 In8 Ga8 C1'
_cell_volume   1836.77179969
_cell_formula_units_Z   1
loop_
 _symmetry_equiv_pos_site_id
 _symmetry_equiv_pos_as_xyz
  1  'x, y, z'
  2  '-x, -y, z'
  3  '-x, y, z'
  4  'x, -y, z'
loop_
 _atom_site_type_symbol
 _atom_site_label
 _atom_site_symmetry_multiplicity
 _atom_site_fract_x
 _atom_site_fract_y
 _atom_site_fract_z
 _atom_site_occupancy
  Li  Li0  4  0.25000000  0.25000000  0.04159000  1.0
  Li  Li1  4  0.25000000  0.25000000  0.87523000  1.0
  Sc  Sc2  2  0.00000000  0.25000000  0.12477000  1.0
  Sc  Sc3  2  0.00000000  0.25000000  0.95841000  1.0
  Sc  Sc4  2  0.50000000  0.25000000  0.12477000  1.0
  Sc  Sc5  2  0.50000000  0.25000000  0.95841000  1.0
  In  In6  1  0.00000000  0.00000000  0.04159000  1.0
  In  In7  1  0.00000000  0.00000000  0.87523000  1.0
  In  In8  1  0.00000000  0.50000000  0.04159000  1.0
  In  In9  1  0.00000000  0.50000000  0.87523000  1.0
  In  In10  1  0.50000000  0.00000000  0.04159000  1.0
  In  In11  1  0.50000000  0.00000000  0.87523000  1.0
  In  In12  1  0.50000000  0.50000000  0.04159000  1.0
  In  In13  1  0.50000000  0.50000000  0.87523000  1.0
  Ga  Ga14  2  0.25000000  0.00000000  0.12477000  1.0
  Ga  Ga15  2  0.25000000  0.00000000  0.95841000  1.0
  Ga  Ga16  2  0.25000000  0.50000000  0.12477000  1.0
  Ga  Ga17  2  0.25000000  0.50000000  0.95841000  1.0
  C  C18  1  0.00000000  0.00000000  0.15479000  1.0
