# generated using pymatgen
data_Cr8Ga8Co16CO
_symmetry_space_group_name_H-M   'P 1'
_cell_length_a   5.73361000
_cell_length_b   8.10855000
_cell_length_c   26.08140000
_cell_angle_alpha   90.00000000
_cell_angle_beta   90.00000000
_cell_angle_gamma   90.00000000
_symmetry_Int_Tables_number   1
_chemical_formula_structural   Cr8Ga8Co16CO
_chemical_formula_sum   'Cr8 Ga8 Co16 C1 O1'
_cell_volume   1212.55723634
_cell_formula_units_Z   1
loop_
 _symmetry_equiv_pos_site_id
 _symmetry_equiv_pos_as_xyz
  1  'x, y, z'
loop_
 _atom_site_type_symbol
 _atom_site_label
 _atom_site_symmetry_multiplicity
 _atom_site_fract_x
 _atom_site_fract_y
 _atom_site_fract_z
 _atom_site_occupancy
  Cr  Cr0  1  0.00000000  0.75000000  0.88341000  1.0
  Cr  Cr1  1  0.50000000  0.00000000  0.96114000  1.0
  Cr  Cr2  1  0.50000000  0.50000000  0.96114000  1.0
  Cr  Cr3  1  0.00000000  0.25000000  0.88341000  1.0
  Cr  Cr4  1  0.00000000  0.25006000  0.03926000  1.0
  Cr  Cr5  1  0.50000000  0.50000000  0.11671000  1.0
  Cr  Cr6  1  0.50000000  0.00000000  0.11671000  1.0
  Cr  Cr7  1  0.00000000  0.74994000  0.03926000  1.0
  Ga  Ga8  1  0.00000000  0.50000000  0.96114000  1.0
  Ga  Ga9  1  0.50000000  0.75000000  0.88341000  1.0
  Ga  Ga10  1  0.00000000  0.00000000  0.96114000  1.0
  Ga  Ga11  1  0.50000000  0.25000000  0.88341000  1.0
  Ga  Ga12  1  0.00000000  0.00000000  0.11572000  1.0
  Ga  Ga13  1  0.50000000  0.24998000  0.03896000  1.0
  Ga  Ga14  1  0.00000000  0.50000000  0.11702000  1.0
  Ga  Ga15  1  0.50000000  0.75002000  0.03896000  1.0
  Co  Co16  1  0.25000000  0.75000000  0.96114000  1.0
  Co  Co17  1  0.75000000  0.25000000  0.96114000  1.0
  Co  Co18  1  0.75000000  0.75000000  0.96114000  1.0
  Co  Co19  1  0.25000000  0.25000000  0.96114000  1.0
  Co  Co20  1  0.75000000  0.50000000  0.88341000  1.0
  Co  Co21  1  0.25000000  0.00000000  0.88341000  1.0
  Co  Co22  1  0.25000000  0.50000000  0.88341000  1.0
  Co  Co23  1  0.75000000  0.00000000  0.88341000  1.0
  Co  Co24  1  0.25016000  0.25051000  0.11616000  1.0
  Co  Co25  1  0.74984000  0.74949000  0.11616000  1.0
  Co  Co26  1  0.74984000  0.25051000  0.11616000  1.0
  Co  Co27  1  0.25016000  0.74949000  0.11616000  1.0
  Co  Co28  1  0.75012000  0.00000000  0.03879000  1.0
  Co  Co29  1  0.25026000  0.50000000  0.03878000  1.0
  Co  Co30  1  0.24988000  0.00000000  0.03879000  1.0
  Co  Co31  1  0.74974000  0.50000000  0.03878000  1.0
  C  C32  1  0.00000000  0.00000000  0.19009000  1.0
  O  O33  1  0.00000000  0.00000000  0.23413000  1.0
