# generated using pymatgen
data_Mn16Pd16C
_symmetry_space_group_name_H-M   Pmm2
_cell_length_a   6.84086000
_cell_length_b   8.60668000
_cell_length_c   26.45500000
_cell_angle_alpha   90.00000000
_cell_angle_beta   90.00000000
_cell_angle_gamma   90.00000000
_symmetry_Int_Tables_number   25
_chemical_formula_structural   Mn16Pd16C
_chemical_formula_sum   'Mn16 Pd16 C1'
_cell_volume   1557.59349385
_cell_formula_units_Z   1
loop_
 _symmetry_equiv_pos_site_id
 _symmetry_equiv_pos_as_xyz
  1  'x, y, z'
  2  '-x, -y, z'
  3  '-x, y, z'
  4  'x, -y, z'
loop_
 _atom_site_type_symbol
 _atom_site_label
 _atom_site_symmetry_multiplicity
 _atom_site_fract_x
 _atom_site_fract_y
 _atom_site_fract_z
 _atom_site_occupancy
  Mn  Mn0  4  0.25000000  0.25000000  0.12200000  1.0
  Mn  Mn1  4  0.25000000  0.25000000  0.95933000  1.0
  Mn  Mn2  2  0.25000000  0.00000000  0.04067000  1.0
  Mn  Mn3  2  0.25000000  0.00000000  0.87800000  1.0
  Mn  Mn4  2  0.25000000  0.50000000  0.04067000  1.0
  Mn  Mn5  2  0.25000000  0.50000000  0.87800000  1.0
  Pd  Pd6  2  0.00000000  0.25000000  0.04067000  1.0
  Pd  Pd7  2  0.00000000  0.25000000  0.87800000  1.0
  Pd  Pd8  2  0.50000000  0.25000000  0.04067000  1.0
  Pd  Pd9  2  0.50000000  0.25000000  0.87800000  1.0
  Pd  Pd10  1  0.00000000  0.00000000  0.12200000  1.0
  Pd  Pd11  1  0.00000000  0.00000000  0.95933000  1.0
  Pd  Pd12  1  0.00000000  0.50000000  0.12200000  1.0
  Pd  Pd13  1  0.00000000  0.50000000  0.95933000  1.0
  Pd  Pd14  1  0.50000000  0.00000000  0.12200000  1.0
  Pd  Pd15  1  0.50000000  0.00000000  0.95933000  1.0
  Pd  Pd16  1  0.50000000  0.50000000  0.12200000  1.0
  Pd  Pd17  1  0.50000000  0.50000000  0.95933000  1.0
  C  C18  1  0.00000000  0.00000000  0.84776000  1.0
