# generated using pymatgen
data_Li8Hf8In8Pd8CO
_symmetry_space_group_name_H-M   'P 1'
_cell_length_a   9.21246000
_cell_length_b   6.51419000
_cell_length_c   26.90930000
_cell_angle_alpha   90.00000000
_cell_angle_beta   90.00000000
_cell_angle_gamma   90.00000000
_symmetry_Int_Tables_number   1
_chemical_formula_structural   Li8Hf8In8Pd8CO
_chemical_formula_sum   'Li8 Hf8 In8 Pd8 C1 O1'
_cell_volume   1614.87323727
_cell_formula_units_Z   1
loop_
 _symmetry_equiv_pos_site_id
 _symmetry_equiv_pos_as_xyz
  1  'x, y, z'
loop_
 _atom_site_type_symbol
 _atom_site_label
 _atom_site_symmetry_multiplicity
 _atom_site_fract_x
 _atom_site_fract_y
 _atom_site_fract_z
 _atom_site_occupancy
  Li  Li0  1  0.75000000  0.75000000  0.04279000  1.0
  Li  Li1  1  0.25000000  0.75000000  0.04279000  1.0
  Li  Li2  1  0.00000000  0.25000000  0.12838000  1.0
  Li  Li3  1  0.50000000  0.25000000  0.12838000  1.0
  Li  Li4  1  0.22905000  0.77446000  0.82003000  1.0
  Li  Li5  1  0.77095000  0.77446000  0.82003000  1.0
  Li  Li6  1  0.50000000  0.24488000  0.95351000  1.0
  Li  Li7  1  0.00000000  0.24343000  0.95861000  1.0
  Hf  Hf8  1  0.75000000  0.00000000  0.12838000  1.0
  Hf  Hf9  1  0.25000000  0.00000000  0.12838000  1.0
  Hf  Hf10  1  0.50000000  0.50000000  0.04279000  1.0
  Hf  Hf11  1  0.00000000  0.50000000  0.04279000  1.0
  Hf  Hf12  1  0.25194000  0.99209000  0.94943000  1.0
  Hf  Hf13  1  0.74806000  0.99209000  0.94943000  1.0
  Hf  Hf14  1  0.00000000  0.51828000  0.87467000  1.0
  Hf  Hf15  1  0.50000000  0.53148000  0.87586000  1.0
  In  In16  1  0.00000000  1.00000000  0.04279000  1.0
  In  In17  1  0.50000000  1.00000000  0.04279000  1.0
  In  In18  1  0.25000000  0.50000000  0.12838000  1.0
  In  In19  1  0.75000000  0.50000000  0.12838000  1.0
  In  In20  1  0.50000000  0.99773000  0.86151000  1.0
  In  In21  1  0.00000000  0.01936000  0.86916000  1.0
  In  In22  1  0.75113000  0.50568000  0.95790000  1.0
  In  In23  1  0.24887000  0.50568000  0.95790000  1.0
  Pd  Pd24  1  0.75000000  0.25000000  0.04279000  1.0
  Pd  Pd25  1  0.25000000  0.25000000  0.04279000  1.0
  Pd  Pd26  1  0.00000000  0.75000000  0.12838000  1.0
  Pd  Pd27  1  0.50000000  0.75000000  0.12838000  1.0
  Pd  Pd28  1  0.25547000  0.27305000  0.87348000  1.0
  Pd  Pd29  1  0.74453000  0.27305000  0.87348000  1.0
  Pd  Pd30  1  0.50000000  0.75419000  0.95839000  1.0
  Pd  Pd31  1  0.00000000  0.75752000  0.95972000  1.0
  C  C32  1  0.00000000  0.61407000  0.79802000  1.0
  O  O33  1  0.00000000  0.65219000  0.75461000  1.0
