# generated using pymatgen
data_Y4In12C
_symmetry_space_group_name_H-M   'P 1'
_cell_length_a   9.34369000
_cell_length_b   6.60698000
_cell_length_c   24.95520000
_cell_angle_alpha   90.00000000
_cell_angle_beta   90.00000000
_cell_angle_gamma   90.00000000
_symmetry_Int_Tables_number   1
_chemical_formula_structural   Y4In12C
_chemical_formula_sum   'Y4 In12 C1'
_cell_volume   1540.57365984
_cell_formula_units_Z   1
loop_
 _symmetry_equiv_pos_site_id
 _symmetry_equiv_pos_as_xyz
  1  'x, y, z'
loop_
 _atom_site_type_symbol
 _atom_site_label
 _atom_site_symmetry_multiplicity
 _atom_site_fract_x
 _atom_site_fract_y
 _atom_site_fract_z
 _atom_site_occupancy
  Y  Y0  1  0.70447000  0.99707000  0.10081000  1.0
  Y  Y1  1  0.75000000  0.50000000  0.96691000  1.0
  Y  Y2  1  0.29553000  0.99707000  0.10081000  1.0
  Y  Y3  1  0.25000000  0.50000000  0.96691000  1.0
  In  In4  1  0.70452000  0.50482000  0.11744000  1.0
  In  In5  1  0.50000000  0.27176000  0.02919000  1.0
  In  In6  1  0.50000000  0.73513000  0.02650000  1.0
  In  In7  1  0.75000000  0.00000000  0.96691000  1.0
  In  In8  1  0.50000000  0.75000000  0.90072000  1.0
  In  In9  1  0.50000000  0.25000000  0.90072000  1.0
  In  In10  1  0.29548000  0.50482000  0.11744000  1.0
  In  In11  1  0.00000000  0.22865000  0.03856000  1.0
  In  In12  1  0.00000000  0.72107000  0.05072000  1.0
  In  In13  1  0.25000000  0.00000000  0.96691000  1.0
  In  In14  1  0.00000000  0.75000000  0.90072000  1.0
  In  In15  1  0.00000000  0.25000000  0.90072000  1.0
  C  C16  1  0.50000000  0.81634000  0.11662000  1.0
