# generated using pymatgen
data_Ga4Fe12CO
_symmetry_space_group_name_H-M   Pm
_cell_length_a   5.18838000
_cell_length_b   7.33747000
_cell_length_c   23.89130000
_cell_angle_alpha   90.00000000
_cell_angle_beta   90.00000000
_cell_angle_gamma   90.00000000
_symmetry_Int_Tables_number   6
_chemical_formula_structural   Ga4Fe12CO
_chemical_formula_sum   'Ga4 Fe12 C1 O1'
_cell_volume   909.53181874
_cell_formula_units_Z   1
loop_
 _symmetry_equiv_pos_site_id
 _symmetry_equiv_pos_as_xyz
  1  'x, y, z'
  2  'x, -y, z'
loop_
 _atom_site_type_symbol
 _atom_site_label
 _atom_site_symmetry_multiplicity
 _atom_site_fract_x
 _atom_site_fract_y
 _atom_site_fract_z
 _atom_site_occupancy
  Ga  Ga0  2  0.00000000  0.25000000  0.08144000  1.0
  Ga  Ga1  2  0.50000000  0.25000000  0.97285000  1.0
  Fe  Fe2  2  0.00000000  0.25000000  0.97285000  1.0
  Fe  Fe3  2  0.50000000  0.25000000  0.08144000  1.0
  Fe  Fe4  1  0.25000000  0.00000000  0.02715000  1.0
  Fe  Fe5  1  0.25000000  0.00000000  0.91856000  1.0
  Fe  Fe6  1  0.25000000  0.50000000  0.02715000  1.0
  Fe  Fe7  1  0.25000000  0.50000000  0.91856000  1.0
  Fe  Fe8  1  0.75000000  0.00000000  0.02715000  1.0
  Fe  Fe9  1  0.75000000  0.00000000  0.91856000  1.0
  Fe  Fe10  1  0.75000000  0.50000000  0.02715000  1.0
  Fe  Fe11  1  0.75000000  0.50000000  0.91856000  1.0
  C  C12  1  0.75000000  0.50000000  0.83904000  1.0
  O  O13  1  0.75000000  0.50000000  0.79090000  1.0
