# generated using pymatgen
data_K3Bi
_symmetry_space_group_name_H-M   'P 1'
_cell_length_a   6.25013805
_cell_length_b   6.25013805
_cell_length_c   26.62930000
_cell_angle_alpha   90.00000000
_cell_angle_beta   90.00000000
_cell_angle_gamma   90.00000000
_symmetry_Int_Tables_number   1
_chemical_formula_structural   K3Bi
_chemical_formula_sum   'K6 Bi2'
_cell_volume   1040.25298465
_cell_formula_units_Z   2
loop_
 _symmetry_equiv_pos_site_id
 _symmetry_equiv_pos_as_xyz
  1  'x, y, z'
loop_
 _atom_site_type_symbol
 _atom_site_label
 _atom_site_symmetry_multiplicity
 _atom_site_fract_x
 _atom_site_fract_y
 _atom_site_fract_z
 _atom_site_occupancy
  K  K0  1  0.50000000  0.00000000  0.95851000  1.0
  K  K1  1  0.50000000  0.00000000  0.12447000  1.0
  K  K2  1  0.00000000  0.50000000  0.95851000  1.0
  K  K3  1  0.00000000  0.50000000  0.12447000  1.0
  K  K4  1  0.00000000  0.00000000  0.04149000  1.0
  K  K5  1  0.50000000  0.50000000  0.87553000  1.0
  Bi  Bi6  1  0.00000000  0.00000000  0.87553000  1.0
  Bi  Bi7  1  0.50000000  0.50000000  0.04149000  1.0
