# generated using pymatgen
data_MgNi3
_symmetry_space_group_name_H-M   P1
_cell_length_a   5.20155000
_cell_length_b   7.35611000
_cell_length_c   23.90120000
_cell_angle_alpha   90.00000000
_cell_angle_beta   90.00000000
_cell_angle_gamma   90.00000000
_symmetry_Int_Tables_number   1
_chemical_formula_structural   MgNi3
_chemical_formula_sum   'Mg4 Ni12'
_cell_volume   914.53577370
_cell_formula_units_Z   4
loop_
 _symmetry_equiv_pos_site_id
 _symmetry_equiv_pos_as_xyz
  1  'x, y, z'
loop_
 _atom_site_type_symbol
 _atom_site_label
 _atom_site_symmetry_multiplicity
 _atom_site_fract_x
 _atom_site_fract_y
 _atom_site_fract_z
 _atom_site_occupancy
  Mg  Mg0  1  0.00000000  0.00000000  0.08161000  1.0
  Mg  Mg1  1  0.00000000  0.50000000  0.08161000  1.0
  Mg  Mg2  1  0.50002000  0.49995000  0.97121000  1.0
  Mg  Mg3  1  0.50004000  0.00002000  0.97116000  1.0
  Ni  Ni4  1  0.00000000  0.00000000  0.97150000  1.0
  Ni  Ni5  1  0.23621000  0.74987000  0.92315000  1.0
  Ni  Ni6  1  0.23673000  0.25009000  0.92280000  1.0
  Ni  Ni7  1  0.25000000  0.25000000  0.02720000  1.0
  Ni  Ni8  1  0.25000000  0.75000000  0.02720000  1.0
  Ni  Ni9  1  0.50000000  -0.00000000  0.08161000  1.0
  Ni  Ni10  1  0.50000000  0.50000000  0.08161000  1.0
  Ni  Ni11  1  0.75000000  0.25000000  0.02720000  1.0
  Ni  Ni12  1  0.75000000  0.75000000  0.02720000  1.0
  Ni  Ni13  1  0.76323000  0.74989000  0.92277000  1.0
  Ni  Ni14  1  0.76372000  0.25012000  0.92304000  1.0
  Ni  Ni15  1  0.99997000  0.49997000  0.97152000  1.0
