# generated using pymatgen
data_ScInNi2
_symmetry_space_group_name_H-M   'P 1'
_cell_length_a   4.46565500
_cell_length_b   6.31539000
_cell_length_c   26.69850000
_cell_angle_alpha   90.00000000
_cell_angle_beta   90.00000000
_cell_angle_gamma   90.00000000
_symmetry_Int_Tables_number   1
_chemical_formula_structural   ScInNi2
_chemical_formula_sum   'Sc4 In4 Ni8'
_cell_volume   752.96051971
_cell_formula_units_Z   4
loop_
 _symmetry_equiv_pos_site_id
 _symmetry_equiv_pos_as_xyz
  1  'x, y, z'
loop_
 _atom_site_type_symbol
 _atom_site_label
 _atom_site_symmetry_multiplicity
 _atom_site_fract_x
 _atom_site_fract_y
 _atom_site_fract_z
 _atom_site_occupancy
  Sc  Sc0  1  0.00000000  0.00000000  0.12545000  1.0
  Sc  Sc1  1  0.50000000  0.50000000  0.04182000  1.0
  Sc  Sc2  1  0.00000000  0.00000000  0.95867500  1.0
  Sc  Sc3  1  0.50000000  0.50000000  0.87606000  1.0
  In  In4  1  0.50000000  0.00000000  0.04182000  1.0
  In  In5  1  0.00000000  0.50000000  0.12545000  1.0
  In  In6  1  0.50000000  0.00000000  0.86762000  1.0
  In  In7  1  0.00000000  0.50000000  0.95815500  1.0
  Ni  Ni8  1  0.00000000  0.75000000  0.04182000  1.0
  Ni  Ni9  1  0.00000000  0.25000000  0.04182000  1.0
  Ni  Ni10  1  0.50000000  0.25000000  0.12545000  1.0
  Ni  Ni11  1  0.50000000  0.75000000  0.12545000  1.0
  Ni  Ni12  1  0.00000000  0.76868500  0.88094500  1.0
  Ni  Ni13  1  0.00000000  0.23131500  0.88094500  1.0
  Ni  Ni14  1  0.50000000  0.24969500  0.95571500  1.0
  Ni  Ni15  1  0.50000000  0.75030500  0.95571500  1.0
