# generated using pymatgen
data_Li8In8Pd8Ru8CO
_symmetry_space_group_name_H-M   'P 1'
_cell_length_a   6.32045000
_cell_length_b   8.93846000
_cell_length_c   26.70380000
_cell_angle_alpha   90.00000000
_cell_angle_beta   90.00000000
_cell_angle_gamma   90.00000000
_symmetry_Int_Tables_number   1
_chemical_formula_structural   Li8In8Pd8Ru8CO
_chemical_formula_sum   'Li8 In8 Pd8 Ru8 C1 O1'
_cell_volume   1508.63357118
_cell_formula_units_Z   1
loop_
 _symmetry_equiv_pos_site_id
 _symmetry_equiv_pos_as_xyz
  1  'x, y, z'
loop_
 _atom_site_type_symbol
 _atom_site_label
 _atom_site_symmetry_multiplicity
 _atom_site_fract_x
 _atom_site_fract_y
 _atom_site_fract_z
 _atom_site_occupancy
  Li  Li0  1  0.00000000  0.25000000  0.95816000  1.0
  Li  Li1  1  0.00000000  0.75000000  0.95816000  1.0
  Li  Li2  1  0.50000000  0.50000000  0.87448000  1.0
  Li  Li3  1  0.50000000  0.00000000  0.87448000  1.0
  Li  Li4  1  0.99242000  0.75000000  0.13316000  1.0
  Li  Li5  1  0.99107000  0.24999000  0.13390000  1.0
  Li  Li6  1  0.49597000  0.99953000  0.04136000  1.0
  Li  Li7  1  0.49600000  0.50045000  0.04136000  1.0
  In  In8  1  0.00000000  0.00000000  0.87448000  1.0
  In  In9  1  0.00000000  0.50000000  0.87448000  1.0
  In  In10  1  0.50000000  0.75000000  0.95816000  1.0
  In  In11  1  0.50000000  0.25000000  0.95816000  1.0
  In  In12  1  0.99734000  0.49967000  0.04016000  1.0
  In  In13  1  0.99741000  0.00030000  0.04018000  1.0
  In  In14  1  0.48506000  0.24995000  0.13217000  1.0
  In  In15  1  0.48523000  0.75003000  0.13282000  1.0
  Pd  Pd16  1  0.75000000  0.00000000  0.95816000  1.0
  Pd  Pd17  1  0.75000000  0.50000000  0.95816000  1.0
  Pd  Pd18  1  0.25000000  0.25000000  0.87448000  1.0
  Pd  Pd19  1  0.25000000  0.75000000  0.87448000  1.0
  Pd  Pd20  1  0.74172000  0.50052000  0.12128000  1.0
  Pd  Pd21  1  0.74170000  0.99947000  0.12128000  1.0
  Pd  Pd22  1  0.25117000  0.74999000  0.04277000  1.0
  Pd  Pd23  1  0.25021000  0.24998000  0.04265000  1.0
  Ru  Ru24  1  0.25000000  0.00000000  0.95816000  1.0
  Ru  Ru25  1  0.25000000  0.50000000  0.95816000  1.0
  Ru  Ru26  1  0.75000000  0.25000000  0.87448000  1.0
  Ru  Ru27  1  0.75000000  0.75000000  0.87448000  1.0
  Ru  Ru28  1  0.24737000  0.50013000  0.12091000  1.0
  Ru  Ru29  1  0.24735000  0.99987000  0.12092000  1.0
  Ru  Ru30  1  0.74331000  0.74999000  0.04612000  1.0
  Ru  Ru31  1  0.74384000  0.24999000  0.04618000  1.0
  C  C32  1  0.58598000  0.25046000  0.26953000  1.0
  O  O33  1  0.45485000  0.25000000  0.29866000  1.0
