# generated using pymatgen
data_Nb8Ga8Co16C
_symmetry_space_group_name_H-M   Pmm2
_cell_length_a   5.97844000
_cell_length_b   8.45478000
_cell_length_c   26.34110000
_cell_angle_alpha   90.00000000
_cell_angle_beta   90.00000000
_cell_angle_gamma   90.00000000
_symmetry_Int_Tables_number   25
_chemical_formula_structural   Nb8Ga8Co16C
_chemical_formula_sum   'Nb8 Ga8 Co16 C1'
_cell_volume   1331.44764384
_cell_formula_units_Z   1
loop_
 _symmetry_equiv_pos_site_id
 _symmetry_equiv_pos_as_xyz
  1  'x, y, z'
  2  '-x, -y, z'
  3  '-x, y, z'
  4  'x, -y, z'
loop_
 _atom_site_type_symbol
 _atom_site_label
 _atom_site_symmetry_multiplicity
 _atom_site_fract_x
 _atom_site_fract_y
 _atom_site_fract_z
 _atom_site_occupancy
  Nb  Nb0  2  0.50000000  0.24152000  0.12312000  1.0
  Nb  Nb1  2  0.50000000  0.25000000  0.95988000  1.0
  Nb  Nb2  1  0.00000000  0.00000000  0.03900000  1.0
  Nb  Nb3  1  0.00000000  0.00000000  0.87964000  1.0
  Nb  Nb4  1  0.00000000  0.50000000  0.04215000  1.0
  Nb  Nb5  1  0.00000000  0.50000000  0.87964000  1.0
  Ga  Ga6  2  0.00000000  0.25000000  0.95988000  1.0
  Ga  Ga7  2  0.00000000  0.25134000  0.12310000  1.0
  Ga  Ga8  1  0.50000000  0.00000000  0.04039000  1.0
  Ga  Ga9  1  0.50000000  0.00000000  0.87964000  1.0
  Ga  Ga10  1  0.50000000  0.50000000  0.04146000  1.0
  Ga  Ga11  1  0.50000000  0.50000000  0.87964000  1.0
  Co  Co12  4  0.25000000  0.25000000  0.87964000  1.0
  Co  Co13  4  0.25706000  0.24887000  0.04109000  1.0
  Co  Co14  2  0.21508000  0.00000000  0.11731000  1.0
  Co  Co15  2  0.24361000  0.50000000  0.11561000  1.0
  Co  Co16  2  0.25000000  0.00000000  0.95988000  1.0
  Co  Co17  2  0.25000000  0.50000000  0.95988000  1.0
  C  C18  1  0.50000000  0.00000000  0.14879000  1.0
