# generated using pymatgen
data_In4Pt12CO
_symmetry_space_group_name_H-M   Pm
_cell_length_a   5.77288000
_cell_length_b   8.16408000
_cell_length_c   24.32970000
_cell_angle_alpha   90.00000000
_cell_angle_beta   90.00000000
_cell_angle_gamma   90.00000000
_symmetry_Int_Tables_number   6
_chemical_formula_structural   In4Pt12CO
_chemical_formula_sum   'In4 Pt12 C1 O1'
_cell_volume   1146.66494440
_cell_formula_units_Z   1
loop_
 _symmetry_equiv_pos_site_id
 _symmetry_equiv_pos_as_xyz
  1  'x, y, z'
  2  'x, -y, z'
loop_
 _atom_site_type_symbol
 _atom_site_label
 _atom_site_symmetry_multiplicity
 _atom_site_fract_x
 _atom_site_fract_y
 _atom_site_fract_z
 _atom_site_occupancy
  In  In0  2  0.00000000  0.24999000  0.08898000  1.0
  In  In1  2  0.48438000  0.24899000  0.96628000  1.0
  Pt  Pt2  2  0.50000000  0.24999000  0.08898000  1.0
  Pt  Pt3  2  0.98508000  0.24857000  0.96946000  1.0
  Pt  Pt4  1  0.22002000  0.00000000  0.91496000  1.0
  Pt  Pt5  1  0.22913000  0.50000000  0.91557000  1.0
  Pt  Pt6  1  0.25000000  0.00000000  0.02966000  1.0
  Pt  Pt7  1  0.25000000  0.50000000  0.02966000  1.0
  Pt  Pt8  1  0.72844000  0.00000000  0.91522000  1.0
  Pt  Pt9  1  0.74016000  0.50000000  0.91319000  1.0
  Pt  Pt10  1  0.75000000  0.00000000  0.02966000  1.0
  Pt  Pt11  1  0.75000000  0.50000000  0.02966000  1.0
  C  C12  1  0.71377000  0.50000000  0.83662000  1.0
  O  O13  1  0.70595000  0.50000000  0.78925000  1.0
