# generated using pymatgen
data_Li4In4Ge4Au4C
_symmetry_space_group_name_H-M   'P 1'
_cell_length_a   8.39470000
_cell_length_b   6.02588000
_cell_length_c   24.51900000
_cell_angle_alpha   90.00000000
_cell_angle_beta   90.00000000
_cell_angle_gamma   90.00000000
_symmetry_Int_Tables_number   1
_chemical_formula_structural   Li4In4Ge4Au4C
_chemical_formula_sum   'Li4 In4 Ge4 Au4 C1'
_cell_volume   1240.30476712
_cell_formula_units_Z   1
loop_
 _symmetry_equiv_pos_site_id
 _symmetry_equiv_pos_as_xyz
  1  'x, y, z'
loop_
 _atom_site_type_symbol
 _atom_site_label
 _atom_site_symmetry_multiplicity
 _atom_site_fract_x
 _atom_site_fract_y
 _atom_site_fract_z
 _atom_site_occupancy
  Li  Li0  1  0.50000000  0.72983000  0.03613000  1.0
  Li  Li1  1  0.50000000  0.25990000  0.90785000  1.0
  Li  Li2  1  0.00000000  0.73948000  0.02944000  1.0
  Li  Li3  1  0.00000000  0.25990000  0.90785000  1.0
  In  In4  1  0.50000000  0.22796000  0.03334000  1.0
  In  In5  1  0.50000000  0.75990000  0.90785000  1.0
  In  In6  1  0.00000000  0.27168000  0.05272000  1.0
  In  In7  1  0.00000000  0.75990000  0.90785000  1.0
  Ge  Ge8  1  0.71626000  0.53135000  0.12194000  1.0
  Ge  Ge9  1  0.75000000  0.00660000  0.96928000  1.0
  Ge  Ge10  1  0.28374000  0.53135000  0.12194000  1.0
  Ge  Ge11  1  0.25000000  0.00660000  0.96928000  1.0
  Au  Au12  1  0.75961000  0.92832000  0.07878000  1.0
  Au  Au13  1  0.75000000  0.50660000  0.96928000  1.0
  Au  Au14  1  0.24039000  0.92832000  0.07878000  1.0
  Au  Au15  1  0.25000000  0.50660000  0.96928000  1.0
  C  C16  1  0.50000000  0.48685000  0.10025000  1.0
