# generated using pymatgen
data_LiIn2Pd
_symmetry_space_group_name_H-M   Pmm2
_cell_length_a   4.74162000
_cell_length_b   6.70566000
_cell_length_c   27.11240000
_cell_angle_alpha   90.00000000
_cell_angle_beta   90.00000000
_cell_angle_gamma   90.00000000
_symmetry_Int_Tables_number   25
_chemical_formula_structural   LiIn2Pd
_chemical_formula_sum   'Li4 In8 Pd4'
_cell_volume   862.05750810
_cell_formula_units_Z   4
loop_
 _symmetry_equiv_pos_site_id
 _symmetry_equiv_pos_as_xyz
  1  'x, y, z'
  2  '-x, -y, z'
  3  '-x, y, z'
  4  'x, -y, z'
loop_
 _atom_site_type_symbol
 _atom_site_label
 _atom_site_symmetry_multiplicity
 _atom_site_fract_x
 _atom_site_fract_y
 _atom_site_fract_z
 _atom_site_occupancy
  Li  Li0  1  0.00000000  0.00000000  0.13117000  1.0
  Li  Li1  1  0.00000000  0.00000000  0.95229000  1.0
  Li  Li2  1  0.50000000  0.50000000  0.04372000  1.0
  Li  Li3  1  0.50000000  0.50000000  0.86032000  1.0
  In  In4  2  0.00000000  0.24558000  0.85811000  1.0
  In  In5  2  0.00000000  0.25000000  0.04372000  1.0
  In  In6  2  0.50000000  0.25000000  0.13117000  1.0
  In  In7  2  0.50000000  0.25815000  0.95374000  1.0
  Pd  Pd8  1  0.00000000  0.50000000  0.13117000  1.0
  Pd  Pd9  1  0.00000000  0.50000000  0.95878000  1.0
  Pd  Pd10  1  0.50000000  0.00000000  0.04372000  1.0
  Pd  Pd11  1  0.50000000  0.00000000  0.87467000  1.0
