# generated using pymatgen
data_Ti8Ni16Sn8CO
_symmetry_space_group_name_H-M   P1
_cell_length_a   6.14888000
_cell_length_b   8.69583000
_cell_length_c   26.52190000
_cell_angle_alpha   90.00000000
_cell_angle_beta   90.00000000
_cell_angle_gamma   90.00000000
_symmetry_Int_Tables_number   1
_chemical_formula_structural   Ti8Ni16Sn8CO
_chemical_formula_sum   'Ti8 Ni16 Sn8 C1 O1'
_cell_volume   1418.11578659
_cell_formula_units_Z   1
loop_
 _symmetry_equiv_pos_site_id
 _symmetry_equiv_pos_as_xyz
  1  'x, y, z'
loop_
 _atom_site_type_symbol
 _atom_site_label
 _atom_site_symmetry_multiplicity
 _atom_site_fract_x
 _atom_site_fract_y
 _atom_site_fract_z
 _atom_site_occupancy
  Ti  Ti0  1  -0.00000000  0.50000000  0.87705000  1.0
  Ti  Ti1  1  0.00000000  0.00000000  0.87705000  1.0
  Ti  Ti2  1  0.49638000  0.25234000  0.12089000  1.0
  Ti  Ti3  1  0.49639000  0.74763000  0.12088000  1.0
  Ti  Ti4  1  0.50000000  0.25000000  0.95902000  1.0
  Ti  Ti5  1  0.50000000  0.75000000  0.95902000  1.0
  Ti  Ti6  1  0.99437000  0.50000000  0.04263000  1.0
  Ti  Ti7  1  0.99887000  0.00002000  0.04276000  1.0
  Ni  Ni8  1  0.23056000  0.74870000  0.04609000  1.0
  Ni  Ni9  1  0.23068000  0.25133000  0.04606000  1.0
  Ni  Ni10  1  0.25000000  0.00000000  0.95902000  1.0
  Ni  Ni11  1  0.25000000  0.25000000  0.87705000  1.0
  Ni  Ni12  1  0.25000000  0.50000000  0.95902000  1.0
  Ni  Ni13  1  0.25000000  0.75000000  0.87705000  1.0
  Ni  Ni14  1  0.26089000  0.99997000  0.12920000  1.0
  Ni  Ni15  1  0.26370000  0.50000000  0.11813000  1.0
  Ni  Ni16  1  0.71924000  0.49996000  0.11964000  1.0
  Ni  Ni17  1  0.74974000  0.00000000  0.11568000  1.0
  Ni  Ni18  1  0.75000000  0.00000000  0.95902000  1.0
  Ni  Ni19  1  0.75000000  0.25000000  0.87705000  1.0
  Ni  Ni20  1  0.75000000  0.50000000  0.95902000  1.0
  Ni  Ni21  1  0.75000000  0.75000000  0.87705000  1.0
  Ni  Ni22  1  0.75794000  0.24788000  0.04400000  1.0
  Ni  Ni23  1  0.75800000  0.75212000  0.04401000  1.0
  Sn  Sn24  1  -0.00000000  0.25000000  0.95902000  1.0
  Sn  Sn25  1  -0.00000000  0.75000000  0.95902000  1.0
  Sn  Sn26  1  0.48795000  0.99998000  0.04046000  1.0
  Sn  Sn27  1  0.49706000  0.50003000  0.03784000  1.0
  Sn  Sn28  1  0.50000000  0.00000000  0.87705000  1.0
  Sn  Sn29  1  0.50000000  0.50000000  0.87705000  1.0
  Sn  Sn30  1  0.99054000  0.74380000  0.13363000  1.0
  Sn  Sn31  1  0.99061000  0.25617000  0.13361000  1.0
  C  C32  1  0.37853000  0.99998000  0.18982000  1.0
  O  O33  1  0.43689000  0.00001000  0.23163000  1.0
