# generated using pymatgen
data_Fe8Co16Ge8C
_symmetry_space_group_name_H-M   Pmm2
_cell_length_a   5.76795000
_cell_length_b   8.15711000
_cell_length_c   26.11780000
_cell_angle_alpha   90.00000000
_cell_angle_beta   90.00000000
_cell_angle_gamma   90.00000000
_symmetry_Int_Tables_number   25
_chemical_formula_structural   Fe8Co16Ge8C
_chemical_formula_sum   'Fe8 Co16 Ge8 C1'
_cell_volume   1228.83733499
_cell_formula_units_Z   1
loop_
 _symmetry_equiv_pos_site_id
 _symmetry_equiv_pos_as_xyz
  1  'x, y, z'
  2  '-x, -y, z'
  3  '-x, y, z'
  4  'x, -y, z'
loop_
 _atom_site_type_symbol
 _atom_site_label
 _atom_site_symmetry_multiplicity
 _atom_site_fract_x
 _atom_site_fract_y
 _atom_site_fract_z
 _atom_site_occupancy
  Fe  Fe0  2  0.00000000  0.24127000  0.12044000  1.0
  Fe  Fe1  2  0.00000000  0.25000000  0.96096000  1.0
  Fe  Fe2  1  0.50000000  0.00000000  0.03616000  1.0
  Fe  Fe3  1  0.50000000  0.00000000  0.88288000  1.0
  Fe  Fe4  1  0.50000000  0.50000000  0.03925000  1.0
  Fe  Fe5  1  0.50000000  0.50000000  0.88288000  1.0
  Co  Co6  4  0.24948000  0.24808000  0.04013000  1.0
  Co  Co7  4  0.25001000  0.25000000  0.88288000  1.0
  Co  Co8  2  0.24999000  0.00000000  0.96096000  1.0
  Co  Co9  2  0.25001000  0.50000000  0.96096000  1.0
  Co  Co10  2  0.25005000  0.50000000  0.11299000  1.0
  Co  Co11  2  0.27763000  0.00000000  0.11306000  1.0
  Ge  Ge12  2  0.50000000  0.25000000  0.96096000  1.0
  Ge  Ge13  2  0.50000000  0.25459000  0.12229000  1.0
  Ge  Ge14  1  0.00000000  0.00000000  0.03859000  1.0
  Ge  Ge15  1  0.00000000  0.00000000  0.88288000  1.0
  Ge  Ge16  1  0.00000000  0.50000000  0.03944000  1.0
  Ge  Ge17  1  0.00000000  0.50000000  0.88288000  1.0
  C  C18  1  0.00000000  0.00000000  0.14226000  1.0
