# generated using pymatgen
data_LiAl2Ir
_symmetry_space_group_name_H-M   Pmm2
_cell_length_a   4.27338500
_cell_length_b   6.04348000
_cell_length_c   26.41010000
_cell_angle_alpha   90.00000000
_cell_angle_beta   90.00000000
_cell_angle_gamma   90.00000000
_symmetry_Int_Tables_number   25
_chemical_formula_structural   LiAl2Ir
_chemical_formula_sum   'Li4 Al8 Ir4'
_cell_volume   682.07032677
_cell_formula_units_Z   4
loop_
 _symmetry_equiv_pos_site_id
 _symmetry_equiv_pos_as_xyz
  1  'x, y, z'
  2  '-x, -y, z'
  3  '-x, y, z'
  4  'x, -y, z'
loop_
 _atom_site_type_symbol
 _atom_site_label
 _atom_site_symmetry_multiplicity
 _atom_site_fract_x
 _atom_site_fract_y
 _atom_site_fract_z
 _atom_site_occupancy
  Li  Li0  1  0.00000000  0.00000000  0.12136000  1.0
  Li  Li1  1  0.00000000  0.00000000  0.96366000  1.0
  Li  Li2  1  0.50000000  0.50000000  0.04045000  1.0
  Li  Li3  1  0.50000000  0.50000000  0.86778000  1.0
  Al  Al4  2  0.00000000  0.22917000  0.88165000  1.0
  Al  Al5  2  0.00000000  0.25000000  0.04045000  1.0
  Al  Al6  2  0.50000000  0.25000000  0.12136000  1.0
  Al  Al7  2  0.50000000  0.25067000  0.95902000  1.0
  Ir  Ir8  1  0.00000000  0.50000000  0.12136000  1.0
  Ir  Ir9  1  0.00000000  0.50000000  0.95991000  1.0
  Ir  Ir10  1  0.50000000  0.00000000  0.04045000  1.0
  Ir  Ir11  1  0.50000000  0.00000000  0.88342000  1.0
