data_image0
_chemical_formula_structural       VRhVRhVRhVRhVRhVRhVRhVRhVRhVRhVRhVRhVRhVRhVRhVRhC
_chemical_formula_sum              "V16 Rh16 C1"
_cell_length_a       7.76485
_cell_length_b       7.35846
_cell_length_c       25.8236
_cell_angle_alpha    90
_cell_angle_beta     90
_cell_angle_gamma    90

_space_group_name_H-M_alt    "P 1"
_space_group_IT_number       1

loop_
  _space_group_symop_operation_xyz
  'x, y, z'

loop_
  _atom_site_type_symbol
  _atom_site_label
  _atom_site_symmetry_multiplicity
  _atom_site_fract_x
  _atom_site_fract_y
  _atom_site_fract_z
  _atom_site_occupancy
  V   V1        1.0  0.25000  0.25000  0.88724  1.0000
  Rh  Rh1       1.0  0.00000  0.00000  0.88724  1.0000
  V   V2        1.0  0.00000  0.25000  0.96241  1.0000
  Rh  Rh2       1.0  0.25000  0.00000  0.96241  1.0000
  V   V3        1.0  0.25000  0.25000  0.03759  1.0000
  Rh  Rh3       1.0  0.00000  0.00000  0.03759  1.0000
  V   V4        1.0  0.50000  0.25000  0.11276  1.0000
  Rh  Rh4       1.0  0.25000  0.00000  0.11276  1.0000
  V   V5        1.0  0.25000  0.75000  0.88724  1.0000
  Rh  Rh5       1.0  0.00000  0.50000  0.88724  1.0000
  V   V6        1.0  0.00000  0.75000  0.96241  1.0000
  Rh  Rh6       1.0  0.25000  0.50000  0.96241  1.0000
  V   V7        1.0  0.25000  0.75000  0.03759  1.0000
  Rh  Rh7       1.0  0.00000  0.50000  0.03759  1.0000
  V   V8        1.0  0.50000  0.75000  0.11276  1.0000
  Rh  Rh8       1.0  0.25000  0.50000  0.11276  1.0000
  V   V9        1.0  0.75000  0.25000  0.88724  1.0000
  Rh  Rh9       1.0  0.50000  0.00000  0.88724  1.0000
  V   V10       1.0  0.50000  0.25000  0.96241  1.0000
  Rh  Rh10      1.0  0.75000  0.00000  0.96241  1.0000
  V   V11       1.0  0.75000  0.25000  0.03759  1.0000
  Rh  Rh11      1.0  0.50000  0.00000  0.03759  1.0000
  V   V12       1.0  1.00000  0.25000  0.11276  1.0000
  Rh  Rh12      1.0  0.75000  0.00000  0.11276  1.0000
  V   V13       1.0  0.75000  0.75000  0.88724  1.0000
  Rh  Rh13      1.0  0.50000  0.50000  0.88724  1.0000
  V   V14       1.0  0.50000  0.75000  0.96241  1.0000
  Rh  Rh14      1.0  0.75000  0.50000  0.96241  1.0000
  V   V15       1.0  0.75000  0.75000  0.03759  1.0000
  Rh  Rh15      1.0  0.50000  0.50000  0.03759  1.0000
  V   V16       1.0  1.00000  0.75000  0.11276  1.0000
  Rh  Rh16      1.0  0.75000  0.50000  0.11276  1.0000
  C   C1        1.0  0.00000  0.00000  0.14374  1.0000
