data_image0
_chemical_formula_structural       Hf4In4Au8CO
_chemical_formula_sum              "Hf4 In4 Au8 C1 O1"
_cell_length_a       6.82626
_cell_length_b       6.82626
_cell_length_c       25.1197
_cell_angle_alpha    90
_cell_angle_beta     90
_cell_angle_gamma    90

_space_group_name_H-M_alt    "P 1"
_space_group_IT_number       1

loop_
  _space_group_symop_operation_xyz
  'x, y, z'

loop_
  _atom_site_type_symbol
  _atom_site_label
  _atom_site_symmetry_multiplicity
  _atom_site_fract_x
  _atom_site_fract_y
  _atom_site_fract_z
  _atom_site_occupancy
  Hf  Hf1       1.0  0.00000  0.00000  0.89809  1.0000
  Hf  Hf2       1.0  0.50000  0.50000  0.89809  1.0000
  Hf  Hf3       1.0  0.50000  0.00000  0.03397  1.0000
  Hf  Hf4       1.0  0.00000  0.50000  0.03397  1.0000
  In  In1       1.0  0.00000  0.00000  0.03397  1.0000
  In  In2       1.0  0.50000  0.00000  0.89809  1.0000
  In  In3       1.0  0.00000  0.50000  0.89809  1.0000
  In  In4       1.0  0.50000  0.50000  0.03397  1.0000
  Au  Au1       1.0  0.25000  0.25000  0.96603  1.0000
  Au  Au2       1.0  0.75000  0.75000  0.10191  1.0000
  Au  Au3       1.0  0.75000  0.25000  0.96603  1.0000
  Au  Au4       1.0  0.25000  0.75000  0.10191  1.0000
  Au  Au5       1.0  0.75000  0.75000  0.96603  1.0000
  Au  Au6       1.0  0.25000  0.25000  0.10191  1.0000
  Au  Au7       1.0  0.25000  0.75000  0.96603  1.0000
  Au  Au8       1.0  0.75000  0.25000  0.10191  1.0000
  C   C1        1.0  0.25000  0.25000  0.17754  1.0000
  O   O1        1.0  0.25000  0.25000  0.22332  1.0000
