# generated using pymatgen
data_Li4Y4In4Ge4CO
_symmetry_space_group_name_H-M   'P 1'
_cell_length_a   6.33235000
_cell_length_b   8.49364000
_cell_length_c   24.73290000
_cell_angle_alpha   90.00000000
_cell_angle_beta   90.00000000
_cell_angle_gamma   90.00000000
_symmetry_Int_Tables_number   1
_chemical_formula_structural   Li4Y4In4Ge4CO
_chemical_formula_sum   'Li4 Y4 In4 Ge4 C1 O1'
_cell_volume   1330.25163765
_cell_formula_units_Z   1
loop_
 _symmetry_equiv_pos_site_id
 _symmetry_equiv_pos_as_xyz
  1  'x, y, z'
loop_
 _atom_site_type_symbol
 _atom_site_label
 _atom_site_symmetry_multiplicity
 _atom_site_fract_x
 _atom_site_fract_y
 _atom_site_fract_z
 _atom_site_occupancy
  Li  Li0  1  0.42077000  0.99995000  0.89995000  1.0
  Li  Li1  1  0.04141000  1.00000000  0.03189000  1.0
  Li  Li2  1  0.44822000  0.50007000  0.87885000  1.0
  Li  Li3  1  0.04141000  0.50000000  0.03189000  1.0
  Y  Y4  1  0.71211000  0.74163000  0.96410000  1.0
  Y  Y5  1  0.31212000  0.75000000  0.09568000  1.0
  Y  Y6  1  0.71211000  0.25850000  0.96403000  1.0
  Y  Y7  1  0.31212000  0.25000000  0.09568000  1.0
  In  In8  1  0.22392000  0.72938000  0.94768000  1.0
  In  In9  1  0.81212000  0.75000000  0.09568000  1.0
  In  In10  1  0.22371000  0.27087000  0.94762000  1.0
  In  In11  1  0.81212000  0.25000000  0.09568000  1.0
  Ge  Ge12  1  0.94103000  0.99993000  0.91327000  1.0
  Ge  Ge13  1  0.54141000  1.00000000  0.03189000  1.0
  Ge  Ge14  1  0.94800000  0.50048000  0.90817000  1.0
  Ge  Ge15  1  0.54141000  0.50000000  0.03189000  1.0
  C  C16  1  0.04799000  0.99981000  0.84230000  1.0
  O  O17  1  0.11149000  0.00001000  0.79785000  1.0
