data_image0
_chemical_formula_structural       Fe16Co16C
_chemical_formula_sum              "Fe16 Co16 C1"
_cell_length_a       5.71351
_cell_length_b       8.08012
_cell_length_c       26.0601
_cell_angle_alpha    90
_cell_angle_beta     90
_cell_angle_gamma    90

_space_group_name_H-M_alt    "P 1"
_space_group_IT_number       1

loop_
  _space_group_symop_operation_xyz
  'x, y, z'

loop_
  _atom_site_type_symbol
  _atom_site_label
  _atom_site_symmetry_multiplicity
  _atom_site_fract_x
  _atom_site_fract_y
  _atom_site_fract_z
  _atom_site_occupancy
  Fe  Fe1       1.0  0.00000  0.00000  0.88373  1.0000
  Fe  Fe2       1.0  0.00000  0.25000  0.96124  1.0000
  Fe  Fe3       1.0  0.00072  0.00001  0.03999  1.0000
  Fe  Fe4       1.0  0.95713  0.25000  0.11709  1.0000
  Fe  Fe5       1.0  0.00000  0.50000  0.88373  1.0000
  Fe  Fe6       1.0  0.00000  0.75000  0.96124  1.0000
  Fe  Fe7       1.0  0.00072  0.49999  0.03999  1.0000
  Fe  Fe8       1.0  0.00471  0.74999  0.11859  1.0000
  Fe  Fe9       1.0  0.50000  0.00000  0.88373  1.0000
  Fe  Fe10      1.0  0.50000  0.25000  0.96124  1.0000
  Fe  Fe11      1.0  0.49928  0.00001  0.03999  1.0000
  Fe  Fe12      1.0  0.54287  0.25000  0.11709  1.0000
  Fe  Fe13      1.0  0.50000  0.50000  0.88373  1.0000
  Fe  Fe14      1.0  0.50000  0.75000  0.96124  1.0000
  Fe  Fe15      1.0  0.49928  0.49999  0.03999  1.0000
  Fe  Fe16      1.0  0.49529  0.74999  0.11859  1.0000
  Co  Co1       1.0  0.25000  0.25000  0.88373  1.0000
  Co  Co2       1.0  0.25000  0.00000  0.96124  1.0000
  Co  Co3       1.0  0.25000  0.25000  0.03956  1.0000
  Co  Co4       1.0  0.25000  0.48551  0.11551  1.0000
  Co  Co5       1.0  0.25000  0.75000  0.88373  1.0000
  Co  Co6       1.0  0.25000  0.50000  0.96124  1.0000
  Co  Co7       1.0  0.25000  0.75000  0.04036  1.0000
  Co  Co8       1.0  0.25000  0.01448  0.11551  1.0000
  Co  Co9       1.0  0.75000  0.25000  0.88373  1.0000
  Co  Co10      1.0  0.75000  0.00000  0.96124  1.0000
  Co  Co11      1.0  0.75000  0.25000  0.03680  1.0000
  Co  Co12      1.0  0.75000  0.51187  0.11269  1.0000
  Co  Co13      1.0  0.75000  0.75000  0.88373  1.0000
  Co  Co14      1.0  0.75000  0.50000  0.96124  1.0000
  Co  Co15      1.0  0.75000  0.75000  0.03944  1.0000
  Co  Co16      1.0  0.75000  0.98813  0.11269  1.0000
  C   C1        1.0  0.25000  0.25000  0.14114  1.0000
