# generated using pymatgen
data_Li4Y4Sn4Pb4CO
_symmetry_space_group_name_H-M   'P 1'
_cell_length_a   9.64462000
_cell_length_b   6.45119000
_cell_length_c   24.83120000
_cell_angle_alpha   90.00000000
_cell_angle_beta   90.00000000
_cell_angle_gamma   90.00000000
_symmetry_Int_Tables_number   1
_chemical_formula_structural   Li4Y4Sn4Pb4CO
_chemical_formula_sum   'Li4 Y4 Sn4 Pb4 C1 O1'
_cell_volume   1544.97928864
_cell_formula_units_Z   1
loop_
 _symmetry_equiv_pos_site_id
 _symmetry_equiv_pos_as_xyz
  1  'x, y, z'
loop_
 _atom_site_type_symbol
 _atom_site_label
 _atom_site_symmetry_multiplicity
 _atom_site_fract_x
 _atom_site_fract_y
 _atom_site_fract_z
 _atom_site_occupancy
  Li  Li0  1  0.75000000  0.00000000  0.09728000  1.0
  Li  Li1  1  0.75000000  0.46015000  0.96876000  1.0
  Li  Li2  1  0.25000000  0.00000000  0.09728000  1.0
  Li  Li3  1  0.25000000  0.46015000  0.96876000  1.0
  Y  Y4  1  0.00000000  0.73640000  0.03243000  1.0
  Y  Y5  1  0.00000000  0.18444000  0.90311000  1.0
  Y  Y6  1  0.50000000  0.73640000  0.03243000  1.0
  Y  Y7  1  0.50000000  0.18702000  0.90439000  1.0
  Sn  Sn8  1  0.00000000  0.23640000  0.03243000  1.0
  Sn  Sn9  1  0.00000000  0.68596000  0.89296000  1.0
  Sn  Sn10  1  0.50000000  0.23640000  0.03243000  1.0
  Sn  Sn11  1  0.50000000  0.68891000  0.89481000  1.0
  Pb  Pb12  1  0.75000000  0.50000000  0.09728000  1.0
  Pb  Pb13  1  0.74982000  0.93617000  0.95669000  1.0
  Pb  Pb14  1  0.25000000  0.50000000  0.09728000  1.0
  Pb  Pb15  1  0.25018000  0.93617000  0.95669000  1.0
  C  C16  1  0.00000000  0.20519000  0.80268000  1.0
  O  O17  1  0.00000000  0.20889000  0.75649000  1.0
