# generated using pymatgen
data_Mn16Pt16CO
_symmetry_space_group_name_H-M   'P 1'
_cell_length_a   6.97516000
_cell_length_b   8.47295000
_cell_length_c   26.35470000
_cell_angle_alpha   90.00000000
_cell_angle_beta   90.00000000
_cell_angle_gamma   90.00000000
_symmetry_Int_Tables_number   1
_chemical_formula_structural   Mn16Pt16CO
_chemical_formula_sum   'Mn16 Pt16 C1 O1'
_cell_volume   1557.56756450
_cell_formula_units_Z   1
loop_
 _symmetry_equiv_pos_site_id
 _symmetry_equiv_pos_as_xyz
  1  'x, y, z'
loop_
 _atom_site_type_symbol
 _atom_site_label
 _atom_site_symmetry_multiplicity
 _atom_site_fract_x
 _atom_site_fract_y
 _atom_site_fract_z
 _atom_site_occupancy
  Mn  Mn0  1  0.00000000  0.75000000  0.12056000  1.0
  Mn  Mn1  1  0.00000000  0.00000000  0.04019000  1.0
  Mn  Mn2  1  0.00000000  0.75000000  0.95981000  1.0
  Mn  Mn3  1  0.00000000  0.00000000  0.87944000  1.0
  Mn  Mn4  1  0.50000000  0.75000000  0.12056000  1.0
  Mn  Mn5  1  0.50000000  0.00000000  0.04019000  1.0
  Mn  Mn6  1  0.50000000  0.75000000  0.95981000  1.0
  Mn  Mn7  1  0.50000000  0.00000000  0.87944000  1.0
  Mn  Mn8  1  0.00000000  0.25000000  0.12056000  1.0
  Mn  Mn9  1  0.00000000  0.50000000  0.04019000  1.0
  Mn  Mn10  1  0.00000000  0.25000000  0.95981000  1.0
  Mn  Mn11  1  0.00000000  0.50000000  0.87944000  1.0
  Mn  Mn12  1  0.50000000  0.25000000  0.12056000  1.0
  Mn  Mn13  1  0.50000000  0.50000000  0.04019000  1.0
  Mn  Mn14  1  0.50000000  0.25000000  0.95981000  1.0
  Mn  Mn15  1  0.50000000  0.50000000  0.87944000  1.0
  Pt  Pt16  1  0.25000000  0.00000000  0.12056000  1.0
  Pt  Pt17  1  0.25000000  0.25000000  0.04019000  1.0
  Pt  Pt18  1  0.25000000  0.00000000  0.95981000  1.0
  Pt  Pt19  1  0.25000000  0.75000000  0.87944000  1.0
  Pt  Pt20  1  0.75000000  0.00000000  0.12056000  1.0
  Pt  Pt21  1  0.75000000  0.25000000  0.04019000  1.0
  Pt  Pt22  1  0.75000000  0.00000000  0.95981000  1.0
  Pt  Pt23  1  0.75000000  0.75000000  0.87944000  1.0
  Pt  Pt24  1  0.25000000  0.50000000  0.12056000  1.0
  Pt  Pt25  1  0.25000000  0.75000000  0.04019000  1.0
  Pt  Pt26  1  0.25000000  0.50000000  0.95981000  1.0
  Pt  Pt27  1  0.25000000  0.25000000  0.87944000  1.0
  Pt  Pt28  1  0.75000000  0.50000000  0.12056000  1.0
  Pt  Pt29  1  0.75000000  0.75000000  0.04019000  1.0
  Pt  Pt30  1  0.75000000  0.50000000  0.95981000  1.0
  Pt  Pt31  1  0.75000000  0.25000000  0.87944000  1.0
  C  C32  1  0.00000000  0.00000000  0.80735000  1.0
  O  O33  1  0.00000000  0.00000000  0.76371000  1.0
