# generated using pymatgen
data_LiInCuAg
_symmetry_space_group_name_H-M   Pm
_cell_length_a   6.40797000
_cell_length_b   4.53112000
_cell_length_c   26.79670000
_cell_angle_alpha   90.00000000
_cell_angle_beta   90.00000000
_cell_angle_gamma   90.00000000
_symmetry_Int_Tables_number   6
_chemical_formula_structural   LiInCuAg
_chemical_formula_sum   'Li4 In4 Cu4 Ag4'
_cell_volume   778.04971508
_cell_formula_units_Z   4
loop_
 _symmetry_equiv_pos_site_id
 _symmetry_equiv_pos_as_xyz
  1  'x, y, z'
  2  'x, -y, z'
loop_
 _atom_site_type_symbol
 _atom_site_label
 _atom_site_symmetry_multiplicity
 _atom_site_fract_x
 _atom_site_fract_y
 _atom_site_fract_z
 _atom_site_occupancy
  Li  Li0  1  0.25000000  0.00000000  0.04227000  1.0
  Li  Li1  1  0.25195500  0.00000000  0.86522000  1.0
  Li  Li2  1  0.75000000  0.50000000  0.12682000  1.0
  Li  Li3  1  0.75968500  0.50000000  0.95555000  1.0
  In  In4  1  0.00000000  0.50000000  0.04227000  1.0
  In  In5  1  0.49347000  0.00000000  0.95711000  1.0
  In  In6  1  0.50000000  0.00000000  0.12682000  1.0
  In  In7  1  0.98878500  0.50000000  0.86174500  1.0
  Cu  Cu8  1  0.24104500  0.50000000  0.95473000  1.0
  Cu  Cu9  1  0.25000000  0.50000000  0.12682000  1.0
  Cu  Cu10  1  0.75000000  0.00000000  0.04227000  1.0
  Cu  Cu11  1  0.76137000  0.00000000  0.87674000  1.0
  Ag  Ag12  1  0.00000000  0.00000000  0.12682000  1.0
  Ag  Ag13  1  0.00683000  0.00000000  0.95870000  1.0
  Ag  Ag14  1  0.50000000  0.50000000  0.04227000  1.0
  Ag  Ag15  1  0.50647000  0.50000000  0.87390000  1.0
