# generated using pymatgen
data_Mn24Ge8C
_symmetry_space_group_name_H-M   Pmm2
_cell_length_a   7.42262000
_cell_length_b   7.42262000
_cell_length_c   25.56700000
_cell_angle_alpha   90.00000000
_cell_angle_beta   90.00000000
_cell_angle_gamma   90.00000000
_symmetry_Int_Tables_number   25
_chemical_formula_structural   Mn24Ge8C
_chemical_formula_sum   'Mn24 Ge8 C1'
_cell_volume   1408.62121972
_cell_formula_units_Z   1
loop_
 _symmetry_equiv_pos_site_id
 _symmetry_equiv_pos_as_xyz
  1  'x, y, z'
  2  '-x, -y, z'
  3  '-x, y, z'
  4  'x, -y, z'
loop_
 _atom_site_type_symbol
 _atom_site_label
 _atom_site_symmetry_multiplicity
 _atom_site_fract_x
 _atom_site_fract_y
 _atom_site_fract_z
 _atom_site_occupancy
  Mn  Mn0  4  0.25000000  0.25000000  0.03629000  1.0
  Mn  Mn1  4  0.25000000  0.25000000  0.89113000  1.0
  Mn  Mn2  2  0.00000000  0.25000000  0.10887000  1.0
  Mn  Mn3  2  0.00000000  0.25000000  0.96371000  1.0
  Mn  Mn4  2  0.50000000  0.25000000  0.10887000  1.0
  Mn  Mn5  2  0.50000000  0.25000000  0.96371000  1.0
  Mn  Mn6  1  0.00000000  0.00000000  0.03629000  1.0
  Mn  Mn7  1  0.00000000  0.00000000  0.89113000  1.0
  Mn  Mn8  1  0.00000000  0.50000000  0.03629000  1.0
  Mn  Mn9  1  0.00000000  0.50000000  0.89113000  1.0
  Mn  Mn10  1  0.50000000  0.00000000  0.03629000  1.0
  Mn  Mn11  1  0.50000000  0.00000000  0.89113000  1.0
  Mn  Mn12  1  0.50000000  0.50000000  0.03629000  1.0
  Mn  Mn13  1  0.50000000  0.50000000  0.89113000  1.0
  Ge  Ge14  2  0.25000000  0.00000000  0.10887000  1.0
  Ge  Ge15  2  0.25000000  0.00000000  0.96371000  1.0
  Ge  Ge16  2  0.25000000  0.50000000  0.10887000  1.0
  Ge  Ge17  2  0.25000000  0.50000000  0.96371000  1.0
  C  C18  1  0.00000000  0.00000000  0.14016000  1.0
