# generated using pymatgen
data_Li16Sb8Au8CO
_symmetry_space_group_name_H-M   Pm
_cell_length_a   6.66546000
_cell_length_b   9.42638000
_cell_length_c   27.06980000
_cell_angle_alpha   90.00000000
_cell_angle_beta   90.00000000
_cell_angle_gamma   90.00000000
_symmetry_Int_Tables_number   6
_chemical_formula_structural   Li16Sb8Au8CO
_chemical_formula_sum   'Li16 Sb8 Au8 C1 O1'
_cell_volume   1700.82690343
_cell_formula_units_Z   1
loop_
 _symmetry_equiv_pos_site_id
 _symmetry_equiv_pos_as_xyz
  1  'x, y, z'
  2  'x, -y, z'
loop_
 _atom_site_type_symbol
 _atom_site_label
 _atom_site_symmetry_multiplicity
 _atom_site_fract_x
 _atom_site_fract_y
 _atom_site_fract_z
 _atom_site_occupancy
  Li  Li0  2  0.50000000  0.25000000  0.86942000  1.0
  Li  Li1  2  0.51309000  0.24840000  0.03640000  1.0
  Li  Li2  2  0.70688000  0.24904000  0.12670000  1.0
  Li  Li3  2  0.75000000  0.25000000  0.95647000  1.0
  Li  Li4  1  -0.00000000  0.50000000  0.95647000  1.0
  Li  Li5  1  -0.00000000  0.00000000  0.95647000  1.0
  Li  Li6  1  0.03281000  0.50000000  0.12297000  1.0
  Li  Li7  1  0.03611000  0.00000000  0.12821000  1.0
  Li  Li8  1  0.25000000  0.00000000  0.86942000  1.0
  Li  Li9  1  0.25000000  0.50000000  0.86942000  1.0
  Li  Li10  1  0.26706000  0.00000000  0.04694000  1.0
  Li  Li11  1  0.27848000  0.50000000  0.04572000  1.0
  Sb  Sb12  2  0.00000000  0.25000000  0.86942000  1.0
  Sb  Sb13  2  0.98457000  0.25082000  0.04481000  1.0
  Sb  Sb14  1  0.48334000  0.00000000  0.14184000  1.0
  Sb  Sb15  1  0.48735000  0.50000000  0.14255000  1.0
  Sb  Sb16  1  0.50000000  0.00000000  0.95647000  1.0
  Sb  Sb17  1  0.50000000  0.50000000  0.95647000  1.0
  Au  Au18  2  0.25000000  0.25000000  0.95647000  1.0
  Au  Au19  2  0.28287000  0.25281000  0.11626000  1.0
  Au  Au20  1  0.72962000  0.50000000  0.05244000  1.0
  Au  Au21  1  0.73663000  0.00000000  0.05550000  1.0
  Au  Au22  1  0.75000000  0.00000000  0.86942000  1.0
  Au  Au23  1  0.75000000  0.50000000  0.86942000  1.0
  C  C24  1  0.99265000  0.00000000  0.20615000  1.0
  O  O25  1  0.99095000  0.00000000  0.24826000  1.0
