# generated using pymatgen
data_Li2BiAu
_symmetry_space_group_name_H-M   Pmm2
_cell_length_a   4.86459767
_cell_length_b   4.86459767
_cell_length_c   25.15970000
_cell_angle_alpha   90.00000000
_cell_angle_beta   90.00000000
_cell_angle_gamma   90.00000000
_symmetry_Int_Tables_number   25
_chemical_formula_structural   Li2BiAu
_chemical_formula_sum   'Li4 Bi2 Au2'
_cell_volume   595.38695259
_cell_formula_units_Z   2
loop_
 _symmetry_equiv_pos_site_id
 _symmetry_equiv_pos_as_xyz
  1  'x, y, z'
  2  '-x, -y, z'
  3  '-x, y, z'
  4  'x, -y, z'
loop_
 _atom_site_type_symbol
 _atom_site_label
 _atom_site_symmetry_multiplicity
 _atom_site_fract_x
 _atom_site_fract_y
 _atom_site_fract_z
 _atom_site_occupancy
  Li  Li0  1  0.00000000  0.00000000  0.97281000  1.0
  Li  Li1  1  0.00000000  0.50000000  0.03418000  1.0
  Li  Li2  1  0.50000000  0.00000000  0.89268000  1.0
  Li  Li3  1  0.50000000  0.50000000  0.10254000  1.0
  Bi  Bi4  1  0.00000000  0.00000000  0.10254000  1.0
  Bi  Bi5  1  0.50000000  0.50000000  0.95622000  1.0
  Au  Au6  1  0.00000000  0.50000000  0.90565000  1.0
  Au  Au7  1  0.50000000  0.00000000  0.03418000  1.0
