# generated using pymatgen
data_Li24Pd8CO
_symmetry_space_group_name_H-M   'P 1'
_cell_length_a   6.21964000
_cell_length_b   8.79589000
_cell_length_c   26.59690000
_cell_angle_alpha   90.00000000
_cell_angle_beta   90.00000000
_cell_angle_gamma   90.00000000
_symmetry_Int_Tables_number   1
_chemical_formula_structural   Li24Pd8CO
_chemical_formula_sum   'Li24 Pd8 C1 O1'
_cell_volume   1455.04377030
_cell_formula_units_Z   1
loop_
 _symmetry_equiv_pos_site_id
 _symmetry_equiv_pos_as_xyz
  1  'x, y, z'
loop_
 _atom_site_type_symbol
 _atom_site_label
 _atom_site_symmetry_multiplicity
 _atom_site_fract_x
 _atom_site_fract_y
 _atom_site_fract_z
 _atom_site_occupancy
  Li  Li0  1  0.25000000  0.75000000  0.95866000  1.0
  Li  Li1  1  0.75000000  0.25000000  0.95866000  1.0
  Li  Li2  1  0.75000000  0.75000000  0.95866000  1.0
  Li  Li3  1  0.25000000  0.25000000  0.95866000  1.0
  Li  Li4  1  0.75000000  0.50000000  0.87598000  1.0
  Li  Li5  1  0.25000000  0.00000000  0.87598000  1.0
  Li  Li6  1  0.25000000  0.50000000  0.87598000  1.0
  Li  Li7  1  0.75000000  0.00000000  0.87598000  1.0
  Li  Li8  1  0.00000000  0.50000000  0.95866000  1.0
  Li  Li9  1  0.50000000  0.75000000  0.87598000  1.0
  Li  Li10  1  0.00000000  0.00000000  0.95866000  1.0
  Li  Li11  1  0.50000000  0.25000000  0.87598000  1.0
  Li  Li12  1  0.26692000  0.24715000  0.13327000  1.0
  Li  Li13  1  0.73308000  0.75285000  0.13327000  1.0
  Li  Li14  1  0.73308000  0.24715000  0.13327000  1.0
  Li  Li15  1  0.26692000  0.75285000  0.13327000  1.0
  Li  Li16  1  0.75397000  0.00000000  0.03947000  1.0
  Li  Li17  1  0.25170000  0.50000000  0.03934000  1.0
  Li  Li18  1  0.24603000  0.00000000  0.03947000  1.0
  Li  Li19  1  0.74830000  0.50000000  0.03934000  1.0
  Li  Li20  1  0.00000000  0.00000000  0.11990000  1.0
  Li  Li21  1  0.50000000  0.24862000  0.04600000  1.0
  Li  Li22  1  0.00000000  0.50000000  0.11707000  1.0
  Li  Li23  1  0.50000000  0.75138000  0.04600000  1.0
  Pd  Pd24  1  0.00000000  0.75000000  0.87598000  1.0
  Pd  Pd25  1  0.50000000  0.00000000  0.95866000  1.0
  Pd  Pd26  1  0.50000000  0.50000000  0.95866000  1.0
  Pd  Pd27  1  0.00000000  0.25000000  0.87598000  1.0
  Pd  Pd28  1  0.00000000  0.25162000  0.04919000  1.0
  Pd  Pd29  1  0.50000000  0.50000000  0.11569000  1.0
  Pd  Pd30  1  0.50000000  0.00000000  0.11393000  1.0
  Pd  Pd31  1  0.00000000  0.74838000  0.04919000  1.0
  C  C32  1  0.00000000  0.00000000  0.19597000  1.0
  O  O33  1  0.00000000  0.00000000  0.23939000  1.0
