# generated using pymatgen
data_Y8Ga8Cu8Pd8CO
_symmetry_space_group_name_H-M   'P 1'
_cell_length_a   6.59466000
_cell_length_b   9.32626000
_cell_length_c   26.99470000
_cell_angle_alpha   90.00000000
_cell_angle_beta   90.00000000
_cell_angle_gamma   90.00000000
_symmetry_Int_Tables_number   1
_chemical_formula_structural   Y8Ga8Cu8Pd8CO
_chemical_formula_sum   'Y8 Ga8 Cu8 Pd8 C1 O1'
_cell_volume   1660.26890321
_cell_formula_units_Z   1
loop_
 _symmetry_equiv_pos_site_id
 _symmetry_equiv_pos_as_xyz
  1  'x, y, z'
loop_
 _atom_site_type_symbol
 _atom_site_label
 _atom_site_symmetry_multiplicity
 _atom_site_fract_x
 _atom_site_fract_y
 _atom_site_fract_z
 _atom_site_occupancy
  Y  Y0  1  0.25000000  0.00000000  0.95681000  1.0
  Y  Y1  1  0.25000000  0.50000000  0.95681000  1.0
  Y  Y2  1  0.75000000  0.75000000  0.87044000  1.0
  Y  Y3  1  0.75000000  0.25000000  0.87044000  1.0
  Y  Y4  1  0.33541000  0.51153000  0.14383000  1.0
  Y  Y5  1  0.33357000  0.99700000  0.13903000  1.0
  Y  Y6  1  0.76803000  0.25284000  0.04516000  1.0
  Y  Y7  1  0.76378000  0.74682000  0.04574000  1.0
  Ga  Ga8  1  0.75000000  0.00000000  0.95681000  1.0
  Ga  Ga9  1  0.75000000  0.50000000  0.95681000  1.0
  Ga  Ga10  1  0.25000000  0.75000000  0.87044000  1.0
  Ga  Ga11  1  0.25000000  0.25000000  0.87044000  1.0
  Ga  Ga12  1  0.80268000  0.50698000  0.12623000  1.0
  Ga  Ga13  1  0.80981000  0.00846000  0.12780000  1.0
  Ga  Ga14  1  0.27230000  0.24799000  0.04349000  1.0
  Ga  Ga15  1  0.26883000  0.75066000  0.04334000  1.0
  Cu  Cu16  1  0.00000000  0.00000000  0.87044000  1.0
  Cu  Cu17  1  0.00000000  0.50000000  0.87044000  1.0
  Cu  Cu18  1  0.50000000  0.25000000  0.95681000  1.0
  Cu  Cu19  1  0.50000000  0.75000000  0.95681000  1.0
  Cu  Cu20  1  0.07862000  0.50084000  0.05926000  1.0
  Cu  Cu21  1  0.06495000  0.00057000  0.05509000  1.0
  Cu  Cu22  1  0.64361000  0.76666000  0.14870000  1.0
  Cu  Cu23  1  0.63101000  0.25873000  0.14501000  1.0
  Pd  Pd24  1  0.00000000  0.75000000  0.95681000  1.0
  Pd  Pd25  1  0.00000000  0.25000000  0.95681000  1.0
  Pd  Pd26  1  0.50000000  0.50000000  0.87044000  1.0
  Pd  Pd27  1  0.50000000  0.00000000  0.87044000  1.0
  Pd  Pd28  1  0.04408000  0.25605000  0.12414000  1.0
  Pd  Pd29  1  0.03845000  0.75348000  0.12572000  1.0
  Pd  Pd30  1  0.50370000  0.99862000  0.04088000  1.0
  Pd  Pd31  1  0.49665000  0.49695000  0.04280000  1.0
  C  C32  1  0.35596000  0.77299000  0.18015000  1.0
  O  O33  1  0.33989000  0.66831000  0.20948000  1.0
