# generated using pymatgen
data_Y8Ga8Cu8Pd8CO
_symmetry_space_group_name_H-M   P1
_cell_length_a   6.59466000
_cell_length_b   9.32626000
_cell_length_c   26.99470000
_cell_angle_alpha   90.00000000
_cell_angle_beta   90.00000000
_cell_angle_gamma   90.00000000
_symmetry_Int_Tables_number   1
_chemical_formula_structural   Y8Ga8Cu8Pd8CO
_chemical_formula_sum   'Y8 Ga8 Cu8 Pd8 C1 O1'
_cell_volume   1660.26890321
_cell_formula_units_Z   1
loop_
 _symmetry_equiv_pos_site_id
 _symmetry_equiv_pos_as_xyz
  1  'x, y, z'
loop_
 _atom_site_type_symbol
 _atom_site_label
 _atom_site_symmetry_multiplicity
 _atom_site_fract_x
 _atom_site_fract_y
 _atom_site_fract_z
 _atom_site_occupancy
  Y  Y0  1  0.23197000  0.74716000  0.04516000  1.0
  Y  Y1  1  0.23622000  0.25318000  0.04574000  1.0
  Y  Y2  1  0.25000000  0.25000000  0.87044000  1.0
  Y  Y3  1  0.25000000  0.75000000  0.87044000  1.0
  Y  Y4  1  0.66459000  0.48847000  0.14383000  1.0
  Y  Y5  1  0.66643000  0.00300000  0.13903000  1.0
  Y  Y6  1  0.75000000  0.00000000  0.95681000  1.0
  Y  Y7  1  0.75000000  0.50000000  0.95681000  1.0
  Ga  Ga8  1  0.19019000  0.99154000  0.12780000  1.0
  Ga  Ga9  1  0.19732000  0.49302000  0.12623000  1.0
  Ga  Ga10  1  0.25000000  0.00000000  0.95681000  1.0
  Ga  Ga11  1  0.25000000  0.50000000  0.95681000  1.0
  Ga  Ga12  1  0.72770000  0.75201000  0.04349000  1.0
  Ga  Ga13  1  0.73117000  0.24934000  0.04334000  1.0
  Ga  Ga14  1  0.75000000  0.25000000  0.87044000  1.0
  Ga  Ga15  1  0.75000000  0.75000000  0.87044000  1.0
  Cu  Cu16  1  0.00000000  0.00000000  0.87044000  1.0
  Cu  Cu17  1  0.00000000  0.50000000  0.87044000  1.0
  Cu  Cu18  1  0.35639000  0.23334000  0.14870000  1.0
  Cu  Cu19  1  0.36899000  0.74127000  0.14501000  1.0
  Cu  Cu20  1  0.50000000  0.25000000  0.95681000  1.0
  Cu  Cu21  1  0.50000000  0.75000000  0.95681000  1.0
  Cu  Cu22  1  0.92138000  0.49916000  0.05926000  1.0
  Cu  Cu23  1  0.93505000  0.99943000  0.05509000  1.0
  Pd  Pd24  1  0.00000000  0.25000000  0.95681000  1.0
  Pd  Pd25  1  0.00000000  0.75000000  0.95681000  1.0
  Pd  Pd26  1  0.49630000  0.00138000  0.04088000  1.0
  Pd  Pd27  1  0.50000000  0.00000000  0.87044000  1.0
  Pd  Pd28  1  0.50000000  0.50000000  0.87044000  1.0
  Pd  Pd29  1  0.50335000  0.50305000  0.04280000  1.0
  Pd  Pd30  1  0.95592000  0.74395000  0.12414000  1.0
  Pd  Pd31  1  0.96155000  0.24652000  0.12572000  1.0
  C  C32  1  0.64404000  0.22701000  0.18015000  1.0
  O  O33  1  0.66011000  0.33169000  0.20948000  1.0
