# generated using pymatgen
data_Li4Sc4Ga4Ge4CO
_symmetry_space_group_name_H-M   'P 1'
_cell_length_a   5.81702000
_cell_length_b   7.95848000
_cell_length_c   24.35990000
_cell_angle_alpha   90.00000000
_cell_angle_beta   90.00000000
_cell_angle_gamma   90.00000000
_symmetry_Int_Tables_number   1
_chemical_formula_structural   Li4Sc4Ga4Ge4CO
_chemical_formula_sum   'Li4 Sc4 Ga4 Ge4 C1 O1'
_cell_volume   1127.73273589
_cell_formula_units_Z   1
loop_
 _symmetry_equiv_pos_site_id
 _symmetry_equiv_pos_as_xyz
  1  'x, y, z'
loop_
 _atom_site_type_symbol
 _atom_site_label
 _atom_site_symmetry_multiplicity
 _atom_site_fract_x
 _atom_site_fract_y
 _atom_site_fract_z
 _atom_site_occupancy
  Li  Li0  1  0.74400000  0.75471000  0.95991000  1.0
  Li  Li1  1  0.27699000  0.75000000  0.08949000  1.0
  Li  Li2  1  0.74401000  0.24530000  0.95990000  1.0
  Li  Li3  1  0.27699000  0.25000000  0.08949000  1.0
  Sc  Sc4  1  0.24797000  0.75128000  0.96716000  1.0
  Sc  Sc5  1  0.77699000  0.75000000  0.08949000  1.0
  Sc  Sc6  1  0.24796000  0.24872000  0.96715000  1.0
  Sc  Sc7  1  0.77699000  0.25000000  0.08949000  1.0
  Ga  Ga8  1  0.96914000  0.99995000  0.90657000  1.0
  Ga  Ga9  1  0.51799000  0.00000000  0.02983000  1.0
  Ga  Ga10  1  0.97030000  0.50003000  0.91053000  1.0
  Ga  Ga11  1  0.51799000  0.50000000  0.02983000  1.0
  Ge  Ge12  1  0.50343000  0.99999000  0.91762000  1.0
  Ge  Ge13  1  0.01799000  0.00000000  0.02983000  1.0
  Ge  Ge14  1  0.50665000  0.50001000  0.91989000  1.0
  Ge  Ge15  1  0.01799000  0.50000000  0.02983000  1.0
  C  C16  1  0.98222000  0.99996000  0.81788000  1.0
  O  O17  1  0.00945000  0.00001000  0.77133000  1.0
