data_image0
_chemical_formula_structural       Be16Pd16C
_chemical_formula_sum              "Be16 Pd16 C1"
_cell_length_a       5.70199
_cell_length_b       8.06383
_cell_length_c       26.0479
_cell_angle_alpha    90
_cell_angle_beta     90
_cell_angle_gamma    90

_space_group_name_H-M_alt    "P 1"
_space_group_IT_number       1

loop_
  _space_group_symop_operation_xyz
  'x, y, z'

loop_
  _atom_site_type_symbol
  _atom_site_label
  _atom_site_symmetry_multiplicity
  _atom_site_fract_x
  _atom_site_fract_y
  _atom_site_fract_z
  _atom_site_occupancy
  Be  Be1       1.0  0.00000  0.00000  0.88391  1.0000
  Be  Be2       1.0  0.00000  0.25000  0.96130  1.0000
  Be  Be3       1.0  0.99999  0.00000  0.03720  1.0000
  Be  Be4       1.0  0.00002  0.21137  0.13801  1.0000
  Be  Be5       1.0  0.00000  0.50000  0.88391  1.0000
  Be  Be6       1.0  0.00000  0.75000  0.96130  1.0000
  Be  Be7       1.0  0.00000  0.50000  0.04081  1.0000
  Be  Be8       1.0  0.99998  0.78863  0.13801  1.0000
  Be  Be9       1.0  0.50000  0.00000  0.88391  1.0000
  Be  Be10      1.0  0.50000  0.25000  0.96130  1.0000
  Be  Be11      1.0  0.50001  0.00000  0.03199  1.0000
  Be  Be12      1.0  0.49999  0.26877  0.11302  1.0000
  Be  Be13      1.0  0.50000  0.50000  0.88391  1.0000
  Be  Be14      1.0  0.50000  0.75000  0.96130  1.0000
  Be  Be15      1.0  0.50000  0.50000  0.04311  1.0000
  Be  Be16      1.0  0.50000  0.73123  0.11302  1.0000
  Pd  Pd1       1.0  0.25000  0.25000  0.88391  1.0000
  Pd  Pd2       1.0  0.25000  0.00000  0.96130  1.0000
  Pd  Pd3       1.0  0.24804  0.25131  0.03805  1.0000
  Pd  Pd4       1.0  0.27341  0.99999  0.11015  1.0000
  Pd  Pd5       1.0  0.25000  0.75000  0.88391  1.0000
  Pd  Pd6       1.0  0.25000  0.50000  0.96130  1.0000
  Pd  Pd7       1.0  0.24804  0.74868  0.03805  1.0000
  Pd  Pd8       1.0  0.24069  0.50000  0.11639  1.0000
  Pd  Pd9       1.0  0.75000  0.25000  0.88391  1.0000
  Pd  Pd10      1.0  0.75000  0.00000  0.96130  1.0000
  Pd  Pd11      1.0  0.75197  0.25132  0.03805  1.0000
  Pd  Pd12      1.0  0.72657  0.00002  0.11016  1.0000
  Pd  Pd13      1.0  0.75000  0.75000  0.88391  1.0000
  Pd  Pd14      1.0  0.75000  0.50000  0.96130  1.0000
  Pd  Pd15      1.0  0.75197  0.74869  0.03805  1.0000
  Pd  Pd16      1.0  0.75930  0.50000  0.11640  1.0000
  C   C1        1.0  1.00000  1.00000  0.15851  1.0000
