# generated using pymatgen
data_Be16Pd16C
_symmetry_space_group_name_H-M   Pmm2
_cell_length_a   5.70199000
_cell_length_b   8.06383000
_cell_length_c   26.04790000
_cell_angle_alpha   90.00000000
_cell_angle_beta   90.00000000
_cell_angle_gamma   90.00000000
_symmetry_Int_Tables_number   25
_chemical_formula_structural   Be16Pd16C
_chemical_formula_sum   'Be16 Pd16 C1'
_cell_volume   1197.67926472
_cell_formula_units_Z   1
loop_
 _symmetry_equiv_pos_site_id
 _symmetry_equiv_pos_as_xyz
  1  'x, y, z'
  2  '-x, -y, z'
  3  '-x, y, z'
  4  'x, -y, z'
loop_
 _atom_site_type_symbol
 _atom_site_label
 _atom_site_symmetry_multiplicity
 _atom_site_fract_x
 _atom_site_fract_y
 _atom_site_fract_z
 _atom_site_occupancy
  Be  Be0  2  0.00000000  0.21137000  0.13801000  1.0
  Be  Be1  2  0.00000000  0.25000000  0.96130000  1.0
  Be  Be2  2  0.50000000  0.25000000  0.96130000  1.0
  Be  Be3  2  0.50000000  0.26877000  0.11302000  1.0
  Be  Be4  1  0.00000000  0.00000000  0.03720000  1.0
  Be  Be5  1  0.00000000  0.00000000  0.88391000  1.0
  Be  Be6  1  0.00000000  0.50000000  0.04081000  1.0
  Be  Be7  1  0.00000000  0.50000000  0.88391000  1.0
  Be  Be8  1  0.50000000  0.00000000  0.03199000  1.0
  Be  Be9  1  0.50000000  0.00000000  0.88391000  1.0
  Be  Be10  1  0.50000000  0.50000000  0.04311000  1.0
  Be  Be11  1  0.50000000  0.50000000  0.88391000  1.0
  Pd  Pd12  4  0.24804000  0.25131000  0.03805000  1.0
  Pd  Pd13  4  0.25000000  0.25000000  0.88391000  1.0
  Pd  Pd14  2  0.24069000  0.50000000  0.11639000  1.0
  Pd  Pd15  2  0.25000000  0.00000000  0.96130000  1.0
  Pd  Pd16  2  0.25000000  0.50000000  0.96130000  1.0
  Pd  Pd17  2  0.27341000  0.00000000  0.11015000  1.0
  C  C18  1  0.00000000  0.00000000  0.15851000  1.0
