# generated using pymatgen
data_Ti8In8Ni16C
_symmetry_space_group_name_H-M   'P 1'
_cell_length_a   8.69682000
_cell_length_b   6.14958000
_cell_length_c   26.52260000
_cell_angle_alpha   90.00000000
_cell_angle_beta   90.00000000
_cell_angle_gamma   90.00000000
_symmetry_Int_Tables_number   1
_chemical_formula_structural   Ti8In8Ni16C
_chemical_formula_sum   'Ti8 In8 Ni16 C1'
_cell_volume   1418.47613235
_cell_formula_units_Z   1
loop_
 _symmetry_equiv_pos_site_id
 _symmetry_equiv_pos_as_xyz
  1  'x, y, z'
loop_
 _atom_site_type_symbol
 _atom_site_label
 _atom_site_symmetry_multiplicity
 _atom_site_fract_x
 _atom_site_fract_y
 _atom_site_fract_z
 _atom_site_occupancy
  Ti  Ti0  1  0.75002000  0.00000000  0.12296000  1.0
  Ti  Ti1  1  0.00000000  0.50000000  0.04099000  1.0
  Ti  Ti2  1  0.50000000  0.50000000  0.04099000  1.0
  Ti  Ti3  1  0.24998000  0.00000000  0.12296000  1.0
  Ti  Ti4  1  0.25661000  0.99416000  0.95909000  1.0
  Ti  Ti5  1  0.50000000  0.51629000  0.88107000  1.0
  Ti  Ti6  1  0.00000000  0.55211000  0.87689000  1.0
  Ti  Ti7  1  0.74339000  0.99416000  0.95909000  1.0
  In  In8  1  0.50000000  0.00000000  0.04099000  1.0
  In  In9  1  0.75002000  0.50000000  0.12296000  1.0
  In  In10  1  0.00000000  0.00000000  0.04099000  1.0
  In  In11  1  0.24998000  0.50000000  0.12296000  1.0
  In  In12  1  0.00000000  0.93951000  0.82335000  1.0
  In  In13  1  0.23879000  0.49365000  0.95818000  1.0
  In  In14  1  0.50000000  0.02399000  0.87016000  1.0
  In  In15  1  0.76121000  0.49365000  0.95818000  1.0
  Ni  Ni16  1  0.75002000  0.25000000  0.04099000  1.0
  Ni  Ni17  1  0.25002000  0.75000000  0.04099000  1.0
  Ni  Ni18  1  0.74998000  0.75000000  0.04099000  1.0
  Ni  Ni19  1  0.24998000  0.25000000  0.04099000  1.0
  Ni  Ni20  1  0.50000000  0.75000000  0.12296000  1.0
  Ni  Ni21  1  0.00000000  0.25000000  0.12296000  1.0
  Ni  Ni22  1  0.50000000  0.25000000  0.12296000  1.0
  Ni  Ni23  1  0.00000000  0.75000000  0.12296000  1.0
  Ni  Ni24  1  0.21846000  0.20227000  0.88069000  1.0
  Ni  Ni25  1  0.74758000  0.76729000  0.88144000  1.0
  Ni  Ni26  1  0.25242000  0.76729000  0.88144000  1.0
  Ni  Ni27  1  0.78154000  0.20227000  0.88069000  1.0
  Ni  Ni28  1  0.00000000  0.77069000  0.95571000  1.0
  Ni  Ni29  1  0.50000000  0.27199000  0.95913000  1.0
  Ni  Ni30  1  0.00000000  0.20401000  0.94768000  1.0
  Ni  Ni31  1  0.50000000  0.73692000  0.95732000  1.0
  C  C32  1  0.00000000  0.23849000  0.87361000  1.0
