# generated using pymatgen
data_Ti8In8Ni16C
_symmetry_space_group_name_H-M   Pm
_cell_length_a   6.14958000
_cell_length_b   8.69682000
_cell_length_c   26.52260000
_cell_angle_alpha   90.00000000
_cell_angle_beta   90.00000000
_cell_angle_gamma   90.00000000
_symmetry_Int_Tables_number   6
_chemical_formula_structural   Ti8In8Ni16C
_chemical_formula_sum   'Ti8 In8 Ni16 C1'
_cell_volume   1418.47613235
_cell_formula_units_Z   1
loop_
 _symmetry_equiv_pos_site_id
 _symmetry_equiv_pos_as_xyz
  1  'x, y, z'
  2  'x, -y, z'
loop_
 _atom_site_type_symbol
 _atom_site_label
 _atom_site_symmetry_multiplicity
 _atom_site_fract_x
 _atom_site_fract_y
 _atom_site_fract_z
 _atom_site_occupancy
  Ti  Ti0  2  0.00000000  0.24998000  0.87704000  1.0
  Ti  Ti1  2  0.99416000  0.25661000  0.04091000  1.0
  Ti  Ti2  1  0.50000000  0.00000000  0.95901000  1.0
  Ti  Ti3  1  0.50000000  0.50000000  0.95901000  1.0
  Ti  Ti4  1  0.51629000  0.50000000  0.11893000  1.0
  Ti  Ti5  1  0.55211000  0.00000000  0.12311000  1.0
  In  In6  2  0.49365000  0.23879000  0.04182000  1.0
  In  In7  2  0.50000000  0.24998000  0.87704000  1.0
  In  In8  1  0.00000000  0.00000000  0.95901000  1.0
  In  In9  1  0.00000000  0.50000000  0.95901000  1.0
  In  In10  1  0.02399000  0.50000000  0.12984000  1.0
  In  In11  1  0.93951000  0.00000000  0.17665000  1.0
  Ni  Ni12  2  0.20227000  0.21846000  0.11931000  1.0
  Ni  Ni13  2  0.25000000  0.24998000  0.95901000  1.0
  Ni  Ni14  2  0.75000000  0.25002000  0.95901000  1.0
  Ni  Ni15  2  0.76729000  0.25242000  0.11856000  1.0
  Ni  Ni16  1  0.20401000  0.00000000  0.05232000  1.0
  Ni  Ni17  1  0.25000000  0.00000000  0.87704000  1.0
  Ni  Ni18  1  0.25000000  0.50000000  0.87704000  1.0
  Ni  Ni19  1  0.27199000  0.50000000  0.04087000  1.0
  Ni  Ni20  1  0.73692000  0.50000000  0.04268000  1.0
  Ni  Ni21  1  0.75000000  0.00000000  0.87704000  1.0
  Ni  Ni22  1  0.75000000  0.50000000  0.87704000  1.0
  Ni  Ni23  1  0.77069000  0.00000000  0.04429000  1.0
  C  C24  1  0.23849000  0.00000000  0.12639000  1.0
