# generated using pymatgen
data_Li4In4Ge4Au4C
_symmetry_space_group_name_H-M   Pm
_cell_length_a   6.02588000
_cell_length_b   8.39470000
_cell_length_c   24.51900000
_cell_angle_alpha   90.00000000
_cell_angle_beta   90.00000000
_cell_angle_gamma   90.00000000
_symmetry_Int_Tables_number   6
_chemical_formula_structural   Li4In4Ge4Au4C
_chemical_formula_sum   'Li4 In4 Ge4 Au4 C1'
_cell_volume   1240.30476712
_cell_formula_units_Z   1
loop_
 _symmetry_equiv_pos_site_id
 _symmetry_equiv_pos_as_xyz
  1  'x, y, z'
  2  'x, -y, z'
loop_
 _atom_site_type_symbol
 _atom_site_label
 _atom_site_symmetry_multiplicity
 _atom_site_fract_x
 _atom_site_fract_y
 _atom_site_fract_z
 _atom_site_occupancy
  Li  Li0  1  0.25990000  0.00000000  0.09215000  1.0
  Li  Li1  1  0.25990000  0.50000000  0.09215000  1.0
  Li  Li2  1  0.76693000  0.00000000  0.96722000  1.0
  Li  Li3  1  0.77317000  0.50000000  0.95923000  1.0
  In  In4  1  0.27036000  0.50000000  0.96401000  1.0
  In  In5  1  0.29385000  0.00000000  0.95384000  1.0
  In  In6  1  0.75990000  0.00000000  0.09215000  1.0
  In  In7  1  0.75990000  0.50000000  0.09215000  1.0
  Ge  Ge8  2  0.00660000  0.25002000  0.03072000  1.0
  Ge  Ge9  2  0.57935000  0.28465000  0.87349000  1.0
  Au  Au10  2  0.50660000  0.25002000  0.03072000  1.0
  Au  Au11  2  0.96913000  0.23875000  0.91933000  1.0
  C  C12  1  0.53368000  0.50000000  0.89543000  1.0
