# generated using pymatgen
data_Li4Y4Sn4Ge4CO
_symmetry_space_group_name_H-M   Pm
_cell_length_a   6.38551000
_cell_length_b   8.52742000
_cell_length_c   24.76910000
_cell_angle_alpha   90.00000000
_cell_angle_beta   90.00000000
_cell_angle_gamma   90.00000000
_symmetry_Int_Tables_number   6
_chemical_formula_structural   Li4Y4Sn4Ge4CO
_chemical_formula_sum   'Li4 Y4 Sn4 Ge4 C1 O1'
_cell_volume   1348.72519246
_cell_formula_units_Z   1
loop_
 _symmetry_equiv_pos_site_id
 _symmetry_equiv_pos_as_xyz
  1  'x, y, z'
  2  'x, -y, z'
loop_
 _atom_site_type_symbol
 _atom_site_label
 _atom_site_symmetry_multiplicity
 _atom_site_fract_x
 _atom_site_fract_y
 _atom_site_fract_z
 _atom_site_occupancy
  Li  Li0  2  0.18150000  0.24998000  0.90373000  1.0
  Li  Li1  2  0.76086000  0.25019000  0.04446000  1.0
  Y  Y2  2  0.24215000  0.25032000  0.03430000  1.0
  Y  Y3  2  0.68150000  0.24998000  0.90373000  1.0
  Sn  Sn4  1  0.53647000  0.00000000  0.08923000  1.0
  Sn  Sn5  1  0.53690000  0.50000000  0.08972000  1.0
  Sn  Sn6  1  0.95433000  0.00000000  0.96791000  1.0
  Sn  Sn7  1  0.95433000  0.50000000  0.96791000  1.0
  Ge  Ge8  1  0.45433000  0.00000000  0.96791000  1.0
  Ge  Ge9  1  0.45433000  0.50000000  0.96791000  1.0
  Ge  Ge10  1  0.97190000  0.00000000  0.08140000  1.0
  Ge  Ge11  1  0.97214000  0.50000000  0.08210000  1.0
  C  C12  1  0.08169000  0.00000000  0.22241000  1.0
  O  O13  1  0.93104000  0.00000000  0.24686000  1.0
