data_image0
_chemical_formula_structural       Zr4Rh12CO
_chemical_formula_sum              "Zr4 Rh12 C1 O1"
_cell_length_a       7.95743
_cell_length_b       5.62675
_cell_length_c       24.2201
_cell_angle_alpha    90
_cell_angle_beta     90
_cell_angle_gamma    90

_space_group_name_H-M_alt    "P 1"
_space_group_IT_number       1

loop_
  _space_group_symop_operation_xyz
  'x, y, z'

loop_
  _atom_site_type_symbol
  _atom_site_label
  _atom_site_symmetry_multiplicity
  _atom_site_fract_x
  _atom_site_fract_y
  _atom_site_fract_z
  _atom_site_occupancy
  Zr  Zr1       1.0  0.00000  0.00000  0.91288  1.0000
  Zr  Zr2       1.0  0.99926  0.49957  0.02871  1.0000
  Zr  Zr3       1.0  0.50000  0.00000  0.91288  1.0000
  Zr  Zr4       1.0  0.50073  0.49958  0.02866  1.0000
  Rh  Rh1       1.0  0.00000  0.50000  0.91288  1.0000
  Rh  Rh2       1.0  0.25000  0.75000  0.97096  1.0000
  Rh  Rh3       1.0  0.25000  0.25000  0.97096  1.0000
  Rh  Rh4       1.0  0.99939  0.99718  0.02423  1.0000
  Rh  Rh5       1.0  0.24996  0.24240  0.08335  1.0000
  Rh  Rh6       1.0  0.24998  0.74679  0.08230  1.0000
  Rh  Rh7       1.0  0.50000  0.50000  0.91288  1.0000
  Rh  Rh8       1.0  0.75000  0.75000  0.97096  1.0000
  Rh  Rh9       1.0  0.75000  0.25000  0.97096  1.0000
  Rh  Rh10      1.0  0.50062  0.99720  0.02419  1.0000
  Rh  Rh11      1.0  0.74999  0.24433  0.08120  1.0000
  Rh  Rh12      1.0  0.75003  0.74527  0.08189  1.0000
  C   C1        1.0  0.25000  0.27896  0.15972  1.0000
  O   O1        1.0  0.25000  0.29667  0.20742  1.0000
