# generated using pymatgen
data_Li4Y4In4Sn4C
_symmetry_space_group_name_H-M   'P 1'
_cell_length_a   9.36656000
_cell_length_b   6.33264000
_cell_length_c   24.74860000
_cell_angle_alpha   90.00000000
_cell_angle_beta   90.00000000
_cell_angle_gamma   90.00000000
_symmetry_Int_Tables_number   1
_chemical_formula_structural   Li4Y4In4Sn4C
_chemical_formula_sum   'Li4 Y4 In4 Sn4 C1'
_cell_volume   1467.96450876
_cell_formula_units_Z   1
loop_
 _symmetry_equiv_pos_site_id
 _symmetry_equiv_pos_as_xyz
  1  'x, y, z'
loop_
 _atom_site_type_symbol
 _atom_site_label
 _atom_site_symmetry_multiplicity
 _atom_site_fract_x
 _atom_site_fract_y
 _atom_site_fract_z
 _atom_site_occupancy
  Li  Li0  1  0.83285000  0.57596000  0.88451000  1.0
  Li  Li1  1  0.75000000  0.99032000  0.03198000  1.0
  Li  Li2  1  0.16715000  0.57596000  0.88451000  1.0
  Li  Li3  1  0.25000000  0.99032000  0.03198000  1.0
  Y  Y4  1  0.00000000  0.25534000  0.97164000  1.0
  Y  Y5  1  0.00000000  0.73548000  0.09594000  1.0
  Y  Y6  1  0.50000000  0.24099000  0.95865000  1.0
  Y  Y7  1  0.50000000  0.73548000  0.09594000  1.0
  In  In8  1  0.78585000  0.03272000  0.89131000  1.0
  In  In9  1  0.75000000  0.49032000  0.03198000  1.0
  In  In10  1  0.21415000  0.03272000  0.89131000  1.0
  In  In11  1  0.25000000  0.49032000  0.03198000  1.0
  Sn  Sn12  1  0.00000000  0.76448000  0.97500000  1.0
  Sn  Sn13  1  0.00000000  0.23548000  0.09594000  1.0
  Sn  Sn14  1  0.50000000  0.74671000  0.95510000  1.0
  Sn  Sn15  1  0.50000000  0.23548000  0.09594000  1.0
  C  C16  1  0.00000000  0.82263000  0.88576000  1.0
