# generated using pymatgen
data_In4Ag12CO
_symmetry_space_group_name_H-M   'P 1'
_cell_length_a   6.07830000
_cell_length_b   8.59601000
_cell_length_c   24.55870000
_cell_angle_alpha   90.00000000
_cell_angle_beta   90.00000000
_cell_angle_gamma   90.00000000
_symmetry_Int_Tables_number   1
_chemical_formula_structural   In4Ag12CO
_chemical_formula_sum   'In4 Ag12 C1 O1'
_cell_volume   1283.17064957
_cell_formula_units_Z   1
loop_
 _symmetry_equiv_pos_site_id
 _symmetry_equiv_pos_as_xyz
  1  'x, y, z'
loop_
 _atom_site_type_symbol
 _atom_site_label
 _atom_site_symmetry_multiplicity
 _atom_site_fract_x
 _atom_site_fract_y
 _atom_site_fract_z
 _atom_site_occupancy
  In  In0  1  0.99992000  0.00000000  0.89779000  1.0
  In  In1  1  0.50000000  0.00000000  0.03094000  1.0
  In  In2  1  0.99994000  0.50001000  0.89774000  1.0
  In  In3  1  0.50000000  0.50000000  0.03094000  1.0
  Ag  Ag4  1  0.49993000  0.00001000  0.91111000  1.0
  Ag  Ag5  1  0.24255000  0.74938000  0.96437000  1.0
  Ag  Ag6  1  0.75734000  0.74937000  0.96437000  1.0
  Ag  Ag7  1  0.00000000  0.00000000  0.03094000  1.0
  Ag  Ag8  1  0.75000000  0.75000000  0.09281000  1.0
  Ag  Ag9  1  0.25000000  0.75000000  0.09281000  1.0
  Ag  Ag10  1  0.49994000  0.50000000  0.91027000  1.0
  Ag  Ag11  1  0.24255000  0.25063000  0.96437000  1.0
  Ag  Ag12  1  0.75734000  0.25063000  0.96437000  1.0
  Ag  Ag13  1  0.00000000  0.50000000  0.03094000  1.0
  Ag  Ag14  1  0.75000000  0.25000000  0.09281000  1.0
  Ag  Ag15  1  0.25000000  0.25000000  0.09281000  1.0
  C  C16  1  0.00115000  0.99990000  0.73012000  1.0
  O  O17  1  0.99985000  0.00000000  0.68392000  1.0
