# generated using pymatgen
data_Sc8Ga8Ge8Pd8CO
_symmetry_space_group_name_H-M   Pmm2
_cell_length_a   8.08666000
_cell_length_b   8.58414000
_cell_length_c   25.87790000
_cell_angle_alpha   90.00000000
_cell_angle_beta   90.00000000
_cell_angle_gamma   90.00000000
_symmetry_Int_Tables_number   25
_chemical_formula_structural   Sc8Ga8Ge8Pd8CO
_chemical_formula_sum   'Sc8 Ga8 Ge8 Pd8 C1 O1'
_cell_volume   1796.36674255
_cell_formula_units_Z   1
loop_
 _symmetry_equiv_pos_site_id
 _symmetry_equiv_pos_as_xyz
  1  'x, y, z'
  2  '-x, -y, z'
  3  '-x, y, z'
  4  'x, -y, z'
loop_
 _atom_site_type_symbol
 _atom_site_label
 _atom_site_symmetry_multiplicity
 _atom_site_fract_x
 _atom_site_fract_y
 _atom_site_fract_z
 _atom_site_occupancy
  Sc  Sc0  2  0.00000000  0.24817000  0.03978000  1.0
  Sc  Sc1  2  0.00000000  0.24999000  0.88643000  1.0
  Sc  Sc2  2  0.50000000  0.24774000  0.04053000  1.0
  Sc  Sc3  2  0.50000000  0.24999000  0.88643000  1.0
  Ga  Ga4  2  0.24007000  0.50000000  0.05117000  1.0
  Ga  Ga5  2  0.24977000  0.00000000  0.04075000  1.0
  Ga  Ga6  2  0.25002000  0.00000000  0.88643000  1.0
  Ga  Ga7  2  0.25002000  0.50000000  0.88643000  1.0
  Ge  Ge8  4  0.24692000  0.21565000  0.11971000  1.0
  Ge  Ge9  4  0.25002000  0.24999000  0.96214000  1.0
  Pd  Pd10  1  0.00000000  0.00000000  0.11586000  1.0
  Pd  Pd11  1  0.00000000  0.00000000  0.96214000  1.0
  Pd  Pd12  1  0.00000000  0.50000000  0.12400000  1.0
  Pd  Pd13  1  0.00000000  0.50000000  0.96214000  1.0
  Pd  Pd14  1  0.50000000  0.00000000  0.11580000  1.0
  Pd  Pd15  1  0.50000000  0.00000000  0.96214000  1.0
  Pd  Pd16  1  0.50000000  0.50000000  0.10874000  1.0
  Pd  Pd17  1  0.50000000  0.50000000  0.96214000  1.0
  C  C18  1  0.00000000  0.50000000  0.20232000  1.0
  O  O19  1  0.00000000  0.50000000  0.24656000  1.0
