# generated using pymatgen
data_ScAlAg2
_symmetry_space_group_name_H-M   Pmm2
_cell_length_a   4.70233500
_cell_length_b   6.65011000
_cell_length_c   27.05350000
_cell_angle_alpha   90.00000000
_cell_angle_beta   90.00000000
_cell_angle_gamma   90.00000000
_symmetry_Int_Tables_number   25
_chemical_formula_structural   ScAlAg2
_chemical_formula_sum   'Sc4 Al4 Ag8'
_cell_volume   845.99121609
_cell_formula_units_Z   4
loop_
 _symmetry_equiv_pos_site_id
 _symmetry_equiv_pos_as_xyz
  1  'x, y, z'
  2  '-x, -y, z'
  3  '-x, y, z'
  4  'x, -y, z'
loop_
 _atom_site_type_symbol
 _atom_site_label
 _atom_site_symmetry_multiplicity
 _atom_site_fract_x
 _atom_site_fract_y
 _atom_site_fract_z
 _atom_site_occupancy
  Sc  Sc0  1  0.00000000  0.00000000  0.13036000  1.0
  Sc  Sc1  1  0.00000000  0.00000000  0.95628000  1.0
  Sc  Sc2  1  0.50000000  0.50000000  0.04345000  1.0
  Sc  Sc3  1  0.50000000  0.50000000  0.86796000  1.0
  Al  Al4  1  0.00000000  0.50000000  0.13036000  1.0
  Al  Al5  1  0.00000000  0.50000000  0.95505000  1.0
  Al  Al6  1  0.50000000  0.00000000  0.04345000  1.0
  Al  Al7  1  0.50000000  0.00000000  0.87550000  1.0
  Ag  Ag8  2  0.00000000  0.23838000  0.86741000  1.0
  Ag  Ag9  2  0.00000000  0.25000000  0.04345000  1.0
  Ag  Ag10  2  0.50000000  0.25000000  0.13036000  1.0
  Ag  Ag11  2  0.50000000  0.25803000  0.95706000  1.0
