# generated using pymatgen
data_Zn16Cu8Au8CO
_symmetry_space_group_name_H-M   'P 1'
_cell_length_a   8.80931000
_cell_length_b   6.22913000
_cell_length_c   26.60700000
_cell_angle_alpha   90.00000000
_cell_angle_beta   90.00000000
_cell_angle_gamma   90.00000000
_symmetry_Int_Tables_number   1
_chemical_formula_structural   Zn16Cu8Au8CO
_chemical_formula_sum   'Zn16 Cu8 Au8 C1 O1'
_cell_volume   1460.04148989
_cell_formula_units_Z   1
loop_
 _symmetry_equiv_pos_site_id
 _symmetry_equiv_pos_as_xyz
  1  'x, y, z'
loop_
 _atom_site_type_symbol
 _atom_site_label
 _atom_site_symmetry_multiplicity
 _atom_site_fract_x
 _atom_site_fract_y
 _atom_site_fract_z
 _atom_site_occupancy
  Zn  Zn0  1  0.00000000  0.25000000  0.04139000  1.0
  Zn  Zn1  1  0.50000000  0.75000000  0.04139000  1.0
  Zn  Zn2  1  0.00000000  0.75000000  0.04139000  1.0
  Zn  Zn3  1  0.50000000  0.25000000  0.04139000  1.0
  Zn  Zn4  1  0.75000000  0.75000000  0.12416000  1.0
  Zn  Zn5  1  0.25000000  0.25000000  0.12416000  1.0
  Zn  Zn6  1  0.75000000  0.25000000  0.12416000  1.0
  Zn  Zn7  1  0.25000000  0.75000000  0.12416000  1.0
  Zn  Zn8  1  0.50000000  0.26285000  0.86921000  1.0
  Zn  Zn9  1  0.00000000  0.75390000  0.87106000  1.0
  Zn  Zn10  1  0.50000000  0.72273000  0.86431000  1.0
  Zn  Zn11  1  0.00000000  0.23200000  0.87421000  1.0
  Zn  Zn12  1  0.25039000  0.75119000  0.96044000  1.0
  Zn  Zn13  1  0.74978000  0.24399000  0.95654000  1.0
  Zn  Zn14  1  0.25022000  0.24399000  0.95654000  1.0
  Zn  Zn15  1  0.74961000  0.75119000  0.96044000  1.0
  Cu  Cu16  1  0.00000000  0.00000000  0.12416000  1.0
  Cu  Cu17  1  0.25000000  0.50000000  0.04139000  1.0
  Cu  Cu18  1  0.75000000  0.50000000  0.04139000  1.0
  Cu  Cu19  1  0.50000000  0.00000000  0.12416000  1.0
  Cu  Cu20  1  0.50000000  0.99749000  0.95720000  1.0
  Cu  Cu21  1  0.74857000  0.51016000  0.88072000  1.0
  Cu  Cu22  1  0.25143000  0.51016000  0.88072000  1.0
  Cu  Cu23  1  0.00000000  0.99955000  0.95936000  1.0
  Au  Au24  1  0.75000000  0.00000000  0.04139000  1.0
  Au  Au25  1  0.00000000  0.50000000  0.12416000  1.0
  Au  Au26  1  0.25000000  0.00000000  0.04139000  1.0
  Au  Au27  1  0.50000000  0.50000000  0.12416000  1.0
  Au  Au28  1  0.26202000  0.98432000  0.87509000  1.0
  Au  Au29  1  0.50000000  0.49899000  0.95956000  1.0
  Au  Au30  1  0.73798000  0.98432000  0.87509000  1.0
  Au  Au31  1  0.00000000  0.49795000  0.95563000  1.0
  C  C32  1  0.00000000  0.26348000  0.79571000  1.0
  O  O33  1  0.00000000  0.25769000  0.75277000  1.0
