# generated using pymatgen
data_Zn16Cu8Au8CO
_symmetry_space_group_name_H-M   Pm
_cell_length_a   6.22913000
_cell_length_b   8.80931000
_cell_length_c   26.60700000
_cell_angle_alpha   90.00000000
_cell_angle_beta   90.00000000
_cell_angle_gamma   90.00000000
_symmetry_Int_Tables_number   6
_chemical_formula_structural   Zn16Cu8Au8CO
_chemical_formula_sum   'Zn16 Cu8 Au8 C1 O1'
_cell_volume   1460.04148989
_cell_formula_units_Z   1
loop_
 _symmetry_equiv_pos_site_id
 _symmetry_equiv_pos_as_xyz
  1  'x, y, z'
  2  'x, -y, z'
loop_
 _atom_site_type_symbol
 _atom_site_label
 _atom_site_symmetry_multiplicity
 _atom_site_fract_x
 _atom_site_fract_y
 _atom_site_fract_z
 _atom_site_occupancy
  Zn  Zn0  2  0.24399000  0.25022000  0.04346000  1.0
  Zn  Zn1  2  0.25000000  0.25000000  0.87584000  1.0
  Zn  Zn2  2  0.75000000  0.25000000  0.87584000  1.0
  Zn  Zn3  2  0.75119000  0.25039000  0.03956000  1.0
  Zn  Zn4  1  0.23200000  0.00000000  0.12579000  1.0
  Zn  Zn5  1  0.25000000  0.00000000  0.95861000  1.0
  Zn  Zn6  1  0.25000000  0.50000000  0.95861000  1.0
  Zn  Zn7  1  0.26285000  0.50000000  0.13079000  1.0
  Zn  Zn8  1  0.72273000  0.50000000  0.13569000  1.0
  Zn  Zn9  1  0.75000000  0.00000000  0.95861000  1.0
  Zn  Zn10  1  0.75000000  0.50000000  0.95861000  1.0
  Zn  Zn11  1  0.75390000  0.00000000  0.12894000  1.0
  Cu  Cu12  2  0.50000000  0.25000000  0.95861000  1.0
  Cu  Cu13  2  0.51016000  0.25143000  0.11928000  1.0
  Cu  Cu14  1  0.00000000  0.00000000  0.87584000  1.0
  Cu  Cu15  1  0.00000000  0.50000000  0.87584000  1.0
  Cu  Cu16  1  0.99749000  0.50000000  0.04280000  1.0
  Cu  Cu17  1  0.99955000  0.00000000  0.04064000  1.0
  Au  Au18  2  0.00000000  0.25000000  0.95861000  1.0
  Au  Au19  2  0.98432000  0.26202000  0.12491000  1.0
  Au  Au20  1  0.49795000  0.00000000  0.04437000  1.0
  Au  Au21  1  0.49899000  0.50000000  0.04044000  1.0
  Au  Au22  1  0.50000000  0.00000000  0.87584000  1.0
  Au  Au23  1  0.50000000  0.50000000  0.87584000  1.0
  C  C24  1  0.26348000  0.00000000  0.20429000  1.0
  O  O25  1  0.25769000  0.00000000  0.24723000  1.0
