# generated using pymatgen
data_Y8Ga8Cu8Pd8CO
_symmetry_space_group_name_H-M   Pm
_cell_length_a   6.59466000
_cell_length_b   9.32626000
_cell_length_c   26.99470000
_cell_angle_alpha   90.00000000
_cell_angle_beta   90.00000000
_cell_angle_gamma   90.00000000
_symmetry_Int_Tables_number   6
_chemical_formula_structural   Y8Ga8Cu8Pd8CO
_chemical_formula_sum   'Y8 Ga8 Cu8 Pd8 C1 O1'
_cell_volume   1660.26890321
_cell_formula_units_Z   1
loop_
 _symmetry_equiv_pos_site_id
 _symmetry_equiv_pos_as_xyz
  1  'x, y, z'
  2  'x, -y, z'
loop_
 _atom_site_type_symbol
 _atom_site_label
 _atom_site_symmetry_multiplicity
 _atom_site_fract_x
 _atom_site_fract_y
 _atom_site_fract_z
 _atom_site_occupancy
  Y  Y0  2  0.74466000  0.25077000  0.13846000  1.0
  Y  Y1  2  0.75000000  0.25001000  0.95681000  1.0
  Y  Y2  1  0.24283000  0.00000000  0.04271000  1.0
  Y  Y3  1  0.25000000  0.00000000  0.87044000  1.0
  Y  Y4  1  0.25000000  0.50000000  0.87044000  1.0
  Y  Y5  1  0.25399000  0.50000000  0.04166000  1.0
  Ga  Ga6  2  0.24413000  0.25018000  0.12314000  1.0
  Ga  Ga7  2  0.25000000  0.25001000  0.95681000  1.0
  Ga  Ga8  1  0.75000000  0.00000000  0.87044000  1.0
  Ga  Ga9  1  0.75000000  0.50000000  0.87044000  1.0
  Ga  Ga10  1  0.75206000  0.50000000  0.04803000  1.0
  Ga  Ga11  1  0.75586000  0.00000000  0.05061000  1.0
  Cu  Cu12  2  0.00000000  0.25001000  0.87044000  1.0
  Cu  Cu13  2  0.97031000  0.25048000  0.05024000  1.0
  Cu  Cu14  1  0.44870000  0.50000000  0.13390000  1.0
  Cu  Cu15  1  0.46186000  0.00000000  0.12830000  1.0
  Cu  Cu16  1  0.50000000  0.00000000  0.95681000  1.0
  Cu  Cu17  1  0.50000000  0.50000000  0.95681000  1.0
  Pd  Pd18  2  0.50000000  0.24999000  0.87044000  1.0
  Pd  Pd19  2  0.52789000  0.24815000  0.04835000  1.0
  Pd  Pd20  1  0.00000000  0.00000000  0.95681000  1.0
  Pd  Pd21  1  0.00000000  0.50000000  0.95681000  1.0
  Pd  Pd22  1  0.01529000  0.50000000  0.12643000  1.0
  Pd  Pd23  1  0.03043000  0.00000000  0.14295000  1.0
  C  C24  1  0.96625000  0.00000000  0.21340000  1.0
  O  O25  1  0.97121000  0.00000000  0.25642000  1.0
