# generated using pymatgen
data_Y8Mg8Sn8Pd8C
_symmetry_space_group_name_H-M   'P 1'
_cell_length_a   9.90846000
_cell_length_b   7.00634000
_cell_length_c   27.43130000
_cell_angle_alpha   90.00000000
_cell_angle_beta   90.00000000
_cell_angle_gamma   90.00000000
_symmetry_Int_Tables_number   1
_chemical_formula_structural   Y8Mg8Sn8Pd8C
_chemical_formula_sum   'Y8 Mg8 Sn8 Pd8 C1'
_cell_volume   1904.33679588
_cell_formula_units_Z   1
loop_
 _symmetry_equiv_pos_site_id
 _symmetry_equiv_pos_as_xyz
  1  'x, y, z'
loop_
 _atom_site_type_symbol
 _atom_site_label
 _atom_site_symmetry_multiplicity
 _atom_site_fract_x
 _atom_site_fract_y
 _atom_site_fract_z
 _atom_site_occupancy
  Y  Y0  1  0.00000000  1.00000000  0.04515000  1.0
  Y  Y1  1  0.50000000  1.00000000  0.04515000  1.0
  Y  Y2  1  0.25001000  0.50000000  0.13545000  1.0
  Y  Y3  1  0.74999000  0.50000000  0.13545000  1.0
  Y  Y4  1  0.50000000  0.00543000  0.86160000  1.0
  Y  Y5  1  0.00000000  0.94235000  0.83756000  1.0
  Y  Y6  1  0.75678000  0.49227000  0.95309000  1.0
  Y  Y7  1  0.24322000  0.49227000  0.95309000  1.0
  Mg  Mg8  1  0.75001000  0.00000000  0.13545000  1.0
  Mg  Mg9  1  0.24999000  0.00000000  0.13545000  1.0
  Mg  Mg10  1  0.50000000  0.50000000  0.04515000  1.0
  Mg  Mg11  1  0.00000000  0.50000000  0.04515000  1.0
  Mg  Mg12  1  0.25472000  0.01132000  0.95028000  1.0
  Mg  Mg13  1  0.74528000  0.01132000  0.95028000  1.0
  Mg  Mg14  1  0.00000000  0.53423000  0.86626000  1.0
  Mg  Mg15  1  0.50000000  0.50567000  0.86271000  1.0
  Sn  Sn16  1  0.75001000  0.25000000  0.04515000  1.0
  Sn  Sn17  1  0.24999000  0.25000000  0.04515000  1.0
  Sn  Sn18  1  0.00000000  0.75000000  0.13545000  1.0
  Sn  Sn19  1  0.50000000  0.75000000  0.13545000  1.0
  Sn  Sn20  1  0.23780000  0.26158000  0.85080000  1.0
  Sn  Sn21  1  0.76220000  0.26158000  0.85080000  1.0
  Sn  Sn22  1  0.50000000  0.74845000  0.95178000  1.0
  Sn  Sn23  1  0.00000000  0.78540000  0.94840000  1.0
  Pd  Pd24  1  0.75001000  0.75000000  0.04515000  1.0
  Pd  Pd25  1  0.24999000  0.75000000  0.04515000  1.0
  Pd  Pd26  1  0.00000000  0.25000000  0.13545000  1.0
  Pd  Pd27  1  0.50000000  0.25000000  0.13545000  1.0
  Pd  Pd28  1  0.25601000  0.74352000  0.87284000  1.0
  Pd  Pd29  1  0.74399000  0.74352000  0.87284000  1.0
  Pd  Pd30  1  0.50000000  0.24818000  0.94967000  1.0
  Pd  Pd31  1  0.00000000  0.21004000  0.93386000  1.0
  C  C32  1  0.00000000  0.24369000  0.85361000  1.0
