# generated using pymatgen
data_Li16Ag8Bi8C
_symmetry_space_group_name_H-M   'P 1'
_cell_length_a   9.79433000
_cell_length_b   6.92564000
_cell_length_c   27.34580000
_cell_angle_alpha   90.00000000
_cell_angle_beta   90.00000000
_cell_angle_gamma   90.00000000
_symmetry_Int_Tables_number   1
_chemical_formula_structural   Li16Ag8Bi8C
_chemical_formula_sum   'Li16 Ag8 Bi8 C1'
_cell_volume   1854.92040462
_cell_formula_units_Z   1
loop_
 _symmetry_equiv_pos_site_id
 _symmetry_equiv_pos_as_xyz
  1  'x, y, z'
loop_
 _atom_site_type_symbol
 _atom_site_label
 _atom_site_symmetry_multiplicity
 _atom_site_fract_x
 _atom_site_fract_y
 _atom_site_fract_z
 _atom_site_occupancy
  Li  Li0  1  0.74999000  1.00000000  0.04477000  1.0
  Li  Li1  1  0.00000000  0.50000000  0.13431000  1.0
  Li  Li2  1  0.25001000  1.00000000  0.04477000  1.0
  Li  Li3  1  0.50000000  0.50000000  0.13431000  1.0
  Li  Li4  1  0.00000000  0.25000000  0.04477000  1.0
  Li  Li5  1  0.50000000  0.25000000  0.04477000  1.0
  Li  Li6  1  0.74999000  0.75000000  0.13431000  1.0
  Li  Li7  1  0.25001000  0.75000000  0.13431000  1.0
  Li  Li8  1  0.21340000  0.99293000  0.86266000  1.0
  Li  Li9  1  0.50000000  0.49255000  0.95622000  1.0
  Li  Li10  1  0.78660000  0.99293000  0.86266000  1.0
  Li  Li11  1  0.00000000  0.48566000  0.95232000  1.0
  Li  Li12  1  0.50000000  0.24639000  0.87164000  1.0
  Li  Li13  1  0.00000000  0.28108000  0.85205000  1.0
  Li  Li14  1  0.25273000  0.73323000  0.94738000  1.0
  Li  Li15  1  0.74727000  0.73323000  0.94738000  1.0
  Ag  Ag16  1  0.24999000  0.25000000  0.13431000  1.0
  Ag  Ag17  1  0.75001000  0.25000000  0.13431000  1.0
  Ag  Ag18  1  0.50000000  0.75000000  0.04477000  1.0
  Ag  Ag19  1  0.00000000  0.75000000  0.04477000  1.0
  Ag  Ag20  1  0.74465000  0.27225000  0.94941000  1.0
  Ag  Ag21  1  0.25535000  0.27225000  0.94941000  1.0
  Ag  Ag22  1  0.00000000  0.68904000  0.86450000  1.0
  Ag  Ag23  1  0.50000000  0.73565000  0.87574000  1.0
  Bi  Bi24  1  0.00000000  0.00000000  0.13431000  1.0
  Bi  Bi25  1  0.24999000  0.50000000  0.04477000  1.0
  Bi  Bi26  1  0.75001000  0.50000000  0.04477000  1.0
  Bi  Bi27  1  0.50000000  1.00000000  0.13431000  1.0
  Bi  Bi28  1  0.50000000  0.00430000  0.95715000  1.0
  Bi  Bi29  1  0.73759000  0.48671000  0.85553000  1.0
  Bi  Bi30  1  0.26241000  0.48671000  0.85553000  1.0
  Bi  Bi31  1  0.00000000  0.02097000  0.95574000  1.0
  C  C32  1  0.00000000  0.99930000  0.87259000  1.0
