# generated using pymatgen
data_Y4Al4In4Pd4C
_symmetry_space_group_name_H-M   'P 1'
_cell_length_a   6.15545000
_cell_length_b   8.86460000
_cell_length_c   24.58270000
_cell_angle_alpha   90.00000000
_cell_angle_beta   90.00000000
_cell_angle_gamma   90.00000000
_symmetry_Int_Tables_number   1
_chemical_formula_structural   Y4Al4In4Pd4C
_chemical_formula_sum   'Y4 Al4 In4 Pd4 C1'
_cell_volume   1341.36982601
_cell_formula_units_Z   1
loop_
 _symmetry_equiv_pos_site_id
 _symmetry_equiv_pos_as_xyz
  1  'x, y, z'
loop_
 _atom_site_type_symbol
 _atom_site_label
 _atom_site_symmetry_multiplicity
 _atom_site_fract_x
 _atom_site_fract_y
 _atom_site_fract_z
 _atom_site_occupancy
  Y  Y0  1  0.50000000  0.00000000  0.90679000  1.0
  Y  Y1  1  0.92646000  0.00042000  0.06373000  1.0
  Y  Y2  1  0.50000000  0.50000000  0.90679000  1.0
  Y  Y3  1  0.13765000  0.49490000  0.03038000  1.0
  Al  Al4  1  0.00000000  0.00000000  0.90679000  1.0
  Al  Al5  1  0.45802000  0.00185000  0.01773000  1.0
  Al  Al6  1  0.00000000  0.50000000  0.90679000  1.0
  Al  Al7  1  0.62102000  0.50279000  0.03946000  1.0
  In  In8  1  0.78024000  0.75000000  0.96893000  1.0
  In  In9  1  0.40849000  0.76698000  0.10421000  1.0
  In  In10  1  0.78024000  0.25000000  0.96893000  1.0
  In  In11  1  0.40871000  0.23973000  0.10441000  1.0
  Pd  Pd12  1  0.28024000  0.75000000  0.96893000  1.0
  Pd  Pd13  1  0.87191000  0.68696000  0.08787000  1.0
  Pd  Pd14  1  0.28024000  0.25000000  0.96893000  1.0
  Pd  Pd15  1  0.87546000  0.31099000  0.09236000  1.0
  C  C16  1  0.56426000  0.00353000  0.09159000  1.0
