# generated using pymatgen
data_Mg16Au16CO
_symmetry_space_group_name_H-M   'P 1'
_cell_length_a   6.67495000
_cell_length_b   9.43980000
_cell_length_c   27.07990000
_cell_angle_alpha   90.00000000
_cell_angle_beta   90.00000000
_cell_angle_gamma   90.00000000
_symmetry_Int_Tables_number   1
_chemical_formula_structural   Mg16Au16CO
_chemical_formula_sum   'Mg16 Au16 C1 O1'
_cell_volume   1706.30972569
_cell_formula_units_Z   1
loop_
 _symmetry_equiv_pos_site_id
 _symmetry_equiv_pos_as_xyz
  1  'x, y, z'
loop_
 _atom_site_type_symbol
 _atom_site_label
 _atom_site_symmetry_multiplicity
 _atom_site_fract_x
 _atom_site_fract_y
 _atom_site_fract_z
 _atom_site_occupancy
  Mg  Mg0  1  0.24999000  0.00000000  0.86928000  1.0
  Mg  Mg1  1  0.24999000  0.25000000  0.95643000  1.0
  Mg  Mg2  1  0.24405000  0.00000000  0.04551000  1.0
  Mg  Mg3  1  0.25344000  0.74704000  0.12984000  1.0
  Mg  Mg4  1  0.24999000  0.50000000  0.86928000  1.0
  Mg  Mg5  1  0.24999000  0.75000000  0.95643000  1.0
  Mg  Mg6  1  0.25207000  0.50000000  0.04369000  1.0
  Mg  Mg7  1  0.25344000  0.25296000  0.12984000  1.0
  Mg  Mg8  1  0.75001000  0.00000000  0.86928000  1.0
  Mg  Mg9  1  0.75001000  0.25000000  0.95643000  1.0
  Mg  Mg10  1  0.75595000  0.00000000  0.04551000  1.0
  Mg  Mg11  1  0.74656000  0.74704000  0.12984000  1.0
  Mg  Mg12  1  0.75001000  0.50000000  0.86928000  1.0
  Mg  Mg13  1  0.75001000  0.75000000  0.95643000  1.0
  Mg  Mg14  1  0.74793000  0.50000000  0.04369000  1.0
  Mg  Mg15  1  0.74656000  0.25296000  0.12984000  1.0
  Au  Au16  1  0.00000000  0.75000000  0.86928000  1.0
  Au  Au17  1  0.00000000  0.00000000  0.95643000  1.0
  Au  Au18  1  0.00000000  0.74988000  0.04280000  1.0
  Au  Au19  1  0.00000000  0.00000000  0.13475000  1.0
  Au  Au20  1  0.00000000  0.25000000  0.86928000  1.0
  Au  Au21  1  0.00000000  0.50000000  0.95643000  1.0
  Au  Au22  1  0.00000000  0.25012000  0.04280000  1.0
  Au  Au23  1  0.00000000  0.50000000  0.12890000  1.0
  Au  Au24  1  0.50000000  0.75000000  0.86928000  1.0
  Au  Au25  1  0.50000000  0.00000000  0.95643000  1.0
  Au  Au26  1  0.50000000  0.75106000  0.04131000  1.0
  Au  Au27  1  0.50000000  0.00000000  0.12964000  1.0
  Au  Au28  1  0.50000000  0.25000000  0.86928000  1.0
  Au  Au29  1  0.50000000  0.50000000  0.95643000  1.0
  Au  Au30  1  0.50000000  0.24894000  0.04131000  1.0
  Au  Au31  1  0.50000000  0.50000000  0.13074000  1.0
  C  C32  1  0.00000000  0.00000000  0.21458000  1.0
  O  O33  1  0.00000000  0.00000000  0.25699000  1.0
