# generated using pymatgen
data_Li4Zn4Ge4Pd4CO
_symmetry_space_group_name_H-M   P2
_cell_length_a   6.18512000
_cell_length_b   24.63880000
_cell_length_c   6.18512000
_cell_angle_alpha   90.00000000
_cell_angle_beta   90.00000000
_cell_angle_gamma   90.00000000
_symmetry_Int_Tables_number   3
_chemical_formula_structural   Li4Zn4Ge4Pd4CO
_chemical_formula_sum   'Li4 Zn4 Ge4 Pd4 C1 O1'
_cell_volume   942.57477312
_cell_formula_units_Z   1
loop_
 _symmetry_equiv_pos_site_id
 _symmetry_equiv_pos_as_xyz
  1  'x, y, z'
  2  '-x, y, -z'
loop_
 _atom_site_type_symbol
 _atom_site_label
 _atom_site_symmetry_multiplicity
 _atom_site_fract_x
 _atom_site_fract_y
 _atom_site_fract_z
 _atom_site_occupancy
  Li  Li0  2  0.25000000  0.90586000  0.25000000  1.0
  Li  Li1  2  0.25481000  0.03172000  0.75575000  1.0
  Zn  Zn2  1  0.00000000  0.08956000  0.50000000  1.0
  Zn  Zn3  1  0.00000000  0.96862000  0.00000000  1.0
  Zn  Zn4  1  0.50000000  0.09794000  0.00000000  1.0
  Zn  Zn5  1  0.50000000  0.96862000  0.50000000  1.0
  Ge  Ge6  1  0.00000000  0.09781000  0.00000000  1.0
  Ge  Ge7  1  0.00000000  0.96862000  0.50000000  1.0
  Ge  Ge8  1  0.50000000  0.09748000  0.50000000  1.0
  Ge  Ge9  1  0.50000000  0.96862000  0.00000000  1.0
  Pd  Pd10  2  0.25000000  0.90586000  0.75000000  1.0
  Pd  Pd11  2  0.25663000  0.03387000  0.24313000  1.0
  C  C12  1  0.50000000  0.18297000  0.00000000  1.0
  O  O13  1  0.50000000  0.22935000  0.00000000  1.0
