data_image0
_chemical_formula_structural       Nb16Ru16C
_chemical_formula_sum              "Nb16 Ru16 C1"
_cell_length_a       8.68251
_cell_length_b       6.8438
_cell_length_c       26.5119
_cell_angle_alpha    90
_cell_angle_beta     90
_cell_angle_gamma    90

_space_group_name_H-M_alt    "P 1"
_space_group_IT_number       1

loop_
  _space_group_symop_operation_xyz
  'x, y, z'

loop_
  _atom_site_type_symbol
  _atom_site_label
  _atom_site_symmetry_multiplicity
  _atom_site_fract_x
  _atom_site_fract_y
  _atom_site_fract_z
  _atom_site_occupancy
  Nb  Nb1       1.0  0.00000  0.00000  0.87719  1.0000
  Nb  Nb2       1.0  0.25000  0.00000  0.95906  1.0000
  Nb  Nb3       1.0  0.97982  1.00000  0.04479  1.0000
  Nb  Nb4       1.0  0.24443  1.00000  0.12658  1.0000
  Nb  Nb5       1.0  0.00000  0.50000  0.87719  1.0000
  Nb  Nb6       1.0  0.25000  0.50000  0.95906  1.0000
  Nb  Nb7       1.0  0.01836  0.50000  0.03858  1.0000
  Nb  Nb8       1.0  0.25560  0.49999  0.13004  1.0000
  Nb  Nb9       1.0  0.50000  0.00000  0.87719  1.0000
  Nb  Nb10      1.0  0.75000  0.00000  0.95906  1.0000
  Nb  Nb11      1.0  0.51747  0.00000  0.04331  1.0000
  Nb  Nb12      1.0  0.75408  1.00000  0.12289  1.0000
  Nb  Nb13      1.0  0.50000  0.50000  0.87719  1.0000
  Nb  Nb14      1.0  0.75000  0.50000  0.95906  1.0000
  Nb  Nb15      1.0  0.48662  0.50000  0.04306  1.0000
  Nb  Nb16      1.0  0.74529  0.50000  0.12861  1.0000
  Ru  Ru1       1.0  0.25000  0.25000  0.87719  1.0000
  Ru  Ru2       1.0  0.00000  0.25000  0.95906  1.0000
  Ru  Ru3       1.0  0.24994  0.22414  0.04162  1.0000
  Ru  Ru4       1.0  0.00371  0.28985  0.11803  1.0000
  Ru  Ru5       1.0  0.25000  0.75000  0.87719  1.0000
  Ru  Ru6       1.0  0.00000  0.75000  0.95906  1.0000
  Ru  Ru7       1.0  0.24994  0.77588  0.04162  1.0000
  Ru  Ru8       1.0  0.00371  0.71015  0.11803  1.0000
  Ru  Ru9       1.0  0.75000  0.25000  0.87719  1.0000
  Ru  Ru10      1.0  0.50000  0.25000  0.95906  1.0000
  Ru  Ru11      1.0  0.75168  0.28494  0.04297  1.0000
  Ru  Ru12      1.0  0.49306  0.25383  0.11817  1.0000
  Ru  Ru13      1.0  0.75000  0.75000  0.87719  1.0000
  Ru  Ru14      1.0  0.50000  0.75000  0.95906  1.0000
  Ru  Ru15      1.0  0.75168  0.71507  0.04297  1.0000
  Ru  Ru16      1.0  0.49305  0.74615  0.11816  1.0000
  C   C1        1.0  0.99582  1.00000  0.13481  1.0000
