# generated using pymatgen
data_Nb16Ru16C
_symmetry_space_group_name_H-M   'P 1'
_cell_length_a   8.68251000
_cell_length_b   6.84380000
_cell_length_c   26.51190000
_cell_angle_alpha   90.00000000
_cell_angle_beta   90.00000000
_cell_angle_gamma   90.00000000
_symmetry_Int_Tables_number   1
_chemical_formula_structural   Nb16Ru16C
_chemical_formula_sum   'Nb16 Ru16 C1'
_cell_volume   1575.37320556
_cell_formula_units_Z   1
loop_
 _symmetry_equiv_pos_site_id
 _symmetry_equiv_pos_as_xyz
  1  'x, y, z'
loop_
 _atom_site_type_symbol
 _atom_site_label
 _atom_site_symmetry_multiplicity
 _atom_site_fract_x
 _atom_site_fract_y
 _atom_site_fract_z
 _atom_site_occupancy
  Nb  Nb0  1  0.00000000  0.00000000  0.12281000  1.0
  Nb  Nb1  1  0.25000000  0.00000000  0.04094000  1.0
  Nb  Nb2  1  0.97982000  0.00000000  0.95521000  1.0
  Nb  Nb3  1  0.24443000  0.00000000  0.87342000  1.0
  Nb  Nb4  1  1.00000000  0.50000000  0.12281000  1.0
  Nb  Nb5  1  0.25000000  0.50000000  0.04094000  1.0
  Nb  Nb6  1  0.01836000  0.50000000  0.96142000  1.0
  Nb  Nb7  1  0.25560000  0.50000000  0.86996000  1.0
  Nb  Nb8  1  0.50000000  0.00000000  0.12281000  1.0
  Nb  Nb9  1  0.75000000  0.00000000  0.04094000  1.0
  Nb  Nb10  1  0.51747000  0.00000000  0.95669000  1.0
  Nb  Nb11  1  0.75408000  0.00000000  0.87711000  1.0
  Nb  Nb12  1  0.50000000  0.50000000  0.12281000  1.0
  Nb  Nb13  1  0.75000000  0.50000000  0.04094000  1.0
  Nb  Nb14  1  0.48662000  0.50000000  0.95694000  1.0
  Nb  Nb15  1  0.74529000  0.50000000  0.87139000  1.0
  Ru  Ru16  1  0.25000000  0.25000000  0.12281000  1.0
  Ru  Ru17  1  0.00000000  0.25000000  0.04094000  1.0
  Ru  Ru18  1  0.24994000  0.22414000  0.95838000  1.0
  Ru  Ru19  1  0.00371000  0.28985000  0.88197000  1.0
  Ru  Ru20  1  0.25000000  0.75000000  0.12281000  1.0
  Ru  Ru21  1  0.00000000  0.75000000  0.04094000  1.0
  Ru  Ru22  1  0.24994000  0.77586000  0.95838000  1.0
  Ru  Ru23  1  0.00371000  0.71015000  0.88197000  1.0
  Ru  Ru24  1  0.75000000  0.25000000  0.12281000  1.0
  Ru  Ru25  1  0.50000000  0.25000000  0.04094000  1.0
  Ru  Ru26  1  0.75168000  0.28494000  0.95703000  1.0
  Ru  Ru27  1  0.49306000  0.25383000  0.88183000  1.0
  Ru  Ru28  1  0.75000000  0.75000000  0.12281000  1.0
  Ru  Ru29  1  0.50000000  0.75000000  0.04094000  1.0
  Ru  Ru30  1  0.75168000  0.71506000  0.95703000  1.0
  Ru  Ru31  1  0.49306000  0.74617000  0.88183000  1.0
  C  C32  1  0.99582000  0.00000000  0.86519000  1.0
