data_image0
_chemical_formula_structural       Y8In24CO
_chemical_formula_sum              "Y8 In24 C1 O1"
_cell_length_a       9.34369
_cell_length_b       9.34369
_cell_length_c       27.0078
_cell_angle_alpha    90
_cell_angle_beta     90
_cell_angle_gamma    90

_space_group_name_H-M_alt    "P 1"
_space_group_IT_number       1

loop_
  _space_group_symop_operation_xyz
  'x, y, z'

loop_
  _atom_site_type_symbol
  _atom_site_label
  _atom_site_symmetry_multiplicity
  _atom_site_fract_x
  _atom_site_fract_y
  _atom_site_fract_z
  _atom_site_occupancy
  Y   Y1        1.0  0.00000  0.00000  0.87026  1.0000
  Y   Y2        1.0  0.00214  0.99999  0.04291  1.0000
  Y   Y3        1.0  0.00000  0.50000  0.87026  1.0000
  Y   Y4        1.0  0.99493  0.50000  0.04169  1.0000
  Y   Y5        1.0  0.50000  0.00000  0.87026  1.0000
  Y   Y6        1.0  0.49786  0.00001  0.04291  1.0000
  Y   Y7        1.0  0.50000  0.50000  0.87026  1.0000
  Y   Y8        1.0  0.50507  0.50000  0.04169  1.0000
  In  In1       1.0  0.00000  0.25000  0.95675  1.0000
  In  In2       1.0  0.25000  0.00000  0.95675  1.0000
  In  In3       1.0  0.25000  0.25000  0.87026  1.0000
  In  In4       1.0  0.99905  0.25371  0.13716  1.0000
  In  In5       1.0  0.25000  0.00000  0.12707  1.0000
  In  In6       1.0  0.25000  0.26258  0.04689  1.0000
  In  In7       1.0  0.00000  0.75000  0.95675  1.0000
  In  In8       1.0  0.25000  0.50000  0.95675  1.0000
  In  In9       1.0  0.25000  0.75000  0.87026  1.0000
  In  In10      1.0  0.99905  0.74629  0.13716  1.0000
  In  In11      1.0  0.25000  0.50000  0.14474  1.0000
  In  In12      1.0  0.25000  0.73742  0.04689  1.0000
  In  In13      1.0  0.50000  0.25000  0.95675  1.0000
  In  In14      1.0  0.75000  0.00000  0.95675  1.0000
  In  In15      1.0  0.75000  0.25000  0.87026  1.0000
  In  In16      1.0  0.50095  0.25371  0.13716  1.0000
  In  In17      1.0  0.75000  0.00000  0.14180  1.0000
  In  In18      1.0  0.75000  0.24533  0.04804  1.0000
  In  In19      1.0  0.50000  0.75000  0.95675  1.0000
  In  In20      1.0  0.75000  0.50000  0.95675  1.0000
  In  In21      1.0  0.75000  0.75000  0.87026  1.0000
  In  In22      1.0  0.50095  0.74629  0.13716  1.0000
  In  In23      1.0  0.75000  0.50000  0.13609  1.0000
  In  In24      1.0  0.75000  0.75468  0.04804  1.0000
  C   C1        1.0  0.25000  0.00000  0.22238  1.0000
  O   O1        1.0  0.25000  0.00000  0.26460  1.0000
