# generated using pymatgen
data_Y8In24CO
_symmetry_space_group_name_H-M   'P 1'
_cell_length_a   9.34369000
_cell_length_b   9.34369000
_cell_length_c   27.00780000
_cell_angle_alpha   90.00000000
_cell_angle_beta   90.00000000
_cell_angle_gamma   90.00000000
_symmetry_Int_Tables_number   1
_chemical_formula_structural   Y8In24CO
_chemical_formula_sum   'Y8 In24 C1 O1'
_cell_volume   2357.90363147
_cell_formula_units_Z   1
loop_
 _symmetry_equiv_pos_site_id
 _symmetry_equiv_pos_as_xyz
  1  'x, y, z'
loop_
 _atom_site_type_symbol
 _atom_site_label
 _atom_site_symmetry_multiplicity
 _atom_site_fract_x
 _atom_site_fract_y
 _atom_site_fract_z
 _atom_site_occupancy
  Y  Y0  1  0.00000000  0.00000000  0.87026000  1.0
  Y  Y1  1  0.00200000  0.99996000  0.04253000  1.0
  Y  Y2  1  0.00000000  0.50000000  0.87026000  1.0
  Y  Y3  1  0.99520000  0.50000000  0.04149000  1.0
  Y  Y4  1  0.50000000  0.00000000  0.87026000  1.0
  Y  Y5  1  0.49801000  0.00000000  0.04235000  1.0
  Y  Y6  1  0.50000000  0.50000000  0.87026000  1.0
  Y  Y7  1  0.50452000  0.50003000  0.04138000  1.0
  In  In8  1  0.00000000  0.25000000  0.95675000  1.0
  In  In9  1  0.25000000  0.00000000  0.95675000  1.0
  In  In10  1  0.25000000  0.25000000  0.87026000  1.0
  In  In11  1  0.00158000  0.25257000  0.13687000  1.0
  In  In12  1  0.25088000  0.00020000  0.12825000  1.0
  In  In13  1  0.24999000  0.25729000  0.04681000  1.0
  In  In14  1  0.00000000  0.75000000  0.95675000  1.0
  In  In15  1  0.25000000  0.50000000  0.95675000  1.0
  In  In16  1  0.25000000  0.75000000  0.87026000  1.0
  In  In17  1  0.00169000  0.74740000  0.13684000  1.0
  In  In18  1  0.24991000  0.49997000  0.14218000  1.0
  In  In19  1  0.25002000  0.74269000  0.04683000  1.0
  In  In20  1  0.50000000  0.25000000  0.95675000  1.0
  In  In21  1  0.75000000  0.00000000  0.95675000  1.0
  In  In22  1  0.75000000  0.25000000  0.87026000  1.0
  In  In23  1  0.49841000  0.25274000  0.13690000  1.0
  In  In24  1  0.74998000  0.99999000  0.14418000  1.0
  In  In25  1  0.74998000  0.24661000  0.04868000  1.0
  In  In26  1  0.50000000  0.75000000  0.95675000  1.0
  In  In27  1  0.75000000  0.50000000  0.95675000  1.0
  In  In28  1  0.75000000  0.75000000  0.87026000  1.0
  In  In29  1  0.49830000  0.74717000  0.13687000  1.0
  In  In30  1  0.74976000  0.49984000  0.13487000  1.0
  In  In31  1  0.74998000  0.75314000  0.04870000  1.0
  C  C32  1  0.24997000  0.00053000  0.24045000  1.0
  O  O33  1  0.25010000  0.99968000  0.28259000  1.0
