# generated using pymatgen
data_Li16Cu8Sb8C
_symmetry_space_group_name_H-M   'P 1'
_cell_length_a   9.01500000
_cell_length_b   6.37457000
_cell_length_c   26.76130000
_cell_angle_alpha   90.00000000
_cell_angle_beta   90.00000000
_cell_angle_gamma   90.00000000
_symmetry_Int_Tables_number   1
_chemical_formula_structural   Li16Cu8Sb8C
_chemical_formula_sum   'Li16 Cu8 Sb8 C1'
_cell_volume   1537.88489797
_cell_formula_units_Z   1
loop_
 _symmetry_equiv_pos_site_id
 _symmetry_equiv_pos_as_xyz
  1  'x, y, z'
loop_
 _atom_site_type_symbol
 _atom_site_label
 _atom_site_symmetry_multiplicity
 _atom_site_fract_x
 _atom_site_fract_y
 _atom_site_fract_z
 _atom_site_occupancy
  Li  Li0  1  0.75000000  1.00000000  0.04211000  1.0
  Li  Li1  1  0.00000000  0.50000000  0.12633000  1.0
  Li  Li2  1  0.25000000  1.00000000  0.04211000  1.0
  Li  Li3  1  0.50000000  0.50000000  0.12633000  1.0
  Li  Li4  1  0.00000000  0.25000000  0.04211000  1.0
  Li  Li5  1  0.50000000  0.25000000  0.04211000  1.0
  Li  Li6  1  0.75000000  0.75000000  0.12633000  1.0
  Li  Li7  1  0.25000000  0.75000000  0.12633000  1.0
  Li  Li8  1  0.27659000  0.00276000  0.86041000  1.0
  Li  Li9  1  0.50000000  0.51154000  0.96125000  1.0
  Li  Li10  1  0.72341000  0.00276000  0.86041000  1.0
  Li  Li11  1  0.00000000  0.51080000  0.94882000  1.0
  Li  Li12  1  0.50000000  0.28849000  0.88169000  1.0
  Li  Li13  1  0.00000000  0.21966000  0.87836000  1.0
  Li  Li14  1  0.25101000  0.76368000  0.95254000  1.0
  Li  Li15  1  0.74899000  0.76368000  0.95254000  1.0
  Cu  Cu16  1  0.00000000  0.00000000  0.12633000  1.0
  Cu  Cu17  1  0.25000000  0.50000000  0.04211000  1.0
  Cu  Cu18  1  0.75000000  0.50000000  0.04211000  1.0
  Cu  Cu19  1  0.50000000  1.00000000  0.12633000  1.0
  Cu  Cu20  1  0.50000000  0.98692000  0.95390000  1.0
  Cu  Cu21  1  0.78561000  0.49638000  0.87433000  1.0
  Cu  Cu22  1  0.21439000  0.49638000  0.87433000  1.0
  Cu  Cu23  1  0.00000000  0.00125000  0.96284000  1.0
  Sb  Sb24  1  0.25000000  0.25000000  0.12633000  1.0
  Sb  Sb25  1  0.75000000  0.25000000  0.12633000  1.0
  Sb  Sb26  1  0.50000000  0.75000000  0.04211000  1.0
  Sb  Sb27  1  0.00000000  0.75000000  0.04211000  1.0
  Sb  Sb28  1  0.74656000  0.24217000  0.95602000  1.0
  Sb  Sb29  1  0.25344000  0.24217000  0.95602000  1.0
  Sb  Sb30  1  0.00000000  0.83129000  0.86624000  1.0
  Sb  Sb31  1  0.50000000  0.71856000  0.86991000  1.0
  C  C32  1  0.00000000  0.50459000  0.85735000  1.0
