# generated using pymatgen
data_Li16Cu8Sb8C
_symmetry_space_group_name_H-M   Pm
_cell_length_a   6.37457000
_cell_length_b   9.01500000
_cell_length_c   26.76130000
_cell_angle_alpha   90.00000000
_cell_angle_beta   90.00000000
_cell_angle_gamma   90.00000000
_symmetry_Int_Tables_number   6
_chemical_formula_structural   Li16Cu8Sb8C
_chemical_formula_sum   'Li16 Cu8 Sb8 C1'
_cell_volume   1537.88489797
_cell_formula_units_Z   1
loop_
 _symmetry_equiv_pos_site_id
 _symmetry_equiv_pos_as_xyz
  1  'x, y, z'
  2  'x, -y, z'
loop_
 _atom_site_type_symbol
 _atom_site_label
 _atom_site_symmetry_multiplicity
 _atom_site_fract_x
 _atom_site_fract_y
 _atom_site_fract_z
 _atom_site_occupancy
  Li  Li0  2  -0.00000000  0.25000000  0.95789000  1.0
  Li  Li1  2  0.00276000  0.27659000  0.13959000  1.0
  Li  Li2  2  0.75000000  0.25000000  0.87367000  1.0
  Li  Li3  2  0.76368000  0.25101000  0.04746000  1.0
  Li  Li4  1  0.21966000  0.00000000  0.12164000  1.0
  Li  Li5  1  0.25000000  0.00000000  0.95789000  1.0
  Li  Li6  1  0.25000000  0.50000000  0.95789000  1.0
  Li  Li7  1  0.28849000  0.50000000  0.11831000  1.0
  Li  Li8  1  0.50000000  0.00000000  0.87367000  1.0
  Li  Li9  1  0.50000000  0.50000000  0.87367000  1.0
  Li  Li10  1  0.51080000  0.00000000  0.05118000  1.0
  Li  Li11  1  0.51154000  0.50000000  0.03875000  1.0
  Cu  Cu12  2  0.49638000  0.21439000  0.12567000  1.0
  Cu  Cu13  2  0.50000000  0.25000000  0.95789000  1.0
  Cu  Cu14  1  -0.00000000  0.50000000  0.87367000  1.0
  Cu  Cu15  1  0.00000000  0.00000000  0.87367000  1.0
  Cu  Cu16  1  0.00125000  0.00000000  0.03716000  1.0
  Cu  Cu17  1  0.98692000  0.50000000  0.04610000  1.0
  Sb  Sb18  2  0.24217000  0.25344000  0.04398000  1.0
  Sb  Sb19  2  0.25000000  0.25000000  0.87367000  1.0
  Sb  Sb20  1  0.71856000  0.50000000  0.13009000  1.0
  Sb  Sb21  1  0.75000000  0.00000000  0.95789000  1.0
  Sb  Sb22  1  0.75000000  0.50000000  0.95789000  1.0
  Sb  Sb23  1  0.83129000  0.00000000  0.13376000  1.0
  C  C24  1  0.50459000  0.00000000  0.14265000  1.0
