# generated using pymatgen
data_Y8Ga8Sn8Pd8C
_symmetry_space_group_name_H-M   P1
_cell_length_a   8.54550000
_cell_length_b   8.82498000
_cell_length_c   26.66250000
_cell_angle_alpha   90.00000000
_cell_angle_beta   90.00000000
_cell_angle_gamma   90.00000000
_symmetry_Int_Tables_number   1
_chemical_formula_structural   Y8Ga8Sn8Pd8C
_chemical_formula_sum   'Y8 Ga8 Sn8 Pd8 C1'
_cell_volume   2010.72221796
_cell_formula_units_Z   1
loop_
 _symmetry_equiv_pos_site_id
 _symmetry_equiv_pos_as_xyz
  1  'x, y, z'
loop_
 _atom_site_type_symbol
 _atom_site_label
 _atom_site_symmetry_multiplicity
 _atom_site_fract_x
 _atom_site_fract_y
 _atom_site_fract_z
 _atom_site_occupancy
  Y  Y0  1  0.24508000  0.51676000  0.04643000  1.0
  Y  Y1  1  0.24742000  0.98397000  0.04650000  1.0
  Y  Y2  1  0.25000000  0.00000000  0.87506000  1.0
  Y  Y3  1  0.25000000  0.50000000  0.87506000  1.0
  Y  Y4  1  0.74964000  0.02326000  0.04857000  1.0
  Y  Y5  1  0.75000000  0.00000000  0.87506000  1.0
  Y  Y6  1  0.75000000  0.50000000  0.87506000  1.0
  Y  Y7  1  0.75011000  0.47639000  0.04848000  1.0
  Ga  Ga8  1  0.00000000  0.00000000  0.95835000  1.0
  Ga  Ga9  1  0.00000000  0.50000000  0.95835000  1.0
  Ga  Ga10  1  0.50000000  0.00000000  0.95835000  1.0
  Ga  Ga11  1  0.50000000  0.50000000  0.95835000  1.0
  Ga  Ga12  1  0.52134000  0.58370000  0.12520000  1.0
  Ga  Ga13  1  0.52364000  0.91268000  0.12548000  1.0
  Ga  Ga14  1  0.99552000  0.41971000  0.12669000  1.0
  Ga  Ga15  1  0.99816000  0.07693000  0.12688000  1.0
  Sn  Sn16  1  0.25000000  0.25000000  0.95835000  1.0
  Sn  Sn17  1  0.25000000  0.75000000  0.95835000  1.0
  Sn  Sn18  1  0.25629000  0.74966000  0.14498000  1.0
  Sn  Sn19  1  0.26801000  0.25025000  0.13483000  1.0
  Sn  Sn20  1  0.61687000  0.24900000  0.14205000  1.0
  Sn  Sn21  1  0.75000000  0.25000000  0.95835000  1.0
  Sn  Sn22  1  0.75000000  0.75000000  0.95835000  1.0
  Sn  Sn23  1  0.89225000  0.74870000  0.13334000  1.0
  Pd  Pd24  1  0.00000000  0.25000000  0.87506000  1.0
  Pd  Pd25  1  0.00000000  0.75000000  0.87506000  1.0
  Pd  Pd26  1  0.02157000  0.24941000  0.03369000  1.0
  Pd  Pd27  1  0.46341000  0.25159000  0.04266000  1.0
  Pd  Pd28  1  0.50000000  0.25000000  0.87506000  1.0
  Pd  Pd29  1  0.50000000  0.75000000  0.87506000  1.0
  Pd  Pd30  1  0.51009000  0.74919000  0.03558000  1.0
  Pd  Pd31  1  0.98852000  0.75172000  0.03224000  1.0
  C  C32  1  0.85500000  0.24803000  0.09816000  1.0
