# generated using pymatgen
data_Ni12Sn4CO
_symmetry_space_group_name_H-M   Pm
_cell_length_a   5.33450000
_cell_length_b   7.54412000
_cell_length_c   24.00090000
_cell_angle_alpha   90.00000000
_cell_angle_beta   90.00000000
_cell_angle_gamma   90.00000000
_symmetry_Int_Tables_number   6
_chemical_formula_structural   Ni12Sn4CO
_chemical_formula_sum   'Ni12 Sn4 C1 O1'
_cell_volume   965.89481506
_cell_formula_units_Z   1
loop_
 _symmetry_equiv_pos_site_id
 _symmetry_equiv_pos_as_xyz
  1  'x, y, z'
  2  'x, -y, z'
loop_
 _atom_site_type_symbol
 _atom_site_label
 _atom_site_symmetry_multiplicity
 _atom_site_fract_x
 _atom_site_fract_y
 _atom_site_fract_z
 _atom_site_occupancy
  Ni  Ni0  2  0.00036000  0.25089000  0.97248000  1.0
  Ni  Ni1  2  0.50000000  0.25000000  0.08335000  1.0
  Ni  Ni2  1  0.22814000  0.00000000  0.92541000  1.0
  Ni  Ni3  1  0.23174000  0.50000000  0.92483000  1.0
  Ni  Ni4  1  0.25000000  0.00000000  0.02778000  1.0
  Ni  Ni5  1  0.25000000  0.50000000  0.02778000  1.0
  Ni  Ni6  1  0.75000000  0.00000000  0.02778000  1.0
  Ni  Ni7  1  0.75000000  0.50000000  0.02778000  1.0
  Ni  Ni8  1  0.77047000  0.50000000  0.92141000  1.0
  Ni  Ni9  1  0.77125000  0.00000000  0.92519000  1.0
  Sn  Sn10  2  0.00000000  0.25000000  0.08335000  1.0
  Sn  Sn11  2  0.50046000  0.24949000  0.96865000  1.0
  C  C12  1  0.75944000  0.50000000  0.84814000  1.0
  O  O13  1  0.75067000  0.50000000  0.80005000  1.0
