# generated using pymatgen
data_Li8Bi8CO
_symmetry_space_group_name_H-M   Cm
_cell_length_a   9.62191310
_cell_length_b   9.62191310
_cell_length_c   26.38080000
_cell_angle_alpha   90.00000000
_cell_angle_beta   90.00000000
_cell_angle_gamma   90.00000000
_symmetry_Int_Tables_number   8
_chemical_formula_structural   Li8Bi8CO
_chemical_formula_sum   'Li16 Bi16 C2 O2'
_cell_volume   2442.36642900
_cell_formula_units_Z   2
loop_
 _symmetry_equiv_pos_site_id
 _symmetry_equiv_pos_as_xyz
  1  'x, y, z'
  2  'x, -y, z'
  3  'x+1/2, y+1/2, z'
  4  'x+1/2, -y+1/2, z'
loop_
 _atom_site_type_symbol
 _atom_site_label
 _atom_site_symmetry_multiplicity
 _atom_site_fract_x
 _atom_site_fract_y
 _atom_site_fract_z
 _atom_site_occupancy
  Li  Li0  4  0.00000000  0.25000000  0.99741000  1.0
  Li  Li1  4  0.49944500  0.25001500  0.14509000  1.0
  Li  Li2  2  0.24937000  0.50000000  0.14322000  1.0
  Li  Li3  2  0.25000000  0.00000000  0.99741000  1.0
  Li  Li4  2  0.25000000  0.50000000  0.99741000  1.0
  Li  Li5  2  0.25048500  0.00000000  0.14770000  1.0
  Bi  Bi6  4  0.24990500  0.24872500  0.07971000  1.0
  Bi  Bi7  4  0.25000000  0.25000000  0.91678000  1.0
  Bi  Bi8  2  0.00000000  0.00000000  0.91678000  1.0
  Bi  Bi9  2  0.00000000  0.50000000  0.91678000  1.0
  Bi  Bi10  2  0.00097000  0.00000000  0.07967000  1.0
  Bi  Bi11  2  0.49856000  0.00000000  0.07968000  1.0
  C  C12  2  0.25181000  0.00000000  0.22523000  1.0
  O  O13  2  0.25313000  0.00000000  0.26886000  1.0
