# generated using pymatgen
data_Li2InRh
_symmetry_space_group_name_H-M   Pm
_cell_length_a   6.34973000
_cell_length_b   4.48993500
_cell_length_c   26.73490000
_cell_angle_alpha   90.00000000
_cell_angle_beta   90.00000000
_cell_angle_gamma   90.00000000
_symmetry_Int_Tables_number   6
_chemical_formula_structural   Li2InRh
_chemical_formula_sum   'Li8 In4 Rh4'
_cell_volume   762.20865627
_cell_formula_units_Z   4
loop_
 _symmetry_equiv_pos_site_id
 _symmetry_equiv_pos_as_xyz
  1  'x, y, z'
  2  'x, -y, z'
loop_
 _atom_site_type_symbol
 _atom_site_label
 _atom_site_symmetry_multiplicity
 _atom_site_fract_x
 _atom_site_fract_y
 _atom_site_fract_z
 _atom_site_occupancy
  Li  Li0  1  0.00000000  0.50000000  0.04199000  1.0
  Li  Li1  1  0.25000000  0.00000000  0.04199000  1.0
  Li  Li2  1  0.26954500  0.00000000  0.86949000  1.0
  Li  Li3  1  0.49918500  0.00000000  0.95785000  1.0
  Li  Li4  1  0.50000000  0.00000000  0.12596000  1.0
  Li  Li5  1  0.74751500  0.50000000  0.95877000  1.0
  Li  Li6  1  0.75000000  0.50000000  0.12596000  1.0
  Li  Li7  1  0.99725000  0.50000000  0.87395000  1.0
  In  In8  1  0.24401000  0.50000000  0.95964000  1.0
  In  In9  1  0.25000000  0.50000000  0.12596000  1.0
  In  In10  1  0.73561000  0.00000000  0.86950000  1.0
  In  In11  1  0.75000000  0.00000000  0.04199000  1.0
  Rh  Rh12  1  0.00000000  0.00000000  0.12596000  1.0
  Rh  Rh13  1  0.50000000  0.50000000  0.04199000  1.0
  Rh  Rh14  1  0.50585500  0.50000000  0.88143000  1.0
  Rh  Rh15  1  0.99392500  0.00000000  0.95328000  1.0
