# generated using pymatgen
data_Zr8In8Pt16CO
_symmetry_space_group_name_H-M   Pm
_cell_length_a   6.69031000
_cell_length_b   9.46152000
_cell_length_c   27.09610000
_cell_angle_alpha   90.00000000
_cell_angle_beta   90.00000000
_cell_angle_gamma   90.00000000
_symmetry_Int_Tables_number   6
_chemical_formula_structural   Zr8In8Pt16CO
_chemical_formula_sum   'Zr8 In8 Pt16 C1 O1'
_cell_volume   1715.19672875
_cell_formula_units_Z   1
loop_
 _symmetry_equiv_pos_site_id
 _symmetry_equiv_pos_as_xyz
  1  'x, y, z'
  2  'x, -y, z'
loop_
 _atom_site_type_symbol
 _atom_site_label
 _atom_site_symmetry_multiplicity
 _atom_site_fract_x
 _atom_site_fract_y
 _atom_site_fract_z
 _atom_site_occupancy
  Zr  Zr0  2  0.49310000  0.24675000  0.12462000  1.0
  Zr  Zr1  2  0.50000000  0.25000000  0.95635000  1.0
  Zr  Zr2  1  0.00000000  0.00000000  0.86906000  1.0
  Zr  Zr3  1  0.00000000  0.50000000  0.86906000  1.0
  Zr  Zr4  1  0.00512000  0.00000000  0.04753000  1.0
  Zr  Zr5  1  0.99678000  0.50000000  0.04493000  1.0
  In  In6  2  0.00000000  0.25000000  0.95635000  1.0
  In  In7  2  0.99446000  0.25621000  0.13798000  1.0
  In  In8  1  0.48975000  0.00000000  0.04305000  1.0
  In  In9  1  0.49953000  0.50000000  0.03958000  1.0
  In  In10  1  0.50000000  0.00000000  0.86906000  1.0
  In  In11  1  0.50000000  0.50000000  0.86906000  1.0
  Pt  Pt12  2  0.24507000  0.24935000  0.04346000  1.0
  Pt  Pt13  2  0.25000000  0.25000000  0.86906000  1.0
  Pt  Pt14  2  0.75000000  0.25000000  0.86906000  1.0
  Pt  Pt15  2  0.75787000  0.24963000  0.04412000  1.0
  Pt  Pt16  1  0.24547000  0.00000000  0.14520000  1.0
  Pt  Pt17  1  0.25000000  0.00000000  0.95635000  1.0
  Pt  Pt18  1  0.25000000  0.50000000  0.95635000  1.0
  Pt  Pt19  1  0.26362000  0.50000000  0.12425000  1.0
  Pt  Pt20  1  0.72787000  0.50000000  0.12486000  1.0
  Pt  Pt21  1  0.74104000  0.00000000  0.12377000  1.0
  Pt  Pt22  1  0.75000000  0.00000000  0.95635000  1.0
  Pt  Pt23  1  0.75000000  0.50000000  0.95635000  1.0
  C  C24  1  0.29252000  0.00000000  0.21451000  1.0
  O  O25  1  0.29921000  0.00000000  0.25721000  1.0
