# generated using pymatgen
data_Li8Sc8Al8In8CO
_symmetry_space_group_name_H-M   P1
_cell_length_a   8.49254000
_cell_length_b   8.71362000
_cell_length_c   26.28040000
_cell_angle_alpha   90.00000000
_cell_angle_beta   90.00000000
_cell_angle_gamma   90.00000000
_symmetry_Int_Tables_number   1
_chemical_formula_structural   Li8Sc8Al8In8CO
_chemical_formula_sum   'Li8 Sc8 Al8 In8 C1 O1'
_cell_volume   1944.76974116
_cell_formula_units_Z   1
loop_
 _symmetry_equiv_pos_site_id
 _symmetry_equiv_pos_as_xyz
  1  'x, y, z'
loop_
 _atom_site_type_symbol
 _atom_site_label
 _atom_site_symmetry_multiplicity
 _atom_site_fract_x
 _atom_site_fract_y
 _atom_site_fract_z
 _atom_site_occupancy
  Li  Li0  1  0.25000000  0.25000000  0.88051000  1.0
  Li  Li1  1  0.25000000  0.75000000  0.88051000  1.0
  Li  Li2  1  0.25012000  0.24926000  0.03965000  1.0
  Li  Li3  1  0.25058000  0.74832000  0.03965000  1.0
  Li  Li4  1  0.74924000  0.74827000  0.03969000  1.0
  Li  Li5  1  0.74979000  0.24912000  0.03972000  1.0
  Li  Li6  1  0.75000000  0.25000000  0.88051000  1.0
  Li  Li7  1  0.75000000  0.75000000  0.88051000  1.0
  Sc  Sc8  1  0.24894000  0.49768000  0.12017000  1.0
  Sc  Sc9  1  0.24993000  0.99807000  0.11986000  1.0
  Sc  Sc10  1  0.25000000  0.00000000  0.96017000  1.0
  Sc  Sc11  1  0.25000000  0.50000000  0.96017000  1.0
  Sc  Sc12  1  0.74983000  0.99800000  0.11989000  1.0
  Sc  Sc13  1  0.75000000  0.00000000  0.96017000  1.0
  Sc  Sc14  1  0.75000000  0.50000000  0.96017000  1.0
  Sc  Sc15  1  0.75098000  0.49777000  0.12016000  1.0
  Al  Al16  1  0.00000000  0.00000000  0.88051000  1.0
  Al  Al17  1  0.00000000  0.50000000  0.88051000  1.0
  Al  Al18  1  0.00002000  0.99814000  0.04195000  1.0
  Al  Al19  1  0.49995000  0.49874000  0.04242000  1.0
  Al  Al20  1  0.49997000  0.99848000  0.04226000  1.0
  Al  Al21  1  0.50000000  0.00000000  0.88051000  1.0
  Al  Al22  1  0.50000000  0.50000000  0.88051000  1.0
  Al  Al23  1  0.99997000  0.49912000  0.04207000  1.0
  In  In24  1  0.00000000  0.25000000  0.96017000  1.0
  In  In25  1  0.00000000  0.75000000  0.96017000  1.0
  In  In26  1  0.49997000  0.24839000  0.12096000  1.0
  In  In27  1  0.50000000  0.25000000  0.96017000  1.0
  In  In28  1  0.50000000  0.75000000  0.96017000  1.0
  In  In29  1  0.50013000  0.74827000  0.12093000  1.0
  In  In30  1  0.99966000  0.24672000  0.11973000  1.0
  In  In31  1  0.99999000  0.74847000  0.12027000  1.0
  C  C32  1  0.00061000  0.34531000  0.26751000  1.0
  O  O33  1  0.99963000  0.23610000  0.29118000  1.0
