# generated using pymatgen
data_Y8In8Pd8Au8C
_symmetry_space_group_name_H-M   'P 1'
_cell_length_a   9.80272000
_cell_length_b   6.93157000
_cell_length_c   27.35200000
_cell_angle_alpha   90.00000000
_cell_angle_beta   90.00000000
_cell_angle_gamma   90.00000000
_symmetry_Int_Tables_number   1
_chemical_formula_structural   Y8In8Pd8Au8C
_chemical_formula_sum   'Y8 In8 Pd8 Au8 C1'
_cell_volume   1858.52025694
_cell_formula_units_Z   1
loop_
 _symmetry_equiv_pos_site_id
 _symmetry_equiv_pos_as_xyz
  1  'x, y, z'
loop_
 _atom_site_type_symbol
 _atom_site_label
 _atom_site_symmetry_multiplicity
 _atom_site_fract_x
 _atom_site_fract_y
 _atom_site_fract_z
 _atom_site_occupancy
  Y  Y0  1  0.75000000  0.75000000  0.04480000  1.0
  Y  Y1  1  0.25000000  0.75000000  0.04480000  1.0
  Y  Y2  1  0.00000000  0.25000000  0.13440000  1.0
  Y  Y3  1  0.50000000  0.25000000  0.13440000  1.0
  Y  Y4  1  0.23634000  0.74861000  0.86851000  1.0
  Y  Y5  1  0.76366000  0.74861000  0.86851000  1.0
  Y  Y6  1  0.50000000  0.25525000  0.95252000  1.0
  Y  Y7  1  0.00000000  0.25552000  0.94733000  1.0
  In  In8  1  0.75000000  0.25000000  0.04480000  1.0
  In  In9  1  0.25000000  0.25000000  0.04480000  1.0
  In  In10  1  0.00000000  0.75000000  0.13440000  1.0
  In  In11  1  0.50000000  0.75000000  0.13440000  1.0
  In  In12  1  0.26156000  0.24123000  0.86048000  1.0
  In  In13  1  0.73844000  0.24123000  0.86048000  1.0
  In  In14  1  0.50000000  0.75127000  0.95522000  1.0
  In  In15  1  0.00000000  0.75045000  0.95480000  1.0
  Pd  Pd16  1  0.00000000  0.00000000  0.04480000  1.0
  Pd  Pd17  1  0.50000000  0.00000000  0.04480000  1.0
  Pd  Pd18  1  0.25000000  0.50000000  0.13440000  1.0
  Pd  Pd19  1  0.75000000  0.50000000  0.13440000  1.0
  Pd  Pd20  1  0.50000000  0.99630000  0.87202000  1.0
  Pd  Pd21  1  0.00000000  0.05761000  0.85436000  1.0
  Pd  Pd22  1  0.74674000  0.49675000  0.95619000  1.0
  Pd  Pd23  1  0.25326000  0.49675000  0.95619000  1.0
  Au  Au24  1  0.75000000  0.00000000  0.13440000  1.0
  Au  Au25  1  0.25000000  0.00000000  0.13440000  1.0
  Au  Au26  1  0.50000000  0.50000000  0.04480000  1.0
  Au  Au27  1  0.00000000  0.50000000  0.04480000  1.0
  Au  Au28  1  0.25048000  0.00606000  0.95674000  1.0
  Au  Au29  1  0.74952000  0.00606000  0.95674000  1.0
  Au  Au30  1  0.00000000  0.45335000  0.84888000  1.0
  Au  Au31  1  0.50000000  0.50342000  0.86131000  1.0
  C  C32  1  0.00000000  0.75935000  0.86850000  1.0
