# generated using pymatgen
data_V4Co8Sn4C
_symmetry_space_group_name_H-M   Cmm2
_cell_length_a   8.54677138
_cell_length_b   8.54677138
_cell_length_c   24.53260000
_cell_angle_alpha   90.00000000
_cell_angle_beta   90.00000000
_cell_angle_gamma   90.00000000
_symmetry_Int_Tables_number   35
_chemical_formula_structural   V4Co8Sn4C
_chemical_formula_sum   'V8 Co16 Sn8 C2'
_cell_volume   1792.04021702
_cell_formula_units_Z   2
loop_
 _symmetry_equiv_pos_site_id
 _symmetry_equiv_pos_as_xyz
  1  'x, y, z'
  2  '-x, -y, z'
  3  '-x, y, z'
  4  'x, -y, z'
  5  'x+1/2, y+1/2, z'
  6  '-x+1/2, -y+1/2, z'
  7  '-x+1/2, y+1/2, z'
  8  'x+1/2, -y+1/2, z'
loop_
 _atom_site_type_symbol
 _atom_site_label
 _atom_site_symmetry_multiplicity
 _atom_site_fract_x
 _atom_site_fract_y
 _atom_site_fract_z
 _atom_site_occupancy
  V  V0  4  0.00000000  0.25000000  0.09238000  1.0
  V  V1  4  0.25000000  0.00000000  0.96921000  1.0
  Co  Co2  4  0.25000000  0.25000000  0.03079000  1.0
  Co  Co3  4  0.25000000  0.25000000  0.90762000  1.0
  Co  Co4  2  0.00000000  0.00000000  0.03079000  1.0
  Co  Co5  2  0.00000000  0.00000000  0.90762000  1.0
  Co  Co6  2  0.00000000  0.50000000  0.03079000  1.0
  Co  Co7  2  0.00000000  0.50000000  0.90762000  1.0
  Sn  Sn8  4  0.00000000  0.25000000  0.96921000  1.0
  Sn  Sn9  4  0.25000000  0.00000000  0.09238000  1.0
  C  C10  2  0.00000000  0.50000000  0.12499000  1.0
