data_image0
_chemical_formula_structural       Li4Ti4Al4Pd4CO
_chemical_formula_sum              "Li4 Ti4 Al4 Pd4 C1 O1"
_cell_length_a       6.17553
_cell_length_b       6.17553
_cell_length_c       24.6316
_cell_angle_alpha    90
_cell_angle_beta     90
_cell_angle_gamma    90

_space_group_name_H-M_alt    "P 1"
_space_group_IT_number       1

loop_
  _space_group_symop_operation_xyz
  'x, y, z'

loop_
  _atom_site_type_symbol
  _atom_site_label
  _atom_site_symmetry_multiplicity
  _atom_site_fract_x
  _atom_site_fract_y
  _atom_site_fract_z
  _atom_site_occupancy
  Li  Li1       1.0  0.75000  0.25000  0.96866  1.0000
  Li  Li2       1.0  0.75078  0.75083  0.11911  1.0000
  Li  Li3       1.0  0.24995  0.24992  0.12181  1.0000
  Li  Li4       1.0  0.25000  0.75000  0.96866  1.0000
  Ti  Ti1       1.0  0.00000  0.50000  0.90598  1.0000
  Ti  Ti2       1.0  0.00360  0.00360  0.03232  1.0000
  Ti  Ti3       1.0  0.49637  0.49636  0.03236  1.0000
  Ti  Ti4       1.0  0.50000  0.00000  0.90598  1.0000
  Al  Al1       1.0  0.00000  0.00000  0.90598  1.0000
  Al  Al2       1.0  0.99943  0.50069  0.03345  1.0000
  Al  Al3       1.0  0.50069  0.99942  0.03344  1.0000
  Al  Al4       1.0  0.50000  0.50000  0.90598  1.0000
  Pd  Pd1       1.0  0.25000  0.25000  0.96866  1.0000
  Pd  Pd2       1.0  0.25007  0.75020  0.08779  1.0000
  Pd  Pd3       1.0  0.75020  0.25006  0.08779  1.0000
  Pd  Pd4       1.0  0.75000  0.75000  0.96866  1.0000
  C   C1        1.0  0.24848  0.24848  0.20745  1.0000
  O   O1        1.0  0.24787  0.24788  0.25374  1.0000
