# generated using pymatgen
data_Li8Sc8Ga8Pd8CO
_symmetry_space_group_name_H-M   Pm
_cell_length_a   6.35289000
_cell_length_b   8.98434000
_cell_length_c   26.73830000
_cell_angle_alpha   90.00000000
_cell_angle_beta   90.00000000
_cell_angle_gamma   90.00000000
_symmetry_Int_Tables_number   6
_chemical_formula_structural   Li8Sc8Ga8Pd8CO
_chemical_formula_sum   'Li8 Sc8 Ga8 Pd8 C1 O1'
_cell_volume   1526.12921479
_cell_formula_units_Z   1
loop_
 _symmetry_equiv_pos_site_id
 _symmetry_equiv_pos_as_xyz
  1  'x, y, z'
  2  'x, -y, z'
loop_
 _atom_site_type_symbol
 _atom_site_label
 _atom_site_symmetry_multiplicity
 _atom_site_fract_x
 _atom_site_fract_y
 _atom_site_fract_z
 _atom_site_occupancy
  Li  Li0  2  0.23883000  0.25003000  0.04461000  1.0
  Li  Li1  2  0.25000000  0.25000000  0.87400000  1.0
  Li  Li2  1  0.57204000  0.50000000  0.17726000  1.0
  Li  Li3  1  0.57649000  0.00000000  0.17807000  1.0
  Li  Li4  1  0.75000000  0.00000000  0.95800000  1.0
  Li  Li5  1  0.75000000  0.50000000  0.95800000  1.0
  Sc  Sc6  2  0.00000000  0.25000000  0.95800000  1.0
  Sc  Sc7  2  0.93950000  0.25149000  0.12368000  1.0
  Sc  Sc8  1  0.50000000  0.00000000  0.87400000  1.0
  Sc  Sc9  1  0.50000000  0.50000000  0.87400000  1.0
  Sc  Sc10  1  0.50654000  0.00000000  0.05178000  1.0
  Sc  Sc11  1  0.51664000  0.50000000  0.05191000  1.0
  Ga  Ga12  2  0.47060000  0.24947000  0.12696000  1.0
  Ga  Ga13  2  0.50000000  0.25000000  0.95800000  1.0
  Ga  Ga14  1  0.00000000  0.00000000  0.87400000  1.0
  Ga  Ga15  1  0.00000000  0.50000000  0.87400000  1.0
  Ga  Ga16  1  0.99203000  0.50000000  0.04010000  1.0
  Ga  Ga17  1  0.99956000  0.00000000  0.04162000  1.0
  Pd  Pd18  2  0.74281000  0.24782000  0.03814000  1.0
  Pd  Pd19  2  0.75000000  0.25000000  0.87400000  1.0
  Pd  Pd20  1  0.20422000  0.00000000  0.13064000  1.0
  Pd  Pd21  1  0.21755000  0.50000000  0.12047000  1.0
  Pd  Pd22  1  0.25000000  0.00000000  0.95800000  1.0
  Pd  Pd23  1  0.25000000  0.50000000  0.95800000  1.0
  C  C24  1  0.07988000  0.00000000  0.19718000  1.0
  O  O25  1  0.03874000  0.00000000  0.23997000  1.0
