# generated using pymatgen
data_Be16Ni16CO
_symmetry_space_group_name_H-M   'P 1'
_cell_length_a   7.41035000
_cell_length_b   5.23991000
_cell_length_c   25.55780000
_cell_angle_alpha   90.00000000
_cell_angle_beta   90.00000000
_cell_angle_gamma   90.00000000
_symmetry_Int_Tables_number   1
_chemical_formula_structural   Be16Ni16CO
_chemical_formula_sum   'Be16 Ni16 C1 O1'
_cell_volume   992.39830922
_cell_formula_units_Z   1
loop_
 _symmetry_equiv_pos_site_id
 _symmetry_equiv_pos_as_xyz
  1  'x, y, z'
loop_
 _atom_site_type_symbol
 _atom_site_label
 _atom_site_symmetry_multiplicity
 _atom_site_fract_x
 _atom_site_fract_y
 _atom_site_fract_z
 _atom_site_occupancy
  Be  Be0  1  0.00000000  0.00000000  0.10873000  1.0
  Be  Be1  1  0.25000000  0.00000000  0.03624000  1.0
  Be  Be2  1  0.99971000  0.00000000  0.96287000  1.0
  Be  Be3  1  0.24998000  0.00000000  0.88864000  1.0
  Be  Be4  1  0.50000000  0.00000000  0.10873000  1.0
  Be  Be5  1  0.75000000  0.00000000  0.03624000  1.0
  Be  Be6  1  0.50021000  0.00000000  0.96290000  1.0
  Be  Be7  1  0.74998000  0.00000000  0.89212000  1.0
  Be  Be8  1  0.00000000  0.50000000  0.10873000  1.0
  Be  Be9  1  0.25000000  0.50000000  0.03624000  1.0
  Be  Be10  1  0.00124000  0.50000000  0.96273000  1.0
  Be  Be11  1  0.24997000  0.50000000  0.89403000  1.0
  Be  Be12  1  0.50000000  0.50000000  0.10873000  1.0
  Be  Be13  1  0.75000000  0.50000000  0.03624000  1.0
  Be  Be14  1  0.49868000  0.50000000  0.96276000  1.0
  Be  Be15  1  0.74998000  0.50000000  0.89097000  1.0
  Ni  Ni16  1  0.25000000  0.75000000  0.10873000  1.0
  Ni  Ni17  1  0.00000000  0.75000000  0.03624000  1.0
  Ni  Ni18  1  0.24993000  0.75265000  0.96358000  1.0
  Ni  Ni19  1  0.50331000  0.74989000  0.89207000  1.0
  Ni  Ni20  1  0.75000000  0.75000000  0.10873000  1.0
  Ni  Ni21  1  0.50000000  0.75000000  0.03624000  1.0
  Ni  Ni22  1  0.74999000  0.74938000  0.96427000  1.0
  Ni  Ni23  1  0.99663000  0.74989000  0.89202000  1.0
  Ni  Ni24  1  0.25000000  0.25000000  0.10873000  1.0
  Ni  Ni25  1  0.00000000  0.25000000  0.03624000  1.0
  Ni  Ni26  1  0.24993000  0.24735000  0.96358000  1.0
  Ni  Ni27  1  0.50331000  0.25011000  0.89207000  1.0
  Ni  Ni28  1  0.75000000  0.25000000  0.10873000  1.0
  Ni  Ni29  1  0.50000000  0.25000000  0.03624000  1.0
  Ni  Ni30  1  0.74999000  0.25062000  0.96427000  1.0
  Ni  Ni31  1  0.99663000  0.25011000  0.89202000  1.0
  C  C32  1  0.25000000  0.00000000  0.82308000  1.0
  O  O33  1  0.25002000  0.00000000  0.77781000  1.0
