# generated using pymatgen
data_Be16Ni16CO
_symmetry_space_group_name_H-M   Pm
_cell_length_a   7.41035000
_cell_length_b   5.23991000
_cell_length_c   25.55780000
_cell_angle_alpha   90.00000000
_cell_angle_beta   90.00000000
_cell_angle_gamma   90.00000000
_symmetry_Int_Tables_number   6
_chemical_formula_structural   Be16Ni16CO
_chemical_formula_sum   'Be16 Ni16 C1 O1'
_cell_volume   992.39830922
_cell_formula_units_Z   1
loop_
 _symmetry_equiv_pos_site_id
 _symmetry_equiv_pos_as_xyz
  1  'x, y, z'
  2  'x, -y, z'
loop_
 _atom_site_type_symbol
 _atom_site_label
 _atom_site_symmetry_multiplicity
 _atom_site_fract_x
 _atom_site_fract_y
 _atom_site_fract_z
 _atom_site_occupancy
  Be  Be0  1  0.00000000  0.00000000  0.89127000  1.0
  Be  Be1  1  0.00000000  0.50000000  0.89127000  1.0
  Be  Be2  1  0.00124000  0.50000000  0.03727000  1.0
  Be  Be3  1  0.24997000  0.50000000  0.10597000  1.0
  Be  Be4  1  0.24998000  0.00000000  0.11136000  1.0
  Be  Be5  1  0.25000000  0.00000000  0.96376000  1.0
  Be  Be6  1  0.25000000  0.50000000  0.96376000  1.0
  Be  Be7  1  0.49868000  0.50000000  0.03724000  1.0
  Be  Be8  1  0.50000000  0.00000000  0.89127000  1.0
  Be  Be9  1  0.50000000  0.50000000  0.89127000  1.0
  Be  Be10  1  0.50021000  0.00000000  0.03710000  1.0
  Be  Be11  1  0.74998000  0.00000000  0.10788000  1.0
  Be  Be12  1  0.74998000  0.50000000  0.10903000  1.0
  Be  Be13  1  0.75000000  0.00000000  0.96376000  1.0
  Be  Be14  1  0.75000000  0.50000000  0.96376000  1.0
  Be  Be15  1  0.99971000  0.00000000  0.03713000  1.0
  Ni  Ni16  2  0.00000000  0.25000000  0.96376000  1.0
  Ni  Ni17  2  0.24993000  0.24735000  0.03642000  1.0
  Ni  Ni18  2  0.25000000  0.25000000  0.89127000  1.0
  Ni  Ni19  2  0.50000000  0.25000000  0.96376000  1.0
  Ni  Ni20  2  0.50331000  0.25011000  0.10793000  1.0
  Ni  Ni21  2  0.74999000  0.25062000  0.03573000  1.0
  Ni  Ni22  2  0.75000000  0.25000000  0.89127000  1.0
  Ni  Ni23  2  0.99663000  0.25011000  0.10798000  1.0
  C  C24  1  0.25000000  0.00000000  0.17692000  1.0
  O  O25  1  0.25002000  0.00000000  0.22219000  1.0
