# generated using pymatgen
data_Li8Y8Sn8Ge8CO
_symmetry_space_group_name_H-M   'P 1'
_cell_length_a   8.60818000
_cell_length_b   9.43388000
_cell_length_c   26.39560000
_cell_angle_alpha   90.00000000
_cell_angle_beta   90.00000000
_cell_angle_gamma   90.00000000
_symmetry_Int_Tables_number   1
_chemical_formula_structural   Li8Y8Sn8Ge8CO
_chemical_formula_sum   'Li8 Y8 Sn8 Ge8 C1 O1'
_cell_volume   2143.54806289
_cell_formula_units_Z   1
loop_
 _symmetry_equiv_pos_site_id
 _symmetry_equiv_pos_as_xyz
  1  'x, y, z'
loop_
 _atom_site_type_symbol
 _atom_site_label
 _atom_site_symmetry_multiplicity
 _atom_site_fract_x
 _atom_site_fract_y
 _atom_site_fract_z
 _atom_site_occupancy
  Li  Li0  1  0.73767000  0.00000000  0.95433000  1.0
  Li  Li1  1  0.75001000  0.00000000  0.12115000  1.0
  Li  Li2  1  0.26233000  0.00000000  0.95433000  1.0
  Li  Li3  1  0.24999000  0.00000000  0.12115000  1.0
  Li  Li4  1  0.75071000  0.50000000  0.95108000  1.0
  Li  Li5  1  0.75001000  0.50000000  0.12115000  1.0
  Li  Li6  1  0.24929000  0.50000000  0.95108000  1.0
  Li  Li7  1  0.24999000  0.50000000  0.12115000  1.0
  Y  Y8  1  0.00000000  0.74785000  0.96131000  1.0
  Y  Y9  1  0.00000000  0.75000000  0.12115000  1.0
  Y  Y10  1  0.50000000  0.74734000  0.96204000  1.0
  Y  Y11  1  0.50000000  0.75000000  0.12115000  1.0
  Y  Y12  1  0.00000000  0.25215000  0.96131000  1.0
  Y  Y13  1  0.00000000  0.25000000  0.12115000  1.0
  Y  Y14  1  0.50000000  0.25266000  0.96204000  1.0
  Y  Y15  1  0.50000000  0.25000000  0.12115000  1.0
  Sn  Sn16  1  0.00000000  0.00000000  0.88352000  1.0
  Sn  Sn17  1  0.00000000  0.00000000  0.04038000  1.0
  Sn  Sn18  1  0.50000000  0.00000000  0.86427000  1.0
  Sn  Sn19  1  0.50000000  0.00000000  0.04038000  1.0
  Sn  Sn20  1  0.00000000  0.50000000  0.85991000  1.0
  Sn  Sn21  1  0.00000000  0.50000000  0.04038000  1.0
  Sn  Sn22  1  0.50000000  0.50000000  0.86148000  1.0
  Sn  Sn23  1  0.50000000  0.50000000  0.04038000  1.0
  Ge  Ge24  1  0.74507000  0.74135000  0.88190000  1.0
  Ge  Ge25  1  0.75001000  0.75000000  0.04038000  1.0
  Ge  Ge26  1  0.25493000  0.74135000  0.88190000  1.0
  Ge  Ge27  1  0.24999000  0.75000000  0.04038000  1.0
  Ge  Ge28  1  0.74507000  0.25865000  0.88190000  1.0
  Ge  Ge29  1  0.75001000  0.25000000  0.04038000  1.0
  Ge  Ge30  1  0.25493000  0.25865000  0.88190000  1.0
  Ge  Ge31  1  0.24999000  0.25000000  0.04038000  1.0
  C  C32  1  0.00000000  0.00000000  0.79540000  1.0
  O  O33  1  0.00000000  0.00000000  0.75217000  1.0
