# generated using pymatgen
data_Li8Al8Co8Pd8CO
_symmetry_space_group_name_H-M   'P 1'
_cell_length_a   8.30502000
_cell_length_b   5.87254000
_cell_length_c   26.22880000
_cell_angle_alpha   90.00000000
_cell_angle_beta   90.00000000
_cell_angle_gamma   90.00000000
_symmetry_Int_Tables_number   1
_chemical_formula_structural   Li8Al8Co8Pd8CO
_chemical_formula_sum   'Li8 Al8 Co8 Pd8 C1 O1'
_cell_volume   1279.21954934
_cell_formula_units_Z   1
loop_
 _symmetry_equiv_pos_site_id
 _symmetry_equiv_pos_as_xyz
  1  'x, y, z'
loop_
 _atom_site_type_symbol
 _atom_site_label
 _atom_site_symmetry_multiplicity
 _atom_site_fract_x
 _atom_site_fract_y
 _atom_site_fract_z
 _atom_site_occupancy
  Li  Li0  1  0.00000000  1.00000000  0.03958000  1.0
  Li  Li1  1  0.50000000  1.00000000  0.03958000  1.0
  Li  Li2  1  0.24998000  0.50000000  0.11874000  1.0
  Li  Li3  1  0.75002000  0.50000000  0.11874000  1.0
  Li  Li4  1  0.50000000  0.99151000  0.86368000  1.0
  Li  Li5  1  0.00000000  0.98851000  0.86396000  1.0
  Li  Li6  1  0.75048000  0.49383000  0.96195000  1.0
  Li  Li7  1  0.24952000  0.49383000  0.96195000  1.0
  Al  Al8  1  0.74998000  0.00000000  0.11874000  1.0
  Al  Al9  1  0.25002000  0.00000000  0.11874000  1.0
  Al  Al10  1  0.50000000  0.50000000  0.03958000  1.0
  Al  Al11  1  0.00000000  0.50000000  0.03958000  1.0
  Al  Al12  1  0.25044000  0.00156000  0.96097000  1.0
  Al  Al13  1  0.74956000  0.00156000  0.96097000  1.0
  Al  Al14  1  0.00000000  0.49844000  0.88284000  1.0
  Al  Al15  1  0.50000000  0.50012000  0.88033000  1.0
  Co  Co16  1  0.74998000  0.75000000  0.03958000  1.0
  Co  Co17  1  0.25002000  0.75000000  0.03958000  1.0
  Co  Co18  1  0.00000000  0.25000000  0.11874000  1.0
  Co  Co19  1  0.50000000  0.25000000  0.11874000  1.0
  Co  Co20  1  0.25278000  0.73590000  0.88604000  1.0
  Co  Co21  1  0.74722000  0.73590000  0.88604000  1.0
  Co  Co22  1  0.50000000  0.24465000  0.95808000  1.0
  Co  Co23  1  0.00000000  0.24149000  0.95880000  1.0
  Pd  Pd24  1  0.74998000  0.25000000  0.03958000  1.0
  Pd  Pd25  1  0.25002000  0.25000000  0.03958000  1.0
  Pd  Pd26  1  0.00000000  0.75000000  0.11874000  1.0
  Pd  Pd27  1  0.50000000  0.75000000  0.11874000  1.0
  Pd  Pd28  1  0.25144000  0.25122000  0.88245000  1.0
  Pd  Pd29  1  0.74856000  0.25122000  0.88245000  1.0
  Pd  Pd30  1  0.50000000  0.75180000  0.95976000  1.0
  Pd  Pd31  1  0.00000000  0.75433000  0.95986000  1.0
  C  C32  1  0.00000000  0.98659000  0.78352000  1.0
  O  O33  1  0.00000000  0.99263000  0.74010000  1.0
