# generated using pymatgen
data_Li8Al8Co8Pd8CO
_symmetry_space_group_name_H-M   Pm
_cell_length_a   5.87254000
_cell_length_b   8.30502000
_cell_length_c   26.22880000
_cell_angle_alpha   90.00000000
_cell_angle_beta   90.00000000
_cell_angle_gamma   90.00000000
_symmetry_Int_Tables_number   6
_chemical_formula_structural   Li8Al8Co8Pd8CO
_chemical_formula_sum   'Li8 Al8 Co8 Pd8 C1 O1'
_cell_volume   1279.21954934
_cell_formula_units_Z   1
loop_
 _symmetry_equiv_pos_site_id
 _symmetry_equiv_pos_as_xyz
  1  'x, y, z'
  2  'x, -y, z'
loop_
 _atom_site_type_symbol
 _atom_site_label
 _atom_site_symmetry_multiplicity
 _atom_site_fract_x
 _atom_site_fract_y
 _atom_site_fract_z
 _atom_site_occupancy
  Li  Li0  2  0.49383000  0.24952000  0.03805000  1.0
  Li  Li1  2  0.50000000  0.24998000  0.88126000  1.0
  Li  Li2  1  -0.00000000  0.00000000  0.96042000  1.0
  Li  Li3  1  -0.00000000  0.50000000  0.96042000  1.0
  Li  Li4  1  0.98851000  0.00000000  0.13604000  1.0
  Li  Li5  1  0.99151000  0.50000000  0.13632000  1.0
  Al  Al6  2  0.00000000  0.25002000  0.88126000  1.0
  Al  Al7  2  0.00156000  0.25044000  0.03903000  1.0
  Al  Al8  1  0.49844000  0.00000000  0.11716000  1.0
  Al  Al9  1  0.50000000  0.00000000  0.96042000  1.0
  Al  Al10  1  0.50000000  0.50000000  0.96042000  1.0
  Al  Al11  1  0.50012000  0.50000000  0.11967000  1.0
  Co  Co12  2  0.73590000  0.25278000  0.11396000  1.0
  Co  Co13  2  0.75000000  0.25002000  0.96042000  1.0
  Co  Co14  1  0.24149000  0.00000000  0.04120000  1.0
  Co  Co15  1  0.24465000  0.50000000  0.04192000  1.0
  Co  Co16  1  0.25000000  0.00000000  0.88126000  1.0
  Co  Co17  1  0.25000000  0.50000000  0.88126000  1.0
  Pd  Pd18  2  0.25000000  0.25002000  0.96042000  1.0
  Pd  Pd19  2  0.25122000  0.25144000  0.11755000  1.0
  Pd  Pd20  1  0.75000000  0.00000000  0.88126000  1.0
  Pd  Pd21  1  0.75000000  0.50000000  0.88126000  1.0
  Pd  Pd22  1  0.75180000  0.50000000  0.04024000  1.0
  Pd  Pd23  1  0.75433000  0.00000000  0.04014000  1.0
  C  C24  1  0.98659000  0.00000000  0.21648000  1.0
  O  O25  1  0.99263000  0.00000000  0.25990000  1.0
