# generated using pymatgen
data_V8Sn8Rh16CO
_symmetry_space_group_name_H-M   'P 1'
_cell_length_a   8.94473000
_cell_length_b   6.32488000
_cell_length_c   26.70850000
_cell_angle_alpha   90.00000000
_cell_angle_beta   90.00000000
_cell_angle_gamma   90.00000000
_symmetry_Int_Tables_number   1
_chemical_formula_structural   V8Sn8Rh16CO
_chemical_formula_sum   'V8 Sn8 Rh16 C1 O1'
_cell_volume   1511.01586358
_cell_formula_units_Z   1
loop_
 _symmetry_equiv_pos_site_id
 _symmetry_equiv_pos_as_xyz
  1  'x, y, z'
loop_
 _atom_site_type_symbol
 _atom_site_label
 _atom_site_symmetry_multiplicity
 _atom_site_fract_x
 _atom_site_fract_y
 _atom_site_fract_z
 _atom_site_occupancy
  V  V0  1  0.00000000  0.00000000  0.12559000  1.0
  V  V1  1  0.25000000  0.50000000  0.04186000  1.0
  V  V2  1  0.75000000  0.50000000  0.04186000  1.0
  V  V3  1  0.50000000  0.00000000  0.12559000  1.0
  V  V4  1  0.50185000  0.00000000  0.95286000  1.0
  V  V5  1  0.75003000  0.50000000  0.88388000  1.0
  V  V6  1  0.24999000  0.50000000  0.88382000  1.0
  V  V7  1  0.99820000  0.00000000  0.95288000  1.0
  Sn  Sn8  1  0.75000000  0.00000000  0.04186000  1.0
  Sn  Sn9  1  0.00000000  0.50000000  0.12559000  1.0
  Sn  Sn10  1  0.25000000  0.00000000  0.04186000  1.0
  Sn  Sn11  1  0.50000000  0.50000000  0.12559000  1.0
  Sn  Sn12  1  0.25001000  0.00000000  0.86358000  1.0
  Sn  Sn13  1  0.50598000  0.50000000  0.96158000  1.0
  Sn  Sn14  1  0.75000000  0.00000000  0.85957000  1.0
  Sn  Sn15  1  0.99400000  0.50000000  0.96159000  1.0
  Rh  Rh16  1  0.00000000  0.74997000  0.04186000  1.0
  Rh  Rh17  1  0.50000000  0.24997000  0.04186000  1.0
  Rh  Rh18  1  0.00000000  0.25003000  0.04186000  1.0
  Rh  Rh19  1  0.50000000  0.75003000  0.04186000  1.0
  Rh  Rh20  1  0.75000000  0.24997000  0.12559000  1.0
  Rh  Rh21  1  0.25000000  0.74997000  0.12559000  1.0
  Rh  Rh22  1  0.75000000  0.75003000  0.12559000  1.0
  Rh  Rh23  1  0.25000000  0.25003000  0.12559000  1.0
  Rh  Rh24  1  0.49863000  0.74610000  0.88098000  1.0
  Rh  Rh25  1  0.00138000  0.25382000  0.88099000  1.0
  Rh  Rh26  1  0.49863000  0.25390000  0.88098000  1.0
  Rh  Rh27  1  0.00138000  0.74618000  0.88099000  1.0
  Rh  Rh28  1  0.24997000  0.24486000  0.95703000  1.0
  Rh  Rh29  1  0.75002000  0.77236000  0.95333000  1.0
  Rh  Rh30  1  0.24997000  0.75514000  0.95703000  1.0
  Rh  Rh31  1  0.75002000  0.22764000  0.95333000  1.0
  C  C32  1  0.24954000  0.00000000  0.72789000  1.0
  O  O33  1  0.25006000  0.00000000  0.68540000  1.0
