# generated using pymatgen
data_V8Sn8Rh16CO
_symmetry_space_group_name_H-M   Pm
_cell_length_a   8.94473000
_cell_length_b   6.32488000
_cell_length_c   26.70850000
_cell_angle_alpha   90.00000000
_cell_angle_beta   90.00000000
_cell_angle_gamma   90.00000000
_symmetry_Int_Tables_number   6
_chemical_formula_structural   V8Sn8Rh16CO
_chemical_formula_sum   'V8 Sn8 Rh16 C1 O1'
_cell_volume   1511.01586358
_cell_formula_units_Z   1
loop_
 _symmetry_equiv_pos_site_id
 _symmetry_equiv_pos_as_xyz
  1  'x, y, z'
  2  'x, -y, z'
loop_
 _atom_site_type_symbol
 _atom_site_label
 _atom_site_symmetry_multiplicity
 _atom_site_fract_x
 _atom_site_fract_y
 _atom_site_fract_z
 _atom_site_occupancy
  V  V0  1  0.00000000  0.00000000  0.87441000  1.0
  V  V1  1  0.24999000  0.50000000  0.11618000  1.0
  V  V2  1  0.25000000  0.50000000  0.95814000  1.0
  V  V3  1  0.50000000  0.00000000  0.87441000  1.0
  V  V4  1  0.50185000  0.00000000  0.04714000  1.0
  V  V5  1  0.75000000  0.50000000  0.95814000  1.0
  V  V6  1  0.75003000  0.50000000  0.11612000  1.0
  V  V7  1  0.99820000  0.00000000  0.04712000  1.0
  Sn  Sn8  1  0.00000000  0.50000000  0.87441000  1.0
  Sn  Sn9  1  0.25000000  0.00000000  0.95814000  1.0
  Sn  Sn10  1  0.25001000  0.00000000  0.13642000  1.0
  Sn  Sn11  1  0.50000000  0.50000000  0.87441000  1.0
  Sn  Sn12  1  0.50598000  0.50000000  0.03842000  1.0
  Sn  Sn13  1  0.75000000  0.00000000  0.14043000  1.0
  Sn  Sn14  1  0.75000000  0.00000000  0.95814000  1.0
  Sn  Sn15  1  0.99400000  0.50000000  0.03841000  1.0
  Rh  Rh16  2  0.00000000  0.25003000  0.95814000  1.0
  Rh  Rh17  2  0.00138000  0.25382000  0.11901000  1.0
  Rh  Rh18  2  0.24997000  0.24486000  0.04297000  1.0
  Rh  Rh19  2  0.25000000  0.25003000  0.87441000  1.0
  Rh  Rh20  2  0.49863000  0.25390000  0.11902000  1.0
  Rh  Rh21  2  0.50000000  0.24997000  0.95814000  1.0
  Rh  Rh22  2  0.75000000  0.24997000  0.87441000  1.0
  Rh  Rh23  2  0.75002000  0.22764000  0.04667000  1.0
  C  C24  1  0.24954000  0.00000000  0.27211000  1.0
  O  O25  1  0.25006000  0.00000000  0.31460000  1.0
