# generated using pymatgen
data_Li8Sc8In8Ga8CO
_symmetry_space_group_name_H-M   'P 1'
_cell_length_a   8.23116000
_cell_length_b   8.37318000
_cell_length_c   26.65040000
_cell_angle_alpha   90.00000000
_cell_angle_beta   90.00000000
_cell_angle_gamma   90.00000000
_symmetry_Int_Tables_number   1
_chemical_formula_structural   Li8Sc8In8Ga8CO
_chemical_formula_sum   'Li8 Sc8 In8 Ga8 C1 O1'
_cell_volume   1836.77179969
_cell_formula_units_Z   1
loop_
 _symmetry_equiv_pos_site_id
 _symmetry_equiv_pos_as_xyz
  1  'x, y, z'
loop_
 _atom_site_type_symbol
 _atom_site_label
 _atom_site_symmetry_multiplicity
 _atom_site_fract_x
 _atom_site_fract_y
 _atom_site_fract_z
 _atom_site_occupancy
  Li  Li0  1  1.00000000  0.25000000  0.95841000  1.0
  Li  Li1  1  0.99980000  0.25085000  0.14539000  1.0
  Li  Li2  1  1.00000000  0.75000000  0.95841000  1.0
  Li  Li3  1  0.99979000  0.74914000  0.14540000  1.0
  Li  Li4  1  0.50000000  0.25000000  0.95841000  1.0
  Li  Li5  1  0.50027000  0.25089000  0.14540000  1.0
  Li  Li6  1  0.50000000  0.75000000  0.95841000  1.0
  Li  Li7  1  0.50028000  0.74910000  0.14541000  1.0
  Sc  Sc8  1  0.25000000  0.25000000  0.87523000  1.0
  Sc  Sc9  1  0.25001000  0.25076000  0.04611000  1.0
  Sc  Sc10  1  0.25000000  0.75000000  0.87523000  1.0
  Sc  Sc11  1  0.25003000  0.74922000  0.04611000  1.0
  Sc  Sc12  1  0.75000000  0.25000000  0.87523000  1.0
  Sc  Sc13  1  0.75001000  0.24953000  0.04566000  1.0
  Sc  Sc14  1  0.75000000  0.75000000  0.87523000  1.0
  Sc  Sc15  1  0.75001000  0.75048000  0.04566000  1.0
  In  In16  1  0.25000000  0.00000000  0.95841000  1.0
  In  In17  1  0.25008000  0.99998000  0.13074000  1.0
  In  In18  1  0.25000000  0.50000000  0.95841000  1.0
  In  In19  1  0.25002000  0.49999000  0.13162000  1.0
  In  In20  1  0.75000000  0.00000000  0.95841000  1.0
  In  In21  1  0.74998000  0.99999000  0.13149000  1.0
  In  In22  1  0.75000000  0.50000000  0.95841000  1.0
  In  In23  1  0.74998000  0.50002000  0.13162000  1.0
  Ga  Ga24  1  0.00000000  0.00000000  0.87523000  1.0
  Ga  Ga25  1  0.99978000  0.00001000  0.04464000  1.0
  Ga  Ga26  1  0.00000000  0.50000000  0.87523000  1.0
  Ga  Ga27  1  0.99922000  0.50000000  0.04472000  1.0
  Ga  Ga28  1  0.50000000  0.00000000  0.87523000  1.0
  Ga  Ga29  1  0.50027000  0.99999000  0.04463000  1.0
  Ga  Ga30  1  0.50000000  0.50000000  0.87523000  1.0
  Ga  Ga31  1  0.50083000  0.49999000  0.04472000  1.0
  C  C32  1  0.24898000  0.00033000  0.28940000  1.0
  O  O33  1  0.25017000  0.99993000  0.33202000  1.0
