# generated using pymatgen
data_Li8Ge8Pd8Au8CO
_symmetry_space_group_name_H-M   'P 1'
_cell_length_a   8.92356000
_cell_length_b   6.30991000
_cell_length_c   26.69270000
_cell_angle_alpha   90.00000000
_cell_angle_beta   90.00000000
_cell_angle_gamma   90.00000000
_symmetry_Int_Tables_number   1
_chemical_formula_structural   Li8Ge8Pd8Au8CO
_chemical_formula_sum   'Li8 Ge8 Pd8 Au8 C1 O1'
_cell_volume   1502.98213472
_cell_formula_units_Z   1
loop_
 _symmetry_equiv_pos_site_id
 _symmetry_equiv_pos_as_xyz
  1  'x, y, z'
loop_
 _atom_site_type_symbol
 _atom_site_label
 _atom_site_symmetry_multiplicity
 _atom_site_fract_x
 _atom_site_fract_y
 _atom_site_fract_z
 _atom_site_occupancy
  Li  Li0  1  0.75001000  0.25000000  0.04179000  1.0
  Li  Li1  1  0.24999000  0.25000000  0.04179000  1.0
  Li  Li2  1  0.00000000  0.75000000  0.12537000  1.0
  Li  Li3  1  0.50000000  0.75000000  0.12537000  1.0
  Li  Li4  1  0.25485000  0.23478000  0.86423000  1.0
  Li  Li5  1  0.74515000  0.23478000  0.86423000  1.0
  Li  Li6  1  0.50000000  0.73969000  0.96155000  1.0
  Li  Li7  1  0.00000000  0.73729000  0.95936000  1.0
  Ge  Ge8  1  0.75001000  0.75000000  0.04179000  1.0
  Ge  Ge9  1  0.24999000  0.75000000  0.04179000  1.0
  Ge  Ge10  1  0.00000000  0.25000000  0.12537000  1.0
  Ge  Ge11  1  0.50000000  0.25000000  0.12537000  1.0
  Ge  Ge12  1  0.25303000  0.77225000  0.87012000  1.0
  Ge  Ge13  1  0.74697000  0.77225000  0.87012000  1.0
  Ge  Ge14  1  0.50000000  0.25874000  0.95786000  1.0
  Ge  Ge15  1  0.00000000  0.25550000  0.95725000  1.0
  Pd  Pd16  1  0.00000000  0.00000000  0.04179000  1.0
  Pd  Pd17  1  0.50000000  0.00000000  0.04179000  1.0
  Pd  Pd18  1  0.25001000  0.50000000  0.12537000  1.0
  Pd  Pd19  1  0.74999000  0.50000000  0.12537000  1.0
  Pd  Pd20  1  0.50000000  0.98831000  0.88415000  1.0
  Pd  Pd21  1  0.00000000  0.97995000  0.88375000  1.0
  Pd  Pd22  1  0.75820000  0.48799000  0.94514000  1.0
  Pd  Pd23  1  0.24180000  0.48799000  0.94514000  1.0
  Au  Au24  1  0.75001000  0.00000000  0.12537000  1.0
  Au  Au25  1  0.24999000  0.00000000  0.12537000  1.0
  Au  Au26  1  0.50000000  0.50000000  0.04179000  1.0
  Au  Au27  1  0.00000000  0.50000000  0.04179000  1.0
  Au  Au28  1  0.25000000  0.99782000  0.95773000  1.0
  Au  Au29  1  0.75000000  0.99782000  0.95773000  1.0
  Au  Au30  1  0.00000000  0.51247000  0.86802000  1.0
  Au  Au31  1  0.50000000  0.52214000  0.87536000  1.0
  C  C32  1  0.00000000  0.44645000  0.79061000  1.0
  O  O33  1  0.00000000  0.50322000  0.74966000  1.0
