# generated using pymatgen
data_Li8Ge8Pd8Au8CO
_symmetry_space_group_name_H-M   Pm
_cell_length_a   6.30991000
_cell_length_b   8.92356000
_cell_length_c   26.69270000
_cell_angle_alpha   90.00000000
_cell_angle_beta   90.00000000
_cell_angle_gamma   90.00000000
_symmetry_Int_Tables_number   6
_chemical_formula_structural   Li8Ge8Pd8Au8CO
_chemical_formula_sum   'Li8 Ge8 Pd8 Au8 C1 O1'
_cell_volume   1502.98213472
_cell_formula_units_Z   1
loop_
 _symmetry_equiv_pos_site_id
 _symmetry_equiv_pos_as_xyz
  1  'x, y, z'
  2  'x, -y, z'
loop_
 _atom_site_type_symbol
 _atom_site_label
 _atom_site_symmetry_multiplicity
 _atom_site_fract_x
 _atom_site_fract_y
 _atom_site_fract_z
 _atom_site_occupancy
  Li  Li0  2  0.23478000  0.25485000  0.13577000  1.0
  Li  Li1  2  0.25000000  0.24999000  0.95821000  1.0
  Li  Li2  1  0.73729000  0.00000000  0.04064000  1.0
  Li  Li3  1  0.73969000  0.50000000  0.03845000  1.0
  Li  Li4  1  0.75000000  0.00000000  0.87463000  1.0
  Li  Li5  1  0.75000000  0.50000000  0.87463000  1.0
  Ge  Ge6  2  0.75000000  0.24999000  0.95821000  1.0
  Ge  Ge7  2  0.77225000  0.25303000  0.12988000  1.0
  Ge  Ge8  1  0.25000000  0.00000000  0.87463000  1.0
  Ge  Ge9  1  0.25000000  0.50000000  0.87463000  1.0
  Ge  Ge10  1  0.25550000  0.00000000  0.04275000  1.0
  Ge  Ge11  1  0.25874000  0.50000000  0.04214000  1.0
  Pd  Pd12  2  0.48799000  0.24180000  0.05486000  1.0
  Pd  Pd13  2  0.50000000  0.25001000  0.87463000  1.0
  Pd  Pd14  1  0.00000000  0.00000000  0.95821000  1.0
  Pd  Pd15  1  0.00000000  0.50000000  0.95821000  1.0
  Pd  Pd16  1  0.97995000  0.00000000  0.11625000  1.0
  Pd  Pd17  1  0.98831000  0.50000000  0.11585000  1.0
  Au  Au18  2  0.00000000  0.24999000  0.87463000  1.0
  Au  Au19  2  0.99782000  0.25000000  0.04227000  1.0
  Au  Au20  1  0.50000000  0.00000000  0.95821000  1.0
  Au  Au21  1  0.50000000  0.50000000  0.95821000  1.0
  Au  Au22  1  0.51247000  0.00000000  0.13198000  1.0
  Au  Au23  1  0.52214000  0.50000000  0.12464000  1.0
  C  C24  1  0.44645000  0.00000000  0.20939000  1.0
  O  O25  1  0.50322000  0.00000000  0.25034000  1.0
