# generated using pymatgen
data_Nb16Ir16CO
_symmetry_space_group_name_H-M   Pmm2
_cell_length_a   7.77966000
_cell_length_b   8.17085000
_cell_length_c   26.12810000
_cell_angle_alpha   90.00000000
_cell_angle_beta   90.00000000
_cell_angle_gamma   90.00000000
_symmetry_Int_Tables_number   25
_chemical_formula_structural   Nb16Ir16CO
_chemical_formula_sum   'Nb16 Ir16 C1 O1'
_cell_volume   1660.87016800
_cell_formula_units_Z   1
loop_
 _symmetry_equiv_pos_site_id
 _symmetry_equiv_pos_as_xyz
  1  'x, y, z'
  2  '-x, -y, z'
  3  '-x, y, z'
  4  'x, -y, z'
loop_
 _atom_site_type_symbol
 _atom_site_label
 _atom_site_symmetry_multiplicity
 _atom_site_fract_x
 _atom_site_fract_y
 _atom_site_fract_z
 _atom_site_occupancy
  Nb  Nb0  2  0.00000000  0.25000000  0.11727000  1.0
  Nb  Nb1  2  0.00000000  0.25000000  0.96091000  1.0
  Nb  Nb2  2  0.50000000  0.25000000  0.11727000  1.0
  Nb  Nb3  2  0.50000000  0.25000000  0.96091000  1.0
  Nb  Nb4  1  0.00000000  0.00000000  0.03909000  1.0
  Nb  Nb5  1  0.00000000  0.00000000  0.88273000  1.0
  Nb  Nb6  1  0.00000000  0.50000000  0.03909000  1.0
  Nb  Nb7  1  0.00000000  0.50000000  0.88273000  1.0
  Nb  Nb8  1  0.50000000  0.00000000  0.03909000  1.0
  Nb  Nb9  1  0.50000000  0.00000000  0.88273000  1.0
  Nb  Nb10  1  0.50000000  0.50000000  0.03909000  1.0
  Nb  Nb11  1  0.50000000  0.50000000  0.88273000  1.0
  Ir  Ir12  4  0.25000000  0.25000000  0.03909000  1.0
  Ir  Ir13  4  0.25000000  0.25000000  0.88273000  1.0
  Ir  Ir14  2  0.25000000  0.00000000  0.11727000  1.0
  Ir  Ir15  2  0.25000000  0.00000000  0.96091000  1.0
  Ir  Ir16  2  0.25000000  0.50000000  0.11727000  1.0
  Ir  Ir17  2  0.25000000  0.50000000  0.96091000  1.0
  C  C18  1  0.00000000  0.00000000  0.81001000  1.0
  O  O19  1  0.00000000  0.00000000  0.76600000  1.0
