# generated using pymatgen
data_Li4Al4Ag4Sn4C
_symmetry_space_group_name_H-M   'P 1'
_cell_length_a   8.56020000
_cell_length_b   5.95223000
_cell_length_c   24.45610000
_cell_angle_alpha   90.00000000
_cell_angle_beta   90.00000000
_cell_angle_gamma   90.00000000
_symmetry_Int_Tables_number   1
_chemical_formula_structural   Li4Al4Ag4Sn4C
_chemical_formula_sum   'Li4 Al4 Ag4 Sn4 C1'
_cell_volume   1246.09403647
_cell_formula_units_Z   1
loop_
 _symmetry_equiv_pos_site_id
 _symmetry_equiv_pos_as_xyz
  1  'x, y, z'
loop_
 _atom_site_type_symbol
 _atom_site_label
 _atom_site_symmetry_multiplicity
 _atom_site_fract_x
 _atom_site_fract_y
 _atom_site_fract_z
 _atom_site_occupancy
  Li  Li0  1  0.25000000  0.23498000  0.03037000  1.0
  Li  Li1  1  0.16727000  0.71920000  0.89568000  1.0
  Li  Li2  1  0.75000000  0.23498000  0.03037000  1.0
  Li  Li3  1  0.83273000  0.71920000  0.89568000  1.0
  Al  Al4  1  0.00000000  0.50000000  0.09110000  1.0
  Al  Al5  1  0.00000000  0.98175000  0.97629000  1.0
  Al  Al6  1  0.50000000  0.50000000  0.09110000  1.0
  Al  Al7  1  0.50000000  0.96749000  0.96647000  1.0
  Ag  Ag8  1  0.00000000  0.00000000  0.09110000  1.0
  Ag  Ag9  1  0.00000000  0.44978000  0.97528000  1.0
  Ag  Ag10  1  0.50000000  0.00000000  0.09110000  1.0
  Ag  Ag11  1  0.50000000  0.43015000  0.97255000  1.0
  Sn  Sn12  1  0.25000000  0.73498000  0.03037000  1.0
  Sn  Sn13  1  0.19089000  0.22669000  0.88889000  1.0
  Sn  Sn14  1  0.75000000  0.73498000  0.03037000  1.0
  Sn  Sn15  1  0.80911000  0.22669000  0.88889000  1.0
  C  C16  1  0.00000000  0.96425000  0.89498000  1.0
