# generated using pymatgen
data_Li4Y4Sn4Pb4CO
_symmetry_space_group_name_H-M   P1
_cell_length_a   6.45119000
_cell_length_b   9.64462000
_cell_length_c   24.83120000
_cell_angle_alpha   90.00000000
_cell_angle_beta   90.00000000
_cell_angle_gamma   90.00000000
_symmetry_Int_Tables_number   1
_chemical_formula_structural   Li4Y4Sn4Pb4CO
_chemical_formula_sum   'Li4 Y4 Sn4 Pb4 C1 O1'
_cell_volume   1544.97928864
_cell_formula_units_Z   1
loop_
 _symmetry_equiv_pos_site_id
 _symmetry_equiv_pos_as_xyz
  1  'x, y, z'
loop_
 _atom_site_type_symbol
 _atom_site_label
 _atom_site_symmetry_multiplicity
 _atom_site_fract_x
 _atom_site_fract_y
 _atom_site_fract_z
 _atom_site_occupancy
  Li  Li0  1  0.00000000  0.00000000  0.90272000  1.0
  Li  Li1  1  0.00000000  0.50000000  0.90272000  1.0
  Li  Li2  1  0.44273000  0.50204000  0.02898000  1.0
  Li  Li3  1  0.44371000  0.99795000  0.02912000  1.0
  Y  Y4  1  0.15786000  0.74949000  0.09778000  1.0
  Y  Y5  1  0.18961000  0.25154000  0.10662000  1.0
  Y  Y6  1  0.73640000  0.25000000  0.96757000  1.0
  Y  Y7  1  0.73640000  0.75000000  0.96757000  1.0
  Sn  Sn8  1  0.23640000  0.25000000  0.96757000  1.0
  Sn  Sn9  1  0.23640000  0.75000000  0.96757000  1.0
  Sn  Sn10  1  0.66858000  0.74973000  0.10926000  1.0
  Sn  Sn11  1  0.68625000  0.25051000  0.11093000  1.0
  Pb  Pb12  1  0.50000000  0.00000000  0.90272000  1.0
  Pb  Pb13  1  0.50000000  0.50000000  0.90272000  1.0
  Pb  Pb14  1  0.92321000  0.49839000  0.05049000  1.0
  Pb  Pb15  1  0.92628000  0.00235000  0.05084000  1.0
  C  C16  1  0.30942000  0.25000000  0.20433000  1.0
  O  O17  1  0.38552000  0.24979000  0.24592000  1.0
