# generated using pymatgen
data_BePd
_symmetry_space_group_name_H-M   Pmm2
_cell_length_a   2.85099500
_cell_length_b   4.03191500
_cell_length_c   26.04790000
_cell_angle_alpha   90.00000000
_cell_angle_beta   90.00000000
_cell_angle_gamma   90.00000000
_symmetry_Int_Tables_number   25
_chemical_formula_structural   BePd
_chemical_formula_sum   'Be4 Pd4'
_cell_volume   299.41981618
_cell_formula_units_Z   4
loop_
 _symmetry_equiv_pos_site_id
 _symmetry_equiv_pos_as_xyz
  1  'x, y, z'
  2  '-x, -y, z'
  3  '-x, y, z'
  4  'x, -y, z'
loop_
 _atom_site_type_symbol
 _atom_site_label
 _atom_site_symmetry_multiplicity
 _atom_site_fract_x
 _atom_site_fract_y
 _atom_site_fract_z
 _atom_site_occupancy
  Be  Be0  1  0.00000000  0.00000000  0.04102000  1.0
  Be  Be1  1  0.00000000  0.00000000  0.88391000  1.0
  Be  Be2  1  0.00000000  0.50000000  0.11335000  1.0
  Be  Be3  1  0.00000000  0.50000000  0.96130000  1.0
  Pd  Pd4  1  0.50000000  0.00000000  0.11526000  1.0
  Pd  Pd5  1  0.50000000  0.00000000  0.96130000  1.0
  Pd  Pd6  1  0.50000000  0.50000000  0.03759000  1.0
  Pd  Pd7  1  0.50000000  0.50000000  0.88391000  1.0
