# generated using pymatgen
data_Li24Pb8CO
_symmetry_space_group_name_H-M   Pm
_cell_length_a   6.73051000
_cell_length_b   9.51837000
_cell_length_c   27.13880000
_cell_angle_alpha   90.00000000
_cell_angle_beta   90.00000000
_cell_angle_gamma   90.00000000
_symmetry_Int_Tables_number   6
_chemical_formula_structural   Li24Pb8CO
_chemical_formula_sum   'Li24 Pb8 C1 O1'
_cell_volume   1738.60609230
_cell_formula_units_Z   1
loop_
 _symmetry_equiv_pos_site_id
 _symmetry_equiv_pos_as_xyz
  1  'x, y, z'
  2  'x, -y, z'
loop_
 _atom_site_type_symbol
 _atom_site_label
 _atom_site_symmetry_multiplicity
 _atom_site_fract_x
 _atom_site_fract_y
 _atom_site_fract_z
 _atom_site_occupancy
  Li  Li0  2  0.00000000  0.25000000  0.95616000  1.0
  Li  Li1  2  0.00042000  0.24963000  0.12339000  1.0
  Li  Li2  2  0.25000000  0.25000000  0.86848000  1.0
  Li  Li3  2  0.25524000  0.24950000  0.04314000  1.0
  Li  Li4  2  0.74847000  0.24990000  0.04145000  1.0
  Li  Li5  2  0.75000000  0.25000000  0.86848000  1.0
  Li  Li6  1  0.25000000  0.00000000  0.95616000  1.0
  Li  Li7  1  0.25000000  0.50000000  0.95616000  1.0
  Li  Li8  1  0.26829000  0.00000000  0.13443000  1.0
  Li  Li9  1  0.27645000  0.50000000  0.13504000  1.0
  Li  Li10  1  0.50000000  0.00000000  0.86848000  1.0
  Li  Li11  1  0.50000000  0.50000000  0.86848000  1.0
  Li  Li12  1  0.50149000  0.00000000  0.04550000  1.0
  Li  Li13  1  0.50253000  0.50000000  0.04491000  1.0
  Li  Li14  1  0.73364000  0.00000000  0.13616000  1.0
  Li  Li15  1  0.73444000  0.50000000  0.13853000  1.0
  Li  Li16  1  0.75000000  0.00000000  0.95616000  1.0
  Li  Li17  1  0.75000000  0.50000000  0.95616000  1.0
  Pb  Pb18  2  0.50000000  0.25000000  0.95616000  1.0
  Pb  Pb19  2  0.51009000  0.24997000  0.12995000  1.0
  Pb  Pb20  1  0.00000000  0.00000000  0.86848000  1.0
  Pb  Pb21  1  0.00000000  0.50000000  0.86848000  1.0
  Pb  Pb22  1  0.99715000  0.00000000  0.04868000  1.0
  Pb  Pb23  1  0.99888000  0.50000000  0.05027000  1.0
  C  C24  1  0.22663000  0.00000000  0.20910000  1.0
  O  O25  1  0.22420000  0.00000000  0.25134000  1.0
