# generated using pymatgen
data_Li8Y8In8Pd8C
_symmetry_space_group_name_H-M   'P 1'
_cell_length_a   9.63982000
_cell_length_b   6.81638000
_cell_length_c   27.22990000
_cell_angle_alpha   90.00000000
_cell_angle_beta   90.00000000
_cell_angle_gamma   90.00000000
_symmetry_Int_Tables_number   1
_chemical_formula_structural   Li8Y8In8Pd8C
_chemical_formula_sum   'Li8 Y8 In8 Pd8 C1'
_cell_volume   1789.24068346
_cell_formula_units_Z   1
loop_
 _symmetry_equiv_pos_site_id
 _symmetry_equiv_pos_as_xyz
  1  'x, y, z'
loop_
 _atom_site_type_symbol
 _atom_site_label
 _atom_site_symmetry_multiplicity
 _atom_site_fract_x
 _atom_site_fract_y
 _atom_site_fract_z
 _atom_site_occupancy
  Li  Li0  1  0.00000000  0.75000000  0.04425000  1.0
  Li  Li1  1  0.50000000  0.75000000  0.04425000  1.0
  Li  Li2  1  0.25000000  0.25000000  0.13276000  1.0
  Li  Li3  1  0.75000000  0.25000000  0.13276000  1.0
  Li  Li4  1  0.50000000  0.54180000  0.81084000  1.0
  Li  Li5  1  0.00000000  0.72101000  0.83088000  1.0
  Li  Li6  1  0.74727000  0.25334000  0.95449000  1.0
  Li  Li7  1  0.25273000  0.25334000  0.95449000  1.0
  Y  Y8  1  0.25000000  0.00000000  0.04425000  1.0
  Y  Y9  1  0.75000000  0.00000000  0.04425000  1.0
  Y  Y10  1  0.50000000  0.50000000  0.13276000  1.0
  Y  Y11  1  0.00000000  0.50000000  0.13276000  1.0
  Y  Y12  1  0.73022000  0.95573000  0.86986000  1.0
  Y  Y13  1  0.26978000  0.95573000  0.86986000  1.0
  Y  Y14  1  0.00000000  0.51369000  0.94846000  1.0
  Y  Y15  1  0.50000000  0.51679000  0.94721000  1.0
  In  In16  1  0.00000000  0.00000000  0.13276000  1.0
  In  In17  1  0.50000000  0.00000000  0.13276000  1.0
  In  In18  1  0.75000000  0.50000000  0.04425000  1.0
  In  In19  1  0.25000000  0.50000000  0.04425000  1.0
  In  In20  1  0.50000000  0.00606000  0.95900000  1.0
  In  In21  1  0.00000000  0.99321000  0.95637000  1.0
  In  In22  1  0.24257000  0.47890000  0.86045000  1.0
  In  In23  1  0.75743000  0.47890000  0.86045000  1.0
  Pd  Pd24  1  0.00000000  0.25000000  0.04425000  1.0
  Pd  Pd25  1  0.50000000  0.25000000  0.04425000  1.0
  Pd  Pd26  1  0.25000000  0.75000000  0.13276000  1.0
  Pd  Pd27  1  0.75000000  0.75000000  0.13276000  1.0
  Pd  Pd28  1  0.50000000  0.23564000  0.87167000  1.0
  Pd  Pd29  1  0.00000000  0.15374000  0.86473000  1.0
  Pd  Pd30  1  0.74813000  0.74886000  0.95863000  1.0
  Pd  Pd31  1  0.25187000  0.74886000  0.95863000  1.0
  C  C32  1  0.00000000  0.44525000  0.86332000  1.0
