# generated using pymatgen
data_Cr4Ir12CO
_symmetry_space_group_name_H-M   Pmm2
_cell_length_a   5.40730000
_cell_length_b   7.64708000
_cell_length_c   24.05550000
_cell_angle_alpha   90.00000000
_cell_angle_beta   90.00000000
_cell_angle_gamma   90.00000000
_symmetry_Int_Tables_number   25
_chemical_formula_structural   Cr4Ir12CO
_chemical_formula_sum   'Cr4 Ir12 C1 O1'
_cell_volume   994.69626451
_cell_formula_units_Z   1
loop_
 _symmetry_equiv_pos_site_id
 _symmetry_equiv_pos_as_xyz
  1  'x, y, z'
  2  '-x, -y, z'
  3  '-x, y, z'
  4  'x, -y, z'
loop_
 _atom_site_type_symbol
 _atom_site_label
 _atom_site_symmetry_multiplicity
 _atom_site_fract_x
 _atom_site_fract_y
 _atom_site_fract_z
 _atom_site_occupancy
  Cr  Cr0  1  0.00000000  0.00000000  0.91571000  1.0
  Cr  Cr1  1  0.00000000  0.50000000  0.91571000  1.0
  Cr  Cr2  1  0.50000000  0.00000000  0.02810000  1.0
  Cr  Cr3  1  0.50000000  0.50000000  0.02810000  1.0
  Ir  Ir4  4  0.25000000  0.25000000  0.97190000  1.0
  Ir  Ir5  4  0.25000000  0.25000000  0.08429000  1.0
  Ir  Ir6  1  0.00000000  0.00000000  0.02810000  1.0
  Ir  Ir7  1  0.00000000  0.50000000  0.02810000  1.0
  Ir  Ir8  1  0.50000000  0.00000000  0.91571000  1.0
  Ir  Ir9  1  0.50000000  0.50000000  0.91571000  1.0
  C  C10  1  0.50000000  0.00000000  0.83672000  1.0
  O  O11  1  0.50000000  0.00000000  0.78892000  1.0
