# generated using pymatgen
data_Li4Y4Sn4Pb4CO
_symmetry_space_group_name_H-M   'P 1'
_cell_length_a   8.87168000
_cell_length_b   6.72279000
_cell_length_c   25.04000000
_cell_angle_alpha   90.00000000
_cell_angle_beta   90.00000000
_cell_angle_gamma   90.00000000
_symmetry_Int_Tables_number   1
_chemical_formula_structural   Li4Y4Sn4Pb4CO
_chemical_formula_sum   'Li4 Y4 Sn4 Pb4 C1 O1'
_cell_volume   1493.44673734
_cell_formula_units_Z   1
loop_
 _symmetry_equiv_pos_site_id
 _symmetry_equiv_pos_as_xyz
  1  'x, y, z'
loop_
 _atom_site_type_symbol
 _atom_site_label
 _atom_site_symmetry_multiplicity
 _atom_site_fract_x
 _atom_site_fract_y
 _atom_site_fract_z
 _atom_site_occupancy
  Li  Li0  1  0.75002000  0.00000000  0.89936000  1.0
  Li  Li1  1  0.75019000  0.52244000  0.04166000  1.0
  Li  Li2  1  0.24998000  0.00000000  0.89936000  1.0
  Li  Li3  1  0.24981000  0.52244000  0.04166000  1.0
  Y  Y4  1  0.75002000  0.50000000  0.89936000  1.0
  Y  Y5  1  0.75030000  0.01768000  0.03277000  1.0
  Y  Y6  1  0.24998000  0.50000000  0.89936000  1.0
  Y  Y7  1  0.24970000  0.01768000  0.03277000  1.0
  Sn  Sn8  1  0.50000000  0.25727000  0.96645000  1.0
  Sn  Sn9  1  0.50000000  0.75432000  0.09205000  1.0
  Sn  Sn10  1  0.00000000  0.25727000  0.96645000  1.0
  Sn  Sn11  1  0.00000000  0.75527000  0.09270000  1.0
  Pb  Pb12  1  0.50000000  0.75727000  0.96645000  1.0
  Pb  Pb13  1  0.50000000  0.28551000  0.09878000  1.0
  Pb  Pb14  1  0.00000000  0.75727000  0.96645000  1.0
  Pb  Pb15  1  0.00000000  0.28618000  0.09939000  1.0
  C  C16  1  0.50000000  0.85475000  0.24187000  1.0
  O  O17  1  0.50000000  0.73269000  0.27327000  1.0
