# generated using pymatgen
data_Li4Y4Sn4Pb4CO
_symmetry_space_group_name_H-M   Pm
_cell_length_a   6.72279000
_cell_length_b   8.87168000
_cell_length_c   25.04000000
_cell_angle_alpha   90.00000000
_cell_angle_beta   90.00000000
_cell_angle_gamma   90.00000000
_symmetry_Int_Tables_number   6
_chemical_formula_structural   Li4Y4Sn4Pb4CO
_chemical_formula_sum   'Li4 Y4 Sn4 Pb4 C1 O1'
_cell_volume   1493.44673734
_cell_formula_units_Z   1
loop_
 _symmetry_equiv_pos_site_id
 _symmetry_equiv_pos_as_xyz
  1  'x, y, z'
  2  'x, -y, z'
loop_
 _atom_site_type_symbol
 _atom_site_label
 _atom_site_symmetry_multiplicity
 _atom_site_fract_x
 _atom_site_fract_y
 _atom_site_fract_z
 _atom_site_occupancy
  Li  Li0  2  0.00000000  0.24998000  0.10064000  1.0
  Li  Li1  2  0.52244000  0.24981000  0.95834000  1.0
  Y  Y2  2  0.01768000  0.24970000  0.96723000  1.0
  Y  Y3  2  0.50000000  0.24998000  0.10064000  1.0
  Sn  Sn4  1  0.25727000  0.00000000  0.03355000  1.0
  Sn  Sn5  1  0.25727000  0.50000000  0.03355000  1.0
  Sn  Sn6  1  0.75432000  0.50000000  0.90795000  1.0
  Sn  Sn7  1  0.75527000  0.00000000  0.90730000  1.0
  Pb  Pb8  1  0.28551000  0.50000000  0.90122000  1.0
  Pb  Pb9  1  0.28618000  0.00000000  0.90061000  1.0
  Pb  Pb10  1  0.75727000  0.00000000  0.03355000  1.0
  Pb  Pb11  1  0.75727000  0.50000000  0.03355000  1.0
  C  C12  1  0.85475000  0.50000000  0.75813000  1.0
  O  O13  1  0.73269000  0.50000000  0.72673000  1.0
