data_image0
_chemical_formula_structural       Li8Zr8Ge8Pd8
_chemical_formula_sum              "Li8 Zr8 Ge8 Pd8"
_cell_length_a       6.4788
_cell_length_b       9.1624
_cell_length_c       26.8718
_cell_angle_alpha    90
_cell_angle_beta     90
_cell_angle_gamma    90

_space_group_name_H-M_alt    "P 1"
_space_group_IT_number       1

loop_
  _space_group_symop_operation_xyz
  'x, y, z'

loop_
  _atom_site_type_symbol
  _atom_site_label
  _atom_site_symmetry_multiplicity
  _atom_site_fract_x
  _atom_site_fract_y
  _atom_site_fract_z
  _atom_site_occupancy
  Li  Li1       1.0  0.25000  0.00000  0.95738  1.0000
  Li  Li2       1.0  0.25000  0.50000  0.95738  1.0000
  Li  Li3       1.0  0.75000  0.25000  0.87214  1.0000
  Li  Li4       1.0  0.75000  0.75000  0.87214  1.0000
  Li  Li5       1.0  0.23751  0.49999  0.13716  1.0000
  Li  Li6       1.0  0.23752  0.00001  0.13716  1.0000
  Li  Li7       1.0  0.74448  0.75000  0.04072  1.0000
  Li  Li8       1.0  0.74447  0.25000  0.04072  1.0000
  Zr  Zr1       1.0  0.75000  0.00000  0.95738  1.0000
  Zr  Zr2       1.0  0.75000  0.50000  0.95738  1.0000
  Zr  Zr3       1.0  0.25000  0.25000  0.87214  1.0000
  Zr  Zr4       1.0  0.25000  0.75000  0.87214  1.0000
  Zr  Zr5       1.0  0.71626  0.50002  0.12266  1.0000
  Zr  Zr6       1.0  0.71628  0.99998  0.12266  1.0000
  Zr  Zr7       1.0  0.25283  0.75000  0.04786  1.0000
  Zr  Zr8       1.0  0.25282  0.25000  0.04786  1.0000
  Ge  Ge1       1.0  0.00000  0.00000  0.87214  1.0000
  Ge  Ge2       1.0  0.00000  0.50000  0.87214  1.0000
  Ge  Ge3       1.0  0.50000  0.75000  0.95738  1.0000
  Ge  Ge4       1.0  0.50000  0.25000  0.95738  1.0000
  Ge  Ge5       1.0  0.99969  0.50000  0.04581  1.0000
  Ge  Ge6       1.0  0.99970  0.00001  0.04581  1.0000
  Ge  Ge7       1.0  0.48868  0.24999  0.13751  1.0000
  Ge  Ge8       1.0  0.48861  0.75000  0.13752  1.0000
  Pd  Pd1       1.0  0.00000  0.25000  0.95738  1.0000
  Pd  Pd2       1.0  0.00000  0.75000  0.95738  1.0000
  Pd  Pd3       1.0  0.50000  0.50000  0.87214  1.0000
  Pd  Pd4       1.0  0.50000  0.00000  0.87214  1.0000
  Pd  Pd5       1.0  0.96169  0.74999  0.12189  1.0000
  Pd  Pd6       1.0  0.96163  0.25000  0.12188  1.0000
  Pd  Pd7       1.0  0.48666  0.00000  0.03787  1.0000
  Pd  Pd8       1.0  0.48667  0.49999  0.03787  1.0000
