# generated using pymatgen
data_Li8Al8Ni8Pd8C
_symmetry_space_group_name_H-M   'P 1'
_cell_length_a   5.91240000
_cell_length_b   8.36140000
_cell_length_c   26.27110000
_cell_angle_alpha   90.00000000
_cell_angle_beta   90.00000000
_cell_angle_gamma   90.00000000
_symmetry_Int_Tables_number   1
_chemical_formula_structural   Li8Al8Ni8Pd8C
_chemical_formula_sum   'Li8 Al8 Ni8 Pd8 C1'
_cell_volume   1298.73655906
_cell_formula_units_Z   1
loop_
 _symmetry_equiv_pos_site_id
 _symmetry_equiv_pos_as_xyz
  1  'x, y, z'
loop_
 _atom_site_type_symbol
 _atom_site_label
 _atom_site_symmetry_multiplicity
 _atom_site_fract_x
 _atom_site_fract_y
 _atom_site_fract_z
 _atom_site_occupancy
  Li  Li0  1  0.00000000  0.25000000  0.96022000  1.0
  Li  Li1  1  0.00000000  0.75000000  0.96022000  1.0
  Li  Li2  1  0.50000000  0.50000000  0.88065000  1.0
  Li  Li3  1  0.50000000  0.00000000  0.88065000  1.0
  Li  Li4  1  0.01888000  0.74998000  0.13391000  1.0
  Li  Li5  1  0.05974000  0.24999000  0.17178000  1.0
  Li  Li6  1  0.50125000  0.00136000  0.03900000  1.0
  Li  Li7  1  0.50122000  0.49859000  0.03900000  1.0
  Al  Al8  1  0.00000000  0.00000000  0.88065000  1.0
  Al  Al9  1  0.00000000  0.50000000  0.88065000  1.0
  Al  Al10  1  0.50000000  0.75000000  0.96022000  1.0
  Al  Al11  1  0.50000000  0.25000000  0.96022000  1.0
  Al  Al12  1  0.00462000  0.50292000  0.03834000  1.0
  Al  Al13  1  0.00465000  0.99706000  0.03834000  1.0
  Al  Al14  1  0.45899000  0.25002000  0.12334000  1.0
  Al  Al15  1  0.49688000  0.75003000  0.11786000  1.0
  Ni  Ni16  1  0.25000000  0.00000000  0.96022000  1.0
  Ni  Ni17  1  0.25000000  0.50000000  0.96022000  1.0
  Ni  Ni18  1  0.75000000  0.25000000  0.88065000  1.0
  Ni  Ni19  1  0.75000000  0.75000000  0.88065000  1.0
  Ni  Ni20  1  0.25682000  0.50325000  0.11268000  1.0
  Ni  Ni21  1  0.25680000  0.99676000  0.11269000  1.0
  Ni  Ni22  1  0.75235000  0.75002000  0.04227000  1.0
  Ni  Ni23  1  0.76848000  0.24994000  0.04776000  1.0
  Pd  Pd24  1  0.75000000  0.00000000  0.96022000  1.0
  Pd  Pd25  1  0.75000000  0.50000000  0.96022000  1.0
  Pd  Pd26  1  0.25000000  0.25000000  0.88065000  1.0
  Pd  Pd27  1  0.25000000  0.75000000  0.88065000  1.0
  Pd  Pd28  1  0.76047000  0.49780000  0.11658000  1.0
  Pd  Pd29  1  0.76047000  0.00215000  0.11659000  1.0
  Pd  Pd30  1  0.24699000  0.74999000  0.04133000  1.0
  Pd  Pd31  1  0.24978000  0.24998000  0.03664000  1.0
  C  C32  1  0.79757000  0.24996000  0.12292000  1.0
