# generated using pymatgen
data_Ag4Pt12CO
_symmetry_space_group_name_H-M   'P 1'
_cell_length_a   5.71706000
_cell_length_b   8.08515000
_cell_length_c   24.28780000
_cell_angle_alpha   90.00000000
_cell_angle_beta   90.00000000
_cell_angle_gamma   90.00000000
_symmetry_Int_Tables_number   1
_chemical_formula_structural   Ag4Pt12CO
_chemical_formula_sum   'Ag4 Pt12 C1 O1'
_cell_volume   1122.66196600
_cell_formula_units_Z   1
loop_
 _symmetry_equiv_pos_site_id
 _symmetry_equiv_pos_as_xyz
  1  'x, y, z'
loop_
 _atom_site_type_symbol
 _atom_site_label
 _atom_site_symmetry_multiplicity
 _atom_site_fract_x
 _atom_site_fract_y
 _atom_site_fract_z
 _atom_site_occupancy
  Ag  Ag0  1  0.00000000  0.50000000  0.90743000  1.0
  Ag  Ag1  1  0.50000000  0.50000000  0.02942000  1.0
  Ag  Ag2  1  0.00000000  0.00000000  0.90540000  1.0
  Ag  Ag3  1  0.50000000  0.00000000  0.02942000  1.0
  Pt  Pt4  1  0.50000000  0.50000000  0.91433000  1.0
  Pt  Pt5  1  0.75201000  0.75221000  0.96968000  1.0
  Pt  Pt6  1  0.24799000  0.75221000  0.96968000  1.0
  Pt  Pt7  1  0.00000000  0.50000000  0.02942000  1.0
  Pt  Pt8  1  0.25000000  0.75001000  0.08827000  1.0
  Pt  Pt9  1  0.75000000  0.75001000  0.08827000  1.0
  Pt  Pt10  1  0.50000000  0.00000000  0.91678000  1.0
  Pt  Pt11  1  0.75201000  0.24779000  0.96968000  1.0
  Pt  Pt12  1  0.24799000  0.24779000  0.96968000  1.0
  Pt  Pt13  1  0.00000000  0.00000000  0.02942000  1.0
  Pt  Pt14  1  0.25000000  0.24999000  0.08827000  1.0
  Pt  Pt15  1  0.75000000  0.24999000  0.08827000  1.0
  C  C16  1  0.50000000  0.50000000  0.83832000  1.0
  O  O17  1  0.50000000  0.50000000  0.79068000  1.0
