# generated using pymatgen
data_Li8Ni16Ge8CO
_symmetry_space_group_name_H-M   P1
_cell_length_a   5.73354000
_cell_length_b   8.10846000
_cell_length_c   26.08130000
_cell_angle_alpha   90.00000000
_cell_angle_beta   90.00000000
_cell_angle_gamma   90.00000000
_symmetry_Int_Tables_number   1
_chemical_formula_structural   Li8Ni16Ge8CO
_chemical_formula_sum   'Li8 Ni16 Ge8 C1 O1'
_cell_volume   1212.52432507
_cell_formula_units_Z   1
loop_
 _symmetry_equiv_pos_site_id
 _symmetry_equiv_pos_as_xyz
  1  'x, y, z'
loop_
 _atom_site_type_symbol
 _atom_site_label
 _atom_site_symmetry_multiplicity
 _atom_site_fract_x
 _atom_site_fract_y
 _atom_site_fract_z
 _atom_site_occupancy
  Li  Li0  1  0.00000000  0.00000000  0.88342000  1.0
  Li  Li1  1  0.00000000  0.50000000  0.88342000  1.0
  Li  Li2  1  0.49613000  0.72917000  0.13446000  1.0
  Li  Li3  1  0.49621000  0.27095000  0.13455000  1.0
  Li  Li4  1  0.50000000  0.25000000  0.96114000  1.0
  Li  Li5  1  0.50000000  0.75000000  0.96114000  1.0
  Li  Li6  1  0.99821000  0.00020000  0.03908000  1.0
  Li  Li7  1  0.99944000  0.49979000  0.03286000  1.0
  Ni  Ni8  1  0.21830000  0.49999000  0.10755000  1.0
  Ni  Ni9  1  0.25000000  0.00000000  0.96114000  1.0
  Ni  Ni10  1  0.25000000  0.25000000  0.88342000  1.0
  Ni  Ni11  1  0.25000000  0.50000000  0.96114000  1.0
  Ni  Ni12  1  0.25000000  0.75000000  0.88342000  1.0
  Ni  Ni13  1  0.25172000  0.75217000  0.03991000  1.0
  Ni  Ni14  1  0.25234000  0.24764000  0.03993000  1.0
  Ni  Ni15  1  0.26193000  0.00007000  0.11528000  1.0
  Ni  Ni16  1  0.72862000  0.99997000  0.11562000  1.0
  Ni  Ni17  1  0.74506000  0.24802000  0.03965000  1.0
  Ni  Ni18  1  0.74594000  0.75186000  0.03965000  1.0
  Ni  Ni19  1  0.75000000  0.00000000  0.96114000  1.0
  Ni  Ni20  1  0.75000000  0.25000000  0.88342000  1.0
  Ni  Ni21  1  0.75000000  0.50000000  0.96114000  1.0
  Ni  Ni22  1  0.75000000  0.75000000  0.88342000  1.0
  Ni  Ni23  1  0.77852000  0.50003000  0.10745000  1.0
  Ge  Ge24  1  0.00000000  0.25000000  0.96114000  1.0
  Ge  Ge25  1  0.00000000  0.75000000  0.96114000  1.0
  Ge  Ge26  1  0.49863000  0.99982000  0.03649000  1.0
  Ge  Ge27  1  0.49899000  0.50024000  0.03940000  1.0
  Ge  Ge28  1  0.50000000  0.00000000  0.88342000  1.0
  Ge  Ge29  1  0.50000000  0.50000000  0.88342000  1.0
  Ge  Ge30  1  0.99691000  0.24557000  0.11702000  1.0
  Ge  Ge31  1  0.99705000  0.75443000  0.11709000  1.0
  C  C32  1  0.49449000  0.00002000  0.16798000  1.0
  O  O33  1  0.49171000  0.00010000  0.21354000  1.0
