# generated using pymatgen
data_Li4Y4In4Ge4CO
_symmetry_space_group_name_H-M   P1
_cell_length_a   6.03525000
_cell_length_b   9.31878000
_cell_length_c   24.52620000
_cell_angle_alpha   90.00000000
_cell_angle_beta   90.00000000
_cell_angle_gamma   90.00000000
_symmetry_Int_Tables_number   1
_chemical_formula_structural   Li4Y4In4Ge4CO
_chemical_formula_sum   'Li4 Y4 In4 Ge4 C1 O1'
_cell_volume   1379.38210995
_cell_formula_units_Z   1
loop_
 _symmetry_equiv_pos_site_id
 _symmetry_equiv_pos_as_xyz
  1  'x, y, z'
loop_
 _atom_site_type_symbol
 _atom_site_label
 _atom_site_symmetry_multiplicity
 _atom_site_fract_x
 _atom_site_fract_y
 _atom_site_fract_z
 _atom_site_occupancy
  Li  Li0  1  0.29519000  0.25010000  0.10163000  1.0
  Li  Li1  1  0.29972000  0.74983000  0.09133000  1.0
  Li  Li2  1  0.74758000  0.25000000  0.96924000  1.0
  Li  Li3  1  0.74758000  0.75000000  0.96924000  1.0
  Y  Y4  1  0.00998000  0.00132000  0.03050000  1.0
  Y  Y5  1  0.01196000  0.49871000  0.03029000  1.0
  Y  Y6  1  0.50000000  0.00000000  0.90773000  1.0
  Y  Y7  1  0.50000000  0.50000000  0.90773000  1.0
  In  In8  1  0.24758000  0.25000000  0.96924000  1.0
  In  In9  1  0.24758000  0.75000000  0.96924000  1.0
  In  In10  1  0.77797000  0.24990000  0.09410000  1.0
  In  In11  1  0.78354000  0.75021000  0.09513000  1.0
  Ge  Ge12  1  0.00000000  0.00000000  0.90773000  1.0
  Ge  Ge13  1  0.00000000  0.50000000  0.90773000  1.0
  Ge  Ge14  1  0.51774000  0.99753000  0.04272000  1.0
  Ge  Ge15  1  0.51795000  0.50249000  0.04273000  1.0
  C  C16  1  0.41804000  0.25009000  0.18223000  1.0
  O  O17  1  0.47982000  0.24998000  0.22635000  1.0
