# generated using pymatgen
data_Li4Ge4Pd4Pb4C
_symmetry_space_group_name_H-M   'P 1'
_cell_length_a   6.74945000
_cell_length_b   6.74945000
_cell_length_c   25.06210000
_cell_angle_alpha   90.00000000
_cell_angle_beta   90.00000000
_cell_angle_gamma   90.00000000
_symmetry_Int_Tables_number   1
_chemical_formula_structural   Li4Ge4Pd4Pb4C
_chemical_formula_sum   'Li4 Ge4 Pd4 Pb4 C1'
_cell_volume   1141.70585274
_cell_formula_units_Z   1
loop_
 _symmetry_equiv_pos_site_id
 _symmetry_equiv_pos_as_xyz
  1  'x, y, z'
loop_
 _atom_site_type_symbol
 _atom_site_label
 _atom_site_symmetry_multiplicity
 _atom_site_fract_x
 _atom_site_fract_y
 _atom_site_fract_z
 _atom_site_occupancy
  Li  Li0  1  0.24999000  0.25000000  0.03366000  1.0
  Li  Li1  1  0.22060000  0.72231000  0.89422000  1.0
  Li  Li2  1  0.77940000  0.27769000  0.89422000  1.0
  Li  Li3  1  0.75001000  0.75000000  0.03366000  1.0
  Ge  Ge4  1  0.00000000  0.00000000  0.10099000  1.0
  Ge  Ge5  1  0.00000000  0.50000000  0.98119000  1.0
  Ge  Ge6  1  0.50000000  0.00000000  0.95572000  1.0
  Ge  Ge7  1  0.50000000  0.50000000  0.10099000  1.0
  Pd  Pd8  1  0.74999000  0.25000000  0.03366000  1.0
  Pd  Pd9  1  0.77719000  0.72293000  0.91206000  1.0
  Pd  Pd10  1  0.22281000  0.27707000  0.91206000  1.0
  Pd  Pd11  1  0.25001000  0.75000000  0.03366000  1.0
  Pb  Pb12  1  0.00000000  0.50000000  0.10099000  1.0
  Pb  Pb13  1  0.00000000  0.00000000  0.96832000  1.0
  Pb  Pb14  1  0.50000000  0.50000000  0.96816000  1.0
  Pb  Pb15  1  0.50000000  0.00000000  0.10099000  1.0
  C  C16  1  0.00000000  0.50000000  0.90388000  1.0
