# generated using pymatgen
data_Li4Ge4Pd4Pb4C
_symmetry_space_group_name_H-M   P2
_cell_length_a   6.74945000
_cell_length_b   25.06210000
_cell_length_c   6.74945000
_cell_angle_alpha   90.00000000
_cell_angle_beta   90.00000000
_cell_angle_gamma   90.00000000
_symmetry_Int_Tables_number   3
_chemical_formula_structural   Li4Ge4Pd4Pb4C
_chemical_formula_sum   'Li4 Ge4 Pd4 Pb4 C1'
_cell_volume   1141.70585274
_cell_formula_units_Z   1
loop_
 _symmetry_equiv_pos_site_id
 _symmetry_equiv_pos_as_xyz
  1  'x, y, z'
  2  '-x, y, -z'
loop_
 _atom_site_type_symbol
 _atom_site_label
 _atom_site_symmetry_multiplicity
 _atom_site_fract_x
 _atom_site_fract_y
 _atom_site_fract_z
 _atom_site_occupancy
  Li  Li0  2  0.25000000  0.96634000  0.24999000  1.0
  Li  Li1  2  0.27769000  0.10578000  0.77940000  1.0
  Ge  Ge2  1  0.00000000  0.04428000  0.50000000  1.0
  Ge  Ge3  1  0.00000000  0.89901000  0.00000000  1.0
  Ge  Ge4  1  0.50000000  0.01881000  0.00000000  1.0
  Ge  Ge5  1  0.50000000  0.89901000  0.50000000  1.0
  Pd  Pd6  2  0.25000000  0.96634000  0.74999000  1.0
  Pd  Pd7  2  0.27707000  0.08794000  0.22281000  1.0
  Pb  Pb8  1  0.00000000  0.03168000  0.00000000  1.0
  Pb  Pb9  1  0.00000000  0.89901000  0.50000000  1.0
  Pb  Pb10  1  0.50000000  0.03184000  0.50000000  1.0
  Pb  Pb11  1  0.50000000  0.89901000  0.00000000  1.0
  C  C12  1  0.50000000  0.09612000  0.00000000  1.0
