# generated using pymatgen
data_Li8Ga4Pd4CO
_symmetry_space_group_name_H-M   'P 1'
_cell_length_a   6.14873000
_cell_length_b   6.14873000
_cell_length_c   24.61150000
_cell_angle_alpha   90.00000000
_cell_angle_beta   90.00000000
_cell_angle_gamma   90.00000000
_symmetry_Int_Tables_number   1
_chemical_formula_structural   Li8Ga4Pd4CO
_chemical_formula_sum   'Li8 Ga4 Pd4 C1 O1'
_cell_volume   930.48404220
_cell_formula_units_Z   1
loop_
 _symmetry_equiv_pos_site_id
 _symmetry_equiv_pos_as_xyz
  1  'x, y, z'
loop_
 _atom_site_type_symbol
 _atom_site_label
 _atom_site_symmetry_multiplicity
 _atom_site_fract_x
 _atom_site_fract_y
 _atom_site_fract_z
 _atom_site_occupancy
  Li  Li0  1  0.00000000  0.00000000  0.96877000  1
  Li  Li1  1  0.00000000  0.50000000  0.10751000  1
  Li  Li2  1  0.50000000  1.00000000  0.10751000  1
  Li  Li3  1  0.50000000  0.50000000  0.96877000  1
  Li  Li4  1  0.75000500  0.24999500  0.90631000  1
  Li  Li5  1  0.24900000  0.24900000  0.03260000  1
  Li  Li6  1  0.24999500  0.75000500  0.90631000  1
  Li  Li7  1  0.75100000  0.75100000  0.03260000  1
  Ga  Ga8  1  0.75266000  0.24734000  0.03174000  1
  Ga  Ga9  1  0.24999500  0.24999500  0.90631000  1
  Ga  Ga10  1  0.24734000  0.75266000  0.03174000  1
  Ga  Ga11  1  0.75000500  0.75000500  0.90631000  1
  Pd  Pd12  1  0.00000000  0.00000000  0.09417000  1
  Pd  Pd13  1  0.50000000  0.50000000  0.08542000  1
  Pd  Pd14  1  0.00000000  0.50000000  0.96877000  1
  Pd  Pd15  1  0.50000000  1.00000000  0.96877000  1
  C  C16  1  0.00000000  0.00000000  0.17356000  1
  O  O17  1  0.00000000  0.00000000  0.22061000  1
