# generated using pymatgen
data_Hf16Co16CO
_symmetry_space_group_name_H-M   'P 1'
_cell_length_a   6.31043000
_cell_length_b   8.92430000
_cell_length_c   26.69320000
_cell_angle_alpha   90.00000000
_cell_angle_beta   90.00000000
_cell_angle_gamma   90.00000000
_symmetry_Int_Tables_number   1
_chemical_formula_structural   Hf16Co16CO
_chemical_formula_sum   'Hf16 Co16 C1 O1'
_cell_volume   1503.25880103
_cell_formula_units_Z   1
loop_
 _symmetry_equiv_pos_site_id
 _symmetry_equiv_pos_as_xyz
  1  'x, y, z'
loop_
 _atom_site_type_symbol
 _atom_site_label
 _atom_site_symmetry_multiplicity
 _atom_site_fract_x
 _atom_site_fract_y
 _atom_site_fract_z
 _atom_site_occupancy
  Hf  Hf0  1  0.00000000  0.75000000  0.87463000  1.0
  Hf  Hf1  1  0.00000000  0.00000000  0.95821000  1.0
  Hf  Hf2  1  0.00000000  0.74935000  0.04375000  1.0
  Hf  Hf3  1  0.00000000  0.00000000  0.11360000  1.0
  Hf  Hf4  1  0.00000000  0.25000000  0.87463000  1.0
  Hf  Hf5  1  0.00000000  0.50000000  0.95821000  1.0
  Hf  Hf6  1  0.00000000  0.25065000  0.04375000  1.0
  Hf  Hf7  1  0.00000000  0.50000000  0.12666000  1.0
  Hf  Hf8  1  0.50000000  0.75000000  0.87463000  1.0
  Hf  Hf9  1  0.50000000  0.00000000  0.95821000  1.0
  Hf  Hf10  1  0.50000000  0.75057000  0.04406000  1.0
  Hf  Hf11  1  0.50000000  0.00000000  0.12669000  1.0
  Hf  Hf12  1  0.50000000  0.25000000  0.87463000  1.0
  Hf  Hf13  1  0.50000000  0.50000000  0.95821000  1.0
  Hf  Hf14  1  0.50000000  0.24943000  0.04406000  1.0
  Hf  Hf15  1  0.50000000  0.50000000  0.12673000  1.0
  Co  Co16  1  0.25000000  0.00000000  0.87463000  1.0
  Co  Co17  1  0.25000000  0.75000000  0.95821000  1.0
  Co  Co18  1  0.25364000  0.00000000  0.04144000  1.0
  Co  Co19  1  0.25018000  0.74850000  0.12158000  1.0
  Co  Co20  1  0.25000000  0.50000000  0.87463000  1.0
  Co  Co21  1  0.25000000  0.25000000  0.95821000  1.0
  Co  Co22  1  0.25000000  0.50000000  0.04247000  1.0
  Co  Co23  1  0.25018000  0.25150000  0.12158000  1.0
  Co  Co24  1  0.75000000  0.00000000  0.87463000  1.0
  Co  Co25  1  0.75000000  0.75000000  0.95821000  1.0
  Co  Co26  1  0.74636000  0.00000000  0.04144000  1.0
  Co  Co27  1  0.74982000  0.74850000  0.12158000  1.0
  Co  Co28  1  0.75000000  0.50000000  0.87463000  1.0
  Co  Co29  1  0.75000000  0.25000000  0.95821000  1.0
  Co  Co30  1  0.75000000  0.50000000  0.04247000  1.0
  Co  Co31  1  0.74982000  0.25150000  0.12158000  1.0
  C  C32  1  0.00000000  0.00000000  0.20140000  1.0
  O  O33  1  0.00000000  0.00000000  0.24983000  1.0
