# generated using pymatgen
data_Hf16Co16CO
_symmetry_space_group_name_H-M   Pmm2
_cell_length_a   6.31043000
_cell_length_b   8.92430000
_cell_length_c   26.69320000
_cell_angle_alpha   90.00000000
_cell_angle_beta   90.00000000
_cell_angle_gamma   90.00000000
_symmetry_Int_Tables_number   25
_chemical_formula_structural   Hf16Co16CO
_chemical_formula_sum   'Hf16 Co16 C1 O1'
_cell_volume   1503.25880103
_cell_formula_units_Z   1
loop_
 _symmetry_equiv_pos_site_id
 _symmetry_equiv_pos_as_xyz
  1  'x, y, z'
  2  '-x, -y, z'
  3  '-x, y, z'
  4  'x, -y, z'
loop_
 _atom_site_type_symbol
 _atom_site_label
 _atom_site_symmetry_multiplicity
 _atom_site_fract_x
 _atom_site_fract_y
 _atom_site_fract_z
 _atom_site_occupancy
  Hf  Hf0  2  0.00000000  0.25000000  0.87463000  1.0
  Hf  Hf1  2  0.00000000  0.25065000  0.04375000  1.0
  Hf  Hf2  2  0.50000000  0.24943000  0.04406000  1.0
  Hf  Hf3  2  0.50000000  0.25000000  0.87463000  1.0
  Hf  Hf4  1  0.00000000  0.00000000  0.11360000  1.0
  Hf  Hf5  1  0.00000000  0.00000000  0.95821000  1.0
  Hf  Hf6  1  0.00000000  0.50000000  0.12666000  1.0
  Hf  Hf7  1  0.00000000  0.50000000  0.95821000  1.0
  Hf  Hf8  1  0.50000000  0.00000000  0.12669000  1.0
  Hf  Hf9  1  0.50000000  0.00000000  0.95821000  1.0
  Hf  Hf10  1  0.50000000  0.50000000  0.12673000  1.0
  Hf  Hf11  1  0.50000000  0.50000000  0.95821000  1.0
  Co  Co12  4  0.25000000  0.25000000  0.95821000  1.0
  Co  Co13  4  0.25018000  0.25150000  0.12158000  1.0
  Co  Co14  2  0.25000000  0.00000000  0.87463000  1.0
  Co  Co15  2  0.25000000  0.50000000  0.04247000  1.0
  Co  Co16  2  0.25000000  0.50000000  0.87463000  1.0
  Co  Co17  2  0.25364000  0.00000000  0.04144000  1.0
  C  C18  1  0.00000000  0.00000000  0.20140000  1.0
  O  O19  1  0.00000000  0.00000000  0.24983000  1.0
