# generated using pymatgen
data_Sc4In4Ge4Pd4C
_symmetry_space_group_name_H-M   'P 1'
_cell_length_a   5.71274000
_cell_length_b   9.28368000
_cell_length_c   24.27220000
_cell_angle_alpha   90.00000000
_cell_angle_beta   90.00000000
_cell_angle_gamma   90.00000000
_symmetry_Int_Tables_number   1
_chemical_formula_structural   Sc4In4Ge4Pd4C
_chemical_formula_sum   'Sc4 In4 Ge4 Pd4 C1'
_cell_volume   1287.28219707
_cell_formula_units_Z   1
loop_
 _symmetry_equiv_pos_site_id
 _symmetry_equiv_pos_as_xyz
  1  'x, y, z'
loop_
 _atom_site_type_symbol
 _atom_site_label
 _atom_site_symmetry_multiplicity
 _atom_site_fract_x
 _atom_site_fract_y
 _atom_site_fract_z
 _atom_site_occupancy
  Sc  Sc0  1  0.50000000  0.00000000  0.91199000  1.0
  Sc  Sc1  1  0.17385000  0.99997000  0.02955000  1.0
  Sc  Sc2  1  0.50000000  0.50000000  0.91199000  1.0
  Sc  Sc3  1  0.13653000  0.50002000  0.02842000  1.0
  In  In4  1  0.76901000  0.75000000  0.97066000  1.0
  In  In5  1  0.38250000  0.72334000  0.10353000  1.0
  In  In6  1  0.76901000  0.25000000  0.97066000  1.0
  In  In7  1  0.38251000  0.27672000  0.10352000  1.0
  Ge  Ge8  1  0.00000000  0.00000000  0.91199000  1.0
  Ge  Ge9  1  0.60083000  0.00019000  0.09646000  1.0
  Ge  Ge10  1  0.00000000  0.50000000  0.91199000  1.0
  Ge  Ge11  1  0.66090000  0.49993000  0.05550000  1.0
  Pd  Pd12  1  0.26901000  0.75000000  0.97066000  1.0
  Pd  Pd13  1  0.90110000  0.75446000  0.07945000  1.0
  Pd  Pd14  1  0.26901000  0.25000000  0.97066000  1.0
  Pd  Pd15  1  0.90115000  0.24559000  0.07945000  1.0
  C  C16  1  0.92315000  0.00001000  0.09144000  1.0
