data_image0
_chemical_formula_structural       Be16Cu16CO
_chemical_formula_sum              "Be16 Cu16 C1 O1"
_cell_length_a       5.39777
_cell_length_b       7.6336
_cell_length_c       25.7252
_cell_angle_alpha    90
_cell_angle_beta     90
_cell_angle_gamma    90

_space_group_name_H-M_alt    "P 1"
_space_group_IT_number       1

loop_
  _space_group_symop_operation_xyz
  'x, y, z'

loop_
  _atom_site_type_symbol
  _atom_site_label
  _atom_site_symmetry_multiplicity
  _atom_site_fract_x
  _atom_site_fract_y
  _atom_site_fract_z
  _atom_site_occupancy
  Be  Be1       1.0  0.00000  0.00000  0.88872  1.0000
  Be  Be2       1.0  0.00000  0.25000  0.96291  1.0000
  Be  Be3       1.0  0.00943  0.00000  0.03996  1.0000
  Be  Be4       1.0  0.98768  0.25392  0.10652  1.0000
  Be  Be5       1.0  0.00000  0.50000  0.88872  1.0000
  Be  Be6       1.0  0.00000  0.75000  0.96291  1.0000
  Be  Be7       1.0  0.99786  0.50000  0.03866  1.0000
  Be  Be8       1.0  0.98768  0.74608  0.10652  1.0000
  Be  Be9       1.0  0.50000  0.00000  0.88872  1.0000
  Be  Be10      1.0  0.50000  0.25000  0.96291  1.0000
  Be  Be11      1.0  0.49057  0.00000  0.03996  1.0000
  Be  Be12      1.0  0.51232  0.25392  0.10652  1.0000
  Be  Be13      1.0  0.50000  0.50000  0.88872  1.0000
  Be  Be14      1.0  0.50000  0.75000  0.96291  1.0000
  Be  Be15      1.0  0.50214  0.50000  0.03866  1.0000
  Be  Be16      1.0  0.51232  0.74608  0.10652  1.0000
  Cu  Cu1       1.0  0.25000  0.25000  0.88872  1.0000
  Cu  Cu2       1.0  0.25000  0.00000  0.96291  1.0000
  Cu  Cu3       1.0  0.25000  0.24983  0.03673  1.0000
  Cu  Cu4       1.0  0.25000  1.00000  0.11649  1.0000
  Cu  Cu5       1.0  0.25000  0.75000  0.88872  1.0000
  Cu  Cu6       1.0  0.25000  0.50000  0.96291  1.0000
  Cu  Cu7       1.0  0.25000  0.75017  0.03673  1.0000
  Cu  Cu8       1.0  0.25000  0.50000  0.11134  1.0000
  Cu  Cu9       1.0  0.75000  0.25000  0.88872  1.0000
  Cu  Cu10      1.0  0.75000  0.00000  0.96291  1.0000
  Cu  Cu11      1.0  0.75000  0.24906  0.03371  1.0000
  Cu  Cu12      1.0  0.75000  1.00000  0.10947  1.0000
  Cu  Cu13      1.0  0.75000  0.75000  0.88872  1.0000
  Cu  Cu14      1.0  0.75000  0.50000  0.96291  1.0000
  Cu  Cu15      1.0  0.75000  0.75093  0.03371  1.0000
  Cu  Cu16      1.0  0.75000  0.50000  0.11162  1.0000
  C   C1        1.0  0.25000  1.00000  0.18930  1.0000
  O   O1        1.0  0.25000  0.00000  0.23389  1.0000
