# generated using pymatgen
data_Be16Cu16CO
_symmetry_space_group_name_H-M   'P 1'
_cell_length_a   5.39777000
_cell_length_b   7.63360000
_cell_length_c   25.72520000
_cell_angle_alpha   90.00000000
_cell_angle_beta   90.00000000
_cell_angle_gamma   90.00000000
_symmetry_Int_Tables_number   1
_chemical_formula_structural   Be16Cu16CO
_chemical_formula_sum   'Be16 Cu16 C1 O1'
_cell_volume   1059.99187006
_cell_formula_units_Z   1
loop_
 _symmetry_equiv_pos_site_id
 _symmetry_equiv_pos_as_xyz
  1  'x, y, z'
loop_
 _atom_site_type_symbol
 _atom_site_label
 _atom_site_symmetry_multiplicity
 _atom_site_fract_x
 _atom_site_fract_y
 _atom_site_fract_z
 _atom_site_occupancy
  Be  Be0  1  0.75000000  0.00000000  0.88872000  1.0
  Be  Be1  1  0.75000000  0.25000000  0.96291000  1.0
  Be  Be2  1  0.75943000  0.00000000  0.03996000  1.0
  Be  Be3  1  0.73768000  0.25392000  0.10652000  1.0
  Be  Be4  1  0.75000000  0.50000000  0.88872000  1.0
  Be  Be5  1  0.75000000  0.75000000  0.96291000  1.0
  Be  Be6  1  0.74786000  0.50000000  0.03866000  1.0
  Be  Be7  1  0.73768000  0.74608000  0.10652000  1.0
  Be  Be8  1  0.25000000  0.00000000  0.88872000  1.0
  Be  Be9  1  0.25000000  0.25000000  0.96291000  1.0
  Be  Be10  1  0.24057000  0.00000000  0.03996000  1.0
  Be  Be11  1  0.26232000  0.25392000  0.10652000  1.0
  Be  Be12  1  0.25000000  0.50000000  0.88872000  1.0
  Be  Be13  1  0.25000000  0.75000000  0.96291000  1.0
  Be  Be14  1  0.25214000  0.50000000  0.03866000  1.0
  Be  Be15  1  0.26232000  0.74608000  0.10652000  1.0
  Cu  Cu16  1  0.00000000  0.25000000  0.88872000  1.0
  Cu  Cu17  1  0.00000000  0.00000000  0.96291000  1.0
  Cu  Cu18  1  0.00000000  0.24983000  0.03673000  1.0
  Cu  Cu19  1  0.00000000  0.00000000  0.11649000  1.0
  Cu  Cu20  1  0.00000000  0.75000000  0.88872000  1.0
  Cu  Cu21  1  0.00000000  0.50000000  0.96291000  1.0
  Cu  Cu22  1  0.00000000  0.75017000  0.03673000  1.0
  Cu  Cu23  1  0.00000000  0.50000000  0.11134000  1.0
  Cu  Cu24  1  0.50000000  0.25000000  0.88872000  1.0
  Cu  Cu25  1  0.50000000  0.00000000  0.96291000  1.0
  Cu  Cu26  1  0.50000000  0.24906000  0.03371000  1.0
  Cu  Cu27  1  0.50000000  0.00000000  0.10947000  1.0
  Cu  Cu28  1  0.50000000  0.75000000  0.88872000  1.0
  Cu  Cu29  1  0.50000000  0.50000000  0.96291000  1.0
  Cu  Cu30  1  0.50000000  0.75094000  0.03371000  1.0
  Cu  Cu31  1  0.50000000  0.50000000  0.11162000  1.0
  C  C32  1  0.00000000  0.00000000  0.18930000  1.0
  O  O33  1  0.00000000  0.00000000  0.23389000  1.0
