# generated using pymatgen
data_Be16Cu16CO
_symmetry_space_group_name_H-M   Pmm2
_cell_length_a   5.39777000
_cell_length_b   7.63360000
_cell_length_c   25.72520000
_cell_angle_alpha   90.00000000
_cell_angle_beta   90.00000000
_cell_angle_gamma   90.00000000
_symmetry_Int_Tables_number   25
_chemical_formula_structural   Be16Cu16CO
_chemical_formula_sum   'Be16 Cu16 C1 O1'
_cell_volume   1059.99187006
_cell_formula_units_Z   1
loop_
 _symmetry_equiv_pos_site_id
 _symmetry_equiv_pos_as_xyz
  1  'x, y, z'
  2  '-x, -y, z'
  3  '-x, y, z'
  4  'x, -y, z'
loop_
 _atom_site_type_symbol
 _atom_site_label
 _atom_site_symmetry_multiplicity
 _atom_site_fract_x
 _atom_site_fract_y
 _atom_site_fract_z
 _atom_site_occupancy
  Be  Be0  4  0.25000000  0.25000000  0.96291000  1.0
  Be  Be1  4  0.26232000  0.25392000  0.10652000  1.0
  Be  Be2  2  0.24057000  0.00000000  0.03996000  1.0
  Be  Be3  2  0.25000000  0.00000000  0.88872000  1.0
  Be  Be4  2  0.25000000  0.50000000  0.88872000  1.0
  Be  Be5  2  0.25214000  0.50000000  0.03866000  1.0
  Cu  Cu6  2  0.00000000  0.24983000  0.03673000  1.0
  Cu  Cu7  2  0.00000000  0.25000000  0.88872000  1.0
  Cu  Cu8  2  0.50000000  0.24906000  0.03371000  1.0
  Cu  Cu9  2  0.50000000  0.25000000  0.88872000  1.0
  Cu  Cu10  1  0.00000000  0.00000000  0.11649000  1.0
  Cu  Cu11  1  0.00000000  0.00000000  0.96291000  1.0
  Cu  Cu12  1  0.00000000  0.50000000  0.11134000  1.0
  Cu  Cu13  1  0.00000000  0.50000000  0.96291000  1.0
  Cu  Cu14  1  0.50000000  0.00000000  0.10947000  1.0
  Cu  Cu15  1  0.50000000  0.00000000  0.96291000  1.0
  Cu  Cu16  1  0.50000000  0.50000000  0.11162000  1.0
  Cu  Cu17  1  0.50000000  0.50000000  0.96291000  1.0
  C  C18  1  0.00000000  0.00000000  0.18930000  1.0
  O  O19  1  0.00000000  0.00000000  0.23389000  1.0
