# generated using pymatgen
data_ZrInNi2
_symmetry_space_group_name_H-M   Pmm2
_cell_length_a   4.48904500
_cell_length_b   6.34847000
_cell_length_c   26.73360000
_cell_angle_alpha   90.00000000
_cell_angle_beta   90.00000000
_cell_angle_gamma   90.00000000
_symmetry_Int_Tables_number   25
_chemical_formula_structural   ZrInNi2
_chemical_formula_sum   'Zr4 In4 Ni8'
_cell_volume   761.86930442
_cell_formula_units_Z   4
loop_
 _symmetry_equiv_pos_site_id
 _symmetry_equiv_pos_as_xyz
  1  'x, y, z'
  2  '-x, -y, z'
  3  '-x, y, z'
  4  'x, -y, z'
loop_
 _atom_site_type_symbol
 _atom_site_label
 _atom_site_symmetry_multiplicity
 _atom_site_fract_x
 _atom_site_fract_y
 _atom_site_fract_z
 _atom_site_occupancy
  Zr  Zr0  1  0.00000000  0.00000000  0.12594000  1.0
  Zr  Zr1  1  0.00000000  0.00000000  0.95715000  1.0
  Zr  Zr2  1  0.50000000  0.50000000  0.04198000  1.0
  Zr  Zr3  1  0.50000000  0.50000000  0.87400000  1.0
  In  In4  1  0.00000000  0.50000000  0.12594000  1.0
  In  In5  1  0.00000000  0.50000000  0.95928000  1.0
  In  In6  1  0.50000000  0.00000000  0.04198000  1.0
  In  In7  1  0.50000000  0.00000000  0.86808500  1.0
  Ni  Ni8  2  0.00000000  0.25000000  0.04198000  1.0
  Ni  Ni9  2  0.00000000  0.25011000  0.87919000  1.0
  Ni  Ni10  2  0.50000000  0.25000000  0.12594000  1.0
  Ni  Ni11  2  0.50000000  0.25663500  0.95489000  1.0
