# generated using pymatgen
data_Y16In16C
_symmetry_space_group_name_H-M   'P 1'
_cell_length_a   10.67780000
_cell_length_b   7.55034000
_cell_length_c   28.00830000
_cell_angle_alpha   90.00000000
_cell_angle_beta   90.00000000
_cell_angle_gamma   90.00000000
_symmetry_Int_Tables_number   1
_chemical_formula_structural   Y16In16C
_chemical_formula_sum   'Y16 In16 C1'
_cell_volume   2258.05772713
_cell_formula_units_Z   1
loop_
 _symmetry_equiv_pos_site_id
 _symmetry_equiv_pos_as_xyz
  1  'x, y, z'
loop_
 _atom_site_type_symbol
 _atom_site_label
 _atom_site_symmetry_multiplicity
 _atom_site_fract_x
 _atom_site_fract_y
 _atom_site_fract_z
 _atom_site_occupancy
  Y  Y0  1  0.25000000  0.50000000  0.14296000  1.0
  Y  Y1  1  0.00000000  0.50000000  0.04765000  1.0
  Y  Y2  1  0.24992000  0.50000000  0.94791000  1.0
  Y  Y3  1  0.03694000  0.50000000  0.85264000  1.0
  Y  Y4  1  0.75000000  0.50000000  0.14296000  1.0
  Y  Y5  1  0.50000000  0.50000000  0.04765000  1.0
  Y  Y6  1  0.75006000  0.50000000  0.95284000  1.0
  Y  Y7  1  0.46263000  0.50000000  0.85264000  1.0
  Y  Y8  1  0.25000000  0.00000000  0.14296000  1.0
  Y  Y9  1  0.00000000  0.00000000  0.04765000  1.0
  Y  Y10  1  0.25007000  0.00000000  0.95347000  1.0
  Y  Y11  1  0.97933000  0.00000000  0.85761000  1.0
  Y  Y12  1  0.75000000  0.00000000  0.14296000  1.0
  Y  Y13  1  0.50000000  0.00000000  0.04765000  1.0
  Y  Y14  1  0.74995000  0.00000000  0.95302000  1.0
  Y  Y15  1  0.52043000  0.00000000  0.85761000  1.0
  In  In16  1  0.00000000  0.75000000  0.14296000  1.0
  In  In17  1  0.25000000  0.75000000  0.04765000  1.0
  In  In18  1  0.99946000  0.74833000  0.95045000  1.0
  In  In19  1  0.24986000  0.79702000  0.84526000  1.0
  In  In20  1  0.50000000  0.75000000  0.14296000  1.0
  In  In21  1  0.75000000  0.75000000  0.04765000  1.0
  In  In22  1  0.50056000  0.74817000  0.95044000  1.0
  In  In23  1  0.74987000  0.71757000  0.85325000  1.0
  In  In24  1  0.00000000  0.25000000  0.14296000  1.0
  In  In25  1  0.25000000  0.25000000  0.04765000  1.0
  In  In26  1  0.99946000  0.25167000  0.95045000  1.0
  In  In27  1  0.24986000  0.20298000  0.84526000  1.0
  In  In28  1  0.50000000  0.25000000  0.14296000  1.0
  In  In29  1  0.75000000  0.25000000  0.04765000  1.0
  In  In30  1  0.50056000  0.25183000  0.95044000  1.0
  In  In31  1  0.74987000  0.28243000  0.85325000  1.0
  C  C32  1  0.24971000  0.50000000  0.86701000  1.0
