# generated using pymatgen
data_Zn8Ni16Ge8C
_symmetry_space_group_name_H-M   Pm
_cell_length_a   8.34071000
_cell_length_b   5.89777000
_cell_length_c   26.25550000
_cell_angle_alpha   90.00000000
_cell_angle_beta   90.00000000
_cell_angle_gamma   90.00000000
_symmetry_Int_Tables_number   6
_chemical_formula_structural   Zn8Ni16Ge8C
_chemical_formula_sum   'Zn8 Ni16 Ge8 C1'
_cell_volume   1291.54977068
_cell_formula_units_Z   1
loop_
 _symmetry_equiv_pos_site_id
 _symmetry_equiv_pos_as_xyz
  1  'x, y, z'
  2  'x, -y, z'
loop_
 _atom_site_type_symbol
 _atom_site_label
 _atom_site_symmetry_multiplicity
 _atom_site_fract_x
 _atom_site_fract_y
 _atom_site_fract_z
 _atom_site_occupancy
  Zn  Zn0  1  0.00000000  0.00000000  0.88087000  1.0
  Zn  Zn1  1  0.00006000  0.00000000  0.04043000  1.0
  Zn  Zn2  1  0.25000000  0.50000000  0.96029000  1.0
  Zn  Zn3  1  0.26055000  0.50000000  0.12717000  1.0
  Zn  Zn4  1  0.49992000  0.00000000  0.03621000  1.0
  Zn  Zn5  1  0.50000000  0.00000000  0.88087000  1.0
  Zn  Zn6  1  0.73945000  0.50000000  0.12718000  1.0
  Zn  Zn7  1  0.75000000  0.50000000  0.96029000  1.0
  Ni  Ni8  2  0.00000000  0.25000000  0.96029000  1.0
  Ni  Ni9  2  0.25000000  0.25000000  0.88087000  1.0
  Ni  Ni10  2  0.25268000  0.24805000  0.04013000  1.0
  Ni  Ni11  2  0.50000000  0.24526000  0.11209000  1.0
  Ni  Ni12  2  0.50000000  0.25000000  0.96029000  1.0
  Ni  Ni13  2  0.74733000  0.24803000  0.04012000  1.0
  Ni  Ni14  2  0.75000000  0.25000000  0.88087000  1.0
  Ni  Ni15  2  0.99998000  0.29218000  0.11192000  1.0
  Ge  Ge16  1  0.00000000  0.50000000  0.88087000  1.0
  Ge  Ge17  1  0.00002000  0.50000000  0.03439000  1.0
  Ge  Ge18  1  0.25000000  0.00000000  0.96029000  1.0
  Ge  Ge19  1  0.25379000  0.00000000  0.12391000  1.0
  Ge  Ge20  1  0.49998000  0.50000000  0.03900000  1.0
  Ge  Ge21  1  0.50000000  0.50000000  0.88087000  1.0
  Ge  Ge22  1  0.74621000  0.00000000  0.12392000  1.0
  Ge  Ge23  1  0.75000000  0.00000000  0.96029000  1.0
  C  C24  1  0.99999000  0.00000000  0.13309000  1.0
