# generated using pymatgen
data_Zn16Cu16CO
_symmetry_space_group_name_H-M   Pm
_cell_length_a   5.98486000
_cell_length_b   8.46387000
_cell_length_c   26.34790000
_cell_angle_alpha   90.00000000
_cell_angle_beta   90.00000000
_cell_angle_gamma   90.00000000
_symmetry_Int_Tables_number   6
_chemical_formula_structural   Zn16Cu16CO
_chemical_formula_sum   'Zn16 Cu16 C1 O1'
_cell_volume   1334.65490350
_cell_formula_units_Z   1
loop_
 _symmetry_equiv_pos_site_id
 _symmetry_equiv_pos_as_xyz
  1  'x, y, z'
  2  'x, -y, z'
loop_
 _atom_site_type_symbol
 _atom_site_label
 _atom_site_symmetry_multiplicity
 _atom_site_fract_x
 _atom_site_fract_y
 _atom_site_fract_z
 _atom_site_occupancy
  Zn  Zn0  2  0.25000000  0.25000000  0.87954000  1.0
  Zn  Zn1  2  0.25023000  0.25028000  0.03990000  1.0
  Zn  Zn2  2  0.74975000  0.25083000  0.03657000  1.0
  Zn  Zn3  2  0.75000000  0.25000000  0.87954000  1.0
  Zn  Zn4  1  0.25000000  0.00000000  0.95985000  1.0
  Zn  Zn5  1  0.25000000  0.50000000  0.95985000  1.0
  Zn  Zn6  1  0.25054000  0.00000000  0.12180000  1.0
  Zn  Zn7  1  0.25058000  0.50000000  0.12493000  1.0
  Zn  Zn8  1  0.74944000  0.50000000  0.12836000  1.0
  Zn  Zn9  1  0.74950000  0.00000000  0.12373000  1.0
  Zn  Zn10  1  0.75000000  0.00000000  0.95985000  1.0
  Zn  Zn11  1  0.75000000  0.50000000  0.95985000  1.0
  Cu  Cu12  2  -0.00000000  0.25000000  0.95985000  1.0
  Cu  Cu13  2  0.50000000  0.25000000  0.95985000  1.0
  Cu  Cu14  2  0.51312000  0.25369000  0.11624000  1.0
  Cu  Cu15  2  0.98669000  0.25386000  0.11615000  1.0
  Cu  Cu16  1  0.00000000  0.00000000  0.87954000  1.0
  Cu  Cu17  1  0.00000000  0.50000000  0.87954000  1.0
  Cu  Cu18  1  0.00012000  0.00000000  0.04168000  1.0
  Cu  Cu19  1  0.49984000  0.00000000  0.04156000  1.0
  Cu  Cu20  1  0.50000000  0.00000000  0.87954000  1.0
  Cu  Cu21  1  0.50000000  0.50000000  0.87954000  1.0
  Cu  Cu22  1  0.50165000  0.50000000  0.04093000  1.0
  Cu  Cu23  1  0.99850000  0.50000000  0.04105000  1.0
  C  C24  1  0.24860000  0.00000000  0.20067000  1.0
  O  O25  1  0.24904000  0.00000000  0.24410000  1.0
