# generated using pymatgen
data_Ta8Ru8CO
_symmetry_space_group_name_H-M   'P 1'
_cell_length_a   6.15974000
_cell_length_b   6.15974000
_cell_length_c   25.04420000
_cell_angle_alpha   90.00000000
_cell_angle_beta   90.00000000
_cell_angle_gamma   90.00000000
_symmetry_Int_Tables_number   1
_chemical_formula_structural   Ta8Ru8CO
_chemical_formula_sum   'Ta8 Ru8 C1 O1'
_cell_volume   950.23697563
_cell_formula_units_Z   1
loop_
 _symmetry_equiv_pos_site_id
 _symmetry_equiv_pos_as_xyz
  1  'x, y, z'
loop_
 _atom_site_type_symbol
 _atom_site_label
 _atom_site_symmetry_multiplicity
 _atom_site_fract_x
 _atom_site_fract_y
 _atom_site_fract_z
 _atom_site_occupancy
  Ta  Ta0  1  0.00000000  0.00000000  0.95692000  1.0
  Ta  Ta1  1  0.00000000  0.00000000  0.09120000  1.0
  Ta  Ta2  1  0.00000000  0.50000000  0.95692000  1.0
  Ta  Ta3  1  0.00000000  0.50000000  0.09120000  1.0
  Ta  Ta4  1  0.50000000  0.00000000  0.95692000  1.0
  Ta  Ta5  1  0.50000000  0.00000000  0.09120000  1.0
  Ta  Ta6  1  0.50000000  0.50000000  0.95692000  1.0
  Ta  Ta7  1  0.50000000  0.50000000  0.09120000  1.0
  Ru  Ru8  1  0.75000000  0.75000000  0.88979000  1.0
  Ru  Ru9  1  0.75000000  0.75000000  0.02406000  1.0
  Ru  Ru10  1  0.75000000  0.25000000  0.88979000  1.0
  Ru  Ru11  1  0.75000000  0.25000000  0.02406000  1.0
  Ru  Ru12  1  0.25000000  0.75000000  0.88979000  1.0
  Ru  Ru13  1  0.25000000  0.75000000  0.02406000  1.0
  Ru  Ru14  1  0.25000000  0.25000000  0.88979000  1.0
  Ru  Ru15  1  0.25000000  0.25000000  0.02406000  1.0
  C  C16  1  0.00000000  0.00000000  0.16706000  1.0
  O  O17  1  0.00000000  0.00000000  0.21298000  1.0
