data_image0
_chemical_formula_structural       Al4In4Cu4Pd4CO
_chemical_formula_sum              "Al4 In4 Cu4 Pd4 C1 O1"
_cell_length_a       6.36006
_cell_length_b       6.36006
_cell_length_c       24.77
_cell_angle_alpha    90
_cell_angle_beta     90
_cell_angle_gamma    90

_space_group_name_H-M_alt    "P 1"
_space_group_IT_number       1

loop_
  _space_group_symop_operation_xyz
  'x, y, z'

loop_
  _atom_site_type_symbol
  _atom_site_label
  _atom_site_symmetry_multiplicity
  _atom_site_fract_x
  _atom_site_fract_y
  _atom_site_fract_z
  _atom_site_occupancy
  Al  Al1       1.0  0.00000  0.00000  0.09629  1.0000
  Al  Al2       1.0  0.00000  0.50000  0.96790  1.0000
  Al  Al3       1.0  0.50000  0.00000  0.96790  1.0000
  Al  Al4       1.0  0.50000  0.50000  0.09629  1.0000
  In  In1       1.0  0.00000  0.50000  0.09629  1.0000
  In  In2       1.0  0.00000  0.00000  0.96790  1.0000
  In  In3       1.0  0.50000  0.50000  0.96790  1.0000
  In  In4       1.0  0.50000  0.00000  0.09629  1.0000
  Cu  Cu1       1.0  0.25000  0.25000  0.03210  1.0000
  Cu  Cu2       1.0  0.25000  0.75000  0.90371  1.0000
  Cu  Cu3       1.0  0.75000  0.25000  0.90371  1.0000
  Cu  Cu4       1.0  0.75000  0.75000  0.03210  1.0000
  Pd  Pd1       1.0  0.75000  0.25000  0.03210  1.0000
  Pd  Pd2       1.0  0.75000  0.75000  0.90371  1.0000
  Pd  Pd3       1.0  0.25000  0.25000  0.90371  1.0000
  Pd  Pd4       1.0  0.25000  0.75000  0.03210  1.0000
  C   C1        1.0  0.00000  0.00000  0.17299  1.0000
  O   O1        1.0  0.00000  0.00000  0.21942  1.0000
