# generated using pymatgen
data_Li8In8Ag8Pd8C
_symmetry_space_group_name_H-M   'P 1'
_cell_length_a   9.22594000
_cell_length_b   6.52372000
_cell_length_c   26.91950000
_cell_angle_alpha   90.00000000
_cell_angle_beta   90.00000000
_cell_angle_gamma   90.00000000
_symmetry_Int_Tables_number   1
_chemical_formula_structural   Li8In8Ag8Pd8C
_chemical_formula_sum   'Li8 In8 Ag8 Pd8 C1'
_cell_volume   1620.21604135
_cell_formula_units_Z   1
loop_
 _symmetry_equiv_pos_site_id
 _symmetry_equiv_pos_as_xyz
  1  'x, y, z'
loop_
 _atom_site_type_symbol
 _atom_site_label
 _atom_site_symmetry_multiplicity
 _atom_site_fract_x
 _atom_site_fract_y
 _atom_site_fract_z
 _atom_site_occupancy
  Li  Li0  1  0.75000000  0.25000000  0.04284000  1.0
  Li  Li1  1  0.25000000  0.25000000  0.04284000  1.0
  Li  Li2  1  0.00000000  0.75000000  0.12852000  1.0
  Li  Li3  1  0.50000000  0.75000000  0.12852000  1.0
  Li  Li4  1  0.26589000  0.23718000  0.86886000  1.0
  Li  Li5  1  0.73411000  0.23718000  0.86886000  1.0
  Li  Li6  1  0.50000000  0.74966000  0.96138000  1.0
  Li  Li7  1  0.00000000  0.74138000  0.95312000  1.0
  In  In8  1  0.75000000  0.75000000  0.04284000  1.0
  In  In9  1  0.25000000  0.75000000  0.04284000  1.0
  In  In10  1  0.00000000  0.25000000  0.12852000  1.0
  In  In11  1  0.50000000  0.25000000  0.12852000  1.0
  In  In12  1  0.24420000  0.75814000  0.85344000  1.0
  In  In13  1  0.75580000  0.75814000  0.85344000  1.0
  In  In14  1  0.50000000  0.24743000  0.95593000  1.0
  In  In15  1  0.00000000  0.25655000  0.96177000  1.0
  Ag  Ag16  1  0.75000000  0.00000000  0.12852000  1.0
  Ag  Ag17  1  0.25000000  0.00000000  0.12852000  1.0
  Ag  Ag18  1  0.50000000  0.50000000  0.04284000  1.0
  Ag  Ag19  1  0.00000000  0.50000000  0.04284000  1.0
  Ag  Ag20  1  0.24903000  0.98393000  0.95265000  1.0
  Ag  Ag21  1  0.75097000  0.98393000  0.95265000  1.0
  Ag  Ag22  1  0.00000000  0.45032000  0.87006000  1.0
  Ag  Ag23  1  0.50000000  0.52359000  0.87495000  1.0
  Pd  Pd24  1  0.00000000  1.00000000  0.04284000  1.0
  Pd  Pd25  1  0.50000000  0.00000000  0.04284000  1.0
  Pd  Pd26  1  0.25000000  0.50000000  0.12852000  1.0
  Pd  Pd27  1  0.75000000  0.50000000  0.12852000  1.0
  Pd  Pd28  1  0.50000000  0.96544000  0.87972000  1.0
  Pd  Pd29  1  0.00000000  0.02934000  0.87912000  1.0
  Pd  Pd30  1  0.74543000  0.50809000  0.95293000  1.0
  Pd  Pd31  1  0.25457000  0.50809000  0.95293000  1.0
  C  C32  1  0.00000000  0.76157000  0.84431000  1.0
