# generated using pymatgen
data_Li8In8Ag8Pd8C
_symmetry_space_group_name_H-M   Pm
_cell_length_a   6.52372000
_cell_length_b   9.22594000
_cell_length_c   26.91950000
_cell_angle_alpha   90.00000000
_cell_angle_beta   90.00000000
_cell_angle_gamma   90.00000000
_symmetry_Int_Tables_number   6
_chemical_formula_structural   Li8In8Ag8Pd8C
_chemical_formula_sum   'Li8 In8 Ag8 Pd8 C1'
_cell_volume   1620.21604135
_cell_formula_units_Z   1
loop_
 _symmetry_equiv_pos_site_id
 _symmetry_equiv_pos_as_xyz
  1  'x, y, z'
  2  'x, -y, z'
loop_
 _atom_site_type_symbol
 _atom_site_label
 _atom_site_symmetry_multiplicity
 _atom_site_fract_x
 _atom_site_fract_y
 _atom_site_fract_z
 _atom_site_occupancy
  Li  Li0  2  0.23718000  0.26589000  0.13114000  1.0
  Li  Li1  2  0.25000000  0.25000000  0.95716000  1.0
  Li  Li2  1  0.74138000  0.00000000  0.04688000  1.0
  Li  Li3  1  0.74966000  0.50000000  0.03862000  1.0
  Li  Li4  1  0.75000000  0.00000000  0.87148000  1.0
  Li  Li5  1  0.75000000  0.50000000  0.87148000  1.0
  In  In6  2  0.75000000  0.25000000  0.95716000  1.0
  In  In7  2  0.75814000  0.24420000  0.14656000  1.0
  In  In8  1  0.24743000  0.50000000  0.04407000  1.0
  In  In9  1  0.25000000  0.00000000  0.87148000  1.0
  In  In10  1  0.25000000  0.50000000  0.87148000  1.0
  In  In11  1  0.25655000  0.00000000  0.03823000  1.0
  Ag  Ag12  2  0.00000000  0.25000000  0.87148000  1.0
  Ag  Ag13  2  0.98393000  0.24903000  0.04735000  1.0
  Ag  Ag14  1  0.45032000  0.00000000  0.12994000  1.0
  Ag  Ag15  1  0.50000000  0.00000000  0.95716000  1.0
  Ag  Ag16  1  0.50000000  0.50000000  0.95716000  1.0
  Ag  Ag17  1  0.52359000  0.50000000  0.12505000  1.0
  Pd  Pd18  2  0.50000000  0.25000000  0.87148000  1.0
  Pd  Pd19  2  0.50809000  0.25457000  0.04707000  1.0
  Pd  Pd20  1  -0.00000000  0.00000000  0.95716000  1.0
  Pd  Pd21  1  0.00000000  0.50000000  0.95716000  1.0
  Pd  Pd22  1  0.02934000  0.00000000  0.12088000  1.0
  Pd  Pd23  1  0.96544000  0.50000000  0.12028000  1.0
  C  C24  1  0.76157000  0.00000000  0.15569000  1.0
