# generated using pymatgen
data_Li8Cu8Ge8Pd8CO
_symmetry_space_group_name_H-M   'P 1'
_cell_length_a   8.54512000
_cell_length_b   6.04231000
_cell_length_c   26.40880000
_cell_angle_alpha   90.00000000
_cell_angle_beta   90.00000000
_cell_angle_gamma   90.00000000
_symmetry_Int_Tables_number   1
_chemical_formula_structural   Li8Cu8Ge8Pd8CO
_chemical_formula_sum   'Li8 Cu8 Ge8 Pd8 C1 O1'
_cell_volume   1363.54613424
_cell_formula_units_Z   1
loop_
 _symmetry_equiv_pos_site_id
 _symmetry_equiv_pos_as_xyz
  1  'x, y, z'
loop_
 _atom_site_type_symbol
 _atom_site_label
 _atom_site_symmetry_multiplicity
 _atom_site_fract_x
 _atom_site_fract_y
 _atom_site_fract_z
 _atom_site_occupancy
  Li  Li0  1  0.00000000  0.25000000  0.04045000  1.0
  Li  Li1  1  0.50000000  0.25000000  0.04045000  1.0
  Li  Li2  1  0.25000000  0.75000000  0.12134000  1.0
  Li  Li3  1  0.75000000  0.75000000  0.12134000  1.0
  Li  Li4  1  0.50000000  0.24833000  0.86559000  1.0
  Li  Li5  1  0.00000000  0.24750000  0.86213000  1.0
  Li  Li6  1  0.75167000  0.74917000  0.96428000  1.0
  Li  Li7  1  0.24833000  0.74917000  0.96428000  1.0
  Cu  Cu8  1  0.00000000  0.00000000  0.12134000  1.0
  Cu  Cu9  1  0.50000000  0.00000000  0.12134000  1.0
  Cu  Cu10  1  0.75000000  0.50000000  0.04045000  1.0
  Cu  Cu11  1  0.25000000  0.50000000  0.04045000  1.0
  Cu  Cu12  1  0.50000000  0.99996000  0.95515000  1.0
  Cu  Cu13  1  0.00000000  0.00564000  0.95439000  1.0
  Cu  Cu14  1  0.25089000  0.52635000  0.88515000  1.0
  Cu  Cu15  1  0.74911000  0.52635000  0.88515000  1.0
  Ge  Ge16  1  0.00000000  0.75000000  0.04045000  1.0
  Ge  Ge17  1  0.50000000  0.75000000  0.04045000  1.0
  Ge  Ge18  1  0.25000000  0.25000000  0.12134000  1.0
  Ge  Ge19  1  0.75000000  0.25000000  0.12134000  1.0
  Ge  Ge20  1  0.50000000  0.74665000  0.87203000  1.0
  Ge  Ge21  1  0.00000000  0.75176000  0.87401000  1.0
  Ge  Ge22  1  0.74947000  0.24857000  0.95923000  1.0
  Ge  Ge23  1  0.25053000  0.24857000  0.95923000  1.0
  Pd  Pd24  1  0.25000000  0.00000000  0.04045000  1.0
  Pd  Pd25  1  0.75000000  0.00000000  0.04045000  1.0
  Pd  Pd26  1  0.50000000  0.50000000  0.12134000  1.0
  Pd  Pd27  1  0.00000000  0.50000000  0.12134000  1.0
  Pd  Pd28  1  0.74759000  0.97911000  0.88471000  1.0
  Pd  Pd29  1  0.25241000  0.97911000  0.88471000  1.0
  Pd  Pd30  1  0.00000000  0.48967000  0.95329000  1.0
  Pd  Pd31  1  0.50000000  0.49576000  0.95505000  1.0
  C  C32  1  0.00000000  0.25843000  0.78145000  1.0
  O  O33  1  0.00000000  0.25713000  0.73837000  1.0
