# generated using pymatgen
data_Li8Cu8Ge8Pd8CO
_symmetry_space_group_name_H-M   Pm
_cell_length_a   6.04231000
_cell_length_b   8.54512000
_cell_length_c   26.40880000
_cell_angle_alpha   90.00000000
_cell_angle_beta   90.00000000
_cell_angle_gamma   90.00000000
_symmetry_Int_Tables_number   6
_chemical_formula_structural   Li8Cu8Ge8Pd8CO
_chemical_formula_sum   'Li8 Cu8 Ge8 Pd8 C1 O1'
_cell_volume   1363.54613424
_cell_formula_units_Z   1
loop_
 _symmetry_equiv_pos_site_id
 _symmetry_equiv_pos_as_xyz
  1  'x, y, z'
  2  'x, -y, z'
loop_
 _atom_site_type_symbol
 _atom_site_label
 _atom_site_symmetry_multiplicity
 _atom_site_fract_x
 _atom_site_fract_y
 _atom_site_fract_z
 _atom_site_occupancy
  Li  Li0  2  0.74917000  0.24833000  0.03572000  1.0
  Li  Li1  2  0.75000000  0.25000000  0.87866000  1.0
  Li  Li2  1  0.24750000  0.00000000  0.13787000  1.0
  Li  Li3  1  0.24833000  0.50000000  0.13441000  1.0
  Li  Li4  1  0.25000000  0.00000000  0.95955000  1.0
  Li  Li5  1  0.25000000  0.50000000  0.95955000  1.0
  Cu  Cu6  2  0.50000000  0.25000000  0.95955000  1.0
  Cu  Cu7  2  0.52635000  0.25089000  0.11485000  1.0
  Cu  Cu8  1  0.00000000  0.00000000  0.87866000  1.0
  Cu  Cu9  1  0.00000000  0.50000000  0.87866000  1.0
  Cu  Cu10  1  0.00564000  0.00000000  0.04561000  1.0
  Cu  Cu11  1  0.99996000  0.50000000  0.04485000  1.0
  Ge  Ge12  2  0.24857000  0.25053000  0.04077000  1.0
  Ge  Ge13  2  0.25000000  0.25000000  0.87866000  1.0
  Ge  Ge14  1  0.74665000  0.50000000  0.12797000  1.0
  Ge  Ge15  1  0.75000000  0.00000000  0.95955000  1.0
  Ge  Ge16  1  0.75000000  0.50000000  0.95955000  1.0
  Ge  Ge17  1  0.75176000  0.00000000  0.12599000  1.0
  Pd  Pd18  2  0.00000000  0.25000000  0.95955000  1.0
  Pd  Pd19  2  0.97911000  0.25241000  0.11529000  1.0
  Pd  Pd20  1  0.48967000  0.00000000  0.04671000  1.0
  Pd  Pd21  1  0.49576000  0.50000000  0.04495000  1.0
  Pd  Pd22  1  0.50000000  0.00000000  0.87866000  1.0
  Pd  Pd23  1  0.50000000  0.50000000  0.87866000  1.0
  C  C24  1  0.25843000  0.00000000  0.21855000  1.0
  O  O25  1  0.25713000  0.00000000  0.26163000  1.0
