# generated using pymatgen
data_Sc8Ga8Ni16C
_symmetry_space_group_name_H-M   'P 1'
_cell_length_a   6.06833000
_cell_length_b   8.58191000
_cell_length_c   26.43640000
_cell_angle_alpha   90.00000000
_cell_angle_beta   90.00000000
_cell_angle_gamma   90.00000000
_symmetry_Int_Tables_number   1
_chemical_formula_structural   Sc8Ga8Ni16C
_chemical_formula_sum   'Sc8 Ga8 Ni16 C1'
_cell_volume   1376.75118861
_cell_formula_units_Z   1
loop_
 _symmetry_equiv_pos_site_id
 _symmetry_equiv_pos_as_xyz
  1  'x, y, z'
loop_
 _atom_site_type_symbol
 _atom_site_label
 _atom_site_symmetry_multiplicity
 _atom_site_fract_x
 _atom_site_fract_y
 _atom_site_fract_z
 _atom_site_occupancy
  Sc  Sc0  1  0.00000000  0.00000000  0.87827000  1.0
  Sc  Sc1  1  0.50000000  0.25000000  0.95942000  1.0
  Sc  Sc2  1  0.50000000  0.75000000  0.95942000  1.0
  Sc  Sc3  1  0.00000000  0.50000000  0.87827000  1.0
  Sc  Sc4  1  0.00000000  0.50000000  0.03709000  1.0
  Sc  Sc5  1  0.50000000  0.74031000  0.12884000  1.0
  Sc  Sc6  1  0.50000000  0.25969000  0.12884000  1.0
  Sc  Sc7  1  0.00000000  0.00000000  0.04051000  1.0
  Ga  Ga8  1  0.00000000  0.75000000  0.95942000  1.0
  Ga  Ga9  1  0.50000000  0.00000000  0.87827000  1.0
  Ga  Ga10  1  0.00000000  0.25000000  0.95942000  1.0
  Ga  Ga11  1  0.50000000  0.50000000  0.87827000  1.0
  Ga  Ga12  1  0.00000000  0.25012000  0.12057000  1.0
  Ga  Ga13  1  0.50000000  0.50000000  0.04330000  1.0
  Ga  Ga14  1  0.00000000  0.74988000  0.12057000  1.0
  Ga  Ga15  1  0.50000000  0.00000000  0.04500000  1.0
  Ni  Ni16  1  0.25000000  0.00000000  0.95942000  1.0
  Ni  Ni17  1  0.75000000  0.50000000  0.95942000  1.0
  Ni  Ni18  1  0.75000000  0.00000000  0.95942000  1.0
  Ni  Ni19  1  0.25000000  0.50000000  0.95942000  1.0
  Ni  Ni20  1  0.75000000  0.75000000  0.87827000  1.0
  Ni  Ni21  1  0.25000000  0.25000000  0.87827000  1.0
  Ni  Ni22  1  0.25000000  0.75000000  0.87827000  1.0
  Ni  Ni23  1  0.75000000  0.25000000  0.87827000  1.0
  Ni  Ni24  1  0.21863000  0.50000000  0.11547000  1.0
  Ni  Ni25  1  0.79223000  0.00000000  0.12473000  1.0
  Ni  Ni26  1  0.78137000  0.50000000  0.11547000  1.0
  Ni  Ni27  1  0.20777000  0.00000000  0.12473000  1.0
  Ni  Ni28  1  0.73469000  0.25088000  0.04326000  1.0
  Ni  Ni29  1  0.26531000  0.74912000  0.04326000  1.0
  Ni  Ni30  1  0.26531000  0.25088000  0.04326000  1.0
  Ni  Ni31  1  0.73469000  0.74912000  0.04326000  1.0
  C  C32  1  0.50000000  0.00000000  0.13816000  1.0
