data_image0
_chemical_formula_structural       Si16Ru16CO
_chemical_formula_sum              "Si16 Ru16 C1 O1"
_cell_length_a       5.87849
_cell_length_b       8.31345
_cell_length_c       26.2351
_cell_angle_alpha    90
_cell_angle_beta     90
_cell_angle_gamma    90

_space_group_name_H-M_alt    "P 1"
_space_group_IT_number       1

loop_
  _space_group_symop_operation_xyz
  'x, y, z'

loop_
  _atom_site_type_symbol
  _atom_site_label
  _atom_site_symmetry_multiplicity
  _atom_site_fract_x
  _atom_site_fract_y
  _atom_site_fract_z
  _atom_site_occupancy
  Si  Si1       1.0  0.25000  0.25000  0.88117  1.0000
  Si  Si2       1.0  0.25000  0.00000  0.96039  1.0000
  Si  Si3       1.0  0.25517  0.25000  0.04062  1.0000
  Si  Si4       1.0  0.24846  0.99678  0.11982  1.0000
  Si  Si5       1.0  0.25000  0.75000  0.88117  1.0000
  Si  Si6       1.0  0.25000  0.50000  0.96039  1.0000
  Si  Si7       1.0  0.24950  0.75000  0.04098  1.0000
  Si  Si8       1.0  0.24846  0.50322  0.11982  1.0000
  Si  Si9       1.0  0.75000  0.25000  0.88117  1.0000
  Si  Si10      1.0  0.75000  0.00000  0.96039  1.0000
  Si  Si11      1.0  0.74483  0.25000  0.04062  1.0000
  Si  Si12      1.0  0.75154  0.99678  0.11982  1.0000
  Si  Si13      1.0  0.75000  0.75000  0.88117  1.0000
  Si  Si14      1.0  0.75000  0.50000  0.96039  1.0000
  Si  Si15      1.0  0.75050  0.75000  0.04098  1.0000
  Si  Si16      1.0  0.75154  0.50322  0.11982  1.0000
  Ru  Ru1       1.0  0.00000  0.00000  0.88117  1.0000
  Ru  Ru2       1.0  0.00000  0.25000  0.96039  1.0000
  Ru  Ru3       1.0  0.00000  0.00824  0.03894  1.0000
  Ru  Ru4       1.0  1.00000  0.25000  0.12318  1.0000
  Ru  Ru5       1.0  0.00000  0.50000  0.88117  1.0000
  Ru  Ru6       1.0  0.00000  0.75000  0.96039  1.0000
  Ru  Ru7       1.0  1.00000  0.49176  0.03894  1.0000
  Ru  Ru8       1.0  0.00000  0.75000  0.11426  1.0000
  Ru  Ru9       1.0  0.50000  0.00000  0.88117  1.0000
  Ru  Ru10      1.0  0.50000  0.25000  0.96039  1.0000
  Ru  Ru11      1.0  0.50000  0.99873  0.03799  1.0000
  Ru  Ru12      1.0  0.49999  0.25000  0.11544  1.0000
  Ru  Ru13      1.0  0.50000  0.50000  0.88117  1.0000
  Ru  Ru14      1.0  0.50000  0.75000  0.96039  1.0000
  Ru  Ru15      1.0  0.50000  0.50127  0.03799  1.0000
  Ru  Ru16      1.0  0.50000  0.75000  0.11607  1.0000
  C   C1        1.0  0.00000  0.25000  0.19572  1.0000
  O   O1        1.0  0.00000  0.25000  0.23977  1.0000
