# generated using pymatgen
data_Si16Ru16CO
_symmetry_space_group_name_H-M   Pmm2
_cell_length_a   5.87849000
_cell_length_b   8.31345000
_cell_length_c   26.23510000
_cell_angle_alpha   90.00000000
_cell_angle_beta   90.00000000
_cell_angle_gamma   90.00000000
_symmetry_Int_Tables_number   25
_chemical_formula_structural   Si16Ru16CO
_chemical_formula_sum   'Si16 Ru16 C1 O1'
_cell_volume   1282.12331219
_cell_formula_units_Z   1
loop_
 _symmetry_equiv_pos_site_id
 _symmetry_equiv_pos_as_xyz
  1  'x, y, z'
  2  '-x, -y, z'
  3  '-x, y, z'
  4  'x, -y, z'
loop_
 _atom_site_type_symbol
 _atom_site_label
 _atom_site_symmetry_multiplicity
 _atom_site_fract_x
 _atom_site_fract_y
 _atom_site_fract_z
 _atom_site_occupancy
  Si  Si0  4  0.24846000  0.25322000  0.11982000  1.0
  Si  Si1  4  0.25000000  0.25000000  0.96039000  1.0
  Si  Si2  2  0.24950000  0.50000000  0.04098000  1.0
  Si  Si3  2  0.25000000  0.00000000  0.88117000  1.0
  Si  Si4  2  0.25000000  0.50000000  0.88117000  1.0
  Si  Si5  2  0.25517000  0.00000000  0.04062000  1.0
  Ru  Ru6  2  0.00000000  0.24176000  0.03894000  1.0
  Ru  Ru7  2  0.00000000  0.25000000  0.88117000  1.0
  Ru  Ru8  2  0.50000000  0.25000000  0.88117000  1.0
  Ru  Ru9  2  0.50000000  0.25127000  0.03799000  1.0
  Ru  Ru10  1  0.00000000  0.00000000  0.12318000  1.0
  Ru  Ru11  1  0.00000000  0.00000000  0.96039000  1.0
  Ru  Ru12  1  0.00000000  0.50000000  0.11426000  1.0
  Ru  Ru13  1  0.00000000  0.50000000  0.96039000  1.0
  Ru  Ru14  1  0.50000000  0.00000000  0.11544000  1.0
  Ru  Ru15  1  0.50000000  0.00000000  0.96039000  1.0
  Ru  Ru16  1  0.50000000  0.50000000  0.11607000  1.0
  Ru  Ru17  1  0.50000000  0.50000000  0.96039000  1.0
  C  C18  1  0.00000000  0.00000000  0.19572000  1.0
  O  O19  1  0.00000000  0.00000000  0.23977000  1.0
