# generated using pymatgen
data_Li4In4Pd4Au4C
_symmetry_space_group_name_H-M   Pm
_cell_length_a   5.60636000
_cell_length_b   8.89782000
_cell_length_c   24.18540000
_cell_angle_alpha   90.00000000
_cell_angle_beta   90.00000000
_cell_angle_gamma   90.00000000
_symmetry_Int_Tables_number   6
_chemical_formula_structural   Li4In4Pd4Au4C
_chemical_formula_sum   'Li4 In4 Pd4 Au4 C1'
_cell_volume   1206.47373569
_cell_formula_units_Z   1
loop_
 _symmetry_equiv_pos_site_id
 _symmetry_equiv_pos_as_xyz
  1  'x, y, z'
  2  'x, -y, z'
loop_
 _atom_site_type_symbol
 _atom_site_label
 _atom_site_symmetry_multiplicity
 _atom_site_fract_x
 _atom_site_fract_y
 _atom_site_fract_z
 _atom_site_occupancy
  Li  Li0  2  0.52677000  0.25475000  0.08658000  1.0
  Li  Li1  2  0.95209000  0.24998000  0.97116000  1.0
  In  In2  1  0.22921000  0.00000000  0.02536000  1.0
  In  In3  1  0.22923000  0.50000000  0.03421000  1.0
  In  In4  1  0.67813000  0.00000000  0.91347000  1.0
  In  In5  1  0.67813000  0.50000000  0.91347000  1.0
  Pd  Pd6  1  0.17813000  0.00000000  0.91347000  1.0
  Pd  Pd7  1  0.17813000  0.50000000  0.91347000  1.0
  Pd  Pd8  1  0.70430000  0.00000000  0.03273000  1.0
  Pd  Pd9  1  0.73364000  0.50000000  0.03561000  1.0
  Au  Au10  2  0.00806000  0.24245000  0.08382000  1.0
  Au  Au11  2  0.45209000  0.24998000  0.97116000  1.0
  C  C12  1  0.94113000  0.00000000  0.09480000  1.0
