# generated using pymatgen
data_Zr8In8Pt16C
_symmetry_space_group_name_H-M   'P 1'
_cell_length_a   6.69031000
_cell_length_b   9.46152000
_cell_length_c   27.09610000
_cell_angle_alpha   90.00000000
_cell_angle_beta   90.00000000
_cell_angle_gamma   90.00000000
_symmetry_Int_Tables_number   1
_chemical_formula_structural   Zr8In8Pt16C
_chemical_formula_sum   'Zr8 In8 Pt16 C1'
_cell_volume   1715.19672875
_cell_formula_units_Z   1
loop_
 _symmetry_equiv_pos_site_id
 _symmetry_equiv_pos_as_xyz
  1  'x, y, z'
loop_
 _atom_site_type_symbol
 _atom_site_label
 _atom_site_symmetry_multiplicity
 _atom_site_fract_x
 _atom_site_fract_y
 _atom_site_fract_z
 _atom_site_occupancy
  Zr  Zr0  1  0.00000000  0.00000000  0.86906000  1.0
  Zr  Zr1  1  0.50000000  0.25000000  0.95635000  1.0
  Zr  Zr2  1  0.50000000  0.75000000  0.95635000  1.0
  Zr  Zr3  1  0.00000000  0.50000000  0.86906000  1.0
  Zr  Zr4  1  0.00000000  0.50000000  0.04613000  1.0
  Zr  Zr5  1  0.50000000  0.77170000  0.12149000  1.0
  Zr  Zr6  1  0.50000000  0.22830000  0.12149000  1.0
  Zr  Zr7  1  0.00000000  0.00000000  0.06045000  1.0
  In  In8  1  0.00000000  0.75000000  0.95635000  1.0
  In  In9  1  0.50000000  0.00000000  0.86906000  1.0
  In  In10  1  0.00000000  0.25000000  0.95635000  1.0
  In  In11  1  0.50000000  0.50000000  0.86906000  1.0
  In  In12  1  0.00000000  0.26975000  0.14179000  1.0
  In  In13  1  0.50000000  0.50000000  0.03948000  1.0
  In  In14  1  0.00000000  0.73025000  0.14179000  1.0
  In  In15  1  0.50000000  0.00000000  0.04070000  1.0
  Pt  Pt16  1  0.25000000  0.00000000  0.95635000  1.0
  Pt  Pt17  1  0.75000000  0.50000000  0.95635000  1.0
  Pt  Pt18  1  0.75000000  0.00000000  0.95635000  1.0
  Pt  Pt19  1  0.25000000  0.50000000  0.95635000  1.0
  Pt  Pt20  1  0.75000000  0.75000000  0.86906000  1.0
  Pt  Pt21  1  0.25000000  0.25000000  0.86906000  1.0
  Pt  Pt22  1  0.25000000  0.75000000  0.86906000  1.0
  Pt  Pt23  1  0.75000000  0.25000000  0.86906000  1.0
  Pt  Pt24  1  0.26686000  0.50000000  0.12338000  1.0
  Pt  Pt25  1  0.80050000  0.00000000  0.14806000  1.0
  Pt  Pt26  1  0.73314000  0.50000000  0.12338000  1.0
  Pt  Pt27  1  0.19950000  0.00000000  0.14806000  1.0
  Pt  Pt28  1  0.76354000  0.24800000  0.04190000  1.0
  Pt  Pt29  1  0.23646000  0.75200000  0.04190000  1.0
  Pt  Pt30  1  0.23646000  0.24800000  0.04190000  1.0
  Pt  Pt31  1  0.76354000  0.75200000  0.04190000  1.0
  C  C32  1  0.50000000  0.00000000  0.13011000  1.0
