data_image0
_chemical_formula_structural       Al4Cr4Fe8C
_chemical_formula_sum              "Al4 Cr4 Fe8 C1"
_cell_length_a       6.50665
_cell_length_b       6.50665
_cell_length_c       24.88
_cell_angle_alpha    90
_cell_angle_beta     90
_cell_angle_gamma    90

_space_group_name_H-M_alt    "P 1"
_space_group_IT_number       1

loop_
  _space_group_symop_operation_xyz
  'x, y, z'

loop_
  _atom_site_type_symbol
  _atom_site_label
  _atom_site_symmetry_multiplicity
  _atom_site_fract_x
  _atom_site_fract_y
  _atom_site_fract_z
  _atom_site_occupancy
  Al  Al1       1.0  0.02637  0.02637  0.06704  1.0000
  Al  Al2       1.0  0.47364  0.47364  0.06704  1.0000
  Al  Al3       1.0  0.50000  0.00000  0.96731  1.0000
  Al  Al4       1.0  0.00000  0.50000  0.96731  1.0000
  Cr  Cr1       1.0  0.00000  0.00000  0.96731  1.0000
  Cr  Cr2       1.0  0.45915  0.04084  0.07114  1.0000
  Cr  Cr3       1.0  0.04085  0.45915  0.07114  1.0000
  Cr  Cr4       1.0  0.50000  0.50000  0.96731  1.0000
  Fe  Fe1       1.0  0.25000  0.24999  0.00014  1.0000
  Fe  Fe2       1.0  0.75000  0.75000  0.90193  1.0000
  Fe  Fe3       1.0  0.75000  0.24999  0.00967  1.0000
  Fe  Fe4       1.0  0.25000  0.75000  0.90193  1.0000
  Fe  Fe5       1.0  0.74998  0.74998  0.01108  1.0000
  Fe  Fe6       1.0  0.25000  0.25000  0.90193  1.0000
  Fe  Fe7       1.0  0.24999  0.75000  0.00967  1.0000
  Fe  Fe8       1.0  0.75000  0.25000  0.90193  1.0000
  C   C1        1.0  0.25000  0.25001  0.08323  1.0000
