# generated using pymatgen
data_Al4Cr4Fe8C
_symmetry_space_group_name_H-M   Cmm2
_cell_length_a   9.20179268
_cell_length_b   9.20179268
_cell_length_c   24.88000000
_cell_angle_alpha   90.00000000
_cell_angle_beta   90.00000000
_cell_angle_gamma   90.00000000
_symmetry_Int_Tables_number   35
_chemical_formula_structural   Al4Cr4Fe8C
_chemical_formula_sum   'Al8 Cr8 Fe16 C2'
_cell_volume   2106.66395251
_cell_formula_units_Z   2
loop_
 _symmetry_equiv_pos_site_id
 _symmetry_equiv_pos_as_xyz
  1  'x, y, z'
  2  '-x, -y, z'
  3  '-x, y, z'
  4  'x, -y, z'
  5  'x+1/2, y+1/2, z'
  6  '-x+1/2, -y+1/2, z'
  7  '-x+1/2, y+1/2, z'
  8  'x+1/2, -y+1/2, z'
loop_
 _atom_site_type_symbol
 _atom_site_label
 _atom_site_symmetry_multiplicity
 _atom_site_fract_x
 _atom_site_fract_y
 _atom_site_fract_z
 _atom_site_occupancy
  Al  Al0  4  0.00000000  0.27636500  0.06704000  1.0
  Al  Al1  4  0.24999500  0.00000000  0.96731000  1.0
  Cr  Cr2  4  0.00000000  0.24999500  0.96731000  1.0
  Cr  Cr3  4  0.20916000  0.50000000  0.07114000  1.0
  Fe  Fe4  4  0.25000000  0.25000000  0.00967000  1.0
  Fe  Fe5  4  0.25000000  0.25000000  0.90193000  1.0
  Fe  Fe6  2  0.00000000  0.00000000  0.01108000  1.0
  Fe  Fe7  2  0.00000000  0.00000000  0.90193000  1.0
  Fe  Fe8  2  0.00000000  0.50000000  0.00014000  1.0
  Fe  Fe9  2  0.00000000  0.50000000  0.90193000  1.0
  C  C10  2  0.00000000  0.50000000  0.08323000  1.0
