# generated using pymatgen
data_Mn8Rh8CO
_symmetry_space_group_name_H-M   'P 1'
_cell_length_a   6.11529000
_cell_length_b   6.11529000
_cell_length_c   24.58650000
_cell_angle_alpha   90.00000000
_cell_angle_beta   90.00000000
_cell_angle_gamma   90.00000000
_symmetry_Int_Tables_number   1
_chemical_formula_structural   Mn8Rh8CO
_chemical_formula_sum   'Mn8 Rh8 C1 O1'
_cell_volume   919.45572947
_cell_formula_units_Z   1
loop_
 _symmetry_equiv_pos_site_id
 _symmetry_equiv_pos_as_xyz
  1  'x, y, z'
loop_
 _atom_site_type_symbol
 _atom_site_label
 _atom_site_symmetry_multiplicity
 _atom_site_fract_x
 _atom_site_fract_y
 _atom_site_fract_z
 _atom_site_occupancy
  Mn  Mn0  1  0.00000000  0.00000000  0.95946000  1.0
  Mn  Mn1  1  0.00000000  0.00000000  0.08382000  1.0
  Mn  Mn2  1  0.00000000  0.50000000  0.95946000  1.0
  Mn  Mn3  1  0.00000000  0.50000000  0.08382000  1.0
  Mn  Mn4  1  0.50000000  0.00000000  0.95946000  1.0
  Mn  Mn5  1  0.50000000  0.00000000  0.08382000  1.0
  Mn  Mn6  1  0.50000000  0.50000000  0.95946000  1.0
  Mn  Mn7  1  0.50000000  0.50000000  0.08382000  1.0
  Rh  Rh8  1  0.75000000  0.75000000  0.89728000  1.0
  Rh  Rh9  1  0.75000000  0.75000000  0.02164000  1.0
  Rh  Rh10  1  0.75000000  0.25000000  0.89728000  1.0
  Rh  Rh11  1  0.75000000  0.25000000  0.02164000  1.0
  Rh  Rh12  1  0.25000000  0.75000000  0.89728000  1.0
  Rh  Rh13  1  0.25000000  0.75000000  0.02164000  1.0
  Rh  Rh14  1  0.25000000  0.25000000  0.89728000  1.0
  Rh  Rh15  1  0.25000000  0.25000000  0.02164000  1.0
  C  C16  1  0.00000000  0.00000000  0.16110000  1.0
  O  O17  1  0.00000000  0.00000000  0.20788000  1.0
