data_image0
_chemical_formula_structural       RhMnRhMnRhMnRhMnRhMnRhMnRhMnRhMnCO
_chemical_formula_sum              "Rh8 Mn8 C1 O1"
_cell_length_a       6.11529
_cell_length_b       6.11529
_cell_length_c       24.5865
_cell_angle_alpha    90
_cell_angle_beta     90
_cell_angle_gamma    90

_space_group_name_H-M_alt    "P 1"
_space_group_IT_number       1

loop_
  _space_group_symop_operation_xyz
  'x, y, z'

loop_
  _atom_site_type_symbol
  _atom_site_label
  _atom_site_symmetry_multiplicity
  _atom_site_fract_x
  _atom_site_fract_y
  _atom_site_fract_z
  _atom_site_occupancy
  Rh  Rh1       1.0  0.00000  0.00000  0.89728  1.0000
  Mn  Mn1       1.0  0.25000  0.25000  0.95946  1.0000
  Rh  Rh2       1.0  0.00000  0.00000  0.02164  1.0000
  Mn  Mn2       1.0  0.25000  0.25000  0.08382  1.0000
  Rh  Rh3       1.0  0.00000  0.50000  0.89728  1.0000
  Mn  Mn3       1.0  0.25000  0.75000  0.95946  1.0000
  Rh  Rh4       1.0  0.00000  0.50000  0.02164  1.0000
  Mn  Mn4       1.0  0.25000  0.75000  0.08382  1.0000
  Rh  Rh5       1.0  0.50000  0.00000  0.89728  1.0000
  Mn  Mn5       1.0  0.75000  0.25000  0.95946  1.0000
  Rh  Rh6       1.0  0.50000  0.00000  0.02164  1.0000
  Mn  Mn6       1.0  0.75000  0.25000  0.08382  1.0000
  Rh  Rh7       1.0  0.50000  0.50000  0.89728  1.0000
  Mn  Mn7       1.0  0.75000  0.75000  0.95946  1.0000
  Rh  Rh8       1.0  0.50000  0.50000  0.02164  1.0000
  Mn  Mn8       1.0  0.75000  0.75000  0.08382  1.0000
  C   C1        1.0  0.25000  0.25000  0.16110  1.0000
  O   O1        1.0  0.25000  0.25000  0.20788  1.0000
