# generated using pymatgen
data_Hf8Al8Pd16CO
_symmetry_space_group_name_H-M   'P 1'
_cell_length_a   6.44324000
_cell_length_b   9.11212000
_cell_length_c   26.83410000
_cell_angle_alpha   90.00000000
_cell_angle_beta   90.00000000
_cell_angle_gamma   90.00000000
_symmetry_Int_Tables_number   1
_chemical_formula_structural   Hf8Al8Pd16CO
_chemical_formula_sum   'Hf8 Al8 Pd16 C1 O1'
_cell_volume   1575.47230339
_cell_formula_units_Z   1
loop_
 _symmetry_equiv_pos_site_id
 _symmetry_equiv_pos_as_xyz
  1  'x, y, z'
loop_
 _atom_site_type_symbol
 _atom_site_label
 _atom_site_symmetry_multiplicity
 _atom_site_fract_x
 _atom_site_fract_y
 _atom_site_fract_z
 _atom_site_occupancy
  Hf  Hf0  1  0.00000000  0.75000000  0.87266000  1.0
  Hf  Hf1  1  0.50000000  0.00000000  0.95755000  1.0
  Hf  Hf2  1  0.50000000  0.50000000  0.95755000  1.0
  Hf  Hf3  1  0.00000000  0.25000000  0.87266000  1.0
  Hf  Hf4  1  0.00000000  0.25142000  0.04259000  1.0
  Hf  Hf5  1  0.50000000  0.50000000  0.12817000  1.0
  Hf  Hf6  1  0.50000000  0.00000000  0.12742000  1.0
  Hf  Hf7  1  0.00000000  0.74858000  0.04259000  1.0
  Al  Al8  1  0.00000000  0.50000000  0.95755000  1.0
  Al  Al9  1  0.50000000  0.75000000  0.87266000  1.0
  Al  Al10  1  0.00000000  0.00000000  0.95755000  1.0
  Al  Al11  1  0.50000000  0.25000000  0.87266000  1.0
  Al  Al12  1  0.00000000  0.00000000  0.12590000  1.0
  Al  Al13  1  0.50000000  0.24972000  0.04356000  1.0
  Al  Al14  1  0.00000000  0.50000000  0.12466000  1.0
  Al  Al15  1  0.50000000  0.75028000  0.04356000  1.0
  Pd  Pd16  1  0.25000000  0.75000000  0.95755000  1.0
  Pd  Pd17  1  0.75000000  0.25000000  0.95755000  1.0
  Pd  Pd18  1  0.75000000  0.75000000  0.95755000  1.0
  Pd  Pd19  1  0.25000000  0.25000000  0.95755000  1.0
  Pd  Pd20  1  0.75000000  0.50000000  0.87266000  1.0
  Pd  Pd21  1  0.25000000  0.00000000  0.87266000  1.0
  Pd  Pd22  1  0.25000000  0.50000000  0.87266000  1.0
  Pd  Pd23  1  0.75000000  0.00000000  0.87266000  1.0
  Pd  Pd24  1  0.25025000  0.25206000  0.12336000  1.0
  Pd  Pd25  1  0.74975000  0.74794000  0.12336000  1.0
  Pd  Pd26  1  0.74975000  0.25206000  0.12336000  1.0
  Pd  Pd27  1  0.25025000  0.74794000  0.12336000  1.0
  Pd  Pd28  1  0.74183000  0.00000000  0.04382000  1.0
  Pd  Pd29  1  0.26239000  0.50000000  0.04269000  1.0
  Pd  Pd30  1  0.25817000  0.00000000  0.04382000  1.0
  Pd  Pd31  1  0.73761000  0.50000000  0.04269000  1.0
  C  C32  1  0.00000000  0.00000000  0.20038000  1.0
  O  O33  1  0.00000000  0.00000000  0.24345000  1.0
