# generated using pymatgen
data_Li8Ga4Rh4CO
_symmetry_space_group_name_H-M   P2
_cell_length_a   6.03399000
_cell_length_b   24.52550000
_cell_length_c   6.03399000
_cell_angle_alpha   90.00000000
_cell_angle_beta   90.00000000
_cell_angle_gamma   90.00000000
_symmetry_Int_Tables_number   3
_chemical_formula_structural   Li8Ga4Rh4CO
_chemical_formula_sum   'Li8 Ga4 Rh4 C1 O1'
_cell_volume   892.94979574
_cell_formula_units_Z   1
loop_
 _symmetry_equiv_pos_site_id
 _symmetry_equiv_pos_as_xyz
  1  'x, y, z'
  2  '-x, y, -z'
loop_
 _atom_site_type_symbol
 _atom_site_label
 _atom_site_symmetry_multiplicity
 _atom_site_fract_x
 _atom_site_fract_y
 _atom_site_fract_z
 _atom_site_occupancy
  Li  Li0  2  0.25000000  0.90774000  0.25000000  1.0
  Li  Li1  2  0.25055000  0.03446000  0.74935000  1.0
  Li  Li2  1  0.00000000  0.10632000  0.50000000  1.0
  Li  Li3  1  0.00000000  0.96925000  0.00000000  1.0
  Li  Li4  1  0.50000000  0.10703000  0.00000000  1.0
  Li  Li5  1  0.50000000  0.96925000  0.50000000  1.0
  Ga  Ga6  2  0.25000000  0.90774000  0.75000000  1.0
  Ga  Ga7  2  0.25022000  0.03206000  0.25084000  1.0
  Rh  Rh8  1  0.00000000  0.08467000  0.00000000  1.0
  Rh  Rh9  1  0.00000000  0.96925000  0.50000000  1.0
  Rh  Rh10  1  0.50000000  0.08521000  0.50000000  1.0
  Rh  Rh11  1  0.50000000  0.96925000  0.00000000  1.0
  C  C12  1  0.50000000  0.19309000  0.00000000  1.0
  O  O13  1  0.50000000  0.23956000  0.00000000  1.0
