# generated using pymatgen
data_Zn8Co16Ge8CO
_symmetry_space_group_name_H-M   'P 1'
_cell_length_a   8.14369000
_cell_length_b   5.75846000
_cell_length_c   26.10780000
_cell_angle_alpha   90.00000000
_cell_angle_beta   90.00000000
_cell_angle_gamma   90.00000000
_symmetry_Int_Tables_number   1
_chemical_formula_structural   Zn8Co16Ge8CO
_chemical_formula_sum   'Zn8 Co16 Ge8 C1 O1'
_cell_volume   1224.32823425
_cell_formula_units_Z   1
loop_
 _symmetry_equiv_pos_site_id
 _symmetry_equiv_pos_as_xyz
  1  'x, y, z'
loop_
 _atom_site_type_symbol
 _atom_site_label
 _atom_site_symmetry_multiplicity
 _atom_site_fract_x
 _atom_site_fract_y
 _atom_site_fract_z
 _atom_site_occupancy
  Zn  Zn0  1  0.74999000  0.00000000  0.11697000  1.0
  Zn  Zn1  1  0.00000000  0.50000000  0.03899000  1.0
  Zn  Zn2  1  0.50000000  0.50000000  0.03899000  1.0
  Zn  Zn3  1  0.25001000  0.00000000  0.11697000  1.0
  Zn  Zn4  1  0.24855000  0.99999000  0.96311000  1.0
  Zn  Zn5  1  0.50000000  0.49989000  0.86612000  1.0
  Zn  Zn6  1  0.00000000  0.49989000  0.86871000  1.0
  Zn  Zn7  1  0.75145000  0.99999000  0.96311000  1.0
  Co  Co8  1  0.74999000  0.25000000  0.03899000  1.0
  Co  Co9  1  0.24999000  0.75000000  0.03899000  1.0
  Co  Co10  1  0.75001000  0.75000000  0.03899000  1.0
  Co  Co11  1  0.25001000  0.25000000  0.03899000  1.0
  Co  Co12  1  0.50000000  0.75000000  0.11697000  1.0
  Co  Co13  1  0.00000000  0.25000000  0.11697000  1.0
  Co  Co14  1  0.50000000  0.25000000  0.11697000  1.0
  Co  Co15  1  0.00000000  0.75000000  0.11697000  1.0
  Co  Co16  1  0.24720000  0.24633000  0.88850000  1.0
  Co  Co17  1  0.75280000  0.75371000  0.88850000  1.0
  Co  Co18  1  0.24720000  0.75371000  0.88850000  1.0
  Co  Co19  1  0.75280000  0.24633000  0.88850000  1.0
  Co  Co20  1  0.00000000  0.74546000  0.96035000  1.0
  Co  Co21  1  0.50000000  0.25452000  0.95853000  1.0
  Co  Co22  1  0.00000000  0.25455000  0.96036000  1.0
  Co  Co23  1  0.50000000  0.74549000  0.95853000  1.0
  Ge  Ge24  1  0.50000000  0.00000000  0.03899000  1.0
  Ge  Ge25  1  0.74999000  0.50000000  0.11697000  1.0
  Ge  Ge26  1  0.00000000  0.00000000  0.03899000  1.0
  Ge  Ge27  1  0.25001000  0.50000000  0.11697000  1.0
  Ge  Ge28  1  0.00000000  0.00013000  0.87905000  1.0
  Ge  Ge29  1  0.25005000  0.49996000  0.96182000  1.0
  Ge  Ge30  1  0.50000000  0.00015000  0.88178000  1.0
  Ge  Ge31  1  0.74995000  0.49996000  0.96182000  1.0
  C  C32  1  0.00000000  0.00003000  0.78438000  1.0
  O  O33  1  0.00000000  0.99999000  0.74089000  1.0
