# generated using pymatgen
data_Li8Pd16Pb8C
_symmetry_space_group_name_H-M   Pmm2
_cell_length_a   6.57920000
_cell_length_b   9.30439000
_cell_length_c   26.97830000
_cell_angle_alpha   90.00000000
_cell_angle_beta   90.00000000
_cell_angle_gamma   90.00000000
_symmetry_Int_Tables_number   25
_chemical_formula_structural   Li8Pd16Pb8C
_chemical_formula_sum   'Li8 Pd16 Pb8 C1'
_cell_volume   1651.48857747
_cell_formula_units_Z   1
loop_
 _symmetry_equiv_pos_site_id
 _symmetry_equiv_pos_as_xyz
  1  'x, y, z'
  2  '-x, -y, z'
  3  '-x, y, z'
  4  'x, -y, z'
loop_
 _atom_site_type_symbol
 _atom_site_label
 _atom_site_symmetry_multiplicity
 _atom_site_fract_x
 _atom_site_fract_y
 _atom_site_fract_z
 _atom_site_occupancy
  Li  Li0  2  0.50000000  0.24422000  0.13254000  1.0
  Li  Li1  2  0.50000000  0.25000000  0.95689000  1.0
  Li  Li2  1  0.00000000  0.00000000  0.04113000  1.0
  Li  Li3  1  0.00000000  0.00000000  0.87067000  1.0
  Li  Li4  1  0.00000000  0.50000000  0.04160000  1.0
  Li  Li5  1  0.00000000  0.50000000  0.87067000  1.0
  Pd  Pd6  4  0.23661000  0.24617000  0.04815000  1.0
  Pd  Pd7  4  0.25000000  0.25000000  0.87067000  1.0
  Pd  Pd8  2  0.21809000  0.00000000  0.12806000  1.0
  Pd  Pd9  2  0.23868000  0.50000000  0.12122000  1.0
  Pd  Pd10  2  0.25000000  0.00000000  0.95689000  1.0
  Pd  Pd11  2  0.25000000  0.50000000  0.95689000  1.0
  Pb  Pb12  2  0.00000000  0.25000000  0.95689000  1.0
  Pb  Pb13  2  0.00000000  0.25896000  0.14319000  1.0
  Pb  Pb14  1  0.50000000  0.00000000  0.04077000  1.0
  Pb  Pb15  1  0.50000000  0.00000000  0.87067000  1.0
  Pb  Pb16  1  0.50000000  0.50000000  0.04189000  1.0
  Pb  Pb17  1  0.50000000  0.50000000  0.87067000  1.0
  C  C18  1  0.50000000  0.00000000  0.14225000  1.0
