# generated using pymatgen
data_Y4Sc4In4Pd4C
_symmetry_space_group_name_H-M   P1
_cell_length_a   6.98742000
_cell_length_b   7.36232000
_cell_length_c   25.23460000
_cell_angle_alpha   90.00000000
_cell_angle_beta   90.00000000
_cell_angle_gamma   90.00000000
_symmetry_Int_Tables_number   1
_chemical_formula_structural   Y4Sc4In4Pd4C
_chemical_formula_sum   'Y4 Sc4 In4 Pd4 C1'
_cell_volume   1298.15922408
_cell_formula_units_Z   1
loop_
 _symmetry_equiv_pos_site_id
 _symmetry_equiv_pos_as_xyz
  1  'x, y, z'
loop_
 _atom_site_type_symbol
 _atom_site_label
 _atom_site_symmetry_multiplicity
 _atom_site_fract_x
 _atom_site_fract_y
 _atom_site_fract_z
 _atom_site_occupancy
  Y  Y0  1  0.25784000  0.74994000  0.95814000  1.0
  Y  Y1  1  0.30199000  0.24997000  0.95028000  1.0
  Y  Y2  1  0.78588000  0.25000000  0.10372000  1.0
  Y  Y3  1  0.78588000  0.75000000  0.10372000  1.0
  Sc  Sc4  1  0.28588000  0.25000000  0.10372000  1.0
  Sc  Sc5  1  0.28588000  0.75000000  0.10372000  1.0
  Sc  Sc6  1  0.80218000  0.75000000  0.96874000  1.0
  Sc  Sc7  1  0.82537000  0.25003000  0.97000000  1.0
  In  In8  1  0.04575000  0.02129000  0.87463000  1.0
  In  In9  1  0.04582000  0.47873000  0.87462000  1.0
  In  In10  1  0.52392000  0.00000000  0.03457000  1.0
  In  In11  1  0.52392000  0.50000000  0.03457000  1.0
  Pd  Pd12  1  0.02392000  0.00000000  0.03457000  1.0
  Pd  Pd13  1  0.02392000  0.50000000  0.03457000  1.0
  Pd  Pd14  1  0.59258000  0.49656000  0.91928000  1.0
  Pd  Pd15  1  0.59265000  0.00349000  0.91927000  1.0
  C  C16  1  0.96777000  0.75002000  0.89768000  1.0
