# generated using pymatgen
data_Ca24Pb8C
_symmetry_space_group_name_H-M   P4mm
_cell_length_a   10.21910000
_cell_length_b   10.21910000
_cell_length_c   27.66430000
_cell_angle_alpha   90.00000000
_cell_angle_beta   90.00000000
_cell_angle_gamma   90.00000000
_symmetry_Int_Tables_number   99
_chemical_formula_structural   Ca24Pb8C
_chemical_formula_sum   'Ca24 Pb8 C1'
_cell_volume   2888.98298207
_cell_formula_units_Z   1
loop_
 _symmetry_equiv_pos_site_id
 _symmetry_equiv_pos_as_xyz
  1  'x, y, z'
  2  '-y, x, z'
  3  '-x, -y, z'
  4  'y, -x, z'
  5  '-x, y, z'
  6  'y, x, z'
  7  'x, -y, z'
  8  '-y, -x, z'
loop_
 _atom_site_type_symbol
 _atom_site_label
 _atom_site_symmetry_multiplicity
 _atom_site_fract_x
 _atom_site_fract_y
 _atom_site_fract_z
 _atom_site_occupancy
  Ca  Ca0  4  0.00000000  0.25000000  0.13852000  1.0
  Ca  Ca1  4  0.00000000  0.25000000  0.95383000  1.0
  Ca  Ca2  4  0.25000000  0.50000000  0.13852000  1.0
  Ca  Ca3  4  0.25000000  0.50000000  0.95383000  1.0
  Ca  Ca4  2  0.00000000  0.50000000  0.04617000  1.0
  Ca  Ca5  2  0.00000000  0.50000000  0.86148000  1.0
  Ca  Ca6  1  0.00000000  0.00000000  0.04617000  1.0
  Ca  Ca7  1  0.00000000  0.00000000  0.86148000  1.0
  Ca  Ca8  1  0.50000000  0.50000000  0.04617000  1.0
  Ca  Ca9  1  0.50000000  0.50000000  0.86148000  1.0
  Pb  Pb10  4  0.25000000  0.25000000  0.04617000  1.0
  Pb  Pb11  4  0.25000000  0.25000000  0.86148000  1.0
  C  C12  1  0.00000000  0.00000000  0.16744000  1.0
