# generated using pymatgen
data_Li16Sb8Au8CO
_symmetry_space_group_name_H-M   P1
_cell_length_a   6.66546000
_cell_length_b   9.42638000
_cell_length_c   27.06980000
_cell_angle_alpha   90.00000000
_cell_angle_beta   90.00000000
_cell_angle_gamma   90.00000000
_symmetry_Int_Tables_number   1
_chemical_formula_structural   Li16Sb8Au8CO
_chemical_formula_sum   'Li16 Sb8 Au8 C1 O1'
_cell_volume   1700.82690343
_cell_formula_units_Z   1
loop_
 _symmetry_equiv_pos_site_id
 _symmetry_equiv_pos_as_xyz
  1  'x, y, z'
loop_
 _atom_site_type_symbol
 _atom_site_label
 _atom_site_symmetry_multiplicity
 _atom_site_fract_x
 _atom_site_fract_y
 _atom_site_fract_z
 _atom_site_occupancy
  Li  Li0  1  0.00000000  0.25000000  0.95647000  1.0
  Li  Li1  1  0.00000000  0.75000000  0.95647000  1.0
  Li  Li2  1  0.03309000  0.24946000  0.12526000  1.0
  Li  Li3  1  0.03321000  0.75067000  0.12527000  1.0
  Li  Li4  1  0.25000000  0.25000000  0.86942000  1.0
  Li  Li5  1  0.25000000  0.75000000  0.86942000  1.0
  Li  Li6  1  0.27304000  0.75434000  0.04669000  1.0
  Li  Li7  1  0.27343000  0.24651000  0.04670000  1.0
  Li  Li8  1  0.50000000  0.00000000  0.86942000  1.0
  Li  Li9  1  0.50000000  0.50000000  0.86942000  1.0
  Li  Li10  1  0.50758000  0.50057000  0.03655000  1.0
  Li  Li11  1  0.51953000  0.00045000  0.03766000  1.0
  Li  Li12  1  0.70274000  0.50006000  0.12519000  1.0
  Li  Li13  1  0.71003000  0.00005000  0.13046000  1.0
  Li  Li14  1  0.75000000  0.00000000  0.95647000  1.0
  Li  Li15  1  0.75000000  0.50000000  0.95647000  1.0
  Sb  Sb16  1  -0.00000000  0.50000000  0.86942000  1.0
  Sb  Sb17  1  0.00000000  0.00000000  0.86942000  1.0
  Sb  Sb18  1  0.47967000  0.25286000  0.14395000  1.0
  Sb  Sb19  1  0.48008000  0.74720000  0.14398000  1.0
  Sb  Sb20  1  0.50000000  0.25000000  0.95647000  1.0
  Sb  Sb21  1  0.50000000  0.75000000  0.95647000  1.0
  Sb  Sb22  1  0.98289000  0.00042000  0.04464000  1.0
  Sb  Sb23  1  0.98291000  0.50040000  0.04448000  1.0
  Au  Au24  1  0.25000000  0.00000000  0.95647000  1.0
  Au  Au25  1  0.25000000  0.50000000  0.95647000  1.0
  Au  Au26  1  0.27676000  0.49989000  0.11697000  1.0
  Au  Au27  1  0.28690000  0.00026000  0.11670000  1.0
  Au  Au28  1  0.73169000  0.25179000  0.05623000  1.0
  Au  Au29  1  0.73235000  0.74916000  0.05622000  1.0
  Au  Au30  1  0.75000000  0.25000000  0.86942000  1.0
  Au  Au31  1  0.75000000  0.75000000  0.86942000  1.0
  C  C32  1  0.87254000  0.99989000  0.19849000  1.0
  O  O33  1  0.93922000  0.99988000  0.23735000  1.0
