# generated using pymatgen
data_Li16Ga8Ir8CO
_symmetry_space_group_name_H-M   'P 1'
_cell_length_a   8.51164000
_cell_length_b   6.01864000
_cell_length_c   26.38370000
_cell_angle_alpha   90.00000000
_cell_angle_beta   90.00000000
_cell_angle_gamma   90.00000000
_symmetry_Int_Tables_number   1
_chemical_formula_structural   Li16Ga8Ir8CO
_chemical_formula_sum   'Li16 Ga8 Ir8 C1 O1'
_cell_volume   1351.59729550
_cell_formula_units_Z   1
loop_
 _symmetry_equiv_pos_site_id
 _symmetry_equiv_pos_as_xyz
  1  'x, y, z'
loop_
 _atom_site_type_symbol
 _atom_site_label
 _atom_site_symmetry_multiplicity
 _atom_site_fract_x
 _atom_site_fract_y
 _atom_site_fract_z
 _atom_site_occupancy
  Li  Li0  1  0.25001000  0.00000000  0.04033000  1.0
  Li  Li1  1  0.50000000  0.50000000  0.12098000  1.0
  Li  Li2  1  0.74999000  0.00000000  0.04033000  1.0
  Li  Li3  1  0.00000000  0.50000000  0.12098000  1.0
  Li  Li4  1  0.50000000  0.25000000  0.04033000  1.0
  Li  Li5  1  0.00000000  0.25000000  0.04033000  1.0
  Li  Li6  1  0.25001000  0.75000000  0.12098000  1.0
  Li  Li7  1  0.74999000  0.75000000  0.12098000  1.0
  Li  Li8  1  0.75003000  0.99514000  0.87912000  1.0
  Li  Li9  1  0.00000000  0.48955000  0.96037000  1.0
  Li  Li10  1  0.24997000  0.99514000  0.87912000  1.0
  Li  Li11  1  0.50000000  0.48876000  0.96130000  1.0
  Li  Li12  1  0.00000000  0.27805000  0.85824000  1.0
  Li  Li13  1  0.50000000  0.26604000  0.86311000  1.0
  Li  Li14  1  0.75063000  0.75171000  0.96155000  1.0
  Li  Li15  1  0.24937000  0.75171000  0.96155000  1.0
  Ga  Ga16  1  0.75001000  0.25000000  0.12098000  1.0
  Ga  Ga17  1  0.24999000  0.25000000  0.12098000  1.0
  Ga  Ga18  1  0.00000000  0.75000000  0.04033000  1.0
  Ga  Ga19  1  0.50000000  0.75000000  0.04033000  1.0
  Ga  Ga20  1  0.25022000  0.24722000  0.96091000  1.0
  Ga  Ga21  1  0.74978000  0.24722000  0.96091000  1.0
  Ga  Ga22  1  0.50000000  0.72420000  0.88159000  1.0
  Ga  Ga23  1  0.00000000  0.72773000  0.88003000  1.0
  Ir  Ir24  1  0.50000000  0.00000000  0.12098000  1.0
  Ir  Ir25  1  0.75001000  0.50000000  0.04033000  1.0
  Ir  Ir26  1  0.24999000  0.50000000  0.04033000  1.0
  Ir  Ir27  1  0.00000000  0.00000000  0.12098000  1.0
  Ir  Ir28  1  0.00000000  0.00696000  0.95373000  1.0
  Ir  Ir29  1  0.24878000  0.50283000  0.88567000  1.0
  Ir  Ir30  1  0.75122000  0.50283000  0.88567000  1.0
  Ir  Ir31  1  0.50000000  0.00575000  0.95492000  1.0
  C  C32  1  0.50000000  0.23754000  0.78373000  1.0
  O  O33  1  0.50000000  0.25558000  0.74070000  1.0
