# generated using pymatgen
data_Li16Ga8Ir8CO
_symmetry_space_group_name_H-M   Pm
_cell_length_a   6.01864000
_cell_length_b   8.51164000
_cell_length_c   26.38370000
_cell_angle_alpha   90.00000000
_cell_angle_beta   90.00000000
_cell_angle_gamma   90.00000000
_symmetry_Int_Tables_number   6
_chemical_formula_structural   Li16Ga8Ir8CO
_chemical_formula_sum   'Li16 Ga8 Ir8 C1 O1'
_cell_volume   1351.59729550
_cell_formula_units_Z   1
loop_
 _symmetry_equiv_pos_site_id
 _symmetry_equiv_pos_as_xyz
  1  'x, y, z'
  2  'x, -y, z'
loop_
 _atom_site_type_symbol
 _atom_site_label
 _atom_site_symmetry_multiplicity
 _atom_site_fract_x
 _atom_site_fract_y
 _atom_site_fract_z
 _atom_site_occupancy
  Li  Li0  2  0.00000000  0.25001000  0.95967000  1.0
  Li  Li1  2  0.75000000  0.25001000  0.87902000  1.0
  Li  Li2  2  0.75171000  0.24937000  0.03845000  1.0
  Li  Li3  2  0.99514000  0.24997000  0.12088000  1.0
  Li  Li4  1  0.25000000  0.00000000  0.95967000  1.0
  Li  Li5  1  0.25000000  0.50000000  0.95967000  1.0
  Li  Li6  1  0.26604000  0.50000000  0.13689000  1.0
  Li  Li7  1  0.27805000  0.00000000  0.14176000  1.0
  Li  Li8  1  0.48876000  0.50000000  0.03870000  1.0
  Li  Li9  1  0.48955000  0.00000000  0.03963000  1.0
  Li  Li10  1  0.50000000  0.00000000  0.87902000  1.0
  Li  Li11  1  0.50000000  0.50000000  0.87902000  1.0
  Ga  Ga12  2  0.24722000  0.25022000  0.03909000  1.0
  Ga  Ga13  2  0.25000000  0.24999000  0.87902000  1.0
  Ga  Ga14  1  0.72420000  0.50000000  0.11841000  1.0
  Ga  Ga15  1  0.72773000  0.00000000  0.11997000  1.0
  Ga  Ga16  1  0.75000000  0.00000000  0.95967000  1.0
  Ga  Ga17  1  0.75000000  0.50000000  0.95967000  1.0
  Ir  Ir18  2  0.50000000  0.24999000  0.95967000  1.0
  Ir  Ir19  2  0.50283000  0.24878000  0.11433000  1.0
  Ir  Ir20  1  0.00000000  0.00000000  0.87902000  1.0
  Ir  Ir21  1  0.00000000  0.50000000  0.87902000  1.0
  Ir  Ir22  1  0.00575000  0.50000000  0.04508000  1.0
  Ir  Ir23  1  0.00696000  0.00000000  0.04627000  1.0
  C  C24  1  0.23754000  0.50000000  0.21627000  1.0
  O  O25  1  0.25558000  0.50000000  0.25930000  1.0
