# generated using pymatgen
data_Y8In8Sn8Pd8CO
_symmetry_space_group_name_H-M   'P 1'
_cell_length_a   9.06394000
_cell_length_b   9.16402000
_cell_length_c   26.55030000
_cell_angle_alpha   90.00000000
_cell_angle_beta   90.00000000
_cell_angle_gamma   90.00000000
_symmetry_Int_Tables_number   1
_chemical_formula_structural   Y8In8Sn8Pd8CO
_chemical_formula_sum   'Y8 In8 Sn8 Pd8 C1 O1'
_cell_volume   2205.32440214
_cell_formula_units_Z   1
loop_
 _symmetry_equiv_pos_site_id
 _symmetry_equiv_pos_as_xyz
  1  'x, y, z'
loop_
 _atom_site_type_symbol
 _atom_site_label
 _atom_site_symmetry_multiplicity
 _atom_site_fract_x
 _atom_site_fract_y
 _atom_site_fract_z
 _atom_site_occupancy
  Y  Y0  1  0.24973000  0.24922000  0.12430000  1.0
  Y  Y1  1  0.25000000  0.25000000  0.95888000  1.0
  Y  Y2  1  0.24974000  0.75084000  0.12428000  1.0
  Y  Y3  1  0.25000000  0.75000000  0.95888000  1.0
  Y  Y4  1  0.75032000  0.24923000  0.12431000  1.0
  Y  Y5  1  0.75000000  0.25000000  0.95888000  1.0
  Y  Y6  1  0.75030000  0.75084000  0.12430000  1.0
  Y  Y7  1  0.75000000  0.75000000  0.95888000  1.0
  In  In8  1  0.00005000  0.00006000  0.12296000  1.0
  In  In9  1  0.00000000  0.00000000  0.95888000  1.0
  In  In10  1  0.00001000  0.50001000  0.12865000  1.0
  In  In11  1  0.00000000  0.50000000  0.95888000  1.0
  In  In12  1  0.50001000  0.00004000  0.12561000  1.0
  In  In13  1  0.50000000  0.00000000  0.95888000  1.0
  In  In14  1  0.50000000  0.50004000  0.12743000  1.0
  In  In15  1  0.50000000  0.50000000  0.95888000  1.0
  Sn  Sn16  1  0.00000000  0.25678000  0.04401000  1.0
  Sn  Sn17  1  0.00000000  0.25000000  0.87664000  1.0
  Sn  Sn18  1  0.00000000  0.74322000  0.04401000  1.0
  Sn  Sn19  1  0.00000000  0.75000000  0.87664000  1.0
  Sn  Sn20  1  0.50003000  0.25307000  0.04420000  1.0
  Sn  Sn21  1  0.50000000  0.25000000  0.87664000  1.0
  Sn  Sn22  1  0.50002000  0.74702000  0.04419000  1.0
  Sn  Sn23  1  0.50000000  0.75000000  0.87664000  1.0
  Pd  Pd24  1  0.25360000  0.00007000  0.04679000  1.0
  Pd  Pd25  1  0.25000000  0.00000000  0.87664000  1.0
  Pd  Pd26  1  0.24875000  0.49997000  0.04923000  1.0
  Pd  Pd27  1  0.25000000  0.50000000  0.87664000  1.0
  Pd  Pd28  1  0.74643000  0.00007000  0.04682000  1.0
  Pd  Pd29  1  0.75000000  0.00000000  0.87664000  1.0
  Pd  Pd30  1  0.75120000  0.50000000  0.04924000  1.0
  Pd  Pd31  1  0.75000000  0.50000000  0.87664000  1.0
  C  C32  1  0.99793000  0.99716000  0.28850000  1.0
  O  O33  1  0.00085000  0.00120000  0.33118000  1.0
