# generated using pymatgen
data_Li8In8Cu8Ag8C
_symmetry_space_group_name_H-M   Pm
_cell_length_a   6.40797000
_cell_length_b   9.06224000
_cell_length_c   26.79670000
_cell_angle_alpha   90.00000000
_cell_angle_beta   90.00000000
_cell_angle_gamma   90.00000000
_symmetry_Int_Tables_number   6
_chemical_formula_structural   Li8In8Cu8Ag8C
_chemical_formula_sum   'Li8 In8 Cu8 Ag8 C1'
_cell_volume   1556.09943016
_cell_formula_units_Z   1
loop_
 _symmetry_equiv_pos_site_id
 _symmetry_equiv_pos_as_xyz
  1  'x, y, z'
  2  'x, -y, z'
loop_
 _atom_site_type_symbol
 _atom_site_label
 _atom_site_symmetry_multiplicity
 _atom_site_fract_x
 _atom_site_fract_y
 _atom_site_fract_z
 _atom_site_occupancy
  Li  Li0  2  0.23590000  0.24463000  0.04813000  1.0
  Li  Li1  2  0.25000000  0.25000000  0.87318000  1.0
  Li  Li2  1  0.69414000  0.00000000  0.14278000  1.0
  Li  Li3  1  0.75000000  0.00000000  0.95773000  1.0
  Li  Li4  1  0.75000000  0.50000000  0.95773000  1.0
  Li  Li5  1  0.77494000  0.50000000  0.13102000  1.0
  In  In6  2  0.00000000  0.25000000  0.95773000  1.0
  In  In7  2  0.00032000  0.24371000  0.14650000  1.0
  In  In8  1  0.49349000  0.50000000  0.04445000  1.0
  In  In9  1  0.50000000  0.00000000  0.87318000  1.0
  In  In10  1  0.50000000  0.50000000  0.87318000  1.0
  In  In11  1  0.51995000  0.00000000  0.04038000  1.0
  Cu  Cu12  2  0.75000000  0.25000000  0.87318000  1.0
  Cu  Cu13  2  0.75204000  0.25692000  0.04428000  1.0
  Cu  Cu14  1  0.21334000  0.50000000  0.12600000  1.0
  Cu  Cu15  1  0.25000000  0.00000000  0.95773000  1.0
  Cu  Cu16  1  0.25000000  0.50000000  0.95773000  1.0
  Cu  Cu17  1  0.29300000  0.00000000  0.12042000  1.0
  Ag  Ag18  2  0.49385000  0.26896000  0.12858000  1.0
  Ag  Ag19  2  0.50000000  0.25000000  0.95773000  1.0
  Ag  Ag20  1  -0.00000000  0.50000000  0.87318000  1.0
  Ag  Ag21  1  0.00000000  0.00000000  0.87318000  1.0
  Ag  Ag22  1  0.98684000  0.00000000  0.04533000  1.0
  Ag  Ag23  1  0.99666000  0.50000000  0.03907000  1.0
  C  C24  1  0.00702000  0.00000000  0.13521000  1.0
