# generated using pymatgen
data_Li8V8Ge8Pd8C
_symmetry_space_group_name_H-M   Pmm2
_cell_length_a   5.68832000
_cell_length_b   9.40562000
_cell_length_c   26.48090000
_cell_angle_alpha   90.00000000
_cell_angle_beta   90.00000000
_cell_angle_gamma   90.00000000
_symmetry_Int_Tables_number   25
_chemical_formula_structural   Li8V8Ge8Pd8C
_chemical_formula_sum   'Li8 V8 Ge8 Pd8 C1'
_cell_volume   1416.78578193
_cell_formula_units_Z   1
loop_
 _symmetry_equiv_pos_site_id
 _symmetry_equiv_pos_as_xyz
  1  'x, y, z'
  2  '-x, -y, z'
  3  '-x, y, z'
  4  'x, -y, z'
loop_
 _atom_site_type_symbol
 _atom_site_label
 _atom_site_symmetry_multiplicity
 _atom_site_fract_x
 _atom_site_fract_y
 _atom_site_fract_z
 _atom_site_occupancy
  Li  Li0  1  0.00000000  0.00000000  0.12237000  1.0
  Li  Li1  1  0.00000000  0.00000000  0.96360000  1.0
  Li  Li2  1  0.00000000  0.50000000  0.12237000  1.0
  Li  Li3  1  0.00000000  0.50000000  0.95687000  1.0
  Li  Li4  1  0.50000000  0.00000000  0.12237000  1.0
  Li  Li5  1  0.50000000  0.00000000  0.96839000  1.0
  Li  Li6  1  0.50000000  0.50000000  0.12237000  1.0
  Li  Li7  1  0.50000000  0.50000000  0.95704000  1.0
  V  V8  2  0.00000000  0.21925000  0.86616000  1.0
  V  V9  2  0.00000000  0.25002000  0.04079000  1.0
  V  V10  2  0.50000000  0.25002000  0.04079000  1.0
  V  V11  2  0.50000000  0.25141000  0.87823000  1.0
  Ge  Ge12  4  0.24044000  0.24802000  0.95457000  1.0
  Ge  Ge13  4  0.25000000  0.25002000  0.12237000  1.0
  Pd  Pd14  2  0.24724000  0.50000000  0.87429000  1.0
  Pd  Pd15  2  0.25000000  0.00000000  0.04079000  1.0
  Pd  Pd16  2  0.25000000  0.50000000  0.04079000  1.0
  Pd  Pd17  2  0.27644000  0.00000000  0.88959000  1.0
  C  C18  1  0.00000000  0.00000000  0.84305000  1.0
