# generated using pymatgen
data_Li8Mg8In8Ge8C
_symmetry_space_group_name_H-M   Pmm2
_cell_length_a   8.40992000
_cell_length_b   8.75068000
_cell_length_c   26.31390000
_cell_angle_alpha   90.00000000
_cell_angle_beta   90.00000000
_cell_angle_gamma   90.00000000
_symmetry_Int_Tables_number   25
_chemical_formula_structural   Li8Mg8In8Ge8C
_chemical_formula_sum   'Li8 Mg8 In8 Ge8 C1'
_cell_volume   1936.50617902
_cell_formula_units_Z   1
loop_
 _symmetry_equiv_pos_site_id
 _symmetry_equiv_pos_as_xyz
  1  'x, y, z'
  2  '-x, -y, z'
  3  '-x, y, z'
  4  'x, -y, z'
loop_
 _atom_site_type_symbol
 _atom_site_label
 _atom_site_symmetry_multiplicity
 _atom_site_fract_x
 _atom_site_fract_y
 _atom_site_fract_z
 _atom_site_occupancy
  Li  Li0  4  0.25000000  0.25000000  0.88003000  1.0
  Li  Li1  4  0.25935000  0.25574000  0.04112000  1.0
  Mg  Mg2  2  0.24281000  0.50000000  0.12058000  1.0
  Mg  Mg3  2  0.25000000  0.00000000  0.96001000  1.0
  Mg  Mg4  2  0.25000000  0.50000000  0.96001000  1.0
  Mg  Mg5  2  0.26125000  0.00000000  0.12388000  1.0
  In  In6  2  0.00000000  0.25000000  0.96001000  1.0
  In  In7  2  0.00000000  0.25370000  0.15238000  1.0
  In  In8  2  0.50000000  0.25000000  0.96001000  1.0
  In  In9  2  0.50000000  0.25745000  0.13568000  1.0
  Ge  Ge10  1  0.00000000  0.00000000  0.04268000  1.0
  Ge  Ge11  1  0.00000000  0.00000000  0.88003000  1.0
  Ge  Ge12  1  0.00000000  0.50000000  0.04489000  1.0
  Ge  Ge13  1  0.00000000  0.50000000  0.88003000  1.0
  Ge  Ge14  1  0.50000000  0.00000000  0.04584000  1.0
  Ge  Ge15  1  0.50000000  0.00000000  0.88003000  1.0
  Ge  Ge16  1  0.50000000  0.50000000  0.04555000  1.0
  Ge  Ge17  1  0.50000000  0.50000000  0.88003000  1.0
  C  C18  1  0.00000000  0.00000000  0.11934000  1.0
