# generated using pymatgen
data_ZrGaNi2
_symmetry_space_group_name_H-M   Pmm2
_cell_length_a   4.34791500
_cell_length_b   6.14888000
_cell_length_c   26.52190000
_cell_angle_alpha   90.00000000
_cell_angle_beta   90.00000000
_cell_angle_gamma   90.00000000
_symmetry_Int_Tables_number   25
_chemical_formula_structural   ZrGaNi2
_chemical_formula_sum   'Zr4 Ga4 Ni8'
_cell_volume   709.05789329
_cell_formula_units_Z   4
loop_
 _symmetry_equiv_pos_site_id
 _symmetry_equiv_pos_as_xyz
  1  'x, y, z'
  2  '-x, -y, z'
  3  '-x, y, z'
  4  'x, -y, z'
loop_
 _atom_site_type_symbol
 _atom_site_label
 _atom_site_symmetry_multiplicity
 _atom_site_fract_x
 _atom_site_fract_y
 _atom_site_fract_z
 _atom_site_occupancy
  Zr  Zr0  1  0.00000000  0.00000000  0.12295000  1.0
  Zr  Zr1  1  0.00000000  0.00000000  0.96010000  1.0
  Zr  Zr2  1  0.50000000  0.50000000  0.04098000  1.0
  Zr  Zr3  1  0.50000000  0.50000000  0.87304500  1.0
  Ga  Ga4  1  0.00000000  0.50000000  0.12295000  1.0
  Ga  Ga5  1  0.00000000  0.50000000  0.95754000  1.0
  Ga  Ga6  1  0.50000000  0.00000000  0.04098000  1.0
  Ga  Ga7  1  0.50000000  0.00000000  0.87831000  1.0
  Ni  Ni8  2  0.00000000  0.23778000  0.88156500  1.0
  Ni  Ni9  2  0.00000000  0.25000000  0.04098000  1.0
  Ni  Ni10  2  0.50000000  0.25000000  0.12295000  1.0
  Ni  Ni11  2  0.50000000  0.26903000  0.95591000  1.0
