# generated using pymatgen
data_Zr16Os16CO
_symmetry_space_group_name_H-M   'P 1'
_cell_length_a   6.57738000
_cell_length_b   9.30182000
_cell_length_c   26.97640000
_cell_angle_alpha   90.00000000
_cell_angle_beta   90.00000000
_cell_angle_gamma   90.00000000
_symmetry_Int_Tables_number   1
_chemical_formula_structural   Zr16Os16CO
_chemical_formula_sum   'Zr16 Os16 C1 O1'
_cell_volume   1650.45944458
_cell_formula_units_Z   1
loop_
 _symmetry_equiv_pos_site_id
 _symmetry_equiv_pos_as_xyz
  1  'x, y, z'
loop_
 _atom_site_type_symbol
 _atom_site_label
 _atom_site_symmetry_multiplicity
 _atom_site_fract_x
 _atom_site_fract_y
 _atom_site_fract_z
 _atom_site_occupancy
  Zr  Zr0  1  0.25000000  0.00000000  0.87069000  1.0
  Zr  Zr1  1  0.25000000  0.75000000  0.95690000  1.0
  Zr  Zr2  1  0.25409000  0.00000000  0.04370000  1.0
  Zr  Zr3  1  0.25229000  0.25138000  0.13176000  1.0
  Zr  Zr4  1  0.25000000  0.50000000  0.87069000  1.0
  Zr  Zr5  1  0.25000000  0.25000000  0.95690000  1.0
  Zr  Zr6  1  0.24950000  0.50000000  0.04449000  1.0
  Zr  Zr7  1  0.25229000  0.74862000  0.13176000  1.0
  Zr  Zr8  1  0.75000000  0.00000000  0.87069000  1.0
  Zr  Zr9  1  0.75000000  0.75000000  0.95690000  1.0
  Zr  Zr10  1  0.74591000  0.00000000  0.04370000  1.0
  Zr  Zr11  1  0.74771000  0.25138000  0.13176000  1.0
  Zr  Zr12  1  0.75000000  0.50000000  0.87069000  1.0
  Zr  Zr13  1  0.75000000  0.25000000  0.95690000  1.0
  Zr  Zr14  1  0.75050000  0.50000000  0.04449000  1.0
  Zr  Zr15  1  0.74771000  0.74862000  0.13176000  1.0
  Os  Os16  1  0.00000000  0.75000000  0.87069000  1.0
  Os  Os17  1  0.00000000  0.00000000  0.95690000  1.0
  Os  Os18  1  0.00000000  0.75480000  0.04457000  1.0
  Os  Os19  1  0.00000000  0.00000000  0.12928000  1.0
  Os  Os20  1  0.00000000  0.25000000  0.87069000  1.0
  Os  Os21  1  0.00000000  0.50000000  0.95690000  1.0
  Os  Os22  1  0.00000000  0.24520000  0.04457000  1.0
  Os  Os23  1  0.00000000  0.50000000  0.12364000  1.0
  Os  Os24  1  0.50000000  0.75000000  0.87069000  1.0
  Os  Os25  1  0.50000000  0.00000000  0.95690000  1.0
  Os  Os26  1  0.50000000  0.74898000  0.04417000  1.0
  Os  Os27  1  0.50000000  0.00000000  0.12318000  1.0
  Os  Os28  1  0.50000000  0.25000000  0.87069000  1.0
  Os  Os29  1  0.50000000  0.50000000  0.95690000  1.0
  Os  Os30  1  0.50000000  0.25102000  0.04417000  1.0
  Os  Os31  1  0.50000000  0.50000000  0.12355000  1.0
  C  C32  1  0.00000000  0.00000000  0.19877000  1.0
  O  O33  1  0.00000000  0.00000000  0.24236000  1.0
