# generated using pymatgen
data_Ga8Fe24CO
_symmetry_space_group_name_H-M   'P 1'
_cell_length_a   8.21811000
_cell_length_b   5.81108000
_cell_length_c   26.16360000
_cell_angle_alpha   90.00000000
_cell_angle_beta   90.00000000
_cell_angle_gamma   90.00000000
_symmetry_Int_Tables_number   1
_chemical_formula_structural   Ga8Fe24CO
_chemical_formula_sum   'Ga8 Fe24 C1 O1'
_cell_volume   1249.47135821
_cell_formula_units_Z   1
loop_
 _symmetry_equiv_pos_site_id
 _symmetry_equiv_pos_as_xyz
  1  'x, y, z'
loop_
 _atom_site_type_symbol
 _atom_site_label
 _atom_site_symmetry_multiplicity
 _atom_site_fract_x
 _atom_site_fract_y
 _atom_site_fract_z
 _atom_site_occupancy
  Ga  Ga0  1  0.00000000  0.00000000  0.11779000  1.0
  Ga  Ga1  1  0.25000000  0.50000000  0.03926000  1.0
  Ga  Ga2  1  0.75000000  0.50000000  0.03926000  1.0
  Ga  Ga3  1  0.50000000  1.00000000  0.11779000  1.0
  Ga  Ga4  1  0.50000000  1.00000000  0.96074000  1.0
  Ga  Ga5  1  0.75000000  0.50000000  0.88221000  1.0
  Ga  Ga6  1  0.25000000  0.50000000  0.88221000  1.0
  Ga  Ga7  1  0.00000000  0.00000000  0.96074000  1.0
  Fe  Fe8  1  0.00000000  0.25000000  0.03926000  1.0
  Fe  Fe9  1  0.50000000  0.75000000  0.03926000  1.0
  Fe  Fe10  1  0.00000000  0.75000000  0.03926000  1.0
  Fe  Fe11  1  0.50000000  0.25000000  0.03926000  1.0
  Fe  Fe12  1  0.75000000  0.75000000  0.11779000  1.0
  Fe  Fe13  1  0.25000000  0.25000000  0.11779000  1.0
  Fe  Fe14  1  0.75000000  0.25000000  0.11779000  1.0
  Fe  Fe15  1  0.25000000  0.75000000  0.11779000  1.0
  Fe  Fe16  1  0.75000000  1.00000000  0.03926000  1.0
  Fe  Fe17  1  0.00000000  0.50000000  0.11779000  1.0
  Fe  Fe18  1  0.25000000  1.00000000  0.03926000  1.0
  Fe  Fe19  1  0.50000000  0.50000000  0.11779000  1.0
  Fe  Fe20  1  0.50000000  0.25000000  0.88221000  1.0
  Fe  Fe21  1  0.00000000  0.75000000  0.88221000  1.0
  Fe  Fe22  1  0.50000000  0.75000000  0.88221000  1.0
  Fe  Fe23  1  0.00000000  0.25000000  0.88221000  1.0
  Fe  Fe24  1  0.25000000  0.75000000  0.96074000  1.0
  Fe  Fe25  1  0.75000000  0.25000000  0.96074000  1.0
  Fe  Fe26  1  0.25000000  0.25000000  0.96074000  1.0
  Fe  Fe27  1  0.75000000  0.75000000  0.96074000  1.0
  Fe  Fe28  1  0.25000000  0.00000000  0.88221000  1.0
  Fe  Fe29  1  0.50000000  0.50000000  0.96074000  1.0
  Fe  Fe30  1  0.75000000  0.00000000  0.88221000  1.0
  Fe  Fe31  1  0.00000000  0.50000000  0.96074000  1.0
  C  C32  1  0.00000000  0.25000000  0.80959000  1.0
  O  O33  1  0.00000000  0.25000000  0.76564000  1.0
