# generated using pymatgen
data_Li8Mg8Cu8Pd8C
_symmetry_space_group_name_H-M   'P 1'
_cell_length_a   7.89062000
_cell_length_b   7.95764000
_cell_length_c   25.67580000
_cell_angle_alpha   90.00000000
_cell_angle_beta   90.00000000
_cell_angle_gamma   90.00000000
_symmetry_Int_Tables_number   1
_chemical_formula_structural   Li8Mg8Cu8Pd8C
_chemical_formula_sum   'Li8 Mg8 Cu8 Pd8 C1'
_cell_volume   1612.20179749
_cell_formula_units_Z   1
loop_
 _symmetry_equiv_pos_site_id
 _symmetry_equiv_pos_as_xyz
  1  'x, y, z'
loop_
 _atom_site_type_symbol
 _atom_site_label
 _atom_site_symmetry_multiplicity
 _atom_site_fract_x
 _atom_site_fract_y
 _atom_site_fract_z
 _atom_site_occupancy
  Li  Li0  1  0.00000000  0.75000000  0.96316000  1.0
  Li  Li1  1  0.00000000  0.75000000  0.11053000  1.0
  Li  Li2  1  0.00000000  0.25000000  0.96316000  1.0
  Li  Li3  1  0.00000000  0.25000000  0.11053000  1.0
  Li  Li4  1  0.50000000  0.75000000  0.96316000  1.0
  Li  Li5  1  0.50000000  0.75000000  0.11053000  1.0
  Li  Li6  1  0.50000000  0.25000000  0.96316000  1.0
  Li  Li7  1  0.50000000  0.25000000  0.11053000  1.0
  Mg  Mg8  1  0.75000000  0.00000000  0.96316000  1.0
  Mg  Mg9  1  0.75000000  0.00000000  0.11053000  1.0
  Mg  Mg10  1  0.75000000  0.50000000  0.96316000  1.0
  Mg  Mg11  1  0.75000000  0.50000000  0.11053000  1.0
  Mg  Mg12  1  0.25000000  0.00000000  0.96316000  1.0
  Mg  Mg13  1  0.25000000  0.00000000  0.11053000  1.0
  Mg  Mg14  1  0.25000000  0.50000000  0.96316000  1.0
  Mg  Mg15  1  0.25000000  0.50000000  0.11053000  1.0
  Cu  Cu16  1  0.75000000  0.75000000  0.88947000  1.0
  Cu  Cu17  1  0.75000000  0.75000000  0.03684000  1.0
  Cu  Cu18  1  0.75000000  0.25000000  0.88947000  1.0
  Cu  Cu19  1  0.75000000  0.25000000  0.03684000  1.0
  Cu  Cu20  1  0.25000000  0.75000000  0.88947000  1.0
  Cu  Cu21  1  0.25000000  0.75000000  0.03684000  1.0
  Cu  Cu22  1  0.25000000  0.25000000  0.88947000  1.0
  Cu  Cu23  1  0.25000000  0.25000000  0.03684000  1.0
  Pd  Pd24  1  0.00000000  0.00000000  0.88947000  1.0
  Pd  Pd25  1  0.00000000  0.00000000  0.03684000  1.0
  Pd  Pd26  1  0.00000000  0.50000000  0.88947000  1.0
  Pd  Pd27  1  0.00000000  0.50000000  0.03684000  1.0
  Pd  Pd28  1  0.50000000  0.00000000  0.88947000  1.0
  Pd  Pd29  1  0.50000000  0.00000000  0.03684000  1.0
  Pd  Pd30  1  0.50000000  0.50000000  0.88947000  1.0
  Pd  Pd31  1  0.50000000  0.50000000  0.03684000  1.0
  C  C32  1  0.00000000  0.00000000  0.14169000  1.0
