# generated using pymatgen
data_Li8Y8In8Pd8C
_symmetry_space_group_name_H-M   Pm
_cell_length_a   6.81638000
_cell_length_b   9.63982000
_cell_length_c   27.22990000
_cell_angle_alpha   90.00000000
_cell_angle_beta   90.00000000
_cell_angle_gamma   90.00000000
_symmetry_Int_Tables_number   6
_chemical_formula_structural   Li8Y8In8Pd8C
_chemical_formula_sum   'Li8 Y8 In8 Pd8 C1'
_cell_volume   1789.24068346
_cell_formula_units_Z   1
loop_
 _symmetry_equiv_pos_site_id
 _symmetry_equiv_pos_as_xyz
  1  'x, y, z'
  2  'x, -y, z'
loop_
 _atom_site_type_symbol
 _atom_site_label
 _atom_site_symmetry_multiplicity
 _atom_site_fract_x
 _atom_site_fract_y
 _atom_site_fract_z
 _atom_site_occupancy
  Li  Li0  2  0.25000000  0.25000000  0.86724000  1.0
  Li  Li1  2  0.26469000  0.24189000  0.04701000  1.0
  Li  Li2  1  0.56908000  0.50000000  0.18629000  1.0
  Li  Li3  1  0.63107000  0.00000000  0.17826000  1.0
  Li  Li4  1  0.75000000  0.00000000  0.95575000  1.0
  Li  Li5  1  0.75000000  0.50000000  0.95575000  1.0
  Y  Y6  2  0.00000000  0.25000000  0.95575000  1.0
  Y  Y7  2  0.94066000  0.23060000  0.13124000  1.0
  Y  Y8  1  0.50000000  0.00000000  0.86724000  1.0
  Y  Y9  1  0.50000000  0.50000000  0.86724000  1.0
  Y  Y10  1  0.51538000  0.50000000  0.05628000  1.0
  Y  Y11  1  0.57805000  0.00000000  0.06875000  1.0
  In  In12  2  0.44491000  0.25172000  0.14310000  1.0
  In  In13  2  0.50000000  0.25000000  0.95575000  1.0
  In  In14  1  0.00000000  0.00000000  0.86724000  1.0
  In  In15  1  0.00000000  0.50000000  0.86724000  1.0
  In  In16  1  0.00863000  0.50000000  0.04346000  1.0
  In  In17  1  0.02072000  0.00000000  0.04225000  1.0
  Pd  Pd18  2  0.74907000  0.26143000  0.03670000  1.0
  Pd  Pd19  2  0.75000000  0.25000000  0.86724000  1.0
  Pd  Pd20  1  0.23046000  0.50000000  0.12914000  1.0
  Pd  Pd21  1  0.23652000  0.00000000  0.12985000  1.0
  Pd  Pd22  1  0.25000000  0.00000000  0.95575000  1.0
  Pd  Pd23  1  0.25000000  0.50000000  0.95575000  1.0
  C  C24  1  0.85590000  0.00000000  0.12435000  1.0
