# generated using pymatgen
data_Li4In4Ge4Au4C
_symmetry_space_group_name_H-M   P1
_cell_length_a   5.96101000
_cell_length_b   8.57796000
_cell_length_c   24.47060000
_cell_angle_alpha   90.00000000
_cell_angle_beta   90.00000000
_cell_angle_gamma   90.00000000
_symmetry_Int_Tables_number   1
_chemical_formula_structural   Li4In4Ge4Au4C
_chemical_formula_sum   'Li4 In4 Ge4 Au4 C1'
_cell_volume   1251.26266164
_cell_formula_units_Z   1
loop_
 _symmetry_equiv_pos_site_id
 _symmetry_equiv_pos_as_xyz
  1  'x, y, z'
loop_
 _atom_site_type_symbol
 _atom_site_label
 _atom_site_symmetry_multiplicity
 _atom_site_fract_x
 _atom_site_fract_y
 _atom_site_fract_z
 _atom_site_occupancy
  Li  Li0  1  0.43028000  0.44535000  0.10423000  1.0
  Li  Li1  1  0.43051000  0.05467000  0.10417000  1.0
  Li  Li2  1  0.99580000  0.00000000  0.96955000  1.0
  Li  Li3  1  0.99580000  0.50000000  0.96955000  1.0
  In  In4  1  0.23168000  0.25002000  0.02016000  1.0
  In  In5  1  0.31081000  0.75000000  0.03774000  1.0
  In  In6  1  0.74371000  0.25000000  0.90865000  1.0
  In  In7  1  0.74371000  0.75000000  0.90865000  1.0
  Ge  Ge8  1  0.24371000  0.25000000  0.90865000  1.0
  Ge  Ge9  1  0.24371000  0.75000000  0.90865000  1.0
  Ge  Ge10  1  0.71096000  0.25000000  0.03170000  1.0
  Ge  Ge11  1  0.78206000  0.74998000  0.07829000  1.0
  Au  Au12  1  0.49580000  0.00000000  0.96955000  1.0
  Au  Au13  1  0.49580000  0.50000000  0.96955000  1.0
  Au  Au14  1  0.94570000  0.02465000  0.09464000  1.0
  Au  Au15  1  0.94573000  0.47531000  0.09462000  1.0
  C  C16  1  0.10323000  0.24998000  0.10590000  1.0
