# generated using pymatgen
data_Mg4Ag12C
_symmetry_space_group_name_H-M   Pmm2
_cell_length_a   5.96164000
_cell_length_b   8.43103000
_cell_length_c   24.47120000
_cell_angle_alpha   90.00000000
_cell_angle_beta   90.00000000
_cell_angle_gamma   90.00000000
_symmetry_Int_Tables_number   25
_chemical_formula_structural   Mg4Ag12C
_chemical_formula_sum   'Mg4 Ag12 C1'
_cell_volume   1229.99019173
_cell_formula_units_Z   1
loop_
 _symmetry_equiv_pos_site_id
 _symmetry_equiv_pos_as_xyz
  1  'x, y, z'
  2  '-x, -y, z'
  3  '-x, y, z'
  4  'x, -y, z'
loop_
 _atom_site_type_symbol
 _atom_site_label
 _atom_site_symmetry_multiplicity
 _atom_site_fract_x
 _atom_site_fract_y
 _atom_site_fract_z
 _atom_site_occupancy
  Mg  Mg0  1  0.00000000  0.00000000  0.09136000  1.0
  Mg  Mg1  1  0.00000000  0.50000000  0.09136000  1.0
  Mg  Mg2  1  0.50000000  0.00000000  0.98050000  1.0
  Mg  Mg3  1  0.50000000  0.50000000  0.95943000  1.0
  Ag  Ag4  4  0.25000000  0.25000000  0.03045000  1.0
  Ag  Ag5  4  0.25693000  0.21250000  0.90635000  1.0
  Ag  Ag6  1  0.00000000  0.00000000  0.97401000  1.0
  Ag  Ag7  1  0.00000000  0.50000000  0.95209000  1.0
  Ag  Ag8  1  0.50000000  0.00000000  0.09136000  1.0
  Ag  Ag9  1  0.50000000  0.50000000  0.09136000  1.0
  C  C10  1  0.50000000  0.00000000  0.89191000  1.0
