# generated using pymatgen
data_Sc4Al4In4Pd4C
_symmetry_space_group_name_H-M   Pm
_cell_length_a   5.97945000
_cell_length_b   8.33700000
_cell_length_c   24.48170000
_cell_angle_alpha   90.00000000
_cell_angle_beta   90.00000000
_cell_angle_gamma   90.00000000
_symmetry_Int_Tables_number   6
_chemical_formula_structural   Sc4Al4In4Pd4C
_chemical_formula_sum   'Sc4 Al4 In4 Pd4 C1'
_cell_volume   1220.42926158
_cell_formula_units_Z   1
loop_
 _symmetry_equiv_pos_site_id
 _symmetry_equiv_pos_as_xyz
  1  'x, y, z'
  2  'x, -y, z'
loop_
 _atom_site_type_symbol
 _atom_site_label
 _atom_site_symmetry_multiplicity
 _atom_site_fract_x
 _atom_site_fract_y
 _atom_site_fract_z
 _atom_site_occupancy
  Sc  Sc0  1  0.50000000  0.00000000  0.90847000  1.0
  Sc  Sc1  1  0.50000000  0.50000000  0.90847000  1.0
  Sc  Sc2  1  0.95023000  0.00000000  0.02186000  1.0
  Sc  Sc3  1  0.98946000  0.50000000  0.04315000  1.0
  Al  Al4  1  0.00000000  0.00000000  0.90847000  1.0
  Al  Al5  1  0.00000000  0.50000000  0.90847000  1.0
  Al  Al6  1  0.46446000  0.00000000  0.02956000  1.0
  Al  Al7  1  0.48905000  0.50000000  0.04067000  1.0
  In  In8  2  0.24098000  0.25000000  0.96949000  1.0
  In  In9  2  0.71375000  0.22137000  0.11085000  1.0
  Pd  Pd10  2  0.21767000  0.19568000  0.08841000  1.0
  Pd  Pd11  2  0.74098000  0.25000000  0.96949000  1.0
  C  C12  1  0.97841000  0.00000000  0.10732000  1.0
