# generated using pymatgen
data_Li2InPt
_symmetry_space_group_name_H-M   'P 1'
_cell_length_a   6.43375000
_cell_length_b   4.54935000
_cell_length_c   26.82400000
_cell_angle_alpha   90.00000000
_cell_angle_beta   90.00000000
_cell_angle_gamma   90.00000000
_symmetry_Int_Tables_number   1
_chemical_formula_structural   Li2InPt
_chemical_formula_sum   'Li8 In4 Pt4'
_cell_volume   785.12186421
_cell_formula_units_Z   4
loop_
 _symmetry_equiv_pos_site_id
 _symmetry_equiv_pos_as_xyz
  1  'x, y, z'
loop_
 _atom_site_type_symbol
 _atom_site_label
 _atom_site_symmetry_multiplicity
 _atom_site_fract_x
 _atom_site_fract_y
 _atom_site_fract_z
 _atom_site_occupancy
  Li  Li0  1  0.00000000  0.50000000  0.95760000  1.0
  Li  Li1  1  0.50000000  0.00000000  0.87280000  1.0
  Li  Li2  1  0.75000000  0.50000000  0.87280000  1.0
  Li  Li3  1  0.25000000  0.00000000  0.95760000  1.0
  Li  Li4  1  0.99682500  0.50000000  0.12500000  1.0
  Li  Li5  1  0.50483500  0.00000000  0.04295000  1.0
  Li  Li6  1  0.74834500  0.50000000  0.03951000  1.0
  Li  Li7  1  0.27385000  0.00000000  0.12797000  1.0
  In  In8  1  0.75000000  0.00000000  0.95760000  1.0
  In  In9  1  0.25000000  0.50000000  0.87280000  1.0
  In  In10  1  0.74253000  0.00000000  0.13445000  1.0
  In  In11  1  0.24312500  0.50000000  0.04067500  1.0
  Pt  Pt12  1  0.00000000  0.00000000  0.87280000  1.0
  Pt  Pt13  1  0.50000000  0.50000000  0.95760000  1.0
  Pt  Pt14  1  0.99282000  0.00000000  0.04588500  1.0
  Pt  Pt15  1  0.51358000  0.50000000  0.11796000  1.0
