# generated using pymatgen
data_Li4Y4Sn4Ge4C
_symmetry_space_group_name_H-M   Pm
_cell_length_a   6.38551000
_cell_length_b   8.52742000
_cell_length_c   24.76910000
_cell_angle_alpha   90.00000000
_cell_angle_beta   90.00000000
_cell_angle_gamma   90.00000000
_symmetry_Int_Tables_number   6
_chemical_formula_structural   Li4Y4Sn4Ge4C
_chemical_formula_sum   'Li4 Y4 Sn4 Ge4 C1'
_cell_volume   1348.72519246
_cell_formula_units_Z   1
loop_
 _symmetry_equiv_pos_site_id
 _symmetry_equiv_pos_as_xyz
  1  'x, y, z'
  2  'x, -y, z'
loop_
 _atom_site_type_symbol
 _atom_site_label
 _atom_site_symmetry_multiplicity
 _atom_site_fract_x
 _atom_site_fract_y
 _atom_site_fract_z
 _atom_site_occupancy
  Li  Li0  1  0.18150000  0.00000000  0.90373000  1.0
  Li  Li1  1  0.18150000  0.50000000  0.90373000  1.0
  Li  Li2  1  0.70736000  0.50000000  0.02784000  1.0
  Li  Li3  1  0.74913000  0.00000000  0.04328000  1.0
  Y  Y4  1  0.20914000  0.50000000  0.03491000  1.0
  Y  Y5  1  0.23565000  0.00000000  0.02881000  1.0
  Y  Y6  1  0.68150000  0.00000000  0.90373000  1.0
  Y  Y7  1  0.68150000  0.50000000  0.90373000  1.0
  Sn  Sn8  2  0.51481000  0.25740000  0.08609000  1.0
  Sn  Sn9  2  0.95433000  0.24999000  0.96791000  1.0
  Ge  Ge10  2  0.45433000  0.24999000  0.96791000  1.0
  Ge  Ge11  2  0.98421000  0.22040000  0.10714000  1.0
  C  C12  1  0.00218000  0.00000000  0.10145000  1.0
