# generated using pymatgen
data_Zn16Cu16C
_symmetry_space_group_name_H-M   'P 1'
_cell_length_a   5.98486000
_cell_length_b   8.46387000
_cell_length_c   26.34790000
_cell_angle_alpha   90.00000000
_cell_angle_beta   90.00000000
_cell_angle_gamma   90.00000000
_symmetry_Int_Tables_number   1
_chemical_formula_structural   Zn16Cu16C
_chemical_formula_sum   'Zn16 Cu16 C1'
_cell_volume   1334.65490350
_cell_formula_units_Z   1
loop_
 _symmetry_equiv_pos_site_id
 _symmetry_equiv_pos_as_xyz
  1  'x, y, z'
loop_
 _atom_site_type_symbol
 _atom_site_label
 _atom_site_symmetry_multiplicity
 _atom_site_fract_x
 _atom_site_fract_y
 _atom_site_fract_z
 _atom_site_occupancy
  Zn  Zn0  1  0.25000000  0.25000000  0.87954000  1.0
  Zn  Zn1  1  0.25000000  0.00000000  0.95985000  1.0
  Zn  Zn2  1  0.25159000  0.25105000  0.03861000  1.0
  Zn  Zn3  1  0.30635000  0.00000000  0.14076000  1.0
  Zn  Zn4  1  0.25000000  0.75000000  0.87954000  1.0
  Zn  Zn5  1  0.25000000  0.50000000  0.95985000  1.0
  Zn  Zn6  1  0.25159000  0.74895000  0.03861000  1.0
  Zn  Zn7  1  0.22482000  0.50000000  0.12620000  1.0
  Zn  Zn8  1  0.75000000  0.25000000  0.87954000  1.0
  Zn  Zn9  1  0.75000000  0.00000000  0.95985000  1.0
  Zn  Zn10  1  0.74841000  0.25105000  0.03861000  1.0
  Zn  Zn11  1  0.69365000  0.00000000  0.14076000  1.0
  Zn  Zn12  1  0.75000000  0.75000000  0.87954000  1.0
  Zn  Zn13  1  0.75000000  0.50000000  0.95985000  1.0
  Zn  Zn14  1  0.74841000  0.74895000  0.03861000  1.0
  Zn  Zn15  1  0.77518000  0.50000000  0.12620000  1.0
  Cu  Cu16  1  0.00000000  0.00000000  0.87954000  1.0
  Cu  Cu17  1  0.00000000  0.25000000  0.95985000  1.0
  Cu  Cu18  1  0.00000000  0.00000000  0.04316000  1.0
  Cu  Cu19  1  0.00000000  0.23424000  0.11822000  1.0
  Cu  Cu20  1  0.00000000  0.50000000  0.87954000  1.0
  Cu  Cu21  1  0.00000000  0.75000000  0.95985000  1.0
  Cu  Cu22  1  0.00000000  0.50000000  0.03978000  1.0
  Cu  Cu23  1  0.00000000  0.76576000  0.11822000  1.0
  Cu  Cu24  1  0.50000000  0.00000000  0.87954000  1.0
  Cu  Cu25  1  0.50000000  0.25000000  0.95985000  1.0
  Cu  Cu26  1  0.50000000  0.00000000  0.03997000  1.0
  Cu  Cu27  1  0.50000000  0.26723000  0.11732000  1.0
  Cu  Cu28  1  0.50000000  0.50000000  0.87954000  1.0
  Cu  Cu29  1  0.50000000  0.75000000  0.95985000  1.0
  Cu  Cu30  1  0.50000000  0.50000000  0.04496000  1.0
  Cu  Cu31  1  0.50000000  0.73277000  0.11732000  1.0
  C  C32  1  0.00000000  0.00000000  0.12036000  1.0
