# generated using pymatgen
data_Zn16Cu16C
_symmetry_space_group_name_H-M   Pmm2
_cell_length_a   5.98486000
_cell_length_b   8.46387000
_cell_length_c   26.34790000
_cell_angle_alpha   90.00000000
_cell_angle_beta   90.00000000
_cell_angle_gamma   90.00000000
_symmetry_Int_Tables_number   25
_chemical_formula_structural   Zn16Cu16C
_chemical_formula_sum   'Zn16 Cu16 C1'
_cell_volume   1334.65490350
_cell_formula_units_Z   1
loop_
 _symmetry_equiv_pos_site_id
 _symmetry_equiv_pos_as_xyz
  1  'x, y, z'
  2  '-x, -y, z'
  3  '-x, y, z'
  4  'x, -y, z'
loop_
 _atom_site_type_symbol
 _atom_site_label
 _atom_site_symmetry_multiplicity
 _atom_site_fract_x
 _atom_site_fract_y
 _atom_site_fract_z
 _atom_site_occupancy
  Zn  Zn0  4  0.25000000  0.25000000  0.87954000  1.0
  Zn  Zn1  4  0.25159000  0.25105000  0.03861000  1.0
  Zn  Zn2  2  0.22482000  0.50000000  0.12620000  1.0
  Zn  Zn3  2  0.25000000  0.00000000  0.95985000  1.0
  Zn  Zn4  2  0.25000000  0.50000000  0.95985000  1.0
  Zn  Zn5  2  0.30635000  0.00000000  0.14076000  1.0
  Cu  Cu6  2  0.00000000  0.23424000  0.11822000  1.0
  Cu  Cu7  2  0.00000000  0.25000000  0.95985000  1.0
  Cu  Cu8  2  0.50000000  0.25000000  0.95985000  1.0
  Cu  Cu9  2  0.50000000  0.26723000  0.11732000  1.0
  Cu  Cu10  1  0.00000000  0.00000000  0.04316000  1.0
  Cu  Cu11  1  0.00000000  0.00000000  0.87954000  1.0
  Cu  Cu12  1  0.00000000  0.50000000  0.03978000  1.0
  Cu  Cu13  1  0.00000000  0.50000000  0.87954000  1.0
  Cu  Cu14  1  0.50000000  0.00000000  0.03997000  1.0
  Cu  Cu15  1  0.50000000  0.00000000  0.87954000  1.0
  Cu  Cu16  1  0.50000000  0.50000000  0.04496000  1.0
  Cu  Cu17  1  0.50000000  0.50000000  0.87954000  1.0
  C  C18  1  0.00000000  0.00000000  0.12036000  1.0
