# generated using pymatgen
data_Cr4Ga4Fe8CO
_symmetry_space_group_name_H-M   P1
_cell_length_a   6.89656000
_cell_length_b   6.89656000
_cell_length_c   25.17240000
_cell_angle_alpha   90.00000000
_cell_angle_beta   90.00000000
_cell_angle_gamma   90.00000000
_symmetry_Int_Tables_number   1
_chemical_formula_structural   Cr4Ga4Fe8CO
_chemical_formula_sum   'Cr4 Ga4 Fe8 C1 O1'
_cell_volume   1197.26327771
_cell_formula_units_Z   1
loop_
 _symmetry_equiv_pos_site_id
 _symmetry_equiv_pos_as_xyz
  1  'x, y, z'
loop_
 _atom_site_type_symbol
 _atom_site_label
 _atom_site_symmetry_multiplicity
 _atom_site_fract_x
 _atom_site_fract_y
 _atom_site_fract_z
 _atom_site_occupancy
  Cr  Cr0  1  0.00000000  0.50000000  0.96575000  1.0
  Cr  Cr1  1  0.05205000  0.95713000  0.06731000  1.0
  Cr  Cr2  1  0.45751000  0.49521000  0.06837000  1.0
  Cr  Cr3  1  0.50000000  0.00000000  0.96575000  1.0
  Ga  Ga4  1  0.00000000  0.00000000  0.96575000  1.0
  Ga  Ga5  1  0.05479000  0.53398000  0.06177000  1.0
  Ga  Ga6  1  0.45494000  0.02938000  0.06170000  1.0
  Ga  Ga7  1  0.50000000  0.50000000  0.96575000  1.0
  Fe  Fe8  1  0.24894000  0.24936000  0.99617000  1.0
  Fe  Fe9  1  0.25000000  0.25000000  0.89726000  1.0
  Fe  Fe10  1  0.25000000  0.75000000  0.89726000  1.0
  Fe  Fe11  1  0.25097000  0.74983000  0.99617000  1.0
  Fe  Fe12  1  0.74949000  0.24964000  0.00044000  1.0
  Fe  Fe13  1  0.74995000  0.74586000  0.99615000  1.0
  Fe  Fe14  1  0.75000000  0.25000000  0.89726000  1.0
  Fe  Fe15  1  0.75000000  0.75000000  0.89726000  1.0
  C  C16  1  0.01602000  0.99739000  0.14631000  1.0
  O  O17  1  0.99304000  0.01386000  0.19134000  1.0
