# generated using pymatgen
data_YMnInPd
_symmetry_space_group_name_H-M   'P 1'
_cell_length_a   6.85874000
_cell_length_b   9.69972000
_cell_length_c   27.27480000
_cell_angle_alpha   90.00000000
_cell_angle_beta   90.00000000
_cell_angle_gamma   90.00000000
_symmetry_Int_Tables_number   1
_chemical_formula_structural   YMnInPd
_chemical_formula_sum   'Y8 Mn8 In8 Pd8'
_cell_volume   1814.53400918
_cell_formula_units_Z   8
loop_
 _symmetry_equiv_pos_site_id
 _symmetry_equiv_pos_as_xyz
  1  'x, y, z'
loop_
 _atom_site_type_symbol
 _atom_site_label
 _atom_site_symmetry_multiplicity
 _atom_site_fract_x
 _atom_site_fract_y
 _atom_site_fract_z
 _atom_site_occupancy
  Y  Y0  1  0.00000000  0.25000000  0.95555000  1.0
  Y  Y1  1  0.00000000  0.75000000  0.95555000  1.0
  Y  Y2  1  0.50000000  0.50000000  0.86664000  1.0
  Y  Y3  1  0.50000000  0.00000000  0.86664000  1.0
  Y  Y4  1  0.97563000  0.75001000  0.13544000  1.0
  Y  Y5  1  0.97556000  0.24988000  0.13532000  1.0
  Y  Y6  1  0.50099000  0.99996000  0.04383000  1.0
  Y  Y7  1  0.50092000  0.50005000  0.04381000  1.0
  Mn  Mn8  1  0.75000000  0.00000000  0.95555000  1.0
  Mn  Mn9  1  0.75000000  0.50000000  0.95555000  1.0
  Mn  Mn10  1  0.25000000  0.25000000  0.86664000  1.0
  Mn  Mn11  1  0.25000000  0.75000000  0.86664000  1.0
  Mn  Mn12  1  0.68098000  0.49998000  0.14754000  1.0
  Mn  Mn13  1  0.68075000  0.99996000  0.14761000  1.0
  Mn  Mn14  1  0.23527000  0.75001000  0.05003000  1.0
  Mn  Mn15  1  0.23542000  0.25000000  0.04996000  1.0
  In  In16  1  0.00000000  0.00000000  0.86664000  1.0
  In  In17  1  0.00000000  0.50000000  0.86664000  1.0
  In  In18  1  0.50000000  0.75000000  0.95555000  1.0
  In  In19  1  0.50000000  0.25000000  0.95555000  1.0
  In  In20  1  0.98634000  0.49999000  0.04565000  1.0
  In  In21  1  0.98642000  0.00001000  0.04563000  1.0
  In  In22  1  0.48178000  0.24999000  0.13633000  1.0
  In  In23  1  0.48170000  0.74995000  0.13642000  1.0
  Pd  Pd24  1  0.25000000  0.00000000  0.95555000  1.0
  Pd  Pd25  1  0.25000000  0.50000000  0.95555000  1.0
  Pd  Pd26  1  0.75000000  0.25000000  0.86664000  1.0
  Pd  Pd27  1  0.75000000  0.75000000  0.86664000  1.0
  Pd  Pd28  1  0.25175000  0.50003000  0.12421000  1.0
  Pd  Pd29  1  0.25180000  0.99991000  0.12422000  1.0
  Pd  Pd30  1  0.75294000  0.75001000  0.04351000  1.0
  Pd  Pd31  1  0.75283000  0.25001000  0.04344000  1.0
