# generated using pymatgen
data_Al8V8Ni16C
_symmetry_space_group_name_H-M   'P 1'
_cell_length_a   5.81764000
_cell_length_b   8.22738000
_cell_length_c   26.17050000
_cell_angle_alpha   90.00000000
_cell_angle_beta   90.00000000
_cell_angle_gamma   90.00000000
_symmetry_Int_Tables_number   1
_chemical_formula_structural   Al8V8Ni16C
_chemical_formula_sum   'Al8 V8 Ni16 C1'
_cell_volume   1252.62311048
_cell_formula_units_Z   1
loop_
 _symmetry_equiv_pos_site_id
 _symmetry_equiv_pos_as_xyz
  1  'x, y, z'
loop_
 _atom_site_type_symbol
 _atom_site_label
 _atom_site_symmetry_multiplicity
 _atom_site_fract_x
 _atom_site_fract_y
 _atom_site_fract_z
 _atom_site_occupancy
  Al  Al0  1  0.00000000  0.00000000  0.88211000  1.0
  Al  Al1  1  0.50000000  0.25000000  0.96070000  1.0
  Al  Al2  1  0.50000000  0.75000000  0.96070000  1.0
  Al  Al3  1  0.00000000  0.50000000  0.88211000  1.0
  Al  Al4  1  0.00539000  0.49638000  0.03940000  1.0
  Al  Al5  1  0.48852000  0.75001000  0.11951000  1.0
  Al  Al6  1  0.53785000  0.25001000  0.12162000  1.0
  Al  Al7  1  0.00537000  0.00363000  0.03939000  1.0
  V  V8  1  0.00000000  0.75000000  0.96070000  1.0
  V  V9  1  0.50000000  0.00000000  0.88211000  1.0
  V  V10  1  0.00000000  0.25000000  0.96070000  1.0
  V  V11  1  0.50000000  0.50000000  0.88211000  1.0
  V  V12  1  0.96884000  0.25002000  0.11438000  1.0
  V  V13  1  0.49818000  0.50391000  0.04179000  1.0
  V  V14  1  0.01959000  0.75000000  0.11590000  1.0
  V  V15  1  0.49817000  0.99609000  0.04179000  1.0
  Ni  Ni16  1  0.25000000  0.00000000  0.96070000  1.0
  Ni  Ni17  1  0.75000000  0.50000000  0.96070000  1.0
  Ni  Ni18  1  0.75000000  0.00000000  0.96070000  1.0
  Ni  Ni19  1  0.25000000  0.50000000  0.96070000  1.0
  Ni  Ni20  1  0.75000000  0.75000000  0.88211000  1.0
  Ni  Ni21  1  0.25000000  0.25000000  0.88211000  1.0
  Ni  Ni22  1  0.25000000  0.75000000  0.88211000  1.0
  Ni  Ni23  1  0.75000000  0.25000000  0.88211000  1.0
  Ni  Ni24  1  0.25160000  0.48511000  0.12136000  1.0
  Ni  Ni25  1  0.75899000  0.98883000  0.11332000  1.0
  Ni  Ni26  1  0.75898000  0.51120000  0.11332000  1.0
  Ni  Ni27  1  0.25160000  0.01486000  0.12134000  1.0
  Ni  Ni28  1  0.73600000  0.24992000  0.03407000  1.0
  Ni  Ni29  1  0.24050000  0.75008000  0.03564000  1.0
  Ni  Ni30  1  0.26519000  0.24996000  0.03849000  1.0
  Ni  Ni31  1  0.75304000  0.75005000  0.04250000  1.0
  C  C32  1  0.23378000  0.24993000  0.14893000  1.0
