# generated using pymatgen
data_Y32C
_symmetry_space_group_name_H-M   'P 1'
_cell_length_a   10.10200000
_cell_length_b   10.10200000
_cell_length_c   27.57650000
_cell_angle_alpha   90.00000000
_cell_angle_beta   90.00000000
_cell_angle_gamma   90.00000000
_symmetry_Int_Tables_number   1
_chemical_formula_structural   Y32C
_chemical_formula_sum   'Y32 C1'
_cell_volume   2814.19296591
_cell_formula_units_Z   1
loop_
 _symmetry_equiv_pos_site_id
 _symmetry_equiv_pos_as_xyz
  1  'x, y, z'
loop_
 _atom_site_type_symbol
 _atom_site_label
 _atom_site_symmetry_multiplicity
 _atom_site_fract_x
 _atom_site_fract_y
 _atom_site_fract_z
 _atom_site_occupancy
  Y  Y0  1  0.00000000  0.00000000  0.86263000  1.0
  Y  Y1  1  0.25000000  0.25000000  0.86263000  1.0
  Y  Y2  1  0.25000000  0.00000000  0.95421000  1.0
  Y  Y3  1  0.00000000  0.25000000  0.95421000  1.0
  Y  Y4  1  0.00000000  0.00000000  0.04579000  1.0
  Y  Y5  1  0.25000000  0.25000000  0.04579000  1.0
  Y  Y6  1  0.25000000  0.00000000  0.13737000  1.0
  Y  Y7  1  0.00000000  0.25000000  0.13737000  1.0
  Y  Y8  1  0.00000000  0.50000000  0.86263000  1.0
  Y  Y9  1  0.25000000  0.75000000  0.86263000  1.0
  Y  Y10  1  0.25000000  0.50000000  0.95421000  1.0
  Y  Y11  1  0.00000000  0.75000000  0.95421000  1.0
  Y  Y12  1  0.00000000  0.50000000  0.04579000  1.0
  Y  Y13  1  0.25000000  0.75000000  0.04579000  1.0
  Y  Y14  1  0.25000000  0.50000000  0.13737000  1.0
  Y  Y15  1  0.00000000  0.75000000  0.13737000  1.0
  Y  Y16  1  0.50000000  0.00000000  0.86263000  1.0
  Y  Y17  1  0.75000000  0.25000000  0.86263000  1.0
  Y  Y18  1  0.75000000  0.00000000  0.95421000  1.0
  Y  Y19  1  0.50000000  0.25000000  0.95421000  1.0
  Y  Y20  1  0.50000000  0.00000000  0.04579000  1.0
  Y  Y21  1  0.75000000  0.25000000  0.04579000  1.0
  Y  Y22  1  0.75000000  0.00000000  0.13737000  1.0
  Y  Y23  1  0.50000000  0.25000000  0.13737000  1.0
  Y  Y24  1  0.50000000  0.50000000  0.86263000  1.0
  Y  Y25  1  0.75000000  0.75000000  0.86263000  1.0
  Y  Y26  1  0.75000000  0.50000000  0.95421000  1.0
  Y  Y27  1  0.50000000  0.75000000  0.95421000  1.0
  Y  Y28  1  0.50000000  0.50000000  0.04579000  1.0
  Y  Y29  1  0.75000000  0.75000000  0.04579000  1.0
  Y  Y30  1  0.75000000  0.50000000  0.13737000  1.0
  Y  Y31  1  0.50000000  0.75000000  0.13737000  1.0
  C  C32  1  0.00000000  0.00000000  0.16638000  1.0
