# generated using pymatgen
data_Li4Zn4Ge4Pd4CO
_symmetry_space_group_name_H-M   'P 1'
_cell_length_a   6.18512000
_cell_length_b   6.18512000
_cell_length_c   24.63880000
_cell_angle_alpha   90.00000000
_cell_angle_beta   90.00000000
_cell_angle_gamma   90.00000000
_symmetry_Int_Tables_number   1
_chemical_formula_structural   Li4Zn4Ge4Pd4CO
_chemical_formula_sum   'Li4 Zn4 Ge4 Pd4 C1 O1'
_cell_volume   942.57477312
_cell_formula_units_Z   1
loop_
 _symmetry_equiv_pos_site_id
 _symmetry_equiv_pos_as_xyz
  1  'x, y, z'
loop_
 _atom_site_type_symbol
 _atom_site_label
 _atom_site_symmetry_multiplicity
 _atom_site_fract_x
 _atom_site_fract_y
 _atom_site_fract_z
 _atom_site_occupancy
  Li  Li0  1  0.25000000  0.74999000  0.03138000  1
  Li  Li1  1  0.75118500  0.75118500  0.89499000  1
  Li  Li2  1  0.24891000  0.24891000  0.89294000  1
  Li  Li3  1  0.74999000  0.25000000  0.03138000  1
  Zn  Zn4  1  0.50000000  0.99999000  0.09414000  1
  Zn  Zn5  1  0.00005500  0.00005500  0.96911000  1
  Zn  Zn6  1  0.49969500  0.49969500  0.96893000  1
  Zn  Zn7  1  0.99999000  0.50000000  0.09414000  1
  Ge  Ge8  1  0.99999500  0.99999500  0.09414000  1
  Ge  Ge9  1  0.49925000  0.00039000  0.96418000  1
  Ge  Ge10  1  0.00039000  0.49925000  0.96418000  1
  Ge  Ge11  1  0.49999500  0.49999500  0.09414000  1
  Pd  Pd12  1  0.24999500  0.24999500  0.03138000  1
  Pd  Pd13  1  0.75000000  0.24952000  0.91307000  1
  Pd  Pd14  1  0.24952000  0.75000000  0.91307000  1
  Pd  Pd15  1  0.74999500  0.74999500  0.03138000  1
  C  C16  1  0.24841000  0.24841000  0.80690000  1
  O  O17  1  0.24918500  0.24918500  0.76065000  1
