# generated using pymatgen
data_Li4Zn4Ge4Pd4CO
_symmetry_space_group_name_H-M   Cm
_cell_length_a   8.74708059
_cell_length_b   8.74708059
_cell_length_c   24.63880000
_cell_angle_alpha   90.00000000
_cell_angle_beta   90.00000000
_cell_angle_gamma   90.00000000
_symmetry_Int_Tables_number   8
_chemical_formula_structural   Li4Zn4Ge4Pd4CO
_chemical_formula_sum   'Li8 Zn8 Ge8 Pd8 C2 O2'
_cell_volume   1885.14954624
_cell_formula_units_Z   2
loop_
 _symmetry_equiv_pos_site_id
 _symmetry_equiv_pos_as_xyz
  1  'x, y, z'
  2  'x, -y, z'
  3  'x+1/2, y+1/2, z'
  4  'x+1/2, -y+1/2, z'
loop_
 _atom_site_type_symbol
 _atom_site_label
 _atom_site_symmetry_multiplicity
 _atom_site_fract_x
 _atom_site_fract_y
 _atom_site_fract_z
 _atom_site_occupancy
  Li  Li0  4  0.49999500  0.24999500  0.96862000  1.0
  Li  Li1  2  0.24891000  0.00000000  0.10706000  1.0
  Li  Li2  2  0.25118500  0.50000000  0.10501000  1.0
  Zn  Zn3  4  0.24999500  0.25000500  0.90586000  1.0
  Zn  Zn4  2  0.00005500  0.00000000  0.03089000  1.0
  Zn  Zn5  2  0.49969500  0.00000000  0.03107000  1.0
  Ge  Ge6  4  0.24982000  0.24943000  0.03582000  1.0
  Ge  Ge7  2  0.49999500  0.00000000  0.90586000  1.0
  Ge  Ge8  2  0.49999500  0.50000000  0.90586000  1.0
  Pd  Pd9  4  0.49976000  0.25024000  0.08693000  1.0
  Pd  Pd10  2  0.24999500  0.00000000  0.96862000  1.0
  Pd  Pd11  2  0.24999500  0.50000000  0.96862000  1.0
  C  C12  2  0.24841000  0.00000000  0.19310000  1.0
  O  O13  2  0.24918500  0.00000000  0.23935000  1.0
