# generated using pymatgen
data_Hf8Al8Ni16C
_symmetry_space_group_name_H-M   'P 1'
_cell_length_a   6.09904000
_cell_length_b   8.62534000
_cell_length_c   26.46900000
_cell_angle_alpha   90.00000000
_cell_angle_beta   90.00000000
_cell_angle_gamma   90.00000000
_symmetry_Int_Tables_number   1
_chemical_formula_structural   Hf8Al8Ni16C
_chemical_formula_sum   'Hf8 Al8 Ni16 C1'
_cell_volume   1392.43598725
_cell_formula_units_Z   1
loop_
 _symmetry_equiv_pos_site_id
 _symmetry_equiv_pos_as_xyz
  1  'x, y, z'
loop_
 _atom_site_type_symbol
 _atom_site_label
 _atom_site_symmetry_multiplicity
 _atom_site_fract_x
 _atom_site_fract_y
 _atom_site_fract_z
 _atom_site_occupancy
  Hf  Hf0  1  0.00000000  0.00000000  0.87780000  1.0
  Hf  Hf1  1  0.50000000  0.25000000  0.95927000  1.0
  Hf  Hf2  1  0.50000000  0.75000000  0.95927000  1.0
  Hf  Hf3  1  1.00000000  0.50000000  0.87780000  1.0
  Hf  Hf4  1  0.00371000  0.50437000  0.04078000  1.0
  Hf  Hf5  1  0.48564000  0.74999000  0.12499000  1.0
  Hf  Hf6  1  0.52607000  0.25000000  0.12299000  1.0
  Hf  Hf7  1  0.00371000  0.99563000  0.04078000  1.0
  Al  Al8  1  1.00000000  0.75000000  0.95927000  1.0
  Al  Al9  1  0.50000000  0.00000000  0.87780000  1.0
  Al  Al10  1  1.00000000  0.25000000  0.95927000  1.0
  Al  Al11  1  0.50000000  0.50000000  0.87780000  1.0
  Al  Al12  1  0.96680000  0.24999000  0.12079000  1.0
  Al  Al13  1  0.49888000  0.49885000  0.04306000  1.0
  Al  Al14  1  0.99933000  0.75000000  0.12150000  1.0
  Al  Al15  1  0.49887000  0.00115000  0.04306000  1.0
  Ni  Ni16  1  0.25000000  0.00000000  0.95927000  1.0
  Ni  Ni17  1  0.75000000  0.50000000  0.95927000  1.0
  Ni  Ni18  1  0.75000000  0.00000000  0.95927000  1.0
  Ni  Ni19  1  0.25000000  0.50000000  0.95927000  1.0
  Ni  Ni20  1  0.75000000  0.75000000  0.87780000  1.0
  Ni  Ni21  1  0.25000000  0.25000000  0.87780000  1.0
  Ni  Ni22  1  0.25000000  0.75000000  0.87780000  1.0
  Ni  Ni23  1  0.75000000  0.25000000  0.87780000  1.0
  Ni  Ni24  1  0.22518000  0.48256000  0.12498000  1.0
  Ni  Ni25  1  0.75600000  0.98947000  0.11686000  1.0
  Ni  Ni26  1  0.75607000  0.51053000  0.11686000  1.0
  Ni  Ni27  1  0.22515000  0.01743000  0.12494000  1.0
  Ni  Ni28  1  0.75491000  0.25000000  0.03758000  1.0
  Ni  Ni29  1  0.27081000  0.75001000  0.04134000  1.0
  Ni  Ni30  1  0.25730000  0.24999000  0.04091000  1.0
  Ni  Ni31  1  0.73173000  0.75000000  0.04435000  1.0
  C  C32  1  0.22951000  0.24999000  0.15716000  1.0
