# generated using pymatgen
data_Sc16Cu16C
_symmetry_space_group_name_H-M   Pmm2
_cell_length_a   6.54723000
_cell_length_b   9.25918000
_cell_length_c   26.94440000
_cell_angle_alpha   90.00000000
_cell_angle_beta   90.00000000
_cell_angle_gamma   90.00000000
_symmetry_Int_Tables_number   25
_chemical_formula_structural   Sc16Cu16C
_chemical_formula_sum   'Sc16 Cu16 C1'
_cell_volume   1633.42290678
_cell_formula_units_Z   1
loop_
 _symmetry_equiv_pos_site_id
 _symmetry_equiv_pos_as_xyz
  1  'x, y, z'
  2  '-x, -y, z'
  3  '-x, y, z'
  4  'x, -y, z'
loop_
 _atom_site_type_symbol
 _atom_site_label
 _atom_site_symmetry_multiplicity
 _atom_site_fract_x
 _atom_site_fract_y
 _atom_site_fract_z
 _atom_site_occupancy
  Sc  Sc0  2  0.00000000  0.23636000  0.12939000  1.0
  Sc  Sc1  2  0.00000000  0.25000000  0.95704000  1.0
  Sc  Sc2  2  0.50000000  0.25000000  0.95704000  1.0
  Sc  Sc3  2  0.50000000  0.26568000  0.13011000  1.0
  Sc  Sc4  1  0.00000000  0.00000000  0.04573000  1.0
  Sc  Sc5  1  0.00000000  0.00000000  0.87113000  1.0
  Sc  Sc6  1  0.00000000  0.50000000  0.04160000  1.0
  Sc  Sc7  1  0.00000000  0.50000000  0.87113000  1.0
  Sc  Sc8  1  0.50000000  0.00000000  0.04156000  1.0
  Sc  Sc9  1  0.50000000  0.00000000  0.87113000  1.0
  Sc  Sc10  1  0.50000000  0.50000000  0.04282000  1.0
  Sc  Sc11  1  0.50000000  0.50000000  0.87113000  1.0
  Cu  Cu12  4  0.25000000  0.25000000  0.87113000  1.0
  Cu  Cu13  4  0.25807000  0.25402000  0.04507000  1.0
  Cu  Cu14  2  0.23435000  0.50000000  0.12176000  1.0
  Cu  Cu15  2  0.25000000  0.00000000  0.95704000  1.0
  Cu  Cu16  2  0.25000000  0.50000000  0.95704000  1.0
  Cu  Cu17  2  0.30064000  0.00000000  0.12817000  1.0
  C  C18  1  0.00000000  0.00000000  0.12811000  1.0
