# generated using pymatgen
data_Li8In8Cu8Sn8C
_symmetry_space_group_name_H-M   'P 1'
_cell_length_a   6.73938000
_cell_length_b   9.53092000
_cell_length_c   27.14820000
_cell_angle_alpha   90.00000000
_cell_angle_beta   90.00000000
_cell_angle_gamma   90.00000000
_symmetry_Int_Tables_number   1
_chemical_formula_structural   Li8In8Cu8Sn8C
_chemical_formula_sum   'Li8 In8 Cu8 Sn8 C1'
_cell_volume   1743.79652926
_cell_formula_units_Z   1
loop_
 _symmetry_equiv_pos_site_id
 _symmetry_equiv_pos_as_xyz
  1  'x, y, z'
loop_
 _atom_site_type_symbol
 _atom_site_label
 _atom_site_symmetry_multiplicity
 _atom_site_fract_x
 _atom_site_fract_y
 _atom_site_fract_z
 _atom_site_occupancy
  Li  Li0  1  0.00000000  0.25000000  0.95612000  1.0
  Li  Li1  1  0.00000000  0.75000000  0.95612000  1.0
  Li  Li2  1  0.50000000  0.50000000  0.86835000  1.0
  Li  Li3  1  0.50000000  0.00000000  0.86835000  1.0
  Li  Li4  1  0.94890000  0.71902000  0.15439000  1.0
  Li  Li5  1  0.94904000  0.28050000  0.15452000  1.0
  Li  Li6  1  0.46049000  0.00007000  0.06123000  1.0
  Li  Li7  1  0.46501000  0.50000000  0.04236000  1.0
  In  In8  1  0.25000000  0.00000000  0.95612000  1.0
  In  In9  1  0.25000000  0.50000000  0.95612000  1.0
  In  In10  1  0.75000000  0.25000000  0.86835000  1.0
  In  In11  1  0.75000000  0.75000000  0.86835000  1.0
  In  In12  1  0.23713000  0.49993000  0.14121000  1.0
  In  In13  1  0.27575000  0.00077000  0.19603000  1.0
  In  In14  1  0.74315000  0.74174000  0.04414000  1.0
  In  In15  1  0.74333000  0.25824000  0.04411000  1.0
  Cu  Cu16  1  0.00000000  0.00000000  0.86835000  1.0
  Cu  Cu17  1  0.00000000  0.50000000  0.86835000  1.0
  Cu  Cu18  1  0.50000000  0.75000000  0.95612000  1.0
  Cu  Cu19  1  0.50000000  0.25000000  0.95612000  1.0
  Cu  Cu20  1  0.01495000  0.50000000  0.04089000  1.0
  Cu  Cu21  1  0.99876000  0.00009000  0.03489000  1.0
  Cu  Cu22  1  0.52557000  0.20382000  0.12682000  1.0
  Cu  Cu23  1  0.52454000  0.79645000  0.12673000  1.0
  Sn  Sn24  1  0.75000000  0.00000000  0.95612000  1.0
  Sn  Sn25  1  0.75000000  0.50000000  0.95612000  1.0
  Sn  Sn26  1  0.25000000  0.25000000  0.86835000  1.0
  Sn  Sn27  1  0.25000000  0.75000000  0.86835000  1.0
  Sn  Sn28  1  0.67805000  0.49965000  0.13838000  1.0
  Sn  Sn29  1  0.85532000  0.99969000  0.13042000  1.0
  Sn  Sn30  1  0.21246000  0.75420000  0.05620000  1.0
  Sn  Sn31  1  0.21265000  0.24586000  0.05626000  1.0
  C  C32  1  0.52866000  0.00009000  0.13855000  1.0
