# generated using pymatgen
data_Li8In8Cu8Ag8CO
_symmetry_space_group_name_H-M   'P 1'
_cell_length_a   9.06224000
_cell_length_b   6.40797000
_cell_length_c   26.79670000
_cell_angle_alpha   90.00000000
_cell_angle_beta   90.00000000
_cell_angle_gamma   90.00000000
_symmetry_Int_Tables_number   1
_chemical_formula_structural   Li8In8Cu8Ag8CO
_chemical_formula_sum   'Li8 In8 Cu8 Ag8 C1 O1'
_cell_volume   1556.09943016
_cell_formula_units_Z   1
loop_
 _symmetry_equiv_pos_site_id
 _symmetry_equiv_pos_as_xyz
  1  'x, y, z'
loop_
 _atom_site_type_symbol
 _atom_site_label
 _atom_site_symmetry_multiplicity
 _atom_site_fract_x
 _atom_site_fract_y
 _atom_site_fract_z
 _atom_site_occupancy
  Li  Li0  1  0.75001000  0.75000000  0.04227000  1.0
  Li  Li1  1  0.24999000  0.75000000  0.04227000  1.0
  Li  Li2  1  0.00000000  0.25000000  0.12682000  1.0
  Li  Li3  1  0.50000000  0.25000000  0.12682000  1.0
  Li  Li4  1  0.25070000  0.75218000  0.86751000  1.0
  Li  Li5  1  0.74930000  0.75218000  0.86751000  1.0
  Li  Li6  1  0.50000000  0.23735000  0.95419000  1.0
  Li  Li7  1  0.00000000  0.25322000  0.95600000  1.0
  In  In8  1  0.00000000  0.00000000  0.04227000  1.0
  In  In9  1  0.50000000  1.00000000  0.04227000  1.0
  In  In10  1  0.25001000  0.50000000  0.12682000  1.0
  In  In11  1  0.74999000  0.50000000  0.12682000  1.0
  In  In12  1  0.50000000  0.00859000  0.85918000  1.0
  In  In13  1  0.00000000  0.01588000  0.86566000  1.0
  In  In14  1  0.74884000  0.50589000  0.95654000  1.0
  In  In15  1  0.25116000  0.50589000  0.95654000  1.0
  Cu  Cu16  1  0.75001000  0.25000000  0.04227000  1.0
  Cu  Cu17  1  0.24999000  0.25000000  0.04227000  1.0
  Cu  Cu18  1  0.00000000  0.75000000  0.12682000  1.0
  Cu  Cu19  1  0.50000000  0.75000000  0.12682000  1.0
  Cu  Cu20  1  0.25456000  0.23628000  0.87676000  1.0
  Cu  Cu21  1  0.74544000  0.23628000  0.87676000  1.0
  Cu  Cu22  1  0.50000000  0.76028000  0.95389000  1.0
  Cu  Cu23  1  0.00000000  0.75031000  0.95296000  1.0
  Ag  Ag24  1  0.75001000  0.00000000  0.12682000  1.0
  Ag  Ag25  1  0.24999000  0.00000000  0.12682000  1.0
  Ag  Ag26  1  0.50000000  0.50000000  0.04227000  1.0
  Ag  Ag27  1  0.00000000  0.50000000  0.04227000  1.0
  Ag  Ag28  1  0.24851000  0.99330000  0.95936000  1.0
  Ag  Ag29  1  0.75149000  0.99330000  0.95936000  1.0
  Ag  Ag30  1  0.00000000  0.48742000  0.86994000  1.0
  Ag  Ag31  1  0.50000000  0.49685000  0.87184000  1.0
  C  C32  1  0.00000000  0.52610000  0.78382000  1.0
  O  O33  1  0.00000000  0.47821000  0.74271000  1.0
