# generated using pymatgen
data_Li8In8Cu8Ag8CO
_symmetry_space_group_name_H-M   Pm
_cell_length_a   6.40797000
_cell_length_b   9.06224000
_cell_length_c   26.79670000
_cell_angle_alpha   90.00000000
_cell_angle_beta   90.00000000
_cell_angle_gamma   90.00000000
_symmetry_Int_Tables_number   6
_chemical_formula_structural   Li8In8Cu8Ag8CO
_chemical_formula_sum   'Li8 In8 Cu8 Ag8 C1 O1'
_cell_volume   1556.09943016
_cell_formula_units_Z   1
loop_
 _symmetry_equiv_pos_site_id
 _symmetry_equiv_pos_as_xyz
  1  'x, y, z'
  2  'x, -y, z'
loop_
 _atom_site_type_symbol
 _atom_site_label
 _atom_site_symmetry_multiplicity
 _atom_site_fract_x
 _atom_site_fract_y
 _atom_site_fract_z
 _atom_site_occupancy
  Li  Li0  2  0.75000000  0.24999000  0.95773000  1.0
  Li  Li1  2  0.75218000  0.25070000  0.13249000  1.0
  Li  Li2  1  0.23735000  0.50000000  0.04581000  1.0
  Li  Li3  1  0.25000000  0.00000000  0.87318000  1.0
  Li  Li4  1  0.25000000  0.50000000  0.87318000  1.0
  Li  Li5  1  0.25322000  0.00000000  0.04400000  1.0
  In  In6  2  0.50000000  0.25001000  0.87318000  1.0
  In  In7  2  0.50589000  0.25116000  0.04346000  1.0
  In  In8  1  -0.00000000  0.50000000  0.95773000  1.0
  In  In9  1  0.00000000  0.00000000  0.95773000  1.0
  In  In10  1  0.00859000  0.50000000  0.14082000  1.0
  In  In11  1  0.01588000  0.00000000  0.13434000  1.0
  Cu  Cu12  2  0.23628000  0.25456000  0.12324000  1.0
  Cu  Cu13  2  0.25000000  0.24999000  0.95773000  1.0
  Cu  Cu14  1  0.75000000  0.00000000  0.87318000  1.0
  Cu  Cu15  1  0.75000000  0.50000000  0.87318000  1.0
  Cu  Cu16  1  0.75031000  0.00000000  0.04704000  1.0
  Cu  Cu17  1  0.76028000  0.50000000  0.04611000  1.0
  Ag  Ag18  2  0.00000000  0.24999000  0.87318000  1.0
  Ag  Ag19  2  0.99330000  0.24851000  0.04064000  1.0
  Ag  Ag20  1  0.48742000  0.00000000  0.13006000  1.0
  Ag  Ag21  1  0.49685000  0.50000000  0.12816000  1.0
  Ag  Ag22  1  0.50000000  0.00000000  0.95773000  1.0
  Ag  Ag23  1  0.50000000  0.50000000  0.95773000  1.0
  C  C24  1  0.52610000  0.00000000  0.21618000  1.0
  O  O25  1  0.47821000  0.00000000  0.25729000  1.0
