# generated using pymatgen
data_Li4Sc4In4Ge4C
_symmetry_space_group_name_H-M   P1
_cell_length_a   6.05318000
_cell_length_b   8.22048000
_cell_length_c   24.51760000
_cell_angle_alpha   90.00000000
_cell_angle_beta   90.00000000
_cell_angle_gamma   90.00000000
_symmetry_Int_Tables_number   1
_chemical_formula_structural   Li4Sc4In4Ge4C
_chemical_formula_sum   'Li4 Sc4 In4 Ge4 C1'
_cell_volume   1219.99688239
_cell_formula_units_Z   1
loop_
 _symmetry_equiv_pos_site_id
 _symmetry_equiv_pos_as_xyz
  1  'x, y, z'
loop_
 _atom_site_type_symbol
 _atom_site_label
 _atom_site_symmetry_multiplicity
 _atom_site_fract_x
 _atom_site_fract_y
 _atom_site_fract_z
 _atom_site_occupancy
  Li  Li0  1  0.62738000  0.48933000  0.11221000  1.0
  Li  Li1  1  0.62756000  0.01078000  0.11221000  1.0
  Li  Li2  1  0.95056000  0.00000000  0.96929000  1.0
  Li  Li3  1  0.95056000  0.50000000  0.96929000  1.0
  Sc  Sc4  1  0.27780000  0.74994000  0.04206000  1.0
  Sc  Sc5  1  0.32195000  0.25005000  0.03568000  1.0
  Sc  Sc6  1  0.67584000  0.25000000  0.90787000  1.0
  Sc  Sc7  1  0.67584000  0.75000000  0.90787000  1.0
  In  In8  1  0.17584000  0.25000000  0.90787000  1.0
  In  In9  1  0.17584000  0.75000000  0.90787000  1.0
  In  In10  1  0.77122000  0.74998000  0.04437000  1.0
  In  In11  1  0.80685000  0.25004000  0.03382000  1.0
  Ge  Ge12  1  0.11490000  0.48433000  0.10717000  1.0
  Ge  Ge13  1  0.11498000  0.01551000  0.10716000  1.0
  Ge  Ge14  1  0.45056000  0.00000000  0.96929000  1.0
  Ge  Ge15  1  0.45056000  0.50000000  0.96929000  1.0
  C  C16  1  0.07710000  0.24991000  0.10291000  1.0
