# generated using pymatgen
data_Li4Y4Sn4Pd4C
_symmetry_space_group_name_H-M   P2
_cell_length_a   6.77715000
_cell_length_b   25.08290000
_cell_length_c   6.77715000
_cell_angle_alpha   90.00000000
_cell_angle_beta   90.00000000
_cell_angle_gamma   90.00000000
_symmetry_Int_Tables_number   3
_chemical_formula_structural   Li4Y4Sn4Pd4C
_chemical_formula_sum   'Li4 Y4 Sn4 Pd4 C1'
_cell_volume   1152.05163034
_cell_formula_units_Z   1
loop_
 _symmetry_equiv_pos_site_id
 _symmetry_equiv_pos_as_xyz
  1  'x, y, z'
  2  '-x, y, -z'
loop_
 _atom_site_type_symbol
 _atom_site_label
 _atom_site_symmetry_multiplicity
 _atom_site_fract_x
 _atom_site_fract_y
 _atom_site_fract_z
 _atom_site_occupancy
  Li  Li0  1  0.00000000  0.03572000  0.50000000  1.0
  Li  Li1  1  0.00000000  0.89868000  0.00000000  1.0
  Li  Li2  1  0.50000000  0.03485000  0.00000000  1.0
  Li  Li3  1  0.50000000  0.89868000  0.50000000  1.0
  Y  Y4  2  0.25000000  0.96623000  0.25000000  1.0
  Y  Y5  2  0.26118000  0.10851000  0.76132000  1.0
  Sn  Sn6  2  0.25000000  0.96623000  0.75000000  1.0
  Sn  Sn7  2  0.25340000  0.10251000  0.24673000  1.0
  Pd  Pd8  1  0.00000000  0.03567000  0.00000000  1.0
  Pd  Pd9  1  0.00000000  0.89868000  0.50000000  1.0
  Pd  Pd10  1  0.50000000  0.03563000  0.50000000  1.0
  Pd  Pd11  1  0.50000000  0.89868000  0.00000000  1.0
  C  C12  1  0.50000000  0.12134000  0.00000000  1.0
