# generated using pymatgen
data_Ca16CO
_symmetry_space_group_name_H-M   'P 1'
_cell_length_a   8.79024000
_cell_length_b   8.79024000
_cell_length_c   26.59270000
_cell_angle_alpha   90.00000000
_cell_angle_beta   90.00000000
_cell_angle_gamma   90.00000000
_symmetry_Int_Tables_number   1
_chemical_formula_structural   Ca16CO
_chemical_formula_sum   'Ca16 C1 O1'
_cell_volume   2054.77323352
_cell_formula_units_Z   1
loop_
 _symmetry_equiv_pos_site_id
 _symmetry_equiv_pos_as_xyz
  1  'x, y, z'
loop_
 _atom_site_type_symbol
 _atom_site_label
 _atom_site_symmetry_multiplicity
 _atom_site_fract_x
 _atom_site_fract_y
 _atom_site_fract_z
 _atom_site_occupancy
  Ca  Ca0  1  0.00000000  0.00000000  0.87604000  1.0
  Ca  Ca1  1  0.25000000  0.25000000  0.95868000  1.0
  Ca  Ca2  1  0.99433000  0.99426000  0.03768000  1.0
  Ca  Ca3  1  0.25039000  0.25015000  0.11725000  1.0
  Ca  Ca4  1  0.00000000  0.50000000  0.87604000  1.0
  Ca  Ca5  1  0.25000000  0.75000000  0.95868000  1.0
  Ca  Ca6  1  0.99423000  0.50579000  0.03775000  1.0
  Ca  Ca7  1  0.25023000  0.75051000  0.12362000  1.0
  Ca  Ca8  1  0.50000000  0.00000000  0.87604000  1.0
  Ca  Ca9  1  0.75000000  0.25000000  0.95868000  1.0
  Ca  Ca10  1  0.50582000  0.99409000  0.03756000  1.0
  Ca  Ca11  1  0.74456000  0.24751000  0.12306000  1.0
  Ca  Ca12  1  0.50000000  0.50000000  0.87604000  1.0
  Ca  Ca13  1  0.75000000  0.75000000  0.95868000  1.0
  Ca  Ca14  1  0.50574000  0.50606000  0.03769000  1.0
  Ca  Ca15  1  0.75016000  0.75008000  0.12504000  1.0
  C  C16  1  0.25077000  0.25019000  0.21355000  1.0
  O  O17  1  0.25032000  0.25013000  0.25674000  1.0
