# generated using pymatgen
data_Fe8Co8C
_symmetry_space_group_name_H-M   P4mm
_cell_length_a   5.71351000
_cell_length_b   5.71351000
_cell_length_c   24.28510000
_cell_angle_alpha   90.00000000
_cell_angle_beta   90.00000000
_cell_angle_gamma   90.00000000
_symmetry_Int_Tables_number   99
_chemical_formula_structural   Fe8Co8C
_chemical_formula_sum   'Fe8 Co8 C1'
_cell_volume   792.76757691
_cell_formula_units_Z   1
loop_
 _symmetry_equiv_pos_site_id
 _symmetry_equiv_pos_as_xyz
  1  'x, y, z'
  2  '-y, x, z'
  3  '-x, -y, z'
  4  'y, -x, z'
  5  '-x, y, z'
  6  'y, x, z'
  7  'x, -y, z'
  8  '-y, -x, z'
loop_
 _atom_site_type_symbol
 _atom_site_label
 _atom_site_symmetry_multiplicity
 _atom_site_fract_x
 _atom_site_fract_y
 _atom_site_fract_z
 _atom_site_occupancy
  Fe  Fe0  2  0.00000000  0.50000000  0.02862000  1.0
  Fe  Fe1  2  0.00000000  0.50000000  0.91098000  1.0
  Fe  Fe2  1  0.00000000  0.00000000  0.02862000  1.0
  Fe  Fe3  1  0.00000000  0.00000000  0.91098000  1.0
  Fe  Fe4  1  0.50000000  0.50000000  0.02862000  1.0
  Fe  Fe5  1  0.50000000  0.50000000  0.91098000  1.0
  Co  Co6  4  0.25000000  0.25000000  0.08743000  1.0
  Co  Co7  4  0.25000000  0.25000000  0.96980000  1.0
  C  C8  1  0.00000000  0.00000000  0.12038000  1.0
