# generated using pymatgen
data_LiAlAgGe
_symmetry_space_group_name_H-M   'P 1'
_cell_length_a   8.02734000
_cell_length_b   5.75991000
_cell_length_c   24.29680000
_cell_angle_alpha   90.00000000
_cell_angle_beta   90.00000000
_cell_angle_gamma   90.00000000
_symmetry_Int_Tables_number   1
_chemical_formula_structural   LiAlAgGe
_chemical_formula_sum   'Li4 Al4 Ag4 Ge4'
_cell_volume   1123.40521171
_cell_formula_units_Z   4
loop_
 _symmetry_equiv_pos_site_id
 _symmetry_equiv_pos_as_xyz
  1  'x, y, z'
loop_
 _atom_site_type_symbol
 _atom_site_label
 _atom_site_symmetry_multiplicity
 _atom_site_fract_x
 _atom_site_fract_y
 _atom_site_fract_z
 _atom_site_occupancy
  Li  Li0  1  0.24999000  0.21914000  0.96888000  1.0
  Li  Li1  1  0.25000000  0.67254000  0.08842000  1.0
  Li  Li2  1  0.75001000  0.21914000  0.96888000  1.0
  Li  Li3  1  0.75000000  0.67254000  0.08842000  1.0
  Al  Al4  1  0.00000000  0.49764000  0.91238000  1.0
  Al  Al5  1  0.00000000  0.94836000  0.02947000  1.0
  Al  Al6  1  0.50000000  0.49773000  0.91240000  1.0
  Al  Al7  1  0.50000000  0.94836000  0.02947000  1.0
  Ag  Ag8  1  0.00000000  0.02537000  0.91053000  1.0
  Ag  Ag9  1  0.00000000  0.44836000  0.02947000  1.0
  Ag  Ag10  1  0.50000000  0.02536000  0.91054000  1.0
  Ag  Ag11  1  0.50000000  0.44836000  0.02947000  1.0
  Ge  Ge12  1  0.24991000  0.72416000  0.95834000  1.0
  Ge  Ge13  1  0.25000000  0.17254000  0.08842000  1.0
  Ge  Ge14  1  0.75009000  0.72416000  0.95834000  1.0
  Ge  Ge15  1  0.75000000  0.17254000  0.08842000  1.0
