# generated using pymatgen
data_Li8Al8Sn8Pd8C
_symmetry_space_group_name_H-M   'P 1'
_cell_length_a   9.17742000
_cell_length_b   6.48942000
_cell_length_c   26.88310000
_cell_angle_alpha   90.00000000
_cell_angle_beta   90.00000000
_cell_angle_gamma   90.00000000
_symmetry_Int_Tables_number   1
_chemical_formula_structural   Li8Al8Sn8Pd8C
_chemical_formula_sum   'Li8 Al8 Sn8 Pd8 C1'
_cell_volume   1601.05347627
_cell_formula_units_Z   1
loop_
 _symmetry_equiv_pos_site_id
 _symmetry_equiv_pos_as_xyz
  1  'x, y, z'
loop_
 _atom_site_type_symbol
 _atom_site_label
 _atom_site_symmetry_multiplicity
 _atom_site_fract_x
 _atom_site_fract_y
 _atom_site_fract_z
 _atom_site_occupancy
  Li  Li0  1  0.00000000  0.75000000  0.04267000  1.0
  Li  Li1  1  0.50000000  0.75000000  0.04267000  1.0
  Li  Li2  1  0.25000000  0.25000000  0.12802000  1.0
  Li  Li3  1  0.75000000  0.25000000  0.12802000  1.0
  Li  Li4  1  0.50000000  0.69285000  0.85129000  1.0
  Li  Li5  1  0.00000000  0.63832000  0.83034000  1.0
  Li  Li6  1  0.76417000  0.19877000  0.95268000  1.0
  Li  Li7  1  0.23583000  0.19877000  0.95268000  1.0
  Al  Al8  1  0.00000000  0.00000000  0.12802000  1.0
  Al  Al9  1  0.50000000  1.00000000  0.12802000  1.0
  Al  Al10  1  0.75000000  0.50000000  0.04267000  1.0
  Al  Al11  1  0.25000000  0.50000000  0.04267000  1.0
  Al  Al12  1  0.50000000  0.97443000  0.95398000  1.0
  Al  Al13  1  0.00000000  0.90137000  0.93304000  1.0
  Al  Al14  1  0.25324000  0.46303000  0.87400000  1.0
  Al  Al15  1  0.74676000  0.46303000  0.87400000  1.0
  Sn  Sn16  1  0.25000000  0.00000000  0.04267000  1.0
  Sn  Sn17  1  0.75000000  0.00000000  0.04267000  1.0
  Sn  Sn18  1  0.50000000  0.50000000  0.12802000  1.0
  Sn  Sn19  1  0.00000000  0.50000000  0.12802000  1.0
  Sn  Sn20  1  0.75498000  0.94569000  0.85555000  1.0
  Sn  Sn21  1  0.24502000  0.94569000  0.85555000  1.0
  Sn  Sn22  1  0.00000000  0.48594000  0.95741000  1.0
  Sn  Sn23  1  0.50000000  0.48926000  0.95578000  1.0
  Pd  Pd24  1  0.00000000  0.25000000  0.04267000  1.0
  Pd  Pd25  1  0.50000000  0.25000000  0.04267000  1.0
  Pd  Pd26  1  0.25000000  0.75000000  0.12802000  1.0
  Pd  Pd27  1  0.75000000  0.75000000  0.12802000  1.0
  Pd  Pd28  1  0.50000000  0.22432000  0.87875000  1.0
  Pd  Pd29  1  0.00000000  0.25652000  0.87537000  1.0
  Pd  Pd30  1  0.74407000  0.74993000  0.96017000  1.0
  Pd  Pd31  1  0.25593000  0.74993000  0.96017000  1.0
  C  C32  1  0.00000000  0.92870000  0.85973000  1.0
