# generated using pymatgen
data_Nb8Ni16Sn8C
_symmetry_space_group_name_H-M   'P 1'
_cell_length_a   6.22550000
_cell_length_b   8.80419000
_cell_length_c   26.60310000
_cell_angle_alpha   90.00000000
_cell_angle_beta   90.00000000
_cell_angle_gamma   90.00000000
_symmetry_Int_Tables_number   1
_chemical_formula_structural   Nb8Ni16Sn8C
_chemical_formula_sum   'Nb8 Ni16 Sn8 C1'
_cell_volume   1458.12880938
_cell_formula_units_Z   1
loop_
 _symmetry_equiv_pos_site_id
 _symmetry_equiv_pos_as_xyz
  1  'x, y, z'
loop_
 _atom_site_type_symbol
 _atom_site_label
 _atom_site_symmetry_multiplicity
 _atom_site_fract_x
 _atom_site_fract_y
 _atom_site_fract_z
 _atom_site_occupancy
  Nb  Nb0  1  0.00000000  0.00000000  0.87590000  1.0
  Nb  Nb1  1  0.50000000  0.25000000  0.95863000  1.0
  Nb  Nb2  1  0.50000000  0.75000000  0.95863000  1.0
  Nb  Nb3  1  0.00000000  0.50000000  0.87590000  1.0
  Nb  Nb4  1  0.00000000  0.50000000  0.04236000  1.0
  Nb  Nb5  1  0.50000000  0.76875000  0.12340000  1.0
  Nb  Nb6  1  0.50000000  0.23125000  0.12340000  1.0
  Nb  Nb7  1  0.00000000  0.00000000  0.04126000  1.0
  Ni  Ni8  1  0.25000000  0.00000000  0.95863000  1.0
  Ni  Ni9  1  0.75000000  0.50000000  0.95863000  1.0
  Ni  Ni10  1  0.75000000  0.00000000  0.95863000  1.0
  Ni  Ni11  1  0.25000000  0.50000000  0.95863000  1.0
  Ni  Ni12  1  0.75000000  0.75000000  0.87590000  1.0
  Ni  Ni13  1  0.25000000  0.25000000  0.87590000  1.0
  Ni  Ni14  1  0.25000000  0.75000000  0.87590000  1.0
  Ni  Ni15  1  0.75000000  0.25000000  0.87590000  1.0
  Ni  Ni16  1  0.27717000  0.50000000  0.11959000  1.0
  Ni  Ni17  1  0.79188000  0.00000000  0.12144000  1.0
  Ni  Ni18  1  0.72283000  0.50000000  0.11959000  1.0
  Ni  Ni19  1  0.20812000  0.00000000  0.12144000  1.0
  Ni  Ni20  1  0.75138000  0.25138000  0.04419000  1.0
  Ni  Ni21  1  0.24862000  0.74862000  0.04419000  1.0
  Ni  Ni22  1  0.24862000  0.25138000  0.04419000  1.0
  Ni  Ni23  1  0.75138000  0.74862000  0.04419000  1.0
  Sn  Sn24  1  0.00000000  0.75000000  0.95863000  1.0
  Sn  Sn25  1  0.50000000  0.00000000  0.87590000  1.0
  Sn  Sn26  1  0.00000000  0.25000000  0.95863000  1.0
  Sn  Sn27  1  0.50000000  0.50000000  0.87590000  1.0
  Sn  Sn28  1  0.00000000  0.26540000  0.13322000  1.0
  Sn  Sn29  1  0.50000000  0.50000000  0.03893000  1.0
  Sn  Sn30  1  0.00000000  0.73460000  0.13322000  1.0
  Sn  Sn31  1  0.50000000  0.00000000  0.03883000  1.0
  C  C32  1  0.50000000  0.00000000  0.14528000  1.0
