# generated using pymatgen
data_Cu16Ni8Sn8CO
_symmetry_space_group_name_H-M   'P 1'
_cell_length_a   8.69561000
_cell_length_b   6.14873000
_cell_length_c   26.52170000
_cell_angle_alpha   90.00000000
_cell_angle_beta   90.00000000
_cell_angle_gamma   90.00000000
_symmetry_Int_Tables_number   1
_chemical_formula_structural   Cu16Ni8Sn8CO
_chemical_formula_sum   'Cu16 Ni8 Sn8 C1 O1'
_cell_volume   1418.03462199
_cell_formula_units_Z   1
loop_
 _symmetry_equiv_pos_site_id
 _symmetry_equiv_pos_as_xyz
  1  'x, y, z'
loop_
 _atom_site_type_symbol
 _atom_site_label
 _atom_site_symmetry_multiplicity
 _atom_site_fract_x
 _atom_site_fract_y
 _atom_site_fract_z
 _atom_site_occupancy
  Cu  Cu0  1  0.00000000  0.75000000  0.04098000  1.0
  Cu  Cu1  1  0.50000000  0.25000000  0.04098000  1.0
  Cu  Cu2  1  0.00000000  0.25000000  0.04098000  1.0
  Cu  Cu3  1  0.50000000  0.75000000  0.04098000  1.0
  Cu  Cu4  1  0.75000000  0.25000000  0.12295000  1.0
  Cu  Cu5  1  0.25000000  0.75000000  0.12295000  1.0
  Cu  Cu6  1  0.75000000  0.75000000  0.12295000  1.0
  Cu  Cu7  1  0.25000000  0.25000000  0.12295000  1.0
  Cu  Cu8  1  0.50945000  0.78115000  0.88545000  1.0
  Cu  Cu9  1  0.99059000  0.21874000  0.88547000  1.0
  Cu  Cu10  1  0.50945000  0.21885000  0.88545000  1.0
  Cu  Cu11  1  0.99059000  0.78126000  0.88547000  1.0
  Cu  Cu12  1  0.24998000  0.22889000  0.95290000  1.0
  Cu  Cu13  1  0.75001000  0.79149000  0.95100000  1.0
  Cu  Cu14  1  0.24998000  0.77111000  0.95290000  1.0
  Cu  Cu15  1  0.75001000  0.20851000  0.95100000  1.0
  Ni  Ni16  1  0.00000000  0.00000000  0.12295000  1.0
  Ni  Ni17  1  0.25000000  0.50000000  0.04098000  1.0
  Ni  Ni18  1  0.75000000  0.50000000  0.04098000  1.0
  Ni  Ni19  1  0.50000000  0.00000000  0.12295000  1.0
  Ni  Ni20  1  0.49485000  0.00000000  0.96675000  1.0
  Ni  Ni21  1  0.75007000  0.50000000  0.88826000  1.0
  Ni  Ni22  1  0.24998000  0.50000000  0.88092000  1.0
  Ni  Ni23  1  0.00510000  0.00000000  0.96674000  1.0
  Sn  Sn24  1  0.75000000  0.00000000  0.04098000  1.0
  Sn  Sn25  1  0.00000000  0.50000000  0.12295000  1.0
  Sn  Sn26  1  0.25000000  0.00000000  0.04098000  1.0
  Sn  Sn27  1  0.50000000  0.50000000  0.12295000  1.0
  Sn  Sn28  1  0.25002000  0.00000000  0.85971000  1.0
  Sn  Sn29  1  0.50398000  0.50000000  0.95980000  1.0
  Sn  Sn30  1  0.75002000  0.00000000  0.84928000  1.0
  Sn  Sn31  1  0.99603000  0.50000000  0.95981000  1.0
  C  C32  1  0.25000000  0.50000000  0.81393000  1.0
  O  O33  1  0.24998000  0.50000000  0.77031000  1.0
