# generated using pymatgen
data_Cu16Ni8Sn8CO
_symmetry_space_group_name_H-M   Pm
_cell_length_a   8.69561000
_cell_length_b   6.14873000
_cell_length_c   26.52170000
_cell_angle_alpha   90.00000000
_cell_angle_beta   90.00000000
_cell_angle_gamma   90.00000000
_symmetry_Int_Tables_number   6
_chemical_formula_structural   Cu16Ni8Sn8CO
_chemical_formula_sum   'Cu16 Ni8 Sn8 C1 O1'
_cell_volume   1418.03462199
_cell_formula_units_Z   1
loop_
 _symmetry_equiv_pos_site_id
 _symmetry_equiv_pos_as_xyz
  1  'x, y, z'
  2  'x, -y, z'
loop_
 _atom_site_type_symbol
 _atom_site_label
 _atom_site_symmetry_multiplicity
 _atom_site_fract_x
 _atom_site_fract_y
 _atom_site_fract_z
 _atom_site_occupancy
  Cu  Cu0  2  0.00000000  0.25000000  0.95902000  1.0
  Cu  Cu1  2  0.24998000  0.22889000  0.04710000  1.0
  Cu  Cu2  2  0.25000000  0.25000000  0.87705000  1.0
  Cu  Cu3  2  0.50000000  0.25000000  0.95902000  1.0
  Cu  Cu4  2  0.50945000  0.21885000  0.11455000  1.0
  Cu  Cu5  2  0.75000000  0.25000000  0.87705000  1.0
  Cu  Cu6  2  0.75001000  0.20851000  0.04900000  1.0
  Cu  Cu7  2  0.99059000  0.21874000  0.11453000  1.0
  Ni  Ni8  1  0.00000000  0.00000000  0.87705000  1.0
  Ni  Ni9  1  0.00510000  0.00000000  0.03326000  1.0
  Ni  Ni10  1  0.24998000  0.50000000  0.11908000  1.0
  Ni  Ni11  1  0.25000000  0.50000000  0.95902000  1.0
  Ni  Ni12  1  0.49485000  0.00000000  0.03325000  1.0
  Ni  Ni13  1  0.50000000  0.00000000  0.87705000  1.0
  Ni  Ni14  1  0.75000000  0.50000000  0.95902000  1.0
  Ni  Ni15  1  0.75007000  0.50000000  0.11174000  1.0
  Sn  Sn16  1  0.00000000  0.50000000  0.87705000  1.0
  Sn  Sn17  1  0.25000000  0.00000000  0.95902000  1.0
  Sn  Sn18  1  0.25002000  0.00000000  0.14029000  1.0
  Sn  Sn19  1  0.50000000  0.50000000  0.87705000  1.0
  Sn  Sn20  1  0.50398000  0.50000000  0.04020000  1.0
  Sn  Sn21  1  0.75000000  0.00000000  0.95902000  1.0
  Sn  Sn22  1  0.75002000  0.00000000  0.15072000  1.0
  Sn  Sn23  1  0.99603000  0.50000000  0.04019000  1.0
  C  C24  1  0.25000000  0.50000000  0.18607000  1.0
  O  O25  1  0.24998000  0.50000000  0.22969000  1.0
