# generated using pymatgen
data_Li8Al8Fe8Pd8CO
_symmetry_space_group_name_H-M   Pmm2
_cell_length_a   8.60712000
_cell_length_b   8.84236000
_cell_length_c   24.25770000
_cell_angle_alpha   90.00000000
_cell_angle_beta   90.00000000
_cell_angle_gamma   90.00000000
_symmetry_Int_Tables_number   25
_chemical_formula_structural   Li8Al8Fe8Pd8CO
_chemical_formula_sum   'Li8 Al8 Fe8 Pd8 C1 O1'
_cell_volume   1846.18692573
_cell_formula_units_Z   1
loop_
 _symmetry_equiv_pos_site_id
 _symmetry_equiv_pos_as_xyz
  1  'x, y, z'
  2  '-x, -y, z'
  3  '-x, y, z'
  4  'x, -y, z'
loop_
 _atom_site_type_symbol
 _atom_site_label
 _atom_site_symmetry_multiplicity
 _atom_site_fract_x
 _atom_site_fract_y
 _atom_site_fract_z
 _atom_site_occupancy
  Li  Li0  2  0.00000000  0.24083000  0.02836000  1.0
  Li  Li1  2  0.00000000  0.25000000  0.91224000  1.0
  Li  Li2  2  0.50000000  0.25000000  0.91224000  1.0
  Li  Li3  2  0.50000000  0.25225000  0.02698000  1.0
  Al  Al4  2  0.23560000  0.00000000  0.02995000  1.0
  Al  Al5  2  0.25000000  0.00000000  0.91224000  1.0
  Al  Al6  2  0.25000000  0.50000000  0.91224000  1.0
  Al  Al7  2  0.25080000  0.50000000  0.02807000  1.0
  Fe  Fe8  1  0.00000000  0.00000000  0.08319000  1.0
  Fe  Fe9  1  0.00000000  0.00000000  0.97075000  1.0
  Fe  Fe10  1  0.00000000  0.50000000  0.06368000  1.0
  Fe  Fe11  1  0.00000000  0.50000000  0.97075000  1.0
  Fe  Fe12  1  0.50000000  0.00000000  0.06144000  1.0
  Fe  Fe13  1  0.50000000  0.00000000  0.97075000  1.0
  Fe  Fe14  1  0.50000000  0.50000000  0.06495000  1.0
  Fe  Fe15  1  0.50000000  0.50000000  0.97075000  1.0
  Pd  Pd16  4  0.24932000  0.24931000  0.08671000  1.0
  Pd  Pd17  4  0.25000000  0.25000000  0.97075000  1.0
  C  C18  1  0.00000000  0.00000000  0.15618000  1.0
  O  O19  1  0.00000000  0.00000000  0.20423000  1.0
