# generated using pymatgen
data_LiYInPt
_symmetry_space_group_name_H-M   'P 1'
_cell_length_a   6.80323000
_cell_length_b   4.81061000
_cell_length_c   27.21590000
_cell_angle_alpha   90.00000000
_cell_angle_beta   90.00000000
_cell_angle_gamma   90.00000000
_symmetry_Int_Tables_number   1
_chemical_formula_structural   LiYInPt
_chemical_formula_sum   'Li4 Y4 In4 Pt4'
_cell_volume   890.71343676
_cell_formula_units_Z   4
loop_
 _symmetry_equiv_pos_site_id
 _symmetry_equiv_pos_as_xyz
  1  'x, y, z'
loop_
 _atom_site_type_symbol
 _atom_site_label
 _atom_site_symmetry_multiplicity
 _atom_site_fract_x
 _atom_site_fract_y
 _atom_site_fract_z
 _atom_site_occupancy
  Li  Li0  1  0.25000000  0.00000000  0.95581000  1.0
  Li  Li1  1  0.75000000  0.50000000  0.86743000  1.0
  Li  Li2  1  0.45151000  0.00000000  0.18621000  1.0
  Li  Li3  1  0.75195000  0.50000000  0.04686500  1.0
  Y  Y4  1  0.00000000  0.50000000  0.95581000  1.0
  Y  Y5  1  0.50000000  0.00000000  0.86743000  1.0
  Y  Y6  1  0.04377500  0.50000000  0.13096000  1.0
  Y  Y7  1  0.48586000  0.00000000  0.05191000  1.0
  In  In8  1  0.00000000  0.00000000  0.86743000  1.0
  In  In9  1  0.50000000  0.50000000  0.95581000  1.0
  In  In10  1  0.00256000  0.00000000  0.04185500  1.0
  In  In11  1  0.53691000  0.50000000  0.13869000  1.0
  Pt  Pt12  1  0.75000000  0.00000000  0.95581000  1.0
  Pt  Pt13  1  0.25000000  0.50000000  0.86743000  1.0
  Pt  Pt14  1  0.77207000  0.00000000  0.12513000  1.0
  Pt  Pt15  1  0.25248000  0.50000000  0.04148000  1.0
