# generated using pymatgen
data_Li4Y4Sn4Ge4C
_symmetry_space_group_name_H-M   'P 1'
_cell_length_a   8.60818000
_cell_length_b   6.35836000
_cell_length_c   24.74450000
_cell_angle_alpha   90.00000000
_cell_angle_beta   90.00000000
_cell_angle_gamma   90.00000000
_symmetry_Int_Tables_number   1
_chemical_formula_structural   Li4Y4Sn4Ge4C
_chemical_formula_sum   'Li4 Y4 Sn4 Ge4 C1'
_cell_volume   1354.36317128
_cell_formula_units_Z   1
loop_
 _symmetry_equiv_pos_site_id
 _symmetry_equiv_pos_as_xyz
  1  'x, y, z'
loop_
 _atom_site_type_symbol
 _atom_site_label
 _atom_site_symmetry_multiplicity
 _atom_site_fract_x
 _atom_site_fract_y
 _atom_site_fract_z
 _atom_site_occupancy
  Li  Li0  1  0.00000000  0.50000000  0.90413000  1.0
  Li  Li1  1  0.00000000  0.08268000  0.02557000  1.0
  Li  Li2  1  0.50000000  0.50000000  0.90413000  1.0
  Li  Li3  1  0.50000000  0.06188000  0.03854000  1.0
  Y  Y4  1  0.75000000  0.77517000  0.96804000  1.0
  Y  Y5  1  0.79099000  0.39312000  0.09621000  1.0
  Y  Y6  1  0.25000000  0.77517000  0.96804000  1.0
  Y  Y7  1  0.20901000  0.39312000  0.09621000  1.0
  Sn  Sn8  1  0.75000000  0.27517000  0.96804000  1.0
  Sn  Sn9  1  0.81146000  0.90204000  0.11427000  1.0
  Sn  Sn10  1  0.25000000  0.27517000  0.96804000  1.0
  Sn  Sn11  1  0.18854000  0.90204000  0.11427000  1.0
  Ge  Ge12  1  0.00000000  0.00000000  0.90413000  1.0
  Ge  Ge13  1  0.00000000  0.65712000  0.03790000  1.0
  Ge  Ge14  1  0.50000000  0.00000000  0.90413000  1.0
  Ge  Ge15  1  0.50000000  0.55814000  0.03553000  1.0
  C  C16  1  0.00000000  0.16599000  0.11097000  1.0
