# generated using pymatgen
data_Mg8In8Ag16C
_symmetry_space_group_name_H-M   'P 1'
_cell_length_a   6.85111000
_cell_length_b   9.68893000
_cell_length_c   27.26670000
_cell_angle_alpha   90.00000000
_cell_angle_beta   90.00000000
_cell_angle_gamma   90.00000000
_symmetry_Int_Tables_number   1
_chemical_formula_structural   Mg8In8Ag16C
_chemical_formula_sum   'Mg8 In8 Ag16 C1'
_cell_volume   1809.96150679
_cell_formula_units_Z   1
loop_
 _symmetry_equiv_pos_site_id
 _symmetry_equiv_pos_as_xyz
  1  'x, y, z'
loop_
 _atom_site_type_symbol
 _atom_site_label
 _atom_site_symmetry_multiplicity
 _atom_site_fract_x
 _atom_site_fract_y
 _atom_site_fract_z
 _atom_site_occupancy
  Mg  Mg0  1  0.00000000  0.00000000  0.86675000  1.0
  Mg  Mg1  1  0.50000000  0.25000000  0.95558000  1.0
  Mg  Mg2  1  0.50000000  0.75000000  0.95558000  1.0
  Mg  Mg3  1  0.00000000  0.50000000  0.86675000  1.0
  Mg  Mg4  1  0.00000000  0.50000000  0.04915000  1.0
  Mg  Mg5  1  0.50000000  0.77343000  0.13510000  1.0
  Mg  Mg6  1  0.50000000  0.22657000  0.13510000  1.0
  Mg  Mg7  1  0.00000000  0.00000000  0.05088000  1.0
  In  In8  1  0.00000000  0.75000000  0.95558000  1.0
  In  In9  1  0.50000000  0.00000000  0.86675000  1.0
  In  In10  1  0.00000000  0.25000000  0.95558000  1.0
  In  In11  1  0.50000000  0.50000000  0.86675000  1.0
  In  In12  1  0.00000000  0.26949000  0.14660000  1.0
  In  In13  1  0.50000000  0.50000000  0.04302000  1.0
  In  In14  1  0.00000000  0.73051000  0.14660000  1.0
  In  In15  1  0.50000000  0.00000000  0.04618000  1.0
  Ag  Ag16  1  0.25000000  0.00000000  0.95558000  1.0
  Ag  Ag17  1  0.75000000  0.50000000  0.95558000  1.0
  Ag  Ag18  1  0.75000000  0.00000000  0.95558000  1.0
  Ag  Ag19  1  0.25000000  0.50000000  0.95558000  1.0
  Ag  Ag20  1  0.75000000  0.75000000  0.86675000  1.0
  Ag  Ag21  1  0.25000000  0.25000000  0.86675000  1.0
  Ag  Ag22  1  0.25000000  0.75000000  0.86675000  1.0
  Ag  Ag23  1  0.75000000  0.25000000  0.86675000  1.0
  Ag  Ag24  1  0.28075000  0.50000000  0.13533000  1.0
  Ag  Ag25  1  0.80333000  0.00000000  0.15094000  1.0
  Ag  Ag26  1  0.71925000  0.50000000  0.13533000  1.0
  Ag  Ag27  1  0.19667000  0.00000000  0.15094000  1.0
  Ag  Ag28  1  0.76304000  0.25255000  0.04605000  1.0
  Ag  Ag29  1  0.23696000  0.74745000  0.04605000  1.0
  Ag  Ag30  1  0.23696000  0.25255000  0.04605000  1.0
  Ag  Ag31  1  0.76304000  0.74745000  0.04605000  1.0
  C  C32  1  0.50000000  0.00000000  0.13075000  1.0
