# generated using pymatgen
data_Li8Cu8Pd8Pb8C
_symmetry_space_group_name_H-M   'P 1'
_cell_length_a   9.13966000
_cell_length_b   6.46272000
_cell_length_c   26.85470000
_cell_angle_alpha   90.00000000
_cell_angle_beta   90.00000000
_cell_angle_gamma   90.00000000
_symmetry_Int_Tables_number   1
_chemical_formula_structural   Li8Cu8Pd8Pb8C
_chemical_formula_sum   'Li8 Cu8 Pd8 Pb8 C1'
_cell_volume   1586.22826951
_cell_formula_units_Z   1
loop_
 _symmetry_equiv_pos_site_id
 _symmetry_equiv_pos_as_xyz
  1  'x, y, z'
loop_
 _atom_site_type_symbol
 _atom_site_label
 _atom_site_symmetry_multiplicity
 _atom_site_fract_x
 _atom_site_fract_y
 _atom_site_fract_z
 _atom_site_occupancy
  Li  Li0  1  0.00000000  1.00000000  0.04254000  1.0
  Li  Li1  1  0.50000000  1.00000000  0.04254000  1.0
  Li  Li2  1  0.25000000  0.50000000  0.12763000  1.0
  Li  Li3  1  0.75000000  0.50000000  0.12763000  1.0
  Li  Li4  1  0.50000000  0.02457000  0.86899000  1.0
  Li  Li5  1  0.00000000  0.06093000  0.85956000  1.0
  Li  Li6  1  0.75268000  0.52639000  0.95201000  1.0
  Li  Li7  1  0.24732000  0.52639000  0.95201000  1.0
  Cu  Cu8  1  0.75000000  0.00000000  0.12763000  1.0
  Cu  Cu9  1  0.25000000  0.00000000  0.12763000  1.0
  Cu  Cu10  1  0.50000000  0.50000000  0.04254000  1.0
  Cu  Cu11  1  0.00000000  0.50000000  0.04254000  1.0
  Cu  Cu12  1  0.25380000  0.97886000  0.94927000  1.0
  Cu  Cu13  1  0.74620000  0.97886000  0.94927000  1.0
  Cu  Cu14  1  0.00000000  0.45698000  0.87863000  1.0
  Cu  Cu15  1  0.50000000  0.51885000  0.88027000  1.0
  Pd  Pd16  1  0.75000000  0.25000000  0.04254000  1.0
  Pd  Pd17  1  0.25000000  0.25000000  0.04254000  1.0
  Pd  Pd18  1  0.00000000  0.75000000  0.12763000  1.0
  Pd  Pd19  1  0.50000000  0.75000000  0.12763000  1.0
  Pd  Pd20  1  0.26335000  0.27525000  0.87940000  1.0
  Pd  Pd21  1  0.73665000  0.27525000  0.87940000  1.0
  Pd  Pd22  1  0.50000000  0.76226000  0.96040000  1.0
  Pd  Pd23  1  0.00000000  0.75924000  0.95231000  1.0
  Pb  Pb24  1  0.75000000  0.75000000  0.04254000  1.0
  Pb  Pb25  1  0.25000000  0.75000000  0.04254000  1.0
  Pb  Pb26  1  0.00000000  0.25000000  0.12763000  1.0
  Pb  Pb27  1  0.50000000  0.25000000  0.12763000  1.0
  Pb  Pb28  1  0.24664000  0.75130000  0.84906000  1.0
  Pb  Pb29  1  0.75336000  0.75130000  0.84906000  1.0
  Pb  Pb30  1  0.50000000  0.24586000  0.96008000  1.0
  Pb  Pb31  1  0.00000000  0.22859000  0.96168000  1.0
  C  C32  1  0.00000000  0.74878000  0.87494000  1.0
