# generated using pymatgen
data_Li8Cu8Pd8Pb8C
_symmetry_space_group_name_H-M   Pm
_cell_length_a   6.46272000
_cell_length_b   9.13966000
_cell_length_c   26.85470000
_cell_angle_alpha   90.00000000
_cell_angle_beta   90.00000000
_cell_angle_gamma   90.00000000
_symmetry_Int_Tables_number   6
_chemical_formula_structural   Li8Cu8Pd8Pb8C
_chemical_formula_sum   'Li8 Cu8 Pd8 Pb8 C1'
_cell_volume   1586.22826951
_cell_formula_units_Z   1
loop_
 _symmetry_equiv_pos_site_id
 _symmetry_equiv_pos_as_xyz
  1  'x, y, z'
  2  'x, -y, z'
loop_
 _atom_site_type_symbol
 _atom_site_label
 _atom_site_symmetry_multiplicity
 _atom_site_fract_x
 _atom_site_fract_y
 _atom_site_fract_z
 _atom_site_occupancy
  Li  Li0  2  0.50000000  0.25000000  0.87237000  1.0
  Li  Li1  2  0.52639000  0.24732000  0.04799000  1.0
  Li  Li2  1  -0.00000000  0.50000000  0.95746000  1.0
  Li  Li3  1  -0.00000000  0.00000000  0.95746000  1.0
  Li  Li4  1  0.02457000  0.50000000  0.13101000  1.0
  Li  Li5  1  0.06093000  0.00000000  0.14044000  1.0
  Cu  Cu6  2  0.00000000  0.25000000  0.87237000  1.0
  Cu  Cu7  2  0.97886000  0.25380000  0.05073000  1.0
  Cu  Cu8  1  0.45698000  0.00000000  0.12137000  1.0
  Cu  Cu9  1  0.50000000  0.00000000  0.95746000  1.0
  Cu  Cu10  1  0.50000000  0.50000000  0.95746000  1.0
  Cu  Cu11  1  0.51885000  0.50000000  0.11973000  1.0
  Pd  Pd12  2  0.25000000  0.25000000  0.95746000  1.0
  Pd  Pd13  2  0.27525000  0.26335000  0.12060000  1.0
  Pd  Pd14  1  0.75000000  0.00000000  0.87237000  1.0
  Pd  Pd15  1  0.75000000  0.50000000  0.87237000  1.0
  Pd  Pd16  1  0.75924000  0.00000000  0.04769000  1.0
  Pd  Pd17  1  0.76226000  0.50000000  0.03960000  1.0
  Pb  Pb18  2  0.75000000  0.25000000  0.95746000  1.0
  Pb  Pb19  2  0.75130000  0.24664000  0.15094000  1.0
  Pb  Pb20  1  0.22859000  0.00000000  0.03832000  1.0
  Pb  Pb21  1  0.24586000  0.50000000  0.03992000  1.0
  Pb  Pb22  1  0.25000000  0.00000000  0.87237000  1.0
  Pb  Pb23  1  0.25000000  0.50000000  0.87237000  1.0
  C  C24  1  0.74878000  0.00000000  0.12506000  1.0
