data_image0
_chemical_formula_structural       Ti8Al8Fe16CO
_chemical_formula_sum              "Ti8 Al8 Fe16 C1 O1"
_cell_length_a       5.83886
_cell_length_b       8.25739
_cell_length_c       26.193
_cell_angle_alpha    90
_cell_angle_beta     90
_cell_angle_gamma    90

_space_group_name_H-M_alt    "P 1"
_space_group_IT_number       1

loop_
  _space_group_symop_operation_xyz
  'x, y, z'

loop_
  _atom_site_type_symbol
  _atom_site_label
  _atom_site_symmetry_multiplicity
  _atom_site_fract_x
  _atom_site_fract_y
  _atom_site_fract_z
  _atom_site_occupancy
  Ti  Ti1       1.0  0.00000  0.00000  0.88178  1.0000
  Ti  Ti2       1.0  0.50000  0.25000  0.96059  1.0000
  Ti  Ti3       1.0  0.50000  0.75000  0.96059  1.0000
  Ti  Ti4       1.0  0.00000  0.50000  0.88178  1.0000
  Ti  Ti5       1.0  0.00000  0.50098  0.03800  1.0000
  Ti  Ti6       1.0  0.50000  0.74998  0.11850  1.0000
  Ti  Ti7       1.0  0.50000  0.25002  0.11815  1.0000
  Ti  Ti8       1.0  1.00000  0.99902  0.03799  1.0000
  Al  Al1       1.0  0.00000  0.75000  0.96059  1.0000
  Al  Al2       1.0  0.50000  0.00000  0.88178  1.0000
  Al  Al3       1.0  0.00000  0.25000  0.96059  1.0000
  Al  Al4       1.0  0.50000  0.50000  0.88178  1.0000
  Al  Al5       1.0  0.00001  0.25002  0.12273  1.0000
  Al  Al6       1.0  0.49999  0.49970  0.03791  1.0000
  Al  Al7       1.0  1.00000  0.74998  0.12171  1.0000
  Al  Al8       1.0  0.50000  0.00030  0.03791  1.0000
  Fe  Fe1       1.0  0.25000  0.00000  0.96059  1.0000
  Fe  Fe2       1.0  0.75000  0.50000  0.96059  1.0000
  Fe  Fe3       1.0  0.75000  0.00000  0.96059  1.0000
  Fe  Fe4       1.0  0.25000  0.50000  0.96059  1.0000
  Fe  Fe5       1.0  0.75000  0.75000  0.88178  1.0000
  Fe  Fe6       1.0  0.25000  0.25000  0.88178  1.0000
  Fe  Fe7       1.0  0.25000  0.75000  0.88178  1.0000
  Fe  Fe8       1.0  0.75000  0.25000  0.88178  1.0000
  Fe  Fe9       1.0  0.24391  0.50190  0.11574  1.0000
  Fe  Fe10      1.0  0.75611  0.99810  0.11574  1.0000
  Fe  Fe11      1.0  0.75609  0.50190  0.11574  1.0000
  Fe  Fe12      1.0  0.24389  0.99810  0.11574  1.0000
  Fe  Fe13      1.0  0.74870  0.24998  0.04205  1.0000
  Fe  Fe14      1.0  0.25355  0.75002  0.04100  1.0000
  Fe  Fe15      1.0  0.25129  0.24997  0.04204  1.0000
  Fe  Fe16      1.0  0.74645  0.75001  0.04100  1.0000
  C   C1        1.0  0.00001  0.25000  0.19956  1.0000
  O   O1        1.0  0.00001  0.25000  0.24369  1.0000
