# generated using pymatgen
data_Ti8Al8Fe16CO
_symmetry_space_group_name_H-M   Pmm2
_cell_length_a   5.83886000
_cell_length_b   8.25739000
_cell_length_c   26.19300000
_cell_angle_alpha   90.00000000
_cell_angle_beta   90.00000000
_cell_angle_gamma   90.00000000
_symmetry_Int_Tables_number   25
_chemical_formula_structural   Ti8Al8Fe16CO
_chemical_formula_sum   'Ti8 Al8 Fe16 C1 O1'
_cell_volume   1262.86260119
_cell_formula_units_Z   1
loop_
 _symmetry_equiv_pos_site_id
 _symmetry_equiv_pos_as_xyz
  1  'x, y, z'
  2  '-x, -y, z'
  3  '-x, y, z'
  4  'x, -y, z'
loop_
 _atom_site_type_symbol
 _atom_site_label
 _atom_site_symmetry_multiplicity
 _atom_site_fract_x
 _atom_site_fract_y
 _atom_site_fract_z
 _atom_site_occupancy
  Ti  Ti0  2  0.00000000  0.25000000  0.88178000  1.0
  Ti  Ti1  2  0.00000000  0.25098000  0.03800000  1.0
  Ti  Ti2  1  0.50000000  0.00000000  0.11815000  1.0
  Ti  Ti3  1  0.50000000  0.00000000  0.96059000  1.0
  Ti  Ti4  1  0.50000000  0.50000000  0.11850000  1.0
  Ti  Ti5  1  0.50000000  0.50000000  0.96059000  1.0
  Al  Al6  2  0.50000000  0.24970000  0.03791000  1.0
  Al  Al7  2  0.50000000  0.25000000  0.88178000  1.0
  Al  Al8  1  0.00000000  0.00000000  0.12273000  1.0
  Al  Al9  1  0.00000000  0.00000000  0.96059000  1.0
  Al  Al10  1  0.00000000  0.50000000  0.12171000  1.0
  Al  Al11  1  0.00000000  0.50000000  0.96059000  1.0
  Fe  Fe12  4  0.24390000  0.25190000  0.11574000  1.0
  Fe  Fe13  4  0.24999000  0.25000000  0.96059000  1.0
  Fe  Fe14  2  0.24999000  0.00000000  0.88178000  1.0
  Fe  Fe15  2  0.25001000  0.50000000  0.88178000  1.0
  Fe  Fe16  2  0.25131000  0.00000000  0.04205000  1.0
  Fe  Fe17  2  0.25354000  0.50000000  0.04100000  1.0
  C  C18  1  0.00000000  0.00000000  0.19956000  1.0
  O  O19  1  0.00000000  0.00000000  0.24369000  1.0
