# generated using pymatgen
data_Sn16Sb16CO
_symmetry_space_group_name_H-M   'P 1'
_cell_length_a   7.64519000
_cell_length_b   10.81190000
_cell_length_c   28.10890000
_cell_angle_alpha   90.00000000
_cell_angle_beta   90.00000000
_cell_angle_gamma   90.00000000
_symmetry_Int_Tables_number   1
_chemical_formula_structural   Sn16Sb16CO
_chemical_formula_sum   'Sn16 Sb16 C1 O1'
_cell_volume   2323.45440165
_cell_formula_units_Z   1
loop_
 _symmetry_equiv_pos_site_id
 _symmetry_equiv_pos_as_xyz
  1  'x, y, z'
loop_
 _atom_site_type_symbol
 _atom_site_label
 _atom_site_symmetry_multiplicity
 _atom_site_fract_x
 _atom_site_fract_y
 _atom_site_fract_z
 _atom_site_occupancy
  Sn  Sn0  1  0.25000000  0.25000000  0.85576000  1.0
  Sn  Sn1  1  0.25000000  0.00000000  0.95192000  1.0
  Sn  Sn2  1  0.25001000  0.23257000  0.05612000  1.0
  Sn  Sn3  1  0.24998000  0.00001000  0.14662000  1.0
  Sn  Sn4  1  0.25000000  0.75000000  0.85576000  1.0
  Sn  Sn5  1  0.25000000  0.50000000  0.95192000  1.0
  Sn  Sn6  1  0.24999000  0.76744000  0.05612000  1.0
  Sn  Sn7  1  0.24999000  0.50000000  0.17414000  1.0
  Sn  Sn8  1  0.75000000  0.25000000  0.85576000  1.0
  Sn  Sn9  1  0.75000000  0.00000000  0.95192000  1.0
  Sn  Sn10  1  0.75001000  0.24112000  0.05320000  1.0
  Sn  Sn11  1  0.74998000  0.00000000  0.15168000  1.0
  Sn  Sn12  1  0.75000000  0.75000000  0.85576000  1.0
  Sn  Sn13  1  0.75000000  0.50000000  0.95192000  1.0
  Sn  Sn14  1  0.75000000  0.75888000  0.05320000  1.0
  Sn  Sn15  1  0.74999000  0.50001000  0.17256000  1.0
  Sb  Sb16  1  0.00000000  0.00000000  0.85576000  1.0
  Sb  Sb17  1  0.00000000  0.25000000  0.95192000  1.0
  Sb  Sb18  1  0.98858000  0.00001000  0.06419000  1.0
  Sb  Sb19  1  0.00060000  0.27185000  0.14595000  1.0
  Sb  Sb20  1  0.00000000  0.50000000  0.85576000  1.0
  Sb  Sb21  1  0.00000000  0.75000000  0.95192000  1.0
  Sb  Sb22  1  0.00494000  0.50001000  0.08254000  1.0
  Sb  Sb23  1  0.00060000  0.72816000  0.14595000  1.0
  Sb  Sb24  1  0.50000000  0.00000000  0.85576000  1.0
  Sb  Sb25  1  0.50000000  0.25000000  0.95192000  1.0
  Sb  Sb26  1  0.51137000  0.00000000  0.06419000  1.0
  Sb  Sb27  1  0.49941000  0.27185000  0.14595000  1.0
  Sb  Sb28  1  0.50000000  0.50000000  0.85576000  1.0
  Sb  Sb29  1  0.50000000  0.75000000  0.95192000  1.0
  Sb  Sb30  1  0.49504000  0.50001000  0.08254000  1.0
  Sb  Sb31  1  0.49940000  0.72816000  0.14595000  1.0
  C  C32  1  0.25015000  0.99985000  0.28753000  1.0
  O  O33  1  0.24996000  0.00001000  0.32791000  1.0
