# generated using pymatgen
data_Li4Ga8Rh4CO
_symmetry_space_group_name_H-M   P4mm
_cell_length_a   6.12388000
_cell_length_b   6.12388000
_cell_length_c   24.59290000
_cell_angle_alpha   90.00000000
_cell_angle_beta   90.00000000
_cell_angle_gamma   90.00000000
_symmetry_Int_Tables_number   99
_chemical_formula_structural   Li4Ga8Rh4CO
_chemical_formula_sum   'Li4 Ga8 Rh4 C1 O1'
_cell_volume   922.28063032
_cell_formula_units_Z   1
loop_
 _symmetry_equiv_pos_site_id
 _symmetry_equiv_pos_as_xyz
  1  'x, y, z'
  2  '-y, x, z'
  3  '-x, -y, z'
  4  'y, -x, z'
  5  '-x, y, z'
  6  'y, x, z'
  7  'x, -y, z'
  8  '-y, -x, z'
loop_
 _atom_site_type_symbol
 _atom_site_label
 _atom_site_symmetry_multiplicity
 _atom_site_fract_x
 _atom_site_fract_y
 _atom_site_fract_z
 _atom_site_occupancy
  Li  Li0  2  0.00000000  0.50000000  0.96887000  1.0
  Li  Li1  1  0.00000000  0.00000000  0.10852000  1.0
  Li  Li2  1  0.50000000  0.50000000  0.10763000  1.0
  Ga  Ga3  4  0.24999500  0.24999500  0.90662000  1.0
  Ga  Ga4  4  0.25034500  0.25034500  0.03398000  1.0
  Rh  Rh5  2  0.00000000  0.50000000  0.08465000  1.0
  Rh  Rh6  1  0.00000000  0.00000000  0.96887000  1.0
  Rh  Rh7  1  0.50000000  0.50000000  0.96887000  1.0
  C  C8  1  0.00000000  0.00000000  0.19414000  1.0
  O  O9  1  0.00000000  0.00000000  0.24047000  1.0
