# generated using pymatgen
data_Sc4In4Ge4Pd4CO
_symmetry_space_group_name_H-M   'P 1'
_cell_length_a   8.38060000
_cell_length_b   6.05174000
_cell_length_c   24.46740000
_cell_angle_alpha   90.00000000
_cell_angle_beta   90.00000000
_cell_angle_gamma   90.00000000
_symmetry_Int_Tables_number   1
_chemical_formula_structural   Sc4In4Ge4Pd4CO
_chemical_formula_sum   'Sc4 In4 Ge4 Pd4 C1 O1'
_cell_volume   1240.91831886
_cell_formula_units_Z   1
loop_
 _symmetry_equiv_pos_site_id
 _symmetry_equiv_pos_as_xyz
  1  'x, y, z'
loop_
 _atom_site_type_symbol
 _atom_site_label
 _atom_site_symmetry_multiplicity
 _atom_site_fract_x
 _atom_site_fract_y
 _atom_site_fract_z
 _atom_site_occupancy
  Sc  Sc0  1  0.00000000  0.20584000  0.03043000  1.0
  Sc  Sc1  1  0.00000000  0.61052000  0.91665000  1.0
  Sc  Sc2  1  0.50000000  0.20584000  0.03043000  1.0
  Sc  Sc3  1  0.50000000  0.60831000  0.91868000  1.0
  In  In4  1  0.75001000  0.50000000  0.09129000  1.0
  In  In5  1  0.75071000  0.89812000  0.97080000  1.0
  In  In6  1  0.24999000  0.50000000  0.09129000  1.0
  In  In7  1  0.24929000  0.89812000  0.97080000  1.0
  Ge  Ge8  1  0.75001000  0.00000000  0.09129000  1.0
  Ge  Ge9  1  0.75093000  0.38960000  0.96168000  1.0
  Ge  Ge10  1  0.24999000  0.00000000  0.09129000  1.0
  Ge  Ge11  1  0.24907000  0.38960000  0.96168000  1.0
  Pd  Pd12  1  0.00000000  0.70584000  0.03043000  1.0
  Pd  Pd13  1  0.00000000  0.12688000  0.92249000  1.0
  Pd  Pd14  1  0.50000000  0.70584000  0.03043000  1.0
  Pd  Pd15  1  0.50000000  0.12576000  0.92318000  1.0
  C  C16  1  0.00000000  0.61976000  0.82060000  1.0
  O  O17  1  0.00000000  0.62232000  0.77364000  1.0
