# generated using pymatgen
data_Li8Mg8Ge8Pd8CO
_symmetry_space_group_name_H-M   'P 1'
_cell_length_a   8.85076000
_cell_length_b   6.25843000
_cell_length_c   26.63810000
_cell_angle_alpha   90.00000000
_cell_angle_beta   90.00000000
_cell_angle_gamma   90.00000000
_symmetry_Int_Tables_number   1
_chemical_formula_structural   Li8Mg8Ge8Pd8CO
_chemical_formula_sum   'Li8 Mg8 Ge8 Pd8 C1 O1'
_cell_volume   1475.53395666
_cell_formula_units_Z   1
loop_
 _symmetry_equiv_pos_site_id
 _symmetry_equiv_pos_as_xyz
  1  'x, y, z'
loop_
 _atom_site_type_symbol
 _atom_site_label
 _atom_site_symmetry_multiplicity
 _atom_site_fract_x
 _atom_site_fract_y
 _atom_site_fract_z
 _atom_site_occupancy
  Li  Li0  1  0.75001000  0.25000000  0.04153000  1.0
  Li  Li1  1  0.24999000  0.25000000  0.04153000  1.0
  Li  Li2  1  0.00000000  0.75000000  0.12460000  1.0
  Li  Li3  1  0.50000000  0.75000000  0.12460000  1.0
  Li  Li4  1  0.24585000  0.31554000  0.84884000  1.0
  Li  Li5  1  0.75415000  0.31554000  0.84884000  1.0
  Li  Li6  1  0.50000000  0.74577000  0.95573000  1.0
  Li  Li7  1  0.00000000  0.75361000  0.95611000  1.0
  Mg  Mg8  1  0.00000000  1.00000000  0.04153000  1.0
  Mg  Mg9  1  0.50000000  1.00000000  0.04153000  1.0
  Mg  Mg10  1  0.25001000  0.50000000  0.12460000  1.0
  Mg  Mg11  1  0.74999000  0.50000000  0.12460000  1.0
  Mg  Mg12  1  0.50000000  0.01439000  0.87123000  1.0
  Mg  Mg13  1  0.00000000  0.99326000  0.87024000  1.0
  Mg  Mg14  1  0.75597000  0.48604000  0.95575000  1.0
  Mg  Mg15  1  0.24403000  0.48604000  0.95575000  1.0
  Ge  Ge16  1  0.75001000  0.00000000  0.12460000  1.0
  Ge  Ge17  1  0.24999000  0.00000000  0.12460000  1.0
  Ge  Ge18  1  0.50000000  0.50000000  0.04153000  1.0
  Ge  Ge19  1  0.00000000  0.50000000  0.04153000  1.0
  Ge  Ge20  1  0.25383000  0.00948000  0.95320000  1.0
  Ge  Ge21  1  0.74617000  0.00948000  0.95320000  1.0
  Ge  Ge22  1  0.00000000  0.51725000  0.87164000  1.0
  Ge  Ge23  1  0.50000000  0.50514000  0.87106000  1.0
  Pd  Pd24  1  0.75001000  0.75000000  0.04153000  1.0
  Pd  Pd25  1  0.24999000  0.75000000  0.04153000  1.0
  Pd  Pd26  1  0.00000000  0.25000000  0.12460000  1.0
  Pd  Pd27  1  0.50000000  0.25000000  0.12460000  1.0
  Pd  Pd28  1  0.25659000  0.74396000  0.87942000  1.0
  Pd  Pd29  1  0.74341000  0.74396000  0.87942000  1.0
  Pd  Pd30  1  0.50000000  0.25590000  0.96112000  1.0
  Pd  Pd31  1  0.00000000  0.23875000  0.95490000  1.0
  C  C32  1  0.00000000  0.02270000  0.78722000  1.0
  O  O33  1  0.00000000  0.03040000  0.74417000  1.0
