# generated using pymatgen
data_Li4Sn4Pd8CO
_symmetry_space_group_name_H-M   'P 1'
_cell_length_a   6.41477000
_cell_length_b   6.41477000
_cell_length_c   24.81110000
_cell_angle_alpha   90.00000000
_cell_angle_beta   90.00000000
_cell_angle_gamma   90.00000000
_symmetry_Int_Tables_number   1
_chemical_formula_structural   Li4Sn4Pd8CO
_chemical_formula_sum   'Li4 Sn4 Pd8 C1 O1'
_cell_volume   1020.95875594
_cell_formula_units_Z   1
loop_
 _symmetry_equiv_pos_site_id
 _symmetry_equiv_pos_as_xyz
  1  'x, y, z'
loop_
 _atom_site_type_symbol
 _atom_site_label
 _atom_site_symmetry_multiplicity
 _atom_site_fract_x
 _atom_site_fract_y
 _atom_site_fract_z
 _atom_site_occupancy
  Li  Li0  1  0.00000000  0.00000000  0.09695000  1.0
  Li  Li1  1  0.50000000  0.50000000  0.09695000  1.0
  Li  Li2  1  0.50000000  0.00000000  0.96768000  1.0
  Li  Li3  1  0.00000000  0.50000000  0.96768000  1.0
  Sn  Sn4  1  0.00000000  0.00000000  0.96768000  1.0
  Sn  Sn5  1  0.50000000  0.00000000  0.09695000  1.0
  Sn  Sn6  1  0.00000000  0.50000000  0.09695000  1.0
  Sn  Sn7  1  0.50000000  0.50000000  0.96768000  1.0
  Pd  Pd8  1  0.25000000  0.25000000  0.03232000  1.0
  Pd  Pd9  1  0.75000000  0.75000000  0.90305000  1.0
  Pd  Pd10  1  0.75000000  0.25000000  0.03232000  1.0
  Pd  Pd11  1  0.25000000  0.75000000  0.90305000  1.0
  Pd  Pd12  1  0.75000000  0.75000000  0.03232000  1.0
  Pd  Pd13  1  0.25000000  0.25000000  0.90305000  1.0
  Pd  Pd14  1  0.25000000  0.75000000  0.03232000  1.0
  Pd  Pd15  1  0.75000000  0.25000000  0.90305000  1.0
  C  C16  1  0.00000000  0.00000000  0.17353000  1.0
  O  O17  1  0.00000000  0.00000000  0.21988000  1.0
