# generated using pymatgen
data_TiGa
_symmetry_space_group_name_H-M   'P 1'
_cell_length_a   3.97636000
_cell_length_b   3.99671000
_cell_length_c   25.96450000
_cell_angle_alpha   90.00000000
_cell_angle_beta   90.00000000
_cell_angle_gamma   90.00000000
_symmetry_Int_Tables_number   1
_chemical_formula_structural   TiGa
_chemical_formula_sum   'Ti4 Ga4'
_cell_volume   412.63712346
_cell_formula_units_Z   4
loop_
 _symmetry_equiv_pos_site_id
 _symmetry_equiv_pos_as_xyz
  1  'x, y, z'
loop_
 _atom_site_type_symbol
 _atom_site_label
 _atom_site_symmetry_multiplicity
 _atom_site_fract_x
 _atom_site_fract_y
 _atom_site_fract_z
 _atom_site_occupancy
  Ti  Ti0  1  0.25000000  0.50000000  0.88514000  1.0
  Ti  Ti1  1  0.75000000  0.50000000  0.96171000  1.0
  Ti  Ti2  1  0.25000000  0.50000000  0.03829000  1.0
  Ti  Ti3  1  0.75000000  0.50000000  0.11486000  1.0
  Ga  Ga4  1  0.75000000  0.00000000  0.88514000  1.0
  Ga  Ga5  1  0.25000000  0.00000000  0.96171000  1.0
  Ga  Ga6  1  0.75000000  0.00000000  0.03829000  1.0
  Ga  Ga7  1  0.25000000  0.00000000  0.11486000  1.0
