# generated using pymatgen
data_Ni24Sb8CO
_symmetry_space_group_name_H-M   'P 1'
_cell_length_a   8.45446000
_cell_length_b   5.97820000
_cell_length_c   26.34080000
_cell_angle_alpha   90.00000000
_cell_angle_beta   90.00000000
_cell_angle_gamma   90.00000000
_symmetry_Int_Tables_number   1
_chemical_formula_structural   Ni24Sb8CO
_chemical_formula_sum   'Ni24 Sb8 C1 O1'
_cell_volume   1331.32863998
_cell_formula_units_Z   1
loop_
 _symmetry_equiv_pos_site_id
 _symmetry_equiv_pos_as_xyz
  1  'x, y, z'
loop_
 _atom_site_type_symbol
 _atom_site_label
 _atom_site_symmetry_multiplicity
 _atom_site_fract_x
 _atom_site_fract_y
 _atom_site_fract_z
 _atom_site_occupancy
  Ni  Ni0  1  0.00000000  0.25004000  0.04012000  1.0
  Ni  Ni1  1  0.50000000  0.75004000  0.04012000  1.0
  Ni  Ni2  1  0.00000000  0.74996000  0.04012000  1.0
  Ni  Ni3  1  0.50000000  0.24996000  0.04012000  1.0
  Ni  Ni4  1  0.75000000  0.75004000  0.12036000  1.0
  Ni  Ni5  1  0.25000000  0.25004000  0.12036000  1.0
  Ni  Ni6  1  0.75000000  0.24996000  0.12036000  1.0
  Ni  Ni7  1  0.25000000  0.74996000  0.12036000  1.0
  Ni  Ni8  1  0.75000000  0.50000000  0.04012000  1.0
  Ni  Ni9  1  0.00000000  0.00000000  0.12036000  1.0
  Ni  Ni10  1  0.25000000  0.50000000  0.04012000  1.0
  Ni  Ni11  1  0.50000000  0.00000000  0.12036000  1.0
  Ni  Ni12  1  0.50247000  0.24354000  0.88415000  1.0
  Ni  Ni13  1  0.99744000  0.75737000  0.88420000  1.0
  Ni  Ni14  1  0.50247000  0.75646000  0.88415000  1.0
  Ni  Ni15  1  0.99744000  0.24263000  0.88420000  1.0
  Ni  Ni16  1  0.25002000  0.73379000  0.95861000  1.0
  Ni  Ni17  1  0.75002000  0.21924000  0.95586000  1.0
  Ni  Ni18  1  0.25002000  0.26621000  0.95861000  1.0
  Ni  Ni19  1  0.75002000  0.78076000  0.95586000  1.0
  Ni  Ni20  1  0.24982000  0.50000000  0.87532000  1.0
  Ni  Ni21  1  0.48951000  0.00000000  0.96235000  1.0
  Ni  Ni22  1  0.75012000  0.50000000  0.88466000  1.0
  Ni  Ni23  1  0.01056000  0.00000000  0.96242000  1.0
  Sb  Sb24  1  0.00000000  0.50000000  0.12036000  1.0
  Sb  Sb25  1  0.25000000  0.00000000  0.04012000  1.0
  Sb  Sb26  1  0.75000000  0.00000000  0.04012000  1.0
  Sb  Sb27  1  0.50000000  0.50000000  0.12036000  1.0
  Sb  Sb28  1  0.51152000  0.50000000  0.96085000  1.0
  Sb  Sb29  1  0.74976000  0.00000000  0.86604000  1.0
  Sb  Sb30  1  0.25014000  0.00000000  0.87980000  1.0
  Sb  Sb31  1  0.98854000  0.50000000  0.96079000  1.0
  C  C32  1  0.24989000  0.50000000  0.80864000  1.0
  O  O33  1  0.25002000  0.50000000  0.76480000  1.0
