# generated using pymatgen
data_Ni24Sb8CO
_symmetry_space_group_name_H-M   Pm
_cell_length_a   8.45446000
_cell_length_b   5.97820000
_cell_length_c   26.34080000
_cell_angle_alpha   90.00000000
_cell_angle_beta   90.00000000
_cell_angle_gamma   90.00000000
_symmetry_Int_Tables_number   6
_chemical_formula_structural   Ni24Sb8CO
_chemical_formula_sum   'Ni24 Sb8 C1 O1'
_cell_volume   1331.32863998
_cell_formula_units_Z   1
loop_
 _symmetry_equiv_pos_site_id
 _symmetry_equiv_pos_as_xyz
  1  'x, y, z'
  2  'x, -y, z'
loop_
 _atom_site_type_symbol
 _atom_site_label
 _atom_site_symmetry_multiplicity
 _atom_site_fract_x
 _atom_site_fract_y
 _atom_site_fract_z
 _atom_site_occupancy
  Ni  Ni0  2  0.00000000  0.25004000  0.95988000  1.0
  Ni  Ni1  2  0.25000000  0.25004000  0.87964000  1.0
  Ni  Ni2  2  0.25002000  0.26621000  0.04139000  1.0
  Ni  Ni3  2  0.50000000  0.24996000  0.95988000  1.0
  Ni  Ni4  2  0.50247000  0.24354000  0.11585000  1.0
  Ni  Ni5  2  0.75000000  0.24996000  0.87964000  1.0
  Ni  Ni6  2  0.75002000  0.21924000  0.04414000  1.0
  Ni  Ni7  2  0.99744000  0.24263000  0.11580000  1.0
  Ni  Ni8  1  0.00000000  0.00000000  0.87964000  1.0
  Ni  Ni9  1  0.01056000  0.00000000  0.03758000  1.0
  Ni  Ni10  1  0.24982000  0.50000000  0.12468000  1.0
  Ni  Ni11  1  0.25000000  0.50000000  0.95988000  1.0
  Ni  Ni12  1  0.48951000  0.00000000  0.03765000  1.0
  Ni  Ni13  1  0.50000000  0.00000000  0.87964000  1.0
  Ni  Ni14  1  0.75000000  0.50000000  0.95988000  1.0
  Ni  Ni15  1  0.75012000  0.50000000  0.11534000  1.0
  Sb  Sb16  1  0.00000000  0.50000000  0.87964000  1.0
  Sb  Sb17  1  0.25000000  0.00000000  0.95988000  1.0
  Sb  Sb18  1  0.25014000  0.00000000  0.12020000  1.0
  Sb  Sb19  1  0.50000000  0.50000000  0.87964000  1.0
  Sb  Sb20  1  0.51152000  0.50000000  0.03915000  1.0
  Sb  Sb21  1  0.74976000  0.00000000  0.13396000  1.0
  Sb  Sb22  1  0.75000000  0.00000000  0.95988000  1.0
  Sb  Sb23  1  0.98854000  0.50000000  0.03921000  1.0
  C  C24  1  0.24989000  0.50000000  0.19136000  1.0
  O  O25  1  0.25002000  0.50000000  0.23520000  1.0
