data_image0
_chemical_formula_structural       Li4In8Rh4CO
_chemical_formula_sum              "Li4 In8 Rh4 C1 O1"
_cell_length_a       6.5792
_cell_length_b       6.5792
_cell_length_c       24.9344
_cell_angle_alpha    90
_cell_angle_beta     90
_cell_angle_gamma    90

_space_group_name_H-M_alt    "P 1"
_space_group_IT_number       1

loop_
  _space_group_symop_operation_xyz
  'x, y, z'

loop_
  _atom_site_type_symbol
  _atom_site_label
  _atom_site_symmetry_multiplicity
  _atom_site_fract_x
  _atom_site_fract_y
  _atom_site_fract_z
  _atom_site_occupancy
  Li  Li1       1.0  0.00002  0.00004  0.10918  1.0000
  Li  Li2       1.0  0.49999  0.49999  0.11168  1.0000
  Li  Li3       1.0  0.50000  0.00000  0.96702  1.0000
  Li  Li4       1.0  0.00000  0.50000  0.96702  1.0000
  In  In1       1.0  0.25047  0.25037  0.03517  1.0000
  In  In2       1.0  0.75000  0.75000  0.90105  1.0000
  In  In3       1.0  0.74953  0.25037  0.03516  1.0000
  In  In4       1.0  0.25000  0.75000  0.90105  1.0000
  In  In5       1.0  0.74953  0.74964  0.03517  1.0000
  In  In6       1.0  0.25000  0.25000  0.90105  1.0000
  In  In7       1.0  0.25047  0.74963  0.03517  1.0000
  In  In8       1.0  0.75000  0.25000  0.90105  1.0000
  Rh  Rh1       1.0  0.00000  0.00000  0.96702  1.0000
  Rh  Rh2       1.0  0.50000  1.00000  0.08898  1.0000
  Rh  Rh3       1.0  0.00001  0.50000  0.08912  1.0000
  Rh  Rh4       1.0  0.50000  0.50000  0.96702  1.0000
  C   C1        1.0  0.00000  0.00000  0.19339  1.0000
  O   O1        1.0  1.00000  0.99998  0.23906  1.0000
