# generated using pymatgen
data_Li4In8Rh4CO
_symmetry_space_group_name_H-M   Pmm2
_cell_length_a   6.57920000
_cell_length_b   6.57920000
_cell_length_c   24.93440000
_cell_angle_alpha   90.00000000
_cell_angle_beta   90.00000000
_cell_angle_gamma   90.00000000
_symmetry_Int_Tables_number   25
_chemical_formula_structural   Li4In8Rh4CO
_chemical_formula_sum   'Li4 In8 Rh4 C1 O1'
_cell_volume   1079.30726275
_cell_formula_units_Z   1
loop_
 _symmetry_equiv_pos_site_id
 _symmetry_equiv_pos_as_xyz
  1  'x, y, z'
  2  '-x, -y, z'
  3  '-x, y, z'
  4  'x, -y, z'
loop_
 _atom_site_type_symbol
 _atom_site_label
 _atom_site_symmetry_multiplicity
 _atom_site_fract_x
 _atom_site_fract_y
 _atom_site_fract_z
 _atom_site_occupancy
  Li  Li0  1  0.00000000  0.00000000  0.10918000  1.0
  Li  Li1  1  0.00000000  0.50000000  0.96702000  1.0
  Li  Li2  1  0.50000000  0.00000000  0.96702000  1.0
  Li  Li3  1  0.50000000  0.50000000  0.11168000  1.0
  In  In4  4  0.25000000  0.25000000  0.90105000  1.0
  In  In5  4  0.25047000  0.25037000  0.03517000  1.0
  Rh  Rh6  1  0.00000000  0.00000000  0.96702000  1.0
  Rh  Rh7  1  0.00000000  0.50000000  0.08912000  1.0
  Rh  Rh8  1  0.50000000  0.00000000  0.08898000  1.0
  Rh  Rh9  1  0.50000000  0.50000000  0.96702000  1.0
  C  C10  1  0.00000000  0.00000000  0.19339000  1.0
  O  O11  1  0.00000000  0.00000000  0.23906000  1.0
