# generated using pymatgen
data_Li16Sn8Ge8CO
_symmetry_space_group_name_H-M   P1
_cell_length_a   6.92564000
_cell_length_b   9.79433000
_cell_length_c   27.34580000
_cell_angle_alpha   90.00000000
_cell_angle_beta   90.00000000
_cell_angle_gamma   90.00000000
_symmetry_Int_Tables_number   1
_chemical_formula_structural   Li16Sn8Ge8CO
_chemical_formula_sum   'Li16 Sn8 Ge8 C1 O1'
_cell_volume   1854.92040462
_cell_formula_units_Z   1
loop_
 _symmetry_equiv_pos_site_id
 _symmetry_equiv_pos_as_xyz
  1  'x, y, z'
loop_
 _atom_site_type_symbol
 _atom_site_label
 _atom_site_symmetry_multiplicity
 _atom_site_fract_x
 _atom_site_fract_y
 _atom_site_fract_z
 _atom_site_occupancy
  Li  Li0  1  0.00000000  0.25000000  0.95523000  1.0
  Li  Li1  1  0.00000000  0.75000000  0.95523000  1.0
  Li  Li2  1  0.23261000  0.48022000  0.13359000  1.0
  Li  Li3  1  0.23262000  0.01961000  0.13356000  1.0
  Li  Li4  1  0.25000000  0.00000000  0.95523000  1.0
  Li  Li5  1  0.25000000  0.50000000  0.95523000  1.0
  Li  Li6  1  0.48574000  0.47854000  0.04125000  1.0
  Li  Li7  1  0.48598000  0.02176000  0.04122000  1.0
  Li  Li8  1  0.50000000  0.00000000  0.86569000  1.0
  Li  Li9  1  0.50000000  0.50000000  0.86569000  1.0
  Li  Li10  1  0.68271000  0.75007000  0.04951000  1.0
  Li  Li11  1  0.75000000  0.25000000  0.86569000  1.0
  Li  Li12  1  0.75000000  0.75000000  0.86569000  1.0
  Li  Li13  1  0.75357000  0.25033000  0.03829000  1.0
  Li  Li14  1  0.91253000  0.24979000  0.13023000  1.0
  Li  Li15  1  0.96630000  0.75006000  0.12765000  1.0
  Sn  Sn16  1  0.00000000  0.00000000  0.86569000  1.0
  Sn  Sn17  1  0.00000000  0.50000000  0.86569000  1.0
  Sn  Sn18  1  0.40364000  0.74984000  0.13047000  1.0
  Sn  Sn19  1  0.47373000  0.25005000  0.12576000  1.0
  Sn  Sn20  1  0.50000000  0.25000000  0.95523000  1.0
  Sn  Sn21  1  0.50000000  0.75000000  0.95523000  1.0
  Sn  Sn22  1  0.96873000  0.98463000  0.05118000  1.0
  Sn  Sn23  1  0.96934000  0.51574000  0.05103000  1.0
  Ge  Ge24  1  0.18058000  0.25000000  0.04417000  1.0
  Ge  Ge25  1  0.22599000  0.75042000  0.03511000  1.0
  Ge  Ge26  1  0.25000000  0.25000000  0.86569000  1.0
  Ge  Ge27  1  0.25000000  0.75000000  0.86569000  1.0
  Ge  Ge28  1  0.68676000  0.97917000  0.12893000  1.0
  Ge  Ge29  1  0.68720000  0.52076000  0.12884000  1.0
  Ge  Ge30  1  0.75000000  0.00000000  0.95523000  1.0
  Ge  Ge31  1  0.75000000  0.50000000  0.95523000  1.0
  C  C32  1  0.97689000  0.24992000  0.20493000  1.0
  O  O33  1  0.99748000  0.25001000  0.24633000  1.0
