# generated using pymatgen
data_Li8In8Cu8Pd8CO
_symmetry_space_group_name_H-M   'P 1'
_cell_length_a   8.95884000
_cell_length_b   6.33486000
_cell_length_c   26.71910000
_cell_angle_alpha   90.00000000
_cell_angle_beta   90.00000000
_cell_angle_gamma   90.00000000
_symmetry_Int_Tables_number   1
_chemical_formula_structural   Li8In8Cu8Pd8CO
_chemical_formula_sum   'Li8 In8 Cu8 Pd8 C1 O1'
_cell_volume   1516.38900648
_cell_formula_units_Z   1
loop_
 _symmetry_equiv_pos_site_id
 _symmetry_equiv_pos_as_xyz
  1  'x, y, z'
loop_
 _atom_site_type_symbol
 _atom_site_label
 _atom_site_symmetry_multiplicity
 _atom_site_fract_x
 _atom_site_fract_y
 _atom_site_fract_z
 _atom_site_occupancy
  Li  Li0  1  0.00000000  0.25000000  0.04191000  1.0
  Li  Li1  1  0.50000000  0.25000000  0.04191000  1.0
  Li  Li2  1  0.25000000  0.75000000  0.12574000  1.0
  Li  Li3  1  0.75000000  0.75000000  0.12574000  1.0
  Li  Li4  1  0.50000000  0.23988000  0.87186000  1.0
  Li  Li5  1  0.00000000  0.24327000  0.86983000  1.0
  Li  Li6  1  0.75178000  0.75168000  0.96421000  1.0
  Li  Li7  1  0.24822000  0.75168000  0.96421000  1.0
  In  In8  1  0.00000000  0.75000000  0.04191000  1.0
  In  In9  1  0.50000000  0.75000000  0.04191000  1.0
  In  In10  1  0.25000000  0.25000000  0.12574000  1.0
  In  In11  1  0.75000000  0.25000000  0.12574000  1.0
  In  In12  1  0.50000000  0.74276000  0.85470000  1.0
  In  In13  1  0.00000000  0.74664000  0.86033000  1.0
  In  In14  1  0.74729000  0.25247000  0.95822000  1.0
  In  In15  1  0.25271000  0.25247000  0.95822000  1.0
  Cu  Cu16  1  0.00000000  0.00000000  0.12574000  1.0
  Cu  Cu17  1  0.50000000  1.00000000  0.12574000  1.0
  Cu  Cu18  1  0.75000000  0.50000000  0.04191000  1.0
  Cu  Cu19  1  0.25000000  0.50000000  0.04191000  1.0
  Cu  Cu20  1  0.50000000  0.97843000  0.95220000  1.0
  Cu  Cu21  1  0.00000000  0.99019000  0.95356000  1.0
  Cu  Cu22  1  0.25226000  0.53366000  0.88390000  1.0
  Cu  Cu23  1  0.74774000  0.53366000  0.88390000  1.0
  Pd  Pd24  1  0.25000000  1.00000000  0.04191000  1.0
  Pd  Pd25  1  0.75000000  1.00000000  0.04191000  1.0
  Pd  Pd26  1  0.50000000  0.50000000  0.12574000  1.0
  Pd  Pd27  1  0.00000000  0.50000000  0.12574000  1.0
  Pd  Pd28  1  0.74653000  0.96571000  0.88306000  1.0
  Pd  Pd29  1  0.25347000  0.96571000  0.88306000  1.0
  Pd  Pd30  1  0.00000000  0.51191000  0.95287000  1.0
  Pd  Pd31  1  0.50000000  0.52152000  0.95152000  1.0
  C  C32  1  0.00000000  0.25591000  0.79054000  1.0
  O  O33  1  0.00000000  0.25526000  0.74788000  1.0
