# generated using pymatgen
data_Li4In4Cu4Sn4CO
_symmetry_space_group_name_H-M   'P 1'
_cell_length_a   6.73938000
_cell_length_b   6.73938000
_cell_length_c   25.05450000
_cell_angle_alpha   90.00000000
_cell_angle_beta   90.00000000
_cell_angle_gamma   90.00000000
_symmetry_Int_Tables_number   1
_chemical_formula_structural   Li4In4Cu4Sn4CO
_chemical_formula_sum   'Li4 In4 Cu4 Sn4 C1 O1'
_cell_volume   1137.95641834
_cell_formula_units_Z   1
loop_
 _symmetry_equiv_pos_site_id
 _symmetry_equiv_pos_as_xyz
  1  'x, y, z'
loop_
 _atom_site_type_symbol
 _atom_site_label
 _atom_site_symmetry_multiplicity
 _atom_site_fract_x
 _atom_site_fract_y
 _atom_site_fract_z
 _atom_site_occupancy
  Li  Li0  1  0.00000000  0.50001000  0.10087000  1
  Li  Li1  1  0.02614500  0.02614500  0.96128000  1
  Li  Li2  1  0.47408500  0.47408500  0.96140000  1
  Li  Li3  1  0.50001000  1.00000000  0.10087000  1
  In  In4  1  0.25000000  0.75001000  0.03362000  1
  In  In5  1  0.25001000  0.25001000  0.87025000  1
  In  In6  1  0.74938000  0.74938000  0.90008000  1
  In  In7  1  0.75001000  0.25000000  0.03362000  1
  Cu  Cu8  1  0.00000500  0.00000500  0.10087000  1
  Cu  Cu9  1  0.01653000  0.48282000  0.96838000  1
  Cu  Cu10  1  0.48282000  0.01653000  0.96838000  1
  Cu  Cu11  1  0.50000500  0.50000500  0.10087000  1
  Sn  Sn12  1  0.75000500  0.75000500  0.03362000  1
  Sn  Sn13  1  0.74950000  0.24866000  0.89871000  1
  Sn  Sn14  1  0.24866000  0.74950000  0.89871000  1
  Sn  Sn15  1  0.25000500  0.25000500  0.03362000  1
  C  C16  1  0.73916000  0.73916000  0.75180000  1
  O  O17  1  0.75738500  0.75738500  0.70702000  1
