# generated using pymatgen
data_Li8Y8Ge8Pd8C
_symmetry_space_group_name_H-M   Pm
_cell_length_a   6.55453000
_cell_length_b   9.26950000
_cell_length_c   26.95210000
_cell_angle_alpha   90.00000000
_cell_angle_beta   90.00000000
_cell_angle_gamma   90.00000000
_symmetry_Int_Tables_number   6
_chemical_formula_structural   Li8Y8Ge8Pd8C
_chemical_formula_sum   'Li8 Y8 Ge8 Pd8 C1'
_cell_volume   1637.53455691
_cell_formula_units_Z   1
loop_
 _symmetry_equiv_pos_site_id
 _symmetry_equiv_pos_as_xyz
  1  'x, y, z'
  2  'x, -y, z'
loop_
 _atom_site_type_symbol
 _atom_site_label
 _atom_site_symmetry_multiplicity
 _atom_site_fract_x
 _atom_site_fract_y
 _atom_site_fract_z
 _atom_site_occupancy
  Li  Li0  2  0.54763000  0.26705000  0.18088000  1.0
  Li  Li1  2  0.75000000  0.25000000  0.95701000  1.0
  Li  Li2  1  0.22738000  0.00000000  0.05851000  1.0
  Li  Li3  1  0.23182000  0.50000000  0.04691000  1.0
  Li  Li4  1  0.25000000  0.00000000  0.87103000  1.0
  Li  Li5  1  0.25000000  0.50000000  0.87103000  1.0
  Y  Y6  2  0.50000000  0.25000000  0.87103000  1.0
  Y  Y7  2  0.50342000  0.25146000  0.04736000  1.0
  Y  Y8  1  -0.00000000  0.00000000  0.95701000  1.0
  Y  Y9  1  0.00000000  0.50000000  0.95701000  1.0
  Y  Y10  1  0.91142000  0.00000000  0.13118000  1.0
  Y  Y11  1  0.95172000  0.50000000  0.13127000  1.0
  Ge  Ge12  2  0.00000000  0.25000000  0.87103000  1.0
  Ge  Ge13  2  0.98749000  0.24873000  0.04283000  1.0
  Ge  Ge14  1  0.46071000  0.50000000  0.12888000  1.0
  Ge  Ge15  1  0.50000000  0.00000000  0.95701000  1.0
  Ge  Ge16  1  0.50000000  0.50000000  0.95701000  1.0
  Ge  Ge17  1  0.51273000  0.00000000  0.13851000  1.0
  Pd  Pd18  2  0.21998000  0.24420000  0.12481000  1.0
  Pd  Pd19  2  0.25000000  0.25000000  0.95701000  1.0
  Pd  Pd20  1  0.73815000  0.00000000  0.03786000  1.0
  Pd  Pd21  1  0.75000000  0.00000000  0.87103000  1.0
  Pd  Pd22  1  0.75000000  0.50000000  0.87103000  1.0
  Pd  Pd23  1  0.75260000  0.50000000  0.04134000  1.0
  C  C24  1  0.23468000  0.00000000  0.14386000  1.0
