# generated using pymatgen
data_Ti16Au16CO
_symmetry_space_group_name_H-M   P1
_cell_length_a   6.57738000
_cell_length_b   9.30182000
_cell_length_c   26.97640000
_cell_angle_alpha   90.00000000
_cell_angle_beta   90.00000000
_cell_angle_gamma   90.00000000
_symmetry_Int_Tables_number   1
_chemical_formula_structural   Ti16Au16CO
_chemical_formula_sum   'Ti16 Au16 C1 O1'
_cell_volume   1650.45944458
_cell_formula_units_Z   1
loop_
 _symmetry_equiv_pos_site_id
 _symmetry_equiv_pos_as_xyz
  1  'x, y, z'
loop_
 _atom_site_type_symbol
 _atom_site_label
 _atom_site_symmetry_multiplicity
 _atom_site_fract_x
 _atom_site_fract_y
 _atom_site_fract_z
 _atom_site_occupancy
  Ti  Ti0  1  0.21189000  0.22938000  0.05036000  1.0
  Ti  Ti1  1  0.24474000  0.99294000  0.11987000  1.0
  Ti  Ti2  1  0.24788000  0.51725000  0.12479000  1.0
  Ti  Ti3  1  0.25000000  0.00000000  0.95690000  1.0
  Ti  Ti4  1  0.25000000  0.25000000  0.87069000  1.0
  Ti  Ti5  1  0.25000000  0.50000000  0.95690000  1.0
  Ti  Ti6  1  0.25000000  0.75000000  0.87069000  1.0
  Ti  Ti7  1  0.26361000  0.76192000  0.04548000  1.0
  Ti  Ti8  1  0.72892000  0.72427000  0.04255000  1.0
  Ti  Ti9  1  0.75000000  0.00000000  0.95690000  1.0
  Ti  Ti10  1  0.75000000  0.25000000  0.87069000  1.0
  Ti  Ti11  1  0.75000000  0.50000000  0.95690000  1.0
  Ti  Ti12  1  0.75000000  0.75000000  0.87069000  1.0
  Ti  Ti13  1  0.76686000  0.48330000  0.12015000  1.0
  Ti  Ti14  1  0.77394000  0.02675000  0.12480000  1.0
  Ti  Ti15  1  0.77544000  0.25933000  0.04907000  1.0
  Au  Au16  1  0.00000000  0.00000000  0.87069000  1.0
  Au  Au17  1  0.00000000  0.25000000  0.95690000  1.0
  Au  Au18  1  0.00000000  0.50000000  0.87069000  1.0
  Au  Au19  1  0.00000000  0.75000000  0.95690000  1.0
  Au  Au20  1  0.02521000  0.51523000  0.03884000  1.0
  Au  Au21  1  0.04447000  0.25283000  0.14563000  1.0
  Au  Au22  1  0.47344000  0.47061000  0.04133000  1.0
  Au  Au23  1  0.49174000  0.25188000  0.12710000  1.0
  Au  Au24  1  0.50000000  0.00000000  0.87069000  1.0
  Au  Au25  1  0.50000000  0.25000000  0.95690000  1.0
  Au  Au26  1  0.50000000  0.50000000  0.87069000  1.0
  Au  Au27  1  0.50000000  0.75000000  0.95690000  1.0
  Au  Au28  1  0.51915000  0.01594000  0.04120000  1.0
  Au  Au29  1  0.52250000  0.75668000  0.12918000  1.0
  Au  Au30  1  0.96785000  0.97105000  0.03962000  1.0
  Au  Au31  1  0.98280000  0.75197000  0.12603000  1.0
  C  C32  1  0.99451000  0.25504000  0.22105000  1.0
  O  O33  1  0.98587000  0.25039000  0.26366000  1.0
