# generated using pymatgen
data_Li8Mg4Pb4C
_symmetry_space_group_name_H-M   P1
_cell_length_a   6.88544000
_cell_length_b   6.88544000
_cell_length_c   25.16410000
_cell_angle_alpha   90.00000000
_cell_angle_beta   90.00000000
_cell_angle_gamma   90.00000000
_symmetry_Int_Tables_number   1
_chemical_formula_structural   Li8Mg4Pb4C
_chemical_formula_sum   'Li8 Mg4 Pb4 C1'
_cell_volume   1193.01196334
_cell_formula_units_Z   1
loop_
 _symmetry_equiv_pos_site_id
 _symmetry_equiv_pos_as_xyz
  1  'x, y, z'
loop_
 _atom_site_type_symbol
 _atom_site_label
 _atom_site_symmetry_multiplicity
 _atom_site_fract_x
 _atom_site_fract_y
 _atom_site_fract_z
 _atom_site_occupancy
  Li  Li0  1  0.21393000  0.21393000  0.11495000  1.0
  Li  Li1  1  0.21399000  0.78599000  0.11492000  1.0
  Li  Li2  1  0.25000000  0.25000000  0.96580000  1.0
  Li  Li3  1  0.25000000  0.75000000  0.96580000  1.0
  Li  Li4  1  0.75000000  0.25000000  0.96580000  1.0
  Li  Li5  1  0.75000000  0.75000000  0.96580000  1.0
  Li  Li6  1  0.78600000  0.78595000  0.11492000  1.0
  Li  Li7  1  0.78604000  0.21397000  0.11493000  1.0
  Mg  Mg8  1  0.00000000  0.00000000  0.89739000  1.0
  Mg  Mg9  1  0.00015000  0.50008000  0.03372000  1.0
  Mg  Mg10  1  0.49985000  0.00012000  0.03374000  1.0
  Mg  Mg11  1  0.50000000  0.50000000  0.89739000  1.0
  Pb  Pb12  1  0.00000000  0.50000000  0.89739000  1.0
  Pb  Pb13  1  0.49999000  0.49996000  0.04634000  1.0
  Pb  Pb14  1  0.50000000  0.00000000  0.89739000  1.0
  Pb  Pb15  1  0.99988000  0.99986000  0.02679000  1.0
  C  C16  1  0.99999000  0.99997000  0.11746000  1.0
