data_image0
_chemical_formula_structural       Ti8In8Cu16C
_chemical_formula_sum              "Ti8 In8 Cu16 C1"
_cell_length_a       6.30953
_cell_length_b       8.92302
_cell_length_c       26.6923
_cell_angle_alpha    90
_cell_angle_beta     90
_cell_angle_gamma    90

_space_group_name_H-M_alt    "P 1"
_space_group_IT_number       1

loop_
  _space_group_symop_operation_xyz
  'x, y, z'

loop_
  _atom_site_type_symbol
  _atom_site_label
  _atom_site_symmetry_multiplicity
  _atom_site_fract_x
  _atom_site_fract_y
  _atom_site_fract_z
  _atom_site_occupancy
  Ti  Ti1       1.0  0.00000  0.00000  0.87464  1.0000
  Ti  Ti2       1.0  0.50000  0.25000  0.95821  1.0000
  Ti  Ti3       1.0  0.50000  0.75000  0.95821  1.0000
  Ti  Ti4       1.0  0.00000  0.50000  0.87464  1.0000
  Ti  Ti5       1.0  1.00000  0.50000  0.04459  1.0000
  Ti  Ti6       1.0  0.50000  0.74965  0.11818  1.0000
  Ti  Ti7       1.0  0.50000  0.25034  0.11818  1.0000
  Ti  Ti8       1.0  1.00000  0.00000  0.05295  1.0000
  In  In1       1.0  0.00000  0.75000  0.95821  1.0000
  In  In2       1.0  0.50000  0.00000  0.87464  1.0000
  In  In3       1.0  0.00000  0.25000  0.95821  1.0000
  In  In4       1.0  0.50000  0.50000  0.87464  1.0000
  In  In5       1.0  0.00000  0.26617  0.13898  1.0000
  In  In6       1.0  0.50000  0.49999  0.03997  1.0000
  In  In7       1.0  1.00000  0.73385  0.13898  1.0000
  In  In8       1.0  0.50000  0.00001  0.04134  1.0000
  Cu  Cu1       1.0  0.25000  0.00000  0.95821  1.0000
  Cu  Cu2       1.0  0.75000  0.50000  0.95821  1.0000
  Cu  Cu3       1.0  0.75000  0.00000  0.95821  1.0000
  Cu  Cu4       1.0  0.25000  0.50000  0.95821  1.0000
  Cu  Cu5       1.0  0.75000  0.75000  0.87464  1.0000
  Cu  Cu6       1.0  0.25000  0.25000  0.87464  1.0000
  Cu  Cu7       1.0  0.25000  0.75000  0.87464  1.0000
  Cu  Cu8       1.0  0.75000  0.25000  0.87464  1.0000
  Cu  Cu9       1.0  0.28877  0.49998  0.13062  1.0000
  Cu  Cu10      1.0  0.69995  0.00000  0.13990  1.0000
  Cu  Cu11      1.0  0.71123  0.49998  0.13062  1.0000
  Cu  Cu12      1.0  0.30005  0.00000  0.13990  1.0000
  Cu  Cu13      1.0  0.76536  0.25382  0.04229  1.0000
  Cu  Cu14      1.0  0.23460  0.74617  0.04229  1.0000
  Cu  Cu15      1.0  0.23464  0.25382  0.04229  1.0000
  Cu  Cu16      1.0  0.76540  0.74617  0.04229  1.0000
  C   C1        1.0  1.00000  0.00002  0.12702  1.0000
