# generated using pymatgen
data_Li8In8Ge8Pd8C
_symmetry_space_group_name_H-M   'P 1'
_cell_length_a   9.21874000
_cell_length_b   6.51863000
_cell_length_c   26.91410000
_cell_angle_alpha   90.00000000
_cell_angle_beta   90.00000000
_cell_angle_gamma   90.00000000
_symmetry_Int_Tables_number   1
_chemical_formula_structural   Li8In8Ge8Pd8C
_chemical_formula_sum   'Li8 In8 Ge8 Pd8 C1'
_cell_volume   1617.36395202
_cell_formula_units_Z   1
loop_
 _symmetry_equiv_pos_site_id
 _symmetry_equiv_pos_as_xyz
  1  'x, y, z'
loop_
 _atom_site_type_symbol
 _atom_site_label
 _atom_site_symmetry_multiplicity
 _atom_site_fract_x
 _atom_site_fract_y
 _atom_site_fract_z
 _atom_site_occupancy
  Li  Li0  1  0.50000000  0.75000000  0.04282000  1.0
  Li  Li1  1  0.00000000  0.75000000  0.04282000  1.0
  Li  Li2  1  0.75001000  0.25000000  0.12845000  1.0
  Li  Li3  1  0.24999000  0.25000000  0.12845000  1.0
  Li  Li4  1  0.00000000  0.66113000  0.85885000  1.0
  Li  Li5  1  0.50000000  0.81748000  0.86397000  1.0
  Li  Li6  1  0.24792000  0.21640000  0.94716000  1.0
  Li  Li7  1  0.75208000  0.21640000  0.94716000  1.0
  In  In8  1  0.75001000  0.00000000  0.04282000  1.0
  In  In9  1  0.24999000  0.00000000  0.04282000  1.0
  In  In10  1  0.00000000  0.50000000  0.12845000  1.0
  In  In11  1  0.50000000  0.50000000  0.12845000  1.0
  In  In12  1  0.23591000  0.01545000  0.84424000  1.0
  In  In13  1  0.76409000  0.01545000  0.84424000  1.0
  In  In14  1  0.50000000  0.50486000  0.95578000  1.0
  In  In15  1  0.00000000  0.49331000  0.95822000  1.0
  Ge  Ge16  1  0.50000000  0.00000000  0.12845000  1.0
  Ge  Ge17  1  0.00000000  0.00000000  0.12845000  1.0
  Ge  Ge18  1  0.25001000  0.50000000  0.04282000  1.0
  Ge  Ge19  1  0.74999000  0.50000000  0.04282000  1.0
  Ge  Ge20  1  0.00000000  0.95610000  0.94908000  1.0
  Ge  Ge21  1  0.50000000  0.97610000  0.95846000  1.0
  Ge  Ge22  1  0.70839000  0.53058000  0.86311000  1.0
  Ge  Ge23  1  0.29161000  0.53058000  0.86311000  1.0
  Pd  Pd24  1  0.50000000  0.25000000  0.04282000  1.0
  Pd  Pd25  1  0.00000000  0.25000000  0.04282000  1.0
  Pd  Pd26  1  0.75001000  0.75000000  0.12845000  1.0
  Pd  Pd27  1  0.24999000  0.75000000  0.12845000  1.0
  Pd  Pd28  1  0.00000000  0.22123000  0.88049000  1.0
  Pd  Pd29  1  0.50000000  0.20477000  0.88214000  1.0
  Pd  Pd30  1  0.25066000  0.75088000  0.95978000  1.0
  Pd  Pd31  1  0.74934000  0.75088000  0.95978000  1.0
  C  C32  1  0.50000000  0.50929000  0.85437000  1.0
