# generated using pymatgen
data_Li4Y4Ag4Pb4CO
_symmetry_space_group_name_H-M   'P 1'
_cell_length_a   7.20907000
_cell_length_b   7.20907000
_cell_length_c   25.40680000
_cell_angle_alpha   90.00000000
_cell_angle_beta   90.00000000
_cell_angle_gamma   90.00000000
_symmetry_Int_Tables_number   1
_chemical_formula_structural   Li4Y4Ag4Pb4CO
_chemical_formula_sum   'Li4 Y4 Ag4 Pb4 C1 O1'
_cell_volume   1320.40893342
_cell_formula_units_Z   1
loop_
 _symmetry_equiv_pos_site_id
 _symmetry_equiv_pos_as_xyz
  1  'x, y, z'
loop_
 _atom_site_type_symbol
 _atom_site_label
 _atom_site_symmetry_multiplicity
 _atom_site_fract_x
 _atom_site_fract_y
 _atom_site_fract_z
 _atom_site_occupancy
  Li  Li0  1  0.24987000  0.25012000  0.03622000  1.0
  Li  Li1  1  0.25000000  0.75000000  0.89360000  1.0
  Li  Li2  1  0.75000000  0.25000000  0.89360000  1.0
  Li  Li3  1  0.75014000  0.74987000  0.03623000  1.0
  Y  Y4  1  0.74884000  0.24882000  0.03900000  1.0
  Y  Y5  1  0.75000000  0.75000000  0.89360000  1.0
  Y  Y6  1  0.25000000  0.25000000  0.89360000  1.0
  Y  Y7  1  0.25116000  0.75117000  0.03900000  1.0
  Ag  Ag8  1  0.00002000  0.00001000  0.10702000  1.0
  Ag  Ag9  1  0.00000000  0.50000000  0.96453000  1.0
  Ag  Ag10  1  0.50000000  0.00000000  0.96453000  1.0
  Ag  Ag11  1  0.49999000  0.49998000  0.10702000  1.0
  Pb  Pb12  1  0.00002000  0.49997000  0.11237000  1.0
  Pb  Pb13  1  0.00000000  0.00000000  0.96453000  1.0
  Pb  Pb14  1  0.50000000  0.50000000  0.96453000  1.0
  Pb  Pb15  1  0.50000000  0.00000000  0.11422000  1.0
  C  C16  1  0.99991000  0.50021000  0.27062000  1.0
  O  O17  1  0.00003000  0.49998000  0.31534000  1.0
