# generated using pymatgen
data_ZrZn
_symmetry_space_group_name_H-M   Pmm2
_cell_length_a   3.33747500
_cell_length_b   9.43980000
_cell_length_c   27.07990000
_cell_angle_alpha   90.00000000
_cell_angle_beta   90.00000000
_cell_angle_gamma   90.00000000
_symmetry_Int_Tables_number   25
_chemical_formula_structural   ZrZn
_chemical_formula_sum   'Zr8 Zn8'
_cell_volume   853.15486285
_cell_formula_units_Z   8
loop_
 _symmetry_equiv_pos_site_id
 _symmetry_equiv_pos_as_xyz
  1  'x, y, z'
  2  '-x, -y, z'
  3  '-x, y, z'
  4  'x, -y, z'
loop_
 _atom_site_type_symbol
 _atom_site_label
 _atom_site_symmetry_multiplicity
 _atom_site_fract_x
 _atom_site_fract_y
 _atom_site_fract_z
 _atom_site_occupancy
  Zr  Zr0  2  0.50000000  0.24999000  0.04402000  1.0
  Zr  Zr1  2  0.50000000  0.25000000  0.86928000  1.0
  Zr  Zr2  1  0.50000000  0.00000000  0.13014500  1.0
  Zr  Zr3  1  0.50000000  0.00000000  0.95643000  1.0
  Zr  Zr4  1  0.50000000  0.50000000  0.13017000  1.0
  Zr  Zr5  1  0.50000000  0.50000000  0.95643000  1.0
  Zn  Zn6  2  0.00000000  0.25000000  0.95643000  1.0
  Zn  Zn7  2  0.00000000  0.25011000  0.13349500  1.0
  Zn  Zn8  1  0.00000000  0.00000000  0.04406500  1.0
  Zn  Zn9  1  0.00000000  0.00000000  0.86928000  1.0
  Zn  Zn10  1  0.00000000  0.50000000  0.04409500  1.0
  Zn  Zn11  1  0.00000000  0.50000000  0.86928000  1.0
