# generated using pymatgen
data_Ca8Ni8C
_symmetry_space_group_name_H-M   P1
_cell_length_a   6.93038000
_cell_length_b   6.93038000
_cell_length_c   25.19780000
_cell_angle_alpha   90.00000000
_cell_angle_beta   90.00000000
_cell_angle_gamma   90.00000000
_symmetry_Int_Tables_number   1
_chemical_formula_structural   Ca8Ni8C
_chemical_formula_sum   'Ca8 Ni8 C1'
_cell_volume   1210.25454063
_cell_formula_units_Z   1
loop_
 _symmetry_equiv_pos_site_id
 _symmetry_equiv_pos_as_xyz
  1  'x, y, z'
loop_
 _atom_site_type_symbol
 _atom_site_label
 _atom_site_symmetry_multiplicity
 _atom_site_fract_x
 _atom_site_fract_y
 _atom_site_fract_z
 _atom_site_occupancy
  Ca  Ca0  1  0.24747000  0.24749000  0.09555000  1.0
  Ca  Ca1  1  0.24749000  0.75252000  0.09553000  1.0
  Ca  Ca2  1  0.25000000  0.25000000  0.95914000  1.0
  Ca  Ca3  1  0.25000000  0.75000000  0.95914000  1.0
  Ca  Ca4  1  0.75000000  0.25000000  0.95914000  1.0
  Ca  Ca5  1  0.75000000  0.75000000  0.95914000  1.0
  Ca  Ca6  1  0.75251000  0.24747000  0.09554000  1.0
  Ca  Ca7  1  0.75255000  0.75252000  0.09553000  1.0
  Ni  Ni8  1  0.00000000  0.00000000  0.89038000  1.0
  Ni  Ni9  1  0.00000000  0.50000000  0.89038000  1.0
  Ni  Ni10  1  0.49994000  0.00008000  0.02957000  1.0
  Ni  Ni11  1  0.50000000  0.00000000  0.89038000  1.0
  Ni  Ni12  1  0.50000000  0.50000000  0.89038000  1.0
  Ni  Ni13  1  0.50001000  0.49998000  0.03123000  1.0
  Ni  Ni14  1  0.99990000  0.99987000  0.02317000  1.0
  Ni  Ni15  1  0.99998000  0.50003000  0.02961000  1.0
  C  C16  1  0.99999000  0.00000000  0.09456000  1.0
