# generated using pymatgen
data_Cu4Au12CO
_symmetry_space_group_name_H-M   Pm
_cell_length_a   5.79419000
_cell_length_b   8.19423000
_cell_length_c   24.34560000
_cell_angle_alpha   90.00000000
_cell_angle_beta   90.00000000
_cell_angle_gamma   90.00000000
_symmetry_Int_Tables_number   6
_chemical_formula_structural   Cu4Au12CO
_chemical_formula_sum   'Cu4 Au12 C1 O1'
_cell_volume   1155.90292923
_cell_formula_units_Z   1
loop_
 _symmetry_equiv_pos_site_id
 _symmetry_equiv_pos_as_xyz
  1  'x, y, z'
  2  'x, -y, z'
loop_
 _atom_site_type_symbol
 _atom_site_label
 _atom_site_symmetry_multiplicity
 _atom_site_fract_x
 _atom_site_fract_y
 _atom_site_fract_z
 _atom_site_occupancy
  Cu  Cu0  2  0.00000000  0.25000000  0.08925000  1.0
  Cu  Cu1  2  0.50098000  0.24715000  0.96675000  1.0
  Au  Au2  2  0.50000000  0.25000000  0.08925000  1.0
  Au  Au3  2  0.99780000  0.24674000  0.96792000  1.0
  Au  Au4  1  0.25000000  0.00000000  0.02975000  1.0
  Au  Au5  1  0.25000000  0.50000000  0.02975000  1.0
  Au  Au6  1  0.25853000  0.00000000  0.90934000  1.0
  Au  Au7  1  0.26111000  0.50000000  0.91413000  1.0
  Au  Au8  1  0.73769000  0.00000000  0.90956000  1.0
  Au  Au9  1  0.74449000  0.50000000  0.91027000  1.0
  Au  Au10  1  0.75000000  0.00000000  0.02975000  1.0
  Au  Au11  1  0.75000000  0.50000000  0.02975000  1.0
  C  C12  1  0.75578000  0.50000000  0.82680000  1.0
  O  O13  1  0.74531000  0.50000000  0.77992000  1.0
