data_image0
_chemical_formula_structural       Cu8Sn8Rh16C
_chemical_formula_sum              "Cu8 Sn8 Rh16 C1"
_cell_length_a       6.25984
_cell_length_b       8.85274
_cell_length_c       26.6396
_cell_angle_alpha    90
_cell_angle_beta     90
_cell_angle_gamma    90

_space_group_name_H-M_alt    "P 1"
_space_group_IT_number       1

loop_
  _space_group_symop_operation_xyz
  'x, y, z'

loop_
  _atom_site_type_symbol
  _atom_site_label
  _atom_site_symmetry_multiplicity
  _atom_site_fract_x
  _atom_site_fract_y
  _atom_site_fract_z
  _atom_site_occupancy
  Cu  Cu1       1.0  0.00000  0.00000  0.87538  1.0000
  Cu  Cu2       1.0  0.50000  0.25000  0.95846  1.0000
  Cu  Cu3       1.0  0.50000  0.75000  0.95846  1.0000
  Cu  Cu4       1.0  0.00000  0.50000  0.87538  1.0000
  Cu  Cu5       1.0  0.00294  0.50147  0.04268  1.0000
  Cu  Cu6       1.0  0.48128  0.75002  0.12687  1.0000
  Cu  Cu7       1.0  0.53534  0.25000  0.12059  1.0000
  Cu  Cu8       1.0  0.00295  0.99852  0.04268  1.0000
  Sn  Sn1       1.0  0.00000  0.75000  0.95846  1.0000
  Sn  Sn2       1.0  0.50000  0.00000  0.87538  1.0000
  Sn  Sn3       1.0  0.00000  0.25000  0.95846  1.0000
  Sn  Sn4       1.0  0.50000  0.50000  0.87538  1.0000
  Sn  Sn5       1.0  0.92817  0.25001  0.13341  1.0000
  Sn  Sn6       1.0  0.49760  0.50012  0.04054  1.0000
  Sn  Sn7       1.0  0.01589  0.75003  0.12952  1.0000
  Sn  Sn8       1.0  0.49758  0.99988  0.04054  1.0000
  Rh  Rh1       1.0  0.25000  0.00000  0.95846  1.0000
  Rh  Rh2       1.0  0.75000  0.50000  0.95846  1.0000
  Rh  Rh3       1.0  0.75000  0.00000  0.95846  1.0000
  Rh  Rh4       1.0  0.25000  0.50000  0.95846  1.0000
  Rh  Rh5       1.0  0.75000  0.75000  0.87538  1.0000
  Rh  Rh6       1.0  0.25000  0.25000  0.87538  1.0000
  Rh  Rh7       1.0  0.25000  0.75000  0.87538  1.0000
  Rh  Rh8       1.0  0.75000  0.25000  0.87538  1.0000
  Rh  Rh9       1.0  0.24390  0.45911  0.12657  1.0000
  Rh  Rh10      1.0  0.74842  0.98313  0.12037  1.0000
  Rh  Rh11      1.0  0.74835  0.51689  0.12038  1.0000
  Rh  Rh12      1.0  0.24390  0.04090  0.12657  1.0000
  Rh  Rh13      1.0  0.75515  0.24998  0.03925  1.0000
  Rh  Rh14      1.0  0.24912  0.75000  0.04377  1.0000
  Rh  Rh15      1.0  0.24367  0.25000  0.04132  1.0000
  Rh  Rh16      1.0  0.75156  0.75001  0.04163  1.0000
  C   C1        1.0  0.27401  0.25000  0.15108  1.0000
