# generated using pymatgen
data_Cu8Sn8Rh16C
_symmetry_space_group_name_H-M   'P 1'
_cell_length_a   6.25984000
_cell_length_b   8.85274000
_cell_length_c   26.63960000
_cell_angle_alpha   90.00000000
_cell_angle_beta   90.00000000
_cell_angle_gamma   90.00000000
_symmetry_Int_Tables_number   1
_chemical_formula_structural   Cu8Sn8Rh16C
_chemical_formula_sum   'Cu8 Sn8 Rh16 C1'
_cell_volume   1476.27967932
_cell_formula_units_Z   1
loop_
 _symmetry_equiv_pos_site_id
 _symmetry_equiv_pos_as_xyz
  1  'x, y, z'
loop_
 _atom_site_type_symbol
 _atom_site_label
 _atom_site_symmetry_multiplicity
 _atom_site_fract_x
 _atom_site_fract_y
 _atom_site_fract_z
 _atom_site_occupancy
  Cu  Cu0  1  0.00000000  0.00000000  0.87538000  1.0
  Cu  Cu1  1  0.50000000  0.25000000  0.95846000  1.0
  Cu  Cu2  1  0.50000000  0.75000000  0.95846000  1.0
  Cu  Cu3  1  0.00000000  0.50000000  0.87538000  1.0
  Cu  Cu4  1  0.00109000  0.50102000  0.04222000  1.0
  Cu  Cu5  1  0.47697000  0.74986000  0.12570000  1.0
  Cu  Cu6  1  0.52817000  0.25035000  0.11637000  1.0
  Cu  Cu7  1  0.00114000  0.99892000  0.04233000  1.0
  Sn  Sn8  1  0.00000000  0.75000000  0.95846000  1.0
  Sn  Sn9  1  0.50000000  0.00000000  0.87538000  1.0
  Sn  Sn10  1  0.00000000  0.25000000  0.95846000  1.0
  Sn  Sn11  1  0.50000000  0.50000000  0.87538000  1.0
  Sn  Sn12  1  0.90966000  0.25042000  0.14377000  1.0
  Sn  Sn13  1  0.49843000  0.49859000  0.04014000  1.0
  Sn  Sn14  1  0.01580000  0.74980000  0.12801000  1.0
  Sn  Sn15  1  0.49821000  0.00191000  0.04032000  1.0
  Rh  Rh16  1  0.25000000  0.00000000  0.95846000  1.0
  Rh  Rh17  1  0.75000000  0.50000000  0.95846000  1.0
  Rh  Rh18  1  0.75000000  0.00000000  0.95846000  1.0
  Rh  Rh19  1  0.25000000  0.50000000  0.95846000  1.0
  Rh  Rh20  1  0.75000000  0.75000000  0.87538000  1.0
  Rh  Rh21  1  0.25000000  0.25000000  0.87538000  1.0
  Rh  Rh22  1  0.25000000  0.75000000  0.87538000  1.0
  Rh  Rh23  1  0.75000000  0.25000000  0.87538000  1.0
  Rh  Rh24  1  0.23298000  0.45736000  0.12433000  1.0
  Rh  Rh25  1  0.74751000  0.98240000  0.12032000  1.0
  Rh  Rh26  1  0.74698000  0.51806000  0.12007000  1.0
  Rh  Rh27  1  0.23265000  0.04172000  0.12445000  1.0
  Rh  Rh28  1  0.76827000  0.24987000  0.04089000  1.0
  Rh  Rh29  1  0.24947000  0.75034000  0.04222000  1.0
  Rh  Rh30  1  0.24441000  0.25013000  0.04007000  1.0
  Rh  Rh31  1  0.74795000  0.75044000  0.04148000  1.0
  C  C32  1  0.26595000  0.24920000  0.14638000  1.0
