# generated using pymatgen
data_Sc4Al4In4Pd4CO
_symmetry_space_group_name_H-M   Pm
_cell_length_a   5.88291000
_cell_length_b   8.60736000
_cell_length_c   24.41210000
_cell_angle_alpha   90.00000000
_cell_angle_beta   90.00000000
_cell_angle_gamma   90.00000000
_symmetry_Int_Tables_number   6
_chemical_formula_structural   Sc4Al4In4Pd4CO
_chemical_formula_sum   'Sc4 Al4 In4 Pd4 C1 O1'
_cell_volume   1236.13901043
_cell_formula_units_Z   1
loop_
 _symmetry_equiv_pos_site_id
 _symmetry_equiv_pos_as_xyz
  1  'x, y, z'
  2  'x, -y, z'
loop_
 _atom_site_type_symbol
 _atom_site_label
 _atom_site_symmetry_multiplicity
 _atom_site_fract_x
 _atom_site_fract_y
 _atom_site_fract_z
 _atom_site_occupancy
  Sc  Sc0  2  0.25516000  0.25055000  0.02633000  1.0
  Sc  Sc1  2  0.74688000  0.24998000  0.90963000  1.0
  Al  Al2  1  0.49792000  0.00000000  0.96988000  1.0
  Al  Al3  1  0.49792000  0.50000000  0.96988000  1.0
  Al  Al4  1  0.97174000  0.50000000  0.08338000  1.0
  Al  Al5  1  0.97296000  0.00000000  0.08329000  1.0
  In  In6  1  0.50372000  0.50000000  0.09450000  1.0
  In  In7  1  0.50430000  0.00000000  0.09421000  1.0
  In  In8  1  0.99792000  0.00000000  0.96988000  1.0
  In  In9  1  0.99792000  0.50000000  0.96988000  1.0
  Pd  Pd10  2  0.24688000  0.24998000  0.90963000  1.0
  Pd  Pd11  2  0.75561000  0.24996000  0.03382000  1.0
  C  C12  1  0.44599000  0.50000000  0.24834000  1.0
  O  O13  1  0.54667000  0.50000000  0.28802000  1.0
