data_image0
_chemical_formula_structural       Li4Y4Sn4Pd4CO
_chemical_formula_sum              "Li4 Y4 Sn4 Pd4 C1 O1"
_cell_length_a       6.77715
_cell_length_b       6.77715
_cell_length_c       25.0829
_cell_angle_alpha    90
_cell_angle_beta     90
_cell_angle_gamma    90

_space_group_name_H-M_alt    "P 1"
_space_group_IT_number       1

loop_
  _space_group_symop_operation_xyz
  'x, y, z'

loop_
  _atom_site_type_symbol
  _atom_site_label
  _atom_site_symmetry_multiplicity
  _atom_site_fract_x
  _atom_site_fract_y
  _atom_site_fract_z
  _atom_site_occupancy
  Li  Li1       1.0  0.00015  0.99979  0.12099  1.0000
  Li  Li2       1.0  0.00000  0.50000  0.96623  1.0000
  Li  Li3       1.0  0.50000  0.00000  0.96623  1.0000
  Li  Li4       1.0  0.50000  0.50003  0.12165  1.0000
  Y   Y1        1.0  0.24993  0.24994  0.03395  1.0000
  Y   Y2        1.0  0.25000  0.75000  0.89868  1.0000
  Y   Y3        1.0  0.75000  0.25000  0.89868  1.0000
  Y   Y4        1.0  0.75006  0.75007  0.03394  1.0000
  Sn  Sn1       1.0  0.74982  0.25018  0.03906  1.0000
  Sn  Sn2       1.0  0.75000  0.75000  0.89868  1.0000
  Sn  Sn3       1.0  0.25000  0.25000  0.89868  1.0000
  Sn  Sn4       1.0  0.25017  0.74983  0.03906  1.0000
  Pd  Pd1       1.0  0.99999  0.50003  0.09292  1.0000
  Pd  Pd2       1.0  0.00000  0.00000  0.96623  1.0000
  Pd  Pd3       1.0  0.50000  0.50000  0.96623  1.0000
  Pd  Pd4       1.0  0.49998  0.00001  0.09292  1.0000
  C   C1        1.0  0.00004  0.99993  0.20429  1.0000
  O   O1        1.0  0.99999  0.00000  0.24981  1.0000
