# generated using pymatgen
data_Li4Y4Sn4Pd4CO
_symmetry_space_group_name_H-M   Cm
_cell_length_a   9.58433744
_cell_length_b   9.58433744
_cell_length_c   25.08290000
_cell_angle_alpha   90.00000000
_cell_angle_beta   90.00000000
_cell_angle_gamma   90.00000000
_symmetry_Int_Tables_number   8
_chemical_formula_structural   Li4Y4Sn4Pd4CO
_chemical_formula_sum   'Li8 Y8 Sn8 Pd8 C2 O2'
_cell_volume   2304.10326068
_cell_formula_units_Z   2
loop_
 _symmetry_equiv_pos_site_id
 _symmetry_equiv_pos_as_xyz
  1  'x, y, z'
  2  'x, -y, z'
  3  'x+1/2, y+1/2, z'
  4  'x+1/2, -y+1/2, z'
loop_
 _atom_site_type_symbol
 _atom_site_label
 _atom_site_symmetry_multiplicity
 _atom_site_fract_x
 _atom_site_fract_y
 _atom_site_fract_z
 _atom_site_occupancy
  Li  Li0  4  0.24998500  0.24998500  0.96623000  1.0
  Li  Li1  2  0.00016500  0.00000000  0.12099000  1.0
  Li  Li2  2  0.49997000  0.00000000  0.12165000  1.0
  Y  Y3  4  0.49998000  0.25005000  0.03395000  1.0
  Y  Y4  2  0.24998500  0.00000000  0.89868000  1.0
  Y  Y5  2  0.24998500  0.50000000  0.89868000  1.0
  Sn  Sn6  4  0.49998500  0.25001500  0.89868000  1.0
  Sn  Sn7  2  0.24980500  0.50000000  0.03906000  1.0
  Sn  Sn8  2  0.25015500  0.00000000  0.03906000  1.0
  Pd  Pd9  4  0.24996500  0.24997500  0.09292000  1.0
  Pd  Pd10  2  0.49998500  0.00000000  0.96623000  1.0
  Pd  Pd11  2  0.49998500  0.50000000  0.96623000  1.0
  C  C12  2  0.00004000  0.00000000  0.20429000  1.0
  O  O13  2  0.49998000  0.50000000  0.24981000  1.0
