# generated using pymatgen
data_Ti8In8Ni16C
_symmetry_space_group_name_H-M   'P 1'
_cell_length_a   8.71733000
_cell_length_b   6.16408000
_cell_length_c   26.53800000
_cell_angle_alpha   90.00000000
_cell_angle_beta   90.00000000
_cell_angle_gamma   90.00000000
_symmetry_Int_Tables_number   1
_chemical_formula_structural   Ti8In8Ni16C
_chemical_formula_sum   'Ti8 In8 Ni16 C1'
_cell_volume   1426.00137106
_cell_formula_units_Z   1
loop_
 _symmetry_equiv_pos_site_id
 _symmetry_equiv_pos_as_xyz
  1  'x, y, z'
loop_
 _atom_site_type_symbol
 _atom_site_label
 _atom_site_symmetry_multiplicity
 _atom_site_fract_x
 _atom_site_fract_y
 _atom_site_fract_z
 _atom_site_occupancy
  Ti  Ti0  1  0.75000000  0.00000000  0.12318000  1.0
  Ti  Ti1  1  0.00000000  0.50000000  0.04106000  1.0
  Ti  Ti2  1  0.50000000  0.50000000  0.04106000  1.0
  Ti  Ti3  1  0.25000000  0.00000000  0.12318000  1.0
  Ti  Ti4  1  0.25563000  0.99273000  0.95957000  1.0
  Ti  Ti5  1  0.50000000  0.51634000  0.88177000  1.0
  Ti  Ti6  1  0.00000000  0.55465000  0.87788000  1.0
  Ti  Ti7  1  0.74437000  0.99273000  0.95957000  1.0
  In  In8  1  0.50000000  0.00000000  0.04106000  1.0
  In  In9  1  0.75000000  0.50000000  0.12318000  1.0
  In  In10  1  0.00000000  0.00000000  0.04106000  1.0
  In  In11  1  0.25000000  0.50000000  0.12318000  1.0
  In  In12  1  0.00000000  0.94499000  0.82526000  1.0
  In  In13  1  0.23986000  0.49367000  0.95867000  1.0
  In  In14  1  0.50000000  0.02493000  0.87008000  1.0
  In  In15  1  0.76014000  0.49367000  0.95867000  1.0
  Ni  Ni16  1  0.75000000  0.25000000  0.04106000  1.0
  Ni  Ni17  1  0.25000000  0.75000000  0.04106000  1.0
  Ni  Ni18  1  0.75000000  0.75000000  0.04106000  1.0
  Ni  Ni19  1  0.25000000  0.25000000  0.04106000  1.0
  Ni  Ni20  1  0.50000000  0.75000000  0.12318000  1.0
  Ni  Ni21  1  0.00000000  0.25000000  0.12318000  1.0
  Ni  Ni22  1  0.50000000  0.25000000  0.12318000  1.0
  Ni  Ni23  1  0.00000000  0.75000000  0.12318000  1.0
  Ni  Ni24  1  0.21901000  0.20306000  0.88209000  1.0
  Ni  Ni25  1  0.74569000  0.76532000  0.88221000  1.0
  Ni  Ni26  1  0.25431000  0.76532000  0.88221000  1.0
  Ni  Ni27  1  0.78099000  0.20306000  0.88209000  1.0
  Ni  Ni28  1  0.00000000  0.76857000  0.95678000  1.0
  Ni  Ni29  1  0.50000000  0.26919000  0.95885000  1.0
  Ni  Ni30  1  0.00000000  0.20383000  0.94802000  1.0
  Ni  Ni31  1  0.50000000  0.73841000  0.95719000  1.0
  C  C32  1  0.00000000  0.24320000  0.87472000  1.0
