# generated using pymatgen
data_Sc4Al4Ga4Pd4C
_symmetry_space_group_name_H-M   'P 1'
_cell_length_a   6.45143000
_cell_length_b   6.45143000
_cell_length_c   24.83860000
_cell_angle_alpha   90.00000000
_cell_angle_beta   90.00000000
_cell_angle_gamma   90.00000000
_symmetry_Int_Tables_number   1
_chemical_formula_structural   Sc4Al4Ga4Pd4C
_chemical_formula_sum   'Sc4 Al4 Ga4 Pd4 C1'
_cell_volume   1033.80610495
_cell_formula_units_Z   1
loop_
 _symmetry_equiv_pos_site_id
 _symmetry_equiv_pos_as_xyz
  1  'x, y, z'
loop_
 _atom_site_type_symbol
 _atom_site_label
 _atom_site_symmetry_multiplicity
 _atom_site_fract_x
 _atom_site_fract_y
 _atom_site_fract_z
 _atom_site_occupancy
  Sc  Sc0  1  0.50000000  0.00000000  0.90260000  1
  Sc  Sc1  1  0.00000000  0.00000000  0.03247000  1
  Sc  Sc2  1  0.50000000  0.50000000  0.03247000  1
  Sc  Sc3  1  0.00000000  0.50000000  0.90260000  1
  Al  Al4  1  0.00000000  0.00000000  0.90260000  1
  Al  Al5  1  0.50000000  0.00000000  0.03247000  1
  Al  Al6  1  0.00000000  0.50000000  0.03247000  1
  Al  Al7  1  0.50000000  0.50000000  0.90260000  1
  Ga  Ga8  1  0.75000000  0.75000000  0.96753000  1
  Ga  Ga9  1  0.25000000  0.75000000  0.09740000  1
  Ga  Ga10  1  0.75000000  0.25000000  0.09740000  1
  Ga  Ga11  1  0.25000000  0.25000000  0.96753000  1
  Pd  Pd12  1  0.75000000  0.25000000  0.96753000  1
  Pd  Pd13  1  0.25000000  0.25000000  0.09740000  1
  Pd  Pd14  1  0.75000000  0.75000000  0.09740000  1
  Pd  Pd15  1  0.25000000  0.75000000  0.96753000  1
  C  C16  1  0.00000000  0.00000000  0.12961000  1
