# generated using pymatgen
data_Y8Ga8Sn8Pd8CO
_symmetry_space_group_name_H-M   Pmm2
_cell_length_a   8.54550000
_cell_length_b   8.82498000
_cell_length_c   26.66250000
_cell_angle_alpha   90.00000000
_cell_angle_beta   90.00000000
_cell_angle_gamma   90.00000000
_symmetry_Int_Tables_number   25
_chemical_formula_structural   Y8Ga8Sn8Pd8CO
_chemical_formula_sum   'Y8 Ga8 Sn8 Pd8 C1 O1'
_cell_volume   2010.72221796
_cell_formula_units_Z   1
loop_
 _symmetry_equiv_pos_site_id
 _symmetry_equiv_pos_as_xyz
  1  'x, y, z'
  2  '-x, -y, z'
  3  '-x, y, z'
  4  'x, -y, z'
loop_
 _atom_site_type_symbol
 _atom_site_label
 _atom_site_symmetry_multiplicity
 _atom_site_fract_x
 _atom_site_fract_y
 _atom_site_fract_z
 _atom_site_occupancy
  Y  Y0  2  0.00000000  0.25000000  0.04165000  1.0
  Y  Y1  2  0.00000000  0.25000000  0.87506000  1.0
  Y  Y2  2  0.50000000  0.25000000  0.04165000  1.0
  Y  Y3  2  0.50000000  0.25000000  0.87506000  1.0
  Ga  Ga4  4  0.25000000  0.25000000  0.12494000  1.0
  Ga  Ga5  4  0.25000000  0.25000000  0.95835000  1.0
  Sn  Sn6  1  0.00000000  0.00000000  0.12494000  1.0
  Sn  Sn7  1  0.00000000  0.00000000  0.95835000  1.0
  Sn  Sn8  1  0.00000000  0.50000000  0.12494000  1.0
  Sn  Sn9  1  0.00000000  0.50000000  0.95835000  1.0
  Sn  Sn10  1  0.50000000  0.00000000  0.12494000  1.0
  Sn  Sn11  1  0.50000000  0.00000000  0.95835000  1.0
  Sn  Sn12  1  0.50000000  0.50000000  0.12494000  1.0
  Sn  Sn13  1  0.50000000  0.50000000  0.95835000  1.0
  Pd  Pd14  2  0.25000000  0.00000000  0.04165000  1.0
  Pd  Pd15  2  0.25000000  0.00000000  0.87506000  1.0
  Pd  Pd16  2  0.25000000  0.50000000  0.04165000  1.0
  Pd  Pd17  2  0.25000000  0.50000000  0.87506000  1.0
  C  C18  1  0.00000000  0.00000000  0.19620000  1.0
  O  O19  1  0.00000000  0.00000000  0.23933000  1.0
