# generated using pymatgen
data_Cu8Ni16Sb8CO
_symmetry_space_group_name_H-M   Pm
_cell_length_a   8.51164000
_cell_length_b   6.01864000
_cell_length_c   26.38370000
_cell_angle_alpha   90.00000000
_cell_angle_beta   90.00000000
_cell_angle_gamma   90.00000000
_symmetry_Int_Tables_number   6
_chemical_formula_structural   Cu8Ni16Sb8CO
_chemical_formula_sum   'Cu8 Ni16 Sb8 C1 O1'
_cell_volume   1351.59729550
_cell_formula_units_Z   1
loop_
 _symmetry_equiv_pos_site_id
 _symmetry_equiv_pos_as_xyz
  1  'x, y, z'
  2  'x, -y, z'
loop_
 _atom_site_type_symbol
 _atom_site_label
 _atom_site_symmetry_multiplicity
 _atom_site_fract_x
 _atom_site_fract_y
 _atom_site_fract_z
 _atom_site_occupancy
  Cu  Cu0  1  0.00000000  0.00000000  0.87902000  1.0
  Cu  Cu1  1  0.00880000  0.00000000  0.03480000  1.0
  Cu  Cu2  1  0.25000000  0.50000000  0.95967000  1.0
  Cu  Cu3  1  0.25007000  0.50000000  0.12763000  1.0
  Cu  Cu4  1  0.49122000  0.00000000  0.03480000  1.0
  Cu  Cu5  1  0.50000000  0.00000000  0.87902000  1.0
  Cu  Cu6  1  0.74994000  0.50000000  0.11900000  1.0
  Cu  Cu7  1  0.75000000  0.50000000  0.95967000  1.0
  Ni  Ni8  2  0.00000000  0.25000000  0.95967000  1.0
  Ni  Ni9  2  0.25000000  0.25000000  0.87902000  1.0
  Ni  Ni10  2  0.25005000  0.25523000  0.04749000  1.0
  Ni  Ni11  2  0.50000000  0.25000000  0.95967000  1.0
  Ni  Ni12  2  0.50612000  0.22621000  0.11181000  1.0
  Ni  Ni13  2  0.74998000  0.22346000  0.04507000  1.0
  Ni  Ni14  2  0.75000000  0.25000000  0.87902000  1.0
  Ni  Ni15  2  0.99385000  0.22622000  0.11182000  1.0
  Sb  Sb16  1  0.00000000  0.50000000  0.87902000  1.0
  Sb  Sb17  1  0.24998000  0.00000000  0.13034000  1.0
  Sb  Sb18  1  0.25000000  0.00000000  0.95967000  1.0
  Sb  Sb19  1  0.50000000  0.50000000  0.87902000  1.0
  Sb  Sb20  1  0.50472000  0.50000000  0.03964000  1.0
  Sb  Sb21  1  0.74999000  0.00000000  0.13756000  1.0
  Sb  Sb22  1  0.75000000  0.00000000  0.95967000  1.0
  Sb  Sb23  1  0.99529000  0.50000000  0.03964000  1.0
  C  C24  1  0.25001000  0.50000000  0.19868000  1.0
  O  O25  1  0.24999000  0.50000000  0.24213000  1.0
