data_image0
_chemical_formula_structural       Ga16Ir16CO
_chemical_formula_sum              "Ga16 Ir16 C1 O1"
_cell_length_a       6.13393
_cell_length_b       8.67469
_cell_length_c       26.506
_cell_angle_alpha    90
_cell_angle_beta     90
_cell_angle_gamma    90

_space_group_name_H-M_alt    "P 1"
_space_group_IT_number       1

loop_
  _space_group_symop_operation_xyz
  'x, y, z'

loop_
  _atom_site_type_symbol
  _atom_site_label
  _atom_site_symmetry_multiplicity
  _atom_site_fract_x
  _atom_site_fract_y
  _atom_site_fract_z
  _atom_site_occupancy
  Ga  Ga1       1.0  0.00000  0.00000  0.87727  1.0000
  Ga  Ga2       1.0  0.00000  0.25000  0.95909  1.0000
  Ga  Ga3       1.0  0.99854  1.00000  0.04149  1.0000
  Ga  Ga4       1.0  0.99761  0.25603  0.12848  1.0000
  Ga  Ga5       1.0  0.00000  0.50000  0.87727  1.0000
  Ga  Ga6       1.0  0.00000  0.75000  0.95909  1.0000
  Ga  Ga7       1.0  0.00181  0.50000  0.03965  1.0000
  Ga  Ga8       1.0  0.99761  0.74397  0.12848  1.0000
  Ga  Ga9       1.0  0.50000  0.00000  0.87727  1.0000
  Ga  Ga10      1.0  0.50000  0.25000  0.95909  1.0000
  Ga  Ga11      1.0  0.50146  1.00000  0.04151  1.0000
  Ga  Ga12      1.0  0.50263  0.25587  0.12852  1.0000
  Ga  Ga13      1.0  0.50000  0.50000  0.87727  1.0000
  Ga  Ga14      1.0  0.50000  0.75000  0.95909  1.0000
  Ga  Ga15      1.0  0.49832  0.50000  0.03963  1.0000
  Ga  Ga16      1.0  0.50263  0.74413  0.12852  1.0000
  Ir  Ir1       1.0  0.25000  0.25000  0.87727  1.0000
  Ir  Ir2       1.0  0.25000  0.50000  0.95909  1.0000
  Ir  Ir3       1.0  0.25004  0.23970  0.03941  1.0000
  Ir  Ir4       1.0  0.25022  0.50000  0.11590  1.0000
  Ir  Ir5       1.0  0.25000  0.75000  0.87727  1.0000
  Ir  Ir6       1.0  0.25000  0.00000  0.95909  1.0000
  Ir  Ir7       1.0  0.25004  0.76030  0.03941  1.0000
  Ir  Ir8       1.0  0.24964  1.00000  0.12836  1.0000
  Ir  Ir9       1.0  0.75000  0.25000  0.87727  1.0000
  Ir  Ir10      1.0  0.75000  0.50000  0.95909  1.0000
  Ir  Ir11      1.0  0.75005  0.24980  0.03768  1.0000
  Ir  Ir12      1.0  0.75005  0.50000  0.11656  1.0000
  Ir  Ir13      1.0  0.75000  0.75000  0.87727  1.0000
  Ir  Ir14      1.0  0.75000  0.00000  0.95909  1.0000
  Ir  Ir15      1.0  0.75005  0.75020  0.03768  1.0000
  Ir  Ir16      1.0  0.74988  1.00000  0.11758  1.0000
  C   C1        1.0  0.24878  0.00000  0.19876  1.0000
  O   O1        1.0  0.24851  0.00000  0.24244  1.0000
