# generated using pymatgen
data_Ga16Ir16CO
_symmetry_space_group_name_H-M   'P 1'
_cell_length_a   8.67469000
_cell_length_b   6.13393000
_cell_length_c   26.50600000
_cell_angle_alpha   90.00000000
_cell_angle_beta   90.00000000
_cell_angle_gamma   90.00000000
_symmetry_Int_Tables_number   1
_chemical_formula_structural   Ga16Ir16CO
_chemical_formula_sum   'Ga16 Ir16 C1 O1'
_cell_volume   1410.38270229
_cell_formula_units_Z   1
loop_
 _symmetry_equiv_pos_site_id
 _symmetry_equiv_pos_as_xyz
  1  'x, y, z'
loop_
 _atom_site_type_symbol
 _atom_site_label
 _atom_site_symmetry_multiplicity
 _atom_site_fract_x
 _atom_site_fract_y
 _atom_site_fract_z
 _atom_site_occupancy
  Ga  Ga0  1  0.00000000  0.00000000  0.12273000  1.0
  Ga  Ga1  1  0.25000000  0.00000000  0.04091000  1.0
  Ga  Ga2  1  0.00000000  0.99854000  0.95851000  1.0
  Ga  Ga3  1  0.25603000  0.99761000  0.87152000  1.0
  Ga  Ga4  1  0.50000000  0.00000000  0.12273000  1.0
  Ga  Ga5  1  0.75000000  0.00000000  0.04091000  1.0
  Ga  Ga6  1  0.50000000  0.00181000  0.96035000  1.0
  Ga  Ga7  1  0.74397000  0.99761000  0.87152000  1.0
  Ga  Ga8  1  0.00000000  0.50000000  0.12273000  1.0
  Ga  Ga9  1  0.25000000  0.50000000  0.04091000  1.0
  Ga  Ga10  1  0.00000000  0.50146000  0.95849000  1.0
  Ga  Ga11  1  0.25587000  0.50263000  0.87148000  1.0
  Ga  Ga12  1  0.50000000  0.50000000  0.12273000  1.0
  Ga  Ga13  1  0.75000000  0.50000000  0.04091000  1.0
  Ga  Ga14  1  0.50000000  0.49832000  0.96037000  1.0
  Ga  Ga15  1  0.74413000  0.50263000  0.87148000  1.0
  Ir  Ir16  1  0.25000000  0.25000000  0.12273000  1.0
  Ir  Ir17  1  0.50000000  0.25000000  0.04091000  1.0
  Ir  Ir18  1  0.23970000  0.25004000  0.96059000  1.0
  Ir  Ir19  1  0.50000000  0.25022000  0.88410000  1.0
  Ir  Ir20  1  0.75000000  0.25000000  0.12273000  1.0
  Ir  Ir21  1  0.00000000  0.25000000  0.04091000  1.0
  Ir  Ir22  1  0.76030000  0.25004000  0.96059000  1.0
  Ir  Ir23  1  0.00000000  0.24964000  0.87164000  1.0
  Ir  Ir24  1  0.25000000  0.75000000  0.12273000  1.0
  Ir  Ir25  1  0.50000000  0.75000000  0.04091000  1.0
  Ir  Ir26  1  0.24980000  0.75005000  0.96232000  1.0
  Ir  Ir27  1  0.50000000  0.75005000  0.88344000  1.0
  Ir  Ir28  1  0.75000000  0.75000000  0.12273000  1.0
  Ir  Ir29  1  0.00000000  0.75000000  0.04091000  1.0
  Ir  Ir30  1  0.75020000  0.75005000  0.96232000  1.0
  Ir  Ir31  1  0.00000000  0.74988000  0.88242000  1.0
  C  C32  1  0.00000000  0.24878000  0.80124000  1.0
  O  O33  1  0.00000000  0.24851000  0.75756000  1.0
