# generated using pymatgen
data_Ga16Ir16CO
_symmetry_space_group_name_H-M   Pm
_cell_length_a   6.13393000
_cell_length_b   8.67469000
_cell_length_c   26.50600000
_cell_angle_alpha   90.00000000
_cell_angle_beta   90.00000000
_cell_angle_gamma   90.00000000
_symmetry_Int_Tables_number   6
_chemical_formula_structural   Ga16Ir16CO
_chemical_formula_sum   'Ga16 Ir16 C1 O1'
_cell_volume   1410.38270229
_cell_formula_units_Z   1
loop_
 _symmetry_equiv_pos_site_id
 _symmetry_equiv_pos_as_xyz
  1  'x, y, z'
  2  'x, -y, z'
loop_
 _atom_site_type_symbol
 _atom_site_label
 _atom_site_symmetry_multiplicity
 _atom_site_fract_x
 _atom_site_fract_y
 _atom_site_fract_z
 _atom_site_occupancy
  Ga  Ga0  2  0.00000000  0.25000000  0.95909000  1.0
  Ga  Ga1  2  0.50000000  0.25000000  0.95909000  1.0
  Ga  Ga2  2  0.50263000  0.25587000  0.12852000  1.0
  Ga  Ga3  2  0.99761000  0.25603000  0.12848000  1.0
  Ga  Ga4  1  0.00000000  0.00000000  0.87727000  1.0
  Ga  Ga5  1  0.00000000  0.50000000  0.87727000  1.0
  Ga  Ga6  1  0.00181000  0.50000000  0.03965000  1.0
  Ga  Ga7  1  0.49832000  0.50000000  0.03963000  1.0
  Ga  Ga8  1  0.50000000  0.00000000  0.87727000  1.0
  Ga  Ga9  1  0.50000000  0.50000000  0.87727000  1.0
  Ga  Ga10  1  0.50146000  0.00000000  0.04151000  1.0
  Ga  Ga11  1  0.99854000  0.00000000  0.04149000  1.0
  Ir  Ir12  2  0.25000000  0.25000000  0.87727000  1.0
  Ir  Ir13  2  0.25004000  0.23970000  0.03941000  1.0
  Ir  Ir14  2  0.75000000  0.25000000  0.87727000  1.0
  Ir  Ir15  2  0.75005000  0.24980000  0.03768000  1.0
  Ir  Ir16  1  0.24964000  0.00000000  0.12836000  1.0
  Ir  Ir17  1  0.25000000  0.00000000  0.95909000  1.0
  Ir  Ir18  1  0.25000000  0.50000000  0.95909000  1.0
  Ir  Ir19  1  0.25022000  0.50000000  0.11590000  1.0
  Ir  Ir20  1  0.74988000  0.00000000  0.11758000  1.0
  Ir  Ir21  1  0.75000000  0.00000000  0.95909000  1.0
  Ir  Ir22  1  0.75000000  0.50000000  0.95909000  1.0
  Ir  Ir23  1  0.75005000  0.50000000  0.11656000  1.0
  C  C24  1  0.24878000  0.00000000  0.19876000  1.0
  O  O25  1  0.24851000  0.00000000  0.24244000  1.0
