# generated using pymatgen
data_LiBi
_symmetry_space_group_name_H-M   Pmma
_cell_length_a   4.81095500
_cell_length_b   4.25386000
_cell_length_c   27.21640000
_cell_angle_alpha   90.00000000
_cell_angle_beta   90.00000000
_cell_angle_gamma   90.00000000
_symmetry_Int_Tables_number   51
_chemical_formula_structural   LiBi
_chemical_formula_sum   'Li4 Bi4'
_cell_volume   556.98713790
_cell_formula_units_Z   4
loop_
 _symmetry_equiv_pos_site_id
 _symmetry_equiv_pos_as_xyz
  1  'x, y, z'
  2  '-x, -y, -z'
  3  '-x+1/2, -y, z'
  4  'x+1/2, y, -z'
  5  'x+1/2, -y, -z'
  6  '-x+1/2, y, z'
  7  '-x, y, -z'
  8  'x, -y, z'
loop_
 _atom_site_type_symbol
 _atom_site_label
 _atom_site_symmetry_multiplicity
 _atom_site_fract_x
 _atom_site_fract_y
 _atom_site_fract_z
 _atom_site_occupancy
  Li  Li0  2  0.25000000  0.50000000  0.04419000  1.0
  Li  Li1  2  0.25000000  0.50000000  0.86743000  1.0
  Bi  Bi2  2  0.25000000  0.00000000  0.13257000  1.0
  Bi  Bi3  2  0.25000000  0.00000000  0.95581000  1.0
