# generated using pymatgen
data_Li8Mg8In8Au8C
_symmetry_space_group_name_H-M   'P 1'
_cell_length_a   9.40140000
_cell_length_b   6.64779000
_cell_length_c   27.05110000
_cell_angle_alpha   90.00000000
_cell_angle_beta   90.00000000
_cell_angle_gamma   90.00000000
_symmetry_Int_Tables_number   1
_chemical_formula_structural   Li8Mg8In8Au8C
_chemical_formula_sum   'Li8 Mg8 In8 Au8 C1'
_cell_volume   1690.65406349
_cell_formula_units_Z   1
loop_
 _symmetry_equiv_pos_site_id
 _symmetry_equiv_pos_as_xyz
  1  'x, y, z'
loop_
 _atom_site_type_symbol
 _atom_site_label
 _atom_site_symmetry_multiplicity
 _atom_site_fract_x
 _atom_site_fract_y
 _atom_site_fract_z
 _atom_site_occupancy
  Li  Li0  1  0.00000000  0.00000000  0.04344000  1.0
  Li  Li1  1  0.50000000  0.00000000  0.04344000  1.0
  Li  Li2  1  0.25000000  0.50000000  0.13033000  1.0
  Li  Li3  1  0.75000000  0.50000000  0.13033000  1.0
  Li  Li4  1  0.50000000  0.95424000  0.84931000  1.0
  Li  Li5  1  0.00000000  0.02464000  0.83601000  1.0
  Li  Li6  1  0.74998000  0.48545000  0.94984000  1.0
  Li  Li7  1  0.25002000  0.48545000  0.94984000  1.0
  Mg  Mg8  1  0.75000000  0.75000000  0.04344000  1.0
  Mg  Mg9  1  0.25000000  0.75000000  0.04344000  1.0
  Mg  Mg10  1  0.00000000  0.25000000  0.13033000  1.0
  Mg  Mg11  1  0.50000000  0.25000000  0.13033000  1.0
  Mg  Mg12  1  0.23134000  0.74167000  0.85987000  1.0
  Mg  Mg13  1  0.76866000  0.74167000  0.85987000  1.0
  Mg  Mg14  1  0.50000000  0.24076000  0.95025000  1.0
  Mg  Mg15  1  0.00000000  0.22798000  0.95158000  1.0
  In  In16  1  0.75000000  0.25000000  0.04344000  1.0
  In  In17  1  0.25000000  0.25000000  0.04344000  1.0
  In  In18  1  0.00000000  0.75000000  0.13033000  1.0
  In  In19  1  0.50000000  0.75000000  0.13033000  1.0
  In  In20  1  0.26917000  0.22339000  0.85450000  1.0
  In  In21  1  0.73083000  0.22339000  0.85450000  1.0
  In  In22  1  0.50000000  0.75290000  0.95425000  1.0
  In  In23  1  0.00000000  0.76167000  0.95083000  1.0
  Au  Au24  1  0.75000000  0.00000000  0.13033000  1.0
  Au  Au25  1  0.25000000  0.00000000  0.13033000  1.0
  Au  Au26  1  0.50000000  0.50000000  0.04344000  1.0
  Au  Au27  1  0.00000000  0.50000000  0.04344000  1.0
  Au  Au28  1  0.25439000  0.00583000  0.95713000  1.0
  Au  Au29  1  0.74561000  0.00583000  0.95713000  1.0
  Au  Au30  1  0.00000000  0.42042000  0.86335000  1.0
  Au  Au31  1  0.50000000  0.51360000  0.86981000  1.0
  C  C32  1  0.00000000  0.74221000  0.86498000  1.0
