# generated using pymatgen
data_Li8Mg8In8Au8C
_symmetry_space_group_name_H-M   Pm
_cell_length_a   6.64779000
_cell_length_b   9.40140000
_cell_length_c   27.05110000
_cell_angle_alpha   90.00000000
_cell_angle_beta   90.00000000
_cell_angle_gamma   90.00000000
_symmetry_Int_Tables_number   6
_chemical_formula_structural   Li8Mg8In8Au8C
_chemical_formula_sum   'Li8 Mg8 In8 Au8 C1'
_cell_volume   1690.65406349
_cell_formula_units_Z   1
loop_
 _symmetry_equiv_pos_site_id
 _symmetry_equiv_pos_as_xyz
  1  'x, y, z'
  2  'x, -y, z'
loop_
 _atom_site_type_symbol
 _atom_site_label
 _atom_site_symmetry_multiplicity
 _atom_site_fract_x
 _atom_site_fract_y
 _atom_site_fract_z
 _atom_site_occupancy
  Li  Li0  2  0.48545000  0.25002000  0.05016000  1.0
  Li  Li1  2  0.50000000  0.25000000  0.86967000  1.0
  Li  Li2  1  0.00000000  0.00000000  0.95656000  1.0
  Li  Li3  1  0.00000000  0.50000000  0.95656000  1.0
  Li  Li4  1  0.02464000  0.00000000  0.16399000  1.0
  Li  Li5  1  0.95424000  0.50000000  0.15069000  1.0
  Mg  Mg6  2  0.74167000  0.23134000  0.14013000  1.0
  Mg  Mg7  2  0.75000000  0.25000000  0.95656000  1.0
  Mg  Mg8  1  0.22798000  0.00000000  0.04842000  1.0
  Mg  Mg9  1  0.24076000  0.50000000  0.04975000  1.0
  Mg  Mg10  1  0.25000000  0.00000000  0.86967000  1.0
  Mg  Mg11  1  0.25000000  0.50000000  0.86967000  1.0
  In  In12  2  0.22339000  0.26917000  0.14550000  1.0
  In  In13  2  0.25000000  0.25000000  0.95656000  1.0
  In  In14  1  0.75000000  0.00000000  0.86967000  1.0
  In  In15  1  0.75000000  0.50000000  0.86967000  1.0
  In  In16  1  0.75290000  0.50000000  0.04575000  1.0
  In  In17  1  0.76167000  0.00000000  0.04917000  1.0
  Au  Au18  2  0.00000000  0.25000000  0.86967000  1.0
  Au  Au19  2  0.00583000  0.25439000  0.04287000  1.0
  Au  Au20  1  0.42042000  0.00000000  0.13665000  1.0
  Au  Au21  1  0.50000000  0.00000000  0.95656000  1.0
  Au  Au22  1  0.50000000  0.50000000  0.95656000  1.0
  Au  Au23  1  0.51360000  0.50000000  0.13019000  1.0
  C  C24  1  0.74221000  0.00000000  0.13502000  1.0
