# generated using pymatgen
data_Fe8Pd24C
_symmetry_space_group_name_H-M   'P 1'
_cell_length_a   7.85602000
_cell_length_b   7.85602000
_cell_length_c   25.89200000
_cell_angle_alpha   90.00000000
_cell_angle_beta   90.00000000
_cell_angle_gamma   90.00000000
_symmetry_Int_Tables_number   1
_chemical_formula_structural   Fe8Pd24C
_chemical_formula_sum   'Fe8 Pd24 C1'
_cell_volume   1597.97786482
_cell_formula_units_Z   1
loop_
 _symmetry_equiv_pos_site_id
 _symmetry_equiv_pos_as_xyz
  1  'x, y, z'
loop_
 _atom_site_type_symbol
 _atom_site_label
 _atom_site_symmetry_multiplicity
 _atom_site_fract_x
 _atom_site_fract_y
 _atom_site_fract_z
 _atom_site_occupancy
  Fe  Fe0  1  0.75000000  0.00000000  0.11378000  1.0
  Fe  Fe1  1  0.75000000  0.00000000  0.96207000  1.0
  Fe  Fe2  1  0.75000000  0.50000000  0.11378000  1.0
  Fe  Fe3  1  0.75000000  0.50000000  0.96207000  1.0
  Fe  Fe4  1  0.25000000  0.00000000  0.11378000  1.0
  Fe  Fe5  1  0.25000000  0.00000000  0.96207000  1.0
  Fe  Fe6  1  0.25000000  0.50000000  0.11378000  1.0
  Fe  Fe7  1  0.25000000  0.50000000  0.96207000  1.0
  Pd  Pd8  1  0.75000000  0.25000000  0.03793000  1.0
  Pd  Pd9  1  0.00000000  0.00000000  0.03793000  1.0
  Pd  Pd10  1  0.00000000  0.25000000  0.11378000  1.0
  Pd  Pd11  1  0.75000000  0.25000000  0.88622000  1.0
  Pd  Pd12  1  0.00000000  0.00000000  0.88622000  1.0
  Pd  Pd13  1  0.00000000  0.25000000  0.96207000  1.0
  Pd  Pd14  1  0.75000000  0.75000000  0.03793000  1.0
  Pd  Pd15  1  0.00000000  0.50000000  0.03793000  1.0
  Pd  Pd16  1  0.00000000  0.75000000  0.11378000  1.0
  Pd  Pd17  1  0.75000000  0.75000000  0.88622000  1.0
  Pd  Pd18  1  0.00000000  0.50000000  0.88622000  1.0
  Pd  Pd19  1  0.00000000  0.75000000  0.96207000  1.0
  Pd  Pd20  1  0.25000000  0.25000000  0.03793000  1.0
  Pd  Pd21  1  0.50000000  0.00000000  0.03793000  1.0
  Pd  Pd22  1  0.50000000  0.25000000  0.11378000  1.0
  Pd  Pd23  1  0.25000000  0.25000000  0.88622000  1.0
  Pd  Pd24  1  0.50000000  0.00000000  0.88622000  1.0
  Pd  Pd25  1  0.50000000  0.25000000  0.96207000  1.0
  Pd  Pd26  1  0.25000000  0.75000000  0.03793000  1.0
  Pd  Pd27  1  0.50000000  0.50000000  0.03793000  1.0
  Pd  Pd28  1  0.50000000  0.75000000  0.11378000  1.0
  Pd  Pd29  1  0.25000000  0.75000000  0.88622000  1.0
  Pd  Pd30  1  0.50000000  0.50000000  0.88622000  1.0
  Pd  Pd31  1  0.50000000  0.75000000  0.96207000  1.0
  C  C32  1  0.00000000  0.00000000  0.14468000  1.0
