# generated using pymatgen
data_Li4Ni8Ge4CO
_symmetry_space_group_name_H-M   'P 1'
_cell_length_a   5.73354000
_cell_length_b   5.73354000
_cell_length_c   24.30020000
_cell_angle_alpha   90.00000000
_cell_angle_beta   90.00000000
_cell_angle_gamma   90.00000000
_symmetry_Int_Tables_number   1
_chemical_formula_structural   Li4Ni8Ge4CO
_chemical_formula_sum   'Li4 Ni8 Ge4 C1 O1'
_cell_volume   798.83216133
_cell_formula_units_Z   1
loop_
 _symmetry_equiv_pos_site_id
 _symmetry_equiv_pos_as_xyz
  1  'x, y, z'
loop_
 _atom_site_type_symbol
 _atom_site_label
 _atom_site_symmetry_multiplicity
 _atom_site_fract_x
 _atom_site_fract_y
 _atom_site_fract_z
 _atom_site_occupancy
  Li  Li0  1  0.99998000  0.99993000  0.10193000  1.0
  Li  Li1  1  0.50005000  0.49998000  0.10191000  1.0
  Li  Li2  1  0.50000000  0.00000000  0.97051000  1.0
  Li  Li3  1  0.00000000  0.50000000  0.97051000  1.0
  Ni  Ni4  1  0.25176000  0.24798000  0.03186000  1.0
  Ni  Ni5  1  0.75000000  0.75000000  0.91152000  1.0
  Ni  Ni6  1  0.74842000  0.24830000  0.03177000  1.0
  Ni  Ni7  1  0.25000000  0.75000000  0.91152000  1.0
  Ni  Ni8  1  0.74842000  0.75196000  0.03169000  1.0
  Ni  Ni9  1  0.25000000  0.25000000  0.91152000  1.0
  Ni  Ni10  1  0.25163000  0.75162000  0.03177000  1.0
  Ni  Ni11  1  0.75000000  0.25000000  0.91152000  1.0
  Ge  Ge12  1  0.00000000  0.00000000  0.97051000  1.0
  Ge  Ge13  1  0.50014000  0.99972000  0.08595000  1.0
  Ge  Ge14  1  0.00001000  0.50003000  0.08348000  1.0
  Ge  Ge15  1  0.50000000  0.50000000  0.97051000  1.0
  C  C16  1  0.99984000  0.50016000  0.16362000  1.0
  O  O17  1  0.99995000  0.49991000  0.21178000  1.0
