# generated using pymatgen
data_Sc8In8Ni16C
_symmetry_space_group_name_H-M   'P 1'
_cell_length_a   6.35421000
_cell_length_b   8.98620000
_cell_length_c   26.73970000
_cell_angle_alpha   90.00000000
_cell_angle_beta   90.00000000
_cell_angle_gamma   90.00000000
_symmetry_Int_Tables_number   1
_chemical_formula_structural   Sc8In8Ni16C
_chemical_formula_sum   'Sc8 In8 Ni16 C1'
_cell_volume   1526.84226880
_cell_formula_units_Z   1
loop_
 _symmetry_equiv_pos_site_id
 _symmetry_equiv_pos_as_xyz
  1  'x, y, z'
loop_
 _atom_site_type_symbol
 _atom_site_label
 _atom_site_symmetry_multiplicity
 _atom_site_fract_x
 _atom_site_fract_y
 _atom_site_fract_z
 _atom_site_occupancy
  Sc  Sc0  1  0.00000000  0.00000000  0.87398000  1.0
  Sc  Sc1  1  0.50000000  0.25000000  0.95799000  1.0
  Sc  Sc2  1  0.50000000  0.75000000  0.95799000  1.0
  Sc  Sc3  1  0.00000000  0.50000000  0.87398000  1.0
  Sc  Sc4  1  0.99584000  0.50831000  0.03924000  1.0
  Sc  Sc5  1  0.52117000  0.75000000  0.12339000  1.0
  Sc  Sc6  1  0.55928000  0.25002000  0.12701000  1.0
  Sc  Sc7  1  0.99578000  0.99180000  0.03924000  1.0
  In  In8  1  0.00000000  0.75000000  0.95799000  1.0
  In  In9  1  0.50000000  0.00000000  0.87398000  1.0
  In  In10  1  0.00000000  0.25000000  0.95799000  1.0
  In  In11  1  0.50000000  0.50000000  0.87398000  1.0
  In  In12  1  0.95964000  0.24997000  0.18041000  1.0
  In  In13  1  0.49560000  0.49299000  0.04431000  1.0
  In  In14  1  0.02337000  0.75001000  0.12881000  1.0
  In  In15  1  0.49560000  0.00709000  0.04432000  1.0
  Ni  Ni16  1  0.25000000  0.00000000  0.95799000  1.0
  Ni  Ni17  1  0.75000000  0.50000000  0.95799000  1.0
  Ni  Ni18  1  0.75000000  0.00000000  0.95799000  1.0
  Ni  Ni19  1  0.25000000  0.50000000  0.95799000  1.0
  Ni  Ni20  1  0.75000000  0.75000000  0.87398000  1.0
  Ni  Ni21  1  0.25000000  0.25000000  0.87398000  1.0
  Ni  Ni22  1  0.25000000  0.75000000  0.87398000  1.0
  Ni  Ni23  1  0.75000000  0.25000000  0.87398000  1.0
  Ni  Ni24  1  0.19399000  0.45729000  0.12010000  1.0
  Ni  Ni25  1  0.78705000  0.99839000  0.11964000  1.0
  Ni  Ni26  1  0.78710000  0.50160000  0.11963000  1.0
  Ni  Ni27  1  0.19394000  0.04274000  0.12009000  1.0
  Ni  Ni28  1  0.76364000  0.25007000  0.04306000  1.0
  Ni  Ni29  1  0.27080000  0.75003000  0.04367000  1.0
  Ni  Ni30  1  0.21384000  0.25007000  0.04924000  1.0
  Ni  Ni31  1  0.73913000  0.75007000  0.04319000  1.0
  C  C32  1  0.22356000  0.25001000  0.11974000  1.0
