data_image0
_chemical_formula_structural       Ca24Pb8CO
_chemical_formula_sum              "Ca24 Pb8 C1 O1"
_cell_length_a       10.2191
_cell_length_b       10.2191
_cell_length_c       27.6643
_cell_angle_alpha    90
_cell_angle_beta     90
_cell_angle_gamma    90

_space_group_name_H-M_alt    "P 1"
_space_group_IT_number       1

loop_
  _space_group_symop_operation_xyz
  'x, y, z'

loop_
  _atom_site_type_symbol
  _atom_site_label
  _atom_site_symmetry_multiplicity
  _atom_site_fract_x
  _atom_site_fract_y
  _atom_site_fract_z
  _atom_site_occupancy
  Ca  Ca1       1.0  1.00000  0.25879  0.04750  1.0000
  Ca  Ca2       1.0  0.25878  0.00001  0.04752  1.0000
  Ca  Ca3       1.0  0.26142  0.26140  0.14652  1.0000
  Ca  Ca4       1.0  0.00000  0.25000  0.86148  1.0000
  Ca  Ca5       1.0  0.25000  0.00000  0.86148  1.0000
  Ca  Ca6       1.0  0.25000  0.25000  0.95383  1.0000
  Ca  Ca7       1.0  0.99999  0.74122  0.04750  1.0000
  Ca  Ca8       1.0  0.25184  0.50000  0.04761  1.0000
  Ca  Ca9       1.0  0.26140  0.73862  0.14653  1.0000
  Ca  Ca10      1.0  0.00000  0.75000  0.86148  1.0000
  Ca  Ca11      1.0  0.25000  0.50000  0.86148  1.0000
  Ca  Ca12      1.0  0.25000  0.75000  0.95383  1.0000
  Ca  Ca13      1.0  0.50001  0.25186  0.04761  1.0000
  Ca  Ca14      1.0  0.74122  0.00000  0.04753  1.0000
  Ca  Ca15      1.0  0.73860  0.26139  0.14653  1.0000
  Ca  Ca16      1.0  0.50000  0.25000  0.86148  1.0000
  Ca  Ca17      1.0  0.75000  0.00000  0.86148  1.0000
  Ca  Ca18      1.0  0.75000  0.25000  0.95383  1.0000
  Ca  Ca19      1.0  0.50000  0.74816  0.04762  1.0000
  Ca  Ca20      1.0  0.74815  0.50000  0.04761  1.0000
  Ca  Ca21      1.0  0.73859  0.73859  0.14653  1.0000
  Ca  Ca22      1.0  0.50000  0.75000  0.86148  1.0000
  Ca  Ca23      1.0  0.75000  0.50000  0.86148  1.0000
  Ca  Ca24      1.0  0.75000  0.75000  0.95383  1.0000
  Pb  Pb1       1.0  0.00003  1.00000  0.12646  1.0000
  Pb  Pb2       1.0  0.00000  0.00000  0.95383  1.0000
  Pb  Pb3       1.0  0.99999  0.49999  0.12843  1.0000
  Pb  Pb4       1.0  0.00000  0.50000  0.95383  1.0000
  Pb  Pb5       1.0  0.49999  1.00000  0.12849  1.0000
  Pb  Pb6       1.0  0.50000  0.00000  0.95383  1.0000
  Pb  Pb7       1.0  0.49999  0.50000  0.12801  1.0000
  Pb  Pb8       1.0  0.50000  0.50000  0.95383  1.0000
  C   C1        1.0  0.00000  0.00000  0.21261  1.0000
  O   O1        1.0  1.00000  0.99999  0.25471  1.0000
