# generated using pymatgen
data_Ca24Pb8CO
_symmetry_space_group_name_H-M   'P 1'
_cell_length_a   10.21910000
_cell_length_b   10.21910000
_cell_length_c   27.66430000
_cell_angle_alpha   90.00000000
_cell_angle_beta   90.00000000
_cell_angle_gamma   90.00000000
_symmetry_Int_Tables_number   1
_chemical_formula_structural   Ca24Pb8CO
_chemical_formula_sum   'Ca24 Pb8 C1 O1'
_cell_volume   2888.98298207
_cell_formula_units_Z   1
loop_
 _symmetry_equiv_pos_site_id
 _symmetry_equiv_pos_as_xyz
  1  'x, y, z'
loop_
 _atom_site_type_symbol
 _atom_site_label
 _atom_site_symmetry_multiplicity
 _atom_site_fract_x
 _atom_site_fract_y
 _atom_site_fract_z
 _atom_site_occupancy
  Ca  Ca0  1  0.00000000  0.25879000  0.04750000  1.0
  Ca  Ca1  1  0.25878000  0.00000000  0.04752000  1.0
  Ca  Ca2  1  0.26142000  0.26140000  0.14652000  1.0
  Ca  Ca3  1  0.00000000  0.25000000  0.86148000  1.0
  Ca  Ca4  1  0.25000000  0.00000000  0.86148000  1.0
  Ca  Ca5  1  0.25000000  0.25000000  0.95383000  1.0
  Ca  Ca6  1  0.00000000  0.74121000  0.04750000  1.0
  Ca  Ca7  1  0.25184000  0.50000000  0.04761000  1.0
  Ca  Ca8  1  0.26142000  0.73860000  0.14652000  1.0
  Ca  Ca9  1  0.00000000  0.75000000  0.86148000  1.0
  Ca  Ca10  1  0.25000000  0.50000000  0.86148000  1.0
  Ca  Ca11  1  0.25000000  0.75000000  0.95383000  1.0
  Ca  Ca12  1  0.50000000  0.25186000  0.04761000  1.0
  Ca  Ca13  1  0.74122000  0.00000000  0.04752000  1.0
  Ca  Ca14  1  0.73858000  0.26140000  0.14652000  1.0
  Ca  Ca15  1  0.50000000  0.25000000  0.86148000  1.0
  Ca  Ca16  1  0.75000000  0.00000000  0.86148000  1.0
  Ca  Ca17  1  0.75000000  0.25000000  0.95383000  1.0
  Ca  Ca18  1  0.50000000  0.74814000  0.04761000  1.0
  Ca  Ca19  1  0.74816000  0.50000000  0.04761000  1.0
  Ca  Ca20  1  0.73858000  0.73860000  0.14652000  1.0
  Ca  Ca21  1  0.50000000  0.75000000  0.86148000  1.0
  Ca  Ca22  1  0.75000000  0.50000000  0.86148000  1.0
  Ca  Ca23  1  0.75000000  0.75000000  0.95383000  1.0
  Pb  Pb24  1  0.00000000  0.00000000  0.12646000  1.0
  Pb  Pb25  1  0.00000000  0.00000000  0.95383000  1.0
  Pb  Pb26  1  0.00000000  0.50000000  0.12843000  1.0
  Pb  Pb27  1  0.00000000  0.50000000  0.95383000  1.0
  Pb  Pb28  1  0.50000000  0.00000000  0.12849000  1.0
  Pb  Pb29  1  0.50000000  0.00000000  0.95383000  1.0
  Pb  Pb30  1  0.50000000  0.50000000  0.12801000  1.0
  Pb  Pb31  1  0.50000000  0.50000000  0.95383000  1.0
  C  C32  1  0.00000000  0.00000000  0.21261000  1.0
  O  O33  1  0.00000000  0.00000000  0.25471000  1.0
