# generated using pymatgen
data_Li8Y8Pd8Pb8C
_symmetry_space_group_name_H-M   Pm
_cell_length_a   6.89083000
_cell_length_b   9.74510000
_cell_length_c   27.30880000
_cell_angle_alpha   90.00000000
_cell_angle_beta   90.00000000
_cell_angle_gamma   90.00000000
_symmetry_Int_Tables_number   6
_chemical_formula_structural   Li8Y8Pd8Pb8C
_chemical_formula_sum   'Li8 Y8 Pd8 Pb8 C1'
_cell_volume   1833.83582500
_cell_formula_units_Z   1
loop_
 _symmetry_equiv_pos_site_id
 _symmetry_equiv_pos_as_xyz
  1  'x, y, z'
  2  'x, -y, z'
loop_
 _atom_site_type_symbol
 _atom_site_label
 _atom_site_symmetry_multiplicity
 _atom_site_fract_x
 _atom_site_fract_y
 _atom_site_fract_z
 _atom_site_occupancy
  Li  Li0  2  0.00000000  0.25000000  0.86618000  1.0
  Li  Li1  2  0.00943000  0.25092000  0.04524000  1.0
  Li  Li2  1  0.28845000  0.50000000  0.18916000  1.0
  Li  Li3  1  0.45065000  0.00000000  0.19410000  1.0
  Li  Li4  1  0.50000000  0.00000000  0.95539000  1.0
  Li  Li5  1  0.50000000  0.50000000  0.95539000  1.0
  Y  Y6  2  0.73092000  0.25152000  0.13078000  1.0
  Y  Y7  2  0.75000000  0.25000000  0.95539000  1.0
  Y  Y8  1  0.25000000  0.00000000  0.86618000  1.0
  Y  Y9  1  0.25000000  0.50000000  0.86618000  1.0
  Y  Y10  1  0.25897000  0.50000000  0.04940000  1.0
  Y  Y11  1  0.25979000  0.00000000  0.05000000  1.0
  Pd  Pd12  2  0.49378000  0.25055000  0.04385000  1.0
  Pd  Pd13  2  0.50000000  0.25000000  0.86618000  1.0
  Pd  Pd14  1  0.00000000  0.00000000  0.95539000  1.0
  Pd  Pd15  1  0.00000000  0.50000000  0.95539000  1.0
  Pd  Pd16  1  0.95480000  0.00000000  0.13488000  1.0
  Pd  Pd17  1  0.99142000  0.50000000  0.12833000  1.0
  Pb  Pb18  2  0.25000000  0.25000000  0.95539000  1.0
  Pb  Pb19  2  0.25431000  0.24255000  0.14027000  1.0
  Pb  Pb20  1  0.74416000  0.50000000  0.04419000  1.0
  Pb  Pb21  1  0.74734000  0.00000000  0.04347000  1.0
  Pb  Pb22  1  0.75000000  0.00000000  0.86618000  1.0
  Pb  Pb23  1  0.75000000  0.50000000  0.86618000  1.0
  C  C24  1  0.16496000  0.00000000  0.18091000  1.0
