# generated using pymatgen
data_Li8Y8In8Pd8C
_symmetry_space_group_name_H-M   'P 1'
_cell_length_a   9.63982000
_cell_length_b   6.81638000
_cell_length_c   27.22990000
_cell_angle_alpha   90.00000000
_cell_angle_beta   90.00000000
_cell_angle_gamma   90.00000000
_symmetry_Int_Tables_number   1
_chemical_formula_structural   Li8Y8In8Pd8C
_chemical_formula_sum   'Li8 Y8 In8 Pd8 C1'
_cell_volume   1789.24068346
_cell_formula_units_Z   1
loop_
 _symmetry_equiv_pos_site_id
 _symmetry_equiv_pos_as_xyz
  1  'x, y, z'
loop_
 _atom_site_type_symbol
 _atom_site_label
 _atom_site_symmetry_multiplicity
 _atom_site_fract_x
 _atom_site_fract_y
 _atom_site_fract_z
 _atom_site_occupancy
  Li  Li0  1  0.75000000  0.75000000  0.04425000  1.0
  Li  Li1  1  0.25000000  0.75000000  0.04425000  1.0
  Li  Li2  1  0.00000000  0.25000000  0.13276000  1.0
  Li  Li3  1  0.50000000  0.25000000  0.13276000  1.0
  Li  Li4  1  0.21172000  0.62102000  0.81096000  1.0
  Li  Li5  1  0.78828000  0.62102000  0.81096000  1.0
  Li  Li6  1  0.50000000  0.25154000  0.95244000  1.0
  Li  Li7  1  0.00000000  0.23381000  0.95312000  1.0
  Y  Y8  1  0.00000000  0.00000000  0.04425000  1.0
  Y  Y9  1  0.50000000  0.00000000  0.04425000  1.0
  Y  Y10  1  0.25000000  0.50000000  0.13276000  1.0
  Y  Y11  1  0.75000000  0.50000000  0.13276000  1.0
  Y  Y12  1  0.50000000  0.95721000  0.87028000  1.0
  Y  Y13  1  0.00000000  0.95623000  0.86572000  1.0
  Y  Y14  1  0.75018000  0.51653000  0.94891000  1.0
  Y  Y15  1  0.24982000  0.51653000  0.94891000  1.0
  In  In16  1  0.75000000  0.00000000  0.13276000  1.0
  In  In17  1  0.25000000  0.00000000  0.13276000  1.0
  In  In18  1  0.50000000  0.50000000  0.04425000  1.0
  In  In19  1  0.00000000  0.50000000  0.04425000  1.0
  In  In20  1  0.25156000  0.99815000  0.95631000  1.0
  In  In21  1  0.74844000  0.99815000  0.95631000  1.0
  In  In22  1  0.00000000  0.43778000  0.86374000  1.0
  In  In23  1  0.50000000  0.48647000  0.85919000  1.0
  Pd  Pd24  1  0.75000000  0.25000000  0.04425000  1.0
  Pd  Pd25  1  0.25000000  0.25000000  0.04425000  1.0
  Pd  Pd26  1  0.00000000  0.75000000  0.13276000  1.0
  Pd  Pd27  1  0.50000000  0.75000000  0.13276000  1.0
  Pd  Pd28  1  0.26409000  0.23905000  0.87346000  1.0
  Pd  Pd29  1  0.73591000  0.23905000  0.87346000  1.0
  Pd  Pd30  1  0.50000000  0.74806000  0.95909000  1.0
  Pd  Pd31  1  0.00000000  0.75797000  0.96171000  1.0
  C  C32  1  0.00000000  0.69262000  0.81878000  1.0
