# generated using pymatgen
data_Li8Al8Pd8Pt8CO
_symmetry_space_group_name_H-M   Pm
_cell_length_a   6.06122000
_cell_length_b   8.57186000
_cell_length_c   26.42890000
_cell_angle_alpha   90.00000000
_cell_angle_beta   90.00000000
_cell_angle_gamma   90.00000000
_symmetry_Int_Tables_number   6
_chemical_formula_structural   Li8Al8Pd8Pt8CO
_chemical_formula_sum   'Li8 Al8 Pd8 Pt8 C1 O1'
_cell_volume   1373.13805906
_cell_formula_units_Z   1
loop_
 _symmetry_equiv_pos_site_id
 _symmetry_equiv_pos_as_xyz
  1  'x, y, z'
  2  'x, -y, z'
loop_
 _atom_site_type_symbol
 _atom_site_label
 _atom_site_symmetry_multiplicity
 _atom_site_fract_x
 _atom_site_fract_y
 _atom_site_fract_z
 _atom_site_occupancy
  Li  Li0  2  0.49980000  0.25037000  0.03994000  1.0
  Li  Li1  2  0.50000000  0.25000000  0.87837000  1.0
  Li  Li2  1  0.00000000  0.00000000  0.95946000  1.0
  Li  Li3  1  0.00000000  0.50000000  0.95946000  1.0
  Li  Li4  1  0.00318000  0.00000000  0.13541000  1.0
  Li  Li5  1  0.00484000  0.50000000  0.14006000  1.0
  Al  Al6  2  0.00000000  0.25000000  0.87837000  1.0
  Al  Al7  2  0.99968000  0.24800000  0.04081000  1.0
  Al  Al8  1  0.49234000  0.00000000  0.12329000  1.0
  Al  Al9  1  0.49296000  0.50000000  0.11853000  1.0
  Al  Al10  1  0.50000000  0.00000000  0.95946000  1.0
  Al  Al11  1  0.50000000  0.50000000  0.95946000  1.0
  Pd  Pd12  2  0.74452000  0.25388000  0.11879000  1.0
  Pd  Pd13  2  0.75000000  0.25000000  0.95946000  1.0
  Pd  Pd14  1  0.24158000  0.50000000  0.03876000  1.0
  Pd  Pd15  1  0.24839000  0.00000000  0.04057000  1.0
  Pd  Pd16  1  0.25000000  0.00000000  0.87837000  1.0
  Pd  Pd17  1  0.25000000  0.50000000  0.87837000  1.0
  Pt  Pt18  2  0.25000000  0.25000000  0.95946000  1.0
  Pt  Pt19  2  0.25767000  0.25251000  0.11764000  1.0
  Pt  Pt20  1  0.75000000  0.00000000  0.87837000  1.0
  Pt  Pt21  1  0.75000000  0.50000000  0.87837000  1.0
  Pt  Pt22  1  0.75063000  0.00000000  0.04233000  1.0
  Pt  Pt23  1  0.75431000  0.50000000  0.04028000  1.0
  C  C24  1  0.49936000  0.00000000  0.20037000  1.0
  O  O25  1  0.50213000  0.00000000  0.24397000  1.0
