# generated using pymatgen
data_Mn8Al8Fe16CO
_symmetry_space_group_name_H-M   'P 1'
_cell_length_a   5.79866000
_cell_length_b   8.20054000
_cell_length_c   26.15040000
_cell_angle_alpha   90.00000000
_cell_angle_beta   90.00000000
_cell_angle_gamma   90.00000000
_symmetry_Int_Tables_number   1
_chemical_formula_structural   Mn8Al8Fe16CO
_chemical_formula_sum   'Mn8 Al8 Fe16 C1 O1'
_cell_volume   1243.50756754
_cell_formula_units_Z   1
loop_
 _symmetry_equiv_pos_site_id
 _symmetry_equiv_pos_as_xyz
  1  'x, y, z'
loop_
 _atom_site_type_symbol
 _atom_site_label
 _atom_site_symmetry_multiplicity
 _atom_site_fract_x
 _atom_site_fract_y
 _atom_site_fract_z
 _atom_site_occupancy
  Mn  Mn0  1  0.00000000  0.75000000  0.88240000  1.0
  Mn  Mn1  1  0.50000000  0.00000000  0.96080000  1.0
  Mn  Mn2  1  0.50000000  0.50000000  0.96080000  1.0
  Mn  Mn3  1  0.00000000  0.25000000  0.88240000  1.0
  Mn  Mn4  1  0.00000000  0.25010000  0.04100000  1.0
  Mn  Mn5  1  0.50000000  0.50000000  0.11421000  1.0
  Mn  Mn6  1  0.50000000  0.00000000  0.11583000  1.0
  Mn  Mn7  1  0.00000000  0.74990000  0.04100000  1.0
  Al  Al8  1  0.00000000  0.50000000  0.96080000  1.0
  Al  Al9  1  0.50000000  0.75000000  0.88240000  1.0
  Al  Al10  1  0.00000000  0.00000000  0.96080000  1.0
  Al  Al11  1  0.50000000  0.25000000  0.88240000  1.0
  Al  Al12  1  0.00000000  0.00000000  0.11657000  1.0
  Al  Al13  1  0.50000000  0.25013000  0.03799000  1.0
  Al  Al14  1  0.00000000  0.50000000  0.11745000  1.0
  Al  Al15  1  0.50000000  0.74987000  0.03799000  1.0
  Fe  Fe16  1  0.25000000  0.75000000  0.96080000  1.0
  Fe  Fe17  1  0.75000000  0.25000000  0.96080000  1.0
  Fe  Fe18  1  0.75000000  0.75000000  0.96080000  1.0
  Fe  Fe19  1  0.25000000  0.25000000  0.96080000  1.0
  Fe  Fe20  1  0.75000000  0.50000000  0.88240000  1.0
  Fe  Fe21  1  0.25000000  0.00000000  0.88240000  1.0
  Fe  Fe22  1  0.25000000  0.50000000  0.88240000  1.0
  Fe  Fe23  1  0.75000000  0.00000000  0.88240000  1.0
  Fe  Fe24  1  0.26133000  0.25232000  0.11960000  1.0
  Fe  Fe25  1  0.73867000  0.74768000  0.11960000  1.0
  Fe  Fe26  1  0.73867000  0.25232000  0.11960000  1.0
  Fe  Fe27  1  0.26133000  0.74768000  0.11960000  1.0
  Fe  Fe28  1  0.75284000  0.00000000  0.03953000  1.0
  Fe  Fe29  1  0.24670000  0.50000000  0.03821000  1.0
  Fe  Fe30  1  0.24716000  0.00000000  0.03953000  1.0
  Fe  Fe31  1  0.75330000  0.50000000  0.03821000  1.0
  C  C32  1  0.00000000  0.00000000  0.19258000  1.0
  O  O33  1  0.00000000  0.00000000  0.23681000  1.0
