data_image0
_chemical_formula_structural       In16Sb16CO
_chemical_formula_sum              "In16 Sb16 C1 O1"
_cell_length_a       7.67805
_cell_length_b       10.8584
_cell_length_c       28.1438
_cell_angle_alpha    90
_cell_angle_beta     90
_cell_angle_gamma    90

_space_group_name_H-M_alt    "P 1"
_space_group_IT_number       1

loop_
  _space_group_symop_operation_xyz
  'x, y, z'

loop_
  _atom_site_type_symbol
  _atom_site_label
  _atom_site_symmetry_multiplicity
  _atom_site_fract_x
  _atom_site_fract_y
  _atom_site_fract_z
  _atom_site_occupancy
  In  In1       1.0  0.00000  0.00000  0.85532  1.0000
  In  In2       1.0  0.00000  0.25000  0.95177  1.0000
  In  In3       1.0  0.96208  0.99991  0.04665  1.0000
  In  In4       1.0  0.99630  0.25385  0.14239  1.0000
  In  In5       1.0  0.00000  0.50000  0.85532  1.0000
  In  In6       1.0  0.00000  0.75000  0.95177  1.0000
  In  In7       1.0  0.03950  0.49991  0.05179  1.0000
  In  In8       1.0  0.99637  0.74617  0.14242  1.0000
  In  In9       1.0  0.50000  0.00000  0.85532  1.0000
  In  In10      1.0  0.50000  0.25000  0.95177  1.0000
  In  In11      1.0  0.53786  0.99994  0.04664  1.0000
  In  In12      1.0  0.50361  0.25389  0.14240  1.0000
  In  In13      1.0  0.50000  0.50000  0.85532  1.0000
  In  In14      1.0  0.50000  0.75000  0.95177  1.0000
  In  In15      1.0  0.46046  0.49998  0.05179  1.0000
  In  In16      1.0  0.50361  0.74618  0.14239  1.0000
  Sb  Sb1       1.0  0.25000  0.25000  0.85532  1.0000
  Sb  Sb2       1.0  0.25000  0.00000  0.95177  1.0000
  Sb  Sb3       1.0  0.24998  0.19879  0.04590  1.0000
  Sb  Sb4       1.0  0.24997  0.00013  0.13025  1.0000
  Sb  Sb5       1.0  0.25000  0.75000  0.85532  1.0000
  Sb  Sb6       1.0  0.25000  0.50000  0.95177  1.0000
  Sb  Sb7       1.0  0.24998  0.80108  0.04589  1.0000
  Sb  Sb8       1.0  0.24998  0.49999  0.14500  1.0000
  Sb  Sb9       1.0  0.75000  0.25000  0.85532  1.0000
  Sb  Sb10      1.0  0.75000  0.00000  0.95177  1.0000
  Sb  Sb11      1.0  0.74996  0.29985  0.04108  1.0000
  Sb  Sb12      1.0  0.74994  0.00000  0.14015  1.0000
  Sb  Sb13      1.0  0.75000  0.75000  0.85532  1.0000
  Sb  Sb14      1.0  0.75000  0.50000  0.95177  1.0000
  Sb  Sb15      1.0  0.75001  0.70004  0.04108  1.0000
  Sb  Sb16      1.0  0.74998  0.50006  0.14232  1.0000
  C   C1        1.0  0.25114  0.99999  0.25851  1.0000
  O   O1        1.0  0.24973  0.00001  0.29879  1.0000
