# generated using pymatgen
data_In16Sb16CO
_symmetry_space_group_name_H-M   P1
_cell_length_a   7.67805000
_cell_length_b   10.85840000
_cell_length_c   28.14380000
_cell_angle_alpha   90.00000000
_cell_angle_beta   90.00000000
_cell_angle_gamma   90.00000000
_symmetry_Int_Tables_number   1
_chemical_formula_structural   In16Sb16CO
_chemical_formula_sum   'In16 Sb16 C1 O1'
_cell_volume   2346.38626578
_cell_formula_units_Z   1
loop_
 _symmetry_equiv_pos_site_id
 _symmetry_equiv_pos_as_xyz
  1  'x, y, z'
loop_
 _atom_site_type_symbol
 _atom_site_label
 _atom_site_symmetry_multiplicity
 _atom_site_fract_x
 _atom_site_fract_y
 _atom_site_fract_z
 _atom_site_occupancy
  In  In0  1  0.00000000  0.00000000  0.85532000  1.0
  In  In1  1  0.00000000  0.25000000  0.95177000  1.0
  In  In2  1  0.00000000  0.50000000  0.85532000  1.0
  In  In3  1  0.00000000  0.75000000  0.95177000  1.0
  In  In4  1  0.03608000  0.50005000  0.04780000  1.0
  In  In5  1  0.46409000  0.50013000  0.04782000  1.0
  In  In6  1  0.50000000  0.00000000  0.85532000  1.0
  In  In7  1  0.50000000  0.25000000  0.95177000  1.0
  In  In8  1  0.50000000  0.50000000  0.85532000  1.0
  In  In9  1  0.50000000  0.75000000  0.95177000  1.0
  In  In10  1  0.50102000  0.74865000  0.14841000  1.0
  In  In11  1  0.50113000  0.25184000  0.14847000  1.0
  In  In12  1  0.53624000  0.99999000  0.04674000  1.0
  In  In13  1  0.96349000  0.00010000  0.04681000  1.0
  In  In14  1  0.99873000  0.25208000  0.14841000  1.0
  In  In15  1  0.99888000  0.74845000  0.14836000  1.0
  Sb  Sb16  1  0.24978000  0.80039000  0.04924000  1.0
  Sb  Sb17  1  0.24979000  0.00122000  0.13402000  1.0
  Sb  Sb18  1  0.24990000  0.19963000  0.04976000  1.0
  Sb  Sb19  1  0.25000000  0.00000000  0.95177000  1.0
  Sb  Sb20  1  0.25000000  0.25000000  0.85532000  1.0
  Sb  Sb21  1  0.25000000  0.50000000  0.95177000  1.0
  Sb  Sb22  1  0.25000000  0.50019000  0.14009000  1.0
  Sb  Sb23  1  0.25000000  0.75000000  0.85532000  1.0
  Sb  Sb24  1  0.74956000  0.00028000  0.13866000  1.0
  Sb  Sb25  1  0.75000000  0.00000000  0.95177000  1.0
  Sb  Sb26  1  0.75000000  0.25000000  0.85532000  1.0
  Sb  Sb27  1  0.75000000  0.50000000  0.95177000  1.0
  Sb  Sb28  1  0.75000000  0.75000000  0.85532000  1.0
  Sb  Sb29  1  0.75005000  0.30003000  0.04677000  1.0
  Sb  Sb30  1  0.75011000  0.50057000  0.13567000  1.0
  Sb  Sb31  1  0.75013000  0.69998000  0.04709000  1.0
  C  C32  1  0.26730000  0.99662000  0.27673000  1.0
  O  O33  1  0.23729000  0.00062000  0.31617000  1.0
