# generated using pymatgen
data_Li16Cu8Sn8C
_symmetry_space_group_name_H-M   Pm
_cell_length_a   6.34973000
_cell_length_b   8.97987000
_cell_length_c   26.73490000
_cell_angle_alpha   90.00000000
_cell_angle_beta   90.00000000
_cell_angle_gamma   90.00000000
_symmetry_Int_Tables_number   6
_chemical_formula_structural   Li16Cu8Sn8C
_chemical_formula_sum   'Li16 Cu8 Sn8 C1'
_cell_volume   1524.41731254
_cell_formula_units_Z   1
loop_
 _symmetry_equiv_pos_site_id
 _symmetry_equiv_pos_as_xyz
  1  'x, y, z'
  2  'x, -y, z'
loop_
 _atom_site_type_symbol
 _atom_site_label
 _atom_site_symmetry_multiplicity
 _atom_site_fract_x
 _atom_site_fract_y
 _atom_site_fract_z
 _atom_site_occupancy
  Li  Li0  2  0.00000000  0.25000000  0.95801000  1.0
  Li  Li1  2  0.73482000  0.24349000  0.04783000  1.0
  Li  Li2  2  0.75000000  0.25000000  0.87404000  1.0
  Li  Li3  2  0.95047000  0.23234000  0.13160000  1.0
  Li  Li4  1  0.19965000  0.50000000  0.14708000  1.0
  Li  Li5  1  0.22219000  0.00000000  0.14935000  1.0
  Li  Li6  1  0.25000000  0.00000000  0.95801000  1.0
  Li  Li7  1  0.25000000  0.50000000  0.95801000  1.0
  Li  Li8  1  0.48508000  0.50000000  0.04214000  1.0
  Li  Li9  1  0.48682000  0.00000000  0.04473000  1.0
  Li  Li10  1  0.50000000  0.00000000  0.87404000  1.0
  Li  Li11  1  0.50000000  0.50000000  0.87404000  1.0
  Cu  Cu12  2  0.25000000  0.25000000  0.87404000  1.0
  Cu  Cu13  2  0.26083000  0.25495000  0.04117000  1.0
  Cu  Cu14  1  0.64305000  0.00000000  0.13507000  1.0
  Cu  Cu15  1  0.71605000  0.50000000  0.11989000  1.0
  Cu  Cu16  1  0.75000000  0.00000000  0.95801000  1.0
  Cu  Cu17  1  0.75000000  0.50000000  0.95801000  1.0
  Sn  Sn18  2  0.45849000  0.26281000  0.13184000  1.0
  Sn  Sn19  2  0.50000000  0.25000000  0.95801000  1.0
  Sn  Sn20  1  0.00000000  0.00000000  0.87404000  1.0
  Sn  Sn21  1  0.00000000  0.50000000  0.87404000  1.0
  Sn  Sn22  1  0.00099000  0.50000000  0.04682000  1.0
  Sn  Sn23  1  0.02545000  0.00000000  0.04019000  1.0
  C  C24  1  0.92120000  0.00000000  0.11610000  1.0
