data_image0
_chemical_formula_structural       Zr16Cu16
_chemical_formula_sum              "Zr16 Cu16"
_cell_length_a       6.62616
_cell_length_b       9.37081
_cell_length_c       27.0281
_cell_angle_alpha    90
_cell_angle_beta     90
_cell_angle_gamma    90

_space_group_name_H-M_alt    "P 1"
_space_group_IT_number       1

loop_
  _space_group_symop_operation_xyz
  'x, y, z'

loop_
  _atom_site_type_symbol
  _atom_site_label
  _atom_site_symmetry_multiplicity
  _atom_site_fract_x
  _atom_site_fract_y
  _atom_site_fract_z
  _atom_site_occupancy
  Zr  Zr1       1.0  0.25000  0.25000  0.86999  1.0000
  Zr  Zr2       1.0  0.25000  0.00000  0.95666  1.0000
  Zr  Zr3       1.0  0.25000  0.24999  0.03985  1.0000
  Zr  Zr4       1.0  0.25000  0.00001  0.12404  1.0000
  Zr  Zr5       1.0  0.25000  0.75000  0.86999  1.0000
  Zr  Zr6       1.0  0.25000  0.50000  0.95666  1.0000
  Zr  Zr7       1.0  0.25000  0.75001  0.03984  1.0000
  Zr  Zr8       1.0  0.25000  0.49998  0.12402  1.0000
  Zr  Zr9       1.0  0.75000  0.25000  0.86999  1.0000
  Zr  Zr10      1.0  0.75000  0.00000  0.95666  1.0000
  Zr  Zr11      1.0  0.75000  0.24999  0.03985  1.0000
  Zr  Zr12      1.0  0.75000  0.00002  0.12404  1.0000
  Zr  Zr13      1.0  0.75000  0.75000  0.86999  1.0000
  Zr  Zr14      1.0  0.75000  0.50000  0.95666  1.0000
  Zr  Zr15      1.0  0.75000  0.75001  0.03984  1.0000
  Zr  Zr16      1.0  0.75000  0.49998  0.12402  1.0000
  Cu  Cu1       1.0  0.00000  0.00000  0.86999  1.0000
  Cu  Cu2       1.0  0.00000  0.25000  0.95666  1.0000
  Cu  Cu3       1.0  0.00001  0.99995  0.04296  1.0000
  Cu  Cu4       1.0  0.00000  0.25002  0.12107  1.0000
  Cu  Cu5       1.0  0.00000  0.50000  0.86999  1.0000
  Cu  Cu6       1.0  0.00000  0.75000  0.95666  1.0000
  Cu  Cu7       1.0  1.00000  0.50005  0.04295  1.0000
  Cu  Cu8       1.0  0.99999  0.74997  0.12105  1.0000
  Cu  Cu9       1.0  0.50000  0.00000  0.86999  1.0000
  Cu  Cu10      1.0  0.50000  0.25000  0.95666  1.0000
  Cu  Cu11      1.0  0.49999  0.99995  0.04296  1.0000
  Cu  Cu12      1.0  0.50000  0.25002  0.12107  1.0000
  Cu  Cu13      1.0  0.50000  0.50000  0.86999  1.0000
  Cu  Cu14      1.0  0.50000  0.75000  0.95666  1.0000
  Cu  Cu15      1.0  0.50000  0.50005  0.04295  1.0000
  Cu  Cu16      1.0  0.50001  0.74997  0.12105  1.0000
