# generated using pymatgen
data_ZrCu
_symmetry_space_group_name_H-M   Pmm2
_cell_length_a   3.31308000
_cell_length_b   4.68540500
_cell_length_c   27.02810000
_cell_angle_alpha   90.00000000
_cell_angle_beta   90.00000000
_cell_angle_gamma   90.00000000
_symmetry_Int_Tables_number   25
_chemical_formula_structural   ZrCu
_chemical_formula_sum   'Zr4 Cu4'
_cell_volume   419.56048285
_cell_formula_units_Z   4
loop_
 _symmetry_equiv_pos_site_id
 _symmetry_equiv_pos_as_xyz
  1  'x, y, z'
  2  '-x, -y, z'
  3  '-x, y, z'
  4  'x, -y, z'
loop_
 _atom_site_type_symbol
 _atom_site_label
 _atom_site_symmetry_multiplicity
 _atom_site_fract_x
 _atom_site_fract_y
 _atom_site_fract_z
 _atom_site_occupancy
  Zr  Zr0  1  0.50000000  0.00000000  0.12403000  1.0
  Zr  Zr1  1  0.50000000  0.00000000  0.95666000  1.0
  Zr  Zr2  1  0.50000000  0.50000000  0.03984500  1.0
  Zr  Zr3  1  0.50000000  0.50000000  0.86999000  1.0
  Cu  Cu4  1  0.00000000  0.00000000  0.04295500  1.0
  Cu  Cu5  1  0.00000000  0.00000000  0.86999000  1.0
  Cu  Cu6  1  0.00000000  0.50000000  0.12106000  1.0
  Cu  Cu7  1  0.00000000  0.50000000  0.95666000  1.0
