# generated using pymatgen
data_In16Pd16C
_symmetry_space_group_name_H-M   'P 1'
_cell_length_a   9.45609000
_cell_length_b   6.68646000
_cell_length_c   27.09210000
_cell_angle_alpha   90.00000000
_cell_angle_beta   90.00000000
_cell_angle_gamma   90.00000000
_symmetry_Int_Tables_number   1
_chemical_formula_structural   In16Pd16C
_chemical_formula_sum   'In16 Pd16 C1'
_cell_volume   1712.97300101
_cell_formula_units_Z   1
loop_
 _symmetry_equiv_pos_site_id
 _symmetry_equiv_pos_as_xyz
  1  'x, y, z'
loop_
 _atom_site_type_symbol
 _atom_site_label
 _atom_site_symmetry_multiplicity
 _atom_site_fract_x
 _atom_site_fract_y
 _atom_site_fract_z
 _atom_site_occupancy
  In  In0  1  0.75000000  0.00000000  0.13089000  1.0
  In  In1  1  0.00000000  1.00000000  0.04363000  1.0
  In  In2  1  0.74878000  0.00462000  0.95648000  1.0
  In  In3  1  0.00000000  0.95476000  0.86357000  1.0
  In  In4  1  0.25000000  0.00000000  0.13089000  1.0
  In  In5  1  0.50000000  1.00000000  0.04363000  1.0
  In  In6  1  0.25122000  0.00462000  0.95648000  1.0
  In  In7  1  0.50000000  0.00976000  0.86121000  1.0
  In  In8  1  0.75000000  0.50000000  0.13089000  1.0
  In  In9  1  0.00000000  0.50000000  0.04363000  1.0
  In  In10  1  0.74874000  0.49560000  0.95649000  1.0
  In  In11  1  0.00000000  0.54645000  0.86375000  1.0
  In  In12  1  0.25000000  0.50000000  0.13089000  1.0
  In  In13  1  0.50000000  0.50000000  0.04363000  1.0
  In  In14  1  0.25126000  0.49560000  0.95649000  1.0
  In  In15  1  0.50000000  0.49009000  0.86123000  1.0
  Pd  Pd16  1  0.00000000  0.25000000  0.13089000  1.0
  Pd  Pd17  1  0.75000000  0.25000000  0.04363000  1.0
  Pd  Pd18  1  0.00000000  0.25006000  0.95458000  1.0
  Pd  Pd19  1  0.77177000  0.25029000  0.87198000  1.0
  Pd  Pd20  1  0.50000000  0.25000000  0.13089000  1.0
  Pd  Pd21  1  0.25000000  0.25000000  0.04363000  1.0
  Pd  Pd22  1  0.50000000  0.24994000  0.95378000  1.0
  Pd  Pd23  1  0.22823000  0.25029000  0.87198000  1.0
  Pd  Pd24  1  0.00000000  0.75000000  0.13089000  1.0
  Pd  Pd25  1  0.75000000  0.75000000  0.04363000  1.0
  Pd  Pd26  1  0.00000000  0.75015000  0.95950000  1.0
  Pd  Pd27  1  0.73417000  0.75013000  0.87618000  1.0
  Pd  Pd28  1  0.50000000  0.75000000  0.13089000  1.0
  Pd  Pd29  1  0.25000000  0.75000000  0.04363000  1.0
  Pd  Pd30  1  0.50000000  0.75004000  0.95786000  1.0
  Pd  Pd31  1  0.26583000  0.75013000  0.87618000  1.0
  C  C32  1  0.00000000  0.25085000  0.83895000  1.0
