# generated using pymatgen
data_In16Pd16C
_symmetry_space_group_name_H-M   Pm
_cell_length_a   6.68646000
_cell_length_b   9.45609000
_cell_length_c   27.09210000
_cell_angle_alpha   90.00000000
_cell_angle_beta   90.00000000
_cell_angle_gamma   90.00000000
_symmetry_Int_Tables_number   6
_chemical_formula_structural   In16Pd16C
_chemical_formula_sum   'In16 Pd16 C1'
_cell_volume   1712.97300101
_cell_formula_units_Z   1
loop_
 _symmetry_equiv_pos_site_id
 _symmetry_equiv_pos_as_xyz
  1  'x, y, z'
  2  'x, -y, z'
loop_
 _atom_site_type_symbol
 _atom_site_label
 _atom_site_symmetry_multiplicity
 _atom_site_fract_x
 _atom_site_fract_y
 _atom_site_fract_z
 _atom_site_occupancy
  In  In0  2  0.00000000  0.25000000  0.86911000  1.0
  In  In1  2  0.00462000  0.25122000  0.04352000  1.0
  In  In2  2  0.49560000  0.25126000  0.04351000  1.0
  In  In3  2  0.50000000  0.25000000  0.86911000  1.0
  In  In4  1  -0.00000000  0.50000000  0.95637000  1.0
  In  In5  1  -0.00000000  0.00000000  0.95637000  1.0
  In  In6  1  0.00976000  0.50000000  0.13879000  1.0
  In  In7  1  0.49009000  0.50000000  0.13877000  1.0
  In  In8  1  0.50000000  0.00000000  0.95637000  1.0
  In  In9  1  0.50000000  0.50000000  0.95637000  1.0
  In  In10  1  0.54645000  0.00000000  0.13625000  1.0
  In  In11  1  0.95476000  0.00000000  0.13643000  1.0
  Pd  Pd12  2  0.25000000  0.25000000  0.95637000  1.0
  Pd  Pd13  2  0.25029000  0.22823000  0.12802000  1.0
  Pd  Pd14  2  0.75000000  0.25000000  0.95637000  1.0
  Pd  Pd15  2  0.75013000  0.26583000  0.12382000  1.0
  Pd  Pd16  1  0.24994000  0.50000000  0.04622000  1.0
  Pd  Pd17  1  0.25000000  0.00000000  0.86911000  1.0
  Pd  Pd18  1  0.25000000  0.50000000  0.86911000  1.0
  Pd  Pd19  1  0.25006000  0.00000000  0.04542000  1.0
  Pd  Pd20  1  0.75000000  0.00000000  0.86911000  1.0
  Pd  Pd21  1  0.75000000  0.50000000  0.86911000  1.0
  Pd  Pd22  1  0.75004000  0.50000000  0.04214000  1.0
  Pd  Pd23  1  0.75015000  0.00000000  0.04050000  1.0
  C  C24  1  0.25085000  0.00000000  0.16105000  1.0
