# generated using pymatgen
data_Li8Ge8Rh16CO
_symmetry_space_group_name_H-M   Pm
_cell_length_a   8.40623000
_cell_length_b   5.94410000
_cell_length_c   26.30470000
_cell_angle_alpha   90.00000000
_cell_angle_beta   90.00000000
_cell_angle_gamma   90.00000000
_symmetry_Int_Tables_number   6
_chemical_formula_structural   Li8Ge8Rh16CO
_chemical_formula_sum   'Li8 Ge8 Rh16 C1 O1'
_cell_volume   1314.37935396
_cell_formula_units_Z   1
loop_
 _symmetry_equiv_pos_site_id
 _symmetry_equiv_pos_as_xyz
  1  'x, y, z'
  2  'x, -y, z'
loop_
 _atom_site_type_symbol
 _atom_site_label
 _atom_site_symmetry_multiplicity
 _atom_site_fract_x
 _atom_site_fract_y
 _atom_site_fract_z
 _atom_site_occupancy
  Li  Li0  1  0.00000000  0.50000000  0.88016000  1.0
  Li  Li1  1  0.00036000  0.50000000  0.03864000  1.0
  Li  Li2  1  0.24999000  0.00000000  0.14246000  1.0
  Li  Li3  1  0.25000000  0.00000000  0.96005000  1.0
  Li  Li4  1  0.49964000  0.50000000  0.03864000  1.0
  Li  Li5  1  0.50000000  0.50000000  0.88016000  1.0
  Li  Li6  1  0.74999000  0.00000000  0.13876000  1.0
  Li  Li7  1  0.75000000  0.00000000  0.96005000  1.0
  Ge  Ge8  1  0.00000000  0.00000000  0.88016000  1.0
  Ge  Ge9  1  0.24993000  0.50000000  0.11893000  1.0
  Ge  Ge10  1  0.25000000  0.50000000  0.96005000  1.0
  Ge  Ge11  1  0.50000000  0.00000000  0.88016000  1.0
  Ge  Ge12  1  0.50019000  0.00000000  0.03923000  1.0
  Ge  Ge13  1  0.75000000  0.50000000  0.96005000  1.0
  Ge  Ge14  1  0.75013000  0.50000000  0.11902000  1.0
  Ge  Ge15  1  0.99978000  0.00000000  0.03923000  1.0
  Rh  Rh16  2  0.00000000  0.25001000  0.96005000  1.0
  Rh  Rh17  2  0.25000000  0.25001000  0.88016000  1.0
  Rh  Rh18  2  0.25001000  0.24635000  0.03991000  1.0
  Rh  Rh19  2  0.50000000  0.24999000  0.96005000  1.0
  Rh  Rh20  2  0.50085000  0.25615000  0.11524000  1.0
  Rh  Rh21  2  0.74998000  0.24727000  0.03949000  1.0
  Rh  Rh22  2  0.75000000  0.24999000  0.88016000  1.0
  Rh  Rh23  2  0.99915000  0.25609000  0.11524000  1.0
  C  C24  1  0.25000000  0.00000000  0.22418000  1.0
  O  O25  1  0.25001000  0.00000000  0.26742000  1.0
