# generated using pymatgen
data_Mg8Rh8C
_symmetry_space_group_name_H-M   P4mm
_cell_length_a   6.29180000
_cell_length_b   6.29180000
_cell_length_c   24.71880000
_cell_angle_alpha   90.00000000
_cell_angle_beta   90.00000000
_cell_angle_gamma   90.00000000
_symmetry_Int_Tables_number   99
_chemical_formula_structural   Mg8Rh8C
_chemical_formula_sum   'Mg8 Rh8 C1'
_cell_volume   978.53688768
_cell_formula_units_Z   1
loop_
 _symmetry_equiv_pos_site_id
 _symmetry_equiv_pos_as_xyz
  1  'x, y, z'
  2  '-y, x, z'
  3  '-x, -y, z'
  4  'y, -x, z'
  5  '-x, y, z'
  6  'y, x, z'
  7  'x, -y, z'
  8  '-y, -x, z'
loop_
 _atom_site_type_symbol
 _atom_site_label
 _atom_site_symmetry_multiplicity
 _atom_site_fract_x
 _atom_site_fract_y
 _atom_site_fract_z
 _atom_site_occupancy
  Mg  Mg0  4  0.25000000  0.25000000  0.07579000  1.0
  Mg  Mg1  4  0.25000000  0.25000000  0.94852000  1.0
  Rh  Rh2  2  0.00000000  0.50000000  0.01216000  1.0
  Rh  Rh3  2  0.00000000  0.50000000  0.88489000  1.0
  Rh  Rh4  1  0.00000000  0.00000000  0.01216000  1.0
  Rh  Rh5  1  0.00000000  0.00000000  0.88489000  1.0
  Rh  Rh6  1  0.50000000  0.50000000  0.01216000  1.0
  Rh  Rh7  1  0.50000000  0.50000000  0.88489000  1.0
  C  C8  1  0.00000000  0.00000000  0.10816000  1.0
