# generated using pymatgen
data_Li16In8Au8CO
_symmetry_space_group_name_H-M   'P 1'
_cell_length_a   9.34782000
_cell_length_b   6.60991000
_cell_length_c   27.01090000
_cell_angle_alpha   90.00000000
_cell_angle_beta   90.00000000
_cell_angle_gamma   90.00000000
_symmetry_Int_Tables_number   1
_chemical_formula_structural   Li16In8Au8CO
_chemical_formula_sum   'Li16 In8 Au8 C1 O1'
_cell_volume   1668.95621211
_cell_formula_units_Z   1
loop_
 _symmetry_equiv_pos_site_id
 _symmetry_equiv_pos_as_xyz
  1  'x, y, z'
loop_
 _atom_site_type_symbol
 _atom_site_label
 _atom_site_symmetry_multiplicity
 _atom_site_fract_x
 _atom_site_fract_y
 _atom_site_fract_z
 _atom_site_occupancy
  Li  Li0  1  0.75000000  1.00000000  0.04326000  1.0
  Li  Li1  1  0.00000000  0.50000000  0.12978000  1.0
  Li  Li2  1  0.25000000  1.00000000  0.04326000  1.0
  Li  Li3  1  0.50000000  0.50000000  0.12978000  1.0
  Li  Li4  1  0.25000000  0.25000000  0.12978000  1.0
  Li  Li5  1  0.75000000  0.25000000  0.12978000  1.0
  Li  Li6  1  0.50000000  0.75000000  0.04326000  1.0
  Li  Li7  1  0.00000000  0.75000000  0.04326000  1.0
  Li  Li8  1  0.24900000  0.00739000  0.87236000  1.0
  Li  Li9  1  0.50000000  0.50336000  0.96425000  1.0
  Li  Li10  1  0.75100000  0.00739000  0.87236000  1.0
  Li  Li11  1  0.00000000  0.50789000  0.96366000  1.0
  Li  Li12  1  0.75037000  0.27061000  0.95266000  1.0
  Li  Li13  1  0.24963000  0.27061000  0.95266000  1.0
  Li  Li14  1  0.00000000  0.72121000  0.87402000  1.0
  Li  Li15  1  0.50000000  0.70799000  0.87795000  1.0
  In  In16  1  0.00000000  0.00000000  0.12978000  1.0
  In  In17  1  0.25000000  0.50000000  0.04326000  1.0
  In  In18  1  0.75000000  0.50000000  0.04326000  1.0
  In  In19  1  0.50000000  1.00000000  0.12978000  1.0
  In  In20  1  0.50000000  0.99073000  0.95883000  1.0
  In  In21  1  0.75039000  0.48482000  0.85252000  1.0
  In  In22  1  0.24961000  0.48482000  0.85252000  1.0
  In  In23  1  0.00000000  0.98801000  0.95863000  1.0
  Au  Au24  1  0.00000000  0.25000000  0.04326000  1.0
  Au  Au25  1  0.50000000  0.25000000  0.04326000  1.0
  Au  Au26  1  0.75000000  0.75000000  0.12978000  1.0
  Au  Au27  1  0.25000000  0.75000000  0.12978000  1.0
  Au  Au28  1  0.50000000  0.27377000  0.88194000  1.0
  Au  Au29  1  0.00000000  0.27798000  0.88285000  1.0
  Au  Au30  1  0.25091000  0.72796000  0.94895000  1.0
  Au  Au31  1  0.74909000  0.72796000  0.94895000  1.0
  C  C32  1  0.00000000  0.83987000  0.80278000  1.0
  O  O33  1  0.00000000  0.88218000  0.76155000  1.0
