# generated using pymatgen
data_YPt3
_symmetry_space_group_name_H-M   P4mm
_cell_length_a   4.16097500
_cell_length_b   4.16097500
_cell_length_c   26.24150000
_cell_angle_alpha   90.00000000
_cell_angle_beta   90.00000000
_cell_angle_gamma   90.00000000
_symmetry_Int_Tables_number   99
_chemical_formula_structural   YPt3
_chemical_formula_sum   'Y2 Pt6'
_cell_volume   454.33779839
_cell_formula_units_Z   2
loop_
 _symmetry_equiv_pos_site_id
 _symmetry_equiv_pos_as_xyz
  1  'x, y, z'
  2  '-y, x, z'
  3  '-x, -y, z'
  4  'y, -x, z'
  5  '-x, y, z'
  6  'y, x, z'
  7  'x, -y, z'
  8  '-y, -x, z'
loop_
 _atom_site_type_symbol
 _atom_site_label
 _atom_site_symmetry_multiplicity
 _atom_site_fract_x
 _atom_site_fract_y
 _atom_site_fract_z
 _atom_site_occupancy
  Y  Y0  1  0.00000000  0.00000000  0.03964000  1.0
  Y  Y1  1  0.00000000  0.00000000  0.88108000  1.0
  Pt  Pt2  2  0.00000000  0.50000000  0.11892000  1.0
  Pt  Pt3  2  0.00000000  0.50000000  0.96036000  1.0
  Pt  Pt4  1  0.50000000  0.50000000  0.03964000  1.0
  Pt  Pt5  1  0.50000000  0.50000000  0.88108000  1.0
