# generated using pymatgen
data_Li16Ga8Ir8CO
_symmetry_space_group_name_H-M   Pm
_cell_length_a   6.01864000
_cell_length_b   8.51164000
_cell_length_c   26.38370000
_cell_angle_alpha   90.00000000
_cell_angle_beta   90.00000000
_cell_angle_gamma   90.00000000
_symmetry_Int_Tables_number   6
_chemical_formula_structural   Li16Ga8Ir8CO
_chemical_formula_sum   'Li16 Ga8 Ir8 C1 O1'
_cell_volume   1351.59729550
_cell_formula_units_Z   1
loop_
 _symmetry_equiv_pos_site_id
 _symmetry_equiv_pos_as_xyz
  1  'x, y, z'
  2  'x, -y, z'
loop_
 _atom_site_type_symbol
 _atom_site_label
 _atom_site_symmetry_multiplicity
 _atom_site_fract_x
 _atom_site_fract_y
 _atom_site_fract_z
 _atom_site_occupancy
  Li  Li0  2  0.25000000  0.25000000  0.95967000  1.0
  Li  Li1  2  0.27079000  0.25605000  0.13902000  1.0
  Li  Li2  2  0.48953000  0.25036000  0.03913000  1.0
  Li  Li3  2  0.50000000  0.25000000  0.87902000  1.0
  Li  Li4  1  0.00000000  0.00000000  0.95967000  1.0
  Li  Li5  1  0.00000000  0.50000000  0.95967000  1.0
  Li  Li6  1  0.75000000  0.00000000  0.87902000  1.0
  Li  Li7  1  0.75000000  0.50000000  0.87902000  1.0
  Li  Li8  1  0.75339000  0.50000000  0.03780000  1.0
  Li  Li9  1  0.75412000  0.00000000  0.03735000  1.0
  Li  Li10  1  0.99687000  0.00000000  0.12086000  1.0
  Li  Li11  1  0.99810000  0.50000000  0.12035000  1.0
  Ga  Ga12  2  0.73096000  0.25445000  0.11880000  1.0
  Ga  Ga13  2  0.75000000  0.25000000  0.95967000  1.0
  Ga  Ga14  1  0.24391000  0.50000000  0.03858000  1.0
  Ga  Ga15  1  0.24984000  0.00000000  0.03933000  1.0
  Ga  Ga16  1  0.25000000  0.00000000  0.87902000  1.0
  Ga  Ga17  1  0.25000000  0.50000000  0.87902000  1.0
  Ir  Ir18  2  0.00000000  0.25000000  0.87902000  1.0
  Ir  Ir19  2  0.00580000  0.24919000  0.04546000  1.0
  Ir  Ir20  1  0.49873000  0.00000000  0.12199000  1.0
  Ir  Ir21  1  0.50000000  0.00000000  0.95967000  1.0
  Ir  Ir22  1  0.50000000  0.50000000  0.95967000  1.0
  Ir  Ir23  1  0.50375000  0.50000000  0.11320000  1.0
  C  C24  1  0.44631000  0.00000000  0.19163000  1.0
  O  O25  1  0.41993000  0.00000000  0.23562000  1.0
