# generated using pymatgen
data_Na16Bi16C
_symmetry_space_group_name_H-M   'P 1'
_cell_length_a   9.89650000
_cell_length_b   9.78514000
_cell_length_c   27.42240000
_cell_angle_alpha   90.00000000
_cell_angle_beta   90.00000000
_cell_angle_gamma   90.00000000
_symmetry_Int_Tables_number   1
_chemical_formula_structural   Na16Bi16C
_chemical_formula_sum   'Na16 Bi16 C1'
_cell_volume   2655.54786697
_cell_formula_units_Z   1
loop_
 _symmetry_equiv_pos_site_id
 _symmetry_equiv_pos_as_xyz
  1  'x, y, z'
loop_
 _atom_site_type_symbol
 _atom_site_label
 _atom_site_symmetry_multiplicity
 _atom_site_fract_x
 _atom_site_fract_y
 _atom_site_fract_z
 _atom_site_occupancy
  Na  Na0  1  0.25000000  0.24999000  0.13533000  1.0
  Na  Na1  1  0.50000000  0.24999000  0.04511000  1.0
  Na  Na2  1  0.25524000  0.23670000  0.94961000  1.0
  Na  Na3  1  0.50008000  0.25543000  0.84951000  1.0
  Na  Na4  1  0.25000000  0.75001000  0.13533000  1.0
  Na  Na5  1  0.50000000  0.75001000  0.04511000  1.0
  Na  Na6  1  0.25524000  0.76330000  0.94961000  1.0
  Na  Na7  1  0.50008000  0.74457000  0.84951000  1.0
  Na  Na8  1  0.75000000  0.24999000  0.13533000  1.0
  Na  Na9  1  0.00000000  0.24999000  0.04511000  1.0
  Na  Na10  1  0.74452000  0.23651000  0.94958000  1.0
  Na  Na11  1  0.99999000  0.26171000  0.85094000  1.0
  Na  Na12  1  0.75000000  0.75001000  0.13533000  1.0
  Na  Na13  1  0.00000000  0.75001000  0.04511000  1.0
  Na  Na14  1  0.74452000  0.76349000  0.94958000  1.0
  Na  Na15  1  0.99999000  0.73829000  0.85094000  1.0
  Bi  Bi16  1  0.00000000  0.00000000  0.13533000  1.0
  Bi  Bi17  1  0.25000000  0.00000000  0.04511000  1.0
  Bi  Bi18  1  0.49940000  0.00000000  0.92610000  1.0
  Bi  Bi19  1  0.22264000  0.00000000  0.85108000  1.0
  Bi  Bi20  1  0.00000000  0.50000000  0.13533000  1.0
  Bi  Bi21  1  0.25000000  0.50000000  0.04511000  1.0
  Bi  Bi22  1  0.49996000  0.50000000  0.94478000  1.0
  Bi  Bi23  1  0.25108000  0.50000000  0.87076000  1.0
  Bi  Bi24  1  0.50000000  0.00000000  0.13533000  1.0
  Bi  Bi25  1  0.75000000  0.00000000  0.04511000  1.0
  Bi  Bi26  1  0.00004000  0.00000000  0.96238000  1.0
  Bi  Bi27  1  0.77917000  0.00000000  0.85139000  1.0
  Bi  Bi28  1  0.50000000  0.50000000  0.13533000  1.0
  Bi  Bi29  1  0.75000000  0.50000000  0.04511000  1.0
  Bi  Bi30  1  0.99983000  0.50000000  0.94603000  1.0
  Bi  Bi31  1  0.74880000  0.50000000  0.87081000  1.0
  C  C32  1  0.00136000  0.00000000  0.87948000  1.0
