# generated using pymatgen
data_Na16Bi16C
_symmetry_space_group_name_H-M   Pm
_cell_length_a   9.89650000
_cell_length_b   9.78514000
_cell_length_c   27.42240000
_cell_angle_alpha   90.00000000
_cell_angle_beta   90.00000000
_cell_angle_gamma   90.00000000
_symmetry_Int_Tables_number   6
_chemical_formula_structural   Na16Bi16C
_chemical_formula_sum   'Na16 Bi16 C1'
_cell_volume   2655.54786697
_cell_formula_units_Z   1
loop_
 _symmetry_equiv_pos_site_id
 _symmetry_equiv_pos_as_xyz
  1  'x, y, z'
  2  'x, -y, z'
loop_
 _atom_site_type_symbol
 _atom_site_label
 _atom_site_symmetry_multiplicity
 _atom_site_fract_x
 _atom_site_fract_y
 _atom_site_fract_z
 _atom_site_occupancy
  Na  Na0  2  0.00000000  0.24999000  0.95489000  1.0
  Na  Na1  2  0.25000000  0.24999000  0.86467000  1.0
  Na  Na2  2  0.25524000  0.23670000  0.05039000  1.0
  Na  Na3  2  0.50000000  0.24999000  0.95489000  1.0
  Na  Na4  2  0.50008000  0.25543000  0.15049000  1.0
  Na  Na5  2  0.74452000  0.23651000  0.05042000  1.0
  Na  Na6  2  0.75000000  0.24999000  0.86467000  1.0
  Na  Na7  2  0.99999000  0.26171000  0.14906000  1.0
  Bi  Bi8  1  0.00000000  0.00000000  0.86467000  1.0
  Bi  Bi9  1  0.00000000  0.50000000  0.86467000  1.0
  Bi  Bi10  1  0.00004000  0.00000000  0.03762000  1.0
  Bi  Bi11  1  0.22264000  0.00000000  0.14892000  1.0
  Bi  Bi12  1  0.25000000  0.00000000  0.95489000  1.0
  Bi  Bi13  1  0.25000000  0.50000000  0.95489000  1.0
  Bi  Bi14  1  0.25108000  0.50000000  0.12924000  1.0
  Bi  Bi15  1  0.49940000  0.00000000  0.07390000  1.0
  Bi  Bi16  1  0.49996000  0.50000000  0.05522000  1.0
  Bi  Bi17  1  0.50000000  0.00000000  0.86467000  1.0
  Bi  Bi18  1  0.50000000  0.50000000  0.86467000  1.0
  Bi  Bi19  1  0.74880000  0.50000000  0.12919000  1.0
  Bi  Bi20  1  0.75000000  0.00000000  0.95489000  1.0
  Bi  Bi21  1  0.75000000  0.50000000  0.95489000  1.0
  Bi  Bi22  1  0.77917000  0.00000000  0.14861000  1.0
  Bi  Bi23  1  0.99983000  0.50000000  0.05397000  1.0
  C  C24  1  0.00136000  0.00000000  0.12052000  1.0
