# generated using pymatgen
data_Li8In8Cu8Ag8C
_symmetry_space_group_name_H-M   'P 1'
_cell_length_a   9.06224000
_cell_length_b   6.40797000
_cell_length_c   26.79670000
_cell_angle_alpha   90.00000000
_cell_angle_beta   90.00000000
_cell_angle_gamma   90.00000000
_symmetry_Int_Tables_number   1
_chemical_formula_structural   Li8In8Cu8Ag8C
_chemical_formula_sum   'Li8 In8 Cu8 Ag8 C1'
_cell_volume   1556.09943016
_cell_formula_units_Z   1
loop_
 _symmetry_equiv_pos_site_id
 _symmetry_equiv_pos_as_xyz
  1  'x, y, z'
loop_
 _atom_site_type_symbol
 _atom_site_label
 _atom_site_symmetry_multiplicity
 _atom_site_fract_x
 _atom_site_fract_y
 _atom_site_fract_z
 _atom_site_occupancy
  Li  Li0  1  0.75000000  0.75000000  0.04227000  1.0
  Li  Li1  1  0.25000000  0.75000000  0.04227000  1.0
  Li  Li2  1  0.00000000  0.25000000  0.12682000  1.0
  Li  Li3  1  0.50000000  0.25000000  0.12682000  1.0
  Li  Li4  1  0.23202000  0.72463000  0.84074000  1.0
  Li  Li5  1  0.76798000  0.72463000  0.84074000  1.0
  Li  Li6  1  0.50000000  0.24423000  0.95350000  1.0
  Li  Li7  1  0.00000000  0.25561000  0.95993000  1.0
  In  In8  1  0.00000000  0.00000000  0.04227000  1.0
  In  In9  1  0.50000000  1.00000000  0.04227000  1.0
  In  In10  1  0.25000000  0.50000000  0.12682000  1.0
  In  In11  1  0.75000000  0.50000000  0.12682000  1.0
  In  In12  1  0.50000000  0.98426000  0.86372000  1.0
  In  In13  1  0.00000000  0.02865000  0.87148000  1.0
  In  In14  1  0.74897000  0.51501000  0.95416000  1.0
  In  In15  1  0.25103000  0.51501000  0.95416000  1.0
  Cu  Cu16  1  0.75000000  0.25000000  0.04227000  1.0
  Cu  Cu17  1  0.25000000  0.25000000  0.04227000  1.0
  Cu  Cu18  1  0.00000000  0.75000000  0.12682000  1.0
  Cu  Cu19  1  0.50000000  0.75000000  0.12682000  1.0
  Cu  Cu20  1  0.26736000  0.24136000  0.87661000  1.0
  Cu  Cu21  1  0.73264000  0.24136000  0.87661000  1.0
  Cu  Cu22  1  0.50000000  0.75883000  0.95782000  1.0
  Cu  Cu23  1  0.00000000  0.74847000  0.95623000  1.0
  Ag  Ag24  1  0.75000000  0.00000000  0.12682000  1.0
  Ag  Ag25  1  0.25000000  0.00000000  0.12682000  1.0
  Ag  Ag26  1  0.50000000  0.50000000  0.04227000  1.0
  Ag  Ag27  1  0.00000000  0.50000000  0.04227000  1.0
  Ag  Ag28  1  0.25034000  0.99404000  0.95765000  1.0
  Ag  Ag29  1  0.74966000  0.99404000  0.95765000  1.0
  Ag  Ag30  1  0.00000000  0.45219000  0.87126000  1.0
  Ag  Ag31  1  0.50000000  0.51472000  0.87226000  1.0
  C  C32  1  0.00000000  0.73733000  0.83654000  1.0
