# generated using pymatgen
data_Y4In4Ge4Pd4CO
_symmetry_space_group_name_H-M   'P 1'
_cell_length_a   5.95203000
_cell_length_b   9.45024000
_cell_length_c   24.43650000
_cell_angle_alpha   90.00000000
_cell_angle_beta   90.00000000
_cell_angle_gamma   90.00000000
_symmetry_Int_Tables_number   1
_chemical_formula_structural   Y4In4Ge4Pd4CO
_chemical_formula_sum   'Y4 In4 Ge4 Pd4 C1 O1'
_cell_volume   1374.50698858
_cell_formula_units_Z   1
loop_
 _symmetry_equiv_pos_site_id
 _symmetry_equiv_pos_as_xyz
  1  'x, y, z'
loop_
 _atom_site_type_symbol
 _atom_site_label
 _atom_site_symmetry_multiplicity
 _atom_site_fract_x
 _atom_site_fract_y
 _atom_site_fract_z
 _atom_site_occupancy
  Y  Y0  1  0.49121000  0.99999000  0.09335000  1.0
  Y  Y1  1  0.05547000  0.00000000  0.96974000  1.0
  Y  Y2  1  0.48920000  0.50004000  0.08923000  1.0
  Y  Y3  1  0.05547000  0.50000000  0.96974000  1.0
  In  In4  1  0.77695000  0.74876000  0.03517000  1.0
  In  In5  1  0.33320000  0.75000000  0.90922000  1.0
  In  In6  1  0.77604000  0.25130000  0.03497000  1.0
  In  In7  1  0.33320000  0.25000000  0.90922000  1.0
  Ge  Ge8  1  0.99608000  0.00044000  0.09157000  1.0
  Ge  Ge9  1  0.55547000  0.00000000  0.96974000  1.0
  Ge  Ge10  1  0.99712000  0.49931000  0.09194000  1.0
  Ge  Ge11  1  0.55547000  0.50000000  0.96974000  1.0
  Pd  Pd12  1  0.27323000  0.75186000  0.03935000  1.0
  Pd  Pd13  1  0.83320000  0.75000000  0.90922000  1.0
  Pd  Pd14  1  0.27238000  0.24818000  0.03946000  1.0
  Pd  Pd15  1  0.83320000  0.25000000  0.90922000  1.0
  C  C16  1  0.29780000  0.99975000  0.18476000  1.0
  O  O17  1  0.20822000  0.99980000  0.22651000  1.0
