# generated using pymatgen
data_Y4In4Ge4Pd4CO
_symmetry_space_group_name_H-M   P1
_cell_length_a   5.95203000
_cell_length_b   9.45024000
_cell_length_c   24.43650000
_cell_angle_alpha   90.00000000
_cell_angle_beta   90.00000000
_cell_angle_gamma   90.00000000
_symmetry_Int_Tables_number   1
_chemical_formula_structural   Y4In4Ge4Pd4CO
_chemical_formula_sum   'Y4 In4 Ge4 Pd4 C1 O1'
_cell_volume   1374.50698858
_cell_formula_units_Z   1
loop_
 _symmetry_equiv_pos_site_id
 _symmetry_equiv_pos_as_xyz
  1  'x, y, z'
loop_
 _atom_site_type_symbol
 _atom_site_label
 _atom_site_symmetry_multiplicity
 _atom_site_fract_x
 _atom_site_fract_y
 _atom_site_fract_z
 _atom_site_occupancy
  Y  Y0  1  0.50879000  0.00001000  0.09335000  1.0
  Y  Y1  1  0.51080000  0.49996000  0.08923000  1.0
  Y  Y2  1  0.94453000  0.00000000  0.96974000  1.0
  Y  Y3  1  0.94453000  0.50000000  0.96974000  1.0
  In  In4  1  0.22305000  0.25124000  0.03517000  1.0
  In  In5  1  0.22396000  0.74870000  0.03497000  1.0
  In  In6  1  0.66680000  0.25000000  0.90922000  1.0
  In  In7  1  0.66680000  0.75000000  0.90922000  1.0
  Ge  Ge8  1  0.00288000  0.50069000  0.09194000  1.0
  Ge  Ge9  1  0.00392000  0.99956000  0.09157000  1.0
  Ge  Ge10  1  0.44453000  0.00000000  0.96974000  1.0
  Ge  Ge11  1  0.44453000  0.50000000  0.96974000  1.0
  Pd  Pd12  1  0.16680000  0.25000000  0.90922000  1.0
  Pd  Pd13  1  0.16680000  0.75000000  0.90922000  1.0
  Pd  Pd14  1  0.72677000  0.24814000  0.03935000  1.0
  Pd  Pd15  1  0.72762000  0.75182000  0.03946000  1.0
  C  C16  1  0.70220000  0.00025000  0.18476000  1.0
  O  O17  1  0.79178000  0.00020000  0.22651000  1.0
