# generated using pymatgen
data_Y8In8Sn8Pd8CO
_symmetry_space_group_name_H-M   Pmm2
_cell_length_a   9.06394000
_cell_length_b   9.16402000
_cell_length_c   26.55030000
_cell_angle_alpha   90.00000000
_cell_angle_beta   90.00000000
_cell_angle_gamma   90.00000000
_symmetry_Int_Tables_number   25
_chemical_formula_structural   Y8In8Sn8Pd8CO
_chemical_formula_sum   'Y8 In8 Sn8 Pd8 C1 O1'
_cell_volume   2205.32440214
_cell_formula_units_Z   1
loop_
 _symmetry_equiv_pos_site_id
 _symmetry_equiv_pos_as_xyz
  1  'x, y, z'
  2  '-x, -y, z'
  3  '-x, y, z'
  4  'x, -y, z'
loop_
 _atom_site_type_symbol
 _atom_site_label
 _atom_site_symmetry_multiplicity
 _atom_site_fract_x
 _atom_site_fract_y
 _atom_site_fract_z
 _atom_site_occupancy
  Y  Y0  1  0.00000000  0.00000000  0.12560000  1.0
  Y  Y1  1  0.00000000  0.00000000  0.95888000  1.0
  Y  Y2  1  0.00000000  0.50000000  0.12461000  1.0
  Y  Y3  1  0.00000000  0.50000000  0.95888000  1.0
  Y  Y4  1  0.50000000  0.00000000  0.12409000  1.0
  Y  Y5  1  0.50000000  0.00000000  0.95888000  1.0
  Y  Y6  1  0.50000000  0.50000000  0.12405000  1.0
  Y  Y7  1  0.50000000  0.50000000  0.95888000  1.0
  In  In8  4  0.24906000  0.24960000  0.12622000  1.0
  In  In9  4  0.25000000  0.25000000  0.95888000  1.0
  Sn  Sn10  2  0.24895000  0.00000000  0.04409000  1.0
  Sn  Sn11  2  0.24946000  0.50000000  0.04413000  1.0
  Sn  Sn12  2  0.25000000  0.00000000  0.87664000  1.0
  Sn  Sn13  2  0.25000000  0.50000000  0.87664000  1.0
  Pd  Pd14  2  0.00000000  0.25000000  0.87664000  1.0
  Pd  Pd15  2  0.00000000  0.25178000  0.04673000  1.0
  Pd  Pd16  2  0.50000000  0.25000000  0.87664000  1.0
  Pd  Pd17  2  0.50000000  0.25071000  0.04806000  1.0
  C  C18  1  0.00000000  0.00000000  0.21923000  1.0
  O  O19  1  0.00000000  0.00000000  0.26251000  1.0
