# generated using pymatgen
data_Mg8Ni16Sn8CO
_symmetry_space_group_name_H-M   'P 1'
_cell_length_a   8.78760000
_cell_length_b   6.21377000
_cell_length_c   26.59070000
_cell_angle_alpha   90.00000000
_cell_angle_beta   90.00000000
_cell_angle_gamma   90.00000000
_symmetry_Int_Tables_number   1
_chemical_formula_structural   Mg8Ni16Sn8CO
_chemical_formula_sum   'Mg8 Ni16 Sn8 C1 O1'
_cell_volume   1451.96191334
_cell_formula_units_Z   1
loop_
 _symmetry_equiv_pos_site_id
 _symmetry_equiv_pos_as_xyz
  1  'x, y, z'
loop_
 _atom_site_type_symbol
 _atom_site_label
 _atom_site_symmetry_multiplicity
 _atom_site_fract_x
 _atom_site_fract_y
 _atom_site_fract_z
 _atom_site_occupancy
  Mg  Mg0  1  0.00000000  0.00000000  0.12393000  1.0
  Mg  Mg1  1  0.24998000  0.50000000  0.04131000  1.0
  Mg  Mg2  1  0.75002000  0.50000000  0.04131000  1.0
  Mg  Mg3  1  0.50000000  0.00000000  0.12393000  1.0
  Mg  Mg4  1  0.50000000  0.99513000  0.96197000  1.0
  Mg  Mg5  1  0.74182000  0.49516000  0.87062000  1.0
  Mg  Mg6  1  0.25818000  0.49516000  0.87062000  1.0
  Mg  Mg7  1  0.00000000  0.00598000  0.95995000  1.0
  Ni  Ni8  1  0.00000000  0.25000000  0.04131000  1.0
  Ni  Ni9  1  0.50000000  0.75000000  0.04131000  1.0
  Ni  Ni10  1  0.00000000  0.75000000  0.04131000  1.0
  Ni  Ni11  1  0.50000000  0.25000000  0.04131000  1.0
  Ni  Ni12  1  0.74998000  0.75000000  0.12393000  1.0
  Ni  Ni13  1  0.24998000  0.25000000  0.12393000  1.0
  Ni  Ni14  1  0.75002000  0.25000000  0.12393000  1.0
  Ni  Ni15  1  0.25002000  0.75000000  0.12393000  1.0
  Ni  Ni16  1  0.50000000  0.22054000  0.88341000  1.0
  Ni  Ni17  1  0.00000000  0.77142000  0.88445000  1.0
  Ni  Ni18  1  0.50000000  0.76419000  0.88349000  1.0
  Ni  Ni19  1  0.00000000  0.24705000  0.87075000  1.0
  Ni  Ni20  1  0.24786000  0.74475000  0.95648000  1.0
  Ni  Ni21  1  0.75066000  0.24768000  0.95520000  1.0
  Ni  Ni22  1  0.24934000  0.24768000  0.95520000  1.0
  Ni  Ni23  1  0.75214000  0.74475000  0.95648000  1.0
  Sn  Sn24  1  0.74998000  0.00000000  0.04131000  1.0
  Sn  Sn25  1  0.00000000  0.50000000  0.12393000  1.0
  Sn  Sn26  1  0.25002000  0.00000000  0.04131000  1.0
  Sn  Sn27  1  0.50000000  0.50000000  0.12393000  1.0
  Sn  Sn28  1  0.25194000  0.99047000  0.87102000  1.0
  Sn  Sn29  1  0.50000000  0.49588000  0.95827000  1.0
  Sn  Sn30  1  0.74806000  0.99047000  0.87102000  1.0
  Sn  Sn31  1  0.00000000  0.49593000  0.95771000  1.0
  C  C32  1  0.00000000  0.35460000  0.80950000  1.0
  O  O33  1  0.00000000  0.40385000  0.76724000  1.0
