# generated using pymatgen
data_Mg8Ni16Sn8CO
_symmetry_space_group_name_H-M   Pm
_cell_length_a   6.21377000
_cell_length_b   8.78760000
_cell_length_c   26.59070000
_cell_angle_alpha   90.00000000
_cell_angle_beta   90.00000000
_cell_angle_gamma   90.00000000
_symmetry_Int_Tables_number   6
_chemical_formula_structural   Mg8Ni16Sn8CO
_chemical_formula_sum   'Mg8 Ni16 Sn8 C1 O1'
_cell_volume   1451.96191334
_cell_formula_units_Z   1
loop_
 _symmetry_equiv_pos_site_id
 _symmetry_equiv_pos_as_xyz
  1  'x, y, z'
  2  'x, -y, z'
loop_
 _atom_site_type_symbol
 _atom_site_label
 _atom_site_symmetry_multiplicity
 _atom_site_fract_x
 _atom_site_fract_y
 _atom_site_fract_z
 _atom_site_occupancy
  Mg  Mg0  2  0.49516000  0.25818000  0.12938000  1.0
  Mg  Mg1  2  0.50000000  0.24998000  0.95869000  1.0
  Mg  Mg2  1  0.00000000  0.00000000  0.87607000  1.0
  Mg  Mg3  1  0.00000000  0.50000000  0.87607000  1.0
  Mg  Mg4  1  0.00598000  0.00000000  0.04005000  1.0
  Mg  Mg5  1  0.99513000  0.50000000  0.03803000  1.0
  Ni  Ni6  2  0.24768000  0.24934000  0.04480000  1.0
  Ni  Ni7  2  0.25000000  0.24998000  0.87607000  1.0
  Ni  Ni8  2  0.74475000  0.24786000  0.04352000  1.0
  Ni  Ni9  2  0.75000000  0.25002000  0.87607000  1.0
  Ni  Ni10  1  0.22054000  0.50000000  0.11659000  1.0
  Ni  Ni11  1  0.24705000  0.00000000  0.12925000  1.0
  Ni  Ni12  1  0.25000000  0.00000000  0.95869000  1.0
  Ni  Ni13  1  0.25000000  0.50000000  0.95869000  1.0
  Ni  Ni14  1  0.75000000  0.00000000  0.95869000  1.0
  Ni  Ni15  1  0.75000000  0.50000000  0.95869000  1.0
  Ni  Ni16  1  0.76419000  0.50000000  0.11651000  1.0
  Ni  Ni17  1  0.77142000  0.00000000  0.11555000  1.0
  Sn  Sn18  2  0.00000000  0.25002000  0.95869000  1.0
  Sn  Sn19  2  0.99047000  0.25194000  0.12898000  1.0
  Sn  Sn20  1  0.49588000  0.50000000  0.04173000  1.0
  Sn  Sn21  1  0.49593000  0.00000000  0.04229000  1.0
  Sn  Sn22  1  0.50000000  0.00000000  0.87607000  1.0
  Sn  Sn23  1  0.50000000  0.50000000  0.87607000  1.0
  C  C24  1  0.35460000  0.00000000  0.19050000  1.0
  O  O25  1  0.40385000  0.00000000  0.23276000  1.0
