# generated using pymatgen
data_SiNi3
_symmetry_space_group_name_H-M   Pmm2
_cell_length_a   3.51471000
_cell_length_b   4.97055000
_cell_length_c   23.72790000
_cell_angle_alpha   90.00000000
_cell_angle_beta   90.00000000
_cell_angle_gamma   90.00000000
_symmetry_Int_Tables_number   25
_chemical_formula_structural   SiNi3
_chemical_formula_sum   'Si2 Ni6'
_cell_volume   414.52740460
_cell_formula_units_Z   2
loop_
 _symmetry_equiv_pos_site_id
 _symmetry_equiv_pos_as_xyz
  1  'x, y, z'
  2  '-x, -y, z'
  3  '-x, y, z'
  4  'x, -y, z'
loop_
 _atom_site_type_symbol
 _atom_site_label
 _atom_site_symmetry_multiplicity
 _atom_site_fract_x
 _atom_site_fract_y
 _atom_site_fract_z
 _atom_site_occupancy
  Si  Si0  1  0.00000000  0.00000000  0.07856000  1.0
  Si  Si1  1  0.00000000  0.50000000  0.97381000  1.0
  Ni  Ni2  2  0.50000000  0.25000000  0.02619000  1.0
  Ni  Ni3  2  0.50000000  0.25000000  0.92144000  1.0
  Ni  Ni4  1  0.00000000  0.00000000  0.97381000  1.0
  Ni  Ni5  1  0.00000000  0.50000000  0.07856000  1.0
