# generated using pymatgen
data_Sc4Al4In4Pd4C
_symmetry_space_group_name_H-M   Pm
_cell_length_a   5.97945000
_cell_length_b   8.33700000
_cell_length_c   24.48170000
_cell_angle_alpha   90.00000000
_cell_angle_beta   90.00000000
_cell_angle_gamma   90.00000000
_symmetry_Int_Tables_number   6
_chemical_formula_structural   Sc4Al4In4Pd4C
_chemical_formula_sum   'Sc4 Al4 In4 Pd4 C1'
_cell_volume   1220.42926158
_cell_formula_units_Z   1
loop_
 _symmetry_equiv_pos_site_id
 _symmetry_equiv_pos_as_xyz
  1  'x, y, z'
  2  'x, -y, z'
loop_
 _atom_site_type_symbol
 _atom_site_label
 _atom_site_symmetry_multiplicity
 _atom_site_fract_x
 _atom_site_fract_y
 _atom_site_fract_z
 _atom_site_occupancy
  Sc  Sc0  2  0.50115000  0.20599000  0.09603000  1.0
  Sc  Sc1  2  0.98197000  0.25000000  0.96949000  1.0
  Al  Al2  2  0.01460000  0.16529000  0.10322000  1.0
  Al  Al3  2  0.48197000  0.25000000  0.96949000  1.0
  In  In4  1  0.17552000  0.50000000  0.06388000  1.0
  In  In5  1  0.25997000  0.00000000  0.01851000  1.0
  In  In6  1  0.72295000  0.00000000  0.90847000  1.0
  In  In7  1  0.72295000  0.50000000  0.90847000  1.0
  Pd  Pd8  1  0.22295000  0.00000000  0.90847000  1.0
  Pd  Pd9  1  0.22295000  0.50000000  0.90847000  1.0
  Pd  Pd10  1  0.66278000  0.50000000  0.02739000  1.0
  Pd  Pd11  1  0.77020000  0.00000000  0.03252000  1.0
  C  C12  1  0.27429000  0.00000000  0.11527000  1.0
