data_image0
_chemical_formula_structural       Ga8Rh8CO
_chemical_formula_sum              "Ga8 Rh8 C1 O1"
_cell_length_a       6.09666
_cell_length_b       6.09666
_cell_length_c       24.5725
_cell_angle_alpha    90
_cell_angle_beta     90
_cell_angle_gamma    90

_space_group_name_H-M_alt    "P 1"
_space_group_IT_number       1

loop_
  _space_group_symop_operation_xyz
  'x, y, z'

loop_
  _atom_site_type_symbol
  _atom_site_label
  _atom_site_symmetry_multiplicity
  _atom_site_fract_x
  _atom_site_fract_y
  _atom_site_fract_z
  _atom_site_occupancy
  Ga  Ga1       1.0  0.25000  0.25000  0.96302  1.0000
  Ga  Ga2       1.0  0.24924  0.26493  0.08740  1.0000
  Ga  Ga3       1.0  0.25000  0.75000  0.96302  1.0000
  Ga  Ga4       1.0  0.24730  0.78978  0.10347  1.0000
  Ga  Ga5       1.0  0.75000  0.25000  0.96302  1.0000
  Ga  Ga6       1.0  0.74121  0.25033  0.08108  1.0000
  Ga  Ga7       1.0  0.75000  0.75000  0.96302  1.0000
  Ga  Ga8       1.0  0.74927  0.76525  0.08647  1.0000
  Rh  Rh1       1.0  0.00000  0.00000  0.90100  1.0000
  Rh  Rh2       1.0  0.00626  0.00236  0.02758  1.0000
  Rh  Rh3       1.0  0.00000  0.50000  0.90100  1.0000
  Rh  Rh4       1.0  0.00059  0.51028  0.03196  1.0000
  Rh  Rh5       1.0  0.50000  0.00000  0.90100  1.0000
  Rh  Rh6       1.0  0.49106  0.00366  0.02635  1.0000
  Rh  Rh7       1.0  0.50000  0.50000  0.90100  1.0000
  Rh  Rh8       1.0  0.49042  0.51571  0.03282  1.0000
  C   C1        1.0  0.23160  0.07954  0.16275  1.0000
  O   O1        1.0  0.20754  0.11114  0.20949  1.0000
