# generated using pymatgen
data_Ga8Rh8CO
_symmetry_space_group_name_H-M   'P 1'
_cell_length_a   6.09666000
_cell_length_b   6.09666000
_cell_length_c   24.57250000
_cell_angle_alpha   90.00000000
_cell_angle_beta   90.00000000
_cell_angle_gamma   90.00000000
_symmetry_Int_Tables_number   1
_chemical_formula_structural   Ga8Rh8CO
_chemical_formula_sum   'Ga8 Rh8 C1 O1'
_cell_volume   913.34171889
_cell_formula_units_Z   1
loop_
 _symmetry_equiv_pos_site_id
 _symmetry_equiv_pos_as_xyz
  1  'x, y, z'
loop_
 _atom_site_type_symbol
 _atom_site_label
 _atom_site_symmetry_multiplicity
 _atom_site_fract_x
 _atom_site_fract_y
 _atom_site_fract_z
 _atom_site_occupancy
  Ga  Ga0  1  0.25000000  0.25000000  0.96302000  1.0
  Ga  Ga1  1  0.24970000  0.24433000  0.09482000  1.0
  Ga  Ga2  1  0.25000000  0.75000000  0.96302000  1.0
  Ga  Ga3  1  0.24981000  0.75953000  0.09479000  1.0
  Ga  Ga4  1  0.75000000  0.25000000  0.96302000  1.0
  Ga  Ga5  1  0.74965000  0.24336000  0.08290000  1.0
  Ga  Ga6  1  0.75000000  0.75000000  0.96302000  1.0
  Ga  Ga7  1  0.74968000  0.75920000  0.08318000  1.0
  Rh  Rh8  1  0.00000000  0.00000000  0.90100000  1.0
  Rh  Rh9  1  0.00545000  0.00116000  0.02600000  1.0
  Rh  Rh10  1  0.00000000  0.50000000  0.90100000  1.0
  Rh  Rh11  1  0.00754000  0.50146000  0.03345000  1.0
  Rh  Rh12  1  0.50000000  0.00000000  0.90100000  1.0
  Rh  Rh13  1  0.49383000  0.00118000  0.02623000  1.0
  Rh  Rh14  1  0.50000000  0.50000000  0.90100000  1.0
  Rh  Rh15  1  0.49077000  0.50149000  0.03402000  1.0
  C  C16  1  0.24078000  0.00233000  0.16006000  1.0
  O  O17  1  0.22570000  0.00191000  0.20790000  1.0
