# generated using pymatgen
data_Li8Si8Ni16CO
_symmetry_space_group_name_H-M   'P 1'
_cell_length_a   7.86772000
_cell_length_b   5.56332000
_cell_length_c   25.90080000
_cell_angle_alpha   90.00000000
_cell_angle_beta   90.00000000
_cell_angle_gamma   90.00000000
_symmetry_Int_Tables_number   1
_chemical_formula_structural   Li8Si8Ni16CO
_chemical_formula_sum   'Li8 Si8 Ni16 C1 O1'
_cell_volume   1133.69469690
_cell_formula_units_Z   1
loop_
 _symmetry_equiv_pos_site_id
 _symmetry_equiv_pos_as_xyz
  1  'x, y, z'
loop_
 _atom_site_type_symbol
 _atom_site_label
 _atom_site_symmetry_multiplicity
 _atom_site_fract_x
 _atom_site_fract_y
 _atom_site_fract_z
 _atom_site_occupancy
  Li  Li0  1  0.00000000  0.00000000  0.11391000  1.0
  Li  Li1  1  0.24998000  0.50000000  0.03797000  1.0
  Li  Li2  1  0.75002000  0.50000000  0.03797000  1.0
  Li  Li3  1  0.50000000  0.00000000  0.11391000  1.0
  Li  Li4  1  0.50000000  0.00232000  0.96732000  1.0
  Li  Li5  1  0.73128000  0.50125000  0.86648000  1.0
  Li  Li6  1  0.26872000  0.50125000  0.86648000  1.0
  Li  Li7  1  0.00000000  0.00028000  0.96232000  1.0
  Si  Si8  1  0.74998000  0.00000000  0.03797000  1.0
  Si  Si9  1  0.00000000  0.50000000  0.11391000  1.0
  Si  Si10  1  0.25002000  0.00000000  0.03797000  1.0
  Si  Si11  1  0.50000000  0.50000000  0.11391000  1.0
  Si  Si12  1  0.24862000  0.00170000  0.88841000  1.0
  Si  Si13  1  0.50000000  0.49794000  0.96098000  1.0
  Si  Si14  1  0.75138000  0.00170000  0.88841000  1.0
  Si  Si15  1  0.00000000  0.50612000  0.96366000  1.0
  Ni  Ni16  1  0.00000000  0.25000000  0.03797000  1.0
  Ni  Ni17  1  0.50000000  0.75000000  0.03797000  1.0
  Ni  Ni18  1  0.00000000  0.75000000  0.03797000  1.0
  Ni  Ni19  1  0.50000000  0.25000000  0.03797000  1.0
  Ni  Ni20  1  0.74998000  0.75000000  0.11391000  1.0
  Ni  Ni21  1  0.24998000  0.25000000  0.11391000  1.0
  Ni  Ni22  1  0.75002000  0.25000000  0.11391000  1.0
  Ni  Ni23  1  0.25002000  0.75000000  0.11391000  1.0
  Ni  Ni24  1  0.50000000  0.22532000  0.89341000  1.0
  Ni  Ni25  1  0.00000000  0.76237000  0.88936000  1.0
  Ni  Ni26  1  0.50000000  0.77611000  0.89351000  1.0
  Ni  Ni27  1  0.00000000  0.25521000  0.88449000  1.0
  Ni  Ni28  1  0.24882000  0.74401000  0.96197000  1.0
  Ni  Ni29  1  0.75462000  0.25744000  0.96151000  1.0
  Ni  Ni30  1  0.24538000  0.25744000  0.96151000  1.0
  Ni  Ni31  1  0.75118000  0.74401000  0.96197000  1.0
  C  C32  1  0.00000000  0.46028000  0.82995000  1.0
  O  O33  1  0.00000000  0.52364000  0.78671000  1.0
