# generated using pymatgen
data_Li8Si8Ni16CO
_symmetry_space_group_name_H-M   Pm
_cell_length_a   5.56332000
_cell_length_b   7.86772000
_cell_length_c   25.90080000
_cell_angle_alpha   90.00000000
_cell_angle_beta   90.00000000
_cell_angle_gamma   90.00000000
_symmetry_Int_Tables_number   6
_chemical_formula_structural   Li8Si8Ni16CO
_chemical_formula_sum   'Li8 Si8 Ni16 C1 O1'
_cell_volume   1133.69469690
_cell_formula_units_Z   1
loop_
 _symmetry_equiv_pos_site_id
 _symmetry_equiv_pos_as_xyz
  1  'x, y, z'
  2  'x, -y, z'
loop_
 _atom_site_type_symbol
 _atom_site_label
 _atom_site_symmetry_multiplicity
 _atom_site_fract_x
 _atom_site_fract_y
 _atom_site_fract_z
 _atom_site_occupancy
  Li  Li0  2  0.50000000  0.24998000  0.96203000  1.0
  Li  Li1  2  0.50125000  0.26872000  0.13352000  1.0
  Li  Li2  1  0.00000000  0.00000000  0.88609000  1.0
  Li  Li3  1  0.00000000  0.50000000  0.88609000  1.0
  Li  Li4  1  0.00028000  0.00000000  0.03768000  1.0
  Li  Li5  1  0.00232000  0.50000000  0.03268000  1.0
  Si  Si6  2  0.00000000  0.25002000  0.96203000  1.0
  Si  Si7  2  0.00170000  0.24862000  0.11159000  1.0
  Si  Si8  1  0.49794000  0.50000000  0.03902000  1.0
  Si  Si9  1  0.50000000  0.00000000  0.88609000  1.0
  Si  Si10  1  0.50000000  0.50000000  0.88609000  1.0
  Si  Si11  1  0.50612000  0.00000000  0.03634000  1.0
  Ni  Ni12  2  0.25000000  0.24998000  0.88609000  1.0
  Ni  Ni13  2  0.25744000  0.24538000  0.03849000  1.0
  Ni  Ni14  2  0.74401000  0.24882000  0.03803000  1.0
  Ni  Ni15  2  0.75000000  0.25002000  0.88609000  1.0
  Ni  Ni16  1  0.22532000  0.50000000  0.10659000  1.0
  Ni  Ni17  1  0.25000000  0.00000000  0.96203000  1.0
  Ni  Ni18  1  0.25000000  0.50000000  0.96203000  1.0
  Ni  Ni19  1  0.25521000  0.00000000  0.11551000  1.0
  Ni  Ni20  1  0.75000000  0.00000000  0.96203000  1.0
  Ni  Ni21  1  0.75000000  0.50000000  0.96203000  1.0
  Ni  Ni22  1  0.76237000  0.00000000  0.11064000  1.0
  Ni  Ni23  1  0.77611000  0.50000000  0.10649000  1.0
  C  C24  1  0.46028000  0.00000000  0.17005000  1.0
  O  O25  1  0.52364000  0.00000000  0.21329000  1.0
