# generated using pymatgen
data_Li16In8Pd8CO
_symmetry_space_group_name_H-M   'P 1'
_cell_length_a   9.14213000
_cell_length_b   6.46446000
_cell_length_c   26.85660000
_cell_angle_alpha   90.00000000
_cell_angle_beta   90.00000000
_cell_angle_gamma   90.00000000
_symmetry_Int_Tables_number   1
_chemical_formula_structural   Li16In8Pd8CO
_chemical_formula_sum   'Li16 In8 Pd8 C1 O1'
_cell_volume   1587.19642280
_cell_formula_units_Z   1
loop_
 _symmetry_equiv_pos_site_id
 _symmetry_equiv_pos_as_xyz
  1  'x, y, z'
loop_
 _atom_site_type_symbol
 _atom_site_label
 _atom_site_symmetry_multiplicity
 _atom_site_fract_x
 _atom_site_fract_y
 _atom_site_fract_z
 _atom_site_occupancy
  Li  Li0  1  0.50000000  0.00000000  0.04255000  1.0
  Li  Li1  1  0.75000000  0.50000000  0.12765000  1.0
  Li  Li2  1  0.00000000  0.00000000  0.04255000  1.0
  Li  Li3  1  0.25000000  0.50000000  0.12765000  1.0
  Li  Li4  1  0.00000000  0.25000000  0.12765000  1.0
  Li  Li5  1  0.50000000  0.25000000  0.12765000  1.0
  Li  Li6  1  0.25000000  0.75000000  0.04255000  1.0
  Li  Li7  1  0.75000000  0.75000000  0.04255000  1.0
  Li  Li8  1  0.00000000  0.96897000  0.86711000  1.0
  Li  Li9  1  0.25029000  0.49947000  0.95862000  1.0
  Li  Li10  1  0.50000000  0.02312000  0.87500000  1.0
  Li  Li11  1  0.74971000  0.49947000  0.95862000  1.0
  Li  Li12  1  0.50000000  0.24485000  0.96240000  1.0
  Li  Li13  1  0.00000000  0.25027000  0.95522000  1.0
  Li  Li14  1  0.73995000  0.72691000  0.87437000  1.0
  Li  Li15  1  0.26005000  0.72691000  0.87437000  1.0
  In  In16  1  0.75000000  0.25000000  0.04255000  1.0
  In  In17  1  0.25000000  0.25000000  0.04255000  1.0
  In  In18  1  0.50000000  0.75000000  0.12765000  1.0
  In  In19  1  0.00000000  0.75000000  0.12765000  1.0
  In  In20  1  0.23943000  0.25016000  0.87151000  1.0
  In  In21  1  0.76057000  0.25016000  0.87151000  1.0
  In  In22  1  0.00000000  0.74926000  0.95844000  1.0
  In  In23  1  0.50000000  0.75391000  0.95794000  1.0
  Pd  Pd24  1  0.75000000  0.00000000  0.12765000  1.0
  Pd  Pd25  1  0.00000000  0.50000000  0.04255000  1.0
  Pd  Pd26  1  0.50000000  0.50000000  0.04255000  1.0
  Pd  Pd27  1  0.25000000  0.00000000  0.12765000  1.0
  Pd  Pd28  1  0.24934000  0.99799000  0.95722000  1.0
  Pd  Pd29  1  0.50000000  0.46547000  0.88327000  1.0
  Pd  Pd30  1  0.00000000  0.51947000  0.87007000  1.0
  Pd  Pd31  1  0.75066000  0.99799000  0.95722000  1.0
  C  C32  1  0.00000000  0.63313000  0.80277000  1.0
  O  O33  1  0.00000000  0.66558000  0.76028000  1.0
