# generated using pymatgen
data_Li16In8Pd8CO
_symmetry_space_group_name_H-M   Pm
_cell_length_a   6.46446000
_cell_length_b   9.14213000
_cell_length_c   26.85660000
_cell_angle_alpha   90.00000000
_cell_angle_beta   90.00000000
_cell_angle_gamma   90.00000000
_symmetry_Int_Tables_number   6
_chemical_formula_structural   Li16In8Pd8CO
_chemical_formula_sum   'Li16 In8 Pd8 C1 O1'
_cell_volume   1587.19642280
_cell_formula_units_Z   1
loop_
 _symmetry_equiv_pos_site_id
 _symmetry_equiv_pos_as_xyz
  1  'x, y, z'
  2  'x, -y, z'
loop_
 _atom_site_type_symbol
 _atom_site_label
 _atom_site_symmetry_multiplicity
 _atom_site_fract_x
 _atom_site_fract_y
 _atom_site_fract_z
 _atom_site_occupancy
  Li  Li0  2  0.49947000  0.25029000  0.04138000  1.0
  Li  Li1  2  0.50000000  0.25000000  0.87235000  1.0
  Li  Li2  2  0.72691000  0.26005000  0.12563000  1.0
  Li  Li3  2  0.75000000  0.25000000  0.95745000  1.0
  Li  Li4  1  0.00000000  0.00000000  0.95745000  1.0
  Li  Li5  1  0.00000000  0.50000000  0.95745000  1.0
  Li  Li6  1  0.02312000  0.50000000  0.12500000  1.0
  Li  Li7  1  0.24485000  0.50000000  0.03760000  1.0
  Li  Li8  1  0.25000000  0.00000000  0.87235000  1.0
  Li  Li9  1  0.25000000  0.50000000  0.87235000  1.0
  Li  Li10  1  0.25027000  0.00000000  0.04478000  1.0
  Li  Li11  1  0.96897000  0.00000000  0.13289000  1.0
  In  In12  2  0.25000000  0.25000000  0.95745000  1.0
  In  In13  2  0.25016000  0.23943000  0.12849000  1.0
  In  In14  1  0.74926000  0.00000000  0.04156000  1.0
  In  In15  1  0.75000000  0.00000000  0.87235000  1.0
  In  In16  1  0.75000000  0.50000000  0.87235000  1.0
  In  In17  1  0.75391000  0.50000000  0.04206000  1.0
  Pd  Pd18  2  0.00000000  0.25000000  0.87235000  1.0
  Pd  Pd19  2  0.99799000  0.24934000  0.04278000  1.0
  Pd  Pd20  1  0.46547000  0.50000000  0.11673000  1.0
  Pd  Pd21  1  0.50000000  0.00000000  0.95745000  1.0
  Pd  Pd22  1  0.50000000  0.50000000  0.95745000  1.0
  Pd  Pd23  1  0.51947000  0.00000000  0.12993000  1.0
  C  C24  1  0.63313000  0.00000000  0.19723000  1.0
  O  O25  1  0.66558000  0.00000000  0.23972000  1.0
