# generated using pymatgen
data_Li2AlPt
_symmetry_space_group_name_H-M   'P 1'
_cell_length_a   6.07419000
_cell_length_b   4.29510000
_cell_length_c   26.44270000
_cell_angle_alpha   90.00000000
_cell_angle_beta   90.00000000
_cell_angle_gamma   90.00000000
_symmetry_Int_Tables_number   1
_chemical_formula_structural   Li2AlPt
_chemical_formula_sum   'Li8 Al4 Pt4'
_cell_volume   689.87030270
_cell_formula_units_Z   4
loop_
 _symmetry_equiv_pos_site_id
 _symmetry_equiv_pos_as_xyz
  1  'x, y, z'
loop_
 _atom_site_type_symbol
 _atom_site_label
 _atom_site_symmetry_multiplicity
 _atom_site_fract_x
 _atom_site_fract_y
 _atom_site_fract_z
 _atom_site_occupancy
  Li  Li0  1  0.00000000  0.50000000  0.95939000  1.0
  Li  Li1  1  0.50000000  0.00000000  0.87818000  1.0
  Li  Li2  1  0.75000000  0.00000000  0.95939000  1.0
  Li  Li3  1  0.25000000  0.50000000  0.87818000  1.0
  Li  Li4  1  0.01778000  0.50000000  0.12906000  1.0
  Li  Li5  1  0.50210000  0.00000000  0.03754000  1.0
  Li  Li6  1  0.74538000  0.00000000  0.12543000  1.0
  Li  Li7  1  0.23889000  0.50000000  0.03852000  1.0
  Al  Al8  1  0.00000000  0.00000000  0.87818000  1.0
  Al  Al9  1  0.50000000  0.50000000  0.95939000  1.0
  Al  Al10  1  0.99654500  0.00000000  0.04061000  1.0
  Al  Al11  1  0.48132000  0.50000000  0.11885000  1.0
  Pt  Pt12  1  0.75000000  0.50000000  0.87818000  1.0
  Pt  Pt13  1  0.25000000  0.00000000  0.95939000  1.0
  Pt  Pt14  1  0.75190000  0.50000000  0.04285000  1.0
  Pt  Pt15  1  0.26472000  0.00000000  0.11403000  1.0
