# generated using pymatgen
data_Li4Ni4Ge4Pd4CO
_symmetry_space_group_name_H-M   'P 1'
_cell_length_a   5.93854000
_cell_length_b   5.93854000
_cell_length_c   24.45390000
_cell_angle_alpha   90.00000000
_cell_angle_beta   90.00000000
_cell_angle_gamma   90.00000000
_symmetry_Int_Tables_number   1
_chemical_formula_structural   Li4Ni4Ge4Pd4CO
_chemical_formula_sum   'Li4 Ni4 Ge4 Pd4 C1 O1'
_cell_volume   862.39753016
_cell_formula_units_Z   1
loop_
 _symmetry_equiv_pos_site_id
 _symmetry_equiv_pos_as_xyz
  1  'x, y, z'
loop_
 _atom_site_type_symbol
 _atom_site_label
 _atom_site_symmetry_multiplicity
 _atom_site_fract_x
 _atom_site_fract_y
 _atom_site_fract_z
 _atom_site_occupancy
  Li  Li0  1  0.50000000  1.00000000  0.09107000  1
  Li  Li1  1  0.00000000  0.00000000  0.96964000  1
  Li  Li2  1  0.50000000  0.50000000  0.96964000  1
  Li  Li3  1  0.00000000  0.50000000  0.09107000  1
  Ni  Ni4  1  0.75000000  0.75000000  0.03036000  1
  Ni  Ni5  1  0.25000000  0.75000000  0.90893000  1
  Ni  Ni6  1  0.75000000  0.25000000  0.90893000  1
  Ni  Ni7  1  0.25000000  0.25000000  0.03036000  1
  Ge  Ge8  1  0.00000000  0.00000000  0.09107000  1
  Ge  Ge9  1  0.50000000  1.00000000  0.96964000  1
  Ge  Ge10  1  0.00000000  0.50000000  0.96964000  1
  Ge  Ge11  1  0.50000000  0.50000000  0.09107000  1
  Pd  Pd12  1  0.75000000  0.25000000  0.03036000  1
  Pd  Pd13  1  0.25000000  0.25000000  0.90893000  1
  Pd  Pd14  1  0.75000000  0.75000000  0.90893000  1
  Pd  Pd15  1  0.25000000  0.75000000  0.03036000  1
  C  C16  1  0.00000000  0.00000000  0.16876000  1
  O  O17  1  0.00000000  0.00000000  0.21579000  1
