# generated using pymatgen
data_Li8Mg8Ag8Ge8C
_symmetry_space_group_name_H-M   Pm
_cell_length_a   6.50572000
_cell_length_b   9.20048000
_cell_length_c   26.90040000
_cell_angle_alpha   90.00000000
_cell_angle_beta   90.00000000
_cell_angle_gamma   90.00000000
_symmetry_Int_Tables_number   6
_chemical_formula_structural   Li8Mg8Ag8Ge8C
_chemical_formula_sum   'Li8 Mg8 Ag8 Ge8 C1'
_cell_volume   1610.14352976
_cell_formula_units_Z   1
loop_
 _symmetry_equiv_pos_site_id
 _symmetry_equiv_pos_as_xyz
  1  'x, y, z'
  2  'x, -y, z'
loop_
 _atom_site_type_symbol
 _atom_site_label
 _atom_site_symmetry_multiplicity
 _atom_site_fract_x
 _atom_site_fract_y
 _atom_site_fract_z
 _atom_site_occupancy
  Li  Li0  2  0.25000000  0.25000000  0.87174000  1.0
  Li  Li1  2  0.25167000  0.24142000  0.04793000  1.0
  Li  Li2  1  0.75000000  0.00000000  0.95725000  1.0
  Li  Li3  1  0.75000000  0.50000000  0.95725000  1.0
  Li  Li4  1  0.75440000  0.50000000  0.13404000  1.0
  Li  Li5  1  0.76444000  0.00000000  0.14455000  1.0
  Mg  Mg6  2  0.75000000  0.25000000  0.87174000  1.0
  Mg  Mg7  2  0.75888000  0.26896000  0.04513000  1.0
  Mg  Mg8  1  0.19159000  0.00000000  0.14448000  1.0
  Mg  Mg9  1  0.23217000  0.50000000  0.14353000  1.0
  Mg  Mg10  1  0.25000000  0.00000000  0.95725000  1.0
  Mg  Mg11  1  0.25000000  0.50000000  0.95725000  1.0
  Ag  Ag12  2  0.50000000  0.25000000  0.95725000  1.0
  Ag  Ag13  2  0.50294000  0.24937000  0.13229000  1.0
  Ag  Ag14  1  0.00000000  0.00000000  0.87174000  1.0
  Ag  Ag15  1  0.00000000  0.50000000  0.87174000  1.0
  Ag  Ag16  1  0.03861000  0.50000000  0.04982000  1.0
  Ag  Ag17  1  0.98333000  0.00000000  0.04751000  1.0
  Ge  Ge18  2  0.00000000  0.25000000  0.95725000  1.0
  Ge  Ge19  2  0.98035000  0.25602000  0.13613000  1.0
  Ge  Ge20  1  0.48019000  0.50000000  0.05271000  1.0
  Ge  Ge21  1  0.50000000  0.00000000  0.87174000  1.0
  Ge  Ge22  1  0.50000000  0.50000000  0.87174000  1.0
  Ge  Ge23  1  0.52778000  0.00000000  0.04010000  1.0
  C  C24  1  0.48182000  0.00000000  0.10940000  1.0
