data_image0
_chemical_formula_structural       Li4Y4Ag4Pb4
_chemical_formula_sum              "Li4 Y4 Ag4 Pb4"
_cell_length_a       7.20907
_cell_length_b       7.20907
_cell_length_c       25.4068
_cell_angle_alpha    90
_cell_angle_beta     90
_cell_angle_gamma    90

_space_group_name_H-M_alt    "P 1"
_space_group_IT_number       1

loop_
  _space_group_symop_operation_xyz
  'x, y, z'

loop_
  _atom_site_type_symbol
  _atom_site_label
  _atom_site_symmetry_multiplicity
  _atom_site_fract_x
  _atom_site_fract_y
  _atom_site_fract_z
  _atom_site_occupancy
  Li  Li1       1.0  0.24998  0.25002  0.03501  1.0000
  Li  Li2       1.0  0.25000  0.75000  0.89360  1.0000
  Li  Li3       1.0  0.75000  0.25000  0.89360  1.0000
  Li  Li4       1.0  0.75003  0.74998  0.03500  1.0000
  Y   Y1        1.0  0.75004  0.24998  0.03828  1.0000
  Y   Y2        1.0  0.75000  0.75000  0.89360  1.0000
  Y   Y3        1.0  0.25000  0.25000  0.89360  1.0000
  Y   Y4        1.0  0.25001  0.74999  0.03824  1.0000
  Ag  Ag1       1.0  0.00004  0.99984  0.10571  1.0000
  Ag  Ag2       1.0  0.00000  0.50000  0.96453  1.0000
  Ag  Ag3       1.0  0.50000  0.00000  0.96453  1.0000
  Ag  Ag4       1.0  0.49998  0.50010  0.10570  1.0000
  Pb  Pb1       1.0  0.99991  0.50008  0.11281  1.0000
  Pb  Pb2       1.0  0.00000  0.00000  0.96453  1.0000
  Pb  Pb3       1.0  0.50000  0.50000  0.96453  1.0000
  Pb  Pb4       1.0  0.50002  0.00002  0.11280  1.0000
