# generated using pymatgen
data_LiYAgPb
_symmetry_space_group_name_H-M   'P 1'
_cell_length_a   7.20907000
_cell_length_b   7.20907000
_cell_length_c   25.40680000
_cell_angle_alpha   90.00000000
_cell_angle_beta   90.00000000
_cell_angle_gamma   90.00000000
_symmetry_Int_Tables_number   1
_chemical_formula_structural   LiYAgPb
_chemical_formula_sum   'Li4 Y4 Ag4 Pb4'
_cell_volume   1320.40893342
_cell_formula_units_Z   4
loop_
 _symmetry_equiv_pos_site_id
 _symmetry_equiv_pos_as_xyz
  1  'x, y, z'
loop_
 _atom_site_type_symbol
 _atom_site_label
 _atom_site_symmetry_multiplicity
 _atom_site_fract_x
 _atom_site_fract_y
 _atom_site_fract_z
 _atom_site_occupancy
  Li  Li0  1  0.24998000  0.25002000  0.03501000  1.0
  Li  Li1  1  0.25000000  0.75000000  0.89360000  1.0
  Li  Li2  1  0.75000000  0.25000000  0.89360000  1.0
  Li  Li3  1  0.75003000  0.74998000  0.03500000  1.0
  Y  Y4  1  0.75004000  0.24998000  0.03828000  1.0
  Y  Y5  1  0.75000000  0.75000000  0.89360000  1.0
  Y  Y6  1  0.25000000  0.25000000  0.89360000  1.0
  Y  Y7  1  0.25001000  0.74999000  0.03824000  1.0
  Ag  Ag8  1  0.00004000  0.99984000  0.10571000  1.0
  Ag  Ag9  1  0.00000000  0.50000000  0.96453000  1.0
  Ag  Ag10  1  0.50000000  0.00000000  0.96453000  1.0
  Ag  Ag11  1  0.49998000  0.50010000  0.10570000  1.0
  Pb  Pb12  1  0.99991000  0.50008000  0.11281000  1.0
  Pb  Pb13  1  0.00000000  0.00000000  0.96453000  1.0
  Pb  Pb14  1  0.50000000  0.50000000  0.96453000  1.0
  Pb  Pb15  1  0.50002000  0.00002000  0.11280000  1.0
