# generated using pymatgen
data_Zr4Ni8Sb4CO
_symmetry_space_group_name_H-M   P1
_cell_length_a   6.34024000
_cell_length_b   6.34024000
_cell_length_c   24.75520000
_cell_angle_alpha   90.00000000
_cell_angle_beta   90.00000000
_cell_angle_gamma   90.00000000
_symmetry_Int_Tables_number   1
_chemical_formula_structural   Zr4Ni8Sb4CO
_chemical_formula_sum   'Zr4 Ni8 Sb4 C1 O1'
_cell_volume   995.12545357
_cell_formula_units_Z   1
loop_
 _symmetry_equiv_pos_site_id
 _symmetry_equiv_pos_as_xyz
  1  'x, y, z'
loop_
 _atom_site_type_symbol
 _atom_site_label
 _atom_site_symmetry_multiplicity
 _atom_site_fract_x
 _atom_site_fract_y
 _atom_site_fract_z
 _atom_site_occupancy
  Zr  Zr0  1  0.00000000  0.50000000  0.96799000  1.0
  Zr  Zr1  1  0.50000000  0.00000000  0.96799000  1.0
  Zr  Zr2  1  0.50000000  0.50003000  0.09167000  1.0
  Zr  Zr3  1  0.99999000  0.99993000  0.09166000  1.0
  Ni  Ni4  1  0.25000000  0.25000000  0.90396000  1.0
  Ni  Ni5  1  0.25000000  0.75000000  0.90396000  1.0
  Ni  Ni6  1  0.26188000  0.23807000  0.03431000  1.0
  Ni  Ni7  1  0.26192000  0.76190000  0.03430000  1.0
  Ni  Ni8  1  0.73809000  0.76188000  0.03429000  1.0
  Ni  Ni9  1  0.73812000  0.23808000  0.03433000  1.0
  Ni  Ni10  1  0.75000000  0.25000000  0.90396000  1.0
  Ni  Ni11  1  0.75000000  0.75000000  0.90396000  1.0
  Sb  Sb12  1  0.00000000  0.00000000  0.96799000  1.0
  Sb  Sb13  1  0.00000000  0.50001000  0.09725000  1.0
  Sb  Sb14  1  0.50000000  0.50000000  0.96799000  1.0
  Sb  Sb15  1  0.50000000  0.99993000  0.10628000  1.0
  C  C16  1  0.00015000  0.50085000  0.26743000  1.0
  O  O17  1  0.99998000  0.49979000  0.31332000  1.0
