# generated using pymatgen
data_Zr16Co16C
_symmetry_space_group_name_H-M   Pmm2
_cell_length_a   6.40088000
_cell_length_b   9.05221000
_cell_length_c   26.78920000
_cell_angle_alpha   90.00000000
_cell_angle_beta   90.00000000
_cell_angle_gamma   90.00000000
_symmetry_Int_Tables_number   25
_chemical_formula_structural   Zr16Co16C
_chemical_formula_sum   'Zr16 Co16 C1'
_cell_volume   1552.22277173
_cell_formula_units_Z   1
loop_
 _symmetry_equiv_pos_site_id
 _symmetry_equiv_pos_as_xyz
  1  'x, y, z'
  2  '-x, -y, z'
  3  '-x, y, z'
  4  'x, -y, z'
loop_
 _atom_site_type_symbol
 _atom_site_label
 _atom_site_symmetry_multiplicity
 _atom_site_fract_x
 _atom_site_fract_y
 _atom_site_fract_z
 _atom_site_occupancy
  Zr  Zr0  2  0.00000000  0.25000000  0.95776000  1.0
  Zr  Zr1  2  0.00000000  0.25486000  0.13277000  1.0
  Zr  Zr2  2  0.50000000  0.25000000  0.95776000  1.0
  Zr  Zr3  2  0.50000000  0.25346000  0.13084000  1.0
  Zr  Zr4  1  0.00000000  0.00000000  0.04729000  1.0
  Zr  Zr5  1  0.00000000  0.00000000  0.87329000  1.0
  Zr  Zr6  1  0.00000000  0.50000000  0.04376000  1.0
  Zr  Zr7  1  0.00000000  0.50000000  0.87329000  1.0
  Zr  Zr8  1  0.50000000  0.00000000  0.04202000  1.0
  Zr  Zr9  1  0.50000000  0.00000000  0.87329000  1.0
  Zr  Zr10  1  0.50000000  0.50000000  0.04295000  1.0
  Zr  Zr11  1  0.50000000  0.50000000  0.87329000  1.0
  Co  Co12  4  0.24902000  0.24838000  0.04630000  1.0
  Co  Co13  4  0.25000000  0.25000000  0.87329000  1.0
  Co  Co14  2  0.25000000  0.00000000  0.95776000  1.0
  Co  Co15  2  0.25000000  0.50000000  0.95776000  1.0
  Co  Co16  2  0.25128000  0.50000000  0.11735000  1.0
  Co  Co17  2  0.27949000  0.00000000  0.12166000  1.0
  C  C18  1  0.00000000  0.00000000  0.13733000  1.0
