# generated using pymatgen
data_Ti8Fe8C
_symmetry_space_group_name_H-M   P4mm
_cell_length_a   5.92728000
_cell_length_b   5.92728000
_cell_length_c   24.44550000
_cell_angle_alpha   90.00000000
_cell_angle_beta   90.00000000
_cell_angle_gamma   90.00000000
_symmetry_Int_Tables_number   99
_chemical_formula_structural   Ti8Fe8C
_chemical_formula_sum   'Ti8 Fe8 C1'
_cell_volume   858.83515153
_cell_formula_units_Z   1
loop_
 _symmetry_equiv_pos_site_id
 _symmetry_equiv_pos_as_xyz
  1  'x, y, z'
  2  '-y, x, z'
  3  '-x, -y, z'
  4  'y, -x, z'
  5  '-x, y, z'
  6  'y, x, z'
  7  'x, -y, z'
  8  '-y, -x, z'
loop_
 _atom_site_type_symbol
 _atom_site_label
 _atom_site_symmetry_multiplicity
 _atom_site_fract_x
 _atom_site_fract_y
 _atom_site_fract_z
 _atom_site_occupancy
  Ti  Ti0  4  0.25000000  0.25000000  0.08859000  1.0
  Ti  Ti1  4  0.25000000  0.25000000  0.96736000  1.0
  Fe  Fe2  2  0.00000000  0.50000000  0.02798000  1.0
  Fe  Fe3  2  0.00000000  0.50000000  0.90674000  1.0
  Fe  Fe4  1  0.00000000  0.00000000  0.02798000  1.0
  Fe  Fe5  1  0.00000000  0.00000000  0.90674000  1.0
  Fe  Fe6  1  0.50000000  0.50000000  0.02798000  1.0
  Fe  Fe7  1  0.50000000  0.50000000  0.90674000  1.0
  C  C8  1  0.00000000  0.00000000  0.12132000  1.0
