# generated using pymatgen
data_Hf8In8Cu16CO
_symmetry_space_group_name_H-M   Pmm2
_cell_length_a   6.35005000
_cell_length_b   8.98033000
_cell_length_c   26.73520000
_cell_angle_alpha   90.00000000
_cell_angle_beta   90.00000000
_cell_angle_gamma   90.00000000
_symmetry_Int_Tables_number   25
_chemical_formula_structural   Hf8In8Cu16CO
_chemical_formula_sum   'Hf8 In8 Cu16 C1 O1'
_cell_volume   1524.58933776
_cell_formula_units_Z   1
loop_
 _symmetry_equiv_pos_site_id
 _symmetry_equiv_pos_as_xyz
  1  'x, y, z'
  2  '-x, -y, z'
  3  '-x, y, z'
  4  'x, -y, z'
loop_
 _atom_site_type_symbol
 _atom_site_label
 _atom_site_symmetry_multiplicity
 _atom_site_fract_x
 _atom_site_fract_y
 _atom_site_fract_z
 _atom_site_occupancy
  Hf  Hf0  2  0.00000000  0.25000000  0.87404000  1.0
  Hf  Hf1  2  0.00000000  0.25059000  0.04639000  1.0
  Hf  Hf2  1  0.50000000  0.00000000  0.12722000  1.0
  Hf  Hf3  1  0.50000000  0.00000000  0.95801000  1.0
  Hf  Hf4  1  0.50000000  0.50000000  0.12638000  1.0
  Hf  Hf5  1  0.50000000  0.50000000  0.95801000  1.0
  In  In6  2  0.50000000  0.24919000  0.04256000  1.0
  In  In7  2  0.50000000  0.25000000  0.87404000  1.0
  In  In8  1  0.00000000  0.00000000  0.13923000  1.0
  In  In9  1  0.00000000  0.00000000  0.95801000  1.0
  In  In10  1  0.00000000  0.50000000  0.13997000  1.0
  In  In11  1  0.00000000  0.50000000  0.95801000  1.0
  Cu  Cu12  4  0.25000000  0.25000000  0.95801000  1.0
  Cu  Cu13  4  0.26357000  0.25081000  0.13143000  1.0
  Cu  Cu14  2  0.23912000  0.00000000  0.04423000  1.0
  Cu  Cu15  2  0.24340000  0.50000000  0.04522000  1.0
  Cu  Cu16  2  0.25000000  0.00000000  0.87404000  1.0
  Cu  Cu17  2  0.25000000  0.50000000  0.87404000  1.0
  C  C18  1  0.50000000  0.00000000  0.20977000  1.0
  O  O19  1  0.50000000  0.00000000  0.25294000  1.0
