# generated using pymatgen
data_FePt
_symmetry_space_group_name_H-M   'P 1'
_cell_length_a   3.76390000
_cell_length_b   3.90973500
_cell_length_c   25.86460000
_cell_angle_alpha   90.00000000
_cell_angle_beta   90.00000000
_cell_angle_gamma   90.00000000
_symmetry_Int_Tables_number   1
_chemical_formula_structural   FePt
_chemical_formula_sum   'Fe4 Pt4'
_cell_volume   380.61961443
_cell_formula_units_Z   4
loop_
 _symmetry_equiv_pos_site_id
 _symmetry_equiv_pos_as_xyz
  1  'x, y, z'
loop_
 _atom_site_type_symbol
 _atom_site_label
 _atom_site_symmetry_multiplicity
 _atom_site_fract_x
 _atom_site_fract_y
 _atom_site_fract_z
 _atom_site_occupancy
  Fe  Fe0  1  0.00000000  0.75000000  0.88663000  1.0
  Fe  Fe1  1  0.00000000  0.25000000  0.96221000  1.0
  Fe  Fe2  1  0.00000000  0.75000000  0.03779000  1.0
  Fe  Fe3  1  0.00000000  0.25000000  0.11337000  1.0
  Pt  Pt4  1  0.50000000  0.25000000  0.88663000  1.0
  Pt  Pt5  1  0.50000000  0.75000000  0.96221000  1.0
  Pt  Pt6  1  0.50000000  0.25000000  0.03779000  1.0
  Pt  Pt7  1  0.50000000  0.75000000  0.11337000  1.0
