data_image0
_chemical_formula_structural       FePtFePtFePtFePtFePtFePtFePtFePtFePtFePtFePtFePtFePtFePtFePtFePt
_chemical_formula_sum              "Fe16 Pt16"
_cell_length_a       7.81947
_cell_length_b       7.5278
_cell_length_c       25.8646
_cell_angle_alpha    90
_cell_angle_beta     90
_cell_angle_gamma    90

_space_group_name_H-M_alt    "P 1"
_space_group_IT_number       1

loop_
  _space_group_symop_operation_xyz
  'x, y, z'

loop_
  _atom_site_type_symbol
  _atom_site_label
  _atom_site_symmetry_multiplicity
  _atom_site_fract_x
  _atom_site_fract_y
  _atom_site_fract_z
  _atom_site_occupancy
  Fe  Fe1       1.0  0.00000  0.00000  0.88663  1.0000
  Pt  Pt1       1.0  0.25000  0.25000  0.88663  1.0000
  Fe  Fe2       1.0  0.25000  0.00000  0.96221  1.0000
  Pt  Pt2       1.0  0.00000  0.25000  0.96221  1.0000
  Fe  Fe3       1.0  0.00000  0.00000  0.03779  1.0000
  Pt  Pt3       1.0  0.25000  0.25000  0.03779  1.0000
  Fe  Fe4       1.0  0.25000  0.00000  0.11337  1.0000
  Pt  Pt4       1.0  0.00000  0.25000  0.11337  1.0000
  Fe  Fe5       1.0  0.00000  0.50000  0.88663  1.0000
  Pt  Pt5       1.0  0.25000  0.75000  0.88663  1.0000
  Fe  Fe6       1.0  0.25000  0.50000  0.96221  1.0000
  Pt  Pt6       1.0  0.00000  0.75000  0.96221  1.0000
  Fe  Fe7       1.0  0.00000  0.50000  0.03779  1.0000
  Pt  Pt7       1.0  0.25000  0.75000  0.03779  1.0000
  Fe  Fe8       1.0  0.25000  0.50000  0.11337  1.0000
  Pt  Pt8       1.0  0.00000  0.75000  0.11337  1.0000
  Fe  Fe9       1.0  0.50000  0.00000  0.88663  1.0000
  Pt  Pt9       1.0  0.75000  0.25000  0.88663  1.0000
  Fe  Fe10      1.0  0.75000  0.00000  0.96221  1.0000
  Pt  Pt10      1.0  0.50000  0.25000  0.96221  1.0000
  Fe  Fe11      1.0  0.50000  0.00000  0.03779  1.0000
  Pt  Pt11      1.0  0.75000  0.25000  0.03779  1.0000
  Fe  Fe12      1.0  0.75000  0.00000  0.11337  1.0000
  Pt  Pt12      1.0  0.50000  0.25000  0.11337  1.0000
  Fe  Fe13      1.0  0.50000  0.50000  0.88663  1.0000
  Pt  Pt13      1.0  0.75000  0.75000  0.88663  1.0000
  Fe  Fe14      1.0  0.75000  0.50000  0.96221  1.0000
  Pt  Pt14      1.0  0.50000  0.75000  0.96221  1.0000
  Fe  Fe15      1.0  0.50000  0.50000  0.03779  1.0000
  Pt  Pt15      1.0  0.75000  0.75000  0.03779  1.0000
  Fe  Fe16      1.0  0.75000  0.50000  0.11337  1.0000
  Pt  Pt16      1.0  0.50000  0.75000  0.11337  1.0000
