# generated using pymatgen
data_Li8Ag8Sn8Pd8C
_symmetry_space_group_name_H-M   Pm
_cell_length_a   6.55175000
_cell_length_b   9.26558000
_cell_length_c   26.94920000
_cell_angle_alpha   90.00000000
_cell_angle_beta   90.00000000
_cell_angle_gamma   90.00000000
_symmetry_Int_Tables_number   6
_chemical_formula_structural   Li8Ag8Sn8Pd8C
_chemical_formula_sum   'Li8 Ag8 Sn8 Pd8 C1'
_cell_volume   1635.97176886
_cell_formula_units_Z   1
loop_
 _symmetry_equiv_pos_site_id
 _symmetry_equiv_pos_as_xyz
  1  'x, y, z'
  2  'x, -y, z'
loop_
 _atom_site_type_symbol
 _atom_site_label
 _atom_site_symmetry_multiplicity
 _atom_site_fract_x
 _atom_site_fract_y
 _atom_site_fract_z
 _atom_site_occupancy
  Li  Li0  2  0.23597000  0.26134000  0.13112000  1.0
  Li  Li1  2  0.25000000  0.25000000  0.95702000  1.0
  Li  Li2  1  0.73774000  0.00000000  0.04690000  1.0
  Li  Li3  1  0.74483000  0.50000000  0.03879000  1.0
  Li  Li4  1  0.75000000  0.00000000  0.87107000  1.0
  Li  Li5  1  0.75000000  0.50000000  0.87107000  1.0
  Ag  Ag6  2  0.00000000  0.25000000  0.87107000  1.0
  Ag  Ag7  2  0.97789000  0.25027000  0.04845000  1.0
  Ag  Ag8  1  0.45207000  0.00000000  0.12709000  1.0
  Ag  Ag9  1  0.50000000  0.00000000  0.95702000  1.0
  Ag  Ag10  1  0.50000000  0.50000000  0.95702000  1.0
  Ag  Ag11  1  0.51205000  0.50000000  0.12617000  1.0
  Sn  Sn12  2  0.75000000  0.25000000  0.95702000  1.0
  Sn  Sn13  2  0.75988000  0.24315000  0.14769000  1.0
  Sn  Sn14  1  0.24651000  0.50000000  0.04281000  1.0
  Sn  Sn15  1  0.25000000  0.00000000  0.87107000  1.0
  Sn  Sn16  1  0.25000000  0.50000000  0.87107000  1.0
  Sn  Sn17  1  0.25425000  0.00000000  0.03679000  1.0
  Pd  Pd18  2  0.50000000  0.25000000  0.87107000  1.0
  Pd  Pd19  2  0.50594000  0.25450000  0.05051000  1.0
  Pd  Pd20  1  0.00000000  0.00000000  0.95702000  1.0
  Pd  Pd21  1  0.00000000  0.50000000  0.95702000  1.0
  Pd  Pd22  1  0.02861000  0.00000000  0.11823000  1.0
  Pd  Pd23  1  0.97611000  0.50000000  0.12018000  1.0
  C  C24  1  0.76116000  0.00000000  0.15365000  1.0
