data_image0
_chemical_formula_structural       GaFe3GaFe3GaFe3GaFe3C
_chemical_formula_sum              "Ga4 Fe12 C1"
_cell_length_a       7.33747
_cell_length_b       5.18838
_cell_length_c       23.8913
_cell_angle_alpha    90
_cell_angle_beta     90
_cell_angle_gamma    90

_space_group_name_H-M_alt    "P 1"
_space_group_IT_number       1

loop_
  _space_group_symop_operation_xyz
  'x, y, z'

loop_
  _atom_site_type_symbol
  _atom_site_label
  _atom_site_symmetry_multiplicity
  _atom_site_fract_x
  _atom_site_fract_y
  _atom_site_fract_z
  _atom_site_occupancy
  Ga  Ga1       1.0  0.00000  0.00000  0.91856  1.0000
  Fe  Fe1       1.0  0.00000  0.50000  0.91856  1.0000
  Fe  Fe2       1.0  0.25000  0.75000  0.97285  1.0000
  Fe  Fe3       1.0  0.25000  0.25000  0.97285  1.0000
  Ga  Ga2       1.0  0.00000  0.50000  0.02715  1.0000
  Fe  Fe4       1.0  0.00000  0.00000  0.02715  1.0000
  Fe  Fe5       1.0  0.25000  0.25000  0.08144  1.0000
  Fe  Fe6       1.0  0.25000  0.75000  0.08144  1.0000
  Ga  Ga3       1.0  0.50000  0.00000  0.91856  1.0000
  Fe  Fe7       1.0  0.50000  0.50000  0.91856  1.0000
  Fe  Fe8       1.0  0.75000  0.75000  0.97285  1.0000
  Fe  Fe9       1.0  0.75000  0.25000  0.97285  1.0000
  Ga  Ga4       1.0  0.50000  0.50000  0.02715  1.0000
  Fe  Fe10      1.0  0.50000  0.00000  0.02715  1.0000
  Fe  Fe11      1.0  0.75000  0.25000  0.08144  1.0000
  Fe  Fe12      1.0  0.75000  0.75000  0.08144  1.0000
  C   C1        1.0  0.00000  0.50000  0.11492  1.0000
