# generated using pymatgen
data_Li8In16Rh8CO
_symmetry_space_group_name_H-M   'P 1'
_cell_length_a   9.30439000
_cell_length_b   6.57920000
_cell_length_c   26.97830000
_cell_angle_alpha   90.00000000
_cell_angle_beta   90.00000000
_cell_angle_gamma   90.00000000
_symmetry_Int_Tables_number   1
_chemical_formula_structural   Li8In16Rh8CO
_chemical_formula_sum   'Li8 In16 Rh8 C1 O1'
_cell_volume   1651.48857747
_cell_formula_units_Z   1
loop_
 _symmetry_equiv_pos_site_id
 _symmetry_equiv_pos_as_xyz
  1  'x, y, z'
loop_
 _atom_site_type_symbol
 _atom_site_label
 _atom_site_symmetry_multiplicity
 _atom_site_fract_x
 _atom_site_fract_y
 _atom_site_fract_z
 _atom_site_occupancy
  Li  Li0  1  0.00000000  0.00000000  0.12933000  1.0
  Li  Li1  1  0.25000000  0.50000000  0.04311000  1.0
  Li  Li2  1  0.75000000  0.50000000  0.04311000  1.0
  Li  Li3  1  0.50000000  0.00000000  0.12933000  1.0
  Li  Li4  1  0.50000000  0.99971000  0.95557000  1.0
  Li  Li5  1  0.74952000  0.49632000  0.86337000  1.0
  Li  Li6  1  0.25048000  0.49632000  0.86337000  1.0
  Li  Li7  1  0.00000000  0.99779000  0.95744000  1.0
  In  In8  1  0.00000000  0.25000000  0.04311000  1.0
  In  In9  1  0.50000000  0.75000000  0.04311000  1.0
  In  In10  1  0.00000000  0.75000000  0.04311000  1.0
  In  In11  1  0.50000000  0.25000000  0.04311000  1.0
  In  In12  1  0.75000000  0.75000000  0.12933000  1.0
  In  In13  1  0.25000000  0.25000000  0.12933000  1.0
  In  In14  1  0.75000000  0.25000000  0.12933000  1.0
  In  In15  1  0.25000000  0.75000000  0.12933000  1.0
  In  In16  1  0.50000000  0.23963000  0.86325000  1.0
  In  In17  1  0.00000000  0.75838000  0.86537000  1.0
  In  In18  1  0.50000000  0.75556000  0.86486000  1.0
  In  In19  1  0.00000000  0.23930000  0.86677000  1.0
  In  In20  1  0.25062000  0.74332000  0.95631000  1.0
  In  In21  1  0.74899000  0.25542000  0.95652000  1.0
  In  In22  1  0.25101000  0.25542000  0.95652000  1.0
  In  In23  1  0.74938000  0.74332000  0.95631000  1.0
  Rh  Rh24  1  0.75000000  0.00000000  0.04311000  1.0
  Rh  Rh25  1  0.00000000  0.50000000  0.12933000  1.0
  Rh  Rh26  1  0.25000000  0.00000000  0.04311000  1.0
  Rh  Rh27  1  0.50000000  0.50000000  0.12933000  1.0
  Rh  Rh28  1  0.24980000  0.99860000  0.87728000  1.0
  Rh  Rh29  1  0.50000000  0.49972000  0.95963000  1.0
  Rh  Rh30  1  0.75020000  0.99860000  0.87728000  1.0
  Rh  Rh31  1  0.00000000  0.49852000  0.95931000  1.0
  C  C32  1  0.00000000  0.36741000  0.72525000  1.0
  O  O33  1  0.00000000  0.22919000  0.69990000  1.0
