# generated using pymatgen
data_Li8In16Rh8CO
_symmetry_space_group_name_H-M   Pm
_cell_length_a   6.57920000
_cell_length_b   9.30439000
_cell_length_c   26.97830000
_cell_angle_alpha   90.00000000
_cell_angle_beta   90.00000000
_cell_angle_gamma   90.00000000
_symmetry_Int_Tables_number   6
_chemical_formula_structural   Li8In16Rh8CO
_chemical_formula_sum   'Li8 In16 Rh8 C1 O1'
_cell_volume   1651.48857747
_cell_formula_units_Z   1
loop_
 _symmetry_equiv_pos_site_id
 _symmetry_equiv_pos_as_xyz
  1  'x, y, z'
  2  'x, -y, z'
loop_
 _atom_site_type_symbol
 _atom_site_label
 _atom_site_symmetry_multiplicity
 _atom_site_fract_x
 _atom_site_fract_y
 _atom_site_fract_z
 _atom_site_occupancy
  Li  Li0  2  0.49632000  0.25048000  0.13663000  1.0
  Li  Li1  2  0.50000000  0.25000000  0.95689000  1.0
  Li  Li2  1  0.00000000  0.00000000  0.87067000  1.0
  Li  Li3  1  0.00000000  0.50000000  0.87067000  1.0
  Li  Li4  1  0.99779000  0.00000000  0.04256000  1.0
  Li  Li5  1  0.99971000  0.50000000  0.04443000  1.0
  In  In6  2  0.25000000  0.25000000  0.87067000  1.0
  In  In7  2  0.25542000  0.25101000  0.04348000  1.0
  In  In8  2  0.74332000  0.25062000  0.04369000  1.0
  In  In9  2  0.75000000  0.25000000  0.87067000  1.0
  In  In10  1  0.23930000  0.00000000  0.13323000  1.0
  In  In11  1  0.23963000  0.50000000  0.13675000  1.0
  In  In12  1  0.25000000  0.00000000  0.95689000  1.0
  In  In13  1  0.25000000  0.50000000  0.95689000  1.0
  In  In14  1  0.75000000  0.00000000  0.95689000  1.0
  In  In15  1  0.75000000  0.50000000  0.95689000  1.0
  In  In16  1  0.75556000  0.50000000  0.13514000  1.0
  In  In17  1  0.75838000  0.00000000  0.13463000  1.0
  Rh  Rh18  2  0.00000000  0.25000000  0.95689000  1.0
  Rh  Rh19  2  0.99860000  0.24980000  0.12272000  1.0
  Rh  Rh20  1  0.49852000  0.00000000  0.04069000  1.0
  Rh  Rh21  1  0.49972000  0.50000000  0.04037000  1.0
  Rh  Rh22  1  0.50000000  0.00000000  0.87067000  1.0
  Rh  Rh23  1  0.50000000  0.50000000  0.87067000  1.0
  C  C24  1  0.36741000  0.00000000  0.27475000  1.0
  O  O25  1  0.22919000  0.00000000  0.30010000  1.0
