data_image0
_chemical_formula_structural       Li8Sc8Al8Pd8CO
_chemical_formula_sum              "Li8 Sc8 Al8 Pd8 C1 O1"
_cell_length_a       6.37868
_cell_length_b       9.02082
_cell_length_c       26.7656
_cell_angle_alpha    90
_cell_angle_beta     90
_cell_angle_gamma    90

_space_group_name_H-M_alt    "P 1"
_space_group_IT_number       1

loop_
  _space_group_symop_operation_xyz
  'x, y, z'

loop_
  _atom_site_type_symbol
  _atom_site_label
  _atom_site_symmetry_multiplicity
  _atom_site_fract_x
  _atom_site_fract_y
  _atom_site_fract_z
  _atom_site_occupancy
  Li  Li1       1.0  0.75000  0.00000  0.95787  1.0000
  Li  Li2       1.0  0.75000  0.50000  0.95787  1.0000
  Li  Li3       1.0  0.25000  0.25000  0.87361  1.0000
  Li  Li4       1.0  0.25000  0.75000  0.87361  1.0000
  Li  Li5       1.0  0.58560  0.50001  0.17405  1.0000
  Li  Li6       1.0  0.56398  0.00001  0.18571  1.0000
  Li  Li7       1.0  0.23716  0.74969  0.04215  1.0000
  Li  Li8       1.0  0.23714  0.25032  0.04215  1.0000
  Sc  Sc1       1.0  0.00000  0.25000  0.95787  1.0000
  Sc  Sc2       1.0  0.00000  0.75000  0.95787  1.0000
  Sc  Sc3       1.0  0.50000  0.50000  0.87361  1.0000
  Sc  Sc4       1.0  0.50000  0.00000  0.87361  1.0000
  Sc  Sc5       1.0  0.95023  0.74595  0.12630  1.0000
  Sc  Sc6       1.0  0.95020  0.25401  0.12630  1.0000
  Sc  Sc7       1.0  0.50848  0.00001  0.04639  1.0000
  Sc  Sc8       1.0  0.51844  0.50000  0.04936  1.0000
  Al  Al1       1.0  0.00000  0.00000  0.87361  1.0000
  Al  Al2       1.0  0.00000  0.50000  0.87361  1.0000
  Al  Al3       1.0  0.50000  0.75000  0.95787  1.0000
  Al  Al4       1.0  0.50000  0.25000  0.95787  1.0000
  Al  Al5       1.0  0.99672  0.50000  0.04094  1.0000
  Al  Al6       1.0  0.99991  1.00000  0.04204  1.0000
  Al  Al7       1.0  0.46365  0.24685  0.12236  1.0000
  Al  Al8       1.0  0.46368  0.75315  0.12235  1.0000
  Pd  Pd1       1.0  0.25000  0.00000  0.95787  1.0000
  Pd  Pd2       1.0  0.25000  0.50000  0.95787  1.0000
  Pd  Pd3       1.0  0.75000  0.25000  0.87361  1.0000
  Pd  Pd4       1.0  0.75000  0.75000  0.87361  1.0000
  Pd  Pd5       1.0  0.22896  0.49998  0.11954  1.0000
  Pd  Pd6       1.0  0.23644  0.99999  0.12596  1.0000
  Pd  Pd7       1.0  0.75038  0.75262  0.03949  1.0000
  Pd  Pd8       1.0  0.75040  0.24738  0.03950  1.0000
  C   C1        1.0  0.01692  0.00000  0.17608  1.0000
  O   O1        1.0  0.85238  0.00007  0.19918  1.0000
