# generated using pymatgen
data_Ti16HCO
_symmetry_space_group_name_H-M   Pm
_cell_length_a   6.51708000
_cell_length_b   6.51708000
_cell_length_c   24.88780000
_cell_angle_alpha   90.00000000
_cell_angle_beta   90.00000000
_cell_angle_gamma   90.00000000
_symmetry_Int_Tables_number   6
_chemical_formula_structural   Ti16HCO
_chemical_formula_sum   'Ti16 H1 C1 O1'
_cell_volume   1057.04289754
_cell_formula_units_Z   1
loop_
 _symmetry_equiv_pos_site_id
 _symmetry_equiv_pos_as_xyz
  1  'x, y, z'
  2  'x, -y, z'
loop_
 _atom_site_type_symbol
 _atom_site_label
 _atom_site_symmetry_multiplicity
 _atom_site_fract_x
 _atom_site_fract_y
 _atom_site_fract_z
 _atom_site_occupancy
  Ti  Ti0  2  0.25000000  0.24998000  0.96727000  1.0
  Ti  Ti1  2  0.25648000  0.25852000  0.09139000  1.0
  Ti  Ti2  2  0.75000000  0.24998000  0.96727000  1.0
  Ti  Ti3  2  0.77024000  0.25274000  0.08958000  1.0
  Ti  Ti4  1  -0.00000000  0.00000000  0.90180000  1.0
  Ti  Ti5  1  0.00000000  0.50000000  0.90180000  1.0
  Ti  Ti6  1  0.00044000  0.50000000  0.02358000  1.0
  Ti  Ti7  1  0.01463000  0.00000000  0.02622000  1.0
  Ti  Ti8  1  0.48441000  0.00000000  0.02891000  1.0
  Ti  Ti9  1  0.50000000  0.00000000  0.90180000  1.0
  Ti  Ti10  1  0.50000000  0.50000000  0.90180000  1.0
  Ti  Ti11  1  0.51116000  0.50000000  0.02715000  1.0
  H  H12  1  0.99373000  0.50000000  0.18813000  1.0
  C  C13  1  0.03057000  0.50000000  0.10677000  1.0
  O  O14  1  0.89773000  0.50000000  0.15804000  1.0
