# generated using pymatgen
data_Li4Sc4In4Ga4CO
_symmetry_space_group_name_H-M   'P 1'
_cell_length_a   6.09788000
_cell_length_b   8.23116000
_cell_length_c   24.56590000
_cell_angle_alpha   90.00000000
_cell_angle_beta   90.00000000
_cell_angle_gamma   90.00000000
_symmetry_Int_Tables_number   1
_chemical_formula_structural   Li4Sc4In4Ga4CO
_chemical_formula_sum   'Li4 Sc4 In4 Ga4 C1 O1'
_cell_volume   1233.02702960
_cell_formula_units_Z   1
loop_
 _symmetry_equiv_pos_site_id
 _symmetry_equiv_pos_as_xyz
  1  'x, y, z'
loop_
 _atom_site_type_symbol
 _atom_site_label
 _atom_site_symmetry_multiplicity
 _atom_site_fract_x
 _atom_site_fract_y
 _atom_site_fract_z
 _atom_site_occupancy
  Li  Li0  1  0.50000000  0.00000000  0.09293000  1.0
  Li  Li1  1  0.06127000  0.00028000  0.96767000  1.0
  Li  Li2  1  0.50000000  0.50000000  0.09293000  1.0
  Li  Li3  1  0.06133000  0.49971000  0.96769000  1.0
  Sc  Sc4  1  0.76431000  0.75000000  0.03098000  1.0
  Sc  Sc5  1  0.36016000  0.74995000  0.90553000  1.0
  Sc  Sc6  1  0.76431000  0.25000000  0.03098000  1.0
  Sc  Sc7  1  0.36893000  0.24999000  0.90452000  1.0
  In  In8  1  0.26431000  0.75000000  0.03098000  1.0
  In  In9  1  0.84963000  0.74990000  0.89460000  1.0
  In  In10  1  0.26431000  0.25000000  0.03098000  1.0
  In  In11  1  0.85748000  0.25006000  0.89558000  1.0
  Ga  Ga12  1  0.00000000  0.00000000  0.09293000  1.0
  Ga  Ga13  1  0.57003000  0.00100000  0.96545000  1.0
  Ga  Ga14  1  0.00000000  0.50000000  0.09293000  1.0
  Ga  Ga15  1  0.56994000  0.49895000  0.96548000  1.0
  C  C16  1  0.31386000  0.75002000  0.81271000  1.0
  O  O17  1  0.29124000  0.75004000  0.76621000  1.0
