# generated using pymatgen
data_LiInGeAu
_symmetry_space_group_name_H-M   Pm
_cell_length_a   6.02588000
_cell_length_b   4.19735000
_cell_length_c   24.51900000
_cell_angle_alpha   90.00000000
_cell_angle_beta   90.00000000
_cell_angle_gamma   90.00000000
_symmetry_Int_Tables_number   6
_chemical_formula_structural   LiInGeAu
_chemical_formula_sum   'Li2 In2 Ge2 Au2'
_cell_volume   620.15238356
_cell_formula_units_Z   2
loop_
 _symmetry_equiv_pos_site_id
 _symmetry_equiv_pos_as_xyz
  1  'x, y, z'
  2  'x, -y, z'
loop_
 _atom_site_type_symbol
 _atom_site_label
 _atom_site_symmetry_multiplicity
 _atom_site_fract_x
 _atom_site_fract_y
 _atom_site_fract_z
 _atom_site_occupancy
  Li  Li0  1  0.24670000  0.50000000  0.96928000  1.0
  Li  Li1  1  0.74275000  0.50000000  0.08858000  1.0
  In  In2  1  0.23967000  0.50000000  0.09830000  1.0
  In  In3  1  0.74670000  0.50000000  0.96928000  1.0
  Ge  Ge4  1  0.50000000  0.00000000  0.90785000  1.0
  Ge  Ge5  1  0.98108500  0.00000000  0.03264000  1.0
  Au  Au6  1  0.00000000  0.00000000  0.90785000  1.0
  Au  Au7  1  0.48494000  0.00000000  0.03301000  1.0
