# generated using pymatgen
data_Li16In8Pd8C
_symmetry_space_group_name_H-M   'P 1'
_cell_length_a   9.14213000
_cell_length_b   6.46446000
_cell_length_c   26.85660000
_cell_angle_alpha   90.00000000
_cell_angle_beta   90.00000000
_cell_angle_gamma   90.00000000
_symmetry_Int_Tables_number   1
_chemical_formula_structural   Li16In8Pd8C
_chemical_formula_sum   'Li16 In8 Pd8 C1'
_cell_volume   1587.19642280
_cell_formula_units_Z   1
loop_
 _symmetry_equiv_pos_site_id
 _symmetry_equiv_pos_as_xyz
  1  'x, y, z'
loop_
 _atom_site_type_symbol
 _atom_site_label
 _atom_site_symmetry_multiplicity
 _atom_site_fract_x
 _atom_site_fract_y
 _atom_site_fract_z
 _atom_site_occupancy
  Li  Li0  1  0.25001000  0.00000000  0.04255000  1.0
  Li  Li1  1  0.50000000  0.50000000  0.12765000  1.0
  Li  Li2  1  0.74999000  0.00000000  0.04255000  1.0
  Li  Li3  1  0.00000000  0.50000000  0.12765000  1.0
  Li  Li4  1  0.75001000  0.25000000  0.12765000  1.0
  Li  Li5  1  0.24999000  0.25000000  0.12765000  1.0
  Li  Li6  1  0.00000000  0.75000000  0.04255000  1.0
  Li  Li7  1  0.50000000  0.75000000  0.04255000  1.0
  Li  Li8  1  0.75893000  0.02056000  0.87628000  1.0
  Li  Li9  1  0.00000000  0.51442000  0.96406000  1.0
  Li  Li10  1  0.24107000  0.02056000  0.87628000  1.0
  Li  Li11  1  0.50000000  0.46796000  0.95084000  1.0
  Li  Li12  1  0.24433000  0.24690000  0.96198000  1.0
  Li  Li13  1  0.75567000  0.24690000  0.96198000  1.0
  Li  Li14  1  0.50000000  0.76849000  0.87318000  1.0
  Li  Li15  1  0.00000000  0.71944000  0.87645000  1.0
  In  In16  1  0.50000000  0.25000000  0.04255000  1.0
  In  In17  1  0.00000000  0.25000000  0.04255000  1.0
  In  In18  1  0.25001000  0.75000000  0.12765000  1.0
  In  In19  1  0.74999000  0.75000000  0.12765000  1.0
  In  In20  1  0.00000000  0.28289000  0.87856000  1.0
  In  In21  1  0.50000000  0.15691000  0.83497000  1.0
  In  In22  1  0.74557000  0.74970000  0.95762000  1.0
  In  In23  1  0.25443000  0.74970000  0.95762000  1.0
  Pd  Pd24  1  0.50000000  0.00000000  0.12765000  1.0
  Pd  Pd25  1  0.75001000  0.50000000  0.04255000  1.0
  Pd  Pd26  1  0.24999000  0.50000000  0.04255000  1.0
  Pd  Pd27  1  0.00000000  0.00000000  0.12765000  1.0
  Pd  Pd28  1  0.00000000  0.99327000  0.95557000  1.0
  Pd  Pd29  1  0.28288000  0.45812000  0.88187000  1.0
  Pd  Pd30  1  0.71712000  0.45812000  0.88187000  1.0
  Pd  Pd31  1  0.50000000  0.01548000  0.95573000  1.0
  C  C32  1  0.50000000  0.46165000  0.86927000  1.0
