# generated using pymatgen
data_Li16In8Pd8C
_symmetry_space_group_name_H-M   Pm
_cell_length_a   6.46446000
_cell_length_b   9.14213000
_cell_length_c   26.85660000
_cell_angle_alpha   90.00000000
_cell_angle_beta   90.00000000
_cell_angle_gamma   90.00000000
_symmetry_Int_Tables_number   6
_chemical_formula_structural   Li16In8Pd8C
_chemical_formula_sum   'Li16 In8 Pd8 C1'
_cell_volume   1587.19642280
_cell_formula_units_Z   1
loop_
 _symmetry_equiv_pos_site_id
 _symmetry_equiv_pos_as_xyz
  1  'x, y, z'
  2  'x, -y, z'
loop_
 _atom_site_type_symbol
 _atom_site_label
 _atom_site_symmetry_multiplicity
 _atom_site_fract_x
 _atom_site_fract_y
 _atom_site_fract_z
 _atom_site_occupancy
  Li  Li0  2  0.00000000  0.25001000  0.95745000  1.0
  Li  Li1  2  0.02056000  0.24107000  0.12372000  1.0
  Li  Li2  2  0.24690000  0.24433000  0.03802000  1.0
  Li  Li3  2  0.25000000  0.24999000  0.87235000  1.0
  Li  Li4  1  0.46796000  0.50000000  0.04916000  1.0
  Li  Li5  1  0.50000000  0.00000000  0.87235000  1.0
  Li  Li6  1  0.50000000  0.50000000  0.87235000  1.0
  Li  Li7  1  0.51442000  0.00000000  0.03594000  1.0
  Li  Li8  1  0.71944000  0.00000000  0.12355000  1.0
  Li  Li9  1  0.75000000  0.00000000  0.95745000  1.0
  Li  Li10  1  0.75000000  0.50000000  0.95745000  1.0
  Li  Li11  1  0.76849000  0.50000000  0.12682000  1.0
  In  In12  2  0.74970000  0.25443000  0.04238000  1.0
  In  In13  2  0.75000000  0.25001000  0.87235000  1.0
  In  In14  1  0.15691000  0.50000000  0.16503000  1.0
  In  In15  1  0.25000000  0.00000000  0.95745000  1.0
  In  In16  1  0.25000000  0.50000000  0.95745000  1.0
  In  In17  1  0.28289000  0.00000000  0.12144000  1.0
  Pd  Pd18  2  0.45812000  0.28288000  0.11813000  1.0
  Pd  Pd19  2  0.50000000  0.24999000  0.95745000  1.0
  Pd  Pd20  1  0.00000000  0.00000000  0.87235000  1.0
  Pd  Pd21  1  0.00000000  0.50000000  0.87235000  1.0
  Pd  Pd22  1  0.01548000  0.50000000  0.04427000  1.0
  Pd  Pd23  1  0.99327000  0.00000000  0.04443000  1.0
  C  C24  1  0.46165000  0.50000000  0.13073000  1.0
