# generated using pymatgen
data_Li4Mn4Ge4Pd4CO
_symmetry_space_group_name_H-M   'P 1'
_cell_length_a   6.14713000
_cell_length_b   6.14713000
_cell_length_c   24.61040000
_cell_angle_alpha   90.00000000
_cell_angle_beta   90.00000000
_cell_angle_gamma   90.00000000
_symmetry_Int_Tables_number   1
_chemical_formula_structural   Li4Mn4Ge4Pd4CO
_chemical_formula_sum   'Li4 Mn4 Ge4 Pd4 C1 O1'
_cell_volume   929.95828498
_cell_formula_units_Z   1
loop_
 _symmetry_equiv_pos_site_id
 _symmetry_equiv_pos_as_xyz
  1  'x, y, z'
loop_
 _atom_site_type_symbol
 _atom_site_label
 _atom_site_symmetry_multiplicity
 _atom_site_fract_x
 _atom_site_fract_y
 _atom_site_fract_z
 _atom_site_occupancy
  Li  Li0  1  0.50000000  0.50000000  0.10653000  1
  Li  Li1  1  0.00000000  0.50000000  0.96878000  1
  Li  Li2  1  0.50000000  0.00000000  0.96878000  1
  Li  Li3  1  0.00000000  0.00000000  0.10494000  1
  Mn  Mn4  1  0.74967500  0.74967500  0.03293000  1
  Mn  Mn5  1  0.25000000  0.75000000  0.90633000  1
  Mn  Mn6  1  0.75000000  0.25000000  0.90633000  1
  Mn  Mn7  1  0.25032500  0.25032500  0.03293000  1
  Ge  Ge8  1  0.00000000  0.50000000  0.08769000  1
  Ge  Ge9  1  0.50000000  0.50000000  0.96878000  1
  Ge  Ge10  1  0.00000000  0.00000000  0.96878000  1
  Ge  Ge11  1  0.50000000  0.00000000  0.08769000  1
  Pd  Pd12  1  0.74978500  0.25021500  0.03024000  1
  Pd  Pd13  1  0.25000000  0.25000000  0.90633000  1
  Pd  Pd14  1  0.75000000  0.75000000  0.90633000  1
  Pd  Pd15  1  0.25021500  0.74978500  0.03024000  1
  C  C16  1  0.50000000  0.50000000  0.19276000  1
  O  O17  1  0.50000000  0.50000000  0.23901000  1
