# generated using pymatgen
data_Li8Mn8Al8Pd8CO
_symmetry_space_group_name_H-M   'P 1'
_cell_length_a   8.62984000
_cell_length_b   6.10222000
_cell_length_c   26.47240000
_cell_angle_alpha   90.00000000
_cell_angle_beta   90.00000000
_cell_angle_gamma   90.00000000
_symmetry_Int_Tables_number   1
_chemical_formula_structural   Li8Mn8Al8Pd8CO
_chemical_formula_sum   'Li8 Mn8 Al8 Pd8 C1 O1'
_cell_volume   1394.06788086
_cell_formula_units_Z   1
loop_
 _symmetry_equiv_pos_site_id
 _symmetry_equiv_pos_as_xyz
  1  'x, y, z'
loop_
 _atom_site_type_symbol
 _atom_site_label
 _atom_site_symmetry_multiplicity
 _atom_site_fract_x
 _atom_site_fract_y
 _atom_site_fract_z
 _atom_site_occupancy
  Li  Li0  1  0.25000000  0.00000000  0.04075000  1.0
  Li  Li1  1  0.75000000  0.00000000  0.04075000  1.0
  Li  Li2  1  0.50000000  0.50000000  0.12225000  1.0
  Li  Li3  1  0.00000000  0.50000000  0.12225000  1.0
  Li  Li4  1  0.74215000  0.98351000  0.86626000  1.0
  Li  Li5  1  0.25785000  0.98351000  0.86626000  1.0
  Li  Li6  1  0.00000000  0.50086000  0.95927000  1.0
  Li  Li7  1  0.50000000  0.48951000  0.96329000  1.0
  Mn  Mn8  1  0.00000000  0.25000000  0.04075000  1.0
  Mn  Mn9  1  0.50000000  0.25000000  0.04075000  1.0
  Mn  Mn10  1  0.25000000  0.75000000  0.12225000  1.0
  Mn  Mn11  1  0.75000000  0.75000000  0.12225000  1.0
  Mn  Mn12  1  0.50000000  0.26285000  0.87904000  1.0
  Mn  Mn13  1  0.00000000  0.25402000  0.87956000  1.0
  Mn  Mn14  1  0.74988000  0.75220000  0.95797000  1.0
  Mn  Mn15  1  0.25012000  0.75220000  0.95797000  1.0
  Al  Al16  1  0.00000000  0.00000000  0.12225000  1.0
  Al  Al17  1  0.50000000  1.00000000  0.12225000  1.0
  Al  Al18  1  0.75000000  0.50000000  0.04075000  1.0
  Al  Al19  1  0.25000000  0.50000000  0.04075000  1.0
  Al  Al20  1  0.50000000  0.00385000  0.95962000  1.0
  Al  Al21  1  0.00000000  0.99747000  0.95989000  1.0
  Al  Al22  1  0.24884000  0.49802000  0.87740000  1.0
  Al  Al23  1  0.75116000  0.49802000  0.87740000  1.0
  Pd  Pd24  1  0.00000000  0.75000000  0.04075000  1.0
  Pd  Pd25  1  0.50000000  0.75000000  0.04075000  1.0
  Pd  Pd26  1  0.25000000  0.25000000  0.12225000  1.0
  Pd  Pd27  1  0.75000000  0.25000000  0.12225000  1.0
  Pd  Pd28  1  0.50000000  0.72689000  0.88723000  1.0
  Pd  Pd29  1  0.00000000  0.75014000  0.87682000  1.0
  Pd  Pd30  1  0.75301000  0.24301000  0.95935000  1.0
  Pd  Pd31  1  0.24699000  0.24301000  0.95935000  1.0
  C  C32  1  0.00000000  0.86565000  0.80775000  1.0
  O  O33  1  0.00000000  0.89972000  0.76461000  1.0
