# generated using pymatgen
data_Li8In8Cu8Au8CO
_symmetry_space_group_name_H-M   'P 1'
_cell_length_a   9.06686000
_cell_length_b   6.41124000
_cell_length_c   26.80010000
_cell_angle_alpha   90.00000000
_cell_angle_beta   90.00000000
_cell_angle_gamma   90.00000000
_symmetry_Int_Tables_number   1
_chemical_formula_structural   Li8In8Cu8Au8CO
_chemical_formula_sum   'Li8 In8 Cu8 Au8 C1 O1'
_cell_volume   1557.88486855
_cell_formula_units_Z   1
loop_
 _symmetry_equiv_pos_site_id
 _symmetry_equiv_pos_as_xyz
  1  'x, y, z'
loop_
 _atom_site_type_symbol
 _atom_site_label
 _atom_site_symmetry_multiplicity
 _atom_site_fract_x
 _atom_site_fract_y
 _atom_site_fract_z
 _atom_site_occupancy
  Li  Li0  1  0.75001000  0.75000000  0.04229000  1.0
  Li  Li1  1  0.24999000  0.75000000  0.04229000  1.0
  Li  Li2  1  0.00000000  0.25000000  0.12687000  1.0
  Li  Li3  1  0.50000000  0.25000000  0.12687000  1.0
  Li  Li4  1  0.25399000  0.73019000  0.86490000  1.0
  Li  Li5  1  0.74601000  0.73019000  0.86490000  1.0
  Li  Li6  1  0.50000000  0.22571000  0.95511000  1.0
  Li  Li7  1  0.00000000  0.24272000  0.95652000  1.0
  In  In8  1  0.00000000  1.00000000  0.04229000  1.0
  In  In9  1  0.50000000  1.00000000  0.04229000  1.0
  In  In10  1  0.25001000  0.50000000  0.12687000  1.0
  In  In11  1  0.74999000  0.50000000  0.12687000  1.0
  In  In12  1  0.50000000  0.01718000  0.85518000  1.0
  In  In13  1  0.00000000  0.00214000  0.86279000  1.0
  In  In14  1  0.74557000  0.50541000  0.95818000  1.0
  In  In15  1  0.25443000  0.50541000  0.95818000  1.0
  Cu  Cu16  1  0.75001000  0.25000000  0.04229000  1.0
  Cu  Cu17  1  0.24999000  0.25000000  0.04229000  1.0
  Cu  Cu18  1  0.00000000  0.75000000  0.12687000  1.0
  Cu  Cu19  1  0.50000000  0.75000000  0.12687000  1.0
  Cu  Cu20  1  0.24789000  0.23964000  0.87658000  1.0
  Cu  Cu21  1  0.75211000  0.23964000  0.87658000  1.0
  Cu  Cu22  1  0.50000000  0.76943000  0.95351000  1.0
  Cu  Cu23  1  0.00000000  0.75424000  0.95681000  1.0
  Au  Au24  1  0.75001000  0.00000000  0.12687000  1.0
  Au  Au25  1  0.24999000  0.00000000  0.12687000  1.0
  Au  Au26  1  0.50000000  0.50000000  0.04229000  1.0
  Au  Au27  1  0.00000000  0.50000000  0.04229000  1.0
  Au  Au28  1  0.24724000  0.99136000  0.95835000  1.0
  Au  Au29  1  0.75276000  0.99136000  0.95835000  1.0
  Au  Au30  1  0.00000000  0.49156000  0.87765000  1.0
  Au  Au31  1  0.50000000  0.48418000  0.87813000  1.0
  C  C32  1  0.00000000  0.90431000  0.72565000  1.0
  O  O33  1  0.00000000  0.05219000  0.70231000  1.0
