# generated using pymatgen
data_Mn8Al8Fe16CO
_symmetry_space_group_name_H-M   'P 1'
_cell_length_a   8.20054000
_cell_length_b   5.79866000
_cell_length_c   26.15040000
_cell_angle_alpha   90.00000000
_cell_angle_beta   90.00000000
_cell_angle_gamma   90.00000000
_symmetry_Int_Tables_number   1
_chemical_formula_structural   Mn8Al8Fe16CO
_chemical_formula_sum   'Mn8 Al8 Fe16 C1 O1'
_cell_volume   1243.50756754
_cell_formula_units_Z   1
loop_
 _symmetry_equiv_pos_site_id
 _symmetry_equiv_pos_as_xyz
  1  'x, y, z'
loop_
 _atom_site_type_symbol
 _atom_site_label
 _atom_site_symmetry_multiplicity
 _atom_site_fract_x
 _atom_site_fract_y
 _atom_site_fract_z
 _atom_site_occupancy
  Mn  Mn0  1  0.00000000  0.00000000  0.11760000  1.0
  Mn  Mn1  1  0.25000000  0.50000000  0.03920000  1.0
  Mn  Mn2  1  0.75000000  0.50000000  0.03920000  1.0
  Mn  Mn3  1  0.50000000  0.00000000  0.11760000  1.0
  Mn  Mn4  1  0.50000000  0.00152000  0.96012000  1.0
  Mn  Mn5  1  0.75520000  0.49385000  0.88207000  1.0
  Mn  Mn6  1  0.24480000  0.49385000  0.88207000  1.0
  Mn  Mn7  1  0.00000000  0.00111000  0.96001000  1.0
  Al  Al8  1  0.75000000  0.00000000  0.03920000  1.0
  Al  Al9  1  0.00000000  0.50000000  0.11760000  1.0
  Al  Al10  1  0.25000000  0.00000000  0.03920000  1.0
  Al  Al11  1  0.50000000  0.50000000  0.11760000  1.0
  Al  Al12  1  0.24667000  0.00474000  0.88219000  1.0
  Al  Al13  1  0.50000000  0.50045000  0.96197000  1.0
  Al  Al14  1  0.75333000  0.00474000  0.88219000  1.0
  Al  Al15  1  0.00000000  0.49453000  0.96091000  1.0
  Fe  Fe16  1  0.00000000  0.25000000  0.03920000  1.0
  Fe  Fe17  1  0.50000000  0.75000000  0.03920000  1.0
  Fe  Fe18  1  0.00000000  0.75000000  0.03920000  1.0
  Fe  Fe19  1  0.50000000  0.25000000  0.03920000  1.0
  Fe  Fe20  1  0.75000000  0.75000000  0.11760000  1.0
  Fe  Fe21  1  0.25000000  0.25000000  0.11760000  1.0
  Fe  Fe22  1  0.75000000  0.25000000  0.11760000  1.0
  Fe  Fe23  1  0.25000000  0.75000000  0.11760000  1.0
  Fe  Fe24  1  0.50000000  0.25316000  0.88188000  1.0
  Fe  Fe25  1  0.00000000  0.75452000  0.88218000  1.0
  Fe  Fe26  1  0.50000000  0.75183000  0.88226000  1.0
  Fe  Fe27  1  0.00000000  0.24452000  0.88008000  1.0
  Fe  Fe28  1  0.24778000  0.75184000  0.96035000  1.0
  Fe  Fe29  1  0.74938000  0.24722000  0.96146000  1.0
  Fe  Fe30  1  0.25062000  0.24722000  0.96146000  1.0
  Fe  Fe31  1  0.75222000  0.75184000  0.96035000  1.0
  C  C32  1  0.00000000  0.25795000  0.81263000  1.0
  O  O33  1  0.00000000  0.24987000  0.76807000  1.0
