# generated using pymatgen
data_Li8Bi4Au4C
_symmetry_space_group_name_H-M   'P 1'
_cell_length_a   6.87958000
_cell_length_b   6.87958000
_cell_length_c   25.15970000
_cell_angle_alpha   90.00000000
_cell_angle_beta   90.00000000
_cell_angle_gamma   90.00000000
_symmetry_Int_Tables_number   1
_chemical_formula_structural   Li8Bi4Au4C
_chemical_formula_sum   'Li8 Bi4 Au4 C1'
_cell_volume   1190.77390518
_cell_formula_units_Z   1
loop_
 _symmetry_equiv_pos_site_id
 _symmetry_equiv_pos_as_xyz
  1  'x, y, z'
loop_
 _atom_site_type_symbol
 _atom_site_label
 _atom_site_symmetry_multiplicity
 _atom_site_fract_x
 _atom_site_fract_y
 _atom_site_fract_z
 _atom_site_occupancy
  Li  Li0  1  0.00000000  0.50000000  0.96819000  1
  Li  Li1  1  0.50000000  0.50000000  0.10254000  1
  Li  Li2  1  0.00000000  0.00000000  0.10254000  1
  Li  Li3  1  0.50000000  1.00000000  0.96819000  1
  Li  Li4  1  0.21591000  0.21591000  0.87007000  1
  Li  Li5  1  0.25000000  0.75000000  0.03418000  1
  Li  Li6  1  0.78408000  0.78408000  0.87007000  1
  Li  Li7  1  0.75000000  0.25000000  0.03418000  1
  Bi  Bi8  1  0.00000000  0.50000000  0.10254000  1
  Bi  Bi9  1  0.50000000  1.00000000  0.10254000  1
  Bi  Bi10  1  0.49999000  0.49999000  0.94154000  1
  Bi  Bi11  1  0.00004500  0.00004500  0.97389000  1
  Au  Au12  1  0.25000000  0.25000000  0.03418000  1
  Au  Au13  1  0.22489000  0.77510000  0.89176000  1
  Au  Au14  1  0.75000000  0.75000000  0.03418000  1
  Au  Au15  1  0.77510000  0.22489000  0.89176000  1
  C  C16  1  0.99998000  0.99998000  0.87678000  1
