# generated using pymatgen
data_Mn8Al8Co16C
_symmetry_space_group_name_H-M   'P 1'
_cell_length_a   8.07854000
_cell_length_b   5.71239000
_cell_length_c   26.05890000
_cell_angle_alpha   90.00000000
_cell_angle_beta   90.00000000
_cell_angle_gamma   90.00000000
_symmetry_Int_Tables_number   1
_chemical_formula_structural   Mn8Al8Co16C
_chemical_formula_sum   'Mn8 Al8 Co16 C1'
_cell_volume   1202.56015259
_cell_formula_units_Z   1
loop_
 _symmetry_equiv_pos_site_id
 _symmetry_equiv_pos_as_xyz
  1  'x, y, z'
loop_
 _atom_site_type_symbol
 _atom_site_label
 _atom_site_symmetry_multiplicity
 _atom_site_fract_x
 _atom_site_fract_y
 _atom_site_fract_z
 _atom_site_occupancy
  Mn  Mn0  1  0.75000000  0.00000000  0.11625000  1.0
  Mn  Mn1  1  0.00000000  0.50000000  0.03875000  1.0
  Mn  Mn2  1  0.50000000  0.50000000  0.03875000  1.0
  Mn  Mn3  1  0.25000000  0.00000000  0.11625000  1.0
  Mn  Mn4  1  0.25107000  0.00071000  0.96006000  1.0
  Mn  Mn5  1  0.50000000  0.48726000  0.88120000  1.0
  Mn  Mn6  1  0.00000000  0.54104000  0.88650000  1.0
  Mn  Mn7  1  0.74893000  0.00071000  0.96006000  1.0
  Al  Al8  1  0.50000000  1.00000000  0.03875000  1.0
  Al  Al9  1  0.75000000  0.50000000  0.11625000  1.0
  Al  Al10  1  0.00000000  1.00000000  0.03875000  1.0
  Al  Al11  1  0.25000000  0.50000000  0.11625000  1.0
  Al  Al12  1  0.00000000  0.95981000  0.88163000  1.0
  Al  Al13  1  0.25016000  0.49590000  0.96065000  1.0
  Al  Al14  1  0.50000000  0.01372000  0.88178000  1.0
  Al  Al15  1  0.74984000  0.49590000  0.96065000  1.0
  Co  Co16  1  0.75000000  0.25000000  0.03875000  1.0
  Co  Co17  1  0.25000000  0.75000000  0.03875000  1.0
  Co  Co18  1  0.75000000  0.75000000  0.03875000  1.0
  Co  Co19  1  0.25000000  0.25000000  0.03875000  1.0
  Co  Co20  1  0.50000000  0.75000000  0.11625000  1.0
  Co  Co21  1  0.00000000  0.25000000  0.11625000  1.0
  Co  Co22  1  0.50000000  0.25000000  0.11625000  1.0
  Co  Co23  1  0.00000000  0.75000000  0.11625000  1.0
  Co  Co24  1  0.22548000  0.24436000  0.88022000  1.0
  Co  Co25  1  0.74181000  0.74956000  0.88491000  1.0
  Co  Co26  1  0.25819000  0.74956000  0.88491000  1.0
  Co  Co27  1  0.77452000  0.24436000  0.88022000  1.0
  Co  Co28  1  0.00000000  0.75122000  0.96386000  1.0
  Co  Co29  1  0.50000000  0.25014000  0.96051000  1.0
  Co  Co30  1  0.00000000  0.24784000  0.96041000  1.0
  Co  Co31  1  0.50000000  0.74804000  0.95987000  1.0
  C  C32  1  0.00000000  0.27052000  0.85344000  1.0
