# generated using pymatgen
data_Ga4Ni12C
_symmetry_space_group_name_H-M   Pmm2
_cell_length_a   5.09096000
_cell_length_b   7.19971000
_cell_length_c   23.81820000
_cell_angle_alpha   90.00000000
_cell_angle_beta   90.00000000
_cell_angle_gamma   90.00000000
_symmetry_Int_Tables_number   25
_chemical_formula_structural   Ga4Ni12C
_chemical_formula_sum   'Ga4 Ni12 C1'
_cell_volume   873.01886032
_cell_formula_units_Z   1
loop_
 _symmetry_equiv_pos_site_id
 _symmetry_equiv_pos_as_xyz
  1  'x, y, z'
  2  '-x, -y, z'
  3  '-x, y, z'
  4  'x, -y, z'
loop_
 _atom_site_type_symbol
 _atom_site_label
 _atom_site_symmetry_multiplicity
 _atom_site_fract_x
 _atom_site_fract_y
 _atom_site_fract_z
 _atom_site_occupancy
  Ga  Ga0  1  0.00000000  0.00000000  0.08015000  1.0
  Ga  Ga1  1  0.00000000  0.50000000  0.08015000  1.0
  Ga  Ga2  1  0.50000000  0.00000000  0.97328000  1.0
  Ga  Ga3  1  0.50000000  0.50000000  0.97328000  1.0
  Ni  Ni4  4  0.25000000  0.25000000  0.02672000  1.0
  Ni  Ni5  4  0.25000000  0.25000000  0.91985000  1.0
  Ni  Ni6  1  0.00000000  0.00000000  0.97328000  1.0
  Ni  Ni7  1  0.00000000  0.50000000  0.97328000  1.0
  Ni  Ni8  1  0.50000000  0.00000000  0.08015000  1.0
  Ni  Ni9  1  0.50000000  0.50000000  0.08015000  1.0
  C  C10  1  0.00000000  0.00000000  0.88626000  1.0
