data_image0
_chemical_formula_structural       Ta8Ga8Co16C
_chemical_formula_sum              "Ta8 Ga8 Co16 C1"
_cell_length_a       5.95946
_cell_length_b       8.42794
_cell_length_c       26.321
_cell_angle_alpha    90
_cell_angle_beta     90
_cell_angle_gamma    90

_space_group_name_H-M_alt    "P 1"
_space_group_IT_number       1

loop_
  _space_group_symop_operation_xyz
  'x, y, z'

loop_
  _atom_site_type_symbol
  _atom_site_label
  _atom_site_symmetry_multiplicity
  _atom_site_fract_x
  _atom_site_fract_y
  _atom_site_fract_z
  _atom_site_occupancy
  Ta  Ta1       1.0  0.00000  0.00000  0.87993  1.0000
  Ta  Ta2       1.0  0.50000  0.25000  0.95998  1.0000
  Ta  Ta3       1.0  0.50000  0.75000  0.95998  1.0000
  Ta  Ta4       1.0  0.00000  0.50000  0.87993  1.0000
  Ta  Ta5       1.0  0.00001  0.50000  0.04058  1.0000
  Ta  Ta6       1.0  0.50000  0.75517  0.12096  1.0000
  Ta  Ta7       1.0  0.50000  0.24483  0.12096  1.0000
  Ta  Ta8       1.0  1.00000  1.00000  0.03951  1.0000
  Ga  Ga1       1.0  0.00000  0.75000  0.95998  1.0000
  Ga  Ga2       1.0  0.50000  0.00000  0.87993  1.0000
  Ga  Ga3       1.0  0.00000  0.25000  0.95998  1.0000
  Ga  Ga4       1.0  0.50000  0.50000  0.87993  1.0000
  Ga  Ga5       1.0  1.00000  0.25550  0.12518  1.0000
  Ga  Ga6       1.0  0.50001  0.50000  0.04106  1.0000
  Ga  Ga7       1.0  1.00000  0.74450  0.12519  1.0000
  Ga  Ga8       1.0  0.50000  0.00000  0.04057  1.0000
  Co  Co1       1.0  0.25000  0.00000  0.95998  1.0000
  Co  Co2       1.0  0.75000  0.50000  0.95998  1.0000
  Co  Co3       1.0  0.75000  0.00000  0.95998  1.0000
  Co  Co4       1.0  0.25000  0.50000  0.95998  1.0000
  Co  Co5       1.0  0.75000  0.75000  0.87993  1.0000
  Co  Co6       1.0  0.25000  0.25000  0.87993  1.0000
  Co  Co7       1.0  0.25000  0.75000  0.87993  1.0000
  Co  Co8       1.0  0.75000  0.25000  0.87993  1.0000
  Co  Co9       1.0  0.24511  0.50000  0.11588  1.0000
  Co  Co10      1.0  0.78350  0.00000  0.11753  1.0000
  Co  Co11      1.0  0.75489  0.50000  0.11588  1.0000
  Co  Co12      1.0  0.21650  0.00000  0.11753  1.0000
  Co  Co13      1.0  0.74325  0.24828  0.04131  1.0000
  Co  Co14      1.0  0.25675  0.75172  0.04131  1.0000
  Co  Co15      1.0  0.25674  0.24828  0.04131  1.0000
  Co  Co16      1.0  0.74325  0.75172  0.04131  1.0000
  C   C1        1.0  0.50000  0.00000  0.14588  1.0000
