# generated using pymatgen
data_Ti4Ga4Ni8CO
_symmetry_space_group_name_H-M   P1
_cell_length_a   5.94410000
_cell_length_b   5.94410000
_cell_length_c   24.45810000
_cell_angle_alpha   90.00000000
_cell_angle_beta   90.00000000
_cell_angle_gamma   90.00000000
_symmetry_Int_Tables_number   1
_chemical_formula_structural   Ti4Ga4Ni8CO
_chemical_formula_sum   'Ti4 Ga4 Ni8 C1 O1'
_cell_volume   864.16153344
_cell_formula_units_Z   1
loop_
 _symmetry_equiv_pos_site_id
 _symmetry_equiv_pos_as_xyz
  1  'x, y, z'
loop_
 _atom_site_type_symbol
 _atom_site_label
 _atom_site_symmetry_multiplicity
 _atom_site_fract_x
 _atom_site_fract_y
 _atom_site_fract_z
 _atom_site_occupancy
  Ti  Ti0  1  0.00000000  0.50000000  0.96962000  1.0
  Ti  Ti1  1  0.00003000  0.99998000  0.09000000  1.0
  Ti  Ti2  1  0.50000000  0.00000000  0.96962000  1.0
  Ti  Ti3  1  0.50003000  0.50012000  0.09002000  1.0
  Ga  Ga4  1  0.00000000  0.00000000  0.96962000  1.0
  Ga  Ga5  1  0.49992000  0.99987000  0.09406000  1.0
  Ga  Ga6  1  0.50000000  0.50000000  0.96962000  1.0
  Ga  Ga7  1  0.99996000  0.49989000  0.08684000  1.0
  Ni  Ni8  1  0.25000000  0.25000000  0.90886000  1.0
  Ni  Ni9  1  0.25000000  0.75000000  0.90886000  1.0
  Ni  Ni10  1  0.25008000  0.75007000  0.03288000  1.0
  Ni  Ni11  1  0.25033000  0.24983000  0.03293000  1.0
  Ni  Ni12  1  0.74969000  0.24982000  0.03289000  1.0
  Ni  Ni13  1  0.74981000  0.75027000  0.03290000  1.0
  Ni  Ni14  1  0.75000000  0.25000000  0.90886000  1.0
  Ni  Ni15  1  0.75000000  0.75000000  0.90886000  1.0
  C  C16  1  0.00016000  0.50017000  0.16738000  1.0
  O  O17  1  0.00002000  0.50001000  0.21502000  1.0
