# generated using pymatgen
data_Li8Al16Pt8CO
_symmetry_space_group_name_H-M   'P 1'
_cell_length_a   6.09904000
_cell_length_b   8.62534000
_cell_length_c   26.46900000
_cell_angle_alpha   90.00000000
_cell_angle_beta   90.00000000
_cell_angle_gamma   90.00000000
_symmetry_Int_Tables_number   1
_chemical_formula_structural   Li8Al16Pt8CO
_chemical_formula_sum   'Li8 Al16 Pt8 C1 O1'
_cell_volume   1392.43598725
_cell_formula_units_Z   1
loop_
 _symmetry_equiv_pos_site_id
 _symmetry_equiv_pos_as_xyz
  1  'x, y, z'
loop_
 _atom_site_type_symbol
 _atom_site_label
 _atom_site_symmetry_multiplicity
 _atom_site_fract_x
 _atom_site_fract_y
 _atom_site_fract_z
 _atom_site_occupancy
  Li  Li0  1  0.00000000  0.75001000  0.87780000  1.0
  Li  Li1  1  0.50000000  0.00000000  0.95927000  1.0
  Li  Li2  1  0.50000000  0.50000000  0.95927000  1.0
  Li  Li3  1  0.00000000  0.24999000  0.87780000  1.0
  Li  Li4  1  0.00000000  0.25027000  0.04130000  1.0
  Li  Li5  1  0.50000000  0.50000000  0.16273000  1.0
  Li  Li6  1  0.50000000  0.00000000  0.16710000  1.0
  Li  Li7  1  0.00000000  0.74973000  0.04130000  1.0
  Al  Al8  1  0.25000000  0.75001000  0.95927000  1.0
  Al  Al9  1  0.75000000  0.24999000  0.95927000  1.0
  Al  Al10  1  0.75000000  0.75001000  0.95927000  1.0
  Al  Al11  1  0.25000000  0.24999000  0.95927000  1.0
  Al  Al12  1  0.75000000  0.50000000  0.87780000  1.0
  Al  Al13  1  0.25000000  0.00000000  0.87780000  1.0
  Al  Al14  1  0.25000000  0.50000000  0.87780000  1.0
  Al  Al15  1  0.75000000  0.00000000  0.87780000  1.0
  Al  Al16  1  0.25470000  0.24928000  0.12270000  1.0
  Al  Al17  1  0.74530000  0.75072000  0.12270000  1.0
  Al  Al18  1  0.74530000  0.24928000  0.12270000  1.0
  Al  Al19  1  0.25470000  0.75072000  0.12270000  1.0
  Al  Al20  1  0.73541000  0.00000000  0.04473000  1.0
  Al  Al21  1  0.26663000  0.50000000  0.04443000  1.0
  Al  Al22  1  0.26459000  0.00000000  0.04473000  1.0
  Al  Al23  1  0.73337000  0.50000000  0.04443000  1.0
  Pt  Pt24  1  0.00000000  0.50000000  0.95927000  1.0
  Pt  Pt25  1  0.50000000  0.75001000  0.87780000  1.0
  Pt  Pt26  1  0.00000000  0.00000000  0.95927000  1.0
  Pt  Pt27  1  0.50000000  0.24999000  0.87780000  1.0
  Pt  Pt28  1  0.00000000  0.00000000  0.11749000  1.0
  Pt  Pt29  1  0.50000000  0.24979000  0.03605000  1.0
  Pt  Pt30  1  0.00000000  0.50000000  0.11687000  1.0
  Pt  Pt31  1  0.50000000  0.75021000  0.03605000  1.0
  C  C32  1  0.50000000  0.00000000  0.24703000  1.0
  O  O33  1  0.50000000  0.00000000  0.29001000  1.0
