data_image0
_chemical_formula_structural       Nb8Ni16Sn8C
_chemical_formula_sum              "Nb8 Ni16 Sn8 C1"
_cell_length_a       6.23466
_cell_length_b       8.81715
_cell_length_c       26.6129
_cell_angle_alpha    90
_cell_angle_beta     90
_cell_angle_gamma    90

_space_group_name_H-M_alt    "P 1"
_space_group_IT_number       1

loop_
  _space_group_symop_operation_xyz
  'x, y, z'

loop_
  _atom_site_type_symbol
  _atom_site_label
  _atom_site_symmetry_multiplicity
  _atom_site_fract_x
  _atom_site_fract_y
  _atom_site_fract_z
  _atom_site_occupancy
  Nb  Nb1       1.0  0.00000  0.00000  0.87576  1.0000
  Nb  Nb2       1.0  0.50000  0.25000  0.95859  1.0000
  Nb  Nb3       1.0  0.50000  0.75000  0.95859  1.0000
  Nb  Nb4       1.0  0.00000  0.50000  0.87576  1.0000
  Nb  Nb5       1.0  0.00000  0.50000  0.04245  1.0000
  Nb  Nb6       1.0  0.50000  0.76924  0.12353  1.0000
  Nb  Nb7       1.0  0.50000  0.23076  0.12353  1.0000
  Nb  Nb8       1.0  1.00000  0.00001  0.04143  1.0000
  Ni  Ni1       1.0  0.25000  0.00000  0.95859  1.0000
  Ni  Ni2       1.0  0.75000  0.50000  0.95859  1.0000
  Ni  Ni3       1.0  0.75000  0.00000  0.95859  1.0000
  Ni  Ni4       1.0  0.25000  0.50000  0.95859  1.0000
  Ni  Ni5       1.0  0.75000  0.75000  0.87576  1.0000
  Ni  Ni6       1.0  0.25000  0.25000  0.87576  1.0000
  Ni  Ni7       1.0  0.25000  0.75000  0.87576  1.0000
  Ni  Ni8       1.0  0.75000  0.25000  0.87576  1.0000
  Ni  Ni9       1.0  0.27631  0.50000  0.11994  1.0000
  Ni  Ni10      1.0  0.79181  0.00000  0.12180  1.0000
  Ni  Ni11      1.0  0.72368  0.49999  0.11994  1.0000
  Ni  Ni12      1.0  0.20820  1.00000  0.12180  1.0000
  Ni  Ni13      1.0  0.75109  0.25156  0.04411  1.0000
  Ni  Ni14      1.0  0.24886  0.74846  0.04412  1.0000
  Ni  Ni15      1.0  0.24890  0.25155  0.04411  1.0000
  Ni  Ni16      1.0  0.75113  0.74844  0.04412  1.0000
  Sn  Sn1       1.0  0.00000  0.75000  0.95859  1.0000
  Sn  Sn2       1.0  0.50000  0.00000  0.87576  1.0000
  Sn  Sn3       1.0  0.00000  0.25000  0.95859  1.0000
  Sn  Sn4       1.0  0.50000  0.50000  0.87576  1.0000
  Sn  Sn5       1.0  1.00000  0.26508  0.13333  1.0000
  Sn  Sn6       1.0  0.50000  0.50001  0.03914  1.0000
  Sn  Sn7       1.0  0.00000  0.73491  0.13334  1.0000
  Sn  Sn8       1.0  0.50000  1.00000  0.03884  1.0000
  C   C1        1.0  0.50000  0.00000  0.14538  1.0000
