# generated using pymatgen
data_Nb8Ni16Sn8C
_symmetry_space_group_name_H-M   'P 1'
_cell_length_a   6.23466000
_cell_length_b   8.81715000
_cell_length_c   26.61290000
_cell_angle_alpha   90.00000000
_cell_angle_beta   90.00000000
_cell_angle_gamma   90.00000000
_symmetry_Int_Tables_number   1
_chemical_formula_structural   Nb8Ni16Sn8C
_chemical_formula_sum   'Nb8 Ni16 Sn8 C1'
_cell_volume   1462.96254027
_cell_formula_units_Z   1
loop_
 _symmetry_equiv_pos_site_id
 _symmetry_equiv_pos_as_xyz
  1  'x, y, z'
loop_
 _atom_site_type_symbol
 _atom_site_label
 _atom_site_symmetry_multiplicity
 _atom_site_fract_x
 _atom_site_fract_y
 _atom_site_fract_z
 _atom_site_occupancy
  Nb  Nb0  1  0.00000000  0.00000000  0.87576000  1.0
  Nb  Nb1  1  0.50000000  0.25000000  0.95859000  1.0
  Nb  Nb2  1  0.50000000  0.75000000  0.95859000  1.0
  Nb  Nb3  1  0.00000000  0.50000000  0.87576000  1.0
  Nb  Nb4  1  0.00000000  0.50000000  0.04245000  1.0
  Nb  Nb5  1  0.50000000  0.76924000  0.12353000  1.0
  Nb  Nb6  1  0.50000000  0.23076000  0.12353000  1.0
  Nb  Nb7  1  0.00000000  0.00000000  0.04143000  1.0
  Ni  Ni8  1  0.25000000  0.00000000  0.95859000  1.0
  Ni  Ni9  1  0.75000000  0.50000000  0.95859000  1.0
  Ni  Ni10  1  0.75000000  0.00000000  0.95859000  1.0
  Ni  Ni11  1  0.25000000  0.50000000  0.95859000  1.0
  Ni  Ni12  1  0.75000000  0.75000000  0.87576000  1.0
  Ni  Ni13  1  0.25000000  0.25000000  0.87576000  1.0
  Ni  Ni14  1  0.25000000  0.75000000  0.87576000  1.0
  Ni  Ni15  1  0.75000000  0.25000000  0.87576000  1.0
  Ni  Ni16  1  0.27631000  0.50000000  0.11994000  1.0
  Ni  Ni17  1  0.79181000  0.00000000  0.12180000  1.0
  Ni  Ni18  1  0.72369000  0.50000000  0.11994000  1.0
  Ni  Ni19  1  0.20819000  0.00000000  0.12180000  1.0
  Ni  Ni20  1  0.75109000  0.25156000  0.04411000  1.0
  Ni  Ni21  1  0.24891000  0.74844000  0.04411000  1.0
  Ni  Ni22  1  0.24891000  0.25156000  0.04411000  1.0
  Ni  Ni23  1  0.75109000  0.74844000  0.04411000  1.0
  Sn  Sn24  1  0.00000000  0.75000000  0.95859000  1.0
  Sn  Sn25  1  0.50000000  0.00000000  0.87576000  1.0
  Sn  Sn26  1  0.00000000  0.25000000  0.95859000  1.0
  Sn  Sn27  1  0.50000000  0.50000000  0.87576000  1.0
  Sn  Sn28  1  0.00000000  0.26508000  0.13333000  1.0
  Sn  Sn29  1  0.50000000  0.50000000  0.03914000  1.0
  Sn  Sn30  1  0.00000000  0.73492000  0.13333000  1.0
  Sn  Sn31  1  0.50000000  0.00000000  0.03884000  1.0
  C  C32  1  0.50000000  0.00000000  0.14538000  1.0
