# generated using pymatgen
data_Li8Zn4Ge4C
_symmetry_space_group_name_H-M   'P 1'
_cell_length_a   6.18893000
_cell_length_b   6.18893000
_cell_length_c   24.64170000
_cell_angle_alpha   90.00000000
_cell_angle_beta   90.00000000
_cell_angle_gamma   90.00000000
_symmetry_Int_Tables_number   1
_chemical_formula_structural   Li8Zn4Ge4C
_chemical_formula_sum   'Li8 Zn4 Ge4 C1'
_cell_volume   943.84745084
_cell_formula_units_Z   1
loop_
 _symmetry_equiv_pos_site_id
 _symmetry_equiv_pos_as_xyz
  1  'x, y, z'
loop_
 _atom_site_type_symbol
 _atom_site_label
 _atom_site_symmetry_multiplicity
 _atom_site_fract_x
 _atom_site_fract_y
 _atom_site_fract_z
 _atom_site_occupancy
  Li  Li0  1  0.00173000  0.99827000  0.88138000  1
  Li  Li1  1  0.49702000  0.50298000  0.88022000  1
  Li  Li2  1  0.00000000  0.50000000  0.03139000  1
  Li  Li3  1  0.50000000  1.00000000  0.03139000  1
  Li  Li4  1  0.25000000  0.75000000  0.09418000  1
  Li  Li5  1  0.74914000  0.74899000  0.96112000  1
  Li  Li6  1  0.75000000  0.25000000  0.09418000  1
  Li  Li7  1  0.25101000  0.25086000  0.96112000  1
  Zn  Zn8  1  0.24988000  0.75012000  0.96991000  1
  Zn  Zn9  1  0.75000000  0.75000000  0.09418000  1
  Zn  Zn10  1  0.75028000  0.24972000  0.96860000  1
  Zn  Zn11  1  0.25000000  0.25000000  0.09418000  1
  Ge  Ge12  1  0.00000000  0.00000000  0.03139000  1
  Ge  Ge13  1  0.03076000  0.53127000  0.88384000  1
  Ge  Ge14  1  0.46873000  0.96924000  0.88384000  1
  Ge  Ge15  1  0.50000000  0.50000000  0.03139000  1
  C  C16  1  0.24902000  0.75098000  0.88280000  1
