# generated using pymatgen
data_Ni24Sn8C
_symmetry_space_group_name_H-M   'P 1'
_cell_length_a   6.01786000
_cell_length_b   8.51054000
_cell_length_c   26.38290000
_cell_angle_alpha   90.00000000
_cell_angle_beta   90.00000000
_cell_angle_gamma   90.00000000
_symmetry_Int_Tables_number   1
_chemical_formula_structural   Ni24Sn8C
_chemical_formula_sum   'Ni24 Sn8 C1'
_cell_volume   1351.20650908
_cell_formula_units_Z   1
loop_
 _symmetry_equiv_pos_site_id
 _symmetry_equiv_pos_as_xyz
  1  'x, y, z'
loop_
 _atom_site_type_symbol
 _atom_site_label
 _atom_site_symmetry_multiplicity
 _atom_site_fract_x
 _atom_site_fract_y
 _atom_site_fract_z
 _atom_site_occupancy
  Ni  Ni0  1  0.25000000  0.00000000  0.95968000  1.0
  Ni  Ni1  1  0.75000000  0.50000000  0.95968000  1.0
  Ni  Ni2  1  0.75000000  0.00000000  0.95968000  1.0
  Ni  Ni3  1  0.25000000  0.50000000  0.95968000  1.0
  Ni  Ni4  1  0.75000000  0.75000000  0.87903000  1.0
  Ni  Ni5  1  0.25000000  0.25000000  0.87903000  1.0
  Ni  Ni6  1  0.25000000  0.75000000  0.87903000  1.0
  Ni  Ni7  1  0.75000000  0.25000000  0.87903000  1.0
  Ni  Ni8  1  0.00000000  0.75000000  0.95968000  1.0
  Ni  Ni9  1  0.50000000  0.00000000  0.87903000  1.0
  Ni  Ni10  1  0.00000000  0.25000000  0.95968000  1.0
  Ni  Ni11  1  0.50000000  0.50000000  0.87903000  1.0
  Ni  Ni12  1  0.22005000  0.50000000  0.11796000  1.0
  Ni  Ni13  1  0.71257000  0.00000000  0.11809000  1.0
  Ni  Ni14  1  0.77995000  0.50000000  0.11796000  1.0
  Ni  Ni15  1  0.28743000  0.00000000  0.11809000  1.0
  Ni  Ni16  1  0.74479000  0.24914000  0.04225000  1.0
  Ni  Ni17  1  0.25521000  0.75086000  0.04225000  1.0
  Ni  Ni18  1  0.25521000  0.24914000  0.04225000  1.0
  Ni  Ni19  1  0.74479000  0.75086000  0.04225000  1.0
  Ni  Ni20  1  0.00000000  0.21901000  0.12166000  1.0
  Ni  Ni21  1  0.50000000  0.50000000  0.04108000  1.0
  Ni  Ni22  1  0.00000000  0.78099000  0.12166000  1.0
  Ni  Ni23  1  0.50000000  0.00000000  0.03746000  1.0
  Sn  Sn24  1  0.00000000  0.00000000  0.87903000  1.0
  Sn  Sn25  1  0.50000000  0.25000000  0.95968000  1.0
  Sn  Sn26  1  0.50000000  0.75000000  0.95968000  1.0
  Sn  Sn27  1  0.00000000  0.50000000  0.87903000  1.0
  Sn  Sn28  1  0.00000000  0.50000000  0.03669000  1.0
  Sn  Sn29  1  0.50000000  0.73198000  0.12707000  1.0
  Sn  Sn30  1  0.50000000  0.26802000  0.12707000  1.0
  Sn  Sn31  1  0.00000000  0.00000000  0.03751000  1.0
  C  C32  1  0.00000000  0.00000000  0.13816000  1.0
