# generated using pymatgen
data_Ni24Sn8C
_symmetry_space_group_name_H-M   Pmm2
_cell_length_a   6.01786000
_cell_length_b   8.51054000
_cell_length_c   26.38290000
_cell_angle_alpha   90.00000000
_cell_angle_beta   90.00000000
_cell_angle_gamma   90.00000000
_symmetry_Int_Tables_number   25
_chemical_formula_structural   Ni24Sn8C
_chemical_formula_sum   'Ni24 Sn8 C1'
_cell_volume   1351.20650908
_cell_formula_units_Z   1
loop_
 _symmetry_equiv_pos_site_id
 _symmetry_equiv_pos_as_xyz
  1  'x, y, z'
  2  '-x, -y, z'
  3  '-x, y, z'
  4  'x, -y, z'
loop_
 _atom_site_type_symbol
 _atom_site_label
 _atom_site_symmetry_multiplicity
 _atom_site_fract_x
 _atom_site_fract_y
 _atom_site_fract_z
 _atom_site_occupancy
  Ni  Ni0  4  0.25000000  0.25000000  0.87903000  1.0
  Ni  Ni1  4  0.25521000  0.24914000  0.04225000  1.0
  Ni  Ni2  2  0.00000000  0.21901000  0.12166000  1.0
  Ni  Ni3  2  0.00000000  0.25000000  0.95968000  1.0
  Ni  Ni4  2  0.22005000  0.50000000  0.11796000  1.0
  Ni  Ni5  2  0.25000000  0.00000000  0.95968000  1.0
  Ni  Ni6  2  0.25000000  0.50000000  0.95968000  1.0
  Ni  Ni7  2  0.28743000  0.00000000  0.11809000  1.0
  Ni  Ni8  1  0.50000000  0.00000000  0.03746000  1.0
  Ni  Ni9  1  0.50000000  0.00000000  0.87903000  1.0
  Ni  Ni10  1  0.50000000  0.50000000  0.04108000  1.0
  Ni  Ni11  1  0.50000000  0.50000000  0.87903000  1.0
  Sn  Sn12  2  0.50000000  0.25000000  0.95968000  1.0
  Sn  Sn13  2  0.50000000  0.26802000  0.12707000  1.0
  Sn  Sn14  1  0.00000000  0.00000000  0.03751000  1.0
  Sn  Sn15  1  0.00000000  0.00000000  0.87903000  1.0
  Sn  Sn16  1  0.00000000  0.50000000  0.03669000  1.0
  Sn  Sn17  1  0.00000000  0.50000000  0.87903000  1.0
  C  C18  1  0.00000000  0.00000000  0.13816000  1.0
