# generated using pymatgen
data_Na16CO
_symmetry_space_group_name_H-M   P4mm
_cell_length_a   8.32816000
_cell_length_b   8.32816000
_cell_length_c   26.24610000
_cell_angle_alpha   90.00000000
_cell_angle_beta   90.00000000
_cell_angle_gamma   90.00000000
_symmetry_Int_Tables_number   99
_chemical_formula_structural   Na16CO
_chemical_formula_sum   'Na16 C1 O1'
_cell_volume   1820.38353870
_cell_formula_units_Z   1
loop_
 _symmetry_equiv_pos_site_id
 _symmetry_equiv_pos_as_xyz
  1  'x, y, z'
  2  '-y, x, z'
  3  '-x, -y, z'
  4  'y, -x, z'
  5  '-x, y, z'
  6  'y, x, z'
  7  'x, -y, z'
  8  '-y, -x, z'
loop_
 _atom_site_type_symbol
 _atom_site_label
 _atom_site_symmetry_multiplicity
 _atom_site_fract_x
 _atom_site_fract_y
 _atom_site_fract_z
 _atom_site_occupancy
  Na  Na0  4  0.25000000  0.25000000  0.03966000  1.0
  Na  Na1  4  0.25000000  0.25000000  0.88101000  1.0
  Na  Na2  2  0.00000000  0.50000000  0.11899000  1.0
  Na  Na3  2  0.00000000  0.50000000  0.96034000  1.0
  Na  Na4  1  0.00000000  0.00000000  0.11899000  1.0
  Na  Na5  1  0.00000000  0.00000000  0.96034000  1.0
  Na  Na6  1  0.50000000  0.50000000  0.11899000  1.0
  Na  Na7  1  0.50000000  0.50000000  0.96034000  1.0
  C  C8  1  0.00000000  0.00000000  0.19138000  1.0
  O  O9  1  0.00000000  0.00000000  0.23520000  1.0
