# generated using pymatgen
data_Li16Pb8Au8CO
_symmetry_space_group_name_H-M   'P 1'
_cell_length_a   6.82040000
_cell_length_b   9.64550000
_cell_length_c   27.23410000
_cell_angle_alpha   90.00000000
_cell_angle_beta   90.00000000
_cell_angle_gamma   90.00000000
_symmetry_Int_Tables_number   1
_chemical_formula_structural   Li16Pb8Au8CO
_chemical_formula_sum   'Li16 Pb8 Au8 C1 O1'
_cell_volume   1791.62708338
_cell_formula_units_Z   1
loop_
 _symmetry_equiv_pos_site_id
 _symmetry_equiv_pos_as_xyz
  1  'x, y, z'
loop_
 _atom_site_type_symbol
 _atom_site_label
 _atom_site_symmetry_multiplicity
 _atom_site_fract_x
 _atom_site_fract_y
 _atom_site_fract_z
 _atom_site_occupancy
  Li  Li0  1  0.00000000  0.75000000  0.95573000  1.0
  Li  Li1  1  0.50000000  0.00000000  0.86719000  1.0
  Li  Li2  1  0.00000000  0.25000000  0.95573000  1.0
  Li  Li3  1  0.50000000  0.50000000  0.86719000  1.0
  Li  Li4  1  0.25000000  0.00000000  0.95573000  1.0
  Li  Li5  1  0.25000000  0.50000000  0.95573000  1.0
  Li  Li6  1  0.75000000  0.75000000  0.86719000  1.0
  Li  Li7  1  0.75000000  0.25000000  0.86719000  1.0
  Li  Li8  1  0.97770000  0.25097000  0.12748000  1.0
  Li  Li9  1  0.50019000  0.49999000  0.03627000  1.0
  Li  Li10  1  0.97770000  0.74901000  0.12749000  1.0
  Li  Li11  1  0.49884000  0.99998000  0.03632000  1.0
  Li  Li12  1  0.29971000  0.49996000  0.12194000  1.0
  Li  Li13  1  0.29891000  0.00009000  0.12328000  1.0
  Li  Li14  1  0.71198000  0.24964000  0.05285000  1.0
  Li  Li15  1  0.71198000  0.75035000  0.05286000  1.0
  Pb  Pb16  1  0.00000000  0.00000000  0.86719000  1.0
  Pb  Pb17  1  0.50000000  0.25000000  0.95573000  1.0
  Pb  Pb18  1  0.50000000  0.75000000  0.95573000  1.0
  Pb  Pb19  1  0.00000000  0.50000000  0.86719000  1.0
  Pb  Pb20  1  0.01253000  0.49996000  0.04193000  1.0
  Pb  Pb21  1  0.50715000  0.74814000  0.15403000  1.0
  Pb  Pb22  1  0.50754000  0.25190000  0.15404000  1.0
  Pb  Pb23  1  0.01190000  0.00002000  0.04243000  1.0
  Au  Au24  1  0.25000000  0.25000000  0.86719000  1.0
  Au  Au25  1  0.25000000  0.75000000  0.86719000  1.0
  Au  Au26  1  0.75000000  0.50000000  0.95573000  1.0
  Au  Au27  1  0.75000000  0.00000000  0.95573000  1.0
  Au  Au28  1  0.28474000  0.75104000  0.05863000  1.0
  Au  Au29  1  0.28484000  0.24892000  0.05868000  1.0
  Au  Au30  1  0.71104000  0.99992000  0.11800000  1.0
  Au  Au31  1  0.71821000  0.50012000  0.11840000  1.0
  C  C32  1  0.93608000  0.00015000  0.22830000  1.0
  O  O33  1  0.82897000  0.99997000  0.26036000  1.0
