# generated using pymatgen
data_Li24Pd8C
_symmetry_space_group_name_H-M   'P 1'
_cell_length_a   8.79589000
_cell_length_b   6.21964000
_cell_length_c   26.59690000
_cell_angle_alpha   90.00000000
_cell_angle_beta   90.00000000
_cell_angle_gamma   90.00000000
_symmetry_Int_Tables_number   1
_chemical_formula_structural   Li24Pd8C
_chemical_formula_sum   'Li24 Pd8 C1'
_cell_volume   1455.04377030
_cell_formula_units_Z   1
loop_
 _symmetry_equiv_pos_site_id
 _symmetry_equiv_pos_as_xyz
  1  'x, y, z'
loop_
 _atom_site_type_symbol
 _atom_site_label
 _atom_site_symmetry_multiplicity
 _atom_site_fract_x
 _atom_site_fract_y
 _atom_site_fract_z
 _atom_site_occupancy
  Li  Li0  1  0.75001000  0.25000000  0.04134000  1.0
  Li  Li1  1  0.25001000  0.75000000  0.04134000  1.0
  Li  Li2  1  0.74999000  0.75000000  0.04134000  1.0
  Li  Li3  1  0.24999000  0.25000000  0.04134000  1.0
  Li  Li4  1  0.50000000  0.75000000  0.12402000  1.0
  Li  Li5  1  0.00000000  0.25000000  0.12402000  1.0
  Li  Li6  1  0.50000000  0.25000000  0.12402000  1.0
  Li  Li7  1  0.00000000  0.75000000  0.12402000  1.0
  Li  Li8  1  0.50000000  0.00000000  0.04134000  1.0
  Li  Li9  1  0.75001000  0.50000000  0.12402000  1.0
  Li  Li10  1  0.00000000  0.00000000  0.04134000  1.0
  Li  Li11  1  0.24999000  0.50000000  0.12402000  1.0
  Li  Li12  1  0.23499000  0.26911000  0.86417000  1.0
  Li  Li13  1  0.72753000  0.72953000  0.86591000  1.0
  Li  Li14  1  0.27247000  0.72953000  0.86591000  1.0
  Li  Li15  1  0.76501000  0.26911000  0.86417000  1.0
  Li  Li16  1  0.00000000  0.77120000  0.96416000  1.0
  Li  Li17  1  0.50000000  0.25250000  0.96406000  1.0
  Li  Li18  1  0.00000000  0.22242000  0.94775000  1.0
  Li  Li19  1  0.50000000  0.74180000  0.95999000  1.0
  Li  Li20  1  0.00000000  0.98068000  0.85440000  1.0
  Li  Li21  1  0.24050000  0.50017000  0.95397000  1.0
  Li  Li22  1  0.50000000  0.02973000  0.88537000  1.0
  Li  Li23  1  0.75950000  0.50017000  0.95397000  1.0
  Pd  Pd24  1  0.75001000  0.00000000  0.12402000  1.0
  Pd  Pd25  1  0.00000000  0.50000000  0.04134000  1.0
  Pd  Pd26  1  0.50000000  0.50000000  0.04134000  1.0
  Pd  Pd27  1  0.24999000  0.00000000  0.12402000  1.0
  Pd  Pd28  1  0.25822000  0.99012000  0.95231000  1.0
  Pd  Pd29  1  0.50000000  0.47495000  0.88535000  1.0
  Pd  Pd30  1  0.00000000  0.58427000  0.88432000  1.0
  Pd  Pd31  1  0.74178000  0.99012000  0.95231000  1.0
  C  C32  1  0.00000000  0.28992000  0.86817000  1.0
