# generated using pymatgen
data_Li24Pd8C
_symmetry_space_group_name_H-M   Pm
_cell_length_a   6.21964000
_cell_length_b   8.79589000
_cell_length_c   26.59690000
_cell_angle_alpha   90.00000000
_cell_angle_beta   90.00000000
_cell_angle_gamma   90.00000000
_symmetry_Int_Tables_number   6
_chemical_formula_structural   Li24Pd8C
_chemical_formula_sum   'Li24 Pd8 C1'
_cell_volume   1455.04377030
_cell_formula_units_Z   1
loop_
 _symmetry_equiv_pos_site_id
 _symmetry_equiv_pos_as_xyz
  1  'x, y, z'
  2  'x, -y, z'
loop_
 _atom_site_type_symbol
 _atom_site_label
 _atom_site_symmetry_multiplicity
 _atom_site_fract_x
 _atom_site_fract_y
 _atom_site_fract_z
 _atom_site_occupancy
  Li  Li0  2  0.25000000  0.24999000  0.95866000  1.0
  Li  Li1  2  0.26911000  0.23499000  0.13583000  1.0
  Li  Li2  2  0.50000000  0.24999000  0.87598000  1.0
  Li  Li3  2  0.50017000  0.24050000  0.04603000  1.0
  Li  Li4  2  0.72953000  0.27247000  0.13409000  1.0
  Li  Li5  2  0.75000000  0.25001000  0.95866000  1.0
  Li  Li6  1  0.00000000  0.00000000  0.95866000  1.0
  Li  Li7  1  0.00000000  0.50000000  0.95866000  1.0
  Li  Li8  1  0.02973000  0.50000000  0.11463000  1.0
  Li  Li9  1  0.22242000  0.00000000  0.05225000  1.0
  Li  Li10  1  0.25000000  0.00000000  0.87598000  1.0
  Li  Li11  1  0.25000000  0.50000000  0.87598000  1.0
  Li  Li12  1  0.25250000  0.50000000  0.03594000  1.0
  Li  Li13  1  0.74180000  0.50000000  0.04001000  1.0
  Li  Li14  1  0.75000000  0.00000000  0.87598000  1.0
  Li  Li15  1  0.75000000  0.50000000  0.87598000  1.0
  Li  Li16  1  0.77120000  0.00000000  0.03584000  1.0
  Li  Li17  1  0.98068000  0.00000000  0.14560000  1.0
  Pd  Pd18  2  0.00000000  0.24999000  0.87598000  1.0
  Pd  Pd19  2  0.99012000  0.25822000  0.04769000  1.0
  Pd  Pd20  1  0.47495000  0.50000000  0.11465000  1.0
  Pd  Pd21  1  0.50000000  0.00000000  0.95866000  1.0
  Pd  Pd22  1  0.50000000  0.50000000  0.95866000  1.0
  Pd  Pd23  1  0.58427000  0.00000000  0.11568000  1.0
  C  C24  1  0.28992000  0.00000000  0.13183000  1.0
