# generated using pymatgen
data_Sc4Al4In4Pd4CO
_symmetry_space_group_name_H-M   P1
_cell_length_a   5.99150000
_cell_length_b   8.30234000
_cell_length_c   24.49130000
_cell_angle_alpha   90.00000000
_cell_angle_beta   90.00000000
_cell_angle_gamma   90.00000000
_symmetry_Int_Tables_number   1
_chemical_formula_structural   Sc4Al4In4Pd4CO
_chemical_formula_sum   'Sc4 Al4 In4 Pd4 C1 O1'
_cell_volume   1218.28224951
_cell_formula_units_Z   1
loop_
 _symmetry_equiv_pos_site_id
 _symmetry_equiv_pos_as_xyz
  1  'x, y, z'
loop_
 _atom_site_type_symbol
 _atom_site_label
 _atom_site_symmetry_multiplicity
 _atom_site_fract_x
 _atom_site_fract_y
 _atom_site_fract_z
 _atom_site_occupancy
  Sc  Sc0  1  0.25798000  0.25000000  0.03056000  1.0
  Sc  Sc1  1  0.25798000  0.75000000  0.03056000  1.0
  Sc  Sc2  1  0.78676000  0.75047000  0.91098000  1.0
  Sc  Sc3  1  0.78984000  0.24988000  0.91095000  1.0
  Al  Al4  1  0.00000000  0.00000000  0.09169000  1.0
  Al  Al5  1  0.00000000  0.50000000  0.09169000  1.0
  Al  Al6  1  0.51753000  0.00092000  0.96991000  1.0
  Al  Al7  1  0.51780000  0.49899000  0.96982000  1.0
  In  In8  1  0.28660000  0.74902000  0.89738000  1.0
  In  In9  1  0.29273000  0.24914000  0.89567000  1.0
  In  In10  1  0.75798000  0.25000000  0.03056000  1.0
  In  In11  1  0.75798000  0.75000000  0.03056000  1.0
  Pd  Pd12  1  0.03576000  0.49760000  0.96675000  1.0
  Pd  Pd13  1  0.03616000  0.00211000  0.96681000  1.0
  Pd  Pd14  1  0.50000000  0.00000000  0.09169000  1.0
  Pd  Pd15  1  0.50000000  0.50000000  0.09169000  1.0
  C  C16  1  0.87039000  0.75317000  0.81959000  1.0
  O  O17  1  0.90895000  0.75412000  0.77347000  1.0
