# generated using pymatgen
data_Co16Si16CO
_symmetry_space_group_name_H-M   'P 1'
_cell_length_a   5.56276000
_cell_length_b   7.86693000
_cell_length_c   25.90020000
_cell_angle_alpha   90.00000000
_cell_angle_beta   90.00000000
_cell_angle_gamma   90.00000000
_symmetry_Int_Tables_number   1
_chemical_formula_structural   Co16Si16CO
_chemical_formula_sum   'Co16 Si16 C1 O1'
_cell_volume   1133.44049971
_cell_formula_units_Z   1
loop_
 _symmetry_equiv_pos_site_id
 _symmetry_equiv_pos_as_xyz
  1  'x, y, z'
loop_
 _atom_site_type_symbol
 _atom_site_label
 _atom_site_symmetry_multiplicity
 _atom_site_fract_x
 _atom_site_fract_y
 _atom_site_fract_z
 _atom_site_occupancy
  Co  Co0  1  0.75000000  0.00000000  0.88610000  1.0
  Co  Co1  1  0.75000000  0.25000000  0.96203000  1.0
  Co  Co2  1  0.74730000  0.00000000  0.03483000  1.0
  Co  Co3  1  0.75225000  0.24690000  0.10929000  1.0
  Co  Co4  1  0.75000000  0.50000000  0.88610000  1.0
  Co  Co5  1  0.75000000  0.75000000  0.96203000  1.0
  Co  Co6  1  0.75012000  0.50000000  0.03646000  1.0
  Co  Co7  1  0.75225000  0.75310000  0.10929000  1.0
  Co  Co8  1  0.25000000  0.00000000  0.88610000  1.0
  Co  Co9  1  0.25000000  0.25000000  0.96203000  1.0
  Co  Co10  1  0.25270000  0.00000000  0.03483000  1.0
  Co  Co11  1  0.24775000  0.24690000  0.10929000  1.0
  Co  Co12  1  0.25000000  0.50000000  0.88610000  1.0
  Co  Co13  1  0.25000000  0.75000000  0.96203000  1.0
  Co  Co14  1  0.24988000  0.50000000  0.03646000  1.0
  Co  Co15  1  0.24775000  0.75310000  0.10929000  1.0
  Si  Si16  1  0.00000000  0.25000000  0.88610000  1.0
  Si  Si17  1  0.00000000  0.00000000  0.96203000  1.0
  Si  Si18  1  0.00000000  0.24889000  0.03844000  1.0
  Si  Si19  1  0.00000000  0.50000000  0.11861000  1.0
  Si  Si20  1  0.00000000  0.75000000  0.88610000  1.0
  Si  Si21  1  0.00000000  0.50000000  0.96203000  1.0
  Si  Si22  1  0.00000000  0.75111000  0.03844000  1.0
  Si  Si23  1  0.00000000  0.00000000  0.12856000  1.0
  Si  Si24  1  0.50000000  0.25000000  0.88610000  1.0
  Si  Si25  1  0.50000000  0.00000000  0.96203000  1.0
  Si  Si26  1  0.50000000  0.24977000  0.03879000  1.0
  Si  Si27  1  0.50000000  0.50000000  0.11746000  1.0
  Si  Si28  1  0.50000000  0.75000000  0.88610000  1.0
  Si  Si29  1  0.50000000  0.50000000  0.96203000  1.0
  Si  Si30  1  0.50000000  0.75023000  0.03879000  1.0
  Si  Si31  1  0.50000000  0.00000000  0.11841000  1.0
  C  C32  1  0.00000000  0.00000000  0.20171000  1.0
  O  O33  1  0.00000000  0.00000000  0.24619000  1.0
