# generated using pymatgen
data_Ni24Sn8C
_symmetry_space_group_name_H-M   P1
_cell_length_a   5.96895000
_cell_length_b   8.44136000
_cell_length_c   26.33100000
_cell_angle_alpha   90.00000000
_cell_angle_beta   90.00000000
_cell_angle_gamma   90.00000000
_symmetry_Int_Tables_number   1
_chemical_formula_structural   Ni24Sn8C
_chemical_formula_sum   'Ni24 Sn8 C1'
_cell_volume   1326.71523453
_cell_formula_units_Z   1
loop_
 _symmetry_equiv_pos_site_id
 _symmetry_equiv_pos_as_xyz
  1  'x, y, z'
loop_
 _atom_site_type_symbol
 _atom_site_label
 _atom_site_symmetry_multiplicity
 _atom_site_fract_x
 _atom_site_fract_y
 _atom_site_fract_z
 _atom_site_occupancy
  Ni  Ni0  1  0.00000000  0.25000000  0.95993000  1.0
  Ni  Ni1  1  0.00000000  0.75000000  0.95993000  1.0
  Ni  Ni2  1  0.01775000  0.74940000  0.11452000  1.0
  Ni  Ni3  1  0.25000000  0.00000000  0.95993000  1.0
  Ni  Ni4  1  0.25000000  0.25000000  0.87978000  1.0
  Ni  Ni5  1  0.25000000  0.50000000  0.95993000  1.0
  Ni  Ni6  1  0.25000000  0.75000000  0.87978000  1.0
  Ni  Ni7  1  0.25238000  0.74999000  0.03839000  1.0
  Ni  Ni8  1  0.28067000  0.24988000  0.04972000  1.0
  Ni  Ni9  1  0.28464000  0.46708000  0.11833000  1.0
  Ni  Ni10  1  0.28487000  0.03336000  0.11839000  1.0
  Ni  Ni11  1  0.49624000  0.50545000  0.03668000  1.0
  Ni  Ni12  1  0.49626000  0.99433000  0.03676000  1.0
  Ni  Ni13  1  0.50000000  0.00000000  0.87978000  1.0
  Ni  Ni14  1  0.50000000  0.50000000  0.87978000  1.0
  Ni  Ni15  1  0.70697000  0.24962000  0.04635000  1.0
  Ni  Ni16  1  0.73148000  0.50325000  0.11471000  1.0
  Ni  Ni17  1  0.73170000  0.99705000  0.11473000  1.0
  Ni  Ni18  1  0.74107000  0.75006000  0.04263000  1.0
  Ni  Ni19  1  0.75000000  0.00000000  0.95993000  1.0
  Ni  Ni20  1  0.75000000  0.25000000  0.87978000  1.0
  Ni  Ni21  1  0.75000000  0.50000000  0.95993000  1.0
  Ni  Ni22  1  0.75000000  0.75000000  0.87978000  1.0
  Ni  Ni23  1  0.96931000  0.25009000  0.11576000  1.0
  Sn  Sn24  1  0.00000000  0.00000000  0.87978000  1.0
  Sn  Sn25  1  0.00000000  0.50000000  0.87978000  1.0
  Sn  Sn26  1  0.00079000  0.49429000  0.03962000  1.0
  Sn  Sn27  1  0.00097000  0.00548000  0.03963000  1.0
  Sn  Sn28  1  0.48212000  0.75018000  0.12605000  1.0
  Sn  Sn29  1  0.50000000  0.25000000  0.95993000  1.0
  Sn  Sn30  1  0.50000000  0.75000000  0.95993000  1.0
  Sn  Sn31  1  0.60458000  0.24990000  0.16762000  1.0
  C  C32  1  0.26752000  0.25024000  0.12325000  1.0
