# generated using pymatgen
data_Li8Y8In8Pb8CO
_symmetry_space_group_name_H-M   Pm
_cell_length_a   9.32892000
_cell_length_b   9.00122000
_cell_length_c   27.06750000
_cell_angle_alpha   90.00000000
_cell_angle_beta   90.00000000
_cell_angle_gamma   90.00000000
_symmetry_Int_Tables_number   6
_chemical_formula_structural   Li8Y8In8Pb8CO
_chemical_formula_sum   'Li8 Y8 In8 Pb8 C1 O1'
_cell_volume   2272.90294176
_cell_formula_units_Z   1
loop_
 _symmetry_equiv_pos_site_id
 _symmetry_equiv_pos_as_xyz
  1  'x, y, z'
  2  'x, -y, z'
loop_
 _atom_site_type_symbol
 _atom_site_label
 _atom_site_symmetry_multiplicity
 _atom_site_fract_x
 _atom_site_fract_y
 _atom_site_fract_z
 _atom_site_occupancy
  Li  Li0  2  0.25000000  0.25002000  0.95648000  1.0
  Li  Li1  2  0.25125000  0.26568000  0.13851000  1.0
  Li  Li2  2  0.74874000  0.26568000  0.13852000  1.0
  Li  Li3  2  0.75000000  0.25002000  0.95648000  1.0
  Y  Y4  2  0.00000000  0.25002000  0.86945000  1.0
  Y  Y5  2  0.50000000  0.24570000  0.04514000  1.0
  Y  Y6  2  0.50000000  0.25002000  0.86945000  1.0
  Y  Y7  2  0.99999000  0.24570000  0.04487000  1.0
  In  In8  1  0.00000000  0.00000000  0.14651000  1.0
  In  In9  1  0.00000000  0.00000000  0.95648000  1.0
  In  In10  1  0.00000000  0.50000000  0.95648000  1.0
  In  In11  1  0.50000000  0.00000000  0.14941000  1.0
  In  In12  1  0.50000000  0.00000000  0.95648000  1.0
  In  In13  1  0.50000000  0.50000000  0.13455000  1.0
  In  In14  1  0.50000000  0.50000000  0.95648000  1.0
  In  In15  1  0.99997000  0.50000000  0.13484000  1.0
  Pb  Pb16  1  0.24955000  0.50000000  0.04906000  1.0
  Pb  Pb17  1  0.25000000  0.00000000  0.86945000  1.0
  Pb  Pb18  1  0.25000000  0.50000000  0.86945000  1.0
  Pb  Pb19  1  0.25085000  0.00000000  0.06024000  1.0
  Pb  Pb20  1  0.74914000  0.00000000  0.06024000  1.0
  Pb  Pb21  1  0.75000000  0.00000000  0.86945000  1.0
  Pb  Pb22  1  0.75000000  0.50000000  0.86945000  1.0
  Pb  Pb23  1  0.75044000  0.50000000  0.04905000  1.0
  C  C24  1  0.00041000  0.50000000  0.29047000  1.0
  O  O25  1  0.99977000  0.50000000  0.33238000  1.0
