data_image0
_chemical_formula_structural       Sc8Al8Cu8Pd8C
_chemical_formula_sum              "Sc8 Al8 Cu8 Pd8 C1"
_cell_length_a       6.32596
_cell_length_b       8.94626
_cell_length_c       26.7097
_cell_angle_alpha    90
_cell_angle_beta     90
_cell_angle_gamma    90

_space_group_name_H-M_alt    "P 1"
_space_group_IT_number       1

loop_
  _space_group_symop_operation_xyz
  'x, y, z'

loop_
  _atom_site_type_symbol
  _atom_site_label
  _atom_site_symmetry_multiplicity
  _atom_site_fract_x
  _atom_site_fract_y
  _atom_site_fract_z
  _atom_site_occupancy
  Sc  Sc1       1.0  0.00000  0.25000  0.95813  1.0000
  Sc  Sc2       1.0  0.00000  0.75000  0.95813  1.0000
  Sc  Sc3       1.0  0.50000  0.50000  0.87440  1.0000
  Sc  Sc4       1.0  0.50000  0.00000  0.87440  1.0000
  Sc  Sc5       1.0  0.99632  0.76192  0.12799  1.0000
  Sc  Sc6       1.0  0.99632  0.23808  0.12799  1.0000
  Sc  Sc7       1.0  0.50519  0.00000  0.04594  1.0000
  Sc  Sc8       1.0  0.49786  0.50000  0.04025  1.0000
  Al  Al1       1.0  0.00000  0.00000  0.87440  1.0000
  Al  Al2       1.0  0.00000  0.50000  0.87440  1.0000
  Al  Al3       1.0  0.50000  0.75000  0.95813  1.0000
  Al  Al4       1.0  0.50000  0.25000  0.95813  1.0000
  Al  Al5       1.0  0.00324  0.50000  0.04341  1.0000
  Al  Al6       1.0  0.00323  1.00000  0.04466  1.0000
  Al  Al7       1.0  0.49602  0.25810  0.12256  1.0000
  Al  Al8       1.0  0.49602  0.74190  0.12256  1.0000
  Cu  Cu1       1.0  0.75000  0.00000  0.95813  1.0000
  Cu  Cu2       1.0  0.75000  0.50000  0.95813  1.0000
  Cu  Cu3       1.0  0.25000  0.25000  0.87440  1.0000
  Cu  Cu4       1.0  0.25000  0.75000  0.87440  1.0000
  Cu  Cu5       1.0  0.73652  0.50000  0.12135  1.0000
  Cu  Cu6       1.0  0.69338  1.00000  0.14205  1.0000
  Cu  Cu7       1.0  0.24334  0.74717  0.04077  1.0000
  Cu  Cu8       1.0  0.24335  0.25283  0.04077  1.0000
  Pd  Pd1       1.0  0.25000  0.00000  0.95813  1.0000
  Pd  Pd2       1.0  0.25000  0.50000  0.95813  1.0000
  Pd  Pd3       1.0  0.75000  0.25000  0.87440  1.0000
  Pd  Pd4       1.0  0.75000  0.75000  0.87440  1.0000
  Pd  Pd5       1.0  0.26166  0.50000  0.12108  1.0000
  Pd  Pd6       1.0  0.30702  1.00000  0.13305  1.0000
  Pd  Pd7       1.0  0.75532  0.74328  0.04041  1.0000
  Pd  Pd8       1.0  0.75531  0.25672  0.04042  1.0000
  C   C1        1.0  0.98078  1.00000  0.12171  1.0000
