# generated using pymatgen
data_Li8Mg8In8Sn8CO
_symmetry_space_group_name_H-M   'P 1'
_cell_length_a   7.01918000
_cell_length_b   9.92662000
_cell_length_c   27.44500000
_cell_angle_alpha   90.00000000
_cell_angle_beta   90.00000000
_cell_angle_gamma   90.00000000
_symmetry_Int_Tables_number   1
_chemical_formula_structural   Li8Mg8In8Sn8CO
_chemical_formula_sum   'Li8 Mg8 In8 Sn8 C1 O1'
_cell_volume   1912.27792543
_cell_formula_units_Z   1
loop_
 _symmetry_equiv_pos_site_id
 _symmetry_equiv_pos_as_xyz
  1  'x, y, z'
loop_
 _atom_site_type_symbol
 _atom_site_label
 _atom_site_symmetry_multiplicity
 _atom_site_fract_x
 _atom_site_fract_y
 _atom_site_fract_z
 _atom_site_occupancy
  Li  Li0  1  0.25000000  0.00000000  0.95479000  1.0
  Li  Li1  1  0.25000000  0.50000000  0.95479000  1.0
  Li  Li2  1  0.75000000  0.75000000  0.86437000  1.0
  Li  Li3  1  0.75000000  0.25000000  0.86437000  1.0
  Li  Li4  1  0.25123000  0.50209000  0.14072000  1.0
  Li  Li5  1  0.25124000  0.99790000  0.14072000  1.0
  Li  Li6  1  0.74683000  0.25000000  0.04953000  1.0
  Li  Li7  1  0.74818000  0.75000000  0.04739000  1.0
  Mg  Mg8  1  0.75000000  0.00000000  0.95479000  1.0
  Mg  Mg9  1  0.75000000  0.50000000  0.95479000  1.0
  Mg  Mg10  1  0.25000000  0.75000000  0.86437000  1.0
  Mg  Mg11  1  0.25000000  0.25000000  0.86437000  1.0
  Mg  Mg12  1  0.75954000  0.49677000  0.14631000  1.0
  Mg  Mg13  1  0.75955000  0.00323000  0.14632000  1.0
  Mg  Mg14  1  0.25912000  0.24999000  0.05035000  1.0
  Mg  Mg15  1  0.25768000  0.75000000  0.05032000  1.0
  In  In16  1  0.00000000  0.00000000  0.86437000  1.0
  In  In17  1  0.00000000  0.50000000  0.86437000  1.0
  In  In18  1  0.50000000  0.25000000  0.95479000  1.0
  In  In19  1  0.50000000  0.75000000  0.95479000  1.0
  In  In20  1  0.99616000  0.49988000  0.04999000  1.0
  In  In21  1  0.99616000  0.00011000  0.04999000  1.0
  In  In22  1  0.50149000  0.75000000  0.15209000  1.0
  In  In23  1  0.49175000  0.25000000  0.15537000  1.0
  Sn  Sn24  1  0.00000000  0.75000000  0.95479000  1.0
  Sn  Sn25  1  0.00000000  0.25000000  0.95479000  1.0
  Sn  Sn26  1  0.50000000  0.50000000  0.86437000  1.0
  Sn  Sn27  1  0.50000000  0.00000000  0.86437000  1.0
  Sn  Sn28  1  0.01422000  0.25000000  0.14332000  1.0
  Sn  Sn29  1  0.00558000  0.75000000  0.14247000  1.0
  Sn  Sn30  1  0.50896000  0.99956000  0.05100000  1.0
  Sn  Sn31  1  0.50895000  0.50044000  0.05099000  1.0
  C  C32  1  0.41812000  0.75013000  0.28675000  1.0
  O  O33  1  0.53181000  0.74998000  0.31622000  1.0
