# generated using pymatgen
data_Li8Mg8In8Sn8CO
_symmetry_space_group_name_H-M   P1
_cell_length_a   7.01918000
_cell_length_b   9.92662000
_cell_length_c   27.44500000
_cell_angle_alpha   90.00000000
_cell_angle_beta   90.00000000
_cell_angle_gamma   90.00000000
_symmetry_Int_Tables_number   1
_chemical_formula_structural   Li8Mg8In8Sn8CO
_chemical_formula_sum   'Li8 Mg8 In8 Sn8 C1 O1'
_cell_volume   1912.27792543
_cell_formula_units_Z   1
loop_
 _symmetry_equiv_pos_site_id
 _symmetry_equiv_pos_as_xyz
  1  'x, y, z'
loop_
 _atom_site_type_symbol
 _atom_site_label
 _atom_site_symmetry_multiplicity
 _atom_site_fract_x
 _atom_site_fract_y
 _atom_site_fract_z
 _atom_site_occupancy
  Li  Li0  1  0.25000000  0.25000000  0.86437000  1.0
  Li  Li1  1  0.25000000  0.75000000  0.86437000  1.0
  Li  Li2  1  0.25182000  0.25000000  0.04739000  1.0
  Li  Li3  1  0.25317000  0.75000000  0.04953000  1.0
  Li  Li4  1  0.74876000  0.00210000  0.14072000  1.0
  Li  Li5  1  0.74877000  0.49791000  0.14072000  1.0
  Li  Li6  1  0.75000000  0.00000000  0.95479000  1.0
  Li  Li7  1  0.75000000  0.50000000  0.95479000  1.0
  Mg  Mg8  1  0.24045000  0.99677000  0.14632000  1.0
  Mg  Mg9  1  0.24046000  0.50323000  0.14631000  1.0
  Mg  Mg10  1  0.25000000  0.00000000  0.95479000  1.0
  Mg  Mg11  1  0.25000000  0.50000000  0.95479000  1.0
  Mg  Mg12  1  0.74088000  0.75001000  0.05035000  1.0
  Mg  Mg13  1  0.74232000  0.25000000  0.05032000  1.0
  Mg  Mg14  1  0.75000000  0.25000000  0.86437000  1.0
  Mg  Mg15  1  0.75000000  0.75000000  0.86437000  1.0
  In  In16  1  0.00000000  0.00000000  0.86437000  1.0
  In  In17  1  0.00000000  0.50000000  0.86437000  1.0
  In  In18  1  0.00384000  0.50012000  0.04999000  1.0
  In  In19  1  0.00384000  0.99989000  0.04999000  1.0
  In  In20  1  0.49851000  0.25000000  0.15209000  1.0
  In  In21  1  0.50000000  0.25000000  0.95479000  1.0
  In  In22  1  0.50000000  0.75000000  0.95479000  1.0
  In  In23  1  0.50825000  0.75000000  0.15537000  1.0
  Sn  Sn24  1  0.00000000  0.25000000  0.95479000  1.0
  Sn  Sn25  1  0.00000000  0.75000000  0.95479000  1.0
  Sn  Sn26  1  0.49104000  0.00044000  0.05100000  1.0
  Sn  Sn27  1  0.49105000  0.49956000  0.05099000  1.0
  Sn  Sn28  1  0.50000000  0.00000000  0.86437000  1.0
  Sn  Sn29  1  0.50000000  0.50000000  0.86437000  1.0
  Sn  Sn30  1  0.98578000  0.75000000  0.14332000  1.0
  Sn  Sn31  1  0.99442000  0.25000000  0.14247000  1.0
  C  C32  1  0.58188000  0.24987000  0.28675000  1.0
  O  O33  1  0.46819000  0.25002000  0.31622000  1.0
