# generated using pymatgen
data_Li16In8Ag8CO
_symmetry_space_group_name_H-M   P1
_cell_length_a   6.67495000
_cell_length_b   9.43981000
_cell_length_c   27.07990000
_cell_angle_alpha   90.00000000
_cell_angle_beta   90.00000000
_cell_angle_gamma   90.00000000
_symmetry_Int_Tables_number   1
_chemical_formula_structural   Li16In8Ag8CO
_chemical_formula_sum   'Li16 In8 Ag8 C1 O1'
_cell_volume   1706.31153326
_cell_formula_units_Z   1
loop_
 _symmetry_equiv_pos_site_id
 _symmetry_equiv_pos_as_xyz
  1  'x, y, z'
loop_
 _atom_site_type_symbol
 _atom_site_label
 _atom_site_symmetry_multiplicity
 _atom_site_fract_x
 _atom_site_fract_y
 _atom_site_fract_z
 _atom_site_occupancy
  Li  Li0  1  -0.00000000  0.25000000  0.95643000  1.0
  Li  Li1  1  -0.00000000  0.75000000  0.95643000  1.0
  Li  Li2  1  0.25000000  0.00000000  0.95643000  1.0
  Li  Li3  1  0.25000000  0.50000000  0.95643000  1.0
  Li  Li4  1  0.26530000  0.99999000  0.12776000  1.0
  Li  Li5  1  0.27553000  0.50001000  0.12531000  1.0
  Li  Li6  1  0.48989000  0.99998000  0.03701000  1.0
  Li  Li7  1  0.49807000  0.49999000  0.03636000  1.0
  Li  Li8  1  0.50000000  0.00000000  0.86928000  1.0
  Li  Li9  1  0.50000000  0.50000000  0.86928000  1.0
  Li  Li10  1  0.74279000  0.24954000  0.04456000  1.0
  Li  Li11  1  0.74279000  0.75043000  0.04456000  1.0
  Li  Li12  1  0.75000000  0.25000000  0.86928000  1.0
  Li  Li13  1  0.75000000  0.75000000  0.86928000  1.0
  Li  Li14  1  0.98829000  0.24702000  0.12836000  1.0
  Li  Li15  1  0.98829000  0.75300000  0.12837000  1.0
  In  In16  1  0.00000000  0.00000000  0.86928000  1.0
  In  In17  1  0.00000000  0.50000000  0.86928000  1.0
  In  In18  1  0.00767000  0.50000000  0.04185000  1.0
  In  In19  1  0.00806000  0.99994000  0.04176000  1.0
  In  In20  1  0.50000000  0.25000000  0.95643000  1.0
  In  In21  1  0.50000000  0.75000000  0.95643000  1.0
  In  In22  1  0.50841000  0.74970000  0.14166000  1.0
  In  In23  1  0.50856000  0.25032000  0.14164000  1.0
  Ag  Ag24  1  0.25000000  0.25000000  0.86928000  1.0
  Ag  Ag25  1  0.25000000  0.75000000  0.86928000  1.0
  Ag  Ag26  1  0.26133000  0.25059000  0.04833000  1.0
  Ag  Ag27  1  0.26142000  0.74945000  0.04835000  1.0
  Ag  Ag28  1  0.72363000  0.00005000  0.11967000  1.0
  Ag  Ag29  1  0.72917000  0.49995000  0.12118000  1.0
  Ag  Ag30  1  0.75000000  0.00000000  0.95643000  1.0
  Ag  Ag31  1  0.75000000  0.50000000  0.95643000  1.0
  C  C32  1  0.17137000  0.99998000  0.20001000  1.0
  O  O33  1  0.13807000  0.00001000  0.24157000  1.0
