# generated using pymatgen
data_MgAu
_symmetry_space_group_name_H-M   'P 1'
_cell_length_a   4.71990000
_cell_length_b   6.67495000
_cell_length_c   27.07990000
_cell_angle_alpha   90.00000000
_cell_angle_beta   90.00000000
_cell_angle_gamma   90.00000000
_symmetry_Int_Tables_number   1
_chemical_formula_structural   MgAu
_chemical_formula_sum   'Mg8 Au8'
_cell_volume   853.15486285
_cell_formula_units_Z   8
loop_
 _symmetry_equiv_pos_site_id
 _symmetry_equiv_pos_as_xyz
  1  'x, y, z'
loop_
 _atom_site_type_symbol
 _atom_site_label
 _atom_site_symmetry_multiplicity
 _atom_site_fract_x
 _atom_site_fract_y
 _atom_site_fract_z
 _atom_site_occupancy
  Mg  Mg0  1  0.50000000  0.75000000  0.13072000  1.0
  Mg  Mg1  1  0.00000000  0.75000000  0.04357000  1.0
  Mg  Mg2  1  0.50000000  0.74952000  0.95590000  1.0
  Mg  Mg3  1  0.00000000  0.74946000  0.86870000  1.0
  Mg  Mg4  1  0.50000000  0.25000000  0.13072000  1.0
  Mg  Mg5  1  0.00000000  0.25000000  0.04357000  1.0
  Mg  Mg6  1  0.50000000  0.25048000  0.95590000  1.0
  Mg  Mg7  1  0.00000000  0.25054000  0.86870000  1.0
  Au  Au8  1  0.00000000  0.00000000  0.13072000  1.0
  Au  Au9  1  0.50000000  0.00000000  0.04357000  1.0
  Au  Au10  1  0.00000000  0.00000000  0.95728000  1.0
  Au  Au11  1  0.50000000  0.00000000  0.86981000  1.0
  Au  Au12  1  0.00000000  0.50000000  0.13072000  1.0
  Au  Au13  1  0.50000000  0.50000000  0.04357000  1.0
  Au  Au14  1  0.00000000  0.50000000  0.95728000  1.0
  Au  Au15  1  0.50000000  0.50000000  0.86979000  1.0
