# generated using pymatgen
data_MgAu
_symmetry_space_group_name_H-M   Pmm2
_cell_length_a   4.71990000
_cell_length_b   6.67495000
_cell_length_c   27.07990000
_cell_angle_alpha   90.00000000
_cell_angle_beta   90.00000000
_cell_angle_gamma   90.00000000
_symmetry_Int_Tables_number   25
_chemical_formula_structural   MgAu
_chemical_formula_sum   'Mg8 Au8'
_cell_volume   853.15486285
_cell_formula_units_Z   8
loop_
 _symmetry_equiv_pos_site_id
 _symmetry_equiv_pos_as_xyz
  1  'x, y, z'
  2  '-x, -y, z'
  3  '-x, y, z'
  4  'x, -y, z'
loop_
 _atom_site_type_symbol
 _atom_site_label
 _atom_site_symmetry_multiplicity
 _atom_site_fract_x
 _atom_site_fract_y
 _atom_site_fract_z
 _atom_site_occupancy
  Mg  Mg0  2  0.00000000  0.25000000  0.04357000  1.0
  Mg  Mg1  2  0.00000000  0.25054000  0.86870000  1.0
  Mg  Mg2  2  0.50000000  0.25000000  0.13072000  1.0
  Mg  Mg3  2  0.50000000  0.25048000  0.95590000  1.0
  Au  Au4  1  0.00000000  0.00000000  0.13072000  1.0
  Au  Au5  1  0.00000000  0.00000000  0.95728000  1.0
  Au  Au6  1  0.00000000  0.50000000  0.13072000  1.0
  Au  Au7  1  0.00000000  0.50000000  0.95728000  1.0
  Au  Au8  1  0.50000000  0.00000000  0.04357000  1.0
  Au  Au9  1  0.50000000  0.00000000  0.86981000  1.0
  Au  Au10  1  0.50000000  0.50000000  0.04357000  1.0
  Au  Au11  1  0.50000000  0.50000000  0.86979000  1.0
