# generated using pymatgen
data_Li4Mn4Ge4Pd4CO
_symmetry_space_group_name_H-M   'P 1'
_cell_length_a   6.14713000
_cell_length_b   6.14713000
_cell_length_c   24.61040000
_cell_angle_alpha   90.00000000
_cell_angle_beta   90.00000000
_cell_angle_gamma   90.00000000
_symmetry_Int_Tables_number   1
_chemical_formula_structural   Li4Mn4Ge4Pd4CO
_chemical_formula_sum   'Li4 Mn4 Ge4 Pd4 C1 O1'
_cell_volume   929.95828498
_cell_formula_units_Z   1
loop_
 _symmetry_equiv_pos_site_id
 _symmetry_equiv_pos_as_xyz
  1  'x, y, z'
loop_
 _atom_site_type_symbol
 _atom_site_label
 _atom_site_symmetry_multiplicity
 _atom_site_fract_x
 _atom_site_fract_y
 _atom_site_fract_z
 _atom_site_occupancy
  Li  Li0  1  0.50000000  1.00000000  0.09367000  1
  Li  Li1  1  0.00431000  0.99569000  0.97032000  1
  Li  Li2  1  0.49673000  0.50327000  0.97025000  1
  Li  Li3  1  0.00000000  0.50000000  0.09367000  1
  Mn  Mn4  1  0.25000000  0.75000000  0.03122000  1
  Mn  Mn5  1  0.75051000  0.75068000  0.90199000  1
  Mn  Mn6  1  0.24932000  0.24949000  0.90199000  1
  Mn  Mn7  1  0.75000000  0.25000000  0.03122000  1
  Ge  Ge8  1  0.00000000  0.00000000  0.09367000  1
  Ge  Ge9  1  0.49565000  0.99530000  0.96924000  1
  Ge  Ge10  1  0.00470000  0.50435000  0.96924000  1
  Ge  Ge11  1  0.50000000  0.50000000  0.09367000  1
  Pd  Pd12  1  0.25000000  0.25000000  0.03122000  1
  Pd  Pd13  1  0.75034500  0.24965500  0.91552000  1
  Pd  Pd14  1  0.24969000  0.75031000  0.90315000  1
  Pd  Pd15  1  0.75000000  0.75000000  0.03122000  1
  C  C16  1  0.24896000  0.75104000  0.82385000  1
  O  O17  1  0.24862000  0.75138000  0.77696000  1
