# generated using pymatgen
data_Li8Al8Ni8Pd8C
_symmetry_space_group_name_H-M   Pm
_cell_length_a   5.91240000
_cell_length_b   8.36140000
_cell_length_c   26.27110000
_cell_angle_alpha   90.00000000
_cell_angle_beta   90.00000000
_cell_angle_gamma   90.00000000
_symmetry_Int_Tables_number   6
_chemical_formula_structural   Li8Al8Ni8Pd8C
_chemical_formula_sum   'Li8 Al8 Ni8 Pd8 C1'
_cell_volume   1298.73655906
_cell_formula_units_Z   1
loop_
 _symmetry_equiv_pos_site_id
 _symmetry_equiv_pos_as_xyz
  1  'x, y, z'
  2  'x, -y, z'
loop_
 _atom_site_type_symbol
 _atom_site_label
 _atom_site_symmetry_multiplicity
 _atom_site_fract_x
 _atom_site_fract_y
 _atom_site_fract_z
 _atom_site_occupancy
  Li  Li0  2  0.00000000  0.25000000  0.96022000  1.0
  Li  Li1  2  0.01287000  0.25399000  0.13972000  1.0
  Li  Li2  1  0.50000000  0.00000000  0.88065000  1.0
  Li  Li3  1  0.50000000  0.50000000  0.88065000  1.0
  Li  Li4  1  0.50043000  0.50000000  0.03779000  1.0
  Li  Li5  1  0.50518000  0.00000000  0.03556000  1.0
  Al  Al6  2  0.49551000  0.26041000  0.11844000  1.0
  Al  Al7  2  0.50000000  0.25000000  0.96022000  1.0
  Al  Al8  1  0.00000000  0.00000000  0.88065000  1.0
  Al  Al9  1  0.00000000  0.50000000  0.88065000  1.0
  Al  Al10  1  0.99244000  0.00000000  0.04146000  1.0
  Al  Al11  1  0.99958000  0.50000000  0.03918000  1.0
  Ni  Ni12  2  0.75000000  0.25000000  0.88065000  1.0
  Ni  Ni13  2  0.75250000  0.24771000  0.04109000  1.0
  Ni  Ni14  1  0.25000000  0.00000000  0.96022000  1.0
  Ni  Ni15  1  0.25000000  0.50000000  0.96022000  1.0
  Ni  Ni16  1  0.26211000  0.50000000  0.11190000  1.0
  Ni  Ni17  1  0.28301000  0.00000000  0.11294000  1.0
  Pd  Pd18  2  0.24309000  0.24637000  0.03988000  1.0
  Pd  Pd19  2  0.25000000  0.25000000  0.88065000  1.0
  Pd  Pd20  1  0.71908000  0.00000000  0.12070000  1.0
  Pd  Pd21  1  0.74875000  0.50000000  0.11572000  1.0
  Pd  Pd22  1  0.75000000  0.00000000  0.96022000  1.0
  Pd  Pd23  1  0.75000000  0.50000000  0.96022000  1.0
  C  C24  1  0.02876000  0.00000000  0.14294000  1.0
