# generated using pymatgen
data_Ti12Sn4CO
_symmetry_space_group_name_H-M   'P 1'
_cell_length_a   8.35210000
_cell_length_b   5.90582000
_cell_length_c   24.42940000
_cell_angle_alpha   90.00000000
_cell_angle_beta   90.00000000
_cell_angle_gamma   90.00000000
_symmetry_Int_Tables_number   1
_chemical_formula_structural   Ti12Sn4CO
_chemical_formula_sum   'Ti12 Sn4 C1 O1'
_cell_volume   1205.00456539
_cell_formula_units_Z   1
loop_
 _symmetry_equiv_pos_site_id
 _symmetry_equiv_pos_as_xyz
  1  'x, y, z'
loop_
 _atom_site_type_symbol
 _atom_site_label
 _atom_site_symmetry_multiplicity
 _atom_site_fract_x
 _atom_site_fract_y
 _atom_site_fract_z
 _atom_site_occupancy
  Ti  Ti0  1  0.75000000  0.50000000  0.90934000  1.0
  Ti  Ti1  1  0.50000000  0.25000000  0.96978000  1.0
  Ti  Ti2  1  0.50000000  0.75000000  0.96978000  1.0
  Ti  Ti3  1  0.74544000  0.00265000  0.02848000  1.0
  Ti  Ti4  1  0.50000000  0.75989000  0.08840000  1.0
  Ti  Ti5  1  0.50000000  0.25920000  0.09043000  1.0
  Ti  Ti6  1  0.25000000  0.50000000  0.90934000  1.0
  Ti  Ti7  1  0.00000000  0.25000000  0.96978000  1.0
  Ti  Ti8  1  0.00000000  0.75000000  0.96978000  1.0
  Ti  Ti9  1  0.25456000  0.00265000  0.02848000  1.0
  Ti  Ti10  1  0.00000000  0.77541000  0.08075000  1.0
  Ti  Ti11  1  0.00000000  0.22286000  0.08061000  1.0
  Sn  Sn12  1  0.75000000  0.00000000  0.90934000  1.0
  Sn  Sn13  1  0.74876000  0.50202000  0.03122000  1.0
  Sn  Sn14  1  0.25000000  0.00000000  0.90934000  1.0
  Sn  Sn15  1  0.25124000  0.50202000  0.03122000  1.0
  C  C16  1  0.50000000  0.53373000  0.14777000  1.0
  O  O17  1  0.50000000  0.35122000  0.17284000  1.0
