# generated using pymatgen
data_Ti8Ni16Sb8CO
_symmetry_space_group_name_H-M   'P 1'
_cell_length_a   6.14873000
_cell_length_b   8.69561000
_cell_length_c   26.52170000
_cell_angle_alpha   90.00000000
_cell_angle_beta   90.00000000
_cell_angle_gamma   90.00000000
_symmetry_Int_Tables_number   1
_chemical_formula_structural   Ti8Ni16Sb8CO
_chemical_formula_sum   'Ti8 Ni16 Sb8 C1 O1'
_cell_volume   1418.03462199
_cell_formula_units_Z   1
loop_
 _symmetry_equiv_pos_site_id
 _symmetry_equiv_pos_as_xyz
  1  'x, y, z'
loop_
 _atom_site_type_symbol
 _atom_site_label
 _atom_site_symmetry_multiplicity
 _atom_site_fract_x
 _atom_site_fract_y
 _atom_site_fract_z
 _atom_site_occupancy
  Ti  Ti0  1  0.00000000  0.00000000  0.87705000  1.0
  Ti  Ti1  1  0.50000000  0.25000000  0.95902000  1.0
  Ti  Ti2  1  0.50000000  0.75000000  0.95902000  1.0
  Ti  Ti3  1  0.00000000  0.50000000  0.87705000  1.0
  Ti  Ti4  1  0.00067000  0.49998000  0.04133000  1.0
  Ti  Ti5  1  0.50149000  0.74673000  0.11953000  1.0
  Ti  Ti6  1  0.50153000  0.25333000  0.11951000  1.0
  Ti  Ti7  1  0.00299000  0.99997000  0.04177000  1.0
  Ni  Ni8  1  0.25000000  0.00000000  0.95902000  1.0
  Ni  Ni9  1  0.75000000  0.50000000  0.95902000  1.0
  Ni  Ni10  1  0.75000000  0.00000000  0.95902000  1.0
  Ni  Ni11  1  0.25000000  0.50000000  0.95902000  1.0
  Ni  Ni12  1  0.75000000  0.75000000  0.87705000  1.0
  Ni  Ni13  1  0.25000000  0.25000000  0.87705000  1.0
  Ni  Ni14  1  0.25000000  0.75000000  0.87705000  1.0
  Ni  Ni15  1  0.75000000  0.25000000  0.87705000  1.0
  Ni  Ni16  1  0.27785000  0.50011000  0.11609000  1.0
  Ni  Ni17  1  0.75412000  0.00003000  0.11306000  1.0
  Ni  Ni18  1  0.71799000  0.50005000  0.11601000  1.0
  Ni  Ni19  1  0.26740000  0.00010000  0.12650000  1.0
  Ni  Ni20  1  0.77229000  0.24981000  0.04624000  1.0
  Ni  Ni21  1  0.22945000  0.75177000  0.04911000  1.0
  Ni  Ni22  1  0.22948000  0.24812000  0.04912000  1.0
  Ni  Ni23  1  0.77233000  0.75010000  0.04623000  1.0
  Sb  Sb24  1  0.00000000  0.75000000  0.95902000  1.0
  Sb  Sb25  1  0.50000000  0.00000000  0.87705000  1.0
  Sb  Sb26  1  0.00000000  0.25000000  0.95902000  1.0
  Sb  Sb27  1  0.50000000  0.50000000  0.87705000  1.0
  Sb  Sb28  1  0.99358000  0.25963000  0.13518000  1.0
  Sb  Sb29  1  0.49869000  0.49994000  0.03634000  1.0
  Sb  Sb30  1  0.99362000  0.74045000  0.13519000  1.0
  Sb  Sb31  1  0.49390000  0.99998000  0.03901000  1.0
  C  C32  1  0.39144000  0.00009000  0.18629000  1.0
  O  O33  1  0.44505000  0.00014000  0.22843000  1.0
