# generated using pymatgen
data_Zr8In8Au16CO
_symmetry_space_group_name_H-M   Pm
_cell_length_a   9.71577000
_cell_length_b   6.87009000
_cell_length_c   27.28680000
_cell_angle_alpha   90.00000000
_cell_angle_beta   90.00000000
_cell_angle_gamma   90.00000000
_symmetry_Int_Tables_number   6
_chemical_formula_structural   Zr8In8Au16CO
_chemical_formula_sum   'Zr8 In8 Au16 C1 O1'
_cell_volume   1821.34517449
_cell_formula_units_Z   1
loop_
 _symmetry_equiv_pos_site_id
 _symmetry_equiv_pos_as_xyz
  1  'x, y, z'
  2  'x, -y, z'
loop_
 _atom_site_type_symbol
 _atom_site_label
 _atom_site_symmetry_multiplicity
 _atom_site_fract_x
 _atom_site_fract_y
 _atom_site_fract_z
 _atom_site_occupancy
  Zr  Zr0  1  0.00000000  0.00000000  0.86648000  1.0
  Zr  Zr1  1  0.00128000  0.00000000  0.04721000  1.0
  Zr  Zr2  1  0.25000000  0.50000000  0.12604000  1.0
  Zr  Zr3  1  0.25000000  0.50000000  0.95549000  1.0
  Zr  Zr4  1  0.49872000  0.00000000  0.04721000  1.0
  Zr  Zr5  1  0.50000000  0.00000000  0.86648000  1.0
  Zr  Zr6  1  0.75000000  0.50000000  0.12644000  1.0
  Zr  Zr7  1  0.75000000  0.50000000  0.95549000  1.0
  In  In8  1  0.00000000  0.50000000  0.86648000  1.0
  In  In9  1  0.25000000  0.00000000  0.14380000  1.0
  In  In10  1  0.25000000  0.00000000  0.95549000  1.0
  In  In11  1  0.50000000  0.50000000  0.86648000  1.0
  In  In12  1  0.50143000  0.50000000  0.04284000  1.0
  In  In13  1  0.75000000  0.00000000  0.14553000  1.0
  In  In14  1  0.75000000  0.00000000  0.95549000  1.0
  In  In15  1  0.99857000  0.50000000  0.04284000  1.0
  Au  Au16  2  0.00000000  0.25000000  0.95549000  1.0
  Au  Au17  2  0.00027000  0.26776000  0.13701000  1.0
  Au  Au18  2  0.25000000  0.24034000  0.04458000  1.0
  Au  Au19  2  0.25000000  0.25000000  0.86648000  1.0
  Au  Au20  2  0.49973000  0.26776000  0.13701000  1.0
  Au  Au21  2  0.50000000  0.25000000  0.95549000  1.0
  Au  Au22  2  0.75000000  0.23743000  0.04552000  1.0
  Au  Au23  2  0.75000000  0.25000000  0.86648000  1.0
  C  C24  1  0.24993000  0.00000000  0.28717000  1.0
  O  O25  1  0.25000000  0.00000000  0.32876000  1.0
