# generated using pymatgen
data_LiScInGa
_symmetry_space_group_name_H-M   Pm
_cell_length_a   6.04935000
_cell_length_b   4.18659000
_cell_length_c   24.52450000
_cell_angle_alpha   90.00000000
_cell_angle_beta   90.00000000
_cell_angle_gamma   90.00000000
_symmetry_Int_Tables_number   6
_chemical_formula_structural   LiScInGa
_chemical_formula_sum   'Li2 Sc2 In2 Ga2'
_cell_volume   621.11112194
_cell_formula_units_Z   2
loop_
 _symmetry_equiv_pos_site_id
 _symmetry_equiv_pos_as_xyz
  1  'x, y, z'
  2  'x, -y, z'
loop_
 _atom_site_type_symbol
 _atom_site_label
 _atom_site_symmetry_multiplicity
 _atom_site_fract_x
 _atom_site_fract_y
 _atom_site_fract_z
 _atom_site_occupancy
  Li  Li0  1  0.19428000  0.50000000  0.90776000  1.0
  Li  Li1  1  0.74539500  0.50000000  0.03882500  1.0
  Sc  Sc2  1  0.24229500  0.50000000  0.03148000  1.0
  Sc  Sc3  1  0.69428000  0.50000000  0.90776000  1.0
  In  In4  1  0.50836000  0.00000000  0.09667500  1.0
  In  In5  1  0.96285000  0.00000000  0.96925000  1.0
  Ga  Ga6  1  0.46285000  0.00000000  0.96925000  1.0
  Ga  Ga7  1  0.99400500  0.00000000  0.08846000  1.0
