# generated using pymatgen
data_YSnPd2
_symmetry_space_group_name_H-M   Pmm2
_cell_length_a   4.84031500
_cell_length_b   6.84524000
_cell_length_c   27.26050000
_cell_angle_alpha   90.00000000
_cell_angle_beta   90.00000000
_cell_angle_gamma   90.00000000
_symmetry_Int_Tables_number   25
_chemical_formula_structural   YSnPd2
_chemical_formula_sum   'Y4 Sn4 Pd8'
_cell_volume   903.22535917
_cell_formula_units_Z   4
loop_
 _symmetry_equiv_pos_site_id
 _symmetry_equiv_pos_as_xyz
  1  'x, y, z'
  2  '-x, -y, z'
  3  '-x, y, z'
  4  'x, -y, z'
loop_
 _atom_site_type_symbol
 _atom_site_label
 _atom_site_symmetry_multiplicity
 _atom_site_fract_x
 _atom_site_fract_y
 _atom_site_fract_z
 _atom_site_occupancy
  Y  Y0  1  0.00000000  0.00000000  0.13317000  1.0
  Y  Y1  1  0.00000000  0.00000000  0.95665000  1.0
  Y  Y2  1  0.50000000  0.50000000  0.04439000  1.0
  Y  Y3  1  0.50000000  0.50000000  0.86352000  1.0
  Sn  Sn4  1  0.00000000  0.50000000  0.13317000  1.0
  Sn  Sn5  1  0.00000000  0.50000000  0.95321000  1.0
  Sn  Sn6  1  0.50000000  0.00000000  0.04439000  1.0
  Sn  Sn7  1  0.50000000  0.00000000  0.86610000  1.0
  Pd  Pd8  2  0.00000000  0.23703000  0.87130000  1.0
  Pd  Pd9  2  0.00000000  0.25000000  0.04439000  1.0
  Pd  Pd10  2  0.50000000  0.25000000  0.13317000  1.0
  Pd  Pd11  2  0.50000000  0.26435000  0.95178000  1.0
