# generated using pymatgen
data_Hf8Ni16Sn8C
_symmetry_space_group_name_H-M   'P 1'
_cell_length_a   8.90130000
_cell_length_b   6.29417000
_cell_length_c   26.67600000
_cell_angle_alpha   90.00000000
_cell_angle_beta   90.00000000
_cell_angle_gamma   90.00000000
_symmetry_Int_Tables_number   1
_chemical_formula_structural   Hf8Ni16Sn8C
_chemical_formula_sum   'Hf8 Ni16 Sn8 C1'
_cell_volume   1494.55745665
_cell_formula_units_Z   1
loop_
 _symmetry_equiv_pos_site_id
 _symmetry_equiv_pos_as_xyz
  1  'x, y, z'
loop_
 _atom_site_type_symbol
 _atom_site_label
 _atom_site_symmetry_multiplicity
 _atom_site_fract_x
 _atom_site_fract_y
 _atom_site_fract_z
 _atom_site_occupancy
  Hf  Hf0  1  0.75001000  0.00000000  0.12513000  1.0
  Hf  Hf1  1  0.00000000  0.50000000  0.04171000  1.0
  Hf  Hf2  1  0.50000000  0.50000000  0.04171000  1.0
  Hf  Hf3  1  0.24999000  0.00000000  0.12513000  1.0
  Hf  Hf4  1  0.25450000  0.99097000  0.95825000  1.0
  Hf  Hf5  1  0.50000000  0.49412000  0.87639000  1.0
  Hf  Hf6  1  0.00000000  0.54147000  0.88232000  1.0
  Hf  Hf7  1  0.74550000  0.99097000  0.95825000  1.0
  Ni  Ni8  1  0.75001000  0.25000000  0.04171000  1.0
  Ni  Ni9  1  0.25001000  0.75000000  0.04171000  1.0
  Ni  Ni10  1  0.74999000  0.75000000  0.04171000  1.0
  Ni  Ni11  1  0.24999000  0.25000000  0.04171000  1.0
  Ni  Ni12  1  0.50000000  0.75000000  0.12513000  1.0
  Ni  Ni13  1  0.00000000  0.25000000  0.12513000  1.0
  Ni  Ni14  1  0.50000000  0.25000000  0.12513000  1.0
  Ni  Ni15  1  0.00000000  0.75000000  0.12513000  1.0
  Ni  Ni16  1  0.22032000  0.20469000  0.87793000  1.0
  Ni  Ni17  1  0.74000000  0.75100000  0.87905000  1.0
  Ni  Ni18  1  0.26000000  0.75100000  0.87905000  1.0
  Ni  Ni19  1  0.77968000  0.20469000  0.87793000  1.0
  Ni  Ni20  1  0.00000000  0.76416000  0.96225000  1.0
  Ni  Ni21  1  0.50000000  0.26041000  0.95796000  1.0
  Ni  Ni22  1  0.00000000  0.19955000  0.94558000  1.0
  Ni  Ni23  1  0.50000000  0.73472000  0.95439000  1.0
  Sn  Sn24  1  0.50000000  0.00000000  0.04171000  1.0
  Sn  Sn25  1  0.75001000  0.50000000  0.12513000  1.0
  Sn  Sn26  1  0.00000000  1.00000000  0.04171000  1.0
  Sn  Sn27  1  0.24999000  0.50000000  0.12513000  1.0
  Sn  Sn28  1  0.00000000  0.92999000  0.82452000  1.0
  Sn  Sn29  1  0.24590000  0.49018000  0.95853000  1.0
  Sn  Sn30  1  0.50000000  0.01036000  0.86700000  1.0
  Sn  Sn31  1  0.75410000  0.49018000  0.95853000  1.0
  C  C32  1  0.00000000  0.21989000  0.86732000  1.0
