# generated using pymatgen
data_Hf8Ni16Sn8C
_symmetry_space_group_name_H-M   Pm
_cell_length_a   6.29417000
_cell_length_b   8.90130000
_cell_length_c   26.67600000
_cell_angle_alpha   90.00000000
_cell_angle_beta   90.00000000
_cell_angle_gamma   90.00000000
_symmetry_Int_Tables_number   6
_chemical_formula_structural   Hf8Ni16Sn8C
_chemical_formula_sum   'Hf8 Ni16 Sn8 C1'
_cell_volume   1494.55745665
_cell_formula_units_Z   1
loop_
 _symmetry_equiv_pos_site_id
 _symmetry_equiv_pos_as_xyz
  1  'x, y, z'
  2  'x, -y, z'
loop_
 _atom_site_type_symbol
 _atom_site_label
 _atom_site_symmetry_multiplicity
 _atom_site_fract_x
 _atom_site_fract_y
 _atom_site_fract_z
 _atom_site_occupancy
  Hf  Hf0  2  0.00000000  0.24999000  0.87487000  1.0
  Hf  Hf1  2  0.99097000  0.25450000  0.04175000  1.0
  Hf  Hf2  1  0.49412000  0.50000000  0.12361000  1.0
  Hf  Hf3  1  0.50000000  0.00000000  0.95829000  1.0
  Hf  Hf4  1  0.50000000  0.50000000  0.95829000  1.0
  Hf  Hf5  1  0.54147000  0.00000000  0.11768000  1.0
  Ni  Ni6  2  0.20469000  0.22032000  0.12207000  1.0
  Ni  Ni7  2  0.25000000  0.24999000  0.95829000  1.0
  Ni  Ni8  2  0.75000000  0.25001000  0.95829000  1.0
  Ni  Ni9  2  0.75100000  0.26000000  0.12095000  1.0
  Ni  Ni10  1  0.19955000  0.00000000  0.05442000  1.0
  Ni  Ni11  1  0.25000000  0.00000000  0.87487000  1.0
  Ni  Ni12  1  0.25000000  0.50000000  0.87487000  1.0
  Ni  Ni13  1  0.26041000  0.50000000  0.04204000  1.0
  Ni  Ni14  1  0.73472000  0.50000000  0.04561000  1.0
  Ni  Ni15  1  0.75000000  0.00000000  0.87487000  1.0
  Ni  Ni16  1  0.75000000  0.50000000  0.87487000  1.0
  Ni  Ni17  1  0.76416000  0.00000000  0.03775000  1.0
  Sn  Sn18  2  0.49018000  0.24590000  0.04147000  1.0
  Sn  Sn19  2  0.50000000  0.24999000  0.87487000  1.0
  Sn  Sn20  1  -0.00000000  0.00000000  0.95829000  1.0
  Sn  Sn21  1  0.00000000  0.50000000  0.95829000  1.0
  Sn  Sn22  1  0.01036000  0.50000000  0.13300000  1.0
  Sn  Sn23  1  0.92999000  0.00000000  0.17548000  1.0
  C  C24  1  0.21989000  0.00000000  0.13268000  1.0
