# generated using pymatgen
data_Si16Rh16C
_symmetry_space_group_name_H-M   Pm
_cell_length_a   8.42507000
_cell_length_b   5.95743000
_cell_length_c   26.31880000
_cell_angle_alpha   90.00000000
_cell_angle_beta   90.00000000
_cell_angle_gamma   90.00000000
_symmetry_Int_Tables_number   6
_chemical_formula_structural   Si16Rh16C
_chemical_formula_sum   'Si16 Rh16 C1'
_cell_volume   1320.98701863
_cell_formula_units_Z   1
loop_
 _symmetry_equiv_pos_site_id
 _symmetry_equiv_pos_as_xyz
  1  'x, y, z'
  2  'x, -y, z'
loop_
 _atom_site_type_symbol
 _atom_site_label
 _atom_site_symmetry_multiplicity
 _atom_site_fract_x
 _atom_site_fract_y
 _atom_site_fract_z
 _atom_site_occupancy
  Si  Si0  1  0.00000000  0.00000000  0.95999000  1.0
  Si  Si1  1  0.00000000  0.50000000  0.95999000  1.0
  Si  Si2  1  0.00855000  0.00000000  0.11616000  1.0
  Si  Si3  1  0.25000000  0.00000000  0.87996000  1.0
  Si  Si4  1  0.25000000  0.50000000  0.87996000  1.0
  Si  Si5  1  0.25434000  0.00000000  0.04402000  1.0
  Si  Si6  1  0.25453000  0.50000000  0.04281000  1.0
  Si  Si7  1  0.40076000  0.50000000  0.18488000  1.0
  Si  Si8  1  0.50000000  0.00000000  0.95999000  1.0
  Si  Si9  1  0.50000000  0.50000000  0.95999000  1.0
  Si  Si10  1  0.51061000  0.00000000  0.11715000  1.0
  Si  Si11  1  0.75000000  0.00000000  0.87996000  1.0
  Si  Si12  1  0.75000000  0.50000000  0.87996000  1.0
  Si  Si13  1  0.75262000  0.50000000  0.04465000  1.0
  Si  Si14  1  0.75378000  0.00000000  0.04272000  1.0
  Si  Si15  1  0.98549000  0.50000000  0.15233000  1.0
  Rh  Rh16  2  0.00000000  0.25002000  0.87996000  1.0
  Rh  Rh17  2  0.00282000  0.24582000  0.03447000  1.0
  Rh  Rh18  2  0.24814000  0.26171000  0.11524000  1.0
  Rh  Rh19  2  0.25000000  0.25002000  0.95999000  1.0
  Rh  Rh20  2  0.50000000  0.25002000  0.87996000  1.0
  Rh  Rh21  2  0.50776000  0.24687000  0.03883000  1.0
  Rh  Rh22  2  0.75000000  0.25002000  0.95999000  1.0
  Rh  Rh23  2  0.77580000  0.24134000  0.11531000  1.0
  C  C24  1  0.18514000  0.50000000  0.17999000  1.0
