# generated using pymatgen
data_Li8Al16Rh8C
_symmetry_space_group_name_H-M   Pmm2
_cell_length_a   6.03986000
_cell_length_b   8.54165000
_cell_length_c   26.40620000
_cell_angle_alpha   90.00000000
_cell_angle_beta   90.00000000
_cell_angle_gamma   90.00000000
_symmetry_Int_Tables_number   25
_chemical_formula_structural   Li8Al16Rh8C
_chemical_formula_sum   'Li8 Al16 Rh8 C1'
_cell_volume   1362.30563276
_cell_formula_units_Z   1
loop_
 _symmetry_equiv_pos_site_id
 _symmetry_equiv_pos_as_xyz
  1  'x, y, z'
  2  '-x, -y, z'
  3  '-x, y, z'
  4  'x, -y, z'
loop_
 _atom_site_type_symbol
 _atom_site_label
 _atom_site_symmetry_multiplicity
 _atom_site_fract_x
 _atom_site_fract_y
 _atom_site_fract_z
 _atom_site_occupancy
  Li  Li0  2  0.50000000  0.24178000  0.15015000  1.0
  Li  Li1  2  0.50000000  0.25000000  0.95957000  1.0
  Li  Li2  1  0.00000000  0.00000000  0.03883000  1.0
  Li  Li3  1  0.00000000  0.00000000  0.87870000  1.0
  Li  Li4  1  0.00000000  0.50000000  0.03664000  1.0
  Li  Li5  1  0.00000000  0.50000000  0.87870000  1.0
  Al  Al6  4  0.25000000  0.25000000  0.87870000  1.0
  Al  Al7  4  0.25584000  0.24868000  0.04158000  1.0
  Al  Al8  2  0.21791000  0.00000000  0.12347000  1.0
  Al  Al9  2  0.24296000  0.50000000  0.11796000  1.0
  Al  Al10  2  0.25000000  0.00000000  0.95957000  1.0
  Al  Al11  2  0.25000000  0.50000000  0.95957000  1.0
  Rh  Rh12  2  0.00000000  0.25000000  0.95957000  1.0
  Rh  Rh13  2  0.00000000  0.25881000  0.11464000  1.0
  Rh  Rh14  1  0.50000000  0.00000000  0.04013000  1.0
  Rh  Rh15  1  0.50000000  0.00000000  0.87870000  1.0
  Rh  Rh16  1  0.50000000  0.50000000  0.03868000  1.0
  Rh  Rh17  1  0.50000000  0.50000000  0.87870000  1.0
  C  C18  1  0.50000000  0.00000000  0.15143000  1.0
