# generated using pymatgen
data_Li16In8Rh8C
_symmetry_space_group_name_H-M   'P 1'
_cell_length_a   8.97987000
_cell_length_b   6.34973000
_cell_length_c   26.73490000
_cell_angle_alpha   90.00000000
_cell_angle_beta   90.00000000
_cell_angle_gamma   90.00000000
_symmetry_Int_Tables_number   1
_chemical_formula_structural   Li16In8Rh8C
_chemical_formula_sum   'Li16 In8 Rh8 C1'
_cell_volume   1524.41731254
_cell_formula_units_Z   1
loop_
 _symmetry_equiv_pos_site_id
 _symmetry_equiv_pos_as_xyz
  1  'x, y, z'
loop_
 _atom_site_type_symbol
 _atom_site_label
 _atom_site_symmetry_multiplicity
 _atom_site_fract_x
 _atom_site_fract_y
 _atom_site_fract_z
 _atom_site_occupancy
  Li  Li0  1  0.50000000  0.00000000  0.04199000  1.0
  Li  Li1  1  0.75000000  0.50000000  0.12596000  1.0
  Li  Li2  1  0.00000000  0.00000000  0.04199000  1.0
  Li  Li3  1  0.25000000  0.50000000  0.12596000  1.0
  Li  Li4  1  0.00000000  0.25000000  0.12596000  1.0
  Li  Li5  1  0.50000000  0.25000000  0.12596000  1.0
  Li  Li6  1  0.25000000  0.75000000  0.04199000  1.0
  Li  Li7  1  0.75000000  0.75000000  0.04199000  1.0
  Li  Li8  1  0.00000000  0.94995000  0.85321000  1.0
  Li  Li9  1  0.24269000  0.49980000  0.95523000  1.0
  Li  Li10  1  0.50000000  0.01440000  0.87807000  1.0
  Li  Li11  1  0.75731000  0.49980000  0.95523000  1.0
  Li  Li12  1  0.50000000  0.25060000  0.96185000  1.0
  Li  Li13  1  0.00000000  0.24328000  0.95090000  1.0
  Li  Li14  1  0.73299000  0.72106000  0.86650000  1.0
  Li  Li15  1  0.26701000  0.72106000  0.86650000  1.0
  In  In16  1  0.75000000  0.25000000  0.04199000  1.0
  In  In17  1  0.25000000  0.25000000  0.04199000  1.0
  In  In18  1  0.50000000  0.75000000  0.12596000  1.0
  In  In19  1  0.00000000  0.75000000  0.12596000  1.0
  In  In20  1  0.24862000  0.25067000  0.86590000  1.0
  In  In21  1  0.75138000  0.25067000  0.86590000  1.0
  In  In22  1  0.00000000  0.76958000  0.96149000  1.0
  In  In23  1  0.50000000  0.74967000  0.95935000  1.0
  Rh  Rh24  1  0.75000000  0.00000000  0.12596000  1.0
  Rh  Rh25  1  0.00000000  0.50000000  0.04199000  1.0
  Rh  Rh26  1  0.50000000  0.50000000  0.04199000  1.0
  Rh  Rh27  1  0.25000000  0.00000000  0.12596000  1.0
  Rh  Rh28  1  0.25323000  0.00412000  0.95338000  1.0
  Rh  Rh29  1  0.50000000  0.46849000  0.88422000  1.0
  Rh  Rh30  1  0.00000000  0.53468000  0.87759000  1.0
  Rh  Rh31  1  0.74677000  0.00412000  0.95338000  1.0
  C  C32  1  0.00000000  0.27132000  0.84869000  1.0
