# generated using pymatgen
data_Sn16CO
_symmetry_space_group_name_H-M   'P 1'
_cell_length_a   7.64519000
_cell_length_b   7.64519000
_cell_length_c   25.73390000
_cell_angle_alpha   90.00000000
_cell_angle_beta   90.00000000
_cell_angle_gamma   90.00000000
_symmetry_Int_Tables_number   1
_chemical_formula_structural   Sn16CO
_chemical_formula_sum   'Sn16 C1 O1'
_cell_volume   1504.11892323
_cell_formula_units_Z   1
loop_
 _symmetry_equiv_pos_site_id
 _symmetry_equiv_pos_as_xyz
  1  'x, y, z'
loop_
 _atom_site_type_symbol
 _atom_site_label
 _atom_site_symmetry_multiplicity
 _atom_site_fract_x
 _atom_site_fract_y
 _atom_site_fract_z
 _atom_site_occupancy
  Sn  Sn0  1  0.75000000  0.75000000  0.88859000  1.0
  Sn  Sn1  1  0.00000000  0.00000000  0.96286000  1.0
  Sn  Sn2  1  0.75000000  0.75000000  0.03714000  1.0
  Sn  Sn3  1  0.00000000  0.00000000  0.11141000  1.0
  Sn  Sn4  1  0.75000000  0.25000000  0.88859000  1.0
  Sn  Sn5  1  0.00000000  0.50000000  0.96286000  1.0
  Sn  Sn6  1  0.75000000  0.25000000  0.03714000  1.0
  Sn  Sn7  1  0.00000000  0.50000000  0.11141000  1.0
  Sn  Sn8  1  0.25000000  0.75000000  0.88859000  1.0
  Sn  Sn9  1  0.50000000  0.00000000  0.96286000  1.0
  Sn  Sn10  1  0.25000000  0.75000000  0.03714000  1.0
  Sn  Sn11  1  0.50000000  0.00000000  0.11141000  1.0
  Sn  Sn12  1  0.25000000  0.25000000  0.88859000  1.0
  Sn  Sn13  1  0.50000000  0.50000000  0.96286000  1.0
  Sn  Sn14  1  0.25000000  0.25000000  0.03714000  1.0
  Sn  Sn15  1  0.50000000  0.50000000  0.11141000  1.0
  C  C16  1  0.00000000  0.00000000  0.18524000  1.0
  O  O17  1  0.00000000  0.00000000  0.22993000  1.0
