data_image0
_chemical_formula_structural       Sc4Al12CO
_chemical_formula_sum              "Sc4 Al12 C1 O1"
_cell_length_a       8.18271
_cell_length_b       5.78605
_cell_length_c       24.3395
_cell_angle_alpha    90
_cell_angle_beta     90
_cell_angle_gamma    90

_space_group_name_H-M_alt    "P 1"
_space_group_IT_number       1

loop_
  _space_group_symop_operation_xyz
  'x, y, z'

loop_
  _atom_site_type_symbol
  _atom_site_label
  _atom_site_symmetry_multiplicity
  _atom_site_fract_x
  _atom_site_fract_y
  _atom_site_fract_z
  _atom_site_occupancy
  Sc  Sc1       1.0  0.00000  0.00000  0.91085  1.0000
  Sc  Sc2       1.0  0.99937  0.49849  0.03100  1.0000
  Sc  Sc3       1.0  0.50000  0.00000  0.91085  1.0000
  Sc  Sc4       1.0  0.50064  0.49848  0.03098  1.0000
  Al  Al1       1.0  0.00000  0.50000  0.91085  1.0000
  Al  Al2       1.0  0.25000  0.75000  0.97028  1.0000
  Al  Al3       1.0  0.25000  0.25000  0.97028  1.0000
  Al  Al4       1.0  0.00189  0.99809  0.03988  1.0000
  Al  Al5       1.0  0.25001  0.24451  0.08961  1.0000
  Al  Al6       1.0  0.25002  0.75170  0.08674  1.0000
  Al  Al7       1.0  0.50000  0.50000  0.91085  1.0000
  Al  Al8       1.0  0.75000  0.75000  0.97028  1.0000
  Al  Al9       1.0  0.75000  0.25000  0.97028  1.0000
  Al  Al10      1.0  0.49811  0.99806  0.03988  1.0000
  Al  Al11      1.0  0.74999  0.23941  0.08772  1.0000
  Al  Al12      1.0  0.74998  0.75729  0.08751  1.0000
  C   C1        1.0  0.25001  0.23988  0.17223  1.0000
  O   O1        1.0  0.25000  0.24328  0.21949  1.0000
