# generated using pymatgen
data_Sc4Al12CO
_symmetry_space_group_name_H-M   Pm
_cell_length_a   5.78605000
_cell_length_b   8.18271000
_cell_length_c   24.33950000
_cell_angle_alpha   90.00000000
_cell_angle_beta   90.00000000
_cell_angle_gamma   90.00000000
_symmetry_Int_Tables_number   6
_chemical_formula_structural   Sc4Al12CO
_chemical_formula_sum   'Sc4 Al12 C1 O1'
_cell_volume   1152.36748143
_cell_formula_units_Z   1
loop_
 _symmetry_equiv_pos_site_id
 _symmetry_equiv_pos_as_xyz
  1  'x, y, z'
  2  'x, -y, z'
loop_
 _atom_site_type_symbol
 _atom_site_label
 _atom_site_symmetry_multiplicity
 _atom_site_fract_x
 _atom_site_fract_y
 _atom_site_fract_z
 _atom_site_occupancy
  Sc  Sc0  2  0.00000000  0.24999000  0.08915000  1.0
  Sc  Sc1  2  0.50151000  0.24936000  0.96900000  1.0
  Al  Al2  2  0.00191000  0.25188000  0.96012000  1.0
  Al  Al3  2  0.50000000  0.24999000  0.08915000  1.0
  Al  Al4  1  0.24271000  0.00000000  0.91249000  1.0
  Al  Al5  1  0.24830000  0.50000000  0.91326000  1.0
  Al  Al6  1  0.25000000  0.00000000  0.02972000  1.0
  Al  Al7  1  0.25000000  0.50000000  0.02972000  1.0
  Al  Al8  1  0.75000000  0.00000000  0.02972000  1.0
  Al  Al9  1  0.75000000  0.50000000  0.02972000  1.0
  Al  Al10  1  0.75549000  0.50000000  0.91039000  1.0
  Al  Al11  1  0.76059000  0.00000000  0.91228000  1.0
  C  C12  1  0.76012000  0.50000000  0.82777000  1.0
  O  O13  1  0.75672000  0.50000000  0.78051000  1.0
