data_image0
_chemical_formula_structural       Li4Ga4Cu4Pd4CO
_chemical_formula_sum              "Li4 Ga4 Cu4 Pd4 C1 O1"
_cell_length_a       6.02537
_cell_length_b       6.02537
_cell_length_c       24.519
_cell_angle_alpha    90
_cell_angle_beta     90
_cell_angle_gamma    90

_space_group_name_H-M_alt    "P 1"
_space_group_IT_number       1

loop_
  _space_group_symop_operation_xyz
  'x, y, z'

loop_
  _atom_site_type_symbol
  _atom_site_label
  _atom_site_symmetry_multiplicity
  _atom_site_fract_x
  _atom_site_fract_y
  _atom_site_fract_z
  _atom_site_occupancy
  Li  Li1       1.0  0.24668  0.25318  0.03335  1.0000
  Li  Li2       1.0  0.25000  0.75000  0.90785  1.0000
  Li  Li3       1.0  0.75000  0.25000  0.90785  1.0000
  Li  Li4       1.0  0.75332  0.74682  0.03335  1.0000
  Ga  Ga1       1.0  0.75314  0.25281  0.03316  1.0000
  Ga  Ga2       1.0  0.75000  0.75000  0.90785  1.0000
  Ga  Ga3       1.0  0.25000  0.25000  0.90785  1.0000
  Ga  Ga4       1.0  0.24686  0.74719  0.03316  1.0000
  Cu  Cu1       1.0  1.00000  1.00000  0.09006  1.0000
  Cu  Cu2       1.0  0.00000  0.50000  0.96928  1.0000
  Cu  Cu3       1.0  0.50000  0.00000  0.96928  1.0000
  Cu  Cu4       1.0  0.50000  0.50000  0.09035  1.0000
  Pd  Pd1       1.0  1.00000  0.50000  0.09896  1.0000
  Pd  Pd2       1.0  0.00000  0.00000  0.96928  1.0000
  Pd  Pd3       1.0  0.50000  0.50000  0.96928  1.0000
  Pd  Pd4       1.0  0.50000  1.00000  0.08953  1.0000
  C   C1        1.0  1.00000  0.50000  0.17995  1.0000
  O   O1        1.0  1.00000  0.50000  0.22673  1.0000
