# generated using pymatgen
data_Li4Ga4Cu4Pd4CO
_symmetry_space_group_name_H-M   P2
_cell_length_a   6.02537000
_cell_length_b   24.51900000
_cell_length_c   6.02537000
_cell_angle_alpha   90.00000000
_cell_angle_beta   90.00000000
_cell_angle_gamma   90.00000000
_symmetry_Int_Tables_number   3
_chemical_formula_structural   Li4Ga4Cu4Pd4CO
_chemical_formula_sum   'Li4 Ga4 Cu4 Pd4 C1 O1'
_cell_volume   890.16434569
_cell_formula_units_Z   1
loop_
 _symmetry_equiv_pos_site_id
 _symmetry_equiv_pos_as_xyz
  1  'x, y, z'
  2  '-x, y, -z'
loop_
 _atom_site_type_symbol
 _atom_site_label
 _atom_site_symmetry_multiplicity
 _atom_site_fract_x
 _atom_site_fract_y
 _atom_site_fract_z
 _atom_site_occupancy
  Li  Li0  2  0.25000000  0.90785000  0.75000000  1.0
  Li  Li1  2  0.25318000  0.03335000  0.24668000  1.0
  Ga  Ga2  2  0.25000000  0.90785000  0.25000000  1.0
  Ga  Ga3  2  0.25281000  0.03316000  0.75314000  1.0
  Cu  Cu4  1  0.00000000  0.09006000  0.00000000  1.0
  Cu  Cu5  1  0.00000000  0.96928000  0.50000000  1.0
  Cu  Cu6  1  0.50000000  0.09035000  0.50000000  1.0
  Cu  Cu7  1  0.50000000  0.96928000  0.00000000  1.0
  Pd  Pd8  1  0.00000000  0.08953000  0.50000000  1.0
  Pd  Pd9  1  0.00000000  0.96928000  0.00000000  1.0
  Pd  Pd10  1  0.50000000  0.09896000  0.00000000  1.0
  Pd  Pd11  1  0.50000000  0.96928000  0.50000000  1.0
  C  C12  1  0.50000000  0.17995000  0.00000000  1.0
  O  O13  1  0.50000000  0.22673000  0.00000000  1.0
