# generated using pymatgen
data_Ga16Ir16C
_symmetry_space_group_name_H-M   Pmm2
_cell_length_a   6.13393000
_cell_length_b   8.67469000
_cell_length_c   26.50600000
_cell_angle_alpha   90.00000000
_cell_angle_beta   90.00000000
_cell_angle_gamma   90.00000000
_symmetry_Int_Tables_number   25
_chemical_formula_structural   Ga16Ir16C
_chemical_formula_sum   'Ga16 Ir16 C1'
_cell_volume   1410.38270229
_cell_formula_units_Z   1
loop_
 _symmetry_equiv_pos_site_id
 _symmetry_equiv_pos_as_xyz
  1  'x, y, z'
  2  '-x, -y, z'
  3  '-x, y, z'
  4  'x, -y, z'
loop_
 _atom_site_type_symbol
 _atom_site_label
 _atom_site_symmetry_multiplicity
 _atom_site_fract_x
 _atom_site_fract_y
 _atom_site_fract_z
 _atom_site_occupancy
  Ga  Ga0  2  0.00000000  0.25000000  0.95909000  1.0
  Ga  Ga1  2  0.00000000  0.27405000  0.12561000  1.0
  Ga  Ga2  2  0.50000000  0.25000000  0.95909000  1.0
  Ga  Ga3  2  0.50000000  0.25323000  0.13379000  1.0
  Ga  Ga4  1  0.00000000  0.00000000  0.04030000  1.0
  Ga  Ga5  1  0.00000000  0.00000000  0.87727000  1.0
  Ga  Ga6  1  0.00000000  0.50000000  0.03989000  1.0
  Ga  Ga7  1  0.00000000  0.50000000  0.87727000  1.0
  Ga  Ga8  1  0.50000000  0.00000000  0.03932000  1.0
  Ga  Ga9  1  0.50000000  0.00000000  0.87727000  1.0
  Ga  Ga10  1  0.50000000  0.50000000  0.03863000  1.0
  Ga  Ga11  1  0.50000000  0.50000000  0.87727000  1.0
  Ir  Ir12  4  0.25000000  0.25000000  0.87727000  1.0
  Ir  Ir13  4  0.25046000  0.24242000  0.03982000  1.0
  Ir  Ir14  2  0.24245000  0.00000000  0.12420000  1.0
  Ir  Ir15  2  0.25000000  0.00000000  0.95909000  1.0
  Ir  Ir16  2  0.25000000  0.50000000  0.95909000  1.0
  Ir  Ir17  2  0.26217000  0.50000000  0.11645000  1.0
  C  C18  1  0.00000000  0.00000000  0.16787000  1.0
