# generated using pymatgen
data_LiCo2Ge
_symmetry_space_group_name_H-M   'P 1'
_cell_length_a   3.98991365
_cell_length_b   3.98991365
_cell_length_c   24.23190000
_cell_angle_alpha   90.00000000
_cell_angle_beta   90.00000000
_cell_angle_gamma   90.00000000
_symmetry_Int_Tables_number   1
_chemical_formula_structural   LiCo2Ge
_chemical_formula_sum   'Li2 Co4 Ge2'
_cell_volume   385.75757430
_cell_formula_units_Z   2
loop_
 _symmetry_equiv_pos_site_id
 _symmetry_equiv_pos_as_xyz
  1  'x, y, z'
loop_
 _atom_site_type_symbol
 _atom_site_label
 _atom_site_symmetry_multiplicity
 _atom_site_fract_x
 _atom_site_fract_y
 _atom_site_fract_z
 _atom_site_occupancy
  Li  Li0  1  0.00000000  0.00000000  0.91268000  1.0
  Li  Li1  1  0.50000000  0.50000000  0.02911000  1.0
  Co  Co2  1  0.50000000  0.00000000  0.97089000  1.0
  Co  Co3  1  0.50000000  0.00000000  0.08732000  1.0
  Co  Co4  1  0.00000000  0.50000000  0.97089000  1.0
  Co  Co5  1  0.00000000  0.50000000  0.08732000  1.0
  Ge  Ge6  1  0.00000000  0.00000000  0.02911000  1.0
  Ge  Ge7  1  0.50000000  0.50000000  0.91268000  1.0
