data_image0
_chemical_formula_structural       Hf4Ni8Sn4CO
_chemical_formula_sum              "Hf4 Ni8 Sn4 C1 O1"
_cell_length_a       6.28964
_cell_length_b       6.28964
_cell_length_c       24.7172
_cell_angle_alpha    90
_cell_angle_beta     90
_cell_angle_gamma    90

_space_group_name_H-M_alt    "P 1"
_space_group_IT_number       1

loop_
  _space_group_symop_operation_xyz
  'x, y, z'

loop_
  _atom_site_type_symbol
  _atom_site_label
  _atom_site_symmetry_multiplicity
  _atom_site_fract_x
  _atom_site_fract_y
  _atom_site_fract_z
  _atom_site_occupancy
  Hf  Hf1       1.0  0.00002  0.00005  0.09275  1.0000
  Hf  Hf2       1.0  0.50008  0.50006  0.09280  1.0000
  Hf  Hf3       1.0  0.50000  0.00000  0.96819  1.0000
  Hf  Hf4       1.0  0.00000  0.50000  0.96819  1.0000
  Ni  Ni1       1.0  0.26195  0.23832  0.03551  1.0000
  Ni  Ni2       1.0  0.75000  0.75000  0.90458  1.0000
  Ni  Ni3       1.0  0.73818  0.23832  0.03550  1.0000
  Ni  Ni4       1.0  0.25000  0.75000  0.90458  1.0000
  Ni  Ni5       1.0  0.73813  0.76177  0.03551  1.0000
  Ni  Ni6       1.0  0.25000  0.25000  0.90458  1.0000
  Ni  Ni7       1.0  0.26182  0.76172  0.03550  1.0000
  Ni  Ni8       1.0  0.75000  0.25000  0.90458  1.0000
  Sn  Sn1       1.0  0.00000  0.00000  0.96819  1.0000
  Sn  Sn2       1.0  0.50002  0.00005  0.10781  1.0000
  Sn  Sn3       1.0  0.00003  0.50003  0.09917  1.0000
  Sn  Sn4       1.0  0.50000  0.50000  0.96819  1.0000
  C   C1        1.0  0.99909  0.49998  0.27753  1.0000
  O   O1        1.0  0.00024  0.50014  0.32348  1.0000
