# generated using pymatgen
data_Hf4Ni8Sn4CO
_symmetry_space_group_name_H-M   'P 1'
_cell_length_a   6.28964000
_cell_length_b   6.28964000
_cell_length_c   24.71720000
_cell_angle_alpha   90.00000000
_cell_angle_beta   90.00000000
_cell_angle_gamma   90.00000000
_symmetry_Int_Tables_number   1
_chemical_formula_structural   Hf4Ni8Sn4CO
_chemical_formula_sum   'Hf4 Ni8 Sn4 C1 O1'
_cell_volume   977.80183647
_cell_formula_units_Z   1
loop_
 _symmetry_equiv_pos_site_id
 _symmetry_equiv_pos_as_xyz
  1  'x, y, z'
loop_
 _atom_site_type_symbol
 _atom_site_label
 _atom_site_symmetry_multiplicity
 _atom_site_fract_x
 _atom_site_fract_y
 _atom_site_fract_z
 _atom_site_occupancy
  Hf  Hf0  1  0.00002000  0.00005000  0.09275000  1.0
  Hf  Hf1  1  0.50008000  0.50006000  0.09280000  1.0
  Hf  Hf2  1  0.50000000  0.00000000  0.96819000  1.0
  Hf  Hf3  1  0.00000000  0.50000000  0.96819000  1.0
  Ni  Ni4  1  0.26195000  0.23832000  0.03551000  1.0
  Ni  Ni5  1  0.75000000  0.75000000  0.90458000  1.0
  Ni  Ni6  1  0.73818000  0.23832000  0.03550000  1.0
  Ni  Ni7  1  0.25000000  0.75000000  0.90458000  1.0
  Ni  Ni8  1  0.73813000  0.76177000  0.03551000  1.0
  Ni  Ni9  1  0.25000000  0.25000000  0.90458000  1.0
  Ni  Ni10  1  0.26182000  0.76172000  0.03550000  1.0
  Ni  Ni11  1  0.75000000  0.25000000  0.90458000  1.0
  Sn  Sn12  1  0.00000000  0.00000000  0.96819000  1.0
  Sn  Sn13  1  0.50002000  0.00005000  0.10781000  1.0
  Sn  Sn14  1  0.00003000  0.50003000  0.09917000  1.0
  Sn  Sn15  1  0.50000000  0.50000000  0.96819000  1.0
  C  C16  1  0.99909000  0.49998000  0.27753000  1.0
  O  O17  1  0.00024000  0.50014000  0.32348000  1.0
