# generated using pymatgen
data_Li8Y8Ga8Pd8C
_symmetry_space_group_name_H-M   'P 1'
_cell_length_a   9.36046000
_cell_length_b   6.61884000
_cell_length_c   27.02030000
_cell_angle_alpha   90.00000000
_cell_angle_beta   90.00000000
_cell_angle_gamma   90.00000000
_symmetry_Int_Tables_number   1
_chemical_formula_structural   Li8Y8Ga8Pd8C
_chemical_formula_sum   'Li8 Y8 Ga8 Pd8 C1'
_cell_volume   1674.05314515
_cell_formula_units_Z   1
loop_
 _symmetry_equiv_pos_site_id
 _symmetry_equiv_pos_as_xyz
  1  'x, y, z'
loop_
 _atom_site_type_symbol
 _atom_site_label
 _atom_site_symmetry_multiplicity
 _atom_site_fract_x
 _atom_site_fract_y
 _atom_site_fract_z
 _atom_site_occupancy
  Li  Li0  1  0.75000000  0.75000000  0.04330000  1.0
  Li  Li1  1  0.25000000  0.75000000  0.04330000  1.0
  Li  Li2  1  0.00000000  0.25000000  0.12991000  1.0
  Li  Li3  1  0.50000000  0.25000000  0.12991000  1.0
  Li  Li4  1  0.21913000  0.55049000  0.81616000  1.0
  Li  Li5  1  0.78087000  0.55049000  0.81616000  1.0
  Li  Li6  1  0.50000000  0.23133000  0.95271000  1.0
  Li  Li7  1  0.00000000  0.20396000  0.94995000  1.0
  Y  Y8  1  0.00000000  0.00000000  0.04330000  1.0
  Y  Y9  1  0.50000000  0.00000000  0.04330000  1.0
  Y  Y10  1  0.25000000  0.50000000  0.12991000  1.0
  Y  Y11  1  0.75000000  0.50000000  0.12991000  1.0
  Y  Y12  1  0.50000000  0.91305000  0.87162000  1.0
  Y  Y13  1  0.00000000  0.91181000  0.86669000  1.0
  Y  Y14  1  0.75265000  0.50613000  0.94746000  1.0
  Y  Y15  1  0.24735000  0.50613000  0.94746000  1.0
  Ga  Ga16  1  0.75000000  0.00000000  0.12991000  1.0
  Ga  Ga17  1  0.25000000  0.00000000  0.12991000  1.0
  Ga  Ga18  1  0.50000000  0.50000000  0.04330000  1.0
  Ga  Ga19  1  0.00000000  0.50000000  0.04330000  1.0
  Ga  Ga20  1  0.25211000  0.98434000  0.95786000  1.0
  Ga  Ga21  1  0.74789000  0.98434000  0.95786000  1.0
  Ga  Ga22  1  0.00000000  0.38054000  0.86381000  1.0
  Ga  Ga23  1  0.50000000  0.43863000  0.86501000  1.0
  Pd  Pd24  1  0.75000000  0.25000000  0.04330000  1.0
  Pd  Pd25  1  0.25000000  0.25000000  0.04330000  1.0
  Pd  Pd26  1  0.00000000  0.75000000  0.12991000  1.0
  Pd  Pd27  1  0.50000000  0.75000000  0.12991000  1.0
  Pd  Pd28  1  0.26251000  0.20178000  0.87678000  1.0
  Pd  Pd29  1  0.73749000  0.20178000  0.87678000  1.0
  Pd  Pd30  1  0.50000000  0.73550000  0.96301000  1.0
  Pd  Pd31  1  0.00000000  0.75156000  0.96534000  1.0
  C  C32  1  0.00000000  0.62065000  0.82603000  1.0
