# generated using pymatgen
data_Li8Y8Ga8Pd8C
_symmetry_space_group_name_H-M   Pm
_cell_length_a   6.61884000
_cell_length_b   9.36046000
_cell_length_c   27.02030000
_cell_angle_alpha   90.00000000
_cell_angle_beta   90.00000000
_cell_angle_gamma   90.00000000
_symmetry_Int_Tables_number   6
_chemical_formula_structural   Li8Y8Ga8Pd8C
_chemical_formula_sum   'Li8 Y8 Ga8 Pd8 C1'
_cell_volume   1674.05314515
_cell_formula_units_Z   1
loop_
 _symmetry_equiv_pos_site_id
 _symmetry_equiv_pos_as_xyz
  1  'x, y, z'
  2  'x, -y, z'
loop_
 _atom_site_type_symbol
 _atom_site_label
 _atom_site_symmetry_multiplicity
 _atom_site_fract_x
 _atom_site_fract_y
 _atom_site_fract_z
 _atom_site_occupancy
  Li  Li0  2  0.55049000  0.21913000  0.18384000  1.0
  Li  Li1  2  0.75000000  0.25000000  0.95670000  1.0
  Li  Li2  1  0.20396000  0.00000000  0.05005000  1.0
  Li  Li3  1  0.23133000  0.50000000  0.04729000  1.0
  Li  Li4  1  0.25000000  0.00000000  0.87009000  1.0
  Li  Li5  1  0.25000000  0.50000000  0.87009000  1.0
  Y  Y6  2  0.50000000  0.25000000  0.87009000  1.0
  Y  Y7  2  0.50613000  0.24735000  0.05254000  1.0
  Y  Y8  1  0.00000000  0.00000000  0.95670000  1.0
  Y  Y9  1  0.00000000  0.50000000  0.95670000  1.0
  Y  Y10  1  0.91181000  0.00000000  0.13331000  1.0
  Y  Y11  1  0.91305000  0.50000000  0.12838000  1.0
  Ga  Ga12  2  0.00000000  0.25000000  0.87009000  1.0
  Ga  Ga13  2  0.98434000  0.25211000  0.04214000  1.0
  Ga  Ga14  1  0.38054000  0.00000000  0.13619000  1.0
  Ga  Ga15  1  0.43863000  0.50000000  0.13499000  1.0
  Ga  Ga16  1  0.50000000  0.00000000  0.95670000  1.0
  Ga  Ga17  1  0.50000000  0.50000000  0.95670000  1.0
  Pd  Pd18  2  0.20178000  0.26251000  0.12322000  1.0
  Pd  Pd19  2  0.25000000  0.25000000  0.95670000  1.0
  Pd  Pd20  1  0.73550000  0.50000000  0.03699000  1.0
  Pd  Pd21  1  0.75000000  0.00000000  0.87009000  1.0
  Pd  Pd22  1  0.75000000  0.50000000  0.87009000  1.0
  Pd  Pd23  1  0.75156000  0.00000000  0.03466000  1.0
  C  C24  1  0.62065000  0.00000000  0.17397000  1.0
