# generated using pymatgen
data_Li8Nb8Al8Pd8CO
_symmetry_space_group_name_H-M   'P 1'
_cell_length_a   8.86350000
_cell_length_b   6.26744000
_cell_length_c   26.64760000
_cell_angle_alpha   90.00000000
_cell_angle_beta   90.00000000
_cell_angle_gamma   90.00000000
_symmetry_Int_Tables_number   1
_chemical_formula_structural   Li8Nb8Al8Pd8CO
_chemical_formula_sum   'Li8 Nb8 Al8 Pd8 C1 O1'
_cell_volume   1480.31293734
_cell_formula_units_Z   1
loop_
 _symmetry_equiv_pos_site_id
 _symmetry_equiv_pos_as_xyz
  1  'x, y, z'
loop_
 _atom_site_type_symbol
 _atom_site_label
 _atom_site_symmetry_multiplicity
 _atom_site_fract_x
 _atom_site_fract_y
 _atom_site_fract_z
 _atom_site_occupancy
  Li  Li0  1  0.75000000  0.25000000  0.04158000  1.0
  Li  Li1  1  0.25000000  0.25000000  0.04158000  1.0
  Li  Li2  1  0.00000000  0.75000000  0.12473000  1.0
  Li  Li3  1  0.50000000  0.75000000  0.12473000  1.0
  Li  Li4  1  0.25350000  0.29004000  0.83359000  1.0
  Li  Li5  1  0.74650000  0.29004000  0.83359000  1.0
  Li  Li6  1  0.50000000  0.74077000  0.95849000  1.0
  Li  Li7  1  0.00000000  0.74622000  0.95846000  1.0
  Nb  Nb8  1  0.00000000  1.00000000  0.04158000  1.0
  Nb  Nb9  1  0.50000000  1.00000000  0.04158000  1.0
  Nb  Nb10  1  0.25000000  0.50000000  0.12473000  1.0
  Nb  Nb11  1  0.75000000  0.50000000  0.12473000  1.0
  Nb  Nb12  1  0.50000000  0.01914000  0.88107000  1.0
  Nb  Nb13  1  0.00000000  0.01803000  0.88193000  1.0
  Nb  Nb14  1  0.75129000  0.48760000  0.95284000  1.0
  Nb  Nb15  1  0.24871000  0.48760000  0.95284000  1.0
  Al  Al16  1  0.75000000  0.00000000  0.12473000  1.0
  Al  Al17  1  0.25000000  0.00000000  0.12473000  1.0
  Al  Al18  1  0.50000000  0.50000000  0.04158000  1.0
  Al  Al19  1  0.00000000  0.50000000  0.04158000  1.0
  Al  Al20  1  0.25137000  0.00241000  0.95805000  1.0
  Al  Al21  1  0.74863000  0.00241000  0.95805000  1.0
  Al  Al22  1  0.00000000  0.50982000  0.87389000  1.0
  Al  Al23  1  0.50000000  0.49986000  0.87451000  1.0
  Pd  Pd24  1  0.75000000  0.75000000  0.04158000  1.0
  Pd  Pd25  1  0.25000000  0.75000000  0.04158000  1.0
  Pd  Pd26  1  0.00000000  0.25000000  0.12473000  1.0
  Pd  Pd27  1  0.50000000  0.25000000  0.12473000  1.0
  Pd  Pd28  1  0.25178000  0.76846000  0.88078000  1.0
  Pd  Pd29  1  0.74822000  0.76846000  0.88078000  1.0
  Pd  Pd30  1  0.50000000  0.25335000  0.96157000  1.0
  Pd  Pd31  1  0.00000000  0.24945000  0.96143000  1.0
  C  C32  1  0.00000000  0.51444000  0.79936000  1.0
  O  O33  1  0.00000000  0.50316000  0.75559000  1.0
