# generated using pymatgen
data_Ti8Rh24CO
_symmetry_space_group_name_H-M   Pmm2
_cell_length_a   7.73214000
_cell_length_b   7.73214000
_cell_length_c   25.79910000
_cell_angle_alpha   90.00000000
_cell_angle_beta   90.00000000
_cell_angle_gamma   90.00000000
_symmetry_Int_Tables_number   25
_chemical_formula_structural   Ti8Rh24CO
_chemical_formula_sum   'Ti8 Rh24 C1 O1'
_cell_volume   1542.42470828
_cell_formula_units_Z   1
loop_
 _symmetry_equiv_pos_site_id
 _symmetry_equiv_pos_as_xyz
  1  'x, y, z'
  2  '-x, -y, z'
  3  '-x, y, z'
  4  'x, -y, z'
loop_
 _atom_site_type_symbol
 _atom_site_label
 _atom_site_symmetry_multiplicity
 _atom_site_fract_x
 _atom_site_fract_y
 _atom_site_fract_z
 _atom_site_occupancy
  Ti  Ti0  2  0.25000000  0.00000000  0.03746000  1.0
  Ti  Ti1  2  0.25000000  0.00000000  0.88761000  1.0
  Ti  Ti2  2  0.25000000  0.50000000  0.03746000  1.0
  Ti  Ti3  2  0.25000000  0.50000000  0.88761000  1.0
  Rh  Rh4  4  0.25000000  0.25000000  0.11239000  1.0
  Rh  Rh5  4  0.25000000  0.25000000  0.96254000  1.0
  Rh  Rh6  2  0.00000000  0.25000000  0.03746000  1.0
  Rh  Rh7  2  0.00000000  0.25000000  0.88761000  1.0
  Rh  Rh8  2  0.50000000  0.25000000  0.03746000  1.0
  Rh  Rh9  2  0.50000000  0.25000000  0.88761000  1.0
  Rh  Rh10  1  0.00000000  0.00000000  0.11239000  1.0
  Rh  Rh11  1  0.00000000  0.00000000  0.96254000  1.0
  Rh  Rh12  1  0.00000000  0.50000000  0.11239000  1.0
  Rh  Rh13  1  0.00000000  0.50000000  0.96254000  1.0
  Rh  Rh14  1  0.50000000  0.00000000  0.11239000  1.0
  Rh  Rh15  1  0.50000000  0.00000000  0.96254000  1.0
  Rh  Rh16  1  0.50000000  0.50000000  0.11239000  1.0
  Rh  Rh17  1  0.50000000  0.50000000  0.96254000  1.0
  C  C18  1  0.00000000  0.00000000  0.18604000  1.0
  O  O19  1  0.00000000  0.00000000  0.23061000  1.0
