data_image0
_chemical_formula_structural       Li16Sn8Ge8C
_chemical_formula_sum              "Li16 Sn8 Ge8 C1"
_cell_length_a       6.92564
_cell_length_b       9.79433
_cell_length_c       27.3458
_cell_angle_alpha    90
_cell_angle_beta     90
_cell_angle_gamma    90

_space_group_name_H-M_alt    "P 1"
_space_group_IT_number       1

loop_
  _space_group_symop_operation_xyz
  'x, y, z'

loop_
  _atom_site_type_symbol
  _atom_site_label
  _atom_site_symmetry_multiplicity
  _atom_site_fract_x
  _atom_site_fract_y
  _atom_site_fract_z
  _atom_site_occupancy
  Li  Li1       1.0  0.00000  0.75000  0.95523  1.0000
  Li  Li2       1.0  0.50000  0.00000  0.86569  1.0000
  Li  Li3       1.0  0.00000  0.25000  0.95523  1.0000
  Li  Li4       1.0  0.50000  0.50000  0.86569  1.0000
  Li  Li5       1.0  0.25000  0.00000  0.95523  1.0000
  Li  Li6       1.0  0.25000  0.50000  0.95523  1.0000
  Li  Li7       1.0  0.75000  0.75000  0.86569  1.0000
  Li  Li8       1.0  0.75000  0.25000  0.86569  1.0000
  Li  Li9       1.0  0.97981  0.24997  0.15904  1.0000
  Li  Li10      1.0  0.49045  0.50362  0.04465  1.0000
  Li  Li11      1.0  0.96868  0.75001  0.13664  1.0000
  Li  Li12      1.0  0.49046  0.99641  0.04466  1.0000
  Li  Li13      1.0  0.25163  0.46770  0.14776  1.0000
  Li  Li14      1.0  0.25167  0.03229  0.14775  1.0000
  Li  Li15      1.0  0.71063  0.25002  0.06320  1.0000
  Li  Li16      1.0  0.78028  0.75002  0.04345  1.0000
  Sn  Sn1       1.0  0.00000  0.00000  0.86569  1.0000
  Sn  Sn2       1.0  0.50000  0.25000  0.95523  1.0000
  Sn  Sn3       1.0  0.50000  0.75000  0.95523  1.0000
  Sn  Sn4       1.0  0.00000  0.50000  0.86569  1.0000
  Sn  Sn5       1.0  0.02144  0.45615  0.04281  1.0000
  Sn  Sn6       1.0  0.47872  0.75002  0.12183  1.0000
  Sn  Sn7       1.0  0.57348  0.25001  0.17800  1.0000
  Sn  Sn8       1.0  0.02142  0.04391  0.04281  1.0000
  Ge  Ge1       1.0  0.25000  0.25000  0.86569  1.0000
  Ge  Ge2       1.0  0.25000  0.75000  0.86569  1.0000
  Ge  Ge3       1.0  0.75000  0.50000  0.95523  1.0000
  Ge  Ge4       1.0  0.75000  0.00000  0.95523  1.0000
  Ge  Ge5       1.0  0.22974  0.75007  0.03601  1.0000
  Ge  Ge6       1.0  0.32258  0.25001  0.08566  1.0000
  Ge  Ge7       1.0  0.76719  0.99274  0.12283  1.0000
  Ge  Ge8       1.0  0.76720  0.50729  0.12283  1.0000
  C   C1        1.0  0.27497  0.25000  0.15649  1.0000
