# generated using pymatgen
data_Li16Sn8Ge8C
_symmetry_space_group_name_H-M   P1
_cell_length_a   6.92564000
_cell_length_b   9.79433000
_cell_length_c   27.34580000
_cell_angle_alpha   90.00000000
_cell_angle_beta   90.00000000
_cell_angle_gamma   90.00000000
_symmetry_Int_Tables_number   1
_chemical_formula_structural   Li16Sn8Ge8C
_chemical_formula_sum   'Li16 Sn8 Ge8 C1'
_cell_volume   1854.92040462
_cell_formula_units_Z   1
loop_
 _symmetry_equiv_pos_site_id
 _symmetry_equiv_pos_as_xyz
  1  'x, y, z'
loop_
 _atom_site_type_symbol
 _atom_site_label
 _atom_site_symmetry_multiplicity
 _atom_site_fract_x
 _atom_site_fract_y
 _atom_site_fract_z
 _atom_site_occupancy
  Li  Li0  1  0.00000000  0.25000000  0.95523000  1.0
  Li  Li1  1  0.00000000  0.75000000  0.95523000  1.0
  Li  Li2  1  0.25000000  0.00000000  0.95523000  1.0
  Li  Li3  1  0.25000000  0.50000000  0.95523000  1.0
  Li  Li4  1  0.25163000  0.46770000  0.14776000  1.0
  Li  Li5  1  0.25167000  0.03229000  0.14775000  1.0
  Li  Li6  1  0.49045000  0.50362000  0.04465000  1.0
  Li  Li7  1  0.49046000  0.99641000  0.04466000  1.0
  Li  Li8  1  0.50000000  0.00000000  0.86569000  1.0
  Li  Li9  1  0.50000000  0.50000000  0.86569000  1.0
  Li  Li10  1  0.71063000  0.25002000  0.06320000  1.0
  Li  Li11  1  0.75000000  0.25000000  0.86569000  1.0
  Li  Li12  1  0.75000000  0.75000000  0.86569000  1.0
  Li  Li13  1  0.78028000  0.75002000  0.04345000  1.0
  Li  Li14  1  0.96868000  0.75001000  0.13664000  1.0
  Li  Li15  1  0.97981000  0.24997000  0.15904000  1.0
  Sn  Sn16  1  0.00000000  0.00000000  0.86569000  1.0
  Sn  Sn17  1  0.00000000  0.50000000  0.86569000  1.0
  Sn  Sn18  1  0.02142000  0.04391000  0.04281000  1.0
  Sn  Sn19  1  0.02144000  0.45615000  0.04281000  1.0
  Sn  Sn20  1  0.47872000  0.75002000  0.12183000  1.0
  Sn  Sn21  1  0.50000000  0.25000000  0.95523000  1.0
  Sn  Sn22  1  0.50000000  0.75000000  0.95523000  1.0
  Sn  Sn23  1  0.57348000  0.25001000  0.17800000  1.0
  Ge  Ge24  1  0.22974000  0.75007000  0.03601000  1.0
  Ge  Ge25  1  0.25000000  0.25000000  0.86569000  1.0
  Ge  Ge26  1  0.25000000  0.75000000  0.86569000  1.0
  Ge  Ge27  1  0.32258000  0.25001000  0.08566000  1.0
  Ge  Ge28  1  0.75000000  0.00000000  0.95523000  1.0
  Ge  Ge29  1  0.75000000  0.50000000  0.95523000  1.0
  Ge  Ge30  1  0.76719000  0.99274000  0.12283000  1.0
  Ge  Ge31  1  0.76720000  0.50729000  0.12283000  1.0
  C  C32  1  0.27497000  0.25000000  0.15649000  1.0
