# generated using pymatgen
data_Y8Sn8Ge8Pd8CO
_symmetry_space_group_name_H-M   'P 1'
_cell_length_a   8.11456000
_cell_length_b   9.60308000
_cell_length_c   26.48830000
_cell_angle_alpha   90.00000000
_cell_angle_beta   90.00000000
_cell_angle_gamma   90.00000000
_symmetry_Int_Tables_number   1
_chemical_formula_structural   Y8Sn8Ge8Pd8CO
_chemical_formula_sum   'Y8 Sn8 Ge8 Pd8 C1 O1'
_cell_volume   2064.09465459
_cell_formula_units_Z   1
loop_
 _symmetry_equiv_pos_site_id
 _symmetry_equiv_pos_as_xyz
  1  'x, y, z'
loop_
 _atom_site_type_symbol
 _atom_site_label
 _atom_site_symmetry_multiplicity
 _atom_site_fract_x
 _atom_site_fract_y
 _atom_site_fract_z
 _atom_site_occupancy
  Y  Y0  1  0.25106000  0.00079000  0.95673000  1.0
  Y  Y1  1  0.25000000  0.00000000  0.12247000  1.0
  Y  Y2  1  0.74767000  0.00330000  0.95636000  1.0
  Y  Y3  1  0.75000000  0.00000000  0.12247000  1.0
  Y  Y4  1  0.24757000  0.50309000  0.95655000  1.0
  Y  Y5  1  0.25000000  0.50000000  0.12247000  1.0
  Y  Y6  1  0.75095000  0.50284000  0.95649000  1.0
  Y  Y7  1  0.75000000  0.50000000  0.12247000  1.0
  Sn  Sn8  1  0.24575000  0.27554000  0.86920000  1.0
  Sn  Sn9  1  0.25000000  0.25000000  0.04082000  1.0
  Sn  Sn10  1  0.75499000  0.27738000  0.86808000  1.0
  Sn  Sn11  1  0.75000000  0.25000000  0.04082000  1.0
  Sn  Sn12  1  0.25760000  0.77612000  0.86767000  1.0
  Sn  Sn13  1  0.25000000  0.75000000  0.04082000  1.0
  Sn  Sn14  1  0.74118000  0.77783000  0.86736000  1.0
  Sn  Sn15  1  0.75000000  0.75000000  0.04082000  1.0
  Ge  Ge16  1  0.99902000  0.08909000  0.88358000  1.0
  Ge  Ge17  1  0.00000000  0.00000000  0.04082000  1.0
  Ge  Ge18  1  0.50118000  0.09877000  0.88227000  1.0
  Ge  Ge19  1  0.50000000  0.00000000  0.04082000  1.0
  Ge  Ge20  1  0.99891000  0.60084000  0.88195000  1.0
  Ge  Ge21  1  0.00000000  0.50000000  0.04082000  1.0
  Ge  Ge22  1  0.50055000  0.58537000  0.88095000  1.0
  Ge  Ge23  1  0.50000000  0.50000000  0.04082000  1.0
  Pd  Pd24  1  0.00059000  0.25514000  0.96525000  1.0
  Pd  Pd25  1  0.00000000  0.25000000  0.12247000  1.0
  Pd  Pd26  1  0.49919000  0.26378000  0.96357000  1.0
  Pd  Pd27  1  0.50000000  0.25000000  0.12247000  1.0
  Pd  Pd28  1  0.99930000  0.76133000  0.96369000  1.0
  Pd  Pd29  1  0.00000000  0.75000000  0.12247000  1.0
  Pd  Pd30  1  0.50005000  0.75572000  0.96210000  1.0
  Pd  Pd31  1  0.50000000  0.75000000  0.12247000  1.0
  C  C32  1  0.19713000  0.25678000  0.72291000  1.0
  O  O33  1  0.28380000  0.24106000  0.68974000  1.0
