# generated using pymatgen
data_Sc8Al8Ni16C
_symmetry_space_group_name_H-M   'P 1'
_cell_length_a   8.59020000
_cell_length_b   6.07419000
_cell_length_c   26.44270000
_cell_angle_alpha   90.00000000
_cell_angle_beta   90.00000000
_cell_angle_gamma   90.00000000
_symmetry_Int_Tables_number   1
_chemical_formula_structural   Sc8Al8Ni16C
_chemical_formula_sum   'Sc8 Al8 Ni16 C1'
_cell_volume   1379.74060541
_cell_formula_units_Z   1
loop_
 _symmetry_equiv_pos_site_id
 _symmetry_equiv_pos_as_xyz
  1  'x, y, z'
loop_
 _atom_site_type_symbol
 _atom_site_label
 _atom_site_symmetry_multiplicity
 _atom_site_fract_x
 _atom_site_fract_y
 _atom_site_fract_z
 _atom_site_occupancy
  Sc  Sc0  1  0.75001000  0.00000000  0.12182000  1.0
  Sc  Sc1  1  0.00000000  0.50000000  0.04061000  1.0
  Sc  Sc2  1  0.50000000  0.50000000  0.04061000  1.0
  Sc  Sc3  1  0.24999000  0.00000000  0.12182000  1.0
  Sc  Sc4  1  0.25051000  0.00587000  0.96209000  1.0
  Sc  Sc5  1  0.50000000  0.49939000  0.87272000  1.0
  Sc  Sc6  1  0.00000000  0.56233000  0.84559000  1.0
  Sc  Sc7  1  0.74949000  0.00587000  0.96209000  1.0
  Al  Al8  1  0.50000000  0.00000000  0.04061000  1.0
  Al  Al9  1  0.75001000  0.50000000  0.12182000  1.0
  Al  Al10  1  0.00000000  0.00000000  0.04061000  1.0
  Al  Al11  1  0.24999000  0.50000000  0.12182000  1.0
  Al  Al12  1  0.00000000  0.95732000  0.88608000  1.0
  Al  Al13  1  0.25156000  0.50396000  0.95691000  1.0
  Al  Al14  1  0.50000000  0.00585000  0.88095000  1.0
  Al  Al15  1  0.74844000  0.50396000  0.95691000  1.0
  Ni  Ni16  1  0.75001000  0.25000000  0.04061000  1.0
  Ni  Ni17  1  0.25001000  0.75000000  0.04061000  1.0
  Ni  Ni18  1  0.74999000  0.75000000  0.04061000  1.0
  Ni  Ni19  1  0.24999000  0.25000000  0.04061000  1.0
  Ni  Ni20  1  0.50000000  0.75000000  0.12182000  1.0
  Ni  Ni21  1  0.00000000  0.25000000  0.12182000  1.0
  Ni  Ni22  1  0.50000000  0.25000000  0.12182000  1.0
  Ni  Ni23  1  0.00000000  0.75000000  0.12182000  1.0
  Ni  Ni24  1  0.23296000  0.23297000  0.88208000  1.0
  Ni  Ni25  1  0.74409000  0.76791000  0.88432000  1.0
  Ni  Ni26  1  0.25591000  0.76791000  0.88432000  1.0
  Ni  Ni27  1  0.76704000  0.23297000  0.88208000  1.0
  Ni  Ni28  1  0.00000000  0.73128000  0.96003000  1.0
  Ni  Ni29  1  0.50000000  0.26966000  0.95574000  1.0
  Ni  Ni30  1  0.00000000  0.28573000  0.95025000  1.0
  Ni  Ni31  1  0.50000000  0.74085000  0.95755000  1.0
  C  C32  1  0.00000000  0.26514000  0.87652000  1.0
