# generated using pymatgen
data_Sc8Al8Ni16C
_symmetry_space_group_name_H-M   Pm
_cell_length_a   6.07419000
_cell_length_b   8.59020000
_cell_length_c   26.44270000
_cell_angle_alpha   90.00000000
_cell_angle_beta   90.00000000
_cell_angle_gamma   90.00000000
_symmetry_Int_Tables_number   6
_chemical_formula_structural   Sc8Al8Ni16C
_chemical_formula_sum   'Sc8 Al8 Ni16 C1'
_cell_volume   1379.74060541
_cell_formula_units_Z   1
loop_
 _symmetry_equiv_pos_site_id
 _symmetry_equiv_pos_as_xyz
  1  'x, y, z'
  2  'x, -y, z'
loop_
 _atom_site_type_symbol
 _atom_site_label
 _atom_site_symmetry_multiplicity
 _atom_site_fract_x
 _atom_site_fract_y
 _atom_site_fract_z
 _atom_site_occupancy
  Sc  Sc0  2  0.00000000  0.24999000  0.87818000  1.0
  Sc  Sc1  2  0.00587000  0.25051000  0.03791000  1.0
  Sc  Sc2  1  0.49939000  0.50000000  0.12728000  1.0
  Sc  Sc3  1  0.50000000  0.00000000  0.95939000  1.0
  Sc  Sc4  1  0.50000000  0.50000000  0.95939000  1.0
  Sc  Sc5  1  0.56233000  0.00000000  0.15441000  1.0
  Al  Al6  2  0.50000000  0.24999000  0.87818000  1.0
  Al  Al7  2  0.50396000  0.25156000  0.04309000  1.0
  Al  Al8  1  0.00000000  0.00000000  0.95939000  1.0
  Al  Al9  1  0.00000000  0.50000000  0.95939000  1.0
  Al  Al10  1  0.00585000  0.50000000  0.11905000  1.0
  Al  Al11  1  0.95732000  0.00000000  0.11392000  1.0
  Ni  Ni12  2  0.23297000  0.23296000  0.11792000  1.0
  Ni  Ni13  2  0.25000000  0.24999000  0.95939000  1.0
  Ni  Ni14  2  0.75000000  0.25001000  0.95939000  1.0
  Ni  Ni15  2  0.76791000  0.25591000  0.11568000  1.0
  Ni  Ni16  1  0.25000000  0.00000000  0.87818000  1.0
  Ni  Ni17  1  0.25000000  0.50000000  0.87818000  1.0
  Ni  Ni18  1  0.26966000  0.50000000  0.04426000  1.0
  Ni  Ni19  1  0.28573000  0.00000000  0.04975000  1.0
  Ni  Ni20  1  0.73128000  0.00000000  0.03997000  1.0
  Ni  Ni21  1  0.74085000  0.50000000  0.04245000  1.0
  Ni  Ni22  1  0.75000000  0.00000000  0.87818000  1.0
  Ni  Ni23  1  0.75000000  0.50000000  0.87818000  1.0
  C  C24  1  0.26514000  0.00000000  0.12348000  1.0
