# generated using pymatgen
data_Li8Ag4Pb4C
_symmetry_space_group_name_H-M   'P 1'
_cell_length_a   6.84524000
_cell_length_b   6.84524000
_cell_length_c   25.13390000
_cell_angle_alpha   90.00000000
_cell_angle_beta   90.00000000
_cell_angle_gamma   90.00000000
_symmetry_Int_Tables_number   1
_chemical_formula_structural   Li8Ag4Pb4C
_chemical_formula_sum   'Li8 Ag4 Pb4 C1'
_cell_volume   1177.70696034
_cell_formula_units_Z   1
loop_
 _symmetry_equiv_pos_site_id
 _symmetry_equiv_pos_as_xyz
  1  'x, y, z'
loop_
 _atom_site_type_symbol
 _atom_site_label
 _atom_site_symmetry_multiplicity
 _atom_site_fract_x
 _atom_site_fract_y
 _atom_site_fract_z
 _atom_site_occupancy
  Li  Li0  1  0.75000000  0.75000000  0.96596000  1
  Li  Li1  1  0.71674000  0.28326000  0.10227000  1
  Li  Li2  1  0.28326000  0.71674000  0.10227000  1
  Li  Li3  1  0.25000000  0.25000000  0.96596000  1
  Li  Li4  1  0.50000000  1.00000000  0.89787000  1
  Li  Li5  1  0.00000000  0.00000000  0.04088000  1
  Li  Li6  1  0.00000000  0.50000000  0.89787000  1
  Li  Li7  1  0.50000000  0.50000000  0.03082000  1
  Ag  Ag8  1  0.50000000  1.00000000  0.03904000  1
  Ag  Ag9  1  0.00000000  0.00000000  0.89787000  1
  Ag  Ag10  1  0.00000000  0.50000000  0.03904000  1
  Ag  Ag11  1  0.50000000  0.50000000  0.89787000  1
  Pb  Pb12  1  0.73105000  0.73105000  0.12211000  1
  Pb  Pb13  1  0.26895000  0.26895000  0.12211000  1
  Pb  Pb14  1  0.75000000  0.25000000  0.96596000  1
  Pb  Pb15  1  0.25000000  0.75000000  0.96596000  1
  C  C16  1  0.50000000  0.50000000  0.11303000  1
