# generated using pymatgen
data_Sc4Al4In4Pd4CO
_symmetry_space_group_name_H-M   'P 1'
_cell_length_a   8.33700000
_cell_length_b   5.97945000
_cell_length_c   24.48170000
_cell_angle_alpha   90.00000000
_cell_angle_beta   90.00000000
_cell_angle_gamma   90.00000000
_symmetry_Int_Tables_number   1
_chemical_formula_structural   Sc4Al4In4Pd4CO
_chemical_formula_sum   'Sc4 Al4 In4 Pd4 C1 O1'
_cell_volume   1220.42926158
_cell_formula_units_Z   1
loop_
 _symmetry_equiv_pos_site_id
 _symmetry_equiv_pos_as_xyz
  1  'x, y, z'
loop_
 _atom_site_type_symbol
 _atom_site_label
 _atom_site_symmetry_multiplicity
 _atom_site_fract_x
 _atom_site_fract_y
 _atom_site_fract_z
 _atom_site_occupancy
  Sc  Sc0  1  0.00000000  0.51870000  0.91099000  1.0
  Sc  Sc1  1  0.00000000  0.98197000  0.03051000  1.0
  Sc  Sc2  1  0.50000000  0.51494000  0.90950000  1.0
  Sc  Sc3  1  0.50000000  0.98197000  0.03051000  1.0
  Al  Al4  1  0.00000000  0.00472000  0.90713000  1.0
  Al  Al5  1  0.00000000  0.48197000  0.03051000  1.0
  Al  Al6  1  0.50000000  0.00487000  0.90764000  1.0
  Al  Al7  1  0.50000000  0.48197000  0.03051000  1.0
  In  In8  1  0.25053000  0.24939000  0.96712000  1.0
  In  In9  1  0.25000000  0.72295000  0.09153000  1.0
  In  In10  1  0.74947000  0.24939000  0.96712000  1.0
  In  In11  1  0.75000000  0.72295000  0.09153000  1.0
  Pd  Pd12  1  0.25333000  0.75639000  0.96108000  1.0
  Pd  Pd13  1  0.25000000  0.22295000  0.09153000  1.0
  Pd  Pd14  1  0.74667000  0.75639000  0.96108000  1.0
  Pd  Pd15  1  0.75000000  0.22295000  0.09153000  1.0
  C  C16  1  0.00000000  0.49058000  0.81724000  1.0
  O  O17  1  0.00000000  0.48035000  0.77034000  1.0
