# generated using pymatgen
data_Li8Al8In8Cu8CO
_symmetry_space_group_name_H-M   'P 1'
_cell_length_a   9.01514000
_cell_length_b   6.37467000
_cell_length_c   26.76140000
_cell_angle_alpha   90.00000000
_cell_angle_beta   90.00000000
_cell_angle_gamma   90.00000000
_symmetry_Int_Tables_number   1
_chemical_formula_structural   Li8Al8In8Cu8CO
_chemical_formula_sum   'Li8 Al8 In8 Cu8 C1 O1'
_cell_volume   1537.93865336
_cell_formula_units_Z   1
loop_
 _symmetry_equiv_pos_site_id
 _symmetry_equiv_pos_as_xyz
  1  'x, y, z'
loop_
 _atom_site_type_symbol
 _atom_site_label
 _atom_site_symmetry_multiplicity
 _atom_site_fract_x
 _atom_site_fract_y
 _atom_site_fract_z
 _atom_site_occupancy
  Li  Li0  1  0.00000000  0.75000000  0.04211000  1.0
  Li  Li1  1  0.50000000  0.75000000  0.04211000  1.0
  Li  Li2  1  0.25000000  0.25000000  0.12633000  1.0
  Li  Li3  1  0.75000000  0.25000000  0.12633000  1.0
  Li  Li4  1  0.50000000  0.68814000  0.84117000  1.0
  Li  Li5  1  0.00000000  0.68714000  0.83476000  1.0
  Li  Li6  1  0.75024000  0.22700000  0.95555000  1.0
  Li  Li7  1  0.24976000  0.22700000  0.95555000  1.0
  Al  Al8  1  0.00000000  0.00000000  0.12633000  1.0
  Al  Al9  1  0.50000000  1.00000000  0.12633000  1.0
  Al  Al10  1  0.75000000  0.50000000  0.04211000  1.0
  Al  Al11  1  0.25000000  0.50000000  0.04211000  1.0
  Al  Al12  1  0.50000000  0.97168000  0.94857000  1.0
  Al  Al13  1  0.00000000  0.97116000  0.94806000  1.0
  Al  Al14  1  0.24893000  0.46422000  0.87102000  1.0
  Al  Al15  1  0.75107000  0.46422000  0.87102000  1.0
  In  In16  1  0.25000000  0.00000000  0.04211000  1.0
  In  In17  1  0.75000000  0.00000000  0.04211000  1.0
  In  In18  1  0.50000000  0.50000000  0.12633000  1.0
  In  In19  1  0.00000000  0.50000000  0.12633000  1.0
  In  In20  1  0.75043000  0.97057000  0.86383000  1.0
  In  In21  1  0.24957000  0.97057000  0.86383000  1.0
  In  In22  1  0.00000000  0.50355000  0.95351000  1.0
  In  In23  1  0.50000000  0.50383000  0.95388000  1.0
  Cu  Cu24  1  0.00000000  0.25000000  0.04211000  1.0
  Cu  Cu25  1  0.50000000  0.25000000  0.04211000  1.0
  Cu  Cu26  1  0.25000000  0.75000000  0.12633000  1.0
  Cu  Cu27  1  0.75000000  0.75000000  0.12633000  1.0
  Cu  Cu28  1  0.50000000  0.24258000  0.87714000  1.0
  Cu  Cu29  1  0.00000000  0.24086000  0.87705000  1.0
  Cu  Cu30  1  0.75002000  0.75058000  0.96087000  1.0
  Cu  Cu31  1  0.24998000  0.75058000  0.96087000  1.0
  C  C32  1  0.00000000  0.72281000  0.75629000  1.0
  O  O33  1  0.00000000  0.74271000  0.71402000  1.0
