# generated using pymatgen
data_Li8Al8In8Cu8CO
_symmetry_space_group_name_H-M   Pm
_cell_length_a   6.37467000
_cell_length_b   9.01514000
_cell_length_c   26.76140000
_cell_angle_alpha   90.00000000
_cell_angle_beta   90.00000000
_cell_angle_gamma   90.00000000
_symmetry_Int_Tables_number   6
_chemical_formula_structural   Li8Al8In8Cu8CO
_chemical_formula_sum   'Li8 Al8 In8 Cu8 C1 O1'
_cell_volume   1537.93865336
_cell_formula_units_Z   1
loop_
 _symmetry_equiv_pos_site_id
 _symmetry_equiv_pos_as_xyz
  1  'x, y, z'
  2  'x, -y, z'
loop_
 _atom_site_type_symbol
 _atom_site_label
 _atom_site_symmetry_multiplicity
 _atom_site_fract_x
 _atom_site_fract_y
 _atom_site_fract_z
 _atom_site_occupancy
  Li  Li0  2  0.22700000  0.24976000  0.04445000  1.0
  Li  Li1  2  0.25000000  0.25000000  0.87367000  1.0
  Li  Li2  1  0.68714000  0.00000000  0.16524000  1.0
  Li  Li3  1  0.68814000  0.50000000  0.15883000  1.0
  Li  Li4  1  0.75000000  0.00000000  0.95789000  1.0
  Li  Li5  1  0.75000000  0.50000000  0.95789000  1.0
  Al  Al6  2  0.46422000  0.24893000  0.12898000  1.0
  Al  Al7  2  0.50000000  0.25000000  0.95789000  1.0
  Al  Al8  1  -0.00000000  0.50000000  0.87367000  1.0
  Al  Al9  1  0.00000000  0.00000000  0.87367000  1.0
  Al  Al10  1  0.97116000  0.00000000  0.05194000  1.0
  Al  Al11  1  0.97168000  0.50000000  0.05143000  1.0
  In  In12  2  0.00000000  0.25000000  0.95789000  1.0
  In  In13  2  0.97057000  0.24957000  0.13617000  1.0
  In  In14  1  0.50000000  0.00000000  0.87367000  1.0
  In  In15  1  0.50000000  0.50000000  0.87367000  1.0
  In  In16  1  0.50355000  0.00000000  0.04649000  1.0
  In  In17  1  0.50383000  0.50000000  0.04612000  1.0
  Cu  Cu18  2  0.75000000  0.25000000  0.87367000  1.0
  Cu  Cu19  2  0.75058000  0.24998000  0.03913000  1.0
  Cu  Cu20  1  0.24086000  0.00000000  0.12295000  1.0
  Cu  Cu21  1  0.24258000  0.50000000  0.12286000  1.0
  Cu  Cu22  1  0.25000000  0.00000000  0.95789000  1.0
  Cu  Cu23  1  0.25000000  0.50000000  0.95789000  1.0
  C  C24  1  0.72281000  0.00000000  0.24371000  1.0
  O  O25  1  0.74271000  0.00000000  0.28598000  1.0
