# generated using pymatgen
data_Li16Bi8Au8CO
_symmetry_space_group_name_H-M   Pm
_cell_length_a   6.87958000
_cell_length_b   9.72919000
_cell_length_c   27.29690000
_cell_angle_alpha   90.00000000
_cell_angle_beta   90.00000000
_cell_angle_gamma   90.00000000
_symmetry_Int_Tables_number   6
_chemical_formula_structural   Li16Bi8Au8CO
_chemical_formula_sum   'Li16 Bi8 Au8 C1 O1'
_cell_volume   1827.05633617
_cell_formula_units_Z   1
loop_
 _symmetry_equiv_pos_site_id
 _symmetry_equiv_pos_as_xyz
  1  'x, y, z'
  2  'x, -y, z'
loop_
 _atom_site_type_symbol
 _atom_site_label
 _atom_site_symmetry_multiplicity
 _atom_site_fract_x
 _atom_site_fract_y
 _atom_site_fract_z
 _atom_site_occupancy
  Li  Li0  2  0.49924000  0.24855000  0.03649000  1.0
  Li  Li1  2  0.50000000  0.25000000  0.86634000  1.0
  Li  Li2  2  0.68652000  0.25074000  0.12502000  1.0
  Li  Li3  2  0.75000000  0.25000000  0.95545000  1.0
  Li  Li4  1  -0.00000000  0.50000000  0.95545000  1.0
  Li  Li5  1  0.00000000  0.00000000  0.95545000  1.0
  Li  Li6  1  0.02160000  0.00000000  0.13036000  1.0
  Li  Li7  1  0.03007000  0.50000000  0.12699000  1.0
  Li  Li8  1  0.25000000  0.00000000  0.86634000  1.0
  Li  Li9  1  0.25000000  0.50000000  0.86634000  1.0
  Li  Li10  1  0.27571000  0.00000000  0.05237000  1.0
  Li  Li11  1  0.28293000  0.50000000  0.05158000  1.0
  Bi  Bi12  2  0.00000000  0.25000000  0.86634000  1.0
  Bi  Bi13  2  0.97219000  0.25069000  0.04507000  1.0
  Bi  Bi14  1  0.46531000  0.50000000  0.15437000  1.0
  Bi  Bi15  1  0.46754000  0.00000000  0.15195000  1.0
  Bi  Bi16  1  0.50000000  0.00000000  0.95545000  1.0
  Bi  Bi17  1  0.50000000  0.50000000  0.95545000  1.0
  Au  Au18  2  0.25000000  0.25000000  0.95545000  1.0
  Au  Au19  2  0.27461000  0.25191000  0.11798000  1.0
  Au  Au20  1  0.71119000  0.50000000  0.06470000  1.0
  Au  Au21  1  0.71302000  0.00000000  0.06333000  1.0
  Au  Au22  1  0.75000000  0.00000000  0.86634000  1.0
  Au  Au23  1  0.75000000  0.50000000  0.86634000  1.0
  C  C24  1  0.98704000  0.00000000  0.20757000  1.0
  O  O25  1  0.99036000  0.00000000  0.24936000  1.0
