data_image0
_chemical_formula_structural       Sc4Ga4Ge4Pd4CO
_chemical_formula_sum              "Sc4 Ga4 Ge4 Pd4 C1 O1"
_cell_length_a       7.83718
_cell_length_b       5.89664
_cell_length_c       24.4146
_cell_angle_alpha    90
_cell_angle_beta     90
_cell_angle_gamma    90

_space_group_name_H-M_alt    "P 1"
_space_group_IT_number       1

loop_
  _space_group_symop_operation_xyz
  'x, y, z'

loop_
  _atom_site_type_symbol
  _atom_site_label
  _atom_site_symmetry_multiplicity
  _atom_site_fract_x
  _atom_site_fract_y
  _atom_site_fract_z
  _atom_site_occupancy
  Sc  Sc1       1.0  0.00000  0.50000  0.90959  1.0000
  Sc  Sc2       1.0  0.00472  0.94519  0.03717  1.0000
  Sc  Sc3       1.0  0.50000  0.50000  0.90959  1.0000
  Sc  Sc4       1.0  0.49530  0.94515  0.03717  1.0000
  Ga  Ga1       1.0  0.00000  0.00000  0.90959  1.0000
  Ga  Ga2       1.0  0.96581  0.43866  0.03941  1.0000
  Ga  Ga3       1.0  0.50000  0.00000  0.90959  1.0000
  Ga  Ga4       1.0  0.53418  0.43860  0.03940  1.0000
  Ge  Ge1       1.0  0.25000  0.73509  0.96986  1.0000
  Ge  Ge2       1.0  0.25001  0.17135  0.09863  1.0000
  Ge  Ge3       1.0  0.75000  0.73509  0.96986  1.0000
  Ge  Ge4       1.0  0.75003  0.19263  0.09307  1.0000
  Pd  Pd1       1.0  0.25000  0.23509  0.96986  1.0000
  Pd  Pd2       1.0  0.25000  0.59624  0.06920  1.0000
  Pd  Pd3       1.0  0.75000  0.23509  0.96986  1.0000
  Pd  Pd4       1.0  0.74999  0.72341  0.09029  1.0000
  C   C1        1.0  0.25002  0.20566  0.17746  1.0000
  O   O1        1.0  0.25001  0.23167  0.22446  1.0000
