# generated using pymatgen
data_Li16Ga8Rh8C
_symmetry_space_group_name_H-M   'P 1'
_cell_length_a   8.53335000
_cell_length_b   6.03399000
_cell_length_c   26.40000000
_cell_angle_alpha   90.00000000
_cell_angle_beta   90.00000000
_cell_angle_gamma   90.00000000
_symmetry_Int_Tables_number   1
_chemical_formula_structural   Li16Ga8Rh8C
_chemical_formula_sum   'Li16 Ga8 Rh8 C1'
_cell_volume   1359.33992216
_cell_formula_units_Z   1
loop_
 _symmetry_equiv_pos_site_id
 _symmetry_equiv_pos_as_xyz
  1  'x, y, z'
loop_
 _atom_site_type_symbol
 _atom_site_label
 _atom_site_symmetry_multiplicity
 _atom_site_fract_x
 _atom_site_fract_y
 _atom_site_fract_z
 _atom_site_occupancy
  Li  Li0  1  0.75000000  1.00000000  0.04040000  1.0
  Li  Li1  1  0.00000000  0.50000000  0.12121000  1.0
  Li  Li2  1  0.25000000  1.00000000  0.04040000  1.0
  Li  Li3  1  0.50000000  0.50000000  0.12121000  1.0
  Li  Li4  1  0.25000000  0.25000000  0.12121000  1.0
  Li  Li5  1  0.75000000  0.25000000  0.12121000  1.0
  Li  Li6  1  0.50000000  0.75000000  0.04040000  1.0
  Li  Li7  1  0.00000000  0.75000000  0.04040000  1.0
  Li  Li8  1  0.26765000  0.00630000  0.87200000  1.0
  Li  Li9  1  0.50000000  0.51185000  0.96286000  1.0
  Li  Li10  1  0.73235000  0.00630000  0.87200000  1.0
  Li  Li11  1  0.00000000  0.50063000  0.95651000  1.0
  Li  Li12  1  0.74979000  0.25091000  0.95836000  1.0
  Li  Li13  1  0.25021000  0.25091000  0.95836000  1.0
  Li  Li14  1  0.00000000  0.79804000  0.87904000  1.0
  Li  Li15  1  0.50000000  0.71664000  0.87031000  1.0
  Ga  Ga16  1  0.00000000  0.25000000  0.04040000  1.0
  Ga  Ga17  1  0.50000000  0.25000000  0.04040000  1.0
  Ga  Ga18  1  0.75000000  0.75000000  0.12121000  1.0
  Ga  Ga19  1  0.25000000  0.75000000  0.12121000  1.0
  Ga  Ga20  1  0.50000000  0.28619000  0.88303000  1.0
  Ga  Ga21  1  0.00000000  0.19079000  0.88264000  1.0
  Ga  Ga22  1  0.25145000  0.74877000  0.95793000  1.0
  Ga  Ga23  1  0.74855000  0.74877000  0.95793000  1.0
  Rh  Rh24  1  0.00000000  0.00000000  0.12121000  1.0
  Rh  Rh25  1  0.25000000  0.50000000  0.04040000  1.0
  Rh  Rh26  1  0.75000000  0.50000000  0.04040000  1.0
  Rh  Rh27  1  0.50000000  1.00000000  0.12121000  1.0
  Rh  Rh28  1  0.50000000  0.99851000  0.95405000  1.0
  Rh  Rh29  1  0.78105000  0.49536000  0.87892000  1.0
  Rh  Rh30  1  0.21895000  0.49536000  0.87892000  1.0
  Rh  Rh31  1  0.00000000  0.99273000  0.96397000  1.0
  C  C32  1  0.00000000  0.50045000  0.85781000  1.0
