# generated using pymatgen
data_Li16Ga8Rh8C
_symmetry_space_group_name_H-M   Pm
_cell_length_a   6.03399000
_cell_length_b   8.53335000
_cell_length_c   26.40000000
_cell_angle_alpha   90.00000000
_cell_angle_beta   90.00000000
_cell_angle_gamma   90.00000000
_symmetry_Int_Tables_number   6
_chemical_formula_structural   Li16Ga8Rh8C
_chemical_formula_sum   'Li16 Ga8 Rh8 C1'
_cell_volume   1359.33992216
_cell_formula_units_Z   1
loop_
 _symmetry_equiv_pos_site_id
 _symmetry_equiv_pos_as_xyz
  1  'x, y, z'
  2  'x, -y, z'
loop_
 _atom_site_type_symbol
 _atom_site_label
 _atom_site_symmetry_multiplicity
 _atom_site_fract_x
 _atom_site_fract_y
 _atom_site_fract_z
 _atom_site_occupancy
  Li  Li0  2  -0.00000000  0.25000000  0.95960000  1.0
  Li  Li1  2  0.00630000  0.26765000  0.12800000  1.0
  Li  Li2  2  0.25000000  0.25000000  0.87879000  1.0
  Li  Li3  2  0.25091000  0.25021000  0.04164000  1.0
  Li  Li4  1  0.50000000  0.00000000  0.87879000  1.0
  Li  Li5  1  0.50000000  0.50000000  0.87879000  1.0
  Li  Li6  1  0.50063000  0.00000000  0.04349000  1.0
  Li  Li7  1  0.51185000  0.50000000  0.03714000  1.0
  Li  Li8  1  0.71664000  0.50000000  0.12969000  1.0
  Li  Li9  1  0.75000000  0.00000000  0.95960000  1.0
  Li  Li10  1  0.75000000  0.50000000  0.95960000  1.0
  Li  Li11  1  0.79804000  0.00000000  0.12096000  1.0
  Ga  Ga12  2  0.74877000  0.25145000  0.04207000  1.0
  Ga  Ga13  2  0.75000000  0.25000000  0.87879000  1.0
  Ga  Ga14  1  0.19079000  0.00000000  0.11736000  1.0
  Ga  Ga15  1  0.25000000  0.00000000  0.95960000  1.0
  Ga  Ga16  1  0.25000000  0.50000000  0.95960000  1.0
  Ga  Ga17  1  0.28619000  0.50000000  0.11697000  1.0
  Rh  Rh18  2  0.49536000  0.21895000  0.12108000  1.0
  Rh  Rh19  2  0.50000000  0.25000000  0.95960000  1.0
  Rh  Rh20  1  -0.00000000  0.50000000  0.87879000  1.0
  Rh  Rh21  1  0.00000000  0.00000000  0.87879000  1.0
  Rh  Rh22  1  0.99273000  0.00000000  0.03603000  1.0
  Rh  Rh23  1  0.99851000  0.50000000  0.04595000  1.0
  C  C24  1  0.50045000  0.00000000  0.14219000  1.0
