# generated using pymatgen
data_Ti4Ni8Sn4CO
_symmetry_space_group_name_H-M   P1
_cell_length_a   6.14888000
_cell_length_b   6.14888000
_cell_length_c   24.61170000
_cell_angle_alpha   90.00000000
_cell_angle_beta   90.00000000
_cell_angle_gamma   90.00000000
_symmetry_Int_Tables_number   1
_chemical_formula_structural   Ti4Ni8Sn4CO
_chemical_formula_sum   'Ti4 Ni8 Sn4 C1 O1'
_cell_volume   930.53700334
_cell_formula_units_Z   1
loop_
 _symmetry_equiv_pos_site_id
 _symmetry_equiv_pos_as_xyz
  1  'x, y, z'
loop_
 _atom_site_type_symbol
 _atom_site_label
 _atom_site_symmetry_multiplicity
 _atom_site_fract_x
 _atom_site_fract_y
 _atom_site_fract_z
 _atom_site_occupancy
  Ti  Ti0  1  0.00000000  0.00000000  0.90631000  1.0
  Ti  Ti1  1  0.50000000  0.50000000  0.90631000  1.0
  Ti  Ti2  1  0.50495000  0.99546000  0.03430000  1.0
  Ti  Ti3  1  0.99541000  0.50481000  0.03431000  1.0
  Ni  Ni4  1  0.25000000  0.25000000  0.96877000  1.0
  Ni  Ni5  1  0.25000000  0.75000000  0.96877000  1.0
  Ni  Ni6  1  0.25049000  0.25054000  0.09336000  1.0
  Ni  Ni7  1  0.25098000  0.75023000  0.08935000  1.0
  Ni  Ni8  1  0.74970000  0.74955000  0.09037000  1.0
  Ni  Ni9  1  0.75000000  0.25000000  0.96877000  1.0
  Ni  Ni10  1  0.75000000  0.75000000  0.96877000  1.0
  Ni  Ni11  1  0.75011000  0.25071000  0.08936000  1.0
  Sn  Sn12  1  0.00000000  0.50000000  0.90631000  1.0
  Sn  Sn13  1  0.00169000  0.00135000  0.03343000  1.0
  Sn  Sn14  1  0.49821000  0.49837000  0.03299000  1.0
  Sn  Sn15  1  0.50000000  0.00000000  0.90631000  1.0
  C  C16  1  0.24907000  0.24914000  0.16601000  1.0
  O  O17  1  0.24842000  0.24841000  0.21286000  1.0
