data_image0
_chemical_formula_structural       Y4Al12CO
_chemical_formula_sum              "Y4 Al12 C1 O1"
_cell_length_a       8.49845
_cell_length_b       6.00931
_cell_length_c       24.507
_cell_angle_alpha    90
_cell_angle_beta     90
_cell_angle_gamma    90

_space_group_name_H-M_alt    "P 1"
_space_group_IT_number       1

loop_
  _space_group_symop_operation_xyz
  'x, y, z'

loop_
  _atom_site_type_symbol
  _atom_site_label
  _atom_site_symmetry_multiplicity
  _atom_site_fract_x
  _atom_site_fract_y
  _atom_site_fract_z
  _atom_site_occupancy
  Y   Y1        1.0  0.00000  0.00000  0.90805  1.0000
  Y   Y2        1.0  0.99957  0.49967  0.03301  1.0000
  Y   Y3        1.0  0.50000  0.00000  0.90805  1.0000
  Y   Y4        1.0  0.50043  0.49967  0.03301  1.0000
  Al  Al1       1.0  0.00000  0.50000  0.90805  1.0000
  Al  Al2       1.0  0.25000  0.75000  0.96935  1.0000
  Al  Al3       1.0  0.25000  0.25000  0.96935  1.0000
  Al  Al4       1.0  0.00222  0.99930  0.04166  1.0000
  Al  Al5       1.0  0.25000  0.22666  0.08908  1.0000
  Al  Al6       1.0  0.25000  0.76697  0.08596  1.0000
  Al  Al7       1.0  0.50000  0.50000  0.90805  1.0000
  Al  Al8       1.0  0.75000  0.75000  0.96935  1.0000
  Al  Al9       1.0  0.75000  0.25000  0.96935  1.0000
  Al  Al10      1.0  0.49778  0.99930  0.04166  1.0000
  Al  Al11      1.0  0.75000  0.22721  0.08627  1.0000
  Al  Al12      1.0  0.75000  0.77223  0.08578  1.0000
  C   C1        1.0  0.25000  0.23479  0.17104  1.0000
  O   O1        1.0  0.25001  0.24896  0.21788  1.0000
