# generated using pymatgen
data_Y4Al12CO
_symmetry_space_group_name_H-M   'P 1'
_cell_length_a   8.49845000
_cell_length_b   6.00931000
_cell_length_c   24.50700000
_cell_angle_alpha   90.00000000
_cell_angle_beta   90.00000000
_cell_angle_gamma   90.00000000
_symmetry_Int_Tables_number   1
_chemical_formula_structural   Y4Al12CO
_chemical_formula_sum   'Y4 Al12 C1 O1'
_cell_volume   1251.56809270
_cell_formula_units_Z   1
loop_
 _symmetry_equiv_pos_site_id
 _symmetry_equiv_pos_as_xyz
  1  'x, y, z'
loop_
 _atom_site_type_symbol
 _atom_site_label
 _atom_site_symmetry_multiplicity
 _atom_site_fract_x
 _atom_site_fract_y
 _atom_site_fract_z
 _atom_site_occupancy
  Y  Y0  1  0.75000000  0.00000000  0.90805000  1.0
  Y  Y1  1  0.75043000  0.50033000  0.03301000  1.0
  Y  Y2  1  0.25000000  0.00000000  0.90805000  1.0
  Y  Y3  1  0.24957000  0.50033000  0.03301000  1.0
  Al  Al4  1  0.75000000  0.50000000  0.90805000  1.0
  Al  Al5  1  0.50000000  0.25000000  0.96935000  1.0
  Al  Al6  1  0.50000000  0.75000000  0.96935000  1.0
  Al  Al7  1  0.74778000  0.00070000  0.04166000  1.0
  Al  Al8  1  0.50000000  0.77334000  0.08908000  1.0
  Al  Al9  1  0.50000000  0.23303000  0.08596000  1.0
  Al  Al10  1  0.25000000  0.50000000  0.90805000  1.0
  Al  Al11  1  0.00000000  0.25000000  0.96935000  1.0
  Al  Al12  1  0.00000000  0.75000000  0.96935000  1.0
  Al  Al13  1  0.25222000  0.00070000  0.04166000  1.0
  Al  Al14  1  0.00000000  0.77279000  0.08627000  1.0
  Al  Al15  1  0.00000000  0.22777000  0.08578000  1.0
  C  C16  1  0.50000000  0.76521000  0.17104000  1.0
  O  O17  1  0.50000000  0.75104000  0.21788000  1.0
