data_image0
_chemical_formula_structural       Mn16Ni16CO
_chemical_formula_sum              "Mn16 Ni16 C1 O1"
_cell_length_a       5.87849
_cell_length_b       8.31345
_cell_length_c       26.2351
_cell_angle_alpha    90
_cell_angle_beta     90
_cell_angle_gamma    90

_space_group_name_H-M_alt    "P 1"
_space_group_IT_number       1

loop_
  _space_group_symop_operation_xyz
  'x, y, z'

loop_
  _atom_site_type_symbol
  _atom_site_label
  _atom_site_symmetry_multiplicity
  _atom_site_fract_x
  _atom_site_fract_y
  _atom_site_fract_z
  _atom_site_occupancy
  Mn  Mn1       1.0  0.00000  0.00000  0.88117  1.0000
  Mn  Mn2       1.0  0.00000  0.25000  0.96039  1.0000
  Mn  Mn3       1.0  0.00051  0.00001  0.03928  1.0000
  Mn  Mn4       1.0  0.99613  0.25281  0.12178  1.0000
  Mn  Mn5       1.0  0.00000  0.50000  0.88117  1.0000
  Mn  Mn6       1.0  0.00000  0.75000  0.96039  1.0000
  Mn  Mn7       1.0  0.00076  0.49999  0.03939  1.0000
  Mn  Mn8       1.0  0.99613  0.74719  0.12179  1.0000
  Mn  Mn9       1.0  0.50000  0.00000  0.88117  1.0000
  Mn  Mn10      1.0  0.50000  0.25000  0.96039  1.0000
  Mn  Mn11      1.0  0.49949  0.00001  0.03928  1.0000
  Mn  Mn12      1.0  0.50387  0.25281  0.12178  1.0000
  Mn  Mn13      1.0  0.50000  0.50000  0.88117  1.0000
  Mn  Mn14      1.0  0.50000  0.75000  0.96039  1.0000
  Mn  Mn15      1.0  0.49924  0.49999  0.03939  1.0000
  Mn  Mn16      1.0  0.50387  0.74719  0.12179  1.0000
  Ni  Ni1       1.0  0.25000  0.25000  0.88117  1.0000
  Ni  Ni2       1.0  0.25000  0.00000  0.96039  1.0000
  Ni  Ni3       1.0  0.25000  0.24695  0.04152  1.0000
  Ni  Ni4       1.0  0.25000  1.00000  0.11865  1.0000
  Ni  Ni5       1.0  0.25000  0.75000  0.88117  1.0000
  Ni  Ni6       1.0  0.25000  0.50000  0.96039  1.0000
  Ni  Ni7       1.0  0.25000  0.75304  0.04153  1.0000
  Ni  Ni8       1.0  0.25000  0.49999  0.11347  1.0000
  Ni  Ni9       1.0  0.75000  0.25000  0.88117  1.0000
  Ni  Ni10      1.0  0.75000  0.00000  0.96039  1.0000
  Ni  Ni11      1.0  0.75000  0.24941  0.04053  1.0000
  Ni  Ni12      1.0  0.75000  0.00001  0.11279  1.0000
  Ni  Ni13      1.0  0.75000  0.75000  0.88117  1.0000
  Ni  Ni14      1.0  0.75000  0.50000  0.96039  1.0000
  Ni  Ni15      1.0  0.75000  0.75059  0.04054  1.0000
  Ni  Ni16      1.0  0.75000  0.49999  0.11325  1.0000
  C   C1        1.0  0.25000  0.99999  0.18598  1.0000
  O   O1        1.0  0.25000  0.00000  0.23023  1.0000
