# generated using pymatgen
data_Li8Y8In8Au8C
_symmetry_space_group_name_H-M   'P 1'
_cell_length_a   9.74930000
_cell_length_b   6.89380000
_cell_length_c   27.31200000
_cell_angle_alpha   90.00000000
_cell_angle_beta   90.00000000
_cell_angle_gamma   90.00000000
_symmetry_Int_Tables_number   1
_chemical_formula_structural   Li8Y8In8Au8C
_chemical_formula_sum   'Li8 Y8 In8 Au8 C1'
_cell_volume   1835.63199117
_cell_formula_units_Z   1
loop_
 _symmetry_equiv_pos_site_id
 _symmetry_equiv_pos_as_xyz
  1  'x, y, z'
loop_
 _atom_site_type_symbol
 _atom_site_label
 _atom_site_symmetry_multiplicity
 _atom_site_fract_x
 _atom_site_fract_y
 _atom_site_fract_z
 _atom_site_occupancy
  Li  Li0  1  0.25000000  0.00000000  0.04462000  1.0
  Li  Li1  1  0.75000000  0.00000000  0.04462000  1.0
  Li  Li2  1  0.50000000  0.50000000  0.13386000  1.0
  Li  Li3  1  0.00000000  0.50000000  0.13386000  1.0
  Li  Li4  1  0.79392000  0.13556000  0.80573000  1.0
  Li  Li5  1  0.20608000  0.13556000  0.80573000  1.0
  Li  Li6  1  0.00000000  0.52133000  0.95008000  1.0
  Li  Li7  1  0.50000000  0.50273000  0.94956000  1.0
  Y  Y8  1  0.00000000  0.75000000  0.04462000  1.0
  Y  Y9  1  0.50000000  0.75000000  0.04462000  1.0
  Y  Y10  1  0.25000000  0.25000000  0.13386000  1.0
  Y  Y11  1  0.75000000  0.25000000  0.13386000  1.0
  Y  Y12  1  0.50000000  0.79215000  0.86487000  1.0
  Y  Y13  1  0.00000000  0.79564000  0.86031000  1.0
  Y  Y14  1  0.75058000  0.24281000  0.95012000  1.0
  Y  Y15  1  0.24942000  0.24281000  0.95012000  1.0
  In  In16  1  0.00000000  0.25000000  0.04462000  1.0
  In  In17  1  0.50000000  0.25000000  0.04462000  1.0
  In  In18  1  0.25000000  0.75000000  0.13386000  1.0
  In  In19  1  0.75000000  0.75000000  0.13386000  1.0
  In  In20  1  0.50000000  0.25721000  0.85636000  1.0
  In  In21  1  0.00000000  0.29039000  0.86615000  1.0
  In  In22  1  0.74864000  0.75636000  0.95524000  1.0
  In  In23  1  0.25136000  0.75636000  0.95524000  1.0
  Au  Au24  1  0.00000000  0.00000000  0.13386000  1.0
  Au  Au25  1  0.50000000  0.00000000  0.13386000  1.0
  Au  Au26  1  0.75000000  0.50000000  0.04462000  1.0
  Au  Au27  1  0.25000000  0.50000000  0.04462000  1.0
  Au  Au28  1  0.50000000  0.00539000  0.95646000  1.0
  Au  Au29  1  0.00000000  0.99884000  0.95826000  1.0
  Au  Au30  1  0.26203000  0.51736000  0.86836000  1.0
  Au  Au31  1  0.73797000  0.51736000  0.86836000  1.0
  C  C32  1  0.00000000  0.05389000  0.81450000  1.0
