# generated using pymatgen
data_Li8Y8In8Au8C
_symmetry_space_group_name_H-M   Pm
_cell_length_a   6.89380000
_cell_length_b   9.74930000
_cell_length_c   27.31200000
_cell_angle_alpha   90.00000000
_cell_angle_beta   90.00000000
_cell_angle_gamma   90.00000000
_symmetry_Int_Tables_number   6
_chemical_formula_structural   Li8Y8In8Au8C
_chemical_formula_sum   'Li8 Y8 In8 Au8 C1'
_cell_volume   1835.63199117
_cell_formula_units_Z   1
loop_
 _symmetry_equiv_pos_site_id
 _symmetry_equiv_pos_as_xyz
  1  'x, y, z'
  2  'x, -y, z'
loop_
 _atom_site_type_symbol
 _atom_site_label
 _atom_site_symmetry_multiplicity
 _atom_site_fract_x
 _atom_site_fract_y
 _atom_site_fract_z
 _atom_site_occupancy
  Li  Li0  2  0.00000000  0.25000000  0.95538000  1.0
  Li  Li1  2  0.13556000  0.20608000  0.19427000  1.0
  Li  Li2  1  0.50000000  0.00000000  0.86614000  1.0
  Li  Li3  1  0.50000000  0.50000000  0.86614000  1.0
  Li  Li4  1  0.50273000  0.50000000  0.05044000  1.0
  Li  Li5  1  0.52133000  0.00000000  0.04992000  1.0
  Y  Y6  2  0.24281000  0.24942000  0.04988000  1.0
  Y  Y7  2  0.25000000  0.25000000  0.86614000  1.0
  Y  Y8  1  0.75000000  0.00000000  0.95538000  1.0
  Y  Y9  1  0.75000000  0.50000000  0.95538000  1.0
  Y  Y10  1  0.79215000  0.50000000  0.13513000  1.0
  Y  Y11  1  0.79564000  0.00000000  0.13969000  1.0
  In  In12  2  0.75000000  0.25000000  0.86614000  1.0
  In  In13  2  0.75636000  0.25136000  0.04476000  1.0
  In  In14  1  0.25000000  0.00000000  0.95538000  1.0
  In  In15  1  0.25000000  0.50000000  0.95538000  1.0
  In  In16  1  0.25721000  0.50000000  0.14364000  1.0
  In  In17  1  0.29039000  0.00000000  0.13385000  1.0
  Au  Au18  2  0.50000000  0.25000000  0.95538000  1.0
  Au  Au19  2  0.51736000  0.26203000  0.13164000  1.0
  Au  Au20  1  0.00000000  0.00000000  0.86614000  1.0
  Au  Au21  1  0.00000000  0.50000000  0.86614000  1.0
  Au  Au22  1  0.00539000  0.50000000  0.04354000  1.0
  Au  Au23  1  0.99884000  0.00000000  0.04174000  1.0
  C  C24  1  0.05389000  0.00000000  0.18550000  1.0
