data_image0
_chemical_formula_structural       Li4Y4Ge4Pb4C
_chemical_formula_sum              "Li4 Y4 Ge4 Pb4 C1"
_cell_length_a       6.52719
_cell_length_b       8.655
_cell_length_c       24.8463
_cell_angle_alpha    90
_cell_angle_beta     90
_cell_angle_gamma    90

_space_group_name_H-M_alt    "P 1"
_space_group_IT_number       1

loop_
  _space_group_symop_operation_xyz
  'x, y, z'

loop_
  _atom_site_type_symbol
  _atom_site_label
  _atom_site_symmetry_multiplicity
  _atom_site_fract_x
  _atom_site_fract_y
  _atom_site_fract_z
  _atom_site_occupancy
  Li  Li1       1.0  0.60944  0.99105  0.10851  1.0000
  Li  Li2       1.0  0.92937  0.00000  0.96749  1.0000
  Li  Li3       1.0  0.60935  0.50897  0.10848  1.0000
  Li  Li4       1.0  0.92937  0.50000  0.96749  1.0000
  Y   Y1        1.0  0.27546  0.24999  0.03296  1.0000
  Y   Y2        1.0  0.64406  0.25000  0.90247  1.0000
  Y   Y3        1.0  0.21240  0.74998  0.04059  1.0000
  Y   Y4        1.0  0.64406  0.75000  0.90247  1.0000
  Ge  Ge1       1.0  0.04758  0.03149  0.11080  1.0000
  Ge  Ge2       1.0  0.42937  0.00000  0.96749  1.0000
  Ge  Ge3       1.0  0.04755  0.46841  0.11083  1.0000
  Ge  Ge4       1.0  0.42937  0.50000  0.96749  1.0000
  Pb  Pb1       1.0  0.76120  0.25002  0.04097  1.0000
  Pb  Pb2       1.0  0.14406  0.25000  0.90247  1.0000
  Pb  Pb3       1.0  0.70323  0.75002  0.03370  1.0000
  Pb  Pb4       1.0  0.14406  0.75000  0.90247  1.0000
  C   C1        1.0  0.07179  0.24995  0.11319  1.0000
