# generated using pymatgen
data_Li4Y4Ge4Pb4C
_symmetry_space_group_name_H-M   P1
_cell_length_a   6.52719000
_cell_length_b   8.65500000
_cell_length_c   24.84630000
_cell_angle_alpha   90.00000000
_cell_angle_beta   90.00000000
_cell_angle_gamma   90.00000000
_symmetry_Int_Tables_number   1
_chemical_formula_structural   Li4Y4Ge4Pb4C
_chemical_formula_sum   'Li4 Y4 Ge4 Pb4 C1'
_cell_volume   1403.63778836
_cell_formula_units_Z   1
loop_
 _symmetry_equiv_pos_site_id
 _symmetry_equiv_pos_as_xyz
  1  'x, y, z'
loop_
 _atom_site_type_symbol
 _atom_site_label
 _atom_site_symmetry_multiplicity
 _atom_site_fract_x
 _atom_site_fract_y
 _atom_site_fract_z
 _atom_site_occupancy
  Li  Li0  1  0.60935000  0.50897000  0.10848000  1.0
  Li  Li1  1  0.60944000  0.99105000  0.10851000  1.0
  Li  Li2  1  0.92937000  0.00000000  0.96749000  1.0
  Li  Li3  1  0.92937000  0.50000000  0.96749000  1.0
  Y  Y4  1  0.21240000  0.74998000  0.04059000  1.0
  Y  Y5  1  0.27546000  0.24999000  0.03296000  1.0
  Y  Y6  1  0.64406000  0.25000000  0.90247000  1.0
  Y  Y7  1  0.64406000  0.75000000  0.90247000  1.0
  Ge  Ge8  1  0.04755000  0.46841000  0.11083000  1.0
  Ge  Ge9  1  0.04758000  0.03149000  0.11080000  1.0
  Ge  Ge10  1  0.42937000  0.00000000  0.96749000  1.0
  Ge  Ge11  1  0.42937000  0.50000000  0.96749000  1.0
  Pb  Pb12  1  0.14406000  0.25000000  0.90247000  1.0
  Pb  Pb13  1  0.14406000  0.75000000  0.90247000  1.0
  Pb  Pb14  1  0.70323000  0.75002000  0.03370000  1.0
  Pb  Pb15  1  0.76120000  0.25002000  0.04097000  1.0
  C  C16  1  0.07179000  0.24995000  0.11319000  1.0
