# generated using pymatgen
data_Zr8In8Au16C
_symmetry_space_group_name_H-M   'P 1'
_cell_length_a   9.71577000
_cell_length_b   6.87009000
_cell_length_c   27.28680000
_cell_angle_alpha   90.00000000
_cell_angle_beta   90.00000000
_cell_angle_gamma   90.00000000
_symmetry_Int_Tables_number   1
_chemical_formula_structural   Zr8In8Au16C
_chemical_formula_sum   'Zr8 In8 Au16 C1'
_cell_volume   1821.34517449
_cell_formula_units_Z   1
loop_
 _symmetry_equiv_pos_site_id
 _symmetry_equiv_pos_as_xyz
  1  'x, y, z'
loop_
 _atom_site_type_symbol
 _atom_site_label
 _atom_site_symmetry_multiplicity
 _atom_site_fract_x
 _atom_site_fract_y
 _atom_site_fract_z
 _atom_site_occupancy
  Zr  Zr0  1  0.75001000  0.00000000  0.13352000  1.0
  Zr  Zr1  1  0.00000000  0.50000000  0.04451000  1.0
  Zr  Zr2  1  0.50000000  0.50000000  0.04451000  1.0
  Zr  Zr3  1  0.24999000  0.00000000  0.13352000  1.0
  Zr  Zr4  1  0.25805000  0.00154000  0.95159000  1.0
  Zr  Zr5  1  0.50000000  0.47530000  0.87450000  1.0
  Zr  Zr6  1  0.00000000  0.51591000  0.87344000  1.0
  Zr  Zr7  1  0.74195000  0.00154000  0.95159000  1.0
  In  In8  1  0.50000000  0.00000000  0.04451000  1.0
  In  In9  1  0.75001000  0.50000000  0.13352000  1.0
  In  In10  1  0.00000000  0.00000000  0.04451000  1.0
  In  In11  1  0.24999000  0.50000000  0.13352000  1.0
  In  In12  1  0.00000000  0.92088000  0.83776000  1.0
  In  In13  1  0.24243000  0.49887000  0.95734000  1.0
  In  In14  1  0.50000000  0.01172000  0.85860000  1.0
  In  In15  1  0.75757000  0.49887000  0.95734000  1.0
  Au  Au16  1  0.75001000  0.25000000  0.04451000  1.0
  Au  Au17  1  0.25001000  0.75000000  0.04451000  1.0
  Au  Au18  1  0.74999000  0.75000000  0.04451000  1.0
  Au  Au19  1  0.24999000  0.25000000  0.04451000  1.0
  Au  Au20  1  0.50000000  0.75000000  0.13352000  1.0
  Au  Au21  1  0.00000000  0.25000000  0.13352000  1.0
  Au  Au22  1  0.50000000  0.25000000  0.13352000  1.0
  Au  Au23  1  0.00000000  0.75000000  0.13352000  1.0
  Au  Au24  1  0.24867000  0.26023000  0.85871000  1.0
  Au  Au25  1  0.73690000  0.73110000  0.86493000  1.0
  Au  Au26  1  0.26310000  0.73110000  0.86493000  1.0
  Au  Au27  1  0.75133000  0.26023000  0.85871000  1.0
  Au  Au28  1  0.00000000  0.78017000  0.95650000  1.0
  Au  Au29  1  0.50000000  0.24552000  0.95857000  1.0
  Au  Au30  1  0.00000000  0.22409000  0.95102000  1.0
  Au  Au31  1  0.50000000  0.74651000  0.95641000  1.0
  C  C32  1  0.00000000  0.22690000  0.85553000  1.0
