# generated using pymatgen
data_Sc8In8Ga8Pd8CO
_symmetry_space_group_name_H-M   'P 1'
_cell_length_a   9.45042000
_cell_length_b   6.68246000
_cell_length_c   27.08780000
_cell_angle_alpha   90.00000000
_cell_angle_beta   90.00000000
_cell_angle_gamma   90.00000000
_symmetry_Int_Tables_number   1
_chemical_formula_structural   Sc8In8Ga8Pd8CO
_chemical_formula_sum   'Sc8 In8 Ga8 Pd8 C1 O1'
_cell_volume   1710.65019841
_cell_formula_units_Z   1
loop_
 _symmetry_equiv_pos_site_id
 _symmetry_equiv_pos_as_xyz
  1  'x, y, z'
loop_
 _atom_site_type_symbol
 _atom_site_label
 _atom_site_symmetry_multiplicity
 _atom_site_fract_x
 _atom_site_fract_y
 _atom_site_fract_z
 _atom_site_occupancy
  Sc  Sc0  1  0.00000000  0.75000000  0.04361000  1.0
  Sc  Sc1  1  0.50000000  0.75000000  0.04361000  1.0
  Sc  Sc2  1  0.24999000  0.25000000  0.13083000  1.0
  Sc  Sc3  1  0.75001000  0.25000000  0.13083000  1.0
  Sc  Sc4  1  0.50000000  0.74899000  0.87007000  1.0
  Sc  Sc5  1  0.00000000  0.75482000  0.87026000  1.0
  Sc  Sc6  1  0.76039000  0.25816000  0.95570000  1.0
  Sc  Sc7  1  0.23961000  0.25816000  0.95570000  1.0
  In  In8  1  0.00000000  0.25000000  0.04361000  1.0
  In  In9  1  0.50000000  0.25000000  0.04361000  1.0
  In  In10  1  0.24999000  0.75000000  0.13083000  1.0
  In  In11  1  0.75001000  0.75000000  0.13083000  1.0
  In  In12  1  0.50000000  0.25416000  0.84688000  1.0
  In  In13  1  0.00000000  0.25083000  0.86294000  1.0
  In  In14  1  0.73651000  0.74459000  0.95568000  1.0
  In  In15  1  0.26349000  0.74459000  0.95568000  1.0
  Ga  Ga16  1  0.00000000  0.00000000  0.13083000  1.0
  Ga  Ga17  1  0.50000000  0.00000000  0.13083000  1.0
  Ga  Ga18  1  0.74999000  0.50000000  0.04361000  1.0
  Ga  Ga19  1  0.25001000  0.50000000  0.04361000  1.0
  Ga  Ga20  1  0.50000000  0.04427000  0.94450000  1.0
  Ga  Ga21  1  0.00000000  0.99081000  0.95538000  1.0
  Ga  Ga22  1  0.24966000  0.50818000  0.85683000  1.0
  Ga  Ga23  1  0.75034000  0.50818000  0.85683000  1.0
  Pd  Pd24  1  0.24999000  0.00000000  0.04361000  1.0
  Pd  Pd25  1  0.75001000  0.00000000  0.04361000  1.0
  Pd  Pd26  1  0.50000000  0.50000000  0.13083000  1.0
  Pd  Pd27  1  0.00000000  0.50000000  0.13083000  1.0
  Pd  Pd28  1  0.74621000  0.01026000  0.87609000  1.0
  Pd  Pd29  1  0.25379000  0.01026000  0.87609000  1.0
  Pd  Pd30  1  0.00000000  0.52184000  0.95586000  1.0
  Pd  Pd31  1  0.50000000  0.46590000  0.95006000  1.0
  C  C32  1  0.00000000  0.31472000  0.72164000  1.0
  O  O33  1  0.00000000  0.19511000  0.69184000  1.0
