# generated using pymatgen
data_Sc16Au16C
_symmetry_space_group_name_H-M   Pmm2
_cell_length_a   6.85145000
_cell_length_b   9.68941000
_cell_length_c   27.26710000
_cell_angle_alpha   90.00000000
_cell_angle_beta   90.00000000
_cell_angle_gamma   90.00000000
_symmetry_Int_Tables_number   25
_chemical_formula_structural   Sc16Au16C
_chemical_formula_sum   'Sc16 Au16 C1'
_cell_volume   1810.16755623
_cell_formula_units_Z   1
loop_
 _symmetry_equiv_pos_site_id
 _symmetry_equiv_pos_as_xyz
  1  'x, y, z'
  2  '-x, -y, z'
  3  '-x, y, z'
  4  'x, -y, z'
loop_
 _atom_site_type_symbol
 _atom_site_label
 _atom_site_symmetry_multiplicity
 _atom_site_fract_x
 _atom_site_fract_y
 _atom_site_fract_z
 _atom_site_occupancy
  Sc  Sc0  2  0.00000000  0.22839000  0.12975000  1.0
  Sc  Sc1  2  0.00000000  0.25000000  0.95558000  1.0
  Sc  Sc2  2  0.50000000  0.25000000  0.95558000  1.0
  Sc  Sc3  2  0.50000000  0.26680000  0.13344000  1.0
  Sc  Sc4  1  0.00000000  0.00000000  0.04625000  1.0
  Sc  Sc5  1  0.00000000  0.00000000  0.86674000  1.0
  Sc  Sc6  1  0.00000000  0.50000000  0.04419000  1.0
  Sc  Sc7  1  0.00000000  0.50000000  0.86674000  1.0
  Sc  Sc8  1  0.50000000  0.00000000  0.04635000  1.0
  Sc  Sc9  1  0.50000000  0.00000000  0.86674000  1.0
  Sc  Sc10  1  0.50000000  0.50000000  0.04549000  1.0
  Sc  Sc11  1  0.50000000  0.50000000  0.86674000  1.0
  Au  Au12  4  0.25000000  0.25000000  0.86674000  1.0
  Au  Au13  4  0.25772000  0.25189000  0.04323000  1.0
  Au  Au14  2  0.23522000  0.50000000  0.12852000  1.0
  Au  Au15  2  0.25000000  0.00000000  0.95558000  1.0
  Au  Au16  2  0.25000000  0.50000000  0.95558000  1.0
  Au  Au17  2  0.30388000  0.00000000  0.13911000  1.0
  C  C18  1  0.00000000  0.00000000  0.12563000  1.0
