# generated using pymatgen
data_Li16In8Ir8C
_symmetry_space_group_name_H-M   Pmm2
_cell_length_a   6.17944000
_cell_length_b   8.73904000
_cell_length_c   26.55430000
_cell_angle_alpha   90.00000000
_cell_angle_beta   90.00000000
_cell_angle_gamma   90.00000000
_symmetry_Int_Tables_number   25
_chemical_formula_structural   Li16In8Ir8C
_chemical_formula_sum   'Li16 In8 Ir8 C1'
_cell_volume   1433.99522232
_cell_formula_units_Z   1
loop_
 _symmetry_equiv_pos_site_id
 _symmetry_equiv_pos_as_xyz
  1  'x, y, z'
  2  '-x, -y, z'
  3  '-x, y, z'
  4  'x, -y, z'
loop_
 _atom_site_type_symbol
 _atom_site_label
 _atom_site_symmetry_multiplicity
 _atom_site_fract_x
 _atom_site_fract_y
 _atom_site_fract_z
 _atom_site_occupancy
  Li  Li0  4  0.24865000  0.25111000  0.04039000  1.0
  Li  Li1  4  0.25000000  0.25000000  0.87659000  1.0
  Li  Li2  2  0.21543000  0.50000000  0.14487000  1.0
  Li  Li3  2  0.21609000  0.00000000  0.15740000  1.0
  Li  Li4  2  0.25000000  0.50000000  0.95886000  1.0
  Li  Li5  2  0.25000000  0.00000000  0.95886000  1.0
  In  In6  2  0.50000000  0.25000000  0.95886000  1.0
  In  In7  2  0.50000000  0.26619000  0.12723000  1.0
  In  In8  1  0.00000000  0.00000000  0.05180000  1.0
  In  In9  1  0.00000000  0.00000000  0.87659000  1.0
  In  In10  1  0.00000000  0.50000000  0.04919000  1.0
  In  In11  1  0.00000000  0.50000000  0.87659000  1.0
  Ir  Ir12  2  0.00000000  0.24756000  0.12035000  1.0
  Ir  Ir13  2  0.00000000  0.25000000  0.95886000  1.0
  Ir  Ir14  1  0.50000000  0.00000000  0.04368000  1.0
  Ir  Ir15  1  0.50000000  0.00000000  0.87659000  1.0
  Ir  Ir16  1  0.50000000  0.50000000  0.04893000  1.0
  Ir  Ir17  1  0.50000000  0.50000000  0.87659000  1.0
  C  C18  1  0.50000000  0.00000000  0.11206000  1.0
