# generated using pymatgen
data_Li8Ga4Au4CO
_symmetry_space_group_name_H-M   'P 1'
_cell_length_a   6.29417000
_cell_length_b   6.29417000
_cell_length_c   24.72060000
_cell_angle_alpha   90.00000000
_cell_angle_beta   90.00000000
_cell_angle_gamma   90.00000000
_symmetry_Int_Tables_number   1
_chemical_formula_structural   Li8Ga4Au4CO
_chemical_formula_sum   'Li8 Ga4 Au4 C1 O1'
_cell_volume   979.34552839
_cell_formula_units_Z   1
loop_
 _symmetry_equiv_pos_site_id
 _symmetry_equiv_pos_as_xyz
  1  'x, y, z'
loop_
 _atom_site_type_symbol
 _atom_site_label
 _atom_site_symmetry_multiplicity
 _atom_site_fract_x
 _atom_site_fract_y
 _atom_site_fract_z
 _atom_site_occupancy
  Li  Li0  1  0.00000000  0.00000000  0.96817000  1
  Li  Li1  1  0.00000000  0.50000000  0.10257000  1
  Li  Li2  1  0.50000000  1.00000000  0.10257000  1
  Li  Li3  1  0.50000000  0.50000000  0.96817000  1
  Li  Li4  1  0.75000000  0.25000000  0.90452000  1
  Li  Li5  1  0.25015000  0.25015000  0.03298000  1
  Li  Li6  1  0.25000000  0.75000000  0.90452000  1
  Li  Li7  1  0.74985000  0.74985000  0.03298000  1
  Ga  Ga8  1  0.00000000  0.00000000  0.08882000  1
  Ga  Ga9  1  0.50000000  0.50000000  0.09621000  1
  Ga  Ga10  1  0.00000000  0.50000000  0.96817000  1
  Ga  Ga11  1  0.50000000  1.00000000  0.96817000  1
  Au  Au12  1  0.74320500  0.25679500  0.03175000  1
  Au  Au13  1  0.25000000  0.25000000  0.90452000  1
  Au  Au14  1  0.25679500  0.74320500  0.03175000  1
  Au  Au15  1  0.75000000  0.75000000  0.90452000  1
  C  C16  1  0.00000000  0.00000000  0.16949000  1
  O  O17  1  0.00000000  0.00000000  0.21654000  1
