# generated using pymatgen
data_Li4Ge4Pd4Pt4C
_symmetry_space_group_name_H-M   'P 1'
_cell_length_a   6.12898000
_cell_length_b   6.12898000
_cell_length_c   24.59670000
_cell_angle_alpha   90.00000000
_cell_angle_beta   90.00000000
_cell_angle_gamma   90.00000000
_symmetry_Int_Tables_number   1
_chemical_formula_structural   Li4Ge4Pd4Pt4C
_chemical_formula_sum   'Li4 Ge4 Pd4 Pt4 C1'
_cell_volume   923.96017517
_cell_formula_units_Z   1
loop_
 _symmetry_equiv_pos_site_id
 _symmetry_equiv_pos_as_xyz
  1  'x, y, z'
loop_
 _atom_site_type_symbol
 _atom_site_label
 _atom_site_symmetry_multiplicity
 _atom_site_fract_x
 _atom_site_fract_y
 _atom_site_fract_z
 _atom_site_occupancy
  Li  Li0  1  0.00000000  0.50000000  0.09344000  1.0
  Li  Li1  1  0.00000000  0.00000000  0.96351000  1.0
  Li  Li2  1  0.50000000  0.50000000  0.96306000  1.0
  Li  Li3  1  0.50000000  0.00000000  0.09344000  1.0
  Ge  Ge4  1  0.00000000  0.00000000  0.09344000  1.0
  Ge  Ge5  1  0.00000000  0.50000000  0.97728000  1.0
  Ge  Ge6  1  0.50000000  0.00000000  0.96127000  1.0
  Ge  Ge7  1  0.50000000  0.50000000  0.09344000  1.0
  Pd  Pd8  1  0.75000000  0.25000000  0.03115000  1.0
  Pd  Pd9  1  0.74261000  0.75792000  0.89994000  1.0
  Pd  Pd10  1  0.25739000  0.24208000  0.89994000  1.0
  Pd  Pd11  1  0.25000000  0.75000000  0.03115000  1.0
  Pt  Pt12  1  0.25000000  0.25000000  0.03115000  1.0
  Pt  Pt13  1  0.22316000  0.72379000  0.90391000  1.0
  Pt  Pt14  1  0.77684000  0.27621000  0.90391000  1.0
  Pt  Pt15  1  0.75000000  0.75000000  0.03115000  1.0
  C  C16  1  0.00000000  0.50000000  0.88335000  1.0
