data_image0
_chemical_formula_structural       Sc8Al8Pd16C
_chemical_formula_sum              "Sc8 Al8 Pd16 C1"
_cell_length_a       6.41477
_cell_length_b       9.07185
_cell_length_c       26.8039
_cell_angle_alpha    90
_cell_angle_beta     90
_cell_angle_gamma    90

_space_group_name_H-M_alt    "P 1"
_space_group_IT_number       1

loop_
  _space_group_symop_operation_xyz
  'x, y, z'

loop_
  _atom_site_type_symbol
  _atom_site_label
  _atom_site_symmetry_multiplicity
  _atom_site_fract_x
  _atom_site_fract_y
  _atom_site_fract_z
  _atom_site_occupancy
  Sc  Sc1       1.0  0.00000  0.00000  0.87308  1.0000
  Sc  Sc2       1.0  0.50000  0.25000  0.95769  1.0000
  Sc  Sc3       1.0  0.50000  0.75000  0.95769  1.0000
  Sc  Sc4       1.0  0.00000  0.50000  0.87308  1.0000
  Sc  Sc5       1.0  0.00420  0.50082  0.04046  1.0000
  Sc  Sc6       1.0  0.49352  0.75000  0.12955  1.0000
  Sc  Sc7       1.0  0.55202  0.25000  0.14316  1.0000
  Sc  Sc8       1.0  0.00420  0.99918  0.04046  1.0000
  Al  Al1       1.0  0.00000  0.75000  0.95769  1.0000
  Al  Al2       1.0  0.50000  0.00000  0.87308  1.0000
  Al  Al3       1.0  0.00000  0.25000  0.95769  1.0000
  Al  Al4       1.0  0.50000  0.50000  0.87308  1.0000
  Al  Al5       1.0  0.96118  0.25000  0.12155  1.0000
  Al  Al6       1.0  0.50285  0.49890  0.04590  1.0000
  Al  Al7       1.0  0.00986  0.75000  0.12276  1.0000
  Al  Al8       1.0  0.50285  0.00109  0.04590  1.0000
  Pd  Pd1       1.0  0.25000  0.00000  0.95769  1.0000
  Pd  Pd2       1.0  0.75000  0.50000  0.95769  1.0000
  Pd  Pd3       1.0  0.75000  0.00000  0.95769  1.0000
  Pd  Pd4       1.0  0.25000  0.50000  0.95769  1.0000
  Pd  Pd5       1.0  0.75000  0.75000  0.87308  1.0000
  Pd  Pd6       1.0  0.25000  0.25000  0.87308  1.0000
  Pd  Pd7       1.0  0.25000  0.75000  0.87308  1.0000
  Pd  Pd8       1.0  0.75000  0.25000  0.87308  1.0000
  Pd  Pd9       1.0  0.23881  0.49741  0.12315  1.0000
  Pd  Pd10      1.0  0.76514  0.98971  0.12178  1.0000
  Pd  Pd11      1.0  0.76515  0.51029  0.12178  1.0000
  Pd  Pd12      1.0  0.23881  0.00259  0.12316  1.0000
  Pd  Pd13      1.0  0.74264  0.25000  0.04179  1.0000
  Pd  Pd14      1.0  0.26474  0.74999  0.04292  1.0000
  Pd  Pd15      1.0  0.26714  0.24999  0.04856  1.0000
  Pd  Pd16      1.0  0.74677  0.75000  0.04194  1.0000
  C   C1        1.0  0.24432  0.25000  0.13755  1.0000
