# generated using pymatgen
data_Sc8Al8Pd16C
_symmetry_space_group_name_H-M   'P 1'
_cell_length_a   9.07185000
_cell_length_b   6.41477000
_cell_length_c   26.80390000
_cell_angle_alpha   90.00000000
_cell_angle_beta   90.00000000
_cell_angle_gamma   90.00000000
_symmetry_Int_Tables_number   1
_chemical_formula_structural   Sc8Al8Pd16C
_chemical_formula_sum   'Sc8 Al8 Pd16 C1'
_cell_volume   1559.82163276
_cell_formula_units_Z   1
loop_
 _symmetry_equiv_pos_site_id
 _symmetry_equiv_pos_as_xyz
  1  'x, y, z'
loop_
 _atom_site_type_symbol
 _atom_site_label
 _atom_site_symmetry_multiplicity
 _atom_site_fract_x
 _atom_site_fract_y
 _atom_site_fract_z
 _atom_site_occupancy
  Sc  Sc0  1  0.75000000  0.00000000  0.12692000  1.0
  Sc  Sc1  1  0.00000000  0.50000000  0.04231000  1.0
  Sc  Sc2  1  0.50000000  0.50000000  0.04231000  1.0
  Sc  Sc3  1  0.25000000  0.00000000  0.12692000  1.0
  Sc  Sc4  1  0.25082000  0.00420000  0.95954000  1.0
  Sc  Sc5  1  0.50000000  0.49352000  0.87045000  1.0
  Sc  Sc6  1  0.00000000  0.55202000  0.85684000  1.0
  Sc  Sc7  1  0.74918000  0.00420000  0.95954000  1.0
  Al  Al8  1  0.50000000  1.00000000  0.04231000  1.0
  Al  Al9  1  0.75000000  0.50000000  0.12692000  1.0
  Al  Al10  1  0.00000000  1.00000000  0.04231000  1.0
  Al  Al11  1  0.25000000  0.50000000  0.12692000  1.0
  Al  Al12  1  0.00000000  0.96118000  0.87845000  1.0
  Al  Al13  1  0.24890000  0.50285000  0.95410000  1.0
  Al  Al14  1  0.50000000  0.00986000  0.87724000  1.0
  Al  Al15  1  0.75110000  0.50285000  0.95410000  1.0
  Pd  Pd16  1  0.75000000  0.25000000  0.04231000  1.0
  Pd  Pd17  1  0.25000000  0.75000000  0.04231000  1.0
  Pd  Pd18  1  0.75000000  0.75000000  0.04231000  1.0
  Pd  Pd19  1  0.25000000  0.25000000  0.04231000  1.0
  Pd  Pd20  1  0.50000000  0.75000000  0.12692000  1.0
  Pd  Pd21  1  0.00000000  0.25000000  0.12692000  1.0
  Pd  Pd22  1  0.50000000  0.25000000  0.12692000  1.0
  Pd  Pd23  1  0.00000000  0.75000000  0.12692000  1.0
  Pd  Pd24  1  0.24741000  0.23881000  0.87685000  1.0
  Pd  Pd25  1  0.73971000  0.76514000  0.87822000  1.0
  Pd  Pd26  1  0.26029000  0.76514000  0.87822000  1.0
  Pd  Pd27  1  0.75259000  0.23881000  0.87685000  1.0
  Pd  Pd28  1  0.00000000  0.74264000  0.95821000  1.0
  Pd  Pd29  1  0.50000000  0.26474000  0.95708000  1.0
  Pd  Pd30  1  0.00000000  0.26714000  0.95144000  1.0
  Pd  Pd31  1  0.50000000  0.74677000  0.95806000  1.0
  C  C32  1  0.00000000  0.24432000  0.86245000  1.0
