# generated using pymatgen
data_Sc8Al8Pd16C
_symmetry_space_group_name_H-M   Pm
_cell_length_a   6.41477000
_cell_length_b   9.07185000
_cell_length_c   26.80390000
_cell_angle_alpha   90.00000000
_cell_angle_beta   90.00000000
_cell_angle_gamma   90.00000000
_symmetry_Int_Tables_number   6
_chemical_formula_structural   Sc8Al8Pd16C
_chemical_formula_sum   'Sc8 Al8 Pd16 C1'
_cell_volume   1559.82163276
_cell_formula_units_Z   1
loop_
 _symmetry_equiv_pos_site_id
 _symmetry_equiv_pos_as_xyz
  1  'x, y, z'
  2  'x, -y, z'
loop_
 _atom_site_type_symbol
 _atom_site_label
 _atom_site_symmetry_multiplicity
 _atom_site_fract_x
 _atom_site_fract_y
 _atom_site_fract_z
 _atom_site_occupancy
  Sc  Sc0  2  0.00000000  0.25000000  0.87308000  1.0
  Sc  Sc1  2  0.00420000  0.25082000  0.04046000  1.0
  Sc  Sc2  1  0.49352000  0.50000000  0.12955000  1.0
  Sc  Sc3  1  0.50000000  0.00000000  0.95769000  1.0
  Sc  Sc4  1  0.50000000  0.50000000  0.95769000  1.0
  Sc  Sc5  1  0.55202000  0.00000000  0.14316000  1.0
  Al  Al6  2  0.50000000  0.25000000  0.87308000  1.0
  Al  Al7  2  0.50285000  0.24890000  0.04590000  1.0
  Al  Al8  1  -0.00000000  0.50000000  0.95769000  1.0
  Al  Al9  1  -0.00000000  0.00000000  0.95769000  1.0
  Al  Al10  1  0.00986000  0.50000000  0.12276000  1.0
  Al  Al11  1  0.96118000  0.00000000  0.12155000  1.0
  Pd  Pd12  2  0.23881000  0.24741000  0.12315000  1.0
  Pd  Pd13  2  0.25000000  0.25000000  0.95769000  1.0
  Pd  Pd14  2  0.75000000  0.25000000  0.95769000  1.0
  Pd  Pd15  2  0.76514000  0.26029000  0.12178000  1.0
  Pd  Pd16  1  0.25000000  0.00000000  0.87308000  1.0
  Pd  Pd17  1  0.25000000  0.50000000  0.87308000  1.0
  Pd  Pd18  1  0.26474000  0.50000000  0.04292000  1.0
  Pd  Pd19  1  0.26714000  0.00000000  0.04856000  1.0
  Pd  Pd20  1  0.74264000  0.00000000  0.04179000  1.0
  Pd  Pd21  1  0.74677000  0.50000000  0.04194000  1.0
  Pd  Pd22  1  0.75000000  0.00000000  0.87308000  1.0
  Pd  Pd23  1  0.75000000  0.50000000  0.87308000  1.0
  C  C24  1  0.24432000  0.00000000  0.13755000  1.0
