# generated using pymatgen
data_Nb4Ir12CO
_symmetry_space_group_name_H-M   Pmm2
_cell_length_a   5.56590000
_cell_length_b   7.87138000
_cell_length_c   24.17440000
_cell_angle_alpha   90.00000000
_cell_angle_beta   90.00000000
_cell_angle_gamma   90.00000000
_symmetry_Int_Tables_number   25
_chemical_formula_structural   Nb4Ir12CO
_chemical_formula_sum   'Nb4 Ir12 C1 O1'
_cell_volume   1059.11222776
_cell_formula_units_Z   1
loop_
 _symmetry_equiv_pos_site_id
 _symmetry_equiv_pos_as_xyz
  1  'x, y, z'
  2  '-x, -y, z'
  3  '-x, y, z'
  4  'x, -y, z'
loop_
 _atom_site_type_symbol
 _atom_site_label
 _atom_site_symmetry_multiplicity
 _atom_site_fract_x
 _atom_site_fract_y
 _atom_site_fract_z
 _atom_site_occupancy
  Nb  Nb0  1  0.00000000  0.00000000  0.91858000  1.0
  Nb  Nb1  1  0.00000000  0.50000000  0.92353000  1.0
  Nb  Nb2  1  0.50000000  0.00000000  0.02878000  1.0
  Nb  Nb3  1  0.50000000  0.50000000  0.02878000  1.0
  Ir  Ir4  4  0.24879000  0.24713000  0.96688000  1.0
  Ir  Ir5  4  0.25000000  0.25000000  0.08634000  1.0
  Ir  Ir6  1  0.00000000  0.00000000  0.02878000  1.0
  Ir  Ir7  1  0.00000000  0.50000000  0.02878000  1.0
  Ir  Ir8  1  0.50000000  0.00000000  0.91785000  1.0
  Ir  Ir9  1  0.50000000  0.50000000  0.91993000  1.0
  C  C10  1  0.00000000  0.00000000  0.82552000  1.0
  O  O11  1  0.00000000  0.00000000  0.77802000  1.0
