# generated using pymatgen
data_Nb24Ge8CO
_symmetry_space_group_name_H-M   P4mm
_cell_length_a   8.21286000
_cell_length_b   8.21286000
_cell_length_c   26.15960000
_cell_angle_alpha   90.00000000
_cell_angle_beta   90.00000000
_cell_angle_gamma   90.00000000
_symmetry_Int_Tables_number   99
_chemical_formula_structural   Nb24Ge8CO
_chemical_formula_sum   'Nb24 Ge8 C1 O1'
_cell_volume   1764.49299454
_cell_formula_units_Z   1
loop_
 _symmetry_equiv_pos_site_id
 _symmetry_equiv_pos_as_xyz
  1  'x, y, z'
  2  '-y, x, z'
  3  '-x, -y, z'
  4  'y, -x, z'
  5  '-x, y, z'
  6  'y, x, z'
  7  'x, -y, z'
  8  '-y, -x, z'
loop_
 _atom_site_type_symbol
 _atom_site_label
 _atom_site_symmetry_multiplicity
 _atom_site_fract_x
 _atom_site_fract_y
 _atom_site_fract_z
 _atom_site_occupancy
  Nb  Nb0  4  0.00000000  0.25000000  0.03924000  1.0
  Nb  Nb1  4  0.00000000  0.25000000  0.88227000  1.0
  Nb  Nb2  4  0.25000000  0.50000000  0.03924000  1.0
  Nb  Nb3  4  0.25000000  0.50000000  0.88227000  1.0
  Nb  Nb4  2  0.00000000  0.50000000  0.11773000  1.0
  Nb  Nb5  2  0.00000000  0.50000000  0.96076000  1.0
  Nb  Nb6  1  0.00000000  0.00000000  0.11773000  1.0
  Nb  Nb7  1  0.00000000  0.00000000  0.96076000  1.0
  Nb  Nb8  1  0.50000000  0.50000000  0.11773000  1.0
  Nb  Nb9  1  0.50000000  0.50000000  0.96076000  1.0
  Ge  Ge10  4  0.25000000  0.25000000  0.11773000  1.0
  Ge  Ge11  4  0.25000000  0.25000000  0.96076000  1.0
  C  C12  1  0.00000000  0.00000000  0.19036000  1.0
  O  O13  1  0.00000000  0.00000000  0.23432000  1.0
