# generated using pymatgen
data_Li8Zn8Ge8Pd8C
_symmetry_space_group_name_H-M   'P 1'
_cell_length_a   8.74708000
_cell_length_b   6.18512000
_cell_length_c   26.56030000
_cell_angle_alpha   90.00000000
_cell_angle_beta   90.00000000
_cell_angle_gamma   90.00000000
_symmetry_Int_Tables_number   1
_chemical_formula_structural   Li8Zn8Ge8Pd8C
_chemical_formula_sum   'Li8 Zn8 Ge8 Pd8 C1'
_cell_volume   1436.95843030
_cell_formula_units_Z   1
loop_
 _symmetry_equiv_pos_site_id
 _symmetry_equiv_pos_as_xyz
  1  'x, y, z'
loop_
 _atom_site_type_symbol
 _atom_site_label
 _atom_site_symmetry_multiplicity
 _atom_site_fract_x
 _atom_site_fract_y
 _atom_site_fract_z
 _atom_site_occupancy
  Li  Li0  1  0.00000000  0.75000000  0.04117000  1.0
  Li  Li1  1  0.50000000  0.75000000  0.04117000  1.0
  Li  Li2  1  0.24998000  0.25000000  0.12350000  1.0
  Li  Li3  1  0.75002000  0.25000000  0.12350000  1.0
  Li  Li4  1  0.50000000  0.70800000  0.86997000  1.0
  Li  Li5  1  0.00000000  0.81143000  0.86658000  1.0
  Li  Li6  1  0.75409000  0.26433000  0.95373000  1.0
  Li  Li7  1  0.24591000  0.26433000  0.95373000  1.0
  Zn  Zn8  1  0.24998000  0.00000000  0.04117000  1.0
  Zn  Zn9  1  0.75002000  0.00000000  0.04117000  1.0
  Zn  Zn10  1  0.50000000  0.50000000  0.12350000  1.0
  Zn  Zn11  1  0.00000000  0.50000000  0.12350000  1.0
  Zn  Zn12  1  0.73557000  0.00344000  0.87298000  1.0
  Zn  Zn13  1  0.26443000  0.00344000  0.87298000  1.0
  Zn  Zn14  1  0.00000000  0.52392000  0.95528000  1.0
  Zn  Zn15  1  0.50000000  0.50158000  0.96045000  1.0
  Ge  Ge16  1  0.00000000  0.00000000  0.12350000  1.0
  Ge  Ge17  1  0.50000000  0.00000000  0.12350000  1.0
  Ge  Ge18  1  0.74998000  0.50000000  0.04117000  1.0
  Ge  Ge19  1  0.25002000  0.50000000  0.04117000  1.0
  Ge  Ge20  1  0.50000000  0.00166000  0.95735000  1.0
  Ge  Ge21  1  0.00000000  0.97968000  0.96287000  1.0
  Ge  Ge22  1  0.22135000  0.51259000  0.85255000  1.0
  Ge  Ge23  1  0.77865000  0.51259000  0.85255000  1.0
  Pd  Pd24  1  0.00000000  0.25000000  0.04117000  1.0
  Pd  Pd25  1  0.50000000  0.25000000  0.04117000  1.0
  Pd  Pd26  1  0.24998000  0.75000000  0.12350000  1.0
  Pd  Pd27  1  0.75002000  0.75000000  0.12350000  1.0
  Pd  Pd28  1  0.50000000  0.25343000  0.88053000  1.0
  Pd  Pd29  1  0.00000000  0.20943000  0.88608000  1.0
  Pd  Pd30  1  0.74424000  0.74973000  0.95855000  1.0
  Pd  Pd31  1  0.25576000  0.74973000  0.95855000  1.0
  C  C32  1  0.00000000  0.50008000  0.84802000  1.0
