# generated using pymatgen
data_Li8Zn8Ge8Pd8C
_symmetry_space_group_name_H-M   Pm
_cell_length_a   6.18512000
_cell_length_b   8.74708000
_cell_length_c   26.56030000
_cell_angle_alpha   90.00000000
_cell_angle_beta   90.00000000
_cell_angle_gamma   90.00000000
_symmetry_Int_Tables_number   6
_chemical_formula_structural   Li8Zn8Ge8Pd8C
_chemical_formula_sum   'Li8 Zn8 Ge8 Pd8 C1'
_cell_volume   1436.95843030
_cell_formula_units_Z   1
loop_
 _symmetry_equiv_pos_site_id
 _symmetry_equiv_pos_as_xyz
  1  'x, y, z'
  2  'x, -y, z'
loop_
 _atom_site_type_symbol
 _atom_site_label
 _atom_site_symmetry_multiplicity
 _atom_site_fract_x
 _atom_site_fract_y
 _atom_site_fract_z
 _atom_site_occupancy
  Li  Li0  2  0.25000000  0.24998000  0.87650000  1.0
  Li  Li1  2  0.26433000  0.24591000  0.04627000  1.0
  Li  Li2  1  0.70800000  0.50000000  0.13003000  1.0
  Li  Li3  1  0.75000000  0.00000000  0.95883000  1.0
  Li  Li4  1  0.75000000  0.50000000  0.95883000  1.0
  Li  Li5  1  0.81143000  0.00000000  0.13342000  1.0
  Zn  Zn6  2  0.00000000  0.24998000  0.95883000  1.0
  Zn  Zn7  2  0.00344000  0.26443000  0.12702000  1.0
  Zn  Zn8  1  0.50000000  0.00000000  0.87650000  1.0
  Zn  Zn9  1  0.50000000  0.50000000  0.87650000  1.0
  Zn  Zn10  1  0.50158000  0.50000000  0.03955000  1.0
  Zn  Zn11  1  0.52392000  0.00000000  0.04472000  1.0
  Ge  Ge12  2  0.50000000  0.25002000  0.95883000  1.0
  Ge  Ge13  2  0.51259000  0.22135000  0.14745000  1.0
  Ge  Ge14  1  0.00000000  0.00000000  0.87650000  1.0
  Ge  Ge15  1  0.00000000  0.50000000  0.87650000  1.0
  Ge  Ge16  1  0.00166000  0.50000000  0.04265000  1.0
  Ge  Ge17  1  0.97968000  0.00000000  0.03713000  1.0
  Pd  Pd18  2  0.74973000  0.25576000  0.04145000  1.0
  Pd  Pd19  2  0.75000000  0.24998000  0.87650000  1.0
  Pd  Pd20  1  0.20943000  0.00000000  0.11392000  1.0
  Pd  Pd21  1  0.25000000  0.00000000  0.95883000  1.0
  Pd  Pd22  1  0.25000000  0.50000000  0.95883000  1.0
  Pd  Pd23  1  0.25343000  0.50000000  0.11947000  1.0
  C  C24  1  0.50008000  0.00000000  0.15198000  1.0
