# generated using pymatgen
data_Li4In4Cu4Ge4CO
_symmetry_space_group_name_H-M   'P 1'
_cell_length_a   6.49386000
_cell_length_b   6.49386000
_cell_length_c   24.87040000
_cell_angle_alpha   90.00000000
_cell_angle_beta   90.00000000
_cell_angle_gamma   90.00000000
_symmetry_Int_Tables_number   1
_chemical_formula_structural   Li4In4Cu4Ge4CO
_chemical_formula_sum   'Li4 In4 Cu4 Ge4 C1 O1'
_cell_volume   1048.79018228
_cell_formula_units_Z   1
loop_
 _symmetry_equiv_pos_site_id
 _symmetry_equiv_pos_as_xyz
  1  'x, y, z'
loop_
 _atom_site_type_symbol
 _atom_site_label
 _atom_site_symmetry_multiplicity
 _atom_site_fract_x
 _atom_site_fract_y
 _atom_site_fract_z
 _atom_site_occupancy
  Li  Li0  1  0.00000000  0.50000000  0.90208000  1.0
  Li  Li1  1  0.99707000  0.99673000  0.03690000  1.0
  Li  Li2  1  0.50330000  0.50296000  0.03690000  1.0
  Li  Li3  1  0.50000000  0.00000000  0.90208000  1.0
  In  In4  1  0.25000000  0.25000000  0.96736000  1.0
  In  In5  1  0.25017000  0.74995000  0.11873000  1.0
  In  In6  1  0.75014000  0.24990000  0.11874000  1.0
  In  In7  1  0.75000000  0.75000000  0.96736000  1.0
  Cu  Cu8  1  0.00000000  0.00000000  0.90208000  1.0
  Cu  Cu9  1  0.99822000  0.50176000  0.03045000  1.0
  Cu  Cu10  1  0.50198000  0.99822000  0.03039000  1.0
  Cu  Cu11  1  0.50000000  0.50000000  0.90208000  1.0
  Ge  Ge12  1  0.75000000  0.25000000  0.96736000  1.0
  Ge  Ge13  1  0.75008000  0.74998000  0.09189000  1.0
  Ge  Ge14  1  0.25024000  0.24983000  0.08728000  1.0
  Ge  Ge15  1  0.25000000  0.75000000  0.96736000  1.0
  C  C16  1  0.24639000  0.25237000  0.25312000  1.0
  O  O17  1  0.25051000  0.24971000  0.29875000  1.0
