# generated using pymatgen
data_Li16In8Pd8CO
_symmetry_space_group_name_H-M   'P 1'
_cell_length_a   9.14213000
_cell_length_b   6.46446000
_cell_length_c   26.85660000
_cell_angle_alpha   90.00000000
_cell_angle_beta   90.00000000
_cell_angle_gamma   90.00000000
_symmetry_Int_Tables_number   1
_chemical_formula_structural   Li16In8Pd8CO
_chemical_formula_sum   'Li16 In8 Pd8 C1 O1'
_cell_volume   1587.19642280
_cell_formula_units_Z   1
loop_
 _symmetry_equiv_pos_site_id
 _symmetry_equiv_pos_as_xyz
  1  'x, y, z'
loop_
 _atom_site_type_symbol
 _atom_site_label
 _atom_site_symmetry_multiplicity
 _atom_site_fract_x
 _atom_site_fract_y
 _atom_site_fract_z
 _atom_site_occupancy
  Li  Li0  1  0.74999000  0.00000000  0.04255000  1.0
  Li  Li1  1  0.00000000  0.50000000  0.12765000  1.0
  Li  Li2  1  0.25001000  0.00000000  0.04255000  1.0
  Li  Li3  1  0.50000000  0.50000000  0.12765000  1.0
  Li  Li4  1  0.24999000  0.25000000  0.12765000  1.0
  Li  Li5  1  0.75001000  0.25000000  0.12765000  1.0
  Li  Li6  1  0.50000000  0.75000000  0.04255000  1.0
  Li  Li7  1  0.00000000  0.75000000  0.04255000  1.0
  Li  Li8  1  0.24995000  0.00191000  0.87207000  1.0
  Li  Li9  1  0.50000000  0.49208000  0.95707000  1.0
  Li  Li10  1  0.75005000  0.00191000  0.87207000  1.0
  Li  Li11  1  0.00000000  0.50383000  0.95914000  1.0
  Li  Li12  1  0.75140000  0.24768000  0.96085000  1.0
  Li  Li13  1  0.24860000  0.24768000  0.96085000  1.0
  Li  Li14  1  0.00000000  0.72532000  0.87407000  1.0
  Li  Li15  1  0.50000000  0.72613000  0.87240000  1.0
  In  In16  1  0.00000000  0.25000000  0.04255000  1.0
  In  In17  1  0.50000000  0.25000000  0.04255000  1.0
  In  In18  1  0.74999000  0.75000000  0.12765000  1.0
  In  In19  1  0.25001000  0.75000000  0.12765000  1.0
  In  In20  1  0.50000000  0.25134000  0.86529000  1.0
  In  In21  1  0.00000000  0.25445000  0.86994000  1.0
  In  In22  1  0.25306000  0.75651000  0.95852000  1.0
  In  In23  1  0.74694000  0.75651000  0.95852000  1.0
  Pd  Pd24  1  0.00000000  0.00000000  0.12765000  1.0
  Pd  Pd25  1  0.24999000  0.50000000  0.04255000  1.0
  Pd  Pd26  1  0.75001000  0.50000000  0.04255000  1.0
  Pd  Pd27  1  0.50000000  0.00000000  0.12765000  1.0
  Pd  Pd28  1  0.50000000  0.00843000  0.95484000  1.0
  Pd  Pd29  1  0.74838000  0.47980000  0.88209000  1.0
  Pd  Pd30  1  0.25162000  0.47980000  0.88209000  1.0
  Pd  Pd31  1  0.00000000  0.00061000  0.95575000  1.0
  C  C32  1  0.00000000  0.18659000  0.73070000  1.0
  O  O33  1  0.00000000  0.31907000  0.70289000  1.0
