# generated using pymatgen
data_Li8Ga4Rh4C
_symmetry_space_group_name_H-M   'P 1'
_cell_length_a   6.03399000
_cell_length_b   6.03399000
_cell_length_c   24.52550000
_cell_angle_alpha   90.00000000
_cell_angle_beta   90.00000000
_cell_angle_gamma   90.00000000
_symmetry_Int_Tables_number   1
_chemical_formula_structural   Li8Ga4Rh4C
_chemical_formula_sum   'Li8 Ga4 Rh4 C1'
_cell_volume   892.94979574
_cell_formula_units_Z   1
loop_
 _symmetry_equiv_pos_site_id
 _symmetry_equiv_pos_as_xyz
  1  'x, y, z'
loop_
 _atom_site_type_symbol
 _atom_site_label
 _atom_site_symmetry_multiplicity
 _atom_site_fract_x
 _atom_site_fract_y
 _atom_site_fract_z
 _atom_site_occupancy
  Li  Li0  1  0.99999000  0.00003000  0.02801000  1.0
  Li  Li1  1  0.50000000  0.00000000  0.90774000  1.0
  Li  Li2  1  0.00000000  0.50000000  0.90774000  1.0
  Li  Li3  1  0.50003000  0.50000000  0.02755000  1.0
  Li  Li4  1  0.25251000  0.24772000  0.10940000  1.0
  Li  Li5  1  0.25000000  0.75000000  0.96925000  1.0
  Li  Li6  1  0.74753000  0.75233000  0.10940000  1.0
  Li  Li7  1  0.75000000  0.25000000  0.96925000  1.0
  Ga  Ga8  1  0.25000000  0.25000000  0.96925000  1.0
  Ga  Ga9  1  0.24032000  0.74024000  0.09478000  1.0
  Ga  Ga10  1  0.75000000  0.75000000  0.96925000  1.0
  Ga  Ga11  1  0.75975000  0.25990000  0.09477000  1.0
  Rh  Rh12  1  0.00000000  0.00000000  0.90774000  1.0
  Rh  Rh13  1  0.50000000  0.50000000  0.90774000  1.0
  Rh  Rh14  1  0.49991000  0.00001000  0.04366000  1.0
  Rh  Rh15  1  0.00007000  0.50006000  0.02435000  1.0
  C  C16  1  0.00008000  0.50006000  0.10594000  1.0
