# generated using pymatgen
data_V8Sn8Rh16CO
_symmetry_space_group_name_H-M   P1
_cell_length_a   6.32488000
_cell_length_b   8.94473000
_cell_length_c   26.70850000
_cell_angle_alpha   90.00000000
_cell_angle_beta   90.00000000
_cell_angle_gamma   90.00000000
_symmetry_Int_Tables_number   1
_chemical_formula_structural   V8Sn8Rh16CO
_chemical_formula_sum   'V8 Sn8 Rh16 C1 O1'
_cell_volume   1511.01586358
_cell_formula_units_Z   1
loop_
 _symmetry_equiv_pos_site_id
 _symmetry_equiv_pos_as_xyz
  1  'x, y, z'
loop_
 _atom_site_type_symbol
 _atom_site_label
 _atom_site_symmetry_multiplicity
 _atom_site_fract_x
 _atom_site_fract_y
 _atom_site_fract_z
 _atom_site_occupancy
  V  V0  1  0.00000000  0.00000000  0.87441000  1.0
  V  V1  1  0.00000000  0.50000000  0.87441000  1.0
  V  V2  1  0.45507000  0.25297000  0.11734000  1.0
  V  V3  1  0.45516000  0.74701000  0.11733000  1.0
  V  V4  1  0.50000000  0.25000000  0.95814000  1.0
  V  V5  1  0.50000000  0.75000000  0.95814000  1.0
  V  V6  1  0.98070000  0.50006000  0.04746000  1.0
  V  V7  1  0.99054000  0.00020000  0.04704000  1.0
  Sn  Sn8  1  0.00000000  0.25000000  0.95814000  1.0
  Sn  Sn9  1  0.00000000  0.75000000  0.95814000  1.0
  Sn  Sn10  1  0.47045000  0.00006000  0.04066000  1.0
  Sn  Sn11  1  0.47594000  0.50009000  0.03853000  1.0
  Sn  Sn12  1  0.50000000  0.00000000  0.87441000  1.0
  Sn  Sn13  1  0.50000000  0.50000000  0.87441000  1.0
  Sn  Sn14  1  0.96673000  0.75200000  0.13893000  1.0
  Sn  Sn15  1  0.96687000  0.24801000  0.13905000  1.0
  Rh  Rh16  1  0.19803000  0.75776000  0.04974000  1.0
  Rh  Rh17  1  0.19822000  0.24249000  0.04969000  1.0
  Rh  Rh18  1  0.25000000  0.00000000  0.95814000  1.0
  Rh  Rh19  1  0.25000000  0.25000000  0.87441000  1.0
  Rh  Rh20  1  0.25000000  0.50000000  0.95814000  1.0
  Rh  Rh21  1  0.25000000  0.75000000  0.87441000  1.0
  Rh  Rh22  1  0.25425000  0.49999000  0.12135000  1.0
  Rh  Rh23  1  0.26903000  0.99995000  0.13820000  1.0
  Rh  Rh24  1  0.72842000  0.25305000  0.03845000  1.0
  Rh  Rh25  1  0.72855000  0.74719000  0.03848000  1.0
  Rh  Rh26  1  0.73738000  0.50002000  0.11614000  1.0
  Rh  Rh27  1  0.73954000  0.99998000  0.11381000  1.0
  Rh  Rh28  1  0.75000000  0.00000000  0.95814000  1.0
  Rh  Rh29  1  0.75000000  0.25000000  0.87441000  1.0
  Rh  Rh30  1  0.75000000  0.50000000  0.95814000  1.0
  Rh  Rh31  1  0.75000000  0.75000000  0.87441000  1.0
  C  C32  1  0.37196000  0.99998000  0.20352000  1.0
  O  O33  1  0.42855000  0.99988000  0.24480000  1.0
