# generated using pymatgen
data_Sc8In8Ni16C
_symmetry_space_group_name_H-M   Pmm2
_cell_length_a   6.35421000
_cell_length_b   8.98620000
_cell_length_c   26.73970000
_cell_angle_alpha   90.00000000
_cell_angle_beta   90.00000000
_cell_angle_gamma   90.00000000
_symmetry_Int_Tables_number   25
_chemical_formula_structural   Sc8In8Ni16C
_chemical_formula_sum   'Sc8 In8 Ni16 C1'
_cell_volume   1526.84226880
_cell_formula_units_Z   1
loop_
 _symmetry_equiv_pos_site_id
 _symmetry_equiv_pos_as_xyz
  1  'x, y, z'
  2  '-x, -y, z'
  3  '-x, y, z'
  4  'x, -y, z'
loop_
 _atom_site_type_symbol
 _atom_site_label
 _atom_site_symmetry_multiplicity
 _atom_site_fract_x
 _atom_site_fract_y
 _atom_site_fract_z
 _atom_site_occupancy
  Sc  Sc0  2  0.00000000  0.25000000  0.95799000  1.0
  Sc  Sc1  2  0.00000000  0.25647000  0.12366000  1.0
  Sc  Sc2  1  0.50000000  0.00000000  0.04484000  1.0
  Sc  Sc3  1  0.50000000  0.00000000  0.87398000  1.0
  Sc  Sc4  1  0.50000000  0.50000000  0.04040000  1.0
  Sc  Sc5  1  0.50000000  0.50000000  0.87398000  1.0
  In  In6  2  0.50000000  0.25000000  0.95799000  1.0
  In  In7  2  0.50000000  0.25961000  0.13198000  1.0
  In  In8  1  0.00000000  0.00000000  0.04073000  1.0
  In  In9  1  0.00000000  0.00000000  0.87398000  1.0
  In  In10  1  0.00000000  0.50000000  0.04044000  1.0
  In  In11  1  0.00000000  0.50000000  0.87398000  1.0
  Ni  Ni12  4  0.25001000  0.25000000  0.87398000  1.0
  Ni  Ni13  4  0.25062000  0.25205000  0.04263000  1.0
  Ni  Ni14  2  0.21806000  0.00000000  0.12570000  1.0
  Ni  Ni15  2  0.24999000  0.00000000  0.95799000  1.0
  Ni  Ni16  2  0.25001000  0.50000000  0.95799000  1.0
  Ni  Ni17  2  0.26219000  0.50000000  0.11790000  1.0
  C  C18  1  0.50000000  0.00000000  0.13458000  1.0
