# generated using pymatgen
data_Ti8In8Au16C
_symmetry_space_group_name_H-M   'P 1'
_cell_length_a   9.50495000
_cell_length_b   6.72102000
_cell_length_c   27.12870000
_cell_angle_alpha   90.00000000
_cell_angle_beta   90.00000000
_cell_angle_gamma   90.00000000
_symmetry_Int_Tables_number   1
_chemical_formula_structural   Ti8In8Au16C
_chemical_formula_sum   'Ti8 In8 Au16 C1'
_cell_volume   1733.06163115
_cell_formula_units_Z   1
loop_
 _symmetry_equiv_pos_site_id
 _symmetry_equiv_pos_as_xyz
  1  'x, y, z'
loop_
 _atom_site_type_symbol
 _atom_site_label
 _atom_site_symmetry_multiplicity
 _atom_site_fract_x
 _atom_site_fract_y
 _atom_site_fract_z
 _atom_site_occupancy
  Ti  Ti0  1  0.75000000  0.00000000  0.13139000  1.0
  Ti  Ti1  1  0.00000000  0.50000000  0.04380000  1.0
  Ti  Ti2  1  0.50000000  0.50000000  0.04380000  1.0
  Ti  Ti3  1  0.25000000  0.00000000  0.13139000  1.0
  Ti  Ti4  1  0.25838000  0.00156000  0.95463000  1.0
  Ti  Ti5  1  0.50000000  0.47893000  0.87660000  1.0
  Ti  Ti6  1  0.00000000  0.51962000  0.87363000  1.0
  Ti  Ti7  1  0.74162000  0.00156000  0.95463000  1.0
  In  In8  1  0.50000000  0.00000000  0.04380000  1.0
  In  In9  1  0.75000000  0.50000000  0.13139000  1.0
  In  In10  1  0.00000000  0.00000000  0.04380000  1.0
  In  In11  1  0.25000000  0.50000000  0.13139000  1.0
  In  In12  1  0.00000000  0.92583000  0.84111000  1.0
  In  In13  1  0.23967000  0.49676000  0.95774000  1.0
  In  In14  1  0.50000000  0.02177000  0.85864000  1.0
  In  In15  1  0.76033000  0.49676000  0.95774000  1.0
  Au  Au16  1  0.75000000  0.25000000  0.04380000  1.0
  Au  Au17  1  0.25000000  0.75000000  0.04380000  1.0
  Au  Au18  1  0.75000000  0.75000000  0.04380000  1.0
  Au  Au19  1  0.25000000  0.25000000  0.04380000  1.0
  Au  Au20  1  0.50000000  0.75000000  0.13139000  1.0
  Au  Au21  1  0.00000000  0.25000000  0.13139000  1.0
  Au  Au22  1  0.50000000  0.25000000  0.13139000  1.0
  Au  Au23  1  0.00000000  0.75000000  0.13139000  1.0
  Au  Au24  1  0.25166000  0.28078000  0.86029000  1.0
  Au  Au25  1  0.73469000  0.73635000  0.86876000  1.0
  Au  Au26  1  0.26531000  0.73635000  0.86876000  1.0
  Au  Au27  1  0.74834000  0.28078000  0.86029000  1.0
  Au  Au28  1  0.00000000  0.77855000  0.95418000  1.0
  Au  Au29  1  0.50000000  0.24596000  0.95763000  1.0
  Au  Au30  1  0.00000000  0.21745000  0.94767000  1.0
  Au  Au31  1  0.50000000  0.74845000  0.95536000  1.0
  C  C32  1  0.00000000  0.24307000  0.85859000  1.0
