# generated using pymatgen
data_Li8Cu8Ag8Ge8C
_symmetry_space_group_name_H-M   'P 1'
_cell_length_a   8.81124000
_cell_length_b   6.23049000
_cell_length_c   26.60840000
_cell_angle_alpha   90.00000000
_cell_angle_beta   90.00000000
_cell_angle_gamma   90.00000000
_symmetry_Int_Tables_number   1
_chemical_formula_structural   Li8Cu8Ag8Ge8C
_chemical_formula_sum   'Li8 Cu8 Ag8 Ge8 C1'
_cell_volume   1460.75706210
_cell_formula_units_Z   1
loop_
 _symmetry_equiv_pos_site_id
 _symmetry_equiv_pos_as_xyz
  1  'x, y, z'
loop_
 _atom_site_type_symbol
 _atom_site_label
 _atom_site_symmetry_multiplicity
 _atom_site_fract_x
 _atom_site_fract_y
 _atom_site_fract_z
 _atom_site_occupancy
  Li  Li0  1  0.00000000  0.25000000  0.04139000  1.0
  Li  Li1  1  0.50000000  0.25000000  0.04139000  1.0
  Li  Li2  1  0.24999000  0.75000000  0.12418000  1.0
  Li  Li3  1  0.75001000  0.75000000  0.12418000  1.0
  Li  Li4  1  0.50000000  0.22659000  0.86584000  1.0
  Li  Li5  1  0.00000000  0.28061000  0.87187000  1.0
  Li  Li6  1  0.74548000  0.74599000  0.96018000  1.0
  Li  Li7  1  0.25452000  0.74599000  0.96018000  1.0
  Cu  Cu8  1  0.24999000  0.00000000  0.04139000  1.0
  Cu  Cu9  1  0.75001000  0.00000000  0.04139000  1.0
  Cu  Cu10  1  0.50000000  0.50000000  0.12418000  1.0
  Cu  Cu11  1  0.00000000  0.50000000  0.12418000  1.0
  Cu  Cu12  1  0.77243000  0.98765000  0.87739000  1.0
  Cu  Cu13  1  0.22757000  0.98765000  0.87739000  1.0
  Cu  Cu14  1  0.00000000  0.49201000  0.96247000  1.0
  Cu  Cu15  1  0.50000000  0.49036000  0.95215000  1.0
  Ag  Ag16  1  0.00000000  0.00000000  0.12418000  1.0
  Ag  Ag17  1  0.50000000  0.00000000  0.12418000  1.0
  Ag  Ag18  1  0.74999000  0.50000000  0.04139000  1.0
  Ag  Ag19  1  0.25001000  0.50000000  0.04139000  1.0
  Ag  Ag20  1  0.50000000  0.99478000  0.95506000  1.0
  Ag  Ag21  1  0.00000000  0.98601000  0.95601000  1.0
  Ag  Ag22  1  0.28214000  0.52475000  0.87337000  1.0
  Ag  Ag23  1  0.71786000  0.52475000  0.87337000  1.0
  Ge  Ge24  1  0.00000000  0.75000000  0.04139000  1.0
  Ge  Ge25  1  0.50000000  0.75000000  0.04139000  1.0
  Ge  Ge26  1  0.24999000  0.25000000  0.12418000  1.0
  Ge  Ge27  1  0.75001000  0.25000000  0.12418000  1.0
  Ge  Ge28  1  0.50000000  0.81296000  0.86128000  1.0
  Ge  Ge29  1  0.00000000  0.67276000  0.85828000  1.0
  Ge  Ge30  1  0.75244000  0.25868000  0.95500000  1.0
  Ge  Ge31  1  0.24756000  0.25868000  0.95500000  1.0
  C  C32  1  0.00000000  0.96788000  0.86631000  1.0
