# generated using pymatgen
data_Li8Cu8Ag8Ge8C
_symmetry_space_group_name_H-M   Pm
_cell_length_a   6.23049000
_cell_length_b   8.81124000
_cell_length_c   26.60840000
_cell_angle_alpha   90.00000000
_cell_angle_beta   90.00000000
_cell_angle_gamma   90.00000000
_symmetry_Int_Tables_number   6
_chemical_formula_structural   Li8Cu8Ag8Ge8C
_chemical_formula_sum   'Li8 Cu8 Ag8 Ge8 C1'
_cell_volume   1460.75706210
_cell_formula_units_Z   1
loop_
 _symmetry_equiv_pos_site_id
 _symmetry_equiv_pos_as_xyz
  1  'x, y, z'
  2  'x, -y, z'
loop_
 _atom_site_type_symbol
 _atom_site_label
 _atom_site_symmetry_multiplicity
 _atom_site_fract_x
 _atom_site_fract_y
 _atom_site_fract_z
 _atom_site_occupancy
  Li  Li0  2  0.74599000  0.25452000  0.03982000  1.0
  Li  Li1  2  0.75000000  0.24999000  0.87582000  1.0
  Li  Li2  1  0.22659000  0.50000000  0.13416000  1.0
  Li  Li3  1  0.25000000  0.00000000  0.95861000  1.0
  Li  Li4  1  0.25000000  0.50000000  0.95861000  1.0
  Li  Li5  1  0.28061000  0.00000000  0.12813000  1.0
  Cu  Cu6  2  0.00000000  0.24999000  0.95861000  1.0
  Cu  Cu7  2  0.98765000  0.22757000  0.12261000  1.0
  Cu  Cu8  1  0.49036000  0.50000000  0.04785000  1.0
  Cu  Cu9  1  0.49201000  0.00000000  0.03753000  1.0
  Cu  Cu10  1  0.50000000  0.00000000  0.87582000  1.0
  Cu  Cu11  1  0.50000000  0.50000000  0.87582000  1.0
  Ag  Ag12  2  0.50000000  0.25001000  0.95861000  1.0
  Ag  Ag13  2  0.52475000  0.28214000  0.12663000  1.0
  Ag  Ag14  1  0.00000000  0.00000000  0.87582000  1.0
  Ag  Ag15  1  0.00000000  0.50000000  0.87582000  1.0
  Ag  Ag16  1  0.98601000  0.00000000  0.04399000  1.0
  Ag  Ag17  1  0.99478000  0.50000000  0.04494000  1.0
  Ge  Ge18  2  0.25000000  0.24999000  0.87582000  1.0
  Ge  Ge19  2  0.25868000  0.24756000  0.04500000  1.0
  Ge  Ge20  1  0.67276000  0.00000000  0.14172000  1.0
  Ge  Ge21  1  0.75000000  0.00000000  0.95861000  1.0
  Ge  Ge22  1  0.75000000  0.50000000  0.95861000  1.0
  Ge  Ge23  1  0.81296000  0.50000000  0.13872000  1.0
  C  C24  1  0.96788000  0.00000000  0.13369000  1.0
