data_image0
_chemical_formula_structural       TiPd3TiPd3TiPd3TiPd3TiPd3TiPd3TiPd3TiPd3
_chemical_formula_sum              "Ti8 Pd24"
_cell_length_a       7.90864
_cell_length_b       7.90864
_cell_length_c       25.9315
_cell_angle_alpha    90
_cell_angle_beta     90
_cell_angle_gamma    90

_space_group_name_H-M_alt    "P 1"
_space_group_IT_number       1

loop_
  _space_group_symop_operation_xyz
  'x, y, z'

loop_
  _atom_site_type_symbol
  _atom_site_label
  _atom_site_symmetry_multiplicity
  _atom_site_fract_x
  _atom_site_fract_y
  _atom_site_fract_z
  _atom_site_occupancy
  Ti  Ti1       1.0  0.00000  0.00000  0.11437  1.0000
  Pd  Pd1       1.0  0.00000  0.25000  0.03812  1.0000
  Pd  Pd2       1.0  0.25000  0.00000  0.03812  1.0000
  Pd  Pd3       1.0  0.25000  0.25000  0.11437  1.0000
  Ti  Ti2       1.0  0.00000  0.00000  0.96188  1.0000
  Pd  Pd4       1.0  0.00000  0.25000  0.88563  1.0000
  Pd  Pd5       1.0  0.25000  0.00000  0.88563  1.0000
  Pd  Pd6       1.0  0.25000  0.25000  0.96188  1.0000
  Ti  Ti3       1.0  0.00000  0.50000  0.11437  1.0000
  Pd  Pd7       1.0  0.00000  0.75000  0.03812  1.0000
  Pd  Pd8       1.0  0.25000  0.50000  0.03812  1.0000
  Pd  Pd9       1.0  0.25000  0.75000  0.11437  1.0000
  Ti  Ti4       1.0  0.00000  0.50000  0.96188  1.0000
  Pd  Pd10      1.0  0.00000  0.75000  0.88563  1.0000
  Pd  Pd11      1.0  0.25000  0.50000  0.88563  1.0000
  Pd  Pd12      1.0  0.25000  0.75000  0.96188  1.0000
  Ti  Ti5       1.0  0.50000  0.00000  0.11437  1.0000
  Pd  Pd13      1.0  0.50000  0.25000  0.03812  1.0000
  Pd  Pd14      1.0  0.75000  0.00000  0.03812  1.0000
  Pd  Pd15      1.0  0.75000  0.25000  0.11437  1.0000
  Ti  Ti6       1.0  0.50000  0.00000  0.96188  1.0000
  Pd  Pd16      1.0  0.50000  0.25000  0.88563  1.0000
  Pd  Pd17      1.0  0.75000  0.00000  0.88563  1.0000
  Pd  Pd18      1.0  0.75000  0.25000  0.96188  1.0000
  Ti  Ti7       1.0  0.50000  0.50000  0.11437  1.0000
  Pd  Pd19      1.0  0.50000  0.75000  0.03812  1.0000
  Pd  Pd20      1.0  0.75000  0.50000  0.03812  1.0000
  Pd  Pd21      1.0  0.75000  0.75000  0.11437  1.0000
  Ti  Ti8       1.0  0.50000  0.50000  0.96188  1.0000
  Pd  Pd22      1.0  0.50000  0.75000  0.88563  1.0000
  Pd  Pd23      1.0  0.75000  0.50000  0.88563  1.0000
  Pd  Pd24      1.0  0.75000  0.75000  0.96188  1.0000
