data_image0
_chemical_formula_structural       Li8In4Rh4C
_chemical_formula_sum              "Li8 In4 Rh4 C1"
_cell_length_a       6.34973
_cell_length_b       6.34973
_cell_length_c       24.7623
_cell_angle_alpha    90
_cell_angle_beta     90
_cell_angle_gamma    90

_space_group_name_H-M_alt    "P 1"
_space_group_IT_number       1

loop_
  _space_group_symop_operation_xyz
  'x, y, z'

loop_
  _atom_site_type_symbol
  _atom_site_label
  _atom_site_symmetry_multiplicity
  _atom_site_fract_x
  _atom_site_fract_y
  _atom_site_fract_z
  _atom_site_occupancy
  Li  Li1       1.0  0.00000  0.00000  0.96795  1.0000
  Li  Li2       1.0  0.49535  0.00465  0.12028  1.0000
  Li  Li3       1.0  0.00465  0.49536  0.12028  1.0000
  Li  Li4       1.0  0.50000  0.50000  0.96795  1.0000
  Li  Li5       1.0  0.25000  0.25000  0.90384  1.0000
  Li  Li6       1.0  0.25000  0.75000  0.04158  1.0000
  Li  Li7       1.0  0.75000  0.75000  0.90384  1.0000
  Li  Li8       1.0  0.75000  0.25000  0.04158  1.0000
  In  In1       1.0  0.25000  0.25000  0.02643  1.0000
  In  In2       1.0  0.25000  0.75000  0.90384  1.0000
  In  In3       1.0  0.75000  0.75000  0.04081  1.0000
  In  In4       1.0  0.75000  0.25000  0.90384  1.0000
  Rh  Rh1       1.0  0.05272  0.05271  0.10875  1.0000
  Rh  Rh2       1.0  0.44729  0.44729  0.10875  1.0000
  Rh  Rh3       1.0  0.50000  0.00000  0.96795  1.0000
  Rh  Rh4       1.0  0.00000  0.50000  0.96795  1.0000
  C   C1        1.0  0.25000  0.25000  0.12801  1.0000
