# generated using pymatgen
data_Cu3Pt
_symmetry_space_group_name_H-M   Pmm2
_cell_length_a   3.76274500
_cell_length_b   5.32133000
_cell_length_c   23.99100000
_cell_angle_alpha   90.00000000
_cell_angle_beta   90.00000000
_cell_angle_gamma   90.00000000
_symmetry_Int_Tables_number   25
_chemical_formula_structural   Cu3Pt
_chemical_formula_sum   'Cu6 Pt2'
_cell_volume   480.36718315
_cell_formula_units_Z   2
loop_
 _symmetry_equiv_pos_site_id
 _symmetry_equiv_pos_as_xyz
  1  'x, y, z'
  2  '-x, -y, z'
  3  '-x, y, z'
  4  'x, -y, z'
loop_
 _atom_site_type_symbol
 _atom_site_label
 _atom_site_symmetry_multiplicity
 _atom_site_fract_x
 _atom_site_fract_y
 _atom_site_fract_z
 _atom_site_occupancy
  Cu  Cu0  2  0.50000000  0.25000000  0.91682000  1.0
  Cu  Cu1  2  0.50000000  0.25104000  0.02912000  1.0
  Cu  Cu2  1  0.00000000  0.00000000  0.97227000  1.0
  Cu  Cu3  1  0.00000000  0.50000000  0.08117000  1.0
  Pt  Pt4  1  0.00000000  0.00000000  0.08044000  1.0
  Pt  Pt5  1  0.00000000  0.50000000  0.97227000  1.0
