data_image0
_chemical_formula_structural       Ti8Al8Ni16C
_chemical_formula_sum              "Ti8 Al8 Ni16 C1"
_cell_length_a       5.9441
_cell_length_b       8.40623
_cell_length_c       26.3047
_cell_angle_alpha    90
_cell_angle_beta     90
_cell_angle_gamma    90

_space_group_name_H-M_alt    "P 1"
_space_group_IT_number       1

loop_
  _space_group_symop_operation_xyz
  'x, y, z'

loop_
  _atom_site_type_symbol
  _atom_site_label
  _atom_site_symmetry_multiplicity
  _atom_site_fract_x
  _atom_site_fract_y
  _atom_site_fract_z
  _atom_site_occupancy
  Ti  Ti1       1.0  0.00000  0.00000  0.88016  1.0000
  Ti  Ti2       1.0  0.50000  0.25000  0.96005  1.0000
  Ti  Ti3       1.0  0.50000  0.75000  0.96005  1.0000
  Ti  Ti4       1.0  0.00000  0.50000  0.88016  1.0000
  Ti  Ti5       1.0  0.00246  0.50381  0.04009  1.0000
  Ti  Ti6       1.0  0.49091  0.75000  0.12041  1.0000
  Ti  Ti7       1.0  0.53568  0.25000  0.11884  1.0000
  Ti  Ti8       1.0  0.00246  0.99619  0.04009  1.0000
  Al  Al1       1.0  0.00000  0.75000  0.96005  1.0000
  Al  Al2       1.0  0.50000  0.00000  0.88016  1.0000
  Al  Al3       1.0  0.00000  0.25000  0.96005  1.0000
  Al  Al4       1.0  0.50000  0.50000  0.88016  1.0000
  Al  Al5       1.0  0.96137  0.25000  0.12004  1.0000
  Al  Al6       1.0  0.49609  0.49774  0.04065  1.0000
  Al  Al7       1.0  0.00720  0.75000  0.11849  1.0000
  Al  Al8       1.0  0.49609  0.00226  0.04065  1.0000
  Ni  Ni1       1.0  0.25000  0.00000  0.96005  1.0000
  Ni  Ni2       1.0  0.75000  0.50000  0.96005  1.0000
  Ni  Ni3       1.0  0.75000  0.00000  0.96005  1.0000
  Ni  Ni4       1.0  0.25000  0.50000  0.96005  1.0000
  Ni  Ni5       1.0  0.75000  0.75000  0.88016  1.0000
  Ni  Ni6       1.0  0.25000  0.25000  0.88016  1.0000
  Ni  Ni7       1.0  0.25000  0.75000  0.88016  1.0000
  Ni  Ni8       1.0  0.75000  0.25000  0.88016  1.0000
  Ni  Ni9       1.0  0.23568  0.48241  0.12024  1.0000
  Ni  Ni10      1.0  0.75382  0.98930  0.11301  1.0000
  Ni  Ni11      1.0  0.75383  0.51071  0.11301  1.0000
  Ni  Ni12      1.0  0.23568  0.01759  0.12024  1.0000
  Ni  Ni13      1.0  0.75334  0.25000  0.03574  1.0000
  Ni  Ni14      1.0  0.26799  0.75000  0.03904  1.0000
  Ni  Ni15      1.0  0.24991  0.25001  0.03917  1.0000
  Ni  Ni16      1.0  0.73622  0.75000  0.04189  1.0000
  C   C1        1.0  0.24977  0.25000  0.14847  1.0000
