# generated using pymatgen
data_Ti8Al8Ni16C
_symmetry_space_group_name_H-M   Pm
_cell_length_a   5.94410000
_cell_length_b   8.40623000
_cell_length_c   26.30470000
_cell_angle_alpha   90.00000000
_cell_angle_beta   90.00000000
_cell_angle_gamma   90.00000000
_symmetry_Int_Tables_number   6
_chemical_formula_structural   Ti8Al8Ni16C
_chemical_formula_sum   'Ti8 Al8 Ni16 C1'
_cell_volume   1314.37935396
_cell_formula_units_Z   1
loop_
 _symmetry_equiv_pos_site_id
 _symmetry_equiv_pos_as_xyz
  1  'x, y, z'
  2  'x, -y, z'
loop_
 _atom_site_type_symbol
 _atom_site_label
 _atom_site_symmetry_multiplicity
 _atom_site_fract_x
 _atom_site_fract_y
 _atom_site_fract_z
 _atom_site_occupancy
  Ti  Ti0  2  0.00000000  0.25000000  0.88016000  1.0
  Ti  Ti1  2  0.00246000  0.25381000  0.04009000  1.0
  Ti  Ti2  1  0.49091000  0.50000000  0.12041000  1.0
  Ti  Ti3  1  0.50000000  0.00000000  0.96005000  1.0
  Ti  Ti4  1  0.50000000  0.50000000  0.96005000  1.0
  Ti  Ti5  1  0.53568000  0.00000000  0.11884000  1.0
  Al  Al6  2  0.49609000  0.24774000  0.04065000  1.0
  Al  Al7  2  0.50000000  0.25000000  0.88016000  1.0
  Al  Al8  1  -0.00000000  0.50000000  0.96005000  1.0
  Al  Al9  1  0.00000000  0.00000000  0.96005000  1.0
  Al  Al10  1  0.00720000  0.50000000  0.11849000  1.0
  Al  Al11  1  0.96137000  0.00000000  0.12004000  1.0
  Ni  Ni12  2  0.23568000  0.23241000  0.12024000  1.0
  Ni  Ni13  2  0.25000000  0.25000000  0.96005000  1.0
  Ni  Ni14  2  0.75000000  0.25000000  0.96005000  1.0
  Ni  Ni15  2  0.75382000  0.26070000  0.11301000  1.0
  Ni  Ni16  1  0.24991000  0.00000000  0.03917000  1.0
  Ni  Ni17  1  0.25000000  0.00000000  0.88016000  1.0
  Ni  Ni18  1  0.25000000  0.50000000  0.88016000  1.0
  Ni  Ni19  1  0.26799000  0.50000000  0.03904000  1.0
  Ni  Ni20  1  0.73622000  0.50000000  0.04189000  1.0
  Ni  Ni21  1  0.75000000  0.00000000  0.88016000  1.0
  Ni  Ni22  1  0.75000000  0.50000000  0.88016000  1.0
  Ni  Ni23  1  0.75334000  0.00000000  0.03574000  1.0
  C  C24  1  0.24977000  0.00000000  0.14847000  1.0
