# generated using pymatgen
data_Li16Al8Ag8C
_symmetry_space_group_name_H-M   Pm
_cell_length_a   6.34834000
_cell_length_b   8.97791000
_cell_length_c   26.73340000
_cell_angle_alpha   90.00000000
_cell_angle_beta   90.00000000
_cell_angle_gamma   90.00000000
_symmetry_Int_Tables_number   6
_chemical_formula_structural   Li16Al8Ag8C
_chemical_formula_sum   'Li16 Al8 Ag8 C1'
_cell_volume   1523.66545918
_cell_formula_units_Z   1
loop_
 _symmetry_equiv_pos_site_id
 _symmetry_equiv_pos_as_xyz
  1  'x, y, z'
  2  'x, -y, z'
loop_
 _atom_site_type_symbol
 _atom_site_label
 _atom_site_symmetry_multiplicity
 _atom_site_fract_x
 _atom_site_fract_y
 _atom_site_fract_z
 _atom_site_occupancy
  Li  Li0  2  0.24889000  0.27393000  0.12807000  1.0
  Li  Li1  2  0.25000000  0.25000000  0.95802000  1.0
  Li  Li2  2  0.49158000  0.25047000  0.03840000  1.0
  Li  Li3  2  0.50000000  0.25000000  0.87406000  1.0
  Li  Li4  1  -0.00000000  0.50000000  0.95802000  1.0
  Li  Li5  1  -0.00000000  0.00000000  0.95802000  1.0
  Li  Li6  1  0.02452000  0.00000000  0.12787000  1.0
  Li  Li7  1  0.74914000  0.00000000  0.04743000  1.0
  Li  Li8  1  0.75000000  0.00000000  0.87406000  1.0
  Li  Li9  1  0.75000000  0.50000000  0.87406000  1.0
  Li  Li10  1  0.75009000  0.50000000  0.03878000  1.0
  Li  Li11  1  0.96362000  0.50000000  0.12181000  1.0
  Al  Al12  2  0.00000000  0.25000000  0.87406000  1.0
  Al  Al13  2  0.00244000  0.25404000  0.04045000  1.0
  Al  Al14  1  0.42884000  0.00000000  0.13706000  1.0
  Al  Al15  1  0.50000000  0.00000000  0.95802000  1.0
  Al  Al16  1  0.50000000  0.50000000  0.95802000  1.0
  Al  Al17  1  0.52789000  0.50000000  0.12334000  1.0
  Ag  Ag18  2  0.72879000  0.24408000  0.11930000  1.0
  Ag  Ag19  2  0.75000000  0.25000000  0.95802000  1.0
  Ag  Ag20  1  0.24342000  0.00000000  0.03899000  1.0
  Ag  Ag21  1  0.25000000  0.00000000  0.87406000  1.0
  Ag  Ag22  1  0.25000000  0.50000000  0.87406000  1.0
  Ag  Ag23  1  0.25166000  0.50000000  0.04321000  1.0
  C  C24  1  0.71894000  0.00000000  0.12768000  1.0
