# generated using pymatgen
data_ScPd
_symmetry_space_group_name_H-M   Pmm2
_cell_length_a   3.33035500
_cell_length_b   4.70983500
_cell_length_c   27.06480000
_cell_angle_alpha   90.00000000
_cell_angle_beta   90.00000000
_cell_angle_gamma   90.00000000
_symmetry_Int_Tables_number   25
_chemical_formula_structural   ScPd
_chemical_formula_sum   'Sc4 Pd4'
_cell_volume   424.52282400
_cell_formula_units_Z   4
loop_
 _symmetry_equiv_pos_site_id
 _symmetry_equiv_pos_as_xyz
  1  'x, y, z'
  2  '-x, -y, z'
  3  '-x, y, z'
  4  'x, -y, z'
loop_
 _atom_site_type_symbol
 _atom_site_label
 _atom_site_symmetry_multiplicity
 _atom_site_fract_x
 _atom_site_fract_y
 _atom_site_fract_z
 _atom_site_occupancy
  Sc  Sc0  1  0.50000000  0.00000000  0.13084000  1.0
  Sc  Sc1  1  0.50000000  0.00000000  0.95649000  1.0
  Sc  Sc2  1  0.50000000  0.50000000  0.04315000  1.0
  Sc  Sc3  1  0.50000000  0.50000000  0.86948000  1.0
  Pd  Pd4  1  0.00000000  0.00000000  0.04470000  1.0
  Pd  Pd5  1  0.00000000  0.00000000  0.86948000  1.0
  Pd  Pd6  1  0.00000000  0.50000000  0.12299500  1.0
  Pd  Pd7  1  0.00000000  0.50000000  0.95649000  1.0
