# generated using pymatgen
data_Mg16Rh16C
_symmetry_space_group_name_H-M   'P 1'
_cell_length_a   8.89794000
_cell_length_b   6.29180000
_cell_length_c   26.67350000
_cell_angle_alpha   90.00000000
_cell_angle_beta   90.00000000
_cell_angle_gamma   90.00000000
_symmetry_Int_Tables_number   1
_chemical_formula_structural   Mg16Rh16C
_chemical_formula_sum   'Mg16 Rh16 C1'
_cell_volume   1493.29079486
_cell_formula_units_Z   1
loop_
 _symmetry_equiv_pos_site_id
 _symmetry_equiv_pos_as_xyz
  1  'x, y, z'
loop_
 _atom_site_type_symbol
 _atom_site_label
 _atom_site_symmetry_multiplicity
 _atom_site_fract_x
 _atom_site_fract_y
 _atom_site_fract_z
 _atom_site_occupancy
  Mg  Mg0  1  0.75000000  0.00000000  0.12510000  1.0
  Mg  Mg1  1  0.00000000  0.00000000  0.04170000  1.0
  Mg  Mg2  1  0.74764000  0.00314000  0.95837000  1.0
  Mg  Mg3  1  0.00000000  0.95334000  0.88132000  1.0
  Mg  Mg4  1  0.25000000  0.00000000  0.12510000  1.0
  Mg  Mg5  1  0.50000000  0.00000000  0.04170000  1.0
  Mg  Mg6  1  0.25236000  0.00314000  0.95837000  1.0
  Mg  Mg7  1  0.50000000  0.00578000  0.87186000  1.0
  Mg  Mg8  1  0.75000000  0.50000000  0.12510000  1.0
  Mg  Mg9  1  0.00000000  0.50000000  0.04170000  1.0
  Mg  Mg10  1  0.74757000  0.49815000  0.95838000  1.0
  Mg  Mg11  1  0.00000000  0.54546000  0.88123000  1.0
  Mg  Mg12  1  0.25000000  0.50000000  0.12510000  1.0
  Mg  Mg13  1  0.50000000  0.50000000  0.04170000  1.0
  Mg  Mg14  1  0.25243000  0.49815000  0.95838000  1.0
  Mg  Mg15  1  0.50000000  0.49480000  0.87186000  1.0
  Rh  Rh16  1  0.00000000  0.25000000  0.12510000  1.0
  Rh  Rh17  1  0.25000000  0.25000000  0.04170000  1.0
  Rh  Rh18  1  0.00000000  0.25018000  0.95870000  1.0
  Rh  Rh19  1  0.79847000  0.24959000  0.86884000  1.0
  Rh  Rh20  1  0.50000000  0.25000000  0.12510000  1.0
  Rh  Rh21  1  0.75000000  0.25000000  0.04170000  1.0
  Rh  Rh22  1  0.50000000  0.25033000  0.95442000  1.0
  Rh  Rh23  1  0.20153000  0.24959000  0.86884000  1.0
  Rh  Rh24  1  0.00000000  0.75000000  0.12510000  1.0
  Rh  Rh25  1  0.25000000  0.75000000  0.04170000  1.0
  Rh  Rh26  1  0.00000000  0.74990000  0.96419000  1.0
  Rh  Rh27  1  0.73888000  0.74996000  0.87787000  1.0
  Rh  Rh28  1  0.50000000  0.75000000  0.12510000  1.0
  Rh  Rh29  1  0.75000000  0.75000000  0.04170000  1.0
  Rh  Rh30  1  0.50000000  0.75026000  0.95758000  1.0
  Rh  Rh31  1  0.26112000  0.74996000  0.87787000  1.0
  C  C32  1  0.00000000  0.24898000  0.84558000  1.0
