# generated using pymatgen
data_Nb16Ir16C
_symmetry_space_group_name_H-M   'P 1'
_cell_length_a   7.77966000
_cell_length_b   8.17085000
_cell_length_c   26.12810000
_cell_angle_alpha   90.00000000
_cell_angle_beta   90.00000000
_cell_angle_gamma   90.00000000
_symmetry_Int_Tables_number   1
_chemical_formula_structural   Nb16Ir16C
_chemical_formula_sum   'Nb16 Ir16 C1'
_cell_volume   1660.87016800
_cell_formula_units_Z   1
loop_
 _symmetry_equiv_pos_site_id
 _symmetry_equiv_pos_as_xyz
  1  'x, y, z'
loop_
 _atom_site_type_symbol
 _atom_site_label
 _atom_site_symmetry_multiplicity
 _atom_site_fract_x
 _atom_site_fract_y
 _atom_site_fract_z
 _atom_site_occupancy
  Nb  Nb0  1  0.00000000  0.00000000  0.11727000  1.0
  Nb  Nb1  1  0.00000000  0.75000000  0.03909000  1.0
  Nb  Nb2  1  0.00000000  0.00000000  0.96091000  1.0
  Nb  Nb3  1  0.00000000  0.75000000  0.88273000  1.0
  Nb  Nb4  1  0.50000000  0.00000000  0.11727000  1.0
  Nb  Nb5  1  0.50000000  0.75000000  0.03909000  1.0
  Nb  Nb6  1  0.50000000  0.00000000  0.96091000  1.0
  Nb  Nb7  1  0.50000000  0.75000000  0.88273000  1.0
  Nb  Nb8  1  0.00000000  0.50000000  0.11727000  1.0
  Nb  Nb9  1  0.00000000  0.25000000  0.03909000  1.0
  Nb  Nb10  1  0.00000000  0.50000000  0.96091000  1.0
  Nb  Nb11  1  0.00000000  0.25000000  0.88273000  1.0
  Nb  Nb12  1  0.50000000  0.50000000  0.11727000  1.0
  Nb  Nb13  1  0.50000000  0.25000000  0.03909000  1.0
  Nb  Nb14  1  0.50000000  0.50000000  0.96091000  1.0
  Nb  Nb15  1  0.50000000  0.25000000  0.88273000  1.0
  Ir  Ir16  1  0.75000000  0.75000000  0.11727000  1.0
  Ir  Ir17  1  0.75000000  0.00000000  0.03909000  1.0
  Ir  Ir18  1  0.75000000  0.75000000  0.96091000  1.0
  Ir  Ir19  1  0.75000000  0.00000000  0.88273000  1.0
  Ir  Ir20  1  0.25000000  0.75000000  0.11727000  1.0
  Ir  Ir21  1  0.25000000  0.00000000  0.03909000  1.0
  Ir  Ir22  1  0.25000000  0.75000000  0.96091000  1.0
  Ir  Ir23  1  0.25000000  0.00000000  0.88273000  1.0
  Ir  Ir24  1  0.75000000  0.25000000  0.11727000  1.0
  Ir  Ir25  1  0.75000000  0.50000000  0.03909000  1.0
  Ir  Ir26  1  0.75000000  0.25000000  0.96091000  1.0
  Ir  Ir27  1  0.75000000  0.50000000  0.88273000  1.0
  Ir  Ir28  1  0.25000000  0.25000000  0.11727000  1.0
  Ir  Ir29  1  0.25000000  0.50000000  0.03909000  1.0
  Ir  Ir30  1  0.25000000  0.25000000  0.96091000  1.0
  Ir  Ir31  1  0.25000000  0.50000000  0.88273000  1.0
  C  C32  1  0.00000000  0.00000000  0.85211000  1.0
