data_image0
_chemical_formula_structural       NbIrNbIrNbIrNbIrNbIrNbIrNbIrNbIrNbIrNbIrNbIrNbIrNbIrNbIrNbIrNbIrC
_chemical_formula_sum              "Nb16 Ir16 C1"
_cell_length_a       8.17085
_cell_length_b       7.77966
_cell_length_c       26.1281
_cell_angle_alpha    90
_cell_angle_beta     90
_cell_angle_gamma    90

_space_group_name_H-M_alt    "P 1"
_space_group_IT_number       1

loop_
  _space_group_symop_operation_xyz
  'x, y, z'

loop_
  _atom_site_type_symbol
  _atom_site_label
  _atom_site_symmetry_multiplicity
  _atom_site_fract_x
  _atom_site_fract_y
  _atom_site_fract_z
  _atom_site_occupancy
  Nb  Nb1       1.0  0.25000  0.25000  0.88273  1.0000
  Ir  Ir1       1.0  0.00000  0.00000  0.88273  1.0000
  Nb  Nb2       1.0  0.00000  0.25000  0.96091  1.0000
  Ir  Ir2       1.0  0.25000  0.00000  0.96091  1.0000
  Nb  Nb3       1.0  0.25000  0.25000  0.03909  1.0000
  Ir  Ir3       1.0  0.00000  0.00000  0.03909  1.0000
  Nb  Nb4       1.0  0.00000  0.25000  0.11727  1.0000
  Ir  Ir4       1.0  0.25000  0.00000  0.11727  1.0000
  Nb  Nb5       1.0  0.25000  0.75000  0.88273  1.0000
  Ir  Ir5       1.0  0.00000  0.50000  0.88273  1.0000
  Nb  Nb6       1.0  0.00000  0.75000  0.96091  1.0000
  Ir  Ir6       1.0  0.25000  0.50000  0.96091  1.0000
  Nb  Nb7       1.0  0.25000  0.75000  0.03909  1.0000
  Ir  Ir7       1.0  0.00000  0.50000  0.03909  1.0000
  Nb  Nb8       1.0  0.00000  0.75000  0.11727  1.0000
  Ir  Ir8       1.0  0.25000  0.50000  0.11727  1.0000
  Nb  Nb9       1.0  0.75000  0.25000  0.88273  1.0000
  Ir  Ir9       1.0  0.50000  0.00000  0.88273  1.0000
  Nb  Nb10      1.0  0.50000  0.25000  0.96091  1.0000
  Ir  Ir10      1.0  0.75000  0.00000  0.96091  1.0000
  Nb  Nb11      1.0  0.75000  0.25000  0.03909  1.0000
  Ir  Ir11      1.0  0.50000  0.00000  0.03909  1.0000
  Nb  Nb12      1.0  0.50000  0.25000  0.11727  1.0000
  Ir  Ir12      1.0  0.75000  0.00000  0.11727  1.0000
  Nb  Nb13      1.0  0.75000  0.75000  0.88273  1.0000
  Ir  Ir13      1.0  0.50000  0.50000  0.88273  1.0000
  Nb  Nb14      1.0  0.50000  0.75000  0.96091  1.0000
  Ir  Ir14      1.0  0.75000  0.50000  0.96091  1.0000
  Nb  Nb15      1.0  0.75000  0.75000  0.03909  1.0000
  Ir  Ir15      1.0  0.50000  0.50000  0.03909  1.0000
  Nb  Nb16      1.0  0.50000  0.75000  0.11727  1.0000
  Ir  Ir16      1.0  0.75000  0.50000  0.11727  1.0000
  C   C1        1.0  0.25000  0.25000  0.14789  1.0000
