# generated using pymatgen
data_Li4Y4In4Ge4C
_symmetry_space_group_name_H-M   Pm
_cell_length_a   6.33235000
_cell_length_b   8.49364000
_cell_length_c   24.73290000
_cell_angle_alpha   90.00000000
_cell_angle_beta   90.00000000
_cell_angle_gamma   90.00000000
_symmetry_Int_Tables_number   6
_chemical_formula_structural   Li4Y4In4Ge4C
_chemical_formula_sum   'Li4 Y4 In4 Ge4 C1'
_cell_volume   1330.25163765
_cell_formula_units_Z   1
loop_
 _symmetry_equiv_pos_site_id
 _symmetry_equiv_pos_as_xyz
  1  'x, y, z'
  2  'x, -y, z'
loop_
 _atom_site_type_symbol
 _atom_site_label
 _atom_site_symmetry_multiplicity
 _atom_site_fract_x
 _atom_site_fract_y
 _atom_site_fract_z
 _atom_site_occupancy
  Li  Li0  1  0.05346000  0.50000000  0.96208000  1.0
  Li  Li1  1  0.06858000  0.00000000  0.97166000  1.0
  Li  Li2  1  0.50000000  0.00000000  0.09568000  1.0
  Li  Li3  1  0.50000000  0.50000000  0.09568000  1.0
  Y  Y4  2  0.37184000  0.21149000  0.90069000  1.0
  Y  Y5  2  0.77071000  0.25000000  0.03189000  1.0
  In  In6  2  0.27071000  0.25000000  0.03189000  1.0
  In  In7  2  0.86810000  0.18327000  0.87863000  1.0
  Ge  Ge8  1  0.00000000  0.00000000  0.09568000  1.0
  Ge  Ge9  1  0.00000000  0.50000000  0.09568000  1.0
  Ge  Ge10  1  0.54329000  0.50000000  0.96726000  1.0
  Ge  Ge11  1  0.59815000  0.00000000  0.97026000  1.0
  C  C12  1  0.15343000  0.00000000  0.88738000  1.0
