# generated using pymatgen
data_Li4Ga8Rh4CO
_symmetry_space_group_name_H-M   P1
_cell_length_a   6.12388000
_cell_length_b   6.12388000
_cell_length_c   24.59290000
_cell_angle_alpha   90.00000000
_cell_angle_beta   90.00000000
_cell_angle_gamma   90.00000000
_symmetry_Int_Tables_number   1
_chemical_formula_structural   Li4Ga8Rh4CO
_chemical_formula_sum   'Li4 Ga8 Rh4 C1 O1'
_cell_volume   922.28063032
_cell_formula_units_Z   1
loop_
 _symmetry_equiv_pos_site_id
 _symmetry_equiv_pos_as_xyz
  1  'x, y, z'
loop_
 _atom_site_type_symbol
 _atom_site_label
 _atom_site_symmetry_multiplicity
 _atom_site_fract_x
 _atom_site_fract_y
 _atom_site_fract_z
 _atom_site_occupancy
  Li  Li0  1  0.00000000  0.00000000  0.90662000  1.0
  Li  Li1  1  0.50000000  0.50000000  0.90662000  1.0
  Li  Li2  1  0.50105000  0.99876000  0.02927000  1.0
  Li  Li3  1  0.99872000  0.50108000  0.02928000  1.0
  Ga  Ga4  1  0.25000000  0.25000000  0.96887000  1.0
  Ga  Ga5  1  0.25000000  0.75000000  0.96887000  1.0
  Ga  Ga6  1  0.25017000  0.74995000  0.09362000  1.0
  Ga  Ga7  1  0.25021000  0.25022000  0.09217000  1.0
  Ga  Ga8  1  0.75000000  0.25000000  0.96887000  1.0
  Ga  Ga9  1  0.75000000  0.75000000  0.96887000  1.0
  Ga  Ga10  1  0.75001000  0.25010000  0.09359000  1.0
  Ga  Ga11  1  0.75021000  0.75021000  0.09460000  1.0
  Rh  Rh12  1  0.00000000  0.50000000  0.90662000  1.0
  Rh  Rh13  1  0.00611000  0.00581000  0.03433000  1.0
  Rh  Rh14  1  0.49465000  0.49468000  0.03434000  1.0
  Rh  Rh15  1  0.50000000  0.00000000  0.90662000  1.0
  C  C16  1  0.24903000  0.24909000  0.17621000  1.0
  O  O17  1  0.24878000  0.24881000  0.22297000  1.0
