data_image0
_chemical_formula_structural       Li8Y8Ge8Pb8CO
_chemical_formula_sum              "Li8 Y8 Ge8 Pb8 C1 O1"
_cell_length_a       8.655
_cell_length_b       9.86128
_cell_length_c       26.4155
_cell_angle_alpha    90
_cell_angle_beta     90
_cell_angle_gamma    90

_space_group_name_H-M_alt    "P 1"
_space_group_IT_number       1

loop_
  _space_group_symop_operation_xyz
  'x, y, z'

loop_
  _atom_site_type_symbol
  _atom_site_label
  _atom_site_symmetry_multiplicity
  _atom_site_fract_x
  _atom_site_fract_y
  _atom_site_fract_z
  _atom_site_occupancy
  Li  Li1       1.0  0.00000  0.25000  0.95952  1.0000
  Li  Li2       1.0  0.99978  0.24898  0.11395  1.0000
  Li  Li3       1.0  0.00000  0.75000  0.95952  1.0000
  Li  Li4       1.0  0.99978  0.75102  0.11395  1.0000
  Li  Li5       1.0  0.50000  0.25000  0.95952  1.0000
  Li  Li6       1.0  0.50022  0.24898  0.11395  1.0000
  Li  Li7       1.0  0.50000  0.75000  0.95952  1.0000
  Li  Li8       1.0  0.50022  0.75102  0.11395  1.0000
  Y   Y1        1.0  0.25000  0.00000  0.95952  1.0000
  Y   Y2        1.0  0.25000  0.00000  0.11557  1.0000
  Y   Y3        1.0  0.25000  0.50000  0.95952  1.0000
  Y   Y4        1.0  0.25000  0.50000  0.11632  1.0000
  Y   Y5        1.0  0.75000  0.00000  0.95952  1.0000
  Y   Y6        1.0  0.75000  0.00000  0.11708  1.0000
  Y   Y7        1.0  0.75000  0.50000  0.95952  1.0000
  Y   Y8        1.0  0.75000  0.50000  0.11639  1.0000
  Ge  Ge1       1.0  0.00000  0.00000  0.87856  1.0000
  Ge  Ge2       1.0  0.99817  0.00000  0.04079  1.0000
  Ge  Ge3       1.0  0.00000  0.50000  0.87856  1.0000
  Ge  Ge4       1.0  0.99983  0.50000  0.04111  1.0000
  Ge  Ge5       1.0  0.50000  0.00000  0.87856  1.0000
  Ge  Ge6       1.0  0.50183  1.00000  0.04079  1.0000
  Ge  Ge7       1.0  0.50000  0.50000  0.87856  1.0000
  Ge  Ge8       1.0  0.50017  0.50000  0.04111  1.0000
  Pb  Pb1       1.0  0.25000  0.25000  0.87856  1.0000
  Pb  Pb2       1.0  0.25000  0.25085  0.03952  1.0000
  Pb  Pb3       1.0  0.25000  0.75000  0.87856  1.0000
  Pb  Pb4       1.0  0.25000  0.74915  0.03952  1.0000
  Pb  Pb5       1.0  0.75000  0.25000  0.87856  1.0000
  Pb  Pb6       1.0  0.75000  0.24958  0.03967  1.0000
  Pb  Pb7       1.0  0.75000  0.75000  0.87856  1.0000
  Pb  Pb8       1.0  0.75000  0.75042  0.03967  1.0000
  C   C1        1.0  0.25000  1.00000  0.20792  1.0000
  O   O1        1.0  0.25000  1.00000  0.25173  1.0000
