data_image0
_chemical_formula_structural       Li8Ag16Ge8C
_chemical_formula_sum              "Li8 Ag16 Ge8 C1"
_cell_length_a       6.51415
_cell_length_b       9.2124
_cell_length_c       26.9093
_cell_angle_alpha    90
_cell_angle_beta     90
_cell_angle_gamma    90

_space_group_name_H-M_alt    "P 1"
_space_group_IT_number       1

loop_
  _space_group_symop_operation_xyz
  'x, y, z'

loop_
  _atom_site_type_symbol
  _atom_site_label
  _atom_site_symmetry_multiplicity
  _atom_site_fract_x
  _atom_site_fract_y
  _atom_site_fract_z
  _atom_site_occupancy
  Li  Li1       1.0  0.00000  0.00000  0.87162  1.0000
  Li  Li2       1.0  0.50000  0.25000  0.95721  1.0000
  Li  Li3       1.0  0.50000  0.75000  0.95721  1.0000
  Li  Li4       1.0  0.00000  0.50000  0.87162  1.0000
  Li  Li5       1.0  0.00050  0.50306  0.03901  1.0000
  Li  Li6       1.0  0.47995  0.75000  0.13078  1.0000
  Li  Li7       1.0  0.51032  0.25000  0.13407  1.0000
  Li  Li8       1.0  0.00050  0.99694  0.03901  1.0000
  Ag  Ag1       1.0  0.25000  0.00000  0.95721  1.0000
  Ag  Ag2       1.0  0.75000  0.50000  0.95721  1.0000
  Ag  Ag3       1.0  0.75000  0.00000  0.95721  1.0000
  Ag  Ag4       1.0  0.25000  0.50000  0.95721  1.0000
  Ag  Ag5       1.0  0.75000  0.75000  0.87162  1.0000
  Ag  Ag6       1.0  0.25000  0.25000  0.87162  1.0000
  Ag  Ag7       1.0  0.25000  0.75000  0.87162  1.0000
  Ag  Ag8       1.0  0.75000  0.25000  0.87162  1.0000
  Ag  Ag9       1.0  0.23130  0.49501  0.12639  1.0000
  Ag  Ag10      1.0  0.76290  0.98342  0.12497  1.0000
  Ag  Ag11      1.0  0.76290  0.51658  0.12497  1.0000
  Ag  Ag12      1.0  0.23130  0.00499  0.12639  1.0000
  Ag  Ag13      1.0  0.74803  0.25000  0.04269  1.0000
  Ag  Ag14      1.0  0.24370  0.75000  0.04526  1.0000
  Ag  Ag15      1.0  0.24072  0.25000  0.04523  1.0000
  Ag  Ag16      1.0  0.75817  0.75000  0.04644  1.0000
  Ge  Ge1       1.0  0.00000  0.75000  0.95721  1.0000
  Ge  Ge2       1.0  0.50000  0.00000  0.87162  1.0000
  Ge  Ge3       1.0  0.00000  0.25000  0.95721  1.0000
  Ge  Ge4       1.0  0.50000  0.50000  0.87162  1.0000
  Ge  Ge5       1.0  0.91949  0.25000  0.15013  1.0000
  Ge  Ge6       1.0  0.50371  0.49900  0.04370  1.0000
  Ge  Ge7       1.0  0.02516  0.75000  0.13575  1.0000
  Ge  Ge8       1.0  0.50370  0.00100  0.04370  1.0000
  C   C1        1.0  0.19590  0.25000  0.13381  1.0000
