# generated using pymatgen
data_Li8Ag16Ge8C
_symmetry_space_group_name_H-M   'P 1'
_cell_length_a   9.21240000
_cell_length_b   6.51415000
_cell_length_c   26.90930000
_cell_angle_alpha   90.00000000
_cell_angle_beta   90.00000000
_cell_angle_gamma   90.00000000
_symmetry_Int_Tables_number   1
_chemical_formula_structural   Li8Ag16Ge8C
_chemical_formula_sum   'Li8 Ag16 Ge8 C1'
_cell_volume   1614.85280376
_cell_formula_units_Z   1
loop_
 _symmetry_equiv_pos_site_id
 _symmetry_equiv_pos_as_xyz
  1  'x, y, z'
loop_
 _atom_site_type_symbol
 _atom_site_label
 _atom_site_symmetry_multiplicity
 _atom_site_fract_x
 _atom_site_fract_y
 _atom_site_fract_z
 _atom_site_occupancy
  Li  Li0  1  0.75000000  0.00000000  0.12838000  1.0
  Li  Li1  1  0.00000000  0.50000000  0.04279000  1.0
  Li  Li2  1  0.50000000  0.50000000  0.04279000  1.0
  Li  Li3  1  0.25000000  0.00000000  0.12838000  1.0
  Li  Li4  1  0.25306000  0.00050000  0.96099000  1.0
  Li  Li5  1  0.50000000  0.47995000  0.86922000  1.0
  Li  Li6  1  0.00000000  0.51032000  0.86593000  1.0
  Li  Li7  1  0.74694000  0.00050000  0.96099000  1.0
  Ag  Ag8  1  0.75000000  0.25000000  0.04279000  1.0
  Ag  Ag9  1  0.25000000  0.75000000  0.04279000  1.0
  Ag  Ag10  1  0.75000000  0.75000000  0.04279000  1.0
  Ag  Ag11  1  0.25000000  0.25000000  0.04279000  1.0
  Ag  Ag12  1  0.50000000  0.75000000  0.12838000  1.0
  Ag  Ag13  1  0.00000000  0.25000000  0.12838000  1.0
  Ag  Ag14  1  0.50000000  0.25000000  0.12838000  1.0
  Ag  Ag15  1  0.00000000  0.75000000  0.12838000  1.0
  Ag  Ag16  1  0.24501000  0.23130000  0.87361000  1.0
  Ag  Ag17  1  0.73342000  0.76290000  0.87503000  1.0
  Ag  Ag18  1  0.26658000  0.76290000  0.87503000  1.0
  Ag  Ag19  1  0.75499000  0.23130000  0.87361000  1.0
  Ag  Ag20  1  0.00000000  0.74803000  0.95731000  1.0
  Ag  Ag21  1  0.50000000  0.24370000  0.95474000  1.0
  Ag  Ag22  1  0.00000000  0.24072000  0.95477000  1.0
  Ag  Ag23  1  0.50000000  0.75817000  0.95356000  1.0
  Ge  Ge24  1  0.50000000  0.00000000  0.04279000  1.0
  Ge  Ge25  1  0.75000000  0.50000000  0.12838000  1.0
  Ge  Ge26  1  0.00000000  0.00000000  0.04279000  1.0
  Ge  Ge27  1  0.25000000  0.50000000  0.12838000  1.0
  Ge  Ge28  1  0.00000000  0.91949000  0.84987000  1.0
  Ge  Ge29  1  0.24900000  0.50371000  0.95630000  1.0
  Ge  Ge30  1  0.50000000  0.02516000  0.86425000  1.0
  Ge  Ge31  1  0.75100000  0.50371000  0.95630000  1.0
  C  C32  1  0.00000000  0.19590000  0.86619000  1.0
