# generated using pymatgen
data_Li8Ag16Ge8C
_symmetry_space_group_name_H-M   Pm
_cell_length_a   6.51415000
_cell_length_b   9.21240000
_cell_length_c   26.90930000
_cell_angle_alpha   90.00000000
_cell_angle_beta   90.00000000
_cell_angle_gamma   90.00000000
_symmetry_Int_Tables_number   6
_chemical_formula_structural   Li8Ag16Ge8C
_chemical_formula_sum   'Li8 Ag16 Ge8 C1'
_cell_volume   1614.85280376
_cell_formula_units_Z   1
loop_
 _symmetry_equiv_pos_site_id
 _symmetry_equiv_pos_as_xyz
  1  'x, y, z'
  2  'x, -y, z'
loop_
 _atom_site_type_symbol
 _atom_site_label
 _atom_site_symmetry_multiplicity
 _atom_site_fract_x
 _atom_site_fract_y
 _atom_site_fract_z
 _atom_site_occupancy
  Li  Li0  2  0.00000000  0.25000000  0.87162000  1.0
  Li  Li1  2  0.00050000  0.25306000  0.03901000  1.0
  Li  Li2  1  0.47995000  0.50000000  0.13078000  1.0
  Li  Li3  1  0.50000000  0.00000000  0.95721000  1.0
  Li  Li4  1  0.50000000  0.50000000  0.95721000  1.0
  Li  Li5  1  0.51032000  0.00000000  0.13407000  1.0
  Ag  Ag6  2  0.23130000  0.24501000  0.12639000  1.0
  Ag  Ag7  2  0.25000000  0.25000000  0.95721000  1.0
  Ag  Ag8  2  0.75000000  0.25000000  0.95721000  1.0
  Ag  Ag9  2  0.76290000  0.26658000  0.12497000  1.0
  Ag  Ag10  1  0.24072000  0.00000000  0.04523000  1.0
  Ag  Ag11  1  0.24370000  0.50000000  0.04526000  1.0
  Ag  Ag12  1  0.25000000  0.00000000  0.87162000  1.0
  Ag  Ag13  1  0.25000000  0.50000000  0.87162000  1.0
  Ag  Ag14  1  0.74803000  0.00000000  0.04269000  1.0
  Ag  Ag15  1  0.75000000  0.00000000  0.87162000  1.0
  Ag  Ag16  1  0.75000000  0.50000000  0.87162000  1.0
  Ag  Ag17  1  0.75817000  0.50000000  0.04644000  1.0
  Ge  Ge18  2  0.50000000  0.25000000  0.87162000  1.0
  Ge  Ge19  2  0.50371000  0.24900000  0.04370000  1.0
  Ge  Ge20  1  0.00000000  0.00000000  0.95721000  1.0
  Ge  Ge21  1  0.00000000  0.50000000  0.95721000  1.0
  Ge  Ge22  1  0.02516000  0.50000000  0.13575000  1.0
  Ge  Ge23  1  0.91949000  0.00000000  0.15013000  1.0
  C  C24  1  0.19590000  0.00000000  0.13381000  1.0
