data_image0
_chemical_formula_structural       MnAuMnAuMnAuMnAuMnAuMnAuMnAuMnAuMnAuMnAuMnAuMnAuMnAuMnAuMnAuMnAu
_chemical_formula_sum              "Mn16 Au16"
_cell_length_a       9.12264
_cell_length_b       6.71308
_cell_length_c       26.842
_cell_angle_alpha    90
_cell_angle_beta     90
_cell_angle_gamma    90

_space_group_name_H-M_alt    "P 1"
_space_group_IT_number       1

loop_
  _space_group_symop_operation_xyz
  'x, y, z'

loop_
  _atom_site_type_symbol
  _atom_site_label
  _atom_site_symmetry_multiplicity
  _atom_site_fract_x
  _atom_site_fract_y
  _atom_site_fract_z
  _atom_site_occupancy
  Mn  Mn1       1.0  0.25000  0.25000  0.87255  1.0000
  Au  Au1       1.0  0.00000  0.00000  0.87255  1.0000
  Mn  Mn2       1.0  0.50000  0.25000  0.95752  1.0000
  Au  Au2       1.0  0.25000  0.00000  0.95752  1.0000
  Mn  Mn3       1.0  0.25000  0.25000  0.04248  1.0000
  Au  Au3       1.0  0.00000  0.00000  0.04248  1.0000
  Mn  Mn4       1.0  0.00000  0.25000  0.12745  1.0000
  Au  Au4       1.0  0.25000  0.00000  0.12745  1.0000
  Mn  Mn5       1.0  0.25000  0.75000  0.87255  1.0000
  Au  Au5       1.0  0.00000  0.50000  0.87255  1.0000
  Mn  Mn6       1.0  0.50000  0.75000  0.95752  1.0000
  Au  Au6       1.0  0.25000  0.50000  0.95752  1.0000
  Mn  Mn7       1.0  0.25000  0.75000  0.04248  1.0000
  Au  Au7       1.0  0.00000  0.50000  0.04248  1.0000
  Mn  Mn8       1.0  0.00000  0.75000  0.12745  1.0000
  Au  Au8       1.0  0.25000  0.50000  0.12745  1.0000
  Mn  Mn9       1.0  0.75000  0.25000  0.87255  1.0000
  Au  Au9       1.0  0.50000  0.00000  0.87255  1.0000
  Mn  Mn10      1.0  1.00000  0.25000  0.95752  1.0000
  Au  Au10      1.0  0.75000  0.00000  0.95752  1.0000
  Mn  Mn11      1.0  0.75000  0.25000  0.04248  1.0000
  Au  Au11      1.0  0.50000  0.00000  0.04248  1.0000
  Mn  Mn12      1.0  0.50000  0.25000  0.12745  1.0000
  Au  Au12      1.0  0.75000  0.00000  0.12745  1.0000
  Mn  Mn13      1.0  0.75000  0.75000  0.87255  1.0000
  Au  Au13      1.0  0.50000  0.50000  0.87255  1.0000
  Mn  Mn14      1.0  1.00000  0.75000  0.95752  1.0000
  Au  Au14      1.0  0.75000  0.50000  0.95752  1.0000
  Mn  Mn15      1.0  0.75000  0.75000  0.04248  1.0000
  Au  Au15      1.0  0.50000  0.50000  0.04248  1.0000
  Mn  Mn16      1.0  0.50000  0.75000  0.12745  1.0000
  Au  Au16      1.0  0.75000  0.50000  0.12745  1.0000
