# generated using pymatgen
data_Li4Sc4In4Ga4C
_symmetry_space_group_name_H-M   'P 1'
_cell_length_a   8.37318000
_cell_length_b   6.04935000
_cell_length_c   24.52450000
_cell_angle_alpha   90.00000000
_cell_angle_beta   90.00000000
_cell_angle_gamma   90.00000000
_symmetry_Int_Tables_number   1
_chemical_formula_structural   Li4Sc4In4Ga4C
_chemical_formula_sum   'Li4 Sc4 In4 Ga4 C1'
_cell_volume   1242.22224387
_cell_formula_units_Z   1
loop_
 _symmetry_equiv_pos_site_id
 _symmetry_equiv_pos_as_xyz
  1  'x, y, z'
loop_
 _atom_site_type_symbol
 _atom_site_label
 _atom_site_symmetry_multiplicity
 _atom_site_fract_x
 _atom_site_fract_y
 _atom_site_fract_z
 _atom_site_occupancy
  Li  Li0  1  0.00000000  0.74538000  0.96848000  1.0
  Li  Li1  1  0.00000000  0.19428000  0.09224000  1.0
  Li  Li2  1  0.50000000  0.75316000  0.94564000  1.0
  Li  Li3  1  0.50000000  0.19428000  0.09224000  1.0
  Sc  Sc4  1  0.00000000  0.24143000  0.97190000  1.0
  Sc  Sc5  1  0.00000000  0.69428000  0.09224000  1.0
  Sc  Sc6  1  0.50000000  0.24104000  0.96237000  1.0
  Sc  Sc7  1  0.50000000  0.69428000  0.09224000  1.0
  In  In8  1  0.77445000  0.50636000  0.90078000  1.0
  In  In9  1  0.75000000  0.96285000  0.03075000  1.0
  In  In10  1  0.22555000  0.50636000  0.90078000  1.0
  In  In11  1  0.25000000  0.96285000  0.03075000  1.0
  Ga  Ga12  1  0.76647000  0.99907000  0.90457000  1.0
  Ga  Ga13  1  0.75000000  0.46285000  0.03075000  1.0
  Ga  Ga14  1  0.23353000  0.99907000  0.90457000  1.0
  Ga  Ga15  1  0.25000000  0.46285000  0.03075000  1.0
  C  C16  1  0.00000000  0.00063000  0.90936000  1.0
