# generated using pymatgen
data_Li4Sc4Al4In4C
_symmetry_space_group_name_H-M   Pm
_cell_length_a   6.08380000
_cell_length_b   8.37392000
_cell_length_c   24.56130000
_cell_angle_alpha   90.00000000
_cell_angle_beta   90.00000000
_cell_angle_gamma   90.00000000
_symmetry_Int_Tables_number   6
_chemical_formula_structural   Li4Sc4Al4In4C
_chemical_formula_sum   'Li4 Sc4 Al4 In4 C1'
_cell_volume   1251.28167925
_cell_formula_units_Z   1
loop_
 _symmetry_equiv_pos_site_id
 _symmetry_equiv_pos_as_xyz
  1  'x, y, z'
  2  'x, -y, z'
loop_
 _atom_site_type_symbol
 _atom_site_label
 _atom_site_symmetry_multiplicity
 _atom_site_fract_x
 _atom_site_fract_y
 _atom_site_fract_z
 _atom_site_occupancy
  Li  Li0  1  0.01901000  0.50000000  0.95434000  1.0
  Li  Li1  1  0.04785000  0.00000000  0.97533000  1.0
  Li  Li2  1  0.50000000  0.00000000  0.09286000  1.0
  Li  Li3  1  0.50000000  0.50000000  0.09286000  1.0
  Sc  Sc4  2  0.32929000  0.20364000  0.90160000  1.0
  Sc  Sc5  2  0.75642000  0.25002000  0.03095000  1.0
  Al  Al6  1  0.00000000  0.00000000  0.09286000  1.0
  Al  Al7  1  0.00000000  0.50000000  0.09286000  1.0
  Al  Al8  1  0.51263000  0.50000000  0.96825000  1.0
  Al  Al9  1  0.56335000  0.00000000  0.97454000  1.0
  In  In10  2  0.25642000  0.25002000  0.03095000  1.0
  In  In11  2  0.82781000  0.19207000  0.88839000  1.0
  C  C12  1  0.13139000  0.00000000  0.89303000  1.0
