# generated using pymatgen
data_Li4Sc4Al4In4CO
_symmetry_space_group_name_H-M   Pm
_cell_length_a   5.96334000
_cell_length_b   8.71362000
_cell_length_c   24.47210000
_cell_angle_alpha   90.00000000
_cell_angle_beta   90.00000000
_cell_angle_gamma   90.00000000
_symmetry_Int_Tables_number   6
_chemical_formula_structural   Li4Sc4Al4In4CO
_chemical_formula_sum   'Li4 Sc4 Al4 In4 C1 O1'
_cell_volume   1271.62608035
_cell_formula_units_Z   1
loop_
 _symmetry_equiv_pos_site_id
 _symmetry_equiv_pos_as_xyz
  1  'x, y, z'
  2  'x, -y, z'
loop_
 _atom_site_type_symbol
 _atom_site_label
 _atom_site_symmetry_multiplicity
 _atom_site_fract_x
 _atom_site_fract_y
 _atom_site_fract_z
 _atom_site_occupancy
  Li  Li0  1  0.28514000  0.50000000  0.09813000  1.0
  Li  Li1  1  0.28546000  0.00000000  0.10088000  1.0
  Li  Li2  1  0.74648000  0.00000000  0.96954000  1.0
  Li  Li3  1  0.74648000  0.50000000  0.96954000  1.0
  Sc  Sc4  2  0.00850000  0.25146000  0.03210000  1.0
  Sc  Sc5  2  0.50000000  0.25002000  0.90863000  1.0
  Al  Al6  2  0.00000000  0.25002000  0.90863000  1.0
  Al  Al7  2  0.51292000  0.25032000  0.03559000  1.0
  In  In8  1  0.24648000  0.00000000  0.96954000  1.0
  In  In9  1  0.24648000  0.50000000  0.96954000  1.0
  In  In10  1  0.77964000  0.50000000  0.09335000  1.0
  In  In11  1  0.78014000  0.00000000  0.09242000  1.0
  C  C12  1  0.27473000  0.00000000  0.18651000  1.0
  O  O13  1  0.25334000  0.00000000  0.23285000  1.0
