# generated using pymatgen
data_Hf4Ir12CO
_symmetry_space_group_name_H-M   'P 1'
_cell_length_a   5.61861000
_cell_length_b   7.94591000
_cell_length_c   24.21400000
_cell_angle_alpha   90.00000000
_cell_angle_beta   90.00000000
_cell_angle_gamma   90.00000000
_symmetry_Int_Tables_number   1
_chemical_formula_structural   Hf4Ir12CO
_chemical_formula_sum   'Hf4 Ir12 C1 O1'
_cell_volume   1081.03328869
_cell_formula_units_Z   1
loop_
 _symmetry_equiv_pos_site_id
 _symmetry_equiv_pos_as_xyz
  1  'x, y, z'
loop_
 _atom_site_type_symbol
 _atom_site_label
 _atom_site_symmetry_multiplicity
 _atom_site_fract_x
 _atom_site_fract_y
 _atom_site_fract_z
 _atom_site_occupancy
  Hf  Hf0  1  0.00000000  0.50000000  0.91882000  1.0
  Hf  Hf1  1  0.50000000  0.50000000  0.02901000  1.0
  Hf  Hf2  1  0.00000000  0.00000000  0.92175000  1.0
  Hf  Hf3  1  0.50000000  0.00000000  0.02901000  1.0
  Ir  Ir4  1  0.50000000  0.50000000  0.91846000  1.0
  Ir  Ir5  1  0.74878000  0.74859000  0.97066000  1.0
  Ir  Ir6  1  0.25122000  0.74859000  0.97066000  1.0
  Ir  Ir7  1  0.00000000  0.50000000  0.02901000  1.0
  Ir  Ir8  1  0.25000000  0.75001000  0.08702000  1.0
  Ir  Ir9  1  0.75000000  0.75001000  0.08702000  1.0
  Ir  Ir10  1  0.50000000  0.00000000  0.91953000  1.0
  Ir  Ir11  1  0.74878000  0.25141000  0.97066000  1.0
  Ir  Ir12  1  0.25122000  0.25141000  0.97066000  1.0
  Ir  Ir13  1  0.00000000  0.00000000  0.02901000  1.0
  Ir  Ir14  1  0.25000000  0.24999000  0.08702000  1.0
  Ir  Ir15  1  0.75000000  0.24999000  0.08702000  1.0
  C  C16  1  0.00000000  0.50000000  0.82067000  1.0
  O  O17  1  0.00000000  0.50000000  0.77337000  1.0
