# generated using pymatgen
data_Li16Al8Rh8C
_symmetry_space_group_name_H-M   'P 1'
_cell_length_a   8.51164000
_cell_length_b   6.01864000
_cell_length_c   26.38370000
_cell_angle_alpha   90.00000000
_cell_angle_beta   90.00000000
_cell_angle_gamma   90.00000000
_symmetry_Int_Tables_number   1
_chemical_formula_structural   Li16Al8Rh8C
_chemical_formula_sum   'Li16 Al8 Rh8 C1'
_cell_volume   1351.59729550
_cell_formula_units_Z   1
loop_
 _symmetry_equiv_pos_site_id
 _symmetry_equiv_pos_as_xyz
  1  'x, y, z'
loop_
 _atom_site_type_symbol
 _atom_site_label
 _atom_site_symmetry_multiplicity
 _atom_site_fract_x
 _atom_site_fract_y
 _atom_site_fract_z
 _atom_site_occupancy
  Li  Li0  1  0.50000000  0.00000000  0.04033000  1.0
  Li  Li1  1  0.75000000  0.50000000  0.12098000  1.0
  Li  Li2  1  0.00000000  0.00000000  0.04033000  1.0
  Li  Li3  1  0.25000000  0.50000000  0.12098000  1.0
  Li  Li4  1  0.00000000  0.25000000  0.12098000  1.0
  Li  Li5  1  0.50000000  0.25000000  0.12098000  1.0
  Li  Li6  1  0.25000000  0.75000000  0.04033000  1.0
  Li  Li7  1  0.75000000  0.75000000  0.04033000  1.0
  Li  Li8  1  0.00000000  0.95341000  0.87841000  1.0
  Li  Li9  1  0.24993000  0.50002000  0.95873000  1.0
  Li  Li10  1  0.50000000  0.02626000  0.87312000  1.0
  Li  Li11  1  0.75007000  0.50002000  0.95873000  1.0
  Li  Li12  1  0.50000000  0.23881000  0.96334000  1.0
  Li  Li13  1  0.00000000  0.24038000  0.95824000  1.0
  Li  Li14  1  0.73570000  0.74632000  0.86832000  1.0
  Li  Li15  1  0.26430000  0.74632000  0.86832000  1.0
  Al  Al16  1  0.75000000  0.00000000  0.12098000  1.0
  Al  Al17  1  0.00000000  0.50000000  0.04033000  1.0
  Al  Al18  1  0.50000000  0.50000000  0.04033000  1.0
  Al  Al19  1  0.25000000  0.00000000  0.12098000  1.0
  Al  Al20  1  0.25265000  0.99893000  0.95641000  1.0
  Al  Al21  1  0.50000000  0.46603000  0.88332000  1.0
  Al  Al22  1  0.00000000  0.54148000  0.88983000  1.0
  Al  Al23  1  0.74735000  0.99893000  0.95641000  1.0
  Rh  Rh24  1  0.75000000  0.25000000  0.04033000  1.0
  Rh  Rh25  1  0.25000000  0.25000000  0.04033000  1.0
  Rh  Rh26  1  0.50000000  0.75000000  0.12098000  1.0
  Rh  Rh27  1  0.00000000  0.75000000  0.12098000  1.0
  Rh  Rh28  1  0.21881000  0.25767000  0.87862000  1.0
  Rh  Rh29  1  0.78119000  0.25767000  0.87862000  1.0
  Rh  Rh30  1  0.00000000  0.76110000  0.96429000  1.0
  Rh  Rh31  1  0.50000000  0.74955000  0.95450000  1.0
  C  C32  1  0.00000000  0.25182000  0.85485000  1.0
