# generated using pymatgen
data_Li16Al8Rh8C
_symmetry_space_group_name_H-M   Pm
_cell_length_a   6.01864000
_cell_length_b   8.51164000
_cell_length_c   26.38370000
_cell_angle_alpha   90.00000000
_cell_angle_beta   90.00000000
_cell_angle_gamma   90.00000000
_symmetry_Int_Tables_number   6
_chemical_formula_structural   Li16Al8Rh8C
_chemical_formula_sum   'Li16 Al8 Rh8 C1'
_cell_volume   1351.59729550
_cell_formula_units_Z   1
loop_
 _symmetry_equiv_pos_site_id
 _symmetry_equiv_pos_as_xyz
  1  'x, y, z'
  2  'x, -y, z'
loop_
 _atom_site_type_symbol
 _atom_site_label
 _atom_site_symmetry_multiplicity
 _atom_site_fract_x
 _atom_site_fract_y
 _atom_site_fract_z
 _atom_site_occupancy
  Li  Li0  2  0.50000000  0.25000000  0.87902000  1.0
  Li  Li1  2  0.50002000  0.24993000  0.04127000  1.0
  Li  Li2  2  0.74632000  0.26430000  0.13168000  1.0
  Li  Li3  2  0.75000000  0.25000000  0.95967000  1.0
  Li  Li4  1  0.00000000  0.00000000  0.95967000  1.0
  Li  Li5  1  0.00000000  0.50000000  0.95967000  1.0
  Li  Li6  1  0.02626000  0.50000000  0.12688000  1.0
  Li  Li7  1  0.23881000  0.50000000  0.03666000  1.0
  Li  Li8  1  0.24038000  0.00000000  0.04176000  1.0
  Li  Li9  1  0.25000000  0.00000000  0.87902000  1.0
  Li  Li10  1  0.25000000  0.50000000  0.87902000  1.0
  Li  Li11  1  0.95341000  0.00000000  0.12159000  1.0
  Al  Al12  2  0.00000000  0.25000000  0.87902000  1.0
  Al  Al13  2  0.99893000  0.25265000  0.04359000  1.0
  Al  Al14  1  0.46603000  0.50000000  0.11668000  1.0
  Al  Al15  1  0.50000000  0.00000000  0.95967000  1.0
  Al  Al16  1  0.50000000  0.50000000  0.95967000  1.0
  Al  Al17  1  0.54148000  0.00000000  0.11017000  1.0
  Rh  Rh18  2  0.25000000  0.25000000  0.95967000  1.0
  Rh  Rh19  2  0.25767000  0.21881000  0.12138000  1.0
  Rh  Rh20  1  0.74955000  0.50000000  0.04550000  1.0
  Rh  Rh21  1  0.75000000  0.00000000  0.87902000  1.0
  Rh  Rh22  1  0.75000000  0.50000000  0.87902000  1.0
  Rh  Rh23  1  0.76110000  0.00000000  0.03571000  1.0
  C  C24  1  0.25182000  0.00000000  0.14515000  1.0
