# generated using pymatgen
data_Li8In16Pd8C
_symmetry_space_group_name_H-M   'P 1'
_cell_length_a   6.70566000
_cell_length_b   9.48324000
_cell_length_c   27.11240000
_cell_angle_alpha   90.00000000
_cell_angle_beta   90.00000000
_cell_angle_gamma   90.00000000
_symmetry_Int_Tables_number   1
_chemical_formula_structural   Li8In16Pd8C
_chemical_formula_sum   'Li8 In16 Pd8 C1'
_cell_volume   1724.11501620
_cell_formula_units_Z   1
loop_
 _symmetry_equiv_pos_site_id
 _symmetry_equiv_pos_as_xyz
  1  'x, y, z'
loop_
 _atom_site_type_symbol
 _atom_site_label
 _atom_site_symmetry_multiplicity
 _atom_site_fract_x
 _atom_site_fract_y
 _atom_site_fract_z
 _atom_site_occupancy
  Li  Li0  1  0.00000000  0.00000000  0.86883000  1.0
  Li  Li1  1  0.50000000  0.25000000  0.95628000  1.0
  Li  Li2  1  0.50000000  0.75000000  0.95628000  1.0
  Li  Li3  1  0.00000000  0.50000000  0.86883000  1.0
  Li  Li4  1  0.00000000  0.50000000  0.04489000  1.0
  Li  Li5  1  0.50000000  0.72307000  0.13691000  1.0
  Li  Li6  1  0.50000000  0.27693000  0.13691000  1.0
  Li  Li7  1  0.00000000  0.00000000  0.05330000  1.0
  In  In8  1  0.25000000  0.00000000  0.95628000  1.0
  In  In9  1  0.75000000  0.50000000  0.95628000  1.0
  In  In10  1  0.75000000  0.00000000  0.95628000  1.0
  In  In11  1  0.25000000  0.50000000  0.95628000  1.0
  In  In12  1  0.75000000  0.75000000  0.86883000  1.0
  In  In13  1  0.25000000  0.25000000  0.86883000  1.0
  In  In14  1  0.25000000  0.75000000  0.86883000  1.0
  In  In15  1  0.75000000  0.25000000  0.86883000  1.0
  In  In16  1  0.22603000  0.50000000  0.14111000  1.0
  In  In17  1  0.70031000  0.00000000  0.13593000  1.0
  In  In18  1  0.77397000  0.50000000  0.14111000  1.0
  In  In19  1  0.29969000  0.00000000  0.13593000  1.0
  In  In20  1  0.74637000  0.25414000  0.04556000  1.0
  In  In21  1  0.25363000  0.74586000  0.04556000  1.0
  In  In22  1  0.25363000  0.25414000  0.04556000  1.0
  In  In23  1  0.74637000  0.74586000  0.04556000  1.0
  Pd  Pd24  1  0.00000000  0.75000000  0.95628000  1.0
  Pd  Pd25  1  0.50000000  0.00000000  0.86883000  1.0
  Pd  Pd26  1  0.00000000  0.25000000  0.95628000  1.0
  Pd  Pd27  1  0.50000000  0.50000000  0.86883000  1.0
  Pd  Pd28  1  0.00000000  0.21985000  0.12732000  1.0
  Pd  Pd29  1  0.50000000  0.50000000  0.04349000  1.0
  Pd  Pd30  1  0.00000000  0.78015000  0.12732000  1.0
  Pd  Pd31  1  0.50000000  0.00000000  0.03794000  1.0
  C  C32  1  0.00000000  0.00000000  0.15785000  1.0
