# generated using pymatgen
data_Li8Ag4Sb4CO
_symmetry_space_group_name_H-M   'P 1'
_cell_length_a   6.69979000
_cell_length_b   6.69979000
_cell_length_c   25.02480000
_cell_angle_alpha   90.00000000
_cell_angle_beta   90.00000000
_cell_angle_gamma   90.00000000
_symmetry_Int_Tables_number   1
_chemical_formula_structural   Li8Ag4Sb4CO
_chemical_formula_sum   'Li8 Ag4 Sb4 C1 O1'
_cell_volume   1123.29285332
_cell_formula_units_Z   1
loop_
 _symmetry_equiv_pos_site_id
 _symmetry_equiv_pos_as_xyz
  1  'x, y, z'
loop_
 _atom_site_type_symbol
 _atom_site_label
 _atom_site_symmetry_multiplicity
 _atom_site_fract_x
 _atom_site_fract_y
 _atom_site_fract_z
 _atom_site_occupancy
  Li  Li0  1  0.00940000  0.00940000  0.97324000  1
  Li  Li1  1  0.00000000  0.50000000  0.10040000  1
  Li  Li2  1  0.50000000  1.00000000  0.10040000  1
  Li  Li3  1  0.49026500  0.49026500  0.97216000  1
  Li  Li4  1  0.25000000  0.25000000  0.03347000  1
  Li  Li5  1  0.75058000  0.25018000  0.89621000  1
  Li  Li6  1  0.75000000  0.75000000  0.03347000  1
  Li  Li7  1  0.25018000  0.75058000  0.89621000  1
  Ag  Ag8  1  0.25034500  0.25034500  0.88904000  1
  Ag  Ag9  1  0.75000000  0.25000000  0.03347000  1
  Ag  Ag10  1  0.74969500  0.74969500  0.90898000  1
  Ag  Ag11  1  0.25000000  0.75000000  0.03347000  1
  Sb  Sb12  1  0.00000000  0.00000000  0.10040000  1
  Sb  Sb13  1  0.50000000  0.50000000  0.10040000  1
  Sb  Sb14  1  0.01188000  0.48860000  0.95477000  1
  Sb  Sb15  1  0.48860000  0.01188000  0.95477000  1
  C  C16  1  0.25169000  0.25169000  0.80330000  1
  O  O17  1  0.25076500  0.25076500  0.75738000  1
