# generated using pymatgen
data_ZnAu
_symmetry_space_group_name_H-M   'P 1'
_cell_length_a   3.21551500
_cell_length_b   9.09485000
_cell_length_c   26.82110000
_cell_angle_alpha   90.00000000
_cell_angle_beta   90.00000000
_cell_angle_gamma   90.00000000
_symmetry_Int_Tables_number   1
_chemical_formula_structural   ZnAu
_chemical_formula_sum   'Zn8 Au8'
_cell_volume   784.37305444
_cell_formula_units_Z   8
loop_
 _symmetry_equiv_pos_site_id
 _symmetry_equiv_pos_as_xyz
  1  'x, y, z'
loop_
 _atom_site_type_symbol
 _atom_site_label
 _atom_site_symmetry_multiplicity
 _atom_site_fract_x
 _atom_site_fract_y
 _atom_site_fract_z
 _atom_site_occupancy
  Zn  Zn0  1  0.50000000  0.25000000  0.87284000  1.0
  Zn  Zn1  1  0.50000000  0.00000000  0.95761000  1.0
  Zn  Zn2  1  0.50000000  0.24981000  0.04419500  1.0
  Zn  Zn3  1  0.50000000  0.50000000  0.13061000  1.0
  Zn  Zn4  1  0.50000000  0.75000000  0.87284000  1.0
  Zn  Zn5  1  0.50000000  0.50000000  0.95761000  1.0
  Zn  Zn6  1  0.50000000  0.75019000  0.04419500  1.0
  Zn  Zn7  1  0.50000000  0.00000000  0.13054000  1.0
  Au  Au8  1  0.00000000  0.00000000  0.87284000  1.0
  Au  Au9  1  0.00000000  0.25000000  0.95761000  1.0
  Au  Au10  1  0.00000000  0.50000000  0.04071000  1.0
  Au  Au11  1  0.00000000  0.24986500  0.12880000  1.0
  Au  Au12  1  0.00000000  0.50000000  0.87284000  1.0
  Au  Au13  1  0.00000000  0.75000000  0.95761000  1.0
  Au  Au14  1  0.00000000  0.00000000  0.04071000  1.0
  Au  Au15  1  0.00000000  0.75013500  0.12880000  1.0
