# generated using pymatgen
data_Li16Al8Pt8C
_symmetry_space_group_name_H-M   'P 1'
_cell_length_a   8.59020000
_cell_length_b   6.07419000
_cell_length_c   26.44270000
_cell_angle_alpha   90.00000000
_cell_angle_beta   90.00000000
_cell_angle_gamma   90.00000000
_symmetry_Int_Tables_number   1
_chemical_formula_structural   Li16Al8Pt8C
_chemical_formula_sum   'Li16 Al8 Pt8 C1'
_cell_volume   1379.74060541
_cell_formula_units_Z   1
loop_
 _symmetry_equiv_pos_site_id
 _symmetry_equiv_pos_as_xyz
  1  'x, y, z'
loop_
 _atom_site_type_symbol
 _atom_site_label
 _atom_site_symmetry_multiplicity
 _atom_site_fract_x
 _atom_site_fract_y
 _atom_site_fract_z
 _atom_site_occupancy
  Li  Li0  1  0.75000000  0.00000000  0.04061000  1.0
  Li  Li1  1  0.00000000  0.50000000  0.12182000  1.0
  Li  Li2  1  0.25000000  0.00000000  0.04061000  1.0
  Li  Li3  1  0.50000000  0.50000000  0.12182000  1.0
  Li  Li4  1  0.00000000  0.25000000  0.04061000  1.0
  Li  Li5  1  0.50000000  0.25000000  0.04061000  1.0
  Li  Li6  1  0.75000000  0.75000000  0.12182000  1.0
  Li  Li7  1  0.25000000  0.75000000  0.12182000  1.0
  Li  Li8  1  0.27070000  0.96905000  0.87198000  1.0
  Li  Li9  1  0.50000000  0.49692000  0.96392000  1.0
  Li  Li10  1  0.72930000  0.96905000  0.87198000  1.0
  Li  Li11  1  0.00000000  0.48689000  0.95657000  1.0
  Li  Li12  1  0.50000000  0.26543000  0.87958000  1.0
  Li  Li13  1  0.00000000  0.17705000  0.84786000  1.0
  Li  Li14  1  0.24133000  0.75375000  0.95913000  1.0
  Li  Li15  1  0.75867000  0.75375000  0.95913000  1.0
  Al  Al16  1  0.00000000  0.00000000  0.12182000  1.0
  Al  Al17  1  0.25000000  0.50000000  0.04061000  1.0
  Al  Al18  1  0.75000000  0.50000000  0.04061000  1.0
  Al  Al19  1  0.50000000  0.00000000  0.12182000  1.0
  Al  Al20  1  0.50000000  0.98426000  0.95767000  1.0
  Al  Al21  1  0.77260000  0.48736000  0.87712000  1.0
  Al  Al22  1  0.22740000  0.48736000  0.87712000  1.0
  Al  Al23  1  0.00000000  0.02915000  0.96213000  1.0
  Pt  Pt24  1  0.25000000  0.25000000  0.12182000  1.0
  Pt  Pt25  1  0.75000000  0.25000000  0.12182000  1.0
  Pt  Pt26  1  0.50000000  0.75000000  0.04061000  1.0
  Pt  Pt27  1  0.00000000  0.75000000  0.04061000  1.0
  Pt  Pt28  1  0.74205000  0.24412000  0.95947000  1.0
  Pt  Pt29  1  0.25795000  0.24412000  0.95947000  1.0
  Pt  Pt30  1  0.00000000  0.79947000  0.88677000  1.0
  Pt  Pt31  1  0.50000000  0.69824000  0.88521000  1.0
  C  C32  1  0.00000000  0.49209000  0.86090000  1.0
