# generated using pymatgen
data_Li4Al4Fe4Pd4CO
_symmetry_space_group_name_H-M   P1
_cell_length_a   5.67696000
_cell_length_b   6.16988000
_cell_length_c   24.62570000
_cell_angle_alpha   90.00000000
_cell_angle_beta   90.00000000
_cell_angle_gamma   90.00000000
_symmetry_Int_Tables_number   1
_chemical_formula_structural   Li4Al4Fe4Pd4CO
_chemical_formula_sum   'Li4 Al4 Fe4 Pd4 C1 O1'
_cell_volume   862.54375670
_cell_formula_units_Z   1
loop_
 _symmetry_equiv_pos_site_id
 _symmetry_equiv_pos_as_xyz
  1  'x, y, z'
loop_
 _atom_site_type_symbol
 _atom_site_label
 _atom_site_symmetry_multiplicity
 _atom_site_fract_x
 _atom_site_fract_y
 _atom_site_fract_z
 _atom_site_occupancy
  Li  Li0  1  0.00000000  0.50000000  0.90608000  1.0
  Li  Li1  1  0.50000000  0.50000000  0.90608000  1.0
  Li  Li2  1  0.50843000  0.99045000  0.03210000  1.0
  Li  Li3  1  0.99157000  0.99040000  0.03211000  1.0
  Al  Al4  1  0.00000000  0.00000000  0.90608000  1.0
  Al  Al5  1  0.50000000  0.00000000  0.90608000  1.0
  Al  Al6  1  0.50344000  0.48428000  0.03077000  1.0
  Al  Al7  1  0.99655000  0.48435000  0.03078000  1.0
  Fe  Fe8  1  0.25000000  0.24326000  0.96869000  1.0
  Fe  Fe9  1  0.25014000  0.72903000  0.08785000  1.0
  Fe  Fe10  1  0.74975000  0.71311000  0.09993000  1.0
  Fe  Fe11  1  0.75000000  0.24326000  0.96869000  1.0
  Pd  Pd12  1  0.25000000  0.74326000  0.96869000  1.0
  Pd  Pd13  1  0.25001000  0.23912000  0.08977000  1.0
  Pd  Pd14  1  0.74999000  0.24527000  0.09300000  1.0
  Pd  Pd15  1  0.75000000  0.74326000  0.96869000  1.0
  C  C16  1  0.25008000  0.74350000  0.15951000  1.0
  O  O17  1  0.25002000  0.74537000  0.20688000  1.0
