# generated using pymatgen
data_Li8Al8Cu8Ge8CO
_symmetry_space_group_name_H-M   Pmm2
_cell_length_a   7.77412000
_cell_length_b   7.78580000
_cell_length_c   25.71220000
_cell_angle_alpha   90.00000000
_cell_angle_beta   90.00000000
_cell_angle_gamma   90.00000000
_symmetry_Int_Tables_number   25
_chemical_formula_structural   Li8Al8Cu8Ge8CO
_chemical_formula_sum   'Li8 Al8 Cu8 Ge8 C1 O1'
_cell_volume   1556.30144632
_cell_formula_units_Z   1
loop_
 _symmetry_equiv_pos_site_id
 _symmetry_equiv_pos_as_xyz
  1  'x, y, z'
  2  '-x, -y, z'
  3  '-x, y, z'
  4  'x, -y, z'
loop_
 _atom_site_type_symbol
 _atom_site_label
 _atom_site_symmetry_multiplicity
 _atom_site_fract_x
 _atom_site_fract_y
 _atom_site_fract_z
 _atom_site_occupancy
  Li  Li0  2  0.00000000  0.25000000  0.03703000  1.0
  Li  Li1  2  0.00000000  0.25000000  0.88892000  1.0
  Li  Li2  2  0.50000000  0.25000000  0.03703000  1.0
  Li  Li3  2  0.50000000  0.25000000  0.88892000  1.0
  Al  Al4  2  0.25000000  0.00000000  0.03703000  1.0
  Al  Al5  2  0.25000000  0.00000000  0.88892000  1.0
  Al  Al6  2  0.25000000  0.50000000  0.03703000  1.0
  Al  Al7  2  0.25000000  0.50000000  0.88892000  1.0
  Cu  Cu8  4  0.25000000  0.25000000  0.11108000  1.0
  Cu  Cu9  4  0.25000000  0.25000000  0.96297000  1.0
  Ge  Ge10  1  0.00000000  0.00000000  0.11108000  1.0
  Ge  Ge11  1  0.00000000  0.00000000  0.96297000  1.0
  Ge  Ge12  1  0.00000000  0.50000000  0.11108000  1.0
  Ge  Ge13  1  0.00000000  0.50000000  0.96297000  1.0
  Ge  Ge14  1  0.50000000  0.00000000  0.11108000  1.0
  Ge  Ge15  1  0.50000000  0.00000000  0.96297000  1.0
  Ge  Ge16  1  0.50000000  0.50000000  0.11108000  1.0
  Ge  Ge17  1  0.50000000  0.50000000  0.96297000  1.0
  C  C18  1  0.00000000  0.00000000  0.18497000  1.0
  O  O19  1  0.00000000  0.00000000  0.22970000  1.0
