# generated using pymatgen
data_Y4Ga4Cu4Pd4CO
_symmetry_space_group_name_H-M   Cmm2
_cell_length_a   9.32625761
_cell_length_b   9.32625761
_cell_length_c   24.94600000
_cell_angle_alpha   90.00000000
_cell_angle_beta   90.00000000
_cell_angle_gamma   90.00000000
_symmetry_Int_Tables_number   35
_chemical_formula_structural   Y4Ga4Cu4Pd4CO
_chemical_formula_sum   'Y8 Ga8 Cu8 Pd8 C2 O2'
_cell_volume   2169.78015540
_cell_formula_units_Z   2
loop_
 _symmetry_equiv_pos_site_id
 _symmetry_equiv_pos_as_xyz
  1  'x, y, z'
  2  '-x, -y, z'
  3  '-x, y, z'
  4  'x, -y, z'
  5  'x+1/2, y+1/2, z'
  6  '-x+1/2, -y+1/2, z'
  7  '-x+1/2, y+1/2, z'
  8  'x+1/2, -y+1/2, z'
loop_
 _atom_site_type_symbol
 _atom_site_label
 _atom_site_symmetry_multiplicity
 _atom_site_fract_x
 _atom_site_fract_y
 _atom_site_fract_z
 _atom_site_occupancy
  Y  Y0  4  0.25000000  0.25000000  0.09913000  1.0
  Y  Y1  2  0.00000000  0.00000000  0.96696000  1.0
  Y  Y2  2  0.00000000  0.50000000  0.96696000  1.0
  Ga  Ga3  4  0.25000000  0.25000000  0.96696000  1.0
  Ga  Ga4  2  0.00000000  0.00000000  0.09913000  1.0
  Ga  Ga5  2  0.00000000  0.50000000  0.09913000  1.0
  Cu  Cu6  4  0.00000000  0.25000000  0.03304000  1.0
  Cu  Cu7  4  0.25000000  0.00000000  0.90087000  1.0
  Pd  Pd8  4  0.00000000  0.25000000  0.90087000  1.0
  Pd  Pd9  4  0.25000000  0.00000000  0.03304000  1.0
  C  C10  2  0.00000000  0.50000000  0.17530000  1.0
  O  O11  2  0.00000000  0.50000000  0.22140000  1.0
