# generated using pymatgen
data_Zn16Ag8Au8CO
_symmetry_space_group_name_H-M   Pmm2
_cell_length_a   6.35005000
_cell_length_b   8.98033000
_cell_length_c   26.73520000
_cell_angle_alpha   90.00000000
_cell_angle_beta   90.00000000
_cell_angle_gamma   90.00000000
_symmetry_Int_Tables_number   25
_chemical_formula_structural   Zn16Ag8Au8CO
_chemical_formula_sum   'Zn16 Ag8 Au8 C1 O1'
_cell_volume   1524.58933776
_cell_formula_units_Z   1
loop_
 _symmetry_equiv_pos_site_id
 _symmetry_equiv_pos_as_xyz
  1  'x, y, z'
  2  '-x, -y, z'
  3  '-x, y, z'
  4  'x, -y, z'
loop_
 _atom_site_type_symbol
 _atom_site_label
 _atom_site_symmetry_multiplicity
 _atom_site_fract_x
 _atom_site_fract_y
 _atom_site_fract_z
 _atom_site_occupancy
  Zn  Zn0  4  0.23792000  0.25716000  0.13281000  1.0
  Zn  Zn1  4  0.24999000  0.25000000  0.95801000  1.0
  Zn  Zn2  2  0.23416000  0.50000000  0.04888000  1.0
  Zn  Zn3  2  0.24999000  0.00000000  0.87404000  1.0
  Zn  Zn4  2  0.25001000  0.50000000  0.87404000  1.0
  Zn  Zn5  2  0.25131000  0.00000000  0.04897000  1.0
  Ag  Ag6  2  0.50000000  0.25000000  0.87404000  1.0
  Ag  Ag7  2  0.50000000  0.25240000  0.04555000  1.0
  Ag  Ag8  1  0.00000000  0.00000000  0.13583000  1.0
  Ag  Ag9  1  0.00000000  0.00000000  0.95801000  1.0
  Ag  Ag10  1  0.00000000  0.50000000  0.14945000  1.0
  Ag  Ag11  1  0.00000000  0.50000000  0.95801000  1.0
  Au  Au12  2  0.00000000  0.24666000  0.03982000  1.0
  Au  Au13  2  0.00000000  0.25000000  0.87404000  1.0
  Au  Au14  1  0.50000000  0.00000000  0.13426000  1.0
  Au  Au15  1  0.50000000  0.00000000  0.95801000  1.0
  Au  Au16  1  0.50000000  0.50000000  0.12930000  1.0
  Au  Au17  1  0.50000000  0.50000000  0.95801000  1.0
  C  C18  1  0.50000000  0.00000000  0.21399000  1.0
  O  O19  1  0.50000000  0.00000000  0.25680000  1.0
