# generated using pymatgen
data_Y8Mg8C
_symmetry_space_group_name_H-M   'P 1'
_cell_length_a   7.58049000
_cell_length_b   7.58049000
_cell_length_c   25.68540000
_cell_angle_alpha   90.00000000
_cell_angle_beta   90.00000000
_cell_angle_gamma   90.00000000
_symmetry_Int_Tables_number   1
_chemical_formula_structural   Y8Mg8C
_chemical_formula_sum   'Y8 Mg8 C1'
_cell_volume   1475.98142415
_cell_formula_units_Z   1
loop_
 _symmetry_equiv_pos_site_id
 _symmetry_equiv_pos_as_xyz
  1  'x, y, z'
loop_
 _atom_site_type_symbol
 _atom_site_label
 _atom_site_symmetry_multiplicity
 _atom_site_fract_x
 _atom_site_fract_y
 _atom_site_fract_z
 _atom_site_occupancy
  Y  Y0  1  0.00000000  0.00000000  0.91038000  1.0
  Y  Y1  1  0.00000000  0.00000000  0.05794000  1.0
  Y  Y2  1  0.00000000  0.50000000  0.91038000  1.0
  Y  Y3  1  0.00000000  0.50000000  0.05794000  1.0
  Y  Y4  1  0.50000000  0.00000000  0.91038000  1.0
  Y  Y5  1  0.50000000  0.00000000  0.05794000  1.0
  Y  Y6  1  0.50000000  0.50000000  0.91038000  1.0
  Y  Y7  1  0.50000000  0.50000000  0.05794000  1.0
  Mg  Mg8  1  0.25000000  0.25000000  0.98416000  1.0
  Mg  Mg9  1  0.25000000  0.25000000  0.13172000  1.0
  Mg  Mg10  1  0.25000000  0.75000000  0.98416000  1.0
  Mg  Mg11  1  0.25000000  0.75000000  0.13172000  1.0
  Mg  Mg12  1  0.75000000  0.25000000  0.98416000  1.0
  Mg  Mg13  1  0.75000000  0.25000000  0.13172000  1.0
  Mg  Mg14  1  0.75000000  0.75000000  0.98416000  1.0
  Mg  Mg15  1  0.75000000  0.75000000  0.13172000  1.0
  C  C16  1  0.00000000  0.00000000  0.16287000  1.0
