# generated using pymatgen
data_Li4Ca4Ge4Pd4C
_symmetry_space_group_name_H-M   'P 1'
_cell_length_a   6.62107000
_cell_length_b   6.62107000
_cell_length_c   24.96580000
_cell_angle_alpha   90.00000000
_cell_angle_beta   90.00000000
_cell_angle_gamma   90.00000000
_symmetry_Int_Tables_number   1
_chemical_formula_structural   Li4Ca4Ge4Pd4C
_chemical_formula_sum   'Li4 Ca4 Ge4 Pd4 C1'
_cell_volume   1094.46491960
_cell_formula_units_Z   1
loop_
 _symmetry_equiv_pos_site_id
 _symmetry_equiv_pos_as_xyz
  1  'x, y, z'
loop_
 _atom_site_type_symbol
 _atom_site_label
 _atom_site_symmetry_multiplicity
 _atom_site_fract_x
 _atom_site_fract_y
 _atom_site_fract_z
 _atom_site_occupancy
  Li  Li0  1  0.50000000  0.50000000  0.02906000  1
  Li  Li1  1  1.00000000  0.50000000  0.90055000  1
  Li  Li2  1  0.50000000  0.00000000  0.90055000  1
  Li  Li3  1  1.00000000  0.00000000  0.03008000  1
  Ca  Ca4  1  0.75785500  0.75785500  0.11263000  1
  Ca  Ca5  1  0.25000000  0.75000000  0.96685000  1
  Ca  Ca6  1  0.75000000  0.25000000  0.96685000  1
  Ca  Ca7  1  0.24214500  0.24214500  0.11263000  1
  Ge  Ge8  1  0.29274500  0.70725500  0.09807000  1
  Ge  Ge9  1  0.75000000  0.75000000  0.96685000  1
  Ge  Ge10  1  0.25000000  0.25000000  0.96685000  1
  Ge  Ge11  1  0.70725500  0.29274500  0.09807000  1
  Pd  Pd12  1  0.50000000  0.00000000  0.03631000  1
  Pd  Pd13  1  1.00000000  0.00000000  0.90055000  1
  Pd  Pd14  1  0.50000000  0.50000000  0.90055000  1
  Pd  Pd15  1  1.00000000  0.50000000  0.03631000  1
  C  C16  1  0.50000000  0.50000000  0.11486000  1
