# generated using pymatgen
data_LiHfSnPd
_symmetry_space_group_name_H-M   Cmm2
_cell_length_a   9.44253425
_cell_length_b   9.44253425
_cell_length_c   25.00770000
_cell_angle_alpha   90.00000000
_cell_angle_beta   90.00000000
_cell_angle_gamma   90.00000000
_symmetry_Int_Tables_number   35
_chemical_formula_structural   LiHfSnPd
_chemical_formula_sum   'Li8 Hf8 Sn8 Pd8'
_cell_volume   2229.72286991
_cell_formula_units_Z   8
loop_
 _symmetry_equiv_pos_site_id
 _symmetry_equiv_pos_as_xyz
  1  'x, y, z'
  2  '-x, -y, z'
  3  '-x, y, z'
  4  'x, -y, z'
  5  'x+1/2, y+1/2, z'
  6  '-x+1/2, -y+1/2, z'
  7  '-x+1/2, y+1/2, z'
  8  'x+1/2, -y+1/2, z'
loop_
 _atom_site_type_symbol
 _atom_site_label
 _atom_site_symmetry_multiplicity
 _atom_site_fract_x
 _atom_site_fract_y
 _atom_site_fract_z
 _atom_site_occupancy
  Li  Li0  4  0.25000000  0.25000000  0.89988000  1.0
  Li  Li1  2  0.00000000  0.00000000  0.03386000  1.0
  Li  Li2  2  0.00000000  0.50000000  0.03427000  1.0
  Hf  Hf3  4  0.25000000  0.25000000  0.03760000  1.0
  Hf  Hf4  2  0.00000000  0.00000000  0.89988000  1.0
  Hf  Hf5  2  0.00000000  0.50000000  0.89988000  1.0
  Sn  Sn6  4  0.00000000  0.25000000  0.96663000  1.0
  Sn  Sn7  4  0.24952000  0.00000000  0.10676000  1.0
  Pd  Pd8  4  0.00000000  0.24987000  0.09076000  1.0
  Pd  Pd9  4  0.25000000  0.50000000  0.96663000  1.0
