# generated using pymatgen
data_Sc4In4Ge4Pd4C
_symmetry_space_group_name_H-M   'P 1'
_cell_length_a   9.28368000
_cell_length_b   5.71274000
_cell_length_c   24.27220000
_cell_angle_alpha   90.00000000
_cell_angle_beta   90.00000000
_cell_angle_gamma   90.00000000
_symmetry_Int_Tables_number   1
_chemical_formula_structural   Sc4In4Ge4Pd4C
_chemical_formula_sum   'Sc4 In4 Ge4 Pd4 C1'
_cell_volume   1287.28219707
_cell_formula_units_Z   1
loop_
 _symmetry_equiv_pos_site_id
 _symmetry_equiv_pos_as_xyz
  1  'x, y, z'
loop_
 _atom_site_type_symbol
 _atom_site_label
 _atom_site_symmetry_multiplicity
 _atom_site_fract_x
 _atom_site_fract_y
 _atom_site_fract_z
 _atom_site_occupancy
  Sc  Sc0  1  0.77323000  0.48377000  0.90822000  1.0
  Sc  Sc1  1  0.74999000  0.96198000  0.02934000  1.0
  Sc  Sc2  1  0.22677000  0.48377000  0.90822000  1.0
  Sc  Sc3  1  0.25001000  0.96198000  0.02934000  1.0
  In  In4  1  0.00000000  0.17717000  0.96439000  1.0
  In  In5  1  0.00000000  0.69297000  0.08801000  1.0
  In  In6  1  0.50000000  0.24420000  0.96480000  1.0
  In  In7  1  0.50000000  0.69297000  0.08801000  1.0
  Ge  Ge8  1  0.72122000  0.97666000  0.91008000  1.0
  Ge  Ge9  1  0.74999000  0.46198000  0.02934000  1.0
  Ge  Ge10  1  0.27878000  0.97666000  0.91008000  1.0
  Ge  Ge11  1  0.25001000  0.46198000  0.02934000  1.0
  Pd  Pd12  1  0.00000000  0.71773000  0.96912000  1.0
  Pd  Pd13  1  0.00000000  0.19297000  0.08801000  1.0
  Pd  Pd14  1  0.50000000  0.73912000  0.96213000  1.0
  Pd  Pd15  1  0.50000000  0.19297000  0.08801000  1.0
  C  C16  1  0.00000000  0.46422000  0.90292000  1.0
