# generated using pymatgen
data_Sc4In4Ge4Pd4C
_symmetry_space_group_name_H-M   Pm
_cell_length_a   5.71274000
_cell_length_b   9.28368000
_cell_length_c   24.27220000
_cell_angle_alpha   90.00000000
_cell_angle_beta   90.00000000
_cell_angle_gamma   90.00000000
_symmetry_Int_Tables_number   6
_chemical_formula_structural   Sc4In4Ge4Pd4C
_chemical_formula_sum   'Sc4 In4 Ge4 Pd4 C1'
_cell_volume   1287.28219707
_cell_formula_units_Z   1
loop_
 _symmetry_equiv_pos_site_id
 _symmetry_equiv_pos_as_xyz
  1  'x, y, z'
  2  'x, -y, z'
loop_
 _atom_site_type_symbol
 _atom_site_label
 _atom_site_symmetry_multiplicity
 _atom_site_fract_x
 _atom_site_fract_y
 _atom_site_fract_z
 _atom_site_occupancy
  Sc  Sc0  2  0.48377000  0.22677000  0.09178000  1.0
  Sc  Sc1  2  0.96198000  0.25001000  0.97066000  1.0
  In  In2  1  0.17717000  0.00000000  0.03561000  1.0
  In  In3  1  0.24420000  0.50000000  0.03520000  1.0
  In  In4  1  0.69297000  0.00000000  0.91199000  1.0
  In  In5  1  0.69297000  0.50000000  0.91199000  1.0
  Ge  Ge6  2  0.46198000  0.25001000  0.97066000  1.0
  Ge  Ge7  2  0.97666000  0.27878000  0.08992000  1.0
  Pd  Pd8  1  0.19297000  0.00000000  0.91199000  1.0
  Pd  Pd9  1  0.19297000  0.50000000  0.91199000  1.0
  Pd  Pd10  1  0.71773000  0.00000000  0.03088000  1.0
  Pd  Pd11  1  0.73912000  0.50000000  0.03787000  1.0
  C  C12  1  0.46422000  0.00000000  0.09708000  1.0
