# generated using pymatgen
data_Ga16Co16CO
_symmetry_space_group_name_H-M   Pmm2
_cell_length_a   5.76941000
_cell_length_b   8.15918000
_cell_length_c   26.11940000
_cell_angle_alpha   90.00000000
_cell_angle_beta   90.00000000
_cell_angle_gamma   90.00000000
_symmetry_Int_Tables_number   25
_chemical_formula_structural   Ga16Co16CO
_chemical_formula_sum   'Ga16 Co16 C1 O1'
_cell_volume   1229.53561615
_cell_formula_units_Z   1
loop_
 _symmetry_equiv_pos_site_id
 _symmetry_equiv_pos_as_xyz
  1  'x, y, z'
  2  '-x, -y, z'
  3  '-x, y, z'
  4  'x, -y, z'
loop_
 _atom_site_type_symbol
 _atom_site_label
 _atom_site_symmetry_multiplicity
 _atom_site_fract_x
 _atom_site_fract_y
 _atom_site_fract_z
 _atom_site_occupancy
  Ga  Ga0  4  0.25000000  0.25000000  0.11714000  1.0
  Ga  Ga1  4  0.25000000  0.25000000  0.96095000  1.0
  Ga  Ga2  2  0.25000000  0.00000000  0.03905000  1.0
  Ga  Ga3  2  0.25000000  0.00000000  0.88286000  1.0
  Ga  Ga4  2  0.25000000  0.50000000  0.03905000  1.0
  Ga  Ga5  2  0.25000000  0.50000000  0.88286000  1.0
  Co  Co6  2  0.00000000  0.25000000  0.03905000  1.0
  Co  Co7  2  0.00000000  0.25000000  0.88286000  1.0
  Co  Co8  2  0.50000000  0.25000000  0.03905000  1.0
  Co  Co9  2  0.50000000  0.25000000  0.88286000  1.0
  Co  Co10  1  0.00000000  0.00000000  0.11714000  1.0
  Co  Co11  1  0.00000000  0.00000000  0.96095000  1.0
  Co  Co12  1  0.00000000  0.50000000  0.11714000  1.0
  Co  Co13  1  0.00000000  0.50000000  0.96095000  1.0
  Co  Co14  1  0.50000000  0.00000000  0.11714000  1.0
  Co  Co15  1  0.50000000  0.00000000  0.96095000  1.0
  Co  Co16  1  0.50000000  0.50000000  0.11714000  1.0
  Co  Co17  1  0.50000000  0.50000000  0.96095000  1.0
  C  C18  1  0.00000000  0.00000000  0.18989000  1.0
  O  O19  1  0.00000000  0.00000000  0.23391000  1.0
