# generated using pymatgen
data_Sc8In8Ga8Pd8C
_symmetry_space_group_name_H-M   Pm
_cell_length_a   6.68246000
_cell_length_b   9.45042000
_cell_length_c   27.08780000
_cell_angle_alpha   90.00000000
_cell_angle_beta   90.00000000
_cell_angle_gamma   90.00000000
_symmetry_Int_Tables_number   6
_chemical_formula_structural   Sc8In8Ga8Pd8C
_chemical_formula_sum   'Sc8 In8 Ga8 Pd8 C1'
_cell_volume   1710.65019841
_cell_formula_units_Z   1
loop_
 _symmetry_equiv_pos_site_id
 _symmetry_equiv_pos_as_xyz
  1  'x, y, z'
  2  'x, -y, z'
loop_
 _atom_site_type_symbol
 _atom_site_label
 _atom_site_symmetry_multiplicity
 _atom_site_fract_x
 _atom_site_fract_y
 _atom_site_fract_z
 _atom_site_occupancy
  Sc  Sc0  2  0.74869000  0.22754000  0.13088000  1.0
  Sc  Sc1  2  0.75000000  0.25000000  0.95639000  1.0
  Sc  Sc2  1  0.25000000  0.00000000  0.86917000  1.0
  Sc  Sc3  1  0.25000000  0.50000000  0.86917000  1.0
  Sc  Sc4  1  0.25587000  0.00000000  0.04376000  1.0
  Sc  Sc5  1  0.25627000  0.50000000  0.04727000  1.0
  In  In6  2  0.25000000  0.25000000  0.95639000  1.0
  In  In7  2  0.25328000  0.27722000  0.14294000  1.0
  In  In8  1  0.74100000  0.50000000  0.04380000  1.0
  In  In9  1  0.74805000  0.00000000  0.04553000  1.0
  In  In10  1  0.75000000  0.00000000  0.86917000  1.0
  In  In11  1  0.75000000  0.50000000  0.86917000  1.0
  Ga  Ga12  2  0.00000000  0.25000000  0.86917000  1.0
  Ga  Ga13  2  0.01592000  0.25256000  0.04776000  1.0
  Ga  Ga14  1  0.44357000  0.00000000  0.14261000  1.0
  Ga  Ga15  1  0.50000000  0.00000000  0.95639000  1.0
  Ga  Ga16  1  0.50000000  0.50000000  0.95639000  1.0
  Ga  Ga17  1  0.55459000  0.50000000  0.14677000  1.0
  Pd  Pd18  2  0.49157000  0.25022000  0.04371000  1.0
  Pd  Pd19  2  0.50000000  0.25000000  0.86917000  1.0
  Pd  Pd20  1  0.00000000  0.00000000  0.95639000  1.0
  Pd  Pd21  1  0.00000000  0.50000000  0.95639000  1.0
  Pd  Pd22  1  0.06389000  0.00000000  0.13356000  1.0
  Pd  Pd23  1  0.97710000  0.50000000  0.12754000  1.0
  C  C24  1  0.73958000  0.00000000  0.14101000  1.0
