data_image0
_chemical_formula_structural       V8Ga8Fe16CO
_chemical_formula_sum              "V8 Ga8 Fe16 C1 O1"
_cell_length_a       5.73361
_cell_length_b       8.10855
_cell_length_c       26.0814
_cell_angle_alpha    90
_cell_angle_beta     90
_cell_angle_gamma    90

_space_group_name_H-M_alt    "P 1"
_space_group_IT_number       1

loop_
  _space_group_symop_operation_xyz
  'x, y, z'

loop_
  _atom_site_type_symbol
  _atom_site_label
  _atom_site_symmetry_multiplicity
  _atom_site_fract_x
  _atom_site_fract_y
  _atom_site_fract_z
  _atom_site_occupancy
  V   V1        1.0  0.00000  0.00000  0.88341  1.0000
  V   V2        1.0  0.50000  0.25000  0.96114  1.0000
  V   V3        1.0  0.50000  0.75000  0.96114  1.0000
  V   V4        1.0  0.00000  0.50000  0.88341  1.0000
  V   V5        1.0  0.99819  0.50000  0.03965  1.0000
  V   V6        1.0  0.50241  0.74914  0.11435  1.0000
  V   V7        1.0  0.50241  0.25087  0.11435  1.0000
  V   V8        1.0  0.99899  0.00000  0.04041  1.0000
  Ga  Ga1       1.0  0.00000  0.75000  0.96114  1.0000
  Ga  Ga2       1.0  0.50000  0.00000  0.88341  1.0000
  Ga  Ga3       1.0  0.00000  0.25000  0.96114  1.0000
  Ga  Ga4       1.0  0.50000  0.50000  0.88341  1.0000
  Ga  Ga5       1.0  0.00663  0.24637  0.12574  1.0000
  Ga  Ga6       1.0  0.50015  0.50000  0.03877  1.0000
  Ga  Ga7       1.0  0.00662  0.75362  0.12575  1.0000
  Ga  Ga8       1.0  0.49710  0.00000  0.03900  1.0000
  Fe  Fe1       1.0  0.25000  0.00000  0.96114  1.0000
  Fe  Fe2       1.0  0.75000  0.50000  0.96114  1.0000
  Fe  Fe3       1.0  0.75000  0.00000  0.96114  1.0000
  Fe  Fe4       1.0  0.25000  0.50000  0.96114  1.0000
  Fe  Fe5       1.0  0.75000  0.75000  0.88341  1.0000
  Fe  Fe6       1.0  0.25000  0.25000  0.88341  1.0000
  Fe  Fe7       1.0  0.25000  0.75000  0.88341  1.0000
  Fe  Fe8       1.0  0.75000  0.25000  0.88341  1.0000
  Fe  Fe9       1.0  0.24503  0.50000  0.11563  1.0000
  Fe  Fe10      1.0  0.75604  1.00000  0.11616  1.0000
  Fe  Fe11      1.0  0.75835  0.50001  0.11754  1.0000
  Fe  Fe12      1.0  0.26644  1.00000  0.11965  1.0000
  Fe  Fe13      1.0  0.75133  0.24963  0.04088  1.0000
  Fe  Fe14      1.0  0.24578  0.75047  0.04059  1.0000
  Fe  Fe15      1.0  0.24582  0.24953  0.04059  1.0000
  Fe  Fe16      1.0  0.75136  0.75037  0.04088  1.0000
  C   C1        1.0  0.35332  1.00000  0.18457  1.0000
  O   O1        1.0  0.39998  0.00000  0.22826  1.0000
