# generated using pymatgen
data_V8Ga8Fe16CO
_symmetry_space_group_name_H-M   Pm
_cell_length_a   5.73361000
_cell_length_b   8.10855000
_cell_length_c   26.08140000
_cell_angle_alpha   90.00000000
_cell_angle_beta   90.00000000
_cell_angle_gamma   90.00000000
_symmetry_Int_Tables_number   6
_chemical_formula_structural   V8Ga8Fe16CO
_chemical_formula_sum   'V8 Ga8 Fe16 C1 O1'
_cell_volume   1212.55723634
_cell_formula_units_Z   1
loop_
 _symmetry_equiv_pos_site_id
 _symmetry_equiv_pos_as_xyz
  1  'x, y, z'
  2  'x, -y, z'
loop_
 _atom_site_type_symbol
 _atom_site_label
 _atom_site_symmetry_multiplicity
 _atom_site_fract_x
 _atom_site_fract_y
 _atom_site_fract_z
 _atom_site_occupancy
  V  V0  2  0.50000000  0.25000000  0.96114000  1.0
  V  V1  2  0.50241000  0.25086000  0.11435000  1.0
  V  V2  1  0.00000000  0.00000000  0.88341000  1.0
  V  V3  1  0.00000000  0.50000000  0.88341000  1.0
  V  V4  1  0.99819000  0.50000000  0.03965000  1.0
  V  V5  1  0.99899000  0.00000000  0.04041000  1.0
  Ga  Ga6  2  0.00000000  0.25000000  0.96114000  1.0
  Ga  Ga7  2  0.00663000  0.24637000  0.12574000  1.0
  Ga  Ga8  1  0.49710000  0.00000000  0.03900000  1.0
  Ga  Ga9  1  0.50000000  0.00000000  0.88341000  1.0
  Ga  Ga10  1  0.50000000  0.50000000  0.88341000  1.0
  Ga  Ga11  1  0.50015000  0.50000000  0.03877000  1.0
  Fe  Fe12  2  0.24578000  0.24953000  0.04059000  1.0
  Fe  Fe13  2  0.25000000  0.25000000  0.88341000  1.0
  Fe  Fe14  2  0.75000000  0.25000000  0.88341000  1.0
  Fe  Fe15  2  0.75133000  0.24963000  0.04088000  1.0
  Fe  Fe16  1  0.24503000  0.50000000  0.11563000  1.0
  Fe  Fe17  1  0.25000000  0.00000000  0.96114000  1.0
  Fe  Fe18  1  0.25000000  0.50000000  0.96114000  1.0
  Fe  Fe19  1  0.26644000  0.00000000  0.11965000  1.0
  Fe  Fe20  1  0.75000000  0.00000000  0.96114000  1.0
  Fe  Fe21  1  0.75000000  0.50000000  0.96114000  1.0
  Fe  Fe22  1  0.75604000  0.00000000  0.11616000  1.0
  Fe  Fe23  1  0.75835000  0.50000000  0.11754000  1.0
  C  C24  1  0.35332000  0.00000000  0.18457000  1.0
  O  O25  1  0.39998000  0.00000000  0.22826000  1.0
