# generated using pymatgen
data_Li8Hf8In8Pd8C
_symmetry_space_group_name_H-M   Pm
_cell_length_a   6.51419000
_cell_length_b   9.21246000
_cell_length_c   26.90930000
_cell_angle_alpha   90.00000000
_cell_angle_beta   90.00000000
_cell_angle_gamma   90.00000000
_symmetry_Int_Tables_number   6
_chemical_formula_structural   Li8Hf8In8Pd8C
_chemical_formula_sum   'Li8 Hf8 In8 Pd8 C1'
_cell_volume   1614.87323727
_cell_formula_units_Z   1
loop_
 _symmetry_equiv_pos_site_id
 _symmetry_equiv_pos_as_xyz
  1  'x, y, z'
  2  'x, -y, z'
loop_
 _atom_site_type_symbol
 _atom_site_label
 _atom_site_symmetry_multiplicity
 _atom_site_fract_x
 _atom_site_fract_y
 _atom_site_fract_z
 _atom_site_occupancy
  Li  Li0  2  0.25000000  0.25000000  0.87162000  1.0
  Li  Li1  2  0.25202000  0.24858000  0.04776000  1.0
  Li  Li2  1  0.75000000  0.00000000  0.95721000  1.0
  Li  Li3  1  0.75000000  0.50000000  0.95721000  1.0
  Li  Li4  1  0.78689000  0.50000000  0.16564000  1.0
  Li  Li5  1  0.87206000  0.00000000  0.18123000  1.0
  Hf  Hf6  2  0.50000000  0.25000000  0.95721000  1.0
  Hf  Hf7  2  0.55146000  0.21044000  0.12998000  1.0
  Hf  Hf8  1  -0.00000000  0.50000000  0.87162000  1.0
  Hf  Hf9  1  0.00000000  0.00000000  0.87162000  1.0
  Hf  Hf10  1  0.97396000  0.00000000  0.05046000  1.0
  Hf  Hf11  1  0.99280000  0.50000000  0.04789000  1.0
  In  In12  2  -0.00000000  0.25000000  0.95721000  1.0
  In  In13  2  0.01988000  0.25936000  0.13653000  1.0
  In  In14  1  0.49512000  0.00000000  0.03972000  1.0
  In  In15  1  0.50000000  0.00000000  0.87162000  1.0
  In  In16  1  0.50000000  0.50000000  0.87162000  1.0
  In  In17  1  0.50808000  0.50000000  0.04402000  1.0
  Pd  Pd18  2  0.75000000  0.25000000  0.87162000  1.0
  Pd  Pd19  2  0.75335000  0.24930000  0.04155000  1.0
  Pd  Pd20  1  0.24128000  0.00000000  0.12451000  1.0
  Pd  Pd21  1  0.25000000  0.00000000  0.95721000  1.0
  Pd  Pd22  1  0.25000000  0.50000000  0.95721000  1.0
  Pd  Pd23  1  0.26923000  0.50000000  0.12607000  1.0
  C  C24  1  0.58124000  0.00000000  0.15427000  1.0
