# generated using pymatgen
data_Li4Mg4Ag4Ge4C
_symmetry_space_group_name_H-M   'P 1'
_cell_length_a   6.50572000
_cell_length_b   6.50572000
_cell_length_c   24.87930000
_cell_angle_alpha   90.00000000
_cell_angle_beta   90.00000000
_cell_angle_gamma   90.00000000
_symmetry_Int_Tables_number   1
_chemical_formula_structural   Li4Mg4Ag4Ge4C
_chemical_formula_sum   'Li4 Mg4 Ag4 Ge4 C1'
_cell_volume   1053.00126376
_cell_formula_units_Z   1
loop_
 _symmetry_equiv_pos_site_id
 _symmetry_equiv_pos_as_xyz
  1  'x, y, z'
loop_
 _atom_site_type_symbol
 _atom_site_label
 _atom_site_symmetry_multiplicity
 _atom_site_fract_x
 _atom_site_fract_y
 _atom_site_fract_z
 _atom_site_occupancy
  Li  Li0  1  0.50000000  0.00000000  0.03781000  1
  Li  Li1  1  0.00000000  0.00000000  0.90194000  1
  Li  Li2  1  0.50000000  0.50000000  0.90194000  1
  Li  Li3  1  1.00000000  0.50000000  0.03781000  1
  Mg  Mg4  1  0.50000000  0.50000000  0.02986000  1
  Mg  Mg5  1  1.00000000  0.50000000  0.90194000  1
  Mg  Mg6  1  0.50000000  0.00000000  0.90194000  1
  Mg  Mg7  1  0.00000000  0.00000000  0.03785000  1
  Ag  Ag8  1  0.75579000  0.24421000  0.10353000  1
  Ag  Ag9  1  0.25000000  0.25000000  0.96731000  1
  Ag  Ag10  1  0.75000000  0.75000000  0.96731000  1
  Ag  Ag11  1  0.24421000  0.75579000  0.10353000  1
  Ge  Ge12  1  0.28967500  0.28967500  0.12077000  1
  Ge  Ge13  1  0.75000000  0.25000000  0.96731000  1
  Ge  Ge14  1  0.25000000  0.75000000  0.96731000  1
  Ge  Ge15  1  0.71032500  0.71032500  0.12077000  1
  C  C16  1  0.50000000  0.50000000  0.11884000  1
