# generated using pymatgen
data_Sc8In8Au16CO
_symmetry_space_group_name_H-M   Pm
_cell_length_a   9.69405000
_cell_length_b   6.85473000
_cell_length_c   27.27050000
_cell_angle_alpha   90.00000000
_cell_angle_beta   90.00000000
_cell_angle_gamma   90.00000000
_symmetry_Int_Tables_number   6
_chemical_formula_structural   Sc8In8Au16CO
_chemical_formula_sum   'Sc8 In8 Au16 C1 O1'
_cell_volume   1812.12732542
_cell_formula_units_Z   1
loop_
 _symmetry_equiv_pos_site_id
 _symmetry_equiv_pos_as_xyz
  1  'x, y, z'
  2  'x, -y, z'
loop_
 _atom_site_type_symbol
 _atom_site_label
 _atom_site_symmetry_multiplicity
 _atom_site_fract_x
 _atom_site_fract_y
 _atom_site_fract_z
 _atom_site_occupancy
  Sc  Sc0  1  0.00000000  0.00000000  0.86670000  1.0
  Sc  Sc1  1  0.00266000  0.00000000  0.05006000  1.0
  Sc  Sc2  1  0.24999000  0.50000000  0.12768000  1.0
  Sc  Sc3  1  0.25000000  0.50000000  0.95557000  1.0
  Sc  Sc4  1  0.49732000  0.00000000  0.05006000  1.0
  Sc  Sc5  1  0.50000000  0.00000000  0.86670000  1.0
  Sc  Sc6  1  0.75000000  0.50000000  0.12833000  1.0
  Sc  Sc7  1  0.75000000  0.50000000  0.95557000  1.0
  In  In8  1  0.00000000  0.50000000  0.86670000  1.0
  In  In9  1  0.24998000  0.00000000  0.14163000  1.0
  In  In10  1  0.25000000  0.00000000  0.95557000  1.0
  In  In11  1  0.50000000  0.50000000  0.86670000  1.0
  In  In12  1  0.50191000  0.50000000  0.04279000  1.0
  In  In13  1  0.75000000  0.00000000  0.95557000  1.0
  In  In14  1  0.75001000  0.00000000  0.14419000  1.0
  In  In15  1  0.99808000  0.50000000  0.04279000  1.0
  Au  Au16  2  0.00000000  0.25001000  0.95557000  1.0
  Au  Au17  2  0.00026000  0.26609000  0.13632000  1.0
  Au  Au18  2  0.25000000  0.24406000  0.04486000  1.0
  Au  Au19  2  0.25000000  0.25001000  0.86670000  1.0
  Au  Au20  2  0.49974000  0.26609000  0.13632000  1.0
  Au  Au21  2  0.50000000  0.24999000  0.95557000  1.0
  Au  Au22  2  0.75000000  0.23786000  0.04630000  1.0
  Au  Au23  2  0.75000000  0.24999000  0.86670000  1.0
  C  C24  1  0.24985000  0.00000000  0.28371000  1.0
  O  O25  1  0.25002000  0.00000000  0.32532000  1.0
