# generated using pymatgen
data_Li4Y4Sn4Ge4CO
_symmetry_space_group_name_H-M   Pm
_cell_length_a   6.05842000
_cell_length_b   9.43388000
_cell_length_c   24.54360000
_cell_angle_alpha   90.00000000
_cell_angle_beta   90.00000000
_cell_angle_gamma   90.00000000
_symmetry_Int_Tables_number   6
_chemical_formula_structural   Li4Y4Sn4Ge4CO
_chemical_formula_sum   'Li4 Y4 Sn4 Ge4 C1 O1'
_cell_volume   1402.77491026
_cell_formula_units_Z   1
loop_
 _symmetry_equiv_pos_site_id
 _symmetry_equiv_pos_as_xyz
  1  'x, y, z'
  2  'x, -y, z'
loop_
 _atom_site_type_symbol
 _atom_site_label
 _atom_site_symmetry_multiplicity
 _atom_site_fract_x
 _atom_site_fract_y
 _atom_site_fract_z
 _atom_site_occupancy
  Li  Li0  1  0.27555000  0.00000000  0.10333000  1.0
  Li  Li1  1  0.27643000  0.50000000  0.09834000  1.0
  Li  Li2  1  0.75236000  0.00000000  0.96915000  1.0
  Li  Li3  1  0.75236000  0.50000000  0.96915000  1.0
  Y  Y4  2  0.00870000  0.24965000  0.02953000  1.0
  Y  Y5  2  0.50000000  0.25000000  0.90744000  1.0
  Sn  Sn6  1  0.25236000  0.00000000  0.96915000  1.0
  Sn  Sn7  1  0.25236000  0.50000000  0.96915000  1.0
  Sn  Sn8  1  0.74237000  0.00000000  0.09053000  1.0
  Sn  Sn9  1  0.74369000  0.50000000  0.09191000  1.0
  Ge  Ge10  2  0.00000000  0.25000000  0.90744000  1.0
  Ge  Ge11  2  0.50711000  0.25017000  0.04563000  1.0
  C  C12  1  0.26799000  0.00000000  0.18959000  1.0
  O  O13  1  0.26696000  0.00000000  0.23600000  1.0
