# generated using pymatgen
data_Ti8Ni16Sn8C
_symmetry_space_group_name_H-M   Pm
_cell_length_a   6.14888000
_cell_length_b   8.69583000
_cell_length_c   26.52190000
_cell_angle_alpha   90.00000000
_cell_angle_beta   90.00000000
_cell_angle_gamma   90.00000000
_symmetry_Int_Tables_number   6
_chemical_formula_structural   Ti8Ni16Sn8C
_chemical_formula_sum   'Ti8 Ni16 Sn8 C1'
_cell_volume   1418.11578659
_cell_formula_units_Z   1
loop_
 _symmetry_equiv_pos_site_id
 _symmetry_equiv_pos_as_xyz
  1  'x, y, z'
  2  'x, -y, z'
loop_
 _atom_site_type_symbol
 _atom_site_label
 _atom_site_symmetry_multiplicity
 _atom_site_fract_x
 _atom_site_fract_y
 _atom_site_fract_z
 _atom_site_occupancy
  Ti  Ti0  2  0.00000000  0.25001000  0.87705000  1.0
  Ti  Ti1  2  0.99373000  0.25502000  0.04085000  1.0
  Ti  Ti2  1  0.50000000  0.00000000  0.95902000  1.0
  Ti  Ti3  1  0.50000000  0.50000000  0.95902000  1.0
  Ti  Ti4  1  0.50145000  0.50000000  0.12011000  1.0
  Ti  Ti5  1  0.52884000  0.00000000  0.11649000  1.0
  Ni  Ni6  2  0.20687000  0.22278000  0.11961000  1.0
  Ni  Ni7  2  0.25000000  0.25001000  0.95902000  1.0
  Ni  Ni8  2  0.75000000  0.24999000  0.95902000  1.0
  Ni  Ni9  2  0.75712000  0.25249000  0.11715000  1.0
  Ni  Ni10  1  0.19492000  0.00000000  0.05486000  1.0
  Ni  Ni11  1  0.25000000  0.00000000  0.87705000  1.0
  Ni  Ni12  1  0.25000000  0.50000000  0.87705000  1.0
  Ni  Ni13  1  0.26679000  0.50000000  0.04166000  1.0
  Ni  Ni14  1  0.73584000  0.50000000  0.04369000  1.0
  Ni  Ni15  1  0.75000000  0.00000000  0.87705000  1.0
  Ni  Ni16  1  0.75000000  0.50000000  0.87705000  1.0
  Ni  Ni17  1  0.77490000  0.00000000  0.04264000  1.0
  Sn  Sn18  2  0.49128000  0.24071000  0.04057000  1.0
  Sn  Sn19  2  0.50000000  0.25001000  0.87705000  1.0
  Sn  Sn20  1  0.00000000  0.00000000  0.95902000  1.0
  Sn  Sn21  1  0.00000000  0.50000000  0.95902000  1.0
  Sn  Sn22  1  0.01427000  0.50000000  0.13009000  1.0
  Sn  Sn23  1  0.91308000  0.00000000  0.17157000  1.0
  C  C24  1  0.22163000  0.00000000  0.13266000  1.0
