# generated using pymatgen
data_ScInGaPd
_symmetry_space_group_name_H-M   'P 1'
_cell_length_a   6.68246000
_cell_length_b   6.68246000
_cell_length_c   25.01180000
_cell_angle_alpha   90.00000000
_cell_angle_beta   90.00000000
_cell_angle_gamma   90.00000000
_symmetry_Int_Tables_number   1
_chemical_formula_structural   ScInGaPd
_chemical_formula_sum   'Sc4 In4 Ga4 Pd4'
_cell_volume   1116.90872350
_cell_formula_units_Z   4
loop_
 _symmetry_equiv_pos_site_id
 _symmetry_equiv_pos_as_xyz
  1  'x, y, z'
loop_
 _atom_site_type_symbol
 _atom_site_label
 _atom_site_symmetry_multiplicity
 _atom_site_fract_x
 _atom_site_fract_y
 _atom_site_fract_z
 _atom_site_occupancy
  Sc  Sc0  1  0.24994000  0.24999000  0.96146000  1
  Sc  Sc1  1  0.74999500  0.25000500  0.10019000  1
  Sc  Sc2  1  0.24999500  0.75000500  0.10019000  1
  Sc  Sc3  1  0.75001000  0.75006000  0.96146000  1
  In  In4  1  0.25004500  0.74995500  0.96384000  1
  In  In5  1  0.75000000  0.75001000  0.10019000  1
  In  In6  1  0.24999000  0.25000000  0.10019000  1
  In  In7  1  0.74997500  0.25002500  0.96382000  1
  Ga  Ga8  1  0.00008500  0.99991500  0.88739000  1
  Ga  Ga9  1  0.50000000  0.00001000  0.03340000  1
  Ga  Ga10  1  0.99999000  0.50000000  0.03340000  1
  Ga  Ga11  1  0.49996500  0.50003500  0.88739000  1
  Pd  Pd12  1  0.49995000  0.00001000  0.90429000  1
  Pd  Pd13  1  0.99999500  0.00000500  0.03340000  1
  Pd  Pd14  1  0.49999500  0.50000500  0.03340000  1
  Pd  Pd15  1  0.99999000  0.50005000  0.90429000  1
