# generated using pymatgen
data_Be16Rh16C
_symmetry_space_group_name_H-M   'P 1'
_cell_length_a   5.57428000
_cell_length_b   7.88322000
_cell_length_c   25.91240000
_cell_angle_alpha   90.00000000
_cell_angle_beta   90.00000000
_cell_angle_gamma   90.00000000
_symmetry_Int_Tables_number   1
_chemical_formula_structural   Be16Rh16C
_chemical_formula_sum   'Be16 Rh16 C1'
_cell_volume   1138.67573418
_cell_formula_units_Z   1
loop_
 _symmetry_equiv_pos_site_id
 _symmetry_equiv_pos_as_xyz
  1  'x, y, z'
loop_
 _atom_site_type_symbol
 _atom_site_label
 _atom_site_symmetry_multiplicity
 _atom_site_fract_x
 _atom_site_fract_y
 _atom_site_fract_z
 _atom_site_occupancy
  Be  Be0  1  0.75000000  0.75000000  0.88592000  1.0
  Be  Be1  1  0.75000000  0.00000000  0.96197000  1.0
  Be  Be2  1  0.75080000  0.74877000  0.03885000  1.0
  Be  Be3  1  0.70468000  0.00000000  0.11152000  1.0
  Be  Be4  1  0.75000000  0.25000000  0.88592000  1.0
  Be  Be5  1  0.75000000  0.50000000  0.96197000  1.0
  Be  Be6  1  0.75080000  0.25123000  0.03885000  1.0
  Be  Be7  1  0.75806000  0.50000000  0.10810000  1.0
  Be  Be8  1  0.25000000  0.75000000  0.88592000  1.0
  Be  Be9  1  0.25000000  0.00000000  0.96197000  1.0
  Be  Be10  1  0.24920000  0.74877000  0.03885000  1.0
  Be  Be11  1  0.29532000  0.00000000  0.11152000  1.0
  Be  Be12  1  0.25000000  0.25000000  0.88592000  1.0
  Be  Be13  1  0.25000000  0.50000000  0.96197000  1.0
  Be  Be14  1  0.24920000  0.25123000  0.03885000  1.0
  Be  Be15  1  0.24194000  0.50000000  0.10810000  1.0
  Rh  Rh16  1  0.00000000  0.00000000  0.88592000  1.0
  Rh  Rh17  1  0.00000000  0.75000000  0.96197000  1.0
  Rh  Rh18  1  0.00000000  0.00000000  0.03744000  1.0
  Rh  Rh19  1  0.00000000  0.23367000  0.11743000  1.0
  Rh  Rh20  1  0.00000000  0.50000000  0.88592000  1.0
  Rh  Rh21  1  0.00000000  0.25000000  0.96197000  1.0
  Rh  Rh22  1  0.00000000  0.50000000  0.03889000  1.0
  Rh  Rh23  1  0.00000000  0.76633000  0.11743000  1.0
  Rh  Rh24  1  0.50000000  0.00000000  0.88592000  1.0
  Rh  Rh25  1  0.50000000  0.75000000  0.96197000  1.0
  Rh  Rh26  1  0.50000000  0.00000000  0.03667000  1.0
  Rh  Rh27  1  0.50000000  0.26745000  0.11388000  1.0
  Rh  Rh28  1  0.50000000  0.50000000  0.88592000  1.0
  Rh  Rh29  1  0.50000000  0.25000000  0.96197000  1.0
  Rh  Rh30  1  0.50000000  0.50000000  0.03535000  1.0
  Rh  Rh31  1  0.50000000  0.73255000  0.11388000  1.0
  C  C32  1  0.00000000  0.00000000  0.13646000  1.0
