# generated using pymatgen
data_Li4Cu4Ge4Pd4CO
_symmetry_space_group_name_H-M   Cm
_cell_length_a   8.54511675
_cell_length_b   8.54511675
_cell_length_c   24.53170000
_cell_angle_alpha   90.00000000
_cell_angle_beta   90.00000000
_cell_angle_gamma   90.00000000
_symmetry_Int_Tables_number   8
_chemical_formula_structural   Li4Cu4Ge4Pd4CO
_chemical_formula_sum   'Li8 Cu8 Ge8 Pd8 C2 O2'
_cell_volume   1791.28069961
_cell_formula_units_Z   2
loop_
 _symmetry_equiv_pos_site_id
 _symmetry_equiv_pos_as_xyz
  1  'x, y, z'
  2  'x, -y, z'
  3  'x+1/2, y+1/2, z'
  4  'x+1/2, -y+1/2, z'
loop_
 _atom_site_type_symbol
 _atom_site_label
 _atom_site_symmetry_multiplicity
 _atom_site_fract_x
 _atom_site_fract_y
 _atom_site_fract_z
 _atom_site_occupancy
  Li  Li0  4  0.00000000  0.25000000  0.96921000  1.0
  Li  Li1  2  0.25019000  0.50000000  0.10399000  1.0
  Li  Li2  2  0.25022000  0.00000000  0.10315000  1.0
  Cu  Cu3  4  0.24994500  0.24956500  0.03314000  1.0
  Cu  Cu4  2  0.00000000  0.00000000  0.90764000  1.0
  Cu  Cu5  2  0.00000000  0.50000000  0.90764000  1.0
  Ge  Ge6  4  0.49993000  0.25024000  0.09045000  1.0
  Ge  Ge7  2  0.25000000  0.50000000  0.96921000  1.0
  Ge  Ge8  2  0.25000000  0.00000000  0.96921000  1.0
  Pd  Pd9  4  0.25000000  0.25000000  0.90764000  1.0
  Pd  Pd10  2  0.00044500  0.00000000  0.03440000  1.0
  Pd  Pd11  2  0.49963000  0.00000000  0.03454000  1.0
  C  C12  2  0.25052000  0.50000000  0.19008000  1.0
  O  O13  2  0.25043000  0.50000000  0.23650000  1.0
