# generated using pymatgen
data_Y8Mn8In8Pd8CO
_symmetry_space_group_name_H-M   'P 1'
_cell_length_a   6.85874000
_cell_length_b   9.69972000
_cell_length_c   27.27480000
_cell_angle_alpha   90.00000000
_cell_angle_beta   90.00000000
_cell_angle_gamma   90.00000000
_symmetry_Int_Tables_number   1
_chemical_formula_structural   Y8Mn8In8Pd8CO
_chemical_formula_sum   'Y8 Mn8 In8 Pd8 C1 O1'
_cell_volume   1814.53400918
_cell_formula_units_Z   1
loop_
 _symmetry_equiv_pos_site_id
 _symmetry_equiv_pos_as_xyz
  1  'x, y, z'
loop_
 _atom_site_type_symbol
 _atom_site_label
 _atom_site_symmetry_multiplicity
 _atom_site_fract_x
 _atom_site_fract_y
 _atom_site_fract_z
 _atom_site_occupancy
  Y  Y0  1  0.00000000  0.25000000  0.95555000  1.0
  Y  Y1  1  0.00000000  0.75000000  0.95555000  1.0
  Y  Y2  1  0.50000000  0.50000000  0.86664000  1.0
  Y  Y3  1  0.50000000  0.00000000  0.86664000  1.0
  Y  Y4  1  0.96072000  0.79727000  0.14507000  1.0
  Y  Y5  1  0.96077000  0.20254000  0.14514000  1.0
  Y  Y6  1  0.51869000  0.00010000  0.04560000  1.0
  Y  Y7  1  0.48954000  0.49994000  0.04589000  1.0
  Mn  Mn8  1  0.75000000  0.00000000  0.95555000  1.0
  Mn  Mn9  1  0.75000000  0.50000000  0.95555000  1.0
  Mn  Mn10  1  0.25000000  0.25000000  0.86664000  1.0
  Mn  Mn11  1  0.25000000  0.75000000  0.86664000  1.0
  Mn  Mn12  1  0.77609000  0.49985000  0.13344000  1.0
  Mn  Mn13  1  0.59360000  0.99977000  0.16910000  1.0
  Mn  Mn14  1  0.21705000  0.75184000  0.05528000  1.0
  Mn  Mn15  1  0.21675000  0.24827000  0.05535000  1.0
  In  In16  1  0.00000000  0.00000000  0.86664000  1.0
  In  In17  1  0.00000000  0.50000000  0.86664000  1.0
  In  In18  1  0.50000000  0.75000000  0.95555000  1.0
  In  In19  1  0.50000000  0.25000000  0.95555000  1.0
  In  In20  1  0.99164000  0.50011000  0.04008000  1.0
  In  In21  1  0.98911000  0.00001000  0.04255000  1.0
  In  In22  1  0.48592000  0.26731000  0.13534000  1.0
  In  In23  1  0.48579000  0.73238000  0.13534000  1.0
  Pd  Pd24  1  0.25000000  0.00000000  0.95555000  1.0
  Pd  Pd25  1  0.25000000  0.50000000  0.95555000  1.0
  Pd  Pd26  1  0.75000000  0.25000000  0.86664000  1.0
  Pd  Pd27  1  0.75000000  0.75000000  0.86664000  1.0
  Pd  Pd28  1  0.19378000  0.49976000  0.12635000  1.0
  Pd  Pd29  1  0.26574000  0.99988000  0.11901000  1.0
  Pd  Pd30  1  0.76309000  0.74427000  0.04631000  1.0
  Pd  Pd31  1  0.76330000  0.25583000  0.04632000  1.0
  C  C32  1  0.83193000  0.99986000  0.19351000  1.0
  O  O33  1  0.01522000  0.00007000  0.20114000  1.0
