data_image0
_chemical_formula_structural       Li8In8Pd8Au8C
_chemical_formula_sum              "Li8 In8 Pd8 Au8 C1"
_cell_length_a       7.53916
_cell_length_b       8.29976
_cell_length_c       26.6734
_cell_angle_alpha    90
_cell_angle_beta     90
_cell_angle_gamma    90

_space_group_name_H-M_alt    "P 1"
_space_group_IT_number       1

loop_
  _space_group_symop_operation_xyz
  'x, y, z'

loop_
  _atom_site_type_symbol
  _atom_site_label
  _atom_site_symmetry_multiplicity
  _atom_site_fract_x
  _atom_site_fract_y
  _atom_site_fract_z
  _atom_site_occupancy
  Li  Li1       1.0  0.28368  0.25000  0.15054  1.0000
  Li  Li2       1.0  0.25000  0.25000  0.95830  1.0000
  Li  Li3       1.0  0.23622  0.75000  0.13631  1.0000
  Li  Li4       1.0  0.25000  0.75000  0.95830  1.0000
  Li  Li5       1.0  0.71632  0.25000  0.15054  1.0000
  Li  Li6       1.0  0.75000  0.25000  0.95830  1.0000
  Li  Li7       1.0  0.76378  0.75000  0.13631  1.0000
  Li  Li8       1.0  0.75000  0.75000  0.95830  1.0000
  In  In1       1.0  0.24816  0.99876  0.04483  1.0000
  In  In2       1.0  0.25000  0.00000  0.87491  1.0000
  In  In3       1.0  0.24816  0.50124  0.04483  1.0000
  In  In4       1.0  0.25000  0.50000  0.87491  1.0000
  In  In5       1.0  0.75184  0.99876  0.04483  1.0000
  In  In6       1.0  0.75000  0.00000  0.87491  1.0000
  In  In7       1.0  0.75184  0.50124  0.04483  1.0000
  In  In8       1.0  0.75000  0.50000  0.87491  1.0000
  Pd  Pd1       1.0  1.00000  0.25000  0.03526  1.0000
  Pd  Pd2       1.0  0.00000  0.25000  0.87491  1.0000
  Pd  Pd3       1.0  1.00000  0.75000  0.05802  1.0000
  Pd  Pd4       1.0  0.00000  0.75000  0.87491  1.0000
  Pd  Pd5       1.0  0.50000  0.25000  0.03721  1.0000
  Pd  Pd6       1.0  0.50000  0.25000  0.87491  1.0000
  Pd  Pd7       1.0  0.50000  0.75000  0.03787  1.0000
  Pd  Pd8       1.0  0.50000  0.75000  0.87491  1.0000
  Au  Au1       1.0  1.00000  0.03221  0.12638  1.0000
  Au  Au2       1.0  0.00000  0.00000  0.95830  1.0000
  Au  Au3       1.0  0.00000  0.46779  0.12638  1.0000
  Au  Au4       1.0  0.00000  0.50000  0.95830  1.0000
  Au  Au5       1.0  0.50000  0.99192  0.12738  1.0000
  Au  Au6       1.0  0.50000  0.00000  0.95830  1.0000
  Au  Au7       1.0  0.50000  0.50808  0.12738  1.0000
  Au  Au8       1.0  0.50000  0.50000  0.95830  1.0000
  C   C1        1.0  1.00000  0.25000  0.16037  1.0000
