# generated using pymatgen
data_Li4Al4Ge4Pd4C
_symmetry_space_group_name_H-M   'P 1'
_cell_length_a   8.01128000
_cell_length_b   5.49423000
_cell_length_c   24.10550000
_cell_angle_alpha   90.00000000
_cell_angle_beta   90.00000000
_cell_angle_gamma   90.00000000
_symmetry_Int_Tables_number   1
_chemical_formula_structural   Li4Al4Ge4Pd4C
_chemical_formula_sum   'Li4 Al4 Ge4 Pd4 C1'
_cell_volume   1061.02322642
_cell_formula_units_Z   1
loop_
 _symmetry_equiv_pos_site_id
 _symmetry_equiv_pos_as_xyz
  1  'x, y, z'
loop_
 _atom_site_type_symbol
 _atom_site_label
 _atom_site_symmetry_multiplicity
 _atom_site_fract_x
 _atom_site_fract_y
 _atom_site_fract_z
 _atom_site_occupancy
  Li  Li0  1  0.00000000  0.74176000  0.97949000  1.0
  Li  Li1  1  0.00000000  0.18570000  0.08516000  1.0
  Li  Li2  1  0.50000000  0.74447000  0.96364000  1.0
  Li  Li3  1  0.50000000  0.18570000  0.08516000  1.0
  Al  Al4  1  0.78816000  0.00870000  0.91184000  1.0
  Al  Al5  1  0.74997000  0.45713000  0.02839000  1.0
  Al  Al6  1  0.21184000  0.00870000  0.91184000  1.0
  Al  Al7  1  0.25003000  0.45713000  0.02839000  1.0
  Ge  Ge8  1  0.79256000  0.48817000  0.90808000  1.0
  Ge  Ge9  1  0.74997000  0.95713000  0.02839000  1.0
  Ge  Ge10  1  0.20744000  0.48817000  0.90808000  1.0
  Ge  Ge11  1  0.25003000  0.95713000  0.02839000  1.0
  Pd  Pd12  1  0.00000000  0.25901000  0.98571000  1.0
  Pd  Pd13  1  0.00000000  0.68570000  0.08516000  1.0
  Pd  Pd14  1  0.50000000  0.24112000  0.93094000  1.0
  Pd  Pd15  1  0.50000000  0.68570000  0.08516000  1.0
  C  C16  1  0.00000000  0.22129000  0.89477000  1.0
