# generated using pymatgen
data_Li4Al4Ge4Pd4C
_symmetry_space_group_name_H-M   Pm
_cell_length_a   5.49423000
_cell_length_b   8.01128000
_cell_length_c   24.10550000
_cell_angle_alpha   90.00000000
_cell_angle_beta   90.00000000
_cell_angle_gamma   90.00000000
_symmetry_Int_Tables_number   6
_chemical_formula_structural   Li4Al4Ge4Pd4C
_chemical_formula_sum   'Li4 Al4 Ge4 Pd4 C1'
_cell_volume   1061.02322642
_cell_formula_units_Z   1
loop_
 _symmetry_equiv_pos_site_id
 _symmetry_equiv_pos_as_xyz
  1  'x, y, z'
  2  'x, -y, z'
loop_
 _atom_site_type_symbol
 _atom_site_label
 _atom_site_symmetry_multiplicity
 _atom_site_fract_x
 _atom_site_fract_y
 _atom_site_fract_z
 _atom_site_occupancy
  Li  Li0  1  0.18570000  0.00000000  0.91484000  1.0
  Li  Li1  1  0.18570000  0.50000000  0.91484000  1.0
  Li  Li2  1  0.74176000  0.00000000  0.02051000  1.0
  Li  Li3  1  0.74447000  0.50000000  0.03636000  1.0
  Al  Al4  2  0.00870000  0.21184000  0.08816000  1.0
  Al  Al5  2  0.45713000  0.25003000  0.97161000  1.0
  Ge  Ge6  2  0.48817000  0.20744000  0.09192000  1.0
  Ge  Ge7  2  0.95713000  0.25003000  0.97161000  1.0
  Pd  Pd8  1  0.24112000  0.50000000  0.06906000  1.0
  Pd  Pd9  1  0.25901000  0.00000000  0.01429000  1.0
  Pd  Pd10  1  0.68570000  0.00000000  0.91484000  1.0
  Pd  Pd11  1  0.68570000  0.50000000  0.91484000  1.0
  C  C12  1  0.22129000  0.00000000  0.10523000  1.0
