# generated using pymatgen
data_Zn16Cu8Au8C
_symmetry_space_group_name_H-M   Pmm2
_cell_length_a   6.22913000
_cell_length_b   8.80931000
_cell_length_c   26.60700000
_cell_angle_alpha   90.00000000
_cell_angle_beta   90.00000000
_cell_angle_gamma   90.00000000
_symmetry_Int_Tables_number   25
_chemical_formula_structural   Zn16Cu8Au8C
_chemical_formula_sum   'Zn16 Cu8 Au8 C1'
_cell_volume   1460.04148989
_cell_formula_units_Z   1
loop_
 _symmetry_equiv_pos_site_id
 _symmetry_equiv_pos_as_xyz
  1  'x, y, z'
  2  '-x, -y, z'
  3  '-x, y, z'
  4  'x, -y, z'
loop_
 _atom_site_type_symbol
 _atom_site_label
 _atom_site_symmetry_multiplicity
 _atom_site_fract_x
 _atom_site_fract_y
 _atom_site_fract_z
 _atom_site_occupancy
  Zn  Zn0  4  0.24727000  0.25026000  0.04285000  1.0
  Zn  Zn1  4  0.25000000  0.25000000  0.87584000  1.0
  Zn  Zn2  2  0.19319000  0.00000000  0.14020000  1.0
  Zn  Zn3  2  0.25000000  0.00000000  0.95861000  1.0
  Zn  Zn4  2  0.25000000  0.50000000  0.95861000  1.0
  Zn  Zn5  2  0.29053000  0.50000000  0.13454000  1.0
  Cu  Cu6  2  0.50000000  0.22786000  0.12469000  1.0
  Cu  Cu7  2  0.50000000  0.25000000  0.95861000  1.0
  Cu  Cu8  1  0.00000000  0.00000000  0.03852000  1.0
  Cu  Cu9  1  0.00000000  0.00000000  0.87584000  1.0
  Cu  Cu10  1  0.00000000  0.50000000  0.04412000  1.0
  Cu  Cu11  1  0.00000000  0.50000000  0.87584000  1.0
  Au  Au12  2  0.00000000  0.25000000  0.95861000  1.0
  Au  Au13  2  0.00000000  0.27744000  0.12589000  1.0
  Au  Au14  1  0.50000000  0.00000000  0.04094000  1.0
  Au  Au15  1  0.50000000  0.00000000  0.87584000  1.0
  Au  Au16  1  0.50000000  0.50000000  0.04043000  1.0
  Au  Au17  1  0.50000000  0.50000000  0.87584000  1.0
  C  C18  1  0.50000000  0.00000000  0.12860000  1.0
