# generated using pymatgen
data_Fe24Pd8CO
_symmetry_space_group_name_H-M   'P 1'
_cell_length_a   7.52786000
_cell_length_b   7.52786000
_cell_length_c   25.64590000
_cell_angle_alpha   90.00000000
_cell_angle_beta   90.00000000
_cell_angle_gamma   90.00000000
_symmetry_Int_Tables_number   1
_chemical_formula_structural   Fe24Pd8CO
_chemical_formula_sum   'Fe24 Pd8 C1 O1'
_cell_volume   1453.31920243
_cell_formula_units_Z   1
loop_
 _symmetry_equiv_pos_site_id
 _symmetry_equiv_pos_as_xyz
  1  'x, y, z'
loop_
 _atom_site_type_symbol
 _atom_site_label
 _atom_site_symmetry_multiplicity
 _atom_site_fract_x
 _atom_site_fract_y
 _atom_site_fract_z
 _atom_site_occupancy
  Fe  Fe0  1  0.00000000  0.25000000  0.03669000  1.0
  Fe  Fe1  1  0.25000000  0.00000000  0.03669000  1.0
  Fe  Fe2  1  0.25000000  0.25000000  0.11007000  1.0
  Fe  Fe3  1  0.00000000  0.25000000  0.88993000  1.0
  Fe  Fe4  1  0.25000000  0.00000000  0.88993000  1.0
  Fe  Fe5  1  0.25000000  0.25000000  0.96331000  1.0
  Fe  Fe6  1  0.00000000  0.75000000  0.03669000  1.0
  Fe  Fe7  1  0.25000000  0.50000000  0.03669000  1.0
  Fe  Fe8  1  0.25000000  0.75000000  0.11007000  1.0
  Fe  Fe9  1  0.00000000  0.75000000  0.88993000  1.0
  Fe  Fe10  1  0.25000000  0.50000000  0.88993000  1.0
  Fe  Fe11  1  0.25000000  0.75000000  0.96331000  1.0
  Fe  Fe12  1  0.50000000  0.25000000  0.03669000  1.0
  Fe  Fe13  1  0.75000000  0.00000000  0.03669000  1.0
  Fe  Fe14  1  0.75000000  0.25000000  0.11007000  1.0
  Fe  Fe15  1  0.50000000  0.25000000  0.88993000  1.0
  Fe  Fe16  1  0.75000000  0.00000000  0.88993000  1.0
  Fe  Fe17  1  0.75000000  0.25000000  0.96331000  1.0
  Fe  Fe18  1  0.50000000  0.75000000  0.03669000  1.0
  Fe  Fe19  1  0.75000000  0.50000000  0.03669000  1.0
  Fe  Fe20  1  0.75000000  0.75000000  0.11007000  1.0
  Fe  Fe21  1  0.50000000  0.75000000  0.88993000  1.0
  Fe  Fe22  1  0.75000000  0.50000000  0.88993000  1.0
  Fe  Fe23  1  0.75000000  0.75000000  0.96331000  1.0
  Pd  Pd24  1  0.00000000  0.00000000  0.11007000  1.0
  Pd  Pd25  1  0.00000000  0.00000000  0.96331000  1.0
  Pd  Pd26  1  0.00000000  0.50000000  0.11007000  1.0
  Pd  Pd27  1  0.00000000  0.50000000  0.96331000  1.0
  Pd  Pd28  1  0.50000000  0.00000000  0.11007000  1.0
  Pd  Pd29  1  0.50000000  0.00000000  0.96331000  1.0
  Pd  Pd30  1  0.50000000  0.50000000  0.11007000  1.0
  Pd  Pd31  1  0.50000000  0.50000000  0.96331000  1.0
  C  C32  1  0.00000000  0.00000000  0.18416000  1.0
  O  O33  1  0.00000000  0.00000000  0.22900000  1.0
