# generated using pymatgen
data_K16C
_symmetry_space_group_name_H-M   'P 1'
_cell_length_a   9.98137000
_cell_length_b   9.98137000
_cell_length_c   27.48600000
_cell_angle_alpha   90.00000000
_cell_angle_beta   90.00000000
_cell_angle_gamma   90.00000000
_symmetry_Int_Tables_number   1
_chemical_formula_structural   K16C
_chemical_formula_sum   'K16 C1'
_cell_volume   2738.36825616
_cell_formula_units_Z   1
loop_
 _symmetry_equiv_pos_site_id
 _symmetry_equiv_pos_as_xyz
  1  'x, y, z'
loop_
 _atom_site_type_symbol
 _atom_site_label
 _atom_site_symmetry_multiplicity
 _atom_site_fract_x
 _atom_site_fract_y
 _atom_site_fract_z
 _atom_site_occupancy
  K  K0  1  0.00000000  0.00000000  0.13618000  1
  K  K1  1  0.25000000  0.75000000  0.04539000  1
  K  K2  1  0.00010000  0.99990000  0.95444000  1
  K  K3  1  0.20025500  0.79974500  0.83768000  1
  K  K4  1  0.50000000  1.00000000  0.13618000  1
  K  K5  1  0.75000000  0.75000000  0.04539000  1
  K  K6  1  0.49998000  1.00000000  0.94054000  1
  K  K7  1  0.79974000  0.79972000  0.83767000  1
  K  K8  1  0.00000000  0.50000000  0.13618000  1
  K  K9  1  0.25000000  0.25000000  0.04539000  1
  K  K10  1  0.00000000  0.50002000  0.94054000  1
  K  K11  1  0.20028000  0.20026000  0.83767000  1
  K  K12  1  0.50000000  0.50000000  0.13618000  1
  K  K13  1  0.75000000  0.25000000  0.04539000  1
  K  K14  1  0.49999000  0.50001000  0.93115000  1
  K  K15  1  0.79972000  0.20028000  0.83767000  1
  C  C16  1  0.00000000  0.00000000  0.85376000  1
