# generated using pymatgen
data_K16C
_symmetry_space_group_name_H-M   Cm
_cell_length_a   14.11578883
_cell_length_b   14.11578883
_cell_length_c   27.48600000
_cell_angle_alpha   90.00000000
_cell_angle_beta   90.00000000
_cell_angle_gamma   90.00000000
_symmetry_Int_Tables_number   8
_chemical_formula_structural   K16C
_chemical_formula_sum   'K32 C2'
_cell_volume   5476.73651231
_cell_formula_units_Z   2
loop_
 _symmetry_equiv_pos_site_id
 _symmetry_equiv_pos_as_xyz
  1  'x, y, z'
  2  'x, -y, z'
  3  'x+1/2, y+1/2, z'
  4  'x+1/2, -y+1/2, z'
loop_
 _atom_site_type_symbol
 _atom_site_label
 _atom_site_symmetry_multiplicity
 _atom_site_fract_x
 _atom_site_fract_y
 _atom_site_fract_z
 _atom_site_occupancy
  K  K0  4  -0.00000000  0.25000000  0.95461000  1.0
  K  K1  4  0.00001000  0.20027000  0.16233000  1.0
  K  K2  4  0.24999000  0.24999000  0.05946000  1.0
  K  K3  4  0.25000000  0.25000000  0.86382000  1.0
  K  K4  2  0.00000000  0.00000000  0.86382000  1.0
  K  K5  2  0.00000000  0.50000000  0.86382000  1.0
  K  K6  2  0.00010000  0.00000000  0.04556000  1.0
  K  K7  2  0.20025500  0.00000000  0.16232000  1.0
  K  K8  2  0.25000000  0.00000000  0.95461000  1.0
  K  K9  2  0.25000000  0.50000000  0.95461000  1.0
  K  K10  2  0.29972000  0.50000000  0.16233000  1.0
  K  K11  2  0.49999000  0.00000000  0.06885000  1.0
  C  C12  2  0.00000000  0.00000000  0.14624000  1.0
