# generated using pymatgen
data_Li8Y8Sn8Pd8CO
_symmetry_space_group_name_H-M   'P 1'
_cell_length_a   9.58434000
_cell_length_b   6.77715000
_cell_length_c   27.18830000
_cell_angle_alpha   90.00000000
_cell_angle_beta   90.00000000
_cell_angle_gamma   90.00000000
_symmetry_Int_Tables_number   1
_chemical_formula_structural   Li8Y8Sn8Pd8CO
_chemical_formula_sum   'Li8 Y8 Sn8 Pd8 C1 O1'
_cell_volume   1766.00269964
_cell_formula_units_Z   1
loop_
 _symmetry_equiv_pos_site_id
 _symmetry_equiv_pos_as_xyz
  1  'x, y, z'
loop_
 _atom_site_type_symbol
 _atom_site_label
 _atom_site_symmetry_multiplicity
 _atom_site_fract_x
 _atom_site_fract_y
 _atom_site_fract_z
 _atom_site_occupancy
  Li  Li0  1  0.75000000  0.00000000  0.13219000  1.0
  Li  Li1  1  0.25000000  0.00000000  0.13219000  1.0
  Li  Li2  1  0.50000000  0.50000000  0.04406000  1.0
  Li  Li3  1  0.00000000  0.50000000  0.04406000  1.0
  Li  Li4  1  0.25056000  0.00626000  0.95313000  1.0
  Li  Li5  1  0.74944000  0.00626000  0.95313000  1.0
  Li  Li6  1  0.00000000  0.68611000  0.81882000  1.0
  Li  Li7  1  0.50000000  0.70782000  0.81633000  1.0
  Y  Y8  1  0.75000000  0.25000000  0.04406000  1.0
  Y  Y9  1  0.25000000  0.25000000  0.04406000  1.0
  Y  Y10  1  0.00000000  0.75000000  0.13219000  1.0
  Y  Y11  1  0.50000000  0.75000000  0.13219000  1.0
  Y  Y12  1  0.25627000  0.28737000  0.86834000  1.0
  Y  Y13  1  0.74373000  0.28737000  0.86834000  1.0
  Y  Y14  1  0.50000000  0.74318000  0.95280000  1.0
  Y  Y15  1  0.00000000  0.74585000  0.95131000  1.0
  Sn  Sn16  1  0.75000000  0.75000000  0.04406000  1.0
  Sn  Sn17  1  0.25000000  0.75000000  0.04406000  1.0
  Sn  Sn18  1  0.00000000  0.25000000  0.13219000  1.0
  Sn  Sn19  1  0.50000000  0.25000000  0.13219000  1.0
  Sn  Sn20  1  0.25087000  0.76541000  0.86686000  1.0
  Sn  Sn21  1  0.74913000  0.76541000  0.86686000  1.0
  Sn  Sn22  1  0.50000000  0.25808000  0.95695000  1.0
  Sn  Sn23  1  0.00000000  0.24974000  0.95574000  1.0
  Pd  Pd24  1  0.00000000  1.00000000  0.04406000  1.0
  Pd  Pd25  1  0.50000000  0.00000000  0.04406000  1.0
  Pd  Pd26  1  0.25000000  0.50000000  0.13219000  1.0
  Pd  Pd27  1  0.75000000  0.50000000  0.13219000  1.0
  Pd  Pd28  1  0.50000000  0.02135000  0.87466000  1.0
  Pd  Pd29  1  0.00000000  0.03556000  0.86431000  1.0
  Pd  Pd30  1  0.75117000  0.49877000  0.95753000  1.0
  Pd  Pd31  1  0.24883000  0.49877000  0.95753000  1.0
  C  C32  1  0.00000000  0.15351000  0.79938000  1.0
  O  O33  1  0.00000000  0.19564000  0.75754000  1.0
