# generated using pymatgen
data_Li8Y8Sn8Pd8CO
_symmetry_space_group_name_H-M   Pm
_cell_length_a   6.77715000
_cell_length_b   9.58434000
_cell_length_c   27.18830000
_cell_angle_alpha   90.00000000
_cell_angle_beta   90.00000000
_cell_angle_gamma   90.00000000
_symmetry_Int_Tables_number   6
_chemical_formula_structural   Li8Y8Sn8Pd8CO
_chemical_formula_sum   'Li8 Y8 Sn8 Pd8 C1 O1'
_cell_volume   1766.00269964
_cell_formula_units_Z   1
loop_
 _symmetry_equiv_pos_site_id
 _symmetry_equiv_pos_as_xyz
  1  'x, y, z'
  2  'x, -y, z'
loop_
 _atom_site_type_symbol
 _atom_site_label
 _atom_site_symmetry_multiplicity
 _atom_site_fract_x
 _atom_site_fract_y
 _atom_site_fract_z
 _atom_site_occupancy
  Li  Li0  2  0.00000000  0.25000000  0.86781000  1.0
  Li  Li1  2  0.00626000  0.25056000  0.04687000  1.0
  Li  Li2  1  0.50000000  0.00000000  0.95594000  1.0
  Li  Li3  1  0.50000000  0.50000000  0.95594000  1.0
  Li  Li4  1  0.68611000  0.00000000  0.18118000  1.0
  Li  Li5  1  0.70782000  0.50000000  0.18367000  1.0
  Y  Y6  2  0.25000000  0.25000000  0.95594000  1.0
  Y  Y7  2  0.28737000  0.25627000  0.13166000  1.0
  Y  Y8  1  0.74318000  0.50000000  0.04720000  1.0
  Y  Y9  1  0.74585000  0.00000000  0.04869000  1.0
  Y  Y10  1  0.75000000  0.00000000  0.86781000  1.0
  Y  Y11  1  0.75000000  0.50000000  0.86781000  1.0
  Sn  Sn12  2  0.75000000  0.25000000  0.95594000  1.0
  Sn  Sn13  2  0.76541000  0.25087000  0.13314000  1.0
  Sn  Sn14  1  0.24974000  0.00000000  0.04426000  1.0
  Sn  Sn15  1  0.25000000  0.00000000  0.86781000  1.0
  Sn  Sn16  1  0.25000000  0.50000000  0.86781000  1.0
  Sn  Sn17  1  0.25808000  0.50000000  0.04305000  1.0
  Pd  Pd18  2  0.49877000  0.24883000  0.04247000  1.0
  Pd  Pd19  2  0.50000000  0.25000000  0.86781000  1.0
  Pd  Pd20  1  -0.00000000  0.00000000  0.95594000  1.0
  Pd  Pd21  1  0.00000000  0.50000000  0.95594000  1.0
  Pd  Pd22  1  0.02135000  0.50000000  0.12534000  1.0
  Pd  Pd23  1  0.03556000  0.00000000  0.13569000  1.0
  C  C24  1  0.15351000  0.00000000  0.20062000  1.0
  O  O25  1  0.19564000  0.00000000  0.24246000  1.0
