# generated using pymatgen
data_Ni12Ge4C
_symmetry_space_group_name_H-M   Pmm2
_cell_length_a   5.09807000
_cell_length_b   7.20976000
_cell_length_c   23.82360000
_cell_angle_alpha   90.00000000
_cell_angle_beta   90.00000000
_cell_angle_gamma   90.00000000
_symmetry_Int_Tables_number   25
_chemical_formula_structural   Ni12Ge4C
_chemical_formula_sum   'Ni12 Ge4 C1'
_cell_volume   875.65693401
_cell_formula_units_Z   1
loop_
 _symmetry_equiv_pos_site_id
 _symmetry_equiv_pos_as_xyz
  1  'x, y, z'
  2  '-x, -y, z'
  3  '-x, y, z'
  4  'x, -y, z'
loop_
 _atom_site_type_symbol
 _atom_site_label
 _atom_site_symmetry_multiplicity
 _atom_site_fract_x
 _atom_site_fract_y
 _atom_site_fract_z
 _atom_site_occupancy
  Ni  Ni0  4  0.24263000  0.19255000  0.91665000  1.0
  Ni  Ni1  4  0.25003000  0.25000000  0.02675000  1.0
  Ni  Ni2  1  0.00000000  0.00000000  0.08025000  1.0
  Ni  Ni3  1  0.00000000  0.50000000  0.08025000  1.0
  Ni  Ni4  1  0.50000000  0.00000000  0.97888000  1.0
  Ni  Ni5  1  0.50000000  0.50000000  0.96581000  1.0
  Ge  Ge6  1  0.00000000  0.00000000  0.98483000  1.0
  Ge  Ge7  1  0.00000000  0.50000000  0.95178000  1.0
  Ge  Ge8  1  0.50000000  0.00000000  0.08025000  1.0
  Ge  Ge9  1  0.50000000  0.50000000  0.08025000  1.0
  C  C10  1  0.00000000  0.00000000  0.89396000  1.0
