# generated using pymatgen
data_Al8Fe16Mo8C
_symmetry_space_group_name_H-M   'P 1'
_cell_length_a   8.27910000
_cell_length_b   5.85421000
_cell_length_c   26.20930000
_cell_angle_alpha   90.00000000
_cell_angle_beta   90.00000000
_cell_angle_gamma   90.00000000
_symmetry_Int_Tables_number   1
_chemical_formula_structural   Al8Fe16Mo8C
_chemical_formula_sum   'Al8 Fe16 Mo8 C1'
_cell_volume   1270.30160688
_cell_formula_units_Z   1
loop_
 _symmetry_equiv_pos_site_id
 _symmetry_equiv_pos_as_xyz
  1  'x, y, z'
loop_
 _atom_site_type_symbol
 _atom_site_label
 _atom_site_symmetry_multiplicity
 _atom_site_fract_x
 _atom_site_fract_y
 _atom_site_fract_z
 _atom_site_occupancy
  Al  Al0  1  0.75000000  0.00000000  0.11846000  1.0
  Al  Al1  1  0.00000000  0.50000000  0.03949000  1.0
  Al  Al2  1  0.50000000  0.50000000  0.03949000  1.0
  Al  Al3  1  0.25000000  0.00000000  0.11846000  1.0
  Al  Al4  1  0.25000000  0.00000000  0.96051000  1.0
  Al  Al5  1  0.50000000  0.50000000  0.88154000  1.0
  Al  Al6  1  0.00000000  0.50000000  0.88154000  1.0
  Al  Al7  1  0.75000000  0.00000000  0.96051000  1.0
  Fe  Fe8  1  0.75000000  0.25000000  0.03949000  1.0
  Fe  Fe9  1  0.25000000  0.75000000  0.03949000  1.0
  Fe  Fe10  1  0.75000000  0.75000000  0.03949000  1.0
  Fe  Fe11  1  0.25000000  0.25000000  0.03949000  1.0
  Fe  Fe12  1  0.50000000  0.75000000  0.11846000  1.0
  Fe  Fe13  1  0.00000000  0.25000000  0.11846000  1.0
  Fe  Fe14  1  0.50000000  0.25000000  0.11846000  1.0
  Fe  Fe15  1  0.00000000  0.75000000  0.11846000  1.0
  Fe  Fe16  1  0.25000000  0.25000000  0.88154000  1.0
  Fe  Fe17  1  0.75000000  0.75000000  0.88154000  1.0
  Fe  Fe18  1  0.25000000  0.75000000  0.88154000  1.0
  Fe  Fe19  1  0.75000000  0.25000000  0.88154000  1.0
  Fe  Fe20  1  0.00000000  0.75000000  0.96051000  1.0
  Fe  Fe21  1  0.50000000  0.25000000  0.96051000  1.0
  Fe  Fe22  1  0.00000000  0.25000000  0.96051000  1.0
  Fe  Fe23  1  0.50000000  0.75000000  0.96051000  1.0
  Mo  Mo24  1  0.50000000  0.00000000  0.03949000  1.0
  Mo  Mo25  1  0.75000000  0.50000000  0.11846000  1.0
  Mo  Mo26  1  0.00000000  0.00000000  0.03949000  1.0
  Mo  Mo27  1  0.25000000  0.50000000  0.11846000  1.0
  Mo  Mo28  1  0.00000000  0.00000000  0.88154000  1.0
  Mo  Mo29  1  0.25000000  0.50000000  0.96051000  1.0
  Mo  Mo30  1  0.50000000  0.00000000  0.88154000  1.0
  Mo  Mo31  1  0.75000000  0.50000000  0.96051000  1.0
  C  C32  1  0.00000000  0.25000000  0.85102000  1.0
