# generated using pymatgen
data_Li8Al16Pd8C
_symmetry_space_group_name_H-M   'P 1'
_cell_length_a   8.66047000
_cell_length_b   6.12388000
_cell_length_c   26.49540000
_cell_angle_alpha   90.00000000
_cell_angle_beta   90.00000000
_cell_angle_gamma   90.00000000
_symmetry_Int_Tables_number   1
_chemical_formula_structural   Li8Al16Pd8C
_chemical_formula_sum   'Li8 Al16 Pd8 C1'
_cell_volume   1405.20153000
_cell_formula_units_Z   1
loop_
 _symmetry_equiv_pos_site_id
 _symmetry_equiv_pos_as_xyz
  1  'x, y, z'
loop_
 _atom_site_type_symbol
 _atom_site_label
 _atom_site_symmetry_multiplicity
 _atom_site_fract_x
 _atom_site_fract_y
 _atom_site_fract_z
 _atom_site_occupancy
  Li  Li0  1  0.75000000  0.00000000  0.12258000  1.0
  Li  Li1  1  0.00000000  0.50000000  0.04086000  1.0
  Li  Li2  1  0.50000000  0.50000000  0.04086000  1.0
  Li  Li3  1  0.25000000  0.00000000  0.12258000  1.0
  Li  Li4  1  0.24973000  0.99876000  0.95762000  1.0
  Li  Li5  1  0.50000000  0.47137000  0.84113000  1.0
  Li  Li6  1  0.00000000  0.54129000  0.82826000  1.0
  Li  Li7  1  0.75027000  0.99876000  0.95762000  1.0
  Al  Al8  1  0.75000000  0.25000000  0.04086000  1.0
  Al  Al9  1  0.25000000  0.75000000  0.04086000  1.0
  Al  Al10  1  0.75000000  0.75000000  0.04086000  1.0
  Al  Al11  1  0.25000000  0.25000000  0.04086000  1.0
  Al  Al12  1  0.50000000  0.75000000  0.12258000  1.0
  Al  Al13  1  0.00000000  0.25000000  0.12258000  1.0
  Al  Al14  1  0.50000000  0.25000000  0.12258000  1.0
  Al  Al15  1  0.00000000  0.75000000  0.12258000  1.0
  Al  Al16  1  0.22945000  0.27339000  0.87401000  1.0
  Al  Al17  1  0.73913000  0.73706000  0.87567000  1.0
  Al  Al18  1  0.26087000  0.73706000  0.87567000  1.0
  Al  Al19  1  0.77055000  0.27339000  0.87401000  1.0
  Al  Al20  1  0.00000000  0.73155000  0.95691000  1.0
  Al  Al21  1  0.50000000  0.26060000  0.95770000  1.0
  Al  Al22  1  0.00000000  0.27316000  0.95266000  1.0
  Al  Al23  1  0.50000000  0.73858000  0.95524000  1.0
  Pd  Pd24  1  0.50000000  0.00000000  0.04086000  1.0
  Pd  Pd25  1  0.75000000  0.50000000  0.12258000  1.0
  Pd  Pd26  1  0.00000000  0.00000000  0.04086000  1.0
  Pd  Pd27  1  0.25000000  0.50000000  0.12258000  1.0
  Pd  Pd28  1  0.00000000  0.92875000  0.87636000  1.0
  Pd  Pd29  1  0.25458000  0.49989000  0.96400000  1.0
  Pd  Pd30  1  0.50000000  0.00946000  0.88169000  1.0
  Pd  Pd31  1  0.74542000  0.49989000  0.96400000  1.0
  C  C32  1  0.00000000  0.27218000  0.87474000  1.0
