# generated using pymatgen
data_Li8Al16Pd8C
_symmetry_space_group_name_H-M   Pm
_cell_length_a   6.12388000
_cell_length_b   8.66047000
_cell_length_c   26.49540000
_cell_angle_alpha   90.00000000
_cell_angle_beta   90.00000000
_cell_angle_gamma   90.00000000
_symmetry_Int_Tables_number   6
_chemical_formula_structural   Li8Al16Pd8C
_chemical_formula_sum   'Li8 Al16 Pd8 C1'
_cell_volume   1405.20153000
_cell_formula_units_Z   1
loop_
 _symmetry_equiv_pos_site_id
 _symmetry_equiv_pos_as_xyz
  1  'x, y, z'
  2  'x, -y, z'
loop_
 _atom_site_type_symbol
 _atom_site_label
 _atom_site_symmetry_multiplicity
 _atom_site_fract_x
 _atom_site_fract_y
 _atom_site_fract_z
 _atom_site_occupancy
  Li  Li0  2  0.00000000  0.25000000  0.87742000  1.0
  Li  Li1  2  0.99876000  0.24973000  0.04238000  1.0
  Li  Li2  1  0.47137000  0.50000000  0.15887000  1.0
  Li  Li3  1  0.50000000  0.00000000  0.95914000  1.0
  Li  Li4  1  0.50000000  0.50000000  0.95914000  1.0
  Li  Li5  1  0.54129000  0.00000000  0.17174000  1.0
  Al  Al6  2  0.25000000  0.25000000  0.95914000  1.0
  Al  Al7  2  0.27339000  0.22945000  0.12599000  1.0
  Al  Al8  2  0.73706000  0.26087000  0.12433000  1.0
  Al  Al9  2  0.75000000  0.25000000  0.95914000  1.0
  Al  Al10  1  0.25000000  0.00000000  0.87742000  1.0
  Al  Al11  1  0.25000000  0.50000000  0.87742000  1.0
  Al  Al12  1  0.26060000  0.50000000  0.04230000  1.0
  Al  Al13  1  0.27316000  0.00000000  0.04734000  1.0
  Al  Al14  1  0.73155000  0.00000000  0.04309000  1.0
  Al  Al15  1  0.73858000  0.50000000  0.04476000  1.0
  Al  Al16  1  0.75000000  0.00000000  0.87742000  1.0
  Al  Al17  1  0.75000000  0.50000000  0.87742000  1.0
  Pd  Pd18  2  0.49989000  0.25458000  0.03600000  1.0
  Pd  Pd19  2  0.50000000  0.25000000  0.87742000  1.0
  Pd  Pd20  1  0.00000000  0.00000000  0.95914000  1.0
  Pd  Pd21  1  0.00000000  0.50000000  0.95914000  1.0
  Pd  Pd22  1  0.00946000  0.50000000  0.11831000  1.0
  Pd  Pd23  1  0.92875000  0.00000000  0.12364000  1.0
  C  C24  1  0.27218000  0.00000000  0.12526000  1.0
