# generated using pymatgen
data_Y4Pt12CO
_symmetry_space_group_name_H-M   'P 1'
_cell_length_a   8.32195000
_cell_length_b   5.88450000
_cell_length_c   24.41340000
_cell_angle_alpha   90.00000000
_cell_angle_beta   90.00000000
_cell_angle_gamma   90.00000000
_symmetry_Int_Tables_number   1
_chemical_formula_structural   Y4Pt12CO
_chemical_formula_sum   'Y4 Pt12 C1 O1'
_cell_volume   1195.53676541
_cell_formula_units_Z   1
loop_
 _symmetry_equiv_pos_site_id
 _symmetry_equiv_pos_as_xyz
  1  'x, y, z'
loop_
 _atom_site_type_symbol
 _atom_site_label
 _atom_site_symmetry_multiplicity
 _atom_site_fract_x
 _atom_site_fract_y
 _atom_site_fract_z
 _atom_site_occupancy
  Y  Y0  1  0.74999000  0.00000000  0.90961000  1.0
  Y  Y1  1  0.75188000  0.50120000  0.03291000  1.0
  Y  Y2  1  0.25001000  0.00000000  0.90961000  1.0
  Y  Y3  1  0.24812000  0.50120000  0.03291000  1.0
  Pt  Pt4  1  0.74999000  0.50000000  0.90961000  1.0
  Pt  Pt5  1  0.50000000  0.25000000  0.96987000  1.0
  Pt  Pt6  1  0.50000000  0.75000000  0.96987000  1.0
  Pt  Pt7  1  0.74995000  0.99959000  0.02594000  1.0
  Pt  Pt8  1  0.50000000  0.78246000  0.08727000  1.0
  Pt  Pt9  1  0.50000000  0.26114000  0.08615000  1.0
  Pt  Pt10  1  0.25001000  0.50000000  0.90961000  1.0
  Pt  Pt11  1  0.00000000  0.25000000  0.96987000  1.0
  Pt  Pt12  1  0.00000000  0.75000000  0.96987000  1.0
  Pt  Pt13  1  0.25005000  0.99959000  0.02594000  1.0
  Pt  Pt14  1  0.00000000  0.75576000  0.08596000  1.0
  Pt  Pt15  1  0.00000000  0.24213000  0.08471000  1.0
  C  C16  1  0.50000000  0.70412000  0.16145000  1.0
  O  O17  1  0.50000000  0.67015000  0.20807000  1.0
