# generated using pymatgen
data_Y4In12CO
_symmetry_space_group_name_H-M   'P 1'
_cell_length_a   9.34369000
_cell_length_b   6.60698000
_cell_length_c   24.95520000
_cell_angle_alpha   90.00000000
_cell_angle_beta   90.00000000
_cell_angle_gamma   90.00000000
_symmetry_Int_Tables_number   1
_chemical_formula_structural   Y4In12CO
_chemical_formula_sum   'Y4 In12 C1 O1'
_cell_volume   1540.57365984
_cell_formula_units_Z   1
loop_
 _symmetry_equiv_pos_site_id
 _symmetry_equiv_pos_as_xyz
  1  'x, y, z'
loop_
 _atom_site_type_symbol
 _atom_site_label
 _atom_site_symmetry_multiplicity
 _atom_site_fract_x
 _atom_site_fract_y
 _atom_site_fract_z
 _atom_site_occupancy
  Y  Y0  1  0.75000000  0.00000000  0.90072000  1.0
  Y  Y1  1  0.75023000  0.49783000  0.03482000  1.0
  Y  Y2  1  0.25000000  0.00000000  0.90072000  1.0
  Y  Y3  1  0.24977000  0.49783000  0.03482000  1.0
  In  In4  1  0.75000000  0.50000000  0.90072000  1.0
  In  In5  1  0.50000000  0.25000000  0.96691000  1.0
  In  In6  1  0.50000000  0.75000000  0.96691000  1.0
  In  In7  1  0.74977000  0.99714000  0.04314000  1.0
  In  In8  1  0.50000000  0.74927000  0.09930000  1.0
  In  In9  1  0.50000000  0.24227000  0.09941000  1.0
  In  In10  1  0.25000000  0.50000000  0.90072000  1.0
  In  In11  1  0.00000000  0.25000000  0.96691000  1.0
  In  In12  1  0.00000000  0.75000000  0.96691000  1.0
  In  In13  1  0.25023000  0.99714000  0.04314000  1.0
  In  In14  1  0.00000000  0.75130000  0.10007000  1.0
  In  In15  1  0.00000000  0.24299000  0.09989000  1.0
  C  C16  1  0.50000000  0.83321000  0.24935000  1.0
  O  O17  1  0.50000000  0.71748000  0.28299000  1.0
