# generated using pymatgen
data_Nb3Si
_symmetry_space_group_name_H-M   Pmm2
_cell_length_a   4.07272000
_cell_length_b   5.75970000
_cell_length_c   24.31980000
_cell_angle_alpha   90.00000000
_cell_angle_beta   90.00000000
_cell_angle_gamma   90.00000000
_symmetry_Int_Tables_number   25
_chemical_formula_structural   Nb3Si
_chemical_formula_sum   'Nb6 Si2'
_cell_volume   570.48524421
_cell_formula_units_Z   2
loop_
 _symmetry_equiv_pos_site_id
 _symmetry_equiv_pos_as_xyz
  1  'x, y, z'
  2  '-x, -y, z'
  3  '-x, y, z'
  4  'x, -y, z'
loop_
 _atom_site_type_symbol
 _atom_site_label
 _atom_site_symmetry_multiplicity
 _atom_site_fract_x
 _atom_site_fract_y
 _atom_site_fract_z
 _atom_site_occupancy
  Nb  Nb0  2  0.50000000  0.25000000  0.91119000  1.0
  Nb  Nb1  2  0.50000000  0.25036000  0.03146000  1.0
  Nb  Nb2  1  0.00000000  0.00000000  0.97040000  1.0
  Nb  Nb3  1  0.00000000  0.50000000  0.08116000  1.0
  Si  Si4  1  0.00000000  0.00000000  0.08163000  1.0
  Si  Si5  1  0.00000000  0.50000000  0.97040000  1.0
