# generated using pymatgen
data_Mn16Al16CO
_symmetry_space_group_name_H-M   'P 1'
_cell_length_a   5.89713000
_cell_length_b   8.33980000
_cell_length_c   26.25480000
_cell_angle_alpha   90.00000000
_cell_angle_beta   90.00000000
_cell_angle_gamma   90.00000000
_symmetry_Int_Tables_number   1
_chemical_formula_structural   Mn16Al16CO
_chemical_formula_sum   'Mn16 Al16 C1 O1'
_cell_volume   1291.23429356
_cell_formula_units_Z   1
loop_
 _symmetry_equiv_pos_site_id
 _symmetry_equiv_pos_as_xyz
  1  'x, y, z'
loop_
 _atom_site_type_symbol
 _atom_site_label
 _atom_site_symmetry_multiplicity
 _atom_site_fract_x
 _atom_site_fract_y
 _atom_site_fract_z
 _atom_site_occupancy
  Mn  Mn0  1  0.75001000  0.00000000  0.88088000  1.0
  Mn  Mn1  1  0.75001000  0.75000000  0.96029000  1.0
  Mn  Mn2  1  0.74255000  0.00000000  0.04400000  1.0
  Mn  Mn3  1  0.75560000  0.74549000  0.11862000  1.0
  Mn  Mn4  1  0.75001000  0.50000000  0.88088000  1.0
  Mn  Mn5  1  0.75001000  0.25000000  0.96029000  1.0
  Mn  Mn6  1  0.75666000  0.50000000  0.04222000  1.0
  Mn  Mn7  1  0.75560000  0.25451000  0.11862000  1.0
  Mn  Mn8  1  0.24999000  0.00000000  0.88088000  1.0
  Mn  Mn9  1  0.24999000  0.75000000  0.96029000  1.0
  Mn  Mn10  1  0.25745000  0.00000000  0.04400000  1.0
  Mn  Mn11  1  0.24440000  0.74549000  0.11862000  1.0
  Mn  Mn12  1  0.24999000  0.50000000  0.88088000  1.0
  Mn  Mn13  1  0.24999000  0.25000000  0.96029000  1.0
  Mn  Mn14  1  0.24334000  0.50000000  0.04222000  1.0
  Mn  Mn15  1  0.24440000  0.25451000  0.11862000  1.0
  Al  Al16  1  0.50000000  0.75000000  0.88088000  1.0
  Al  Al17  1  0.50000000  0.00000000  0.96029000  1.0
  Al  Al18  1  0.50000000  0.74627000  0.03965000  1.0
  Al  Al19  1  0.50000000  0.00000000  0.12980000  1.0
  Al  Al20  1  0.50000000  0.25000000  0.88088000  1.0
  Al  Al21  1  0.50000000  0.50000000  0.96029000  1.0
  Al  Al22  1  0.50000000  0.25373000  0.03965000  1.0
  Al  Al23  1  0.50000000  0.50000000  0.12704000  1.0
  Al  Al24  1  0.00000000  0.75000000  0.88088000  1.0
  Al  Al25  1  0.00000000  0.00000000  0.96029000  1.0
  Al  Al26  1  0.00000000  0.75399000  0.03878000  1.0
  Al  Al27  1  0.00000000  0.00000000  0.12924000  1.0
  Al  Al28  1  0.00000000  0.25000000  0.88088000  1.0
  Al  Al29  1  0.00000000  0.50000000  0.96029000  1.0
  Al  Al30  1  0.00000000  0.24601000  0.03878000  1.0
  Al  Al31  1  0.00000000  0.50000000  0.13178000  1.0
  C  C32  1  0.50000000  0.00000000  0.20583000  1.0
  O  O33  1  0.50000000  0.00000000  0.24968000  1.0
