# generated using pymatgen
data_Li8In16Rh8C
_symmetry_space_group_name_H-M   'P 1'
_cell_length_a   9.30439000
_cell_length_b   6.57920000
_cell_length_c   26.97830000
_cell_angle_alpha   90.00000000
_cell_angle_beta   90.00000000
_cell_angle_gamma   90.00000000
_symmetry_Int_Tables_number   1
_chemical_formula_structural   Li8In16Rh8C
_chemical_formula_sum   'Li8 In16 Rh8 C1'
_cell_volume   1651.48857747
_cell_formula_units_Z   1
loop_
 _symmetry_equiv_pos_site_id
 _symmetry_equiv_pos_as_xyz
  1  'x, y, z'
loop_
 _atom_site_type_symbol
 _atom_site_label
 _atom_site_symmetry_multiplicity
 _atom_site_fract_x
 _atom_site_fract_y
 _atom_site_fract_z
 _atom_site_occupancy
  Li  Li0  1  0.75000000  0.00000000  0.12933000  1.0
  Li  Li1  1  0.00000000  0.50000000  0.04311000  1.0
  Li  Li2  1  0.50000000  0.50000000  0.04311000  1.0
  Li  Li3  1  0.25000000  0.00000000  0.12933000  1.0
  Li  Li4  1  0.24494000  0.00713000  0.95468000  1.0
  Li  Li5  1  0.50000000  0.49567000  0.86328000  1.0
  Li  Li6  1  0.00000000  0.55387000  0.83981000  1.0
  Li  Li7  1  0.75506000  0.00713000  0.95468000  1.0
  In  In8  1  0.75000000  0.25000000  0.04311000  1.0
  In  In9  1  0.25000000  0.75000000  0.04311000  1.0
  In  In10  1  0.75000000  0.75000000  0.04311000  1.0
  In  In11  1  0.25000000  0.25000000  0.04311000  1.0
  In  In12  1  0.50000000  0.75000000  0.12933000  1.0
  In  In13  1  0.00000000  0.25000000  0.12933000  1.0
  In  In14  1  0.50000000  0.25000000  0.12933000  1.0
  In  In15  1  0.00000000  0.75000000  0.12933000  1.0
  In  In16  1  0.24904000  0.26454000  0.86107000  1.0
  In  In17  1  0.73975000  0.77178000  0.86513000  1.0
  In  In18  1  0.26025000  0.77178000  0.86513000  1.0
  In  In19  1  0.75096000  0.26454000  0.86107000  1.0
  In  In20  1  0.00000000  0.73304000  0.95695000  1.0
  In  In21  1  0.50000000  0.25753000  0.95856000  1.0
  In  In22  1  0.00000000  0.26146000  0.95577000  1.0
  In  In23  1  0.50000000  0.75399000  0.95582000  1.0
  Rh  Rh24  1  0.50000000  0.00000000  0.04311000  1.0
  Rh  Rh25  1  0.75000000  0.50000000  0.12933000  1.0
  Rh  Rh26  1  0.00000000  1.00000000  0.04311000  1.0
  Rh  Rh27  1  0.25000000  0.50000000  0.12933000  1.0
  Rh  Rh28  1  0.00000000  0.98394000  0.87564000  1.0
  Rh  Rh29  1  0.25524000  0.50223000  0.95935000  1.0
  Rh  Rh30  1  0.50000000  0.02000000  0.87719000  1.0
  Rh  Rh31  1  0.74476000  0.50223000  0.95935000  1.0
  C  C32  1  0.00000000  0.23451000  0.84389000  1.0
