# generated using pymatgen
data_Li4Y4Sn4Pd4CO
_symmetry_space_group_name_H-M   Cm
_cell_length_a   9.58433744
_cell_length_b   9.58433744
_cell_length_c   25.08290000
_cell_angle_alpha   90.00000000
_cell_angle_beta   90.00000000
_cell_angle_gamma   90.00000000
_symmetry_Int_Tables_number   8
_chemical_formula_structural   Li4Y4Sn4Pd4CO
_chemical_formula_sum   'Li8 Y8 Sn8 Pd8 C2 O2'
_cell_volume   2304.10326068
_cell_formula_units_Z   2
loop_
 _symmetry_equiv_pos_site_id
 _symmetry_equiv_pos_as_xyz
  1  'x, y, z'
  2  'x, -y, z'
  3  'x+1/2, y+1/2, z'
  4  'x+1/2, -y+1/2, z'
loop_
 _atom_site_type_symbol
 _atom_site_label
 _atom_site_symmetry_multiplicity
 _atom_site_fract_x
 _atom_site_fract_y
 _atom_site_fract_z
 _atom_site_occupancy
  Li  Li0  4  0.25010000  0.25001000  0.03659000  1.0
  Li  Li1  2  0.49999500  0.00000000  0.89868000  1.0
  Li  Li2  2  0.49999500  0.50000000  0.89868000  1.0
  Y  Y3  4  0.49999500  0.24999500  0.96623000  1.0
  Y  Y4  2  0.24970500  0.50000000  0.10808000  1.0
  Y  Y5  2  0.25003500  0.00000000  0.10704000  1.0
  Sn  Sn6  4  0.00015500  0.24976500  0.10324000  1.0
  Sn  Sn7  2  0.24999500  0.00000000  0.96623000  1.0
  Sn  Sn8  2  0.24999500  0.50000000  0.96623000  1.0
  Pd  Pd9  4  0.24999500  0.24999500  0.89868000  1.0
  Pd  Pd10  2  0.00335500  0.00000000  0.03421000  1.0
  Pd  Pd11  2  0.49653500  0.00000000  0.03424000  1.0
  C  C12  2  0.24814000  0.50000000  0.20848000  1.0
  O  O13  2  0.24770500  0.50000000  0.25413000  1.0
