data_image0
_chemical_formula_structural       Ti16Fe16CO
_chemical_formula_sum              "Ti16 Fe16 C1 O1"
_cell_length_a       5.92728
_cell_length_b       8.38244
_cell_length_c       26.2868
_cell_angle_alpha    90
_cell_angle_beta     90
_cell_angle_gamma    90

_space_group_name_H-M_alt    "P 1"
_space_group_IT_number       1

loop_
  _space_group_symop_operation_xyz
  'x, y, z'

loop_
  _atom_site_type_symbol
  _atom_site_label
  _atom_site_symmetry_multiplicity
  _atom_site_fract_x
  _atom_site_fract_y
  _atom_site_fract_z
  _atom_site_occupancy
  Ti  Ti1       1.0  0.00000  0.00000  0.88042  1.0000
  Ti  Ti2       1.0  0.00000  0.25000  0.96014  1.0000
  Ti  Ti3       1.0  0.99981  0.50000  0.04164  1.0000
  Ti  Ti4       1.0  0.99919  0.24795  0.12293  1.0000
  Ti  Ti5       1.0  0.00000  0.50000  0.88042  1.0000
  Ti  Ti6       1.0  0.00000  0.75000  0.96014  1.0000
  Ti  Ti7       1.0  0.99773  1.00000  0.04041  1.0000
  Ti  Ti8       1.0  0.99919  0.75205  0.12293  1.0000
  Ti  Ti9       1.0  0.50000  0.00000  0.88042  1.0000
  Ti  Ti10      1.0  0.50000  0.25000  0.96014  1.0000
  Ti  Ti11      1.0  0.50019  0.50000  0.04164  1.0000
  Ti  Ti12      1.0  0.50081  0.24795  0.12293  1.0000
  Ti  Ti13      1.0  0.50000  0.50000  0.88042  1.0000
  Ti  Ti14      1.0  0.50000  0.75000  0.96014  1.0000
  Ti  Ti15      1.0  0.50227  1.00000  0.04041  1.0000
  Ti  Ti16      1.0  0.50081  0.75205  0.12293  1.0000
  Fe  Fe1       1.0  0.25000  0.25000  0.88042  1.0000
  Fe  Fe2       1.0  0.25000  0.00000  0.96014  1.0000
  Fe  Fe3       1.0  0.25000  0.24748  0.04210  1.0000
  Fe  Fe4       1.0  0.25000  0.00000  0.11896  1.0000
  Fe  Fe5       1.0  0.25000  0.75000  0.88042  1.0000
  Fe  Fe6       1.0  0.25000  0.50000  0.96014  1.0000
  Fe  Fe7       1.0  0.25000  0.75252  0.04210  1.0000
  Fe  Fe8       1.0  0.25000  0.50000  0.11664  1.0000
  Fe  Fe9       1.0  0.75000  0.25000  0.88042  1.0000
  Fe  Fe10      1.0  0.75000  0.00000  0.96014  1.0000
  Fe  Fe11      1.0  0.75000  0.25134  0.04147  1.0000
  Fe  Fe12      1.0  0.75000  0.00000  0.11425  1.0000
  Fe  Fe13      1.0  0.75000  0.75000  0.88042  1.0000
  Fe  Fe14      1.0  0.75000  0.50000  0.96014  1.0000
  Fe  Fe15      1.0  0.75000  0.74866  0.04147  1.0000
  Fe  Fe16      1.0  0.75000  0.50000  0.11758  1.0000
  C   C1        1.0  0.25000  0.00000  0.18591  1.0000
  O   O1        1.0  0.25000  1.00000  0.23070  1.0000
