# generated using pymatgen
data_Ni12Sn4CO
_symmetry_space_group_name_H-M   P1
_cell_length_a   6.01786000
_cell_length_b   6.01786000
_cell_length_c   24.51340000
_cell_angle_alpha   90.00000000
_cell_angle_beta   90.00000000
_cell_angle_gamma   90.00000000
_symmetry_Int_Tables_number   1
_chemical_formula_structural   Ni12Sn4CO
_chemical_formula_sum   'Ni12 Sn4 C1 O1'
_cell_volume   887.74393116
_cell_formula_units_Z   1
loop_
 _symmetry_equiv_pos_site_id
 _symmetry_equiv_pos_as_xyz
  1  'x, y, z'
loop_
 _atom_site_type_symbol
 _atom_site_label
 _atom_site_symmetry_multiplicity
 _atom_site_fract_x
 _atom_site_fract_y
 _atom_site_fract_z
 _atom_site_occupancy
  Ni  Ni0  1  0.00000000  0.00000000  0.96931000  1.0
  Ni  Ni1  1  0.25000000  0.25000000  0.90794000  1.0
  Ni  Ni2  1  0.25000000  0.75000000  0.90794000  1.0
  Ni  Ni3  1  0.25399000  0.74612000  0.03082000  1.0
  Ni  Ni4  1  0.25408000  0.25399000  0.03082000  1.0
  Ni  Ni5  1  0.50000000  0.50000000  0.96931000  1.0
  Ni  Ni6  1  0.50019000  0.00002000  0.08592000  1.0
  Ni  Ni7  1  0.74585000  0.25411000  0.03079000  1.0
  Ni  Ni8  1  0.74596000  0.74601000  0.03080000  1.0
  Ni  Ni9  1  0.75000000  0.25000000  0.90794000  1.0
  Ni  Ni10  1  0.75000000  0.75000000  0.90794000  1.0
  Ni  Ni11  1  0.99995000  0.49998000  0.08578000  1.0
  Sn  Sn12  1  0.00000000  0.50000000  0.96931000  1.0
  Sn  Sn13  1  0.49992000  0.50014000  0.09691000  1.0
  Sn  Sn14  1  0.50000000  0.00000000  0.96931000  1.0
  Sn  Sn15  1  0.99987000  0.00015000  0.09214000  1.0
  C  C16  1  0.00180000  0.99627000  0.25711000  1.0
  O  O17  1  0.99962000  0.00071000  0.30339000  1.0
