# generated using pymatgen
data_Sn16Sb16C
_symmetry_space_group_name_H-M   'P 1'
_cell_length_a   10.81190000
_cell_length_b   7.64519000
_cell_length_c   28.10890000
_cell_angle_alpha   90.00000000
_cell_angle_beta   90.00000000
_cell_angle_gamma   90.00000000
_symmetry_Int_Tables_number   1
_chemical_formula_structural   Sn16Sb16C
_chemical_formula_sum   'Sn16 Sb16 C1'
_cell_volume   2323.45440165
_cell_formula_units_Z   1
loop_
 _symmetry_equiv_pos_site_id
 _symmetry_equiv_pos_as_xyz
  1  'x, y, z'
loop_
 _atom_site_type_symbol
 _atom_site_label
 _atom_site_symmetry_multiplicity
 _atom_site_fract_x
 _atom_site_fract_y
 _atom_site_fract_z
 _atom_site_occupancy
  Sn  Sn0  1  0.25000000  0.75000000  0.14424000  1.0
  Sn  Sn1  1  0.00000000  0.75000000  0.04808000  1.0
  Sn  Sn2  1  0.22889000  0.73748000  0.94183000  1.0
  Sn  Sn3  1  0.00000000  0.73026000  0.81057000  1.0
  Sn  Sn4  1  0.75000000  0.75000000  0.14424000  1.0
  Sn  Sn5  1  0.50000000  0.75000000  0.04808000  1.0
  Sn  Sn6  1  0.77110000  0.73747000  0.94183000  1.0
  Sn  Sn7  1  0.50000000  0.77227000  0.83473000  1.0
  Sn  Sn8  1  0.25000000  0.25000000  0.14424000  1.0
  Sn  Sn9  1  0.00000000  0.25000000  0.04808000  1.0
  Sn  Sn10  1  0.22889000  0.26252000  0.94183000  1.0
  Sn  Sn11  1  0.00000000  0.26974000  0.81057000  1.0
  Sn  Sn12  1  0.75000000  0.25000000  0.14424000  1.0
  Sn  Sn13  1  0.50000000  0.25000000  0.04808000  1.0
  Sn  Sn14  1  0.77110000  0.26253000  0.94183000  1.0
  Sn  Sn15  1  0.50000000  0.22773000  0.83473000  1.0
  Sb  Sb16  1  0.00000000  0.00000000  0.14424000  1.0
  Sb  Sb17  1  0.25000000  0.00000000  0.04808000  1.0
  Sb  Sb18  1  0.00000000  0.00000000  0.96298000  1.0
  Sb  Sb19  1  0.19906000  0.00000000  0.85997000  1.0
  Sb  Sb20  1  0.50000000  0.00000000  0.14424000  1.0
  Sb  Sb21  1  0.75000000  0.00000000  0.04808000  1.0
  Sb  Sb22  1  0.50001000  0.00000000  0.92364000  1.0
  Sb  Sb23  1  0.80095000  0.00000000  0.85997000  1.0
  Sb  Sb24  1  0.00000000  0.50000000  0.14424000  1.0
  Sb  Sb25  1  0.25000000  0.50000000  0.04808000  1.0
  Sb  Sb26  1  0.00000000  0.50000000  0.90373000  1.0
  Sb  Sb27  1  0.28928000  0.50000000  0.84688000  1.0
  Sb  Sb28  1  0.50000000  0.50000000  0.14424000  1.0
  Sb  Sb29  1  0.75000000  0.50000000  0.04808000  1.0
  Sb  Sb30  1  0.49998000  0.50000000  0.91859000  1.0
  Sb  Sb31  1  0.71072000  0.50000000  0.84688000  1.0
  C  C32  1  0.00004000  0.00000000  0.84156000  1.0
