# generated using pymatgen
data_Zr16Os16C
_symmetry_space_group_name_H-M   Pmm2
_cell_length_a   6.57738000
_cell_length_b   9.30182000
_cell_length_c   26.97640000
_cell_angle_alpha   90.00000000
_cell_angle_beta   90.00000000
_cell_angle_gamma   90.00000000
_symmetry_Int_Tables_number   25
_chemical_formula_structural   Zr16Os16C
_chemical_formula_sum   'Zr16 Os16 C1'
_cell_volume   1650.45944458
_cell_formula_units_Z   1
loop_
 _symmetry_equiv_pos_site_id
 _symmetry_equiv_pos_as_xyz
  1  'x, y, z'
  2  '-x, -y, z'
  3  '-x, y, z'
  4  'x, -y, z'
loop_
 _atom_site_type_symbol
 _atom_site_label
 _atom_site_symmetry_multiplicity
 _atom_site_fract_x
 _atom_site_fract_y
 _atom_site_fract_z
 _atom_site_occupancy
  Zr  Zr0  4  0.25000000  0.25000000  0.87069000  1.0
  Zr  Zr1  4  0.25183000  0.25049000  0.04456000  1.0
  Zr  Zr2  2  0.24866000  0.50000000  0.13251000  1.0
  Zr  Zr3  2  0.25000000  0.00000000  0.95690000  1.0
  Zr  Zr4  2  0.25000000  0.50000000  0.95690000  1.0
  Zr  Zr5  2  0.30173000  0.00000000  0.13551000  1.0
  Os  Os6  2  0.00000000  0.23981000  0.12142000  1.0
  Os  Os7  2  0.00000000  0.25000000  0.95690000  1.0
  Os  Os8  2  0.50000000  0.25000000  0.95690000  1.0
  Os  Os9  2  0.50000000  0.26658000  0.12437000  1.0
  Os  Os10  1  0.00000000  0.00000000  0.04442000  1.0
  Os  Os11  1  0.00000000  0.00000000  0.87069000  1.0
  Os  Os12  1  0.00000000  0.50000000  0.04506000  1.0
  Os  Os13  1  0.00000000  0.50000000  0.87069000  1.0
  Os  Os14  1  0.50000000  0.00000000  0.04347000  1.0
  Os  Os15  1  0.50000000  0.00000000  0.87069000  1.0
  Os  Os16  1  0.50000000  0.50000000  0.04296000  1.0
  Os  Os17  1  0.50000000  0.50000000  0.87069000  1.0
  C  C18  1  0.00000000  0.00000000  0.12521000  1.0
