# generated using pymatgen
data_Li4Al4In4Pd4CO
_symmetry_space_group_name_H-M   P1
_cell_length_a   6.39489000
_cell_length_b   6.39489000
_cell_length_c   24.79620000
_cell_angle_alpha   90.00000000
_cell_angle_beta   90.00000000
_cell_angle_gamma   90.00000000
_symmetry_Int_Tables_number   1
_chemical_formula_structural   Li4Al4In4Pd4CO
_chemical_formula_sum   'Li4 Al4 In4 Pd4 C1 O1'
_cell_volume   1014.03112963
_cell_formula_units_Z   1
loop_
 _symmetry_equiv_pos_site_id
 _symmetry_equiv_pos_as_xyz
  1  'x, y, z'
loop_
 _atom_site_type_symbol
 _atom_site_label
 _atom_site_symmetry_multiplicity
 _atom_site_fract_x
 _atom_site_fract_y
 _atom_site_fract_z
 _atom_site_occupancy
  Li  Li0  1  0.25000000  0.25000000  0.90329000  1.0
  Li  Li1  1  0.27128000  0.77128000  0.03727000  1.0
  Li  Li2  1  0.72872000  0.22874000  0.03727000  1.0
  Li  Li3  1  0.75000000  0.75000000  0.90329000  1.0
  Al  Al4  1  0.00000000  0.00000000  0.09340000  1.0
  Al  Al5  1  0.00000000  0.50000000  0.96776000  1.0
  Al  Al6  1  0.50000000  0.00000000  0.96776000  1.0
  Al  Al7  1  0.50003000  0.50000000  0.09340000  1.0
  In  In8  1  0.00000000  0.00000000  0.96776000  1.0
  In  In9  1  0.00023000  0.49991000  0.09639000  1.0
  In  In10  1  0.50000000  0.50000000  0.96776000  1.0
  In  In11  1  0.50006000  0.99999000  0.13183000  1.0
  Pd  Pd12  1  0.25000000  0.75000000  0.90329000  1.0
  Pd  Pd13  1  0.26999000  0.23001000  0.03548000  1.0
  Pd  Pd14  1  0.73007000  0.76992000  0.03549000  1.0
  Pd  Pd15  1  0.75000000  0.25000000  0.90329000  1.0
  C  C16  1  0.99928000  0.49998000  0.22380000  1.0
  O  O17  1  0.00018000  0.50003000  0.26957000  1.0
