# generated using pymatgen
data_Y8In8Cu8Sn8CO
_symmetry_space_group_name_H-M   'P 1'
_cell_length_a   8.84740000
_cell_length_b   9.14612000
_cell_length_c   26.62140000
_cell_angle_alpha   90.00000000
_cell_angle_beta   90.00000000
_cell_angle_gamma   90.00000000
_symmetry_Int_Tables_number   1
_chemical_formula_structural   Y8In8Cu8Sn8CO
_chemical_formula_sum   'Y8 In8 Cu8 Sn8 C1 O1'
_cell_volume   2154.18723832
_cell_formula_units_Z   1
loop_
 _symmetry_equiv_pos_site_id
 _symmetry_equiv_pos_as_xyz
  1  'x, y, z'
loop_
 _atom_site_type_symbol
 _atom_site_label
 _atom_site_symmetry_multiplicity
 _atom_site_fract_x
 _atom_site_fract_y
 _atom_site_fract_z
 _atom_site_occupancy
  Y  Y0  1  0.50000000  0.24793000  0.04343000  1.0
  Y  Y1  1  0.50000000  0.25000000  0.87564000  1.0
  Y  Y2  1  0.50000000  0.75207000  0.04343000  1.0
  Y  Y3  1  0.50000000  0.75000000  0.87564000  1.0
  Y  Y4  1  0.00000000  0.24376000  0.04408000  1.0
  Y  Y5  1  0.00000000  0.25000000  0.87564000  1.0
  Y  Y6  1  0.00000000  0.75624000  0.04408000  1.0
  Y  Y7  1  0.00000000  0.75000000  0.87564000  1.0
  In  In8  1  0.74325000  0.00000000  0.06313000  1.0
  In  In9  1  0.75001000  0.00000000  0.87564000  1.0
  In  In10  1  0.75130000  0.50000000  0.04003000  1.0
  In  In11  1  0.75001000  0.50000000  0.87564000  1.0
  In  In12  1  0.25675000  0.00000000  0.06313000  1.0
  In  In13  1  0.24999000  0.00000000  0.87564000  1.0
  In  In14  1  0.24870000  0.50000000  0.04003000  1.0
  In  In15  1  0.24999000  0.50000000  0.87564000  1.0
  Cu  Cu16  1  0.50000000  0.00000000  0.12723000  1.0
  Cu  Cu17  1  0.50000000  0.00000000  0.95855000  1.0
  Cu  Cu18  1  0.50000000  0.50000000  0.11883000  1.0
  Cu  Cu19  1  0.50000000  0.50000000  0.95855000  1.0
  Cu  Cu20  1  0.00000000  0.00000000  0.11741000  1.0
  Cu  Cu21  1  0.00000000  0.00000000  0.95855000  1.0
  Cu  Cu22  1  0.00000000  0.50000000  0.11816000  1.0
  Cu  Cu23  1  0.00000000  0.50000000  0.95855000  1.0
  Sn  Sn24  1  0.74858000  0.30558000  0.13490000  1.0
  Sn  Sn25  1  0.75001000  0.25000000  0.95855000  1.0
  Sn  Sn26  1  0.74858000  0.69442000  0.13490000  1.0
  Sn  Sn27  1  0.75001000  0.75000000  0.95855000  1.0
  Sn  Sn28  1  0.25142000  0.30558000  0.13490000  1.0
  Sn  Sn29  1  0.24999000  0.25000000  0.95855000  1.0
  Sn  Sn30  1  0.25142000  0.69442000  0.13490000  1.0
  Sn  Sn31  1  0.24999000  0.75000000  0.95855000  1.0
  C  C32  1  0.50000000  0.00000000  0.19803000  1.0
  O  O33  1  0.50000000  0.00000000  0.24110000  1.0
