# generated using pymatgen
data_Li8In8Cu8Pt8C
_symmetry_space_group_name_H-M   'P 1'
_cell_length_a   8.95862000
_cell_length_b   6.33470000
_cell_length_c   26.71900000
_cell_angle_alpha   90.00000000
_cell_angle_beta   90.00000000
_cell_angle_gamma   90.00000000
_symmetry_Int_Tables_number   1
_chemical_formula_structural   Li8In8Cu8Pt8C
_chemical_formula_sum   'Li8 In8 Cu8 Pt8 C1'
_cell_volume   1516.30779528
_cell_formula_units_Z   1
loop_
 _symmetry_equiv_pos_site_id
 _symmetry_equiv_pos_as_xyz
  1  'x, y, z'
loop_
 _atom_site_type_symbol
 _atom_site_label
 _atom_site_symmetry_multiplicity
 _atom_site_fract_x
 _atom_site_fract_y
 _atom_site_fract_z
 _atom_site_occupancy
  Li  Li0  1  0.75000000  0.75000000  0.04191000  1.0
  Li  Li1  1  0.25000000  0.75000000  0.04191000  1.0
  Li  Li2  1  0.00000000  0.25000000  0.12573000  1.0
  Li  Li3  1  0.50000000  0.25000000  0.12573000  1.0
  Li  Li4  1  0.27515000  0.70529000  0.86669000  1.0
  Li  Li5  1  0.72485000  0.70529000  0.86669000  1.0
  Li  Li6  1  0.50000000  0.24840000  0.96498000  1.0
  Li  Li7  1  0.00000000  0.20044000  0.94832000  1.0
  In  In8  1  0.00000000  1.00000000  0.04191000  1.0
  In  In9  1  0.50000000  0.00000000  0.04191000  1.0
  In  In10  1  0.25000000  0.50000000  0.12573000  1.0
  In  In11  1  0.75000000  0.50000000  0.12573000  1.0
  In  In12  1  0.50000000  0.02734000  0.87276000  1.0
  In  In13  1  0.00000000  0.90438000  0.84304000  1.0
  In  In14  1  0.75652000  0.49740000  0.95779000  1.0
  In  In15  1  0.24348000  0.49740000  0.95779000  1.0
  Cu  Cu16  1  0.75000000  0.00000000  0.12573000  1.0
  Cu  Cu17  1  0.25000000  0.00000000  0.12573000  1.0
  Cu  Cu18  1  0.50000000  0.50000000  0.04191000  1.0
  Cu  Cu19  1  0.00000000  0.50000000  0.04191000  1.0
  Cu  Cu20  1  0.25591000  0.98674000  0.95812000  1.0
  Cu  Cu21  1  0.74409000  0.98674000  0.95812000  1.0
  Cu  Cu22  1  0.00000000  0.53161000  0.87935000  1.0
  Cu  Cu23  1  0.50000000  0.44212000  0.88694000  1.0
  Pt  Pt24  1  0.75000000  0.25000000  0.04191000  1.0
  Pt  Pt25  1  0.25000000  0.25000000  0.04191000  1.0
  Pt  Pt26  1  0.00000000  0.75000000  0.12573000  1.0
  Pt  Pt27  1  0.50000000  0.75000000  0.12573000  1.0
  Pt  Pt28  1  0.21806000  0.22617000  0.87630000  1.0
  Pt  Pt29  1  0.78194000  0.22617000  0.87630000  1.0
  Pt  Pt30  1  0.50000000  0.74411000  0.95535000  1.0
  Pt  Pt31  1  0.00000000  0.76851000  0.95795000  1.0
  C  C32  1  0.00000000  0.24794000  0.85945000  1.0
