# generated using pymatgen
data_Fe8Co16Ge8CO
_symmetry_space_group_name_H-M   Pm
_cell_length_a   5.76795000
_cell_length_b   8.15711000
_cell_length_c   26.11780000
_cell_angle_alpha   90.00000000
_cell_angle_beta   90.00000000
_cell_angle_gamma   90.00000000
_symmetry_Int_Tables_number   6
_chemical_formula_structural   Fe8Co16Ge8CO
_chemical_formula_sum   'Fe8 Co16 Ge8 C1 O1'
_cell_volume   1228.83733499
_cell_formula_units_Z   1
loop_
 _symmetry_equiv_pos_site_id
 _symmetry_equiv_pos_as_xyz
  1  'x, y, z'
  2  'x, -y, z'
loop_
 _atom_site_type_symbol
 _atom_site_label
 _atom_site_symmetry_multiplicity
 _atom_site_fract_x
 _atom_site_fract_y
 _atom_site_fract_z
 _atom_site_occupancy
  Fe  Fe0  2  0.49751000  0.25878000  0.11803000  1.0
  Fe  Fe1  2  0.50000000  0.24999000  0.96096000  1.0
  Fe  Fe2  1  0.00000000  0.00000000  0.88288000  1.0
  Fe  Fe3  1  0.00000000  0.50000000  0.88288000  1.0
  Fe  Fe4  1  0.99812000  0.00000000  0.03980000  1.0
  Fe  Fe5  1  0.99889000  0.50000000  0.03803000  1.0
  Co  Co6  2  0.24786000  0.24883000  0.03929000  1.0
  Co  Co7  2  0.25000000  0.24999000  0.88288000  1.0
  Co  Co8  2  0.74971000  0.24885000  0.03931000  1.0
  Co  Co9  2  0.75000000  0.25001000  0.88288000  1.0
  Co  Co10  1  0.23569000  0.50000000  0.11230000  1.0
  Co  Co11  1  0.25000000  0.00000000  0.96096000  1.0
  Co  Co12  1  0.25000000  0.50000000  0.96096000  1.0
  Co  Co13  1  0.26613000  0.00000000  0.11316000  1.0
  Co  Co14  1  0.72833000  0.00000000  0.11361000  1.0
  Co  Co15  1  0.75000000  0.00000000  0.96096000  1.0
  Co  Co16  1  0.75000000  0.50000000  0.96096000  1.0
  Co  Co17  1  0.76026000  0.50000000  0.11220000  1.0
  Ge  Ge18  2  0.00000000  0.25001000  0.96096000  1.0
  Ge  Ge19  2  0.99766000  0.24308000  0.12144000  1.0
  Ge  Ge20  1  0.49861000  0.50000000  0.03936000  1.0
  Ge  Ge21  1  0.49892000  0.00000000  0.03701000  1.0
  Ge  Ge22  1  0.50000000  0.00000000  0.88288000  1.0
  Ge  Ge23  1  0.50000000  0.50000000  0.88288000  1.0
  C  C24  1  0.49573000  0.00000000  0.16760000  1.0
  O  O25  1  0.49244000  0.00000000  0.21316000  1.0
