data_image0
_chemical_formula_structural       Li8Sc8Al8In8CO
_chemical_formula_sum              "Li8 Sc8 Al8 In8 C1 O1"
_cell_length_a       8.49254
_cell_length_b       8.71362
_cell_length_c       26.2804
_cell_angle_alpha    90
_cell_angle_beta     90
_cell_angle_gamma    90

_space_group_name_H-M_alt    "P 1"
_space_group_IT_number       1

loop_
  _space_group_symop_operation_xyz
  'x, y, z'

loop_
  _atom_site_type_symbol
  _atom_site_label
  _atom_site_symmetry_multiplicity
  _atom_site_fract_x
  _atom_site_fract_y
  _atom_site_fract_z
  _atom_site_occupancy
  Li  Li1       1.0  0.25000  0.25000  0.13299  1.0000
  Li  Li2       1.0  0.25000  0.25000  0.96017  1.0000
  Li  Li3       1.0  0.25000  0.75000  0.12973  1.0000
  Li  Li4       1.0  0.25000  0.75000  0.96017  1.0000
  Li  Li5       1.0  0.75000  0.24999  0.13074  1.0000
  Li  Li6       1.0  0.75000  0.25000  0.96017  1.0000
  Li  Li7       1.0  0.75000  0.75000  0.12975  1.0000
  Li  Li8       1.0  0.75000  0.75000  0.96017  1.0000
  Sc  Sc1       1.0  0.25001  0.99891  0.04124  1.0000
  Sc  Sc2       1.0  0.25000  0.00000  0.88051  1.0000
  Sc  Sc3       1.0  0.25000  0.50107  0.04122  1.0000
  Sc  Sc4       1.0  0.25000  0.50000  0.88051  1.0000
  Sc  Sc5       1.0  0.75000  0.00019  0.04155  1.0000
  Sc  Sc6       1.0  0.75000  0.00000  0.88051  1.0000
  Sc  Sc7       1.0  0.75000  0.49981  0.04156  1.0000
  Sc  Sc8       1.0  0.75000  0.50000  0.88051  1.0000
  Al  Al1       1.0  0.00043  0.00134  0.11782  1.0000
  Al  Al2       1.0  0.00000  0.00000  0.96017  1.0000
  Al  Al3       1.0  0.00043  0.49866  0.11782  1.0000
  Al  Al4       1.0  0.00000  0.50000  0.96017  1.0000
  Al  Al5       1.0  0.49958  0.00134  0.11782  1.0000
  Al  Al6       1.0  0.50000  0.00000  0.96017  1.0000
  Al  Al7       1.0  0.49957  0.49866  0.11782  1.0000
  Al  Al8       1.0  0.50000  0.50000  0.96017  1.0000
  In  In1       1.0  0.00087  0.25000  0.04228  1.0000
  In  In2       1.0  0.00000  0.25000  0.88051  1.0000
  In  In3       1.0  0.99895  0.75000  0.04247  1.0000
  In  In4       1.0  0.00000  0.75000  0.88051  1.0000
  In  In5       1.0  0.49913  0.25000  0.04228  1.0000
  In  In6       1.0  0.50000  0.25000  0.88051  1.0000
  In  In7       1.0  0.50106  0.75001  0.04247  1.0000
  In  In8       1.0  0.50000  0.75000  0.88051  1.0000
  C   C1        1.0  0.24999  0.24999  0.21242  1.0000
  O   O1        1.0  0.24998  0.25000  0.25590  1.0000
