# generated using pymatgen
data_Li8Sc8Al8In8CO
_symmetry_space_group_name_H-M   Pmm2
_cell_length_a   8.49254000
_cell_length_b   8.71362000
_cell_length_c   26.28040000
_cell_angle_alpha   90.00000000
_cell_angle_beta   90.00000000
_cell_angle_gamma   90.00000000
_symmetry_Int_Tables_number   25
_chemical_formula_structural   Li8Sc8Al8In8CO
_chemical_formula_sum   'Li8 Sc8 Al8 In8 C1 O1'
_cell_volume   1944.76974116
_cell_formula_units_Z   1
loop_
 _symmetry_equiv_pos_site_id
 _symmetry_equiv_pos_as_xyz
  1  'x, y, z'
  2  '-x, -y, z'
  3  '-x, y, z'
  4  'x, -y, z'
loop_
 _atom_site_type_symbol
 _atom_site_label
 _atom_site_symmetry_multiplicity
 _atom_site_fract_x
 _atom_site_fract_y
 _atom_site_fract_z
 _atom_site_occupancy
  Li  Li0  1  0.00000000  0.00000000  0.13299000  1.0
  Li  Li1  1  0.00000000  0.00000000  0.96017000  1.0
  Li  Li2  1  0.00000000  0.50000000  0.12973000  1.0
  Li  Li3  1  0.00000000  0.50000000  0.96017000  1.0
  Li  Li4  1  0.50000000  0.00000000  0.13074000  1.0
  Li  Li5  1  0.50000000  0.00000000  0.96017000  1.0
  Li  Li6  1  0.50000000  0.50000000  0.12975000  1.0
  Li  Li7  1  0.50000000  0.50000000  0.96017000  1.0
  Sc  Sc8  2  0.00000000  0.24999000  0.88051000  1.0
  Sc  Sc9  2  0.00000000  0.25108000  0.04124000  1.0
  Sc  Sc10  2  0.50000000  0.24980000  0.04155000  1.0
  Sc  Sc11  2  0.50000000  0.24999000  0.88051000  1.0
  Al  Al12  4  0.24956000  0.24865000  0.11782000  1.0
  Al  Al13  4  0.24999000  0.24999000  0.96017000  1.0
  In  In14  2  0.24912000  0.00000000  0.04228000  1.0
  In  In15  2  0.24999000  0.00000000  0.88051000  1.0
  In  In16  2  0.24999000  0.50000000  0.88051000  1.0
  In  In17  2  0.25104000  0.50000000  0.04247000  1.0
  C  C18  1  0.00000000  0.00000000  0.21242000  1.0
  O  O19  1  0.00000000  0.00000000  0.25590000  1.0
