# generated using pymatgen
data_Fe4Co8Ge4CO
_symmetry_space_group_name_H-M   'P 1'
_cell_length_a   5.76795000
_cell_length_b   5.76795000
_cell_length_c   24.32600000
_cell_angle_alpha   90.00000000
_cell_angle_beta   90.00000000
_cell_angle_gamma   90.00000000
_symmetry_Int_Tables_number   1
_chemical_formula_structural   Fe4Co8Ge4CO
_chemical_formula_sum   'Fe4 Co8 Ge4 C1 O1'
_cell_volume   809.30770745
_cell_formula_units_Z   1
loop_
 _symmetry_equiv_pos_site_id
 _symmetry_equiv_pos_as_xyz
  1  'x, y, z'
loop_
 _atom_site_type_symbol
 _atom_site_label
 _atom_site_symmetry_multiplicity
 _atom_site_fract_x
 _atom_site_fract_y
 _atom_site_fract_z
 _atom_site_occupancy
  Fe  Fe0  1  0.00000000  0.00002000  0.91360000  1.0
  Fe  Fe1  1  0.50000000  0.50000000  0.91359000  1.0
  Fe  Fe2  1  0.00000000  0.50000000  0.02964000  1.0
  Fe  Fe3  1  0.50000000  0.00000000  0.02964000  1.0
  Co  Co4  1  0.24895000  0.25096000  0.96737000  1.0
  Co  Co5  1  0.74996000  0.75000000  0.08892000  1.0
  Co  Co6  1  0.24893000  0.74901000  0.96740000  1.0
  Co  Co7  1  0.74996000  0.25000000  0.08892000  1.0
  Co  Co8  1  0.75107000  0.74901000  0.96740000  1.0
  Co  Co9  1  0.25004000  0.25000000  0.08892000  1.0
  Co  Co10  1  0.75105000  0.25096000  0.96737000  1.0
  Co  Co11  1  0.25004000  0.75000000  0.08892000  1.0
  Ge  Ge12  1  0.00000000  0.00000000  0.02964000  1.0
  Ge  Ge13  1  0.00000000  0.50003000  0.90497000  1.0
  Ge  Ge14  1  0.50000000  0.99997000  0.91194000  1.0
  Ge  Ge15  1  0.50000000  0.50000000  0.02964000  1.0
  C  C16  1  0.50000000  0.00008000  0.82923000  1.0
  O  O17  1  0.50000000  0.99999000  0.78168000  1.0
