# generated using pymatgen
data_Li2AgBi
_symmetry_space_group_name_H-M   'P 1'
_cell_length_a   6.92564000
_cell_length_b   4.89716500
_cell_length_c   27.34580000
_cell_angle_alpha   90.00000000
_cell_angle_beta   90.00000000
_cell_angle_gamma   90.00000000
_symmetry_Int_Tables_number   1
_chemical_formula_structural   Li2AgBi
_chemical_formula_sum   'Li8 Ag4 Bi4'
_cell_volume   927.46020231
_cell_formula_units_Z   4
loop_
 _symmetry_equiv_pos_site_id
 _symmetry_equiv_pos_as_xyz
  1  'x, y, z'
loop_
 _atom_site_type_symbol
 _atom_site_label
 _atom_site_symmetry_multiplicity
 _atom_site_fract_x
 _atom_site_fract_y
 _atom_site_fract_z
 _atom_site_occupancy
  Li  Li0  1  0.00000000  0.50000000  0.95523000  1.0
  Li  Li1  1  0.50000000  0.00000000  0.86569000  1.0
  Li  Li2  1  0.75000000  0.00000000  0.95523000  1.0
  Li  Li3  1  0.25000000  0.50000000  0.86569000  1.0
  Li  Li4  1  0.03149500  0.50000000  0.12529000  1.0
  Li  Li5  1  0.51043000  0.00000000  0.03886500  1.0
  Li  Li6  1  0.70925500  0.00000000  0.12963000  1.0
  Li  Li7  1  0.27492000  0.50000000  0.04729000  1.0
  Ag  Ag8  1  0.75000000  0.50000000  0.86569000  1.0
  Ag  Ag9  1  0.25000000  0.00000000  0.95523000  1.0
  Ag  Ag10  1  0.72386000  0.50000000  0.05344000  1.0
  Ag  Ag11  1  0.28357500  0.00000000  0.12127500  1.0
  Bi  Bi12  1  0.00000000  0.00000000  0.86569000  1.0
  Bi  Bi13  1  0.50000000  0.50000000  0.95523000  1.0
  Bi  Bi14  1  0.98696500  0.00000000  0.04599500  1.0
  Bi  Bi15  1  0.49224000  0.50000000  0.14586500  1.0
