# generated using pymatgen
data_Hf8Al8Ni16CO
_symmetry_space_group_name_H-M   Pmm2
_cell_length_a   6.09904000
_cell_length_b   8.62534000
_cell_length_c   26.46900000
_cell_angle_alpha   90.00000000
_cell_angle_beta   90.00000000
_cell_angle_gamma   90.00000000
_symmetry_Int_Tables_number   25
_chemical_formula_structural   Hf8Al8Ni16CO
_chemical_formula_sum   'Hf8 Al8 Ni16 C1 O1'
_cell_volume   1392.43598725
_cell_formula_units_Z   1
loop_
 _symmetry_equiv_pos_site_id
 _symmetry_equiv_pos_as_xyz
  1  'x, y, z'
  2  '-x, -y, z'
  3  '-x, y, z'
  4  'x, -y, z'
loop_
 _atom_site_type_symbol
 _atom_site_label
 _atom_site_symmetry_multiplicity
 _atom_site_fract_x
 _atom_site_fract_y
 _atom_site_fract_z
 _atom_site_occupancy
  Hf  Hf0  2  0.00000000  0.25000000  0.87780000  1.0
  Hf  Hf1  2  0.00000000  0.25082000  0.04002000  1.0
  Hf  Hf2  1  0.50000000  0.00000000  0.12517000  1.0
  Hf  Hf3  1  0.50000000  0.00000000  0.95927000  1.0
  Hf  Hf4  1  0.50000000  0.50000000  0.12543000  1.0
  Hf  Hf5  1  0.50000000  0.50000000  0.95927000  1.0
  Al  Al6  2  0.50000000  0.24996000  0.04178000  1.0
  Al  Al7  2  0.50000000  0.25000000  0.87780000  1.0
  Al  Al8  1  0.00000000  0.00000000  0.12100000  1.0
  Al  Al9  1  0.00000000  0.00000000  0.95927000  1.0
  Al  Al10  1  0.00000000  0.50000000  0.12106000  1.0
  Al  Al11  1  0.00000000  0.50000000  0.95927000  1.0
  Ni  Ni12  4  0.24445000  0.25169000  0.11700000  1.0
  Ni  Ni13  4  0.25000000  0.25000000  0.95927000  1.0
  Ni  Ni14  2  0.25000000  0.00000000  0.87780000  1.0
  Ni  Ni15  2  0.25000000  0.50000000  0.87780000  1.0
  Ni  Ni16  2  0.26316000  0.00000000  0.04387000  1.0
  Ni  Ni17  2  0.26574000  0.50000000  0.04264000  1.0
  C  C18  1  0.00000000  0.00000000  0.19662000  1.0
  O  O19  1  0.00000000  0.00000000  0.24035000  1.0
