# generated using pymatgen
data_Li8Ga4Rh4CO
_symmetry_space_group_name_H-M   Cm
_cell_length_a   8.53335049
_cell_length_b   8.53335049
_cell_length_c   24.52550000
_cell_angle_alpha   90.00000000
_cell_angle_beta   90.00000000
_cell_angle_gamma   90.00000000
_symmetry_Int_Tables_number   8
_chemical_formula_structural   Li8Ga4Rh4CO
_chemical_formula_sum   'Li16 Ga8 Rh8 C2 O2'
_cell_volume   1785.89959149
_cell_formula_units_Z   2
loop_
 _symmetry_equiv_pos_site_id
 _symmetry_equiv_pos_as_xyz
  1  'x, y, z'
  2  'x, -y, z'
  3  'x+1/2, y+1/2, z'
  4  'x+1/2, -y+1/2, z'
loop_
 _atom_site_type_symbol
 _atom_site_label
 _atom_site_symmetry_multiplicity
 _atom_site_fract_x
 _atom_site_fract_y
 _atom_site_fract_z
 _atom_site_occupancy
  Li  Li0  4  0.00000000  0.25000000  0.96925000  1.0
  Li  Li1  4  0.25000000  0.25000000  0.90774000  1.0
  Li  Li2  2  0.00146500  0.00000000  0.02593000  1.0
  Li  Li3  2  0.24923000  0.50000000  0.10468000  1.0
  Li  Li4  2  0.25046000  0.00000000  0.10905000  1.0
  Li  Li5  2  0.49870000  0.00000000  0.02626000  1.0
  Ga  Ga6  4  0.49999500  0.24968500  0.08894000  1.0
  Ga  Ga7  2  0.25000000  0.00000000  0.96925000  1.0
  Ga  Ga8  2  0.25000000  0.50000000  0.96925000  1.0
  Rh  Rh9  4  0.24996000  0.25109000  0.03597000  1.0
  Rh  Rh10  2  0.00000000  0.00000000  0.90774000  1.0
  Rh  Rh11  2  0.00000000  0.50000000  0.90774000  1.0
  C  C12  2  0.24964000  0.00000000  0.19554000  1.0
  O  O13  2  0.24914000  0.00000000  0.24209000  1.0
