data_image0
_chemical_formula_structural       Hf8Al8Cu16CO
_chemical_formula_sum              "Hf8 Al8 Cu16 C1 O1"
_cell_length_a       6.21964
_cell_length_b       8.79589
_cell_length_c       26.5969
_cell_angle_alpha    90
_cell_angle_beta     90
_cell_angle_gamma    90

_space_group_name_H-M_alt    "P 1"
_space_group_IT_number       1

loop_
  _space_group_symop_operation_xyz
  'x, y, z'

loop_
  _atom_site_type_symbol
  _atom_site_label
  _atom_site_symmetry_multiplicity
  _atom_site_fract_x
  _atom_site_fract_y
  _atom_site_fract_z
  _atom_site_occupancy
  Hf  Hf1       1.0  0.00000  0.00000  0.87598  1.0000
  Hf  Hf2       1.0  0.50000  0.25000  0.95866  1.0000
  Hf  Hf3       1.0  0.50000  0.75000  0.95866  1.0000
  Hf  Hf4       1.0  0.00000  0.50000  0.87598  1.0000
  Hf  Hf5       1.0  0.99648  0.50526  0.04242  1.0000
  Hf  Hf6       1.0  0.48201  0.78090  0.13555  1.0000
  Hf  Hf7       1.0  0.48177  0.22714  0.12907  1.0000
  Hf  Hf8       1.0  0.01118  0.99826  0.04313  1.0000
  Al  Al1       1.0  0.00000  0.75000  0.95866  1.0000
  Al  Al2       1.0  0.50000  0.00000  0.87598  1.0000
  Al  Al3       1.0  0.00000  0.25000  0.95866  1.0000
  Al  Al4       1.0  0.50000  0.50000  0.87598  1.0000
  Al  Al5       1.0  0.99134  0.27055  0.12246  1.0000
  Al  Al6       1.0  0.49872  0.49875  0.04021  1.0000
  Al  Al7       1.0  0.99566  0.74643  0.12117  1.0000
  Al  Al8       1.0  0.50089  0.00187  0.04120  1.0000
  Cu  Cu1       1.0  0.25000  0.00000  0.95866  1.0000
  Cu  Cu2       1.0  0.75000  0.50000  0.95866  1.0000
  Cu  Cu3       1.0  0.75000  0.00000  0.95866  1.0000
  Cu  Cu4       1.0  0.25000  0.50000  0.95866  1.0000
  Cu  Cu5       1.0  0.75000  0.75000  0.87598  1.0000
  Cu  Cu6       1.0  0.25000  0.25000  0.87598  1.0000
  Cu  Cu7       1.0  0.25000  0.75000  0.87598  1.0000
  Cu  Cu8       1.0  0.75000  0.25000  0.87598  1.0000
  Cu  Cu9       1.0  0.27000  0.50788  0.12417  1.0000
  Cu  Cu10      1.0  0.77638  0.01259  0.12486  1.0000
  Cu  Cu11      1.0  0.71147  0.50854  0.12325  1.0000
  Cu  Cu12      1.0  0.16986  0.01541  0.13906  1.0000
  Cu  Cu13      1.0  0.74179  0.24962  0.04287  1.0000
  Cu  Cu14      1.0  0.26943  0.74834  0.04437  1.0000
  Cu  Cu15      1.0  0.25381  0.25321  0.04140  1.0000
  Cu  Cu16      1.0  0.72554  0.75171  0.04694  1.0000
  C   C1        1.0  0.48389  0.02390  0.17152  1.0000
  O   O1        1.0  0.49761  0.89900  0.20067  1.0000
