# generated using pymatgen
data_Hf8Al8Cu16CO
_symmetry_space_group_name_H-M   P1
_cell_length_a   6.21964000
_cell_length_b   8.79589000
_cell_length_c   26.59690000
_cell_angle_alpha   90.00000000
_cell_angle_beta   90.00000000
_cell_angle_gamma   90.00000000
_symmetry_Int_Tables_number   1
_chemical_formula_structural   Hf8Al8Cu16CO
_chemical_formula_sum   'Hf8 Al8 Cu16 C1 O1'
_cell_volume   1455.04377030
_cell_formula_units_Z   1
loop_
 _symmetry_equiv_pos_site_id
 _symmetry_equiv_pos_as_xyz
  1  'x, y, z'
loop_
 _atom_site_type_symbol
 _atom_site_label
 _atom_site_symmetry_multiplicity
 _atom_site_fract_x
 _atom_site_fract_y
 _atom_site_fract_z
 _atom_site_occupancy
  Hf  Hf0  1  0.00000000  0.00000000  0.87598000  1.0
  Hf  Hf1  1  0.00000000  0.50000000  0.87598000  1.0
  Hf  Hf2  1  0.01118000  0.99826000  0.04313000  1.0
  Hf  Hf3  1  0.48177000  0.22714000  0.12907000  1.0
  Hf  Hf4  1  0.48201000  0.78090000  0.13555000  1.0
  Hf  Hf5  1  0.50000000  0.25000000  0.95866000  1.0
  Hf  Hf6  1  0.50000000  0.75000000  0.95866000  1.0
  Hf  Hf7  1  0.99648000  0.50526000  0.04242000  1.0
  Al  Al8  1  0.00000000  0.25000000  0.95866000  1.0
  Al  Al9  1  0.00000000  0.75000000  0.95866000  1.0
  Al  Al10  1  0.49872000  0.49875000  0.04021000  1.0
  Al  Al11  1  0.50000000  0.00000000  0.87598000  1.0
  Al  Al12  1  0.50000000  0.50000000  0.87598000  1.0
  Al  Al13  1  0.50089000  0.00187000  0.04120000  1.0
  Al  Al14  1  0.99134000  0.27055000  0.12246000  1.0
  Al  Al15  1  0.99566000  0.74643000  0.12117000  1.0
  Cu  Cu16  1  0.16986000  0.01541000  0.13906000  1.0
  Cu  Cu17  1  0.25000000  0.00000000  0.95866000  1.0
  Cu  Cu18  1  0.25000000  0.25000000  0.87598000  1.0
  Cu  Cu19  1  0.25000000  0.50000000  0.95866000  1.0
  Cu  Cu20  1  0.25000000  0.75000000  0.87598000  1.0
  Cu  Cu21  1  0.25381000  0.25321000  0.04140000  1.0
  Cu  Cu22  1  0.26943000  0.74834000  0.04437000  1.0
  Cu  Cu23  1  0.27000000  0.50788000  0.12417000  1.0
  Cu  Cu24  1  0.71147000  0.50854000  0.12325000  1.0
  Cu  Cu25  1  0.72554000  0.75171000  0.04694000  1.0
  Cu  Cu26  1  0.74179000  0.24962000  0.04287000  1.0
  Cu  Cu27  1  0.75000000  0.00000000  0.95866000  1.0
  Cu  Cu28  1  0.75000000  0.25000000  0.87598000  1.0
  Cu  Cu29  1  0.75000000  0.50000000  0.95866000  1.0
  Cu  Cu30  1  0.75000000  0.75000000  0.87598000  1.0
  Cu  Cu31  1  0.77638000  0.01259000  0.12486000  1.0
  C  C32  1  0.48389000  0.02390000  0.17152000  1.0
  O  O33  1  0.49761000  0.89900000  0.20067000  1.0
