# generated using pymatgen
data_Hf8Ni16Sn8CO
_symmetry_space_group_name_H-M   'P 1'
_cell_length_a   8.90130000
_cell_length_b   6.29417000
_cell_length_c   26.67600000
_cell_angle_alpha   90.00000000
_cell_angle_beta   90.00000000
_cell_angle_gamma   90.00000000
_symmetry_Int_Tables_number   1
_chemical_formula_structural   Hf8Ni16Sn8CO
_chemical_formula_sum   'Hf8 Ni16 Sn8 C1 O1'
_cell_volume   1494.55745665
_cell_formula_units_Z   1
loop_
 _symmetry_equiv_pos_site_id
 _symmetry_equiv_pos_as_xyz
  1  'x, y, z'
loop_
 _atom_site_type_symbol
 _atom_site_label
 _atom_site_symmetry_multiplicity
 _atom_site_fract_x
 _atom_site_fract_y
 _atom_site_fract_z
 _atom_site_occupancy
  Hf  Hf0  1  0.75004000  0.00000000  0.12513000  1.0
  Hf  Hf1  1  0.00000000  0.50000000  0.04171000  1.0
  Hf  Hf2  1  0.50000000  0.50000000  0.04171000  1.0
  Hf  Hf3  1  0.24996000  0.00000000  0.12513000  1.0
  Hf  Hf4  1  0.24811000  1.00000000  0.95731000  1.0
  Hf  Hf5  1  0.50000000  0.49999000  0.87550000  1.0
  Hf  Hf6  1  0.00000000  0.49999000  0.87513000  1.0
  Hf  Hf7  1  0.75189000  1.00000000  0.95731000  1.0
  Ni  Ni8  1  0.75004000  0.25000000  0.04171000  1.0
  Ni  Ni9  1  0.25004000  0.75000000  0.04171000  1.0
  Ni  Ni10  1  0.74996000  0.75000000  0.04171000  1.0
  Ni  Ni11  1  0.24996000  0.25000000  0.04171000  1.0
  Ni  Ni12  1  0.50000000  0.75000000  0.12513000  1.0
  Ni  Ni13  1  0.00000000  0.25000000  0.12513000  1.0
  Ni  Ni14  1  0.50000000  0.25000000  0.12513000  1.0
  Ni  Ni15  1  0.00000000  0.75000000  0.12513000  1.0
  Ni  Ni16  1  0.24997000  0.26226000  0.87983000  1.0
  Ni  Ni17  1  0.75011000  0.73776000  0.87982000  1.0
  Ni  Ni18  1  0.24989000  0.73776000  0.87982000  1.0
  Ni  Ni19  1  0.75003000  0.26226000  0.87983000  1.0
  Ni  Ni20  1  0.00000000  0.74462000  0.95576000  1.0
  Ni  Ni21  1  0.50000000  0.24107000  0.95466000  1.0
  Ni  Ni22  1  0.00000000  0.25537000  0.95576000  1.0
  Ni  Ni23  1  0.50000000  0.75892000  0.95466000  1.0
  Sn  Sn24  1  0.50000000  0.00000000  0.04171000  1.0
  Sn  Sn25  1  0.75004000  0.50000000  0.12513000  1.0
  Sn  Sn26  1  0.00000000  1.00000000  0.04171000  1.0
  Sn  Sn27  1  0.24996000  0.50000000  0.12513000  1.0
  Sn  Sn28  1  0.00000000  0.99999000  0.86767000  1.0
  Sn  Sn29  1  0.25225000  0.50000000  0.96009000  1.0
  Sn  Sn30  1  0.50000000  0.00000000  0.86610000  1.0
  Sn  Sn31  1  0.74775000  0.50000000  0.96009000  1.0
  C  C32  1  0.00000000  0.00025000  0.71262000  1.0
  O  O33  1  0.00000000  0.99997000  0.67007000  1.0
