# generated using pymatgen
data_Hf8Ni16Sn8CO
_symmetry_space_group_name_H-M   Pm
_cell_length_a   6.29417000
_cell_length_b   8.90130000
_cell_length_c   26.67600000
_cell_angle_alpha   90.00000000
_cell_angle_beta   90.00000000
_cell_angle_gamma   90.00000000
_symmetry_Int_Tables_number   6
_chemical_formula_structural   Hf8Ni16Sn8CO
_chemical_formula_sum   'Hf8 Ni16 Sn8 C1 O1'
_cell_volume   1494.55745665
_cell_formula_units_Z   1
loop_
 _symmetry_equiv_pos_site_id
 _symmetry_equiv_pos_as_xyz
  1  'x, y, z'
  2  'x, -y, z'
loop_
 _atom_site_type_symbol
 _atom_site_label
 _atom_site_symmetry_multiplicity
 _atom_site_fract_x
 _atom_site_fract_y
 _atom_site_fract_z
 _atom_site_occupancy
  Hf  Hf0  2  -0.00000000  0.24811000  0.04269000  1.0
  Hf  Hf1  2  0.00000000  0.24996000  0.87487000  1.0
  Hf  Hf2  1  0.49999000  0.00000000  0.12487000  1.0
  Hf  Hf3  1  0.49999000  0.50000000  0.12450000  1.0
  Hf  Hf4  1  0.50000000  0.00000000  0.95829000  1.0
  Hf  Hf5  1  0.50000000  0.50000000  0.95829000  1.0
  Ni  Ni6  2  0.25000000  0.24996000  0.95829000  1.0
  Ni  Ni7  2  0.26226000  0.24997000  0.12017000  1.0
  Ni  Ni8  2  0.73776000  0.24989000  0.12018000  1.0
  Ni  Ni9  2  0.75000000  0.25004000  0.95829000  1.0
  Ni  Ni10  1  0.24107000  0.50000000  0.04534000  1.0
  Ni  Ni11  1  0.25000000  0.00000000  0.87487000  1.0
  Ni  Ni12  1  0.25000000  0.50000000  0.87487000  1.0
  Ni  Ni13  1  0.25537000  0.00000000  0.04424000  1.0
  Ni  Ni14  1  0.74462000  0.00000000  0.04424000  1.0
  Ni  Ni15  1  0.75000000  0.00000000  0.87487000  1.0
  Ni  Ni16  1  0.75000000  0.50000000  0.87487000  1.0
  Ni  Ni17  1  0.75892000  0.50000000  0.04534000  1.0
  Sn  Sn18  2  0.50000000  0.24996000  0.87487000  1.0
  Sn  Sn19  2  0.50000000  0.25225000  0.03991000  1.0
  Sn  Sn20  1  -0.00000000  0.00000000  0.95829000  1.0
  Sn  Sn21  1  0.00000000  0.50000000  0.95829000  1.0
  Sn  Sn22  1  0.00000000  0.50000000  0.13390000  1.0
  Sn  Sn23  1  0.99999000  0.00000000  0.13233000  1.0
  C  C24  1  0.00025000  0.00000000  0.28738000  1.0
  O  O25  1  0.99997000  0.00000000  0.32993000  1.0
