# generated using pymatgen
data_Li4Y4In4Sn4CO
_symmetry_space_group_name_H-M   'P 1'
_cell_length_a   8.86856000
_cell_length_b   6.50942000
_cell_length_c   24.87900000
_cell_angle_alpha   90.00000000
_cell_angle_beta   90.00000000
_cell_angle_gamma   90.00000000
_symmetry_Int_Tables_number   1
_chemical_formula_structural   Li4Y4In4Sn4CO
_chemical_formula_sum   'Li4 Y4 In4 Sn4 C1 O1'
_cell_volume   1436.24431488
_cell_formula_units_Z   1
loop_
 _symmetry_equiv_pos_site_id
 _symmetry_equiv_pos_as_xyz
  1  'x, y, z'
loop_
 _atom_site_type_symbol
 _atom_site_label
 _atom_site_symmetry_multiplicity
 _atom_site_fract_x
 _atom_site_fract_y
 _atom_site_fract_z
 _atom_site_occupancy
  Li  Li0  1  0.75008000  0.73590000  0.04764000  1.0
  Li  Li1  1  0.74998000  0.27644000  0.90194000  1.0
  Li  Li2  1  0.24992000  0.73590000  0.04764000  1.0
  Li  Li3  1  0.25002000  0.27644000  0.90194000  1.0
  Y  Y4  1  0.75080000  0.24691000  0.03411000  1.0
  Y  Y5  1  0.74998000  0.77644000  0.90194000  1.0
  Y  Y6  1  0.24920000  0.24691000  0.03411000  1.0
  Y  Y7  1  0.25002000  0.77644000  0.90194000  1.0
  In  In8  1  0.00000000  0.97176000  0.09747000  1.0
  In  In9  1  0.00000000  0.51763000  0.96731000  1.0
  In  In10  1  0.50000000  0.97336000  0.09872000  1.0
  In  In11  1  0.50000000  0.51763000  0.96731000  1.0
  Sn  Sn12  1  0.00000000  0.49745000  0.09309000  1.0
  Sn  Sn13  1  0.00000000  0.01763000  0.96731000  1.0
  Sn  Sn14  1  0.50000000  0.49854000  0.09223000  1.0
  Sn  Sn15  1  0.50000000  0.01763000  0.96731000  1.0
  C  C16  1  0.00000000  0.00850000  0.22606000  1.0
  O  O17  1  0.00000000  0.99262000  0.27149000  1.0
