# generated using pymatgen
data_Li4Y4In4Sn4CO
_symmetry_space_group_name_H-M   Pm
_cell_length_a   6.50942000
_cell_length_b   8.86856000
_cell_length_c   24.87900000
_cell_angle_alpha   90.00000000
_cell_angle_beta   90.00000000
_cell_angle_gamma   90.00000000
_symmetry_Int_Tables_number   6
_chemical_formula_structural   Li4Y4In4Sn4CO
_chemical_formula_sum   'Li4 Y4 In4 Sn4 C1 O1'
_cell_volume   1436.24431488
_cell_formula_units_Z   1
loop_
 _symmetry_equiv_pos_site_id
 _symmetry_equiv_pos_as_xyz
  1  'x, y, z'
  2  'x, -y, z'
loop_
 _atom_site_type_symbol
 _atom_site_label
 _atom_site_symmetry_multiplicity
 _atom_site_fract_x
 _atom_site_fract_y
 _atom_site_fract_z
 _atom_site_occupancy
  Li  Li0  2  0.27644000  0.25002000  0.09806000  1.0
  Li  Li1  2  0.73590000  0.24992000  0.95236000  1.0
  Y  Y2  2  0.24691000  0.24920000  0.96589000  1.0
  Y  Y3  2  0.77644000  0.25002000  0.09806000  1.0
  In  In4  1  0.51763000  0.00000000  0.03269000  1.0
  In  In5  1  0.51763000  0.50000000  0.03269000  1.0
  In  In6  1  0.97176000  0.00000000  0.90253000  1.0
  In  In7  1  0.97336000  0.50000000  0.90128000  1.0
  Sn  Sn8  1  0.01763000  0.00000000  0.03269000  1.0
  Sn  Sn9  1  0.01763000  0.50000000  0.03269000  1.0
  Sn  Sn10  1  0.49745000  0.00000000  0.90691000  1.0
  Sn  Sn11  1  0.49854000  0.50000000  0.90777000  1.0
  C  C12  1  0.00850000  0.00000000  0.77394000  1.0
  O  O13  1  0.99262000  0.00000000  0.72851000  1.0
