# generated using pymatgen
data_TiInAu2
_symmetry_space_group_name_H-M   Pmm2
_cell_length_a   4.75247500
_cell_length_b   6.72102000
_cell_length_c   27.12870000
_cell_angle_alpha   90.00000000
_cell_angle_beta   90.00000000
_cell_angle_gamma   90.00000000
_symmetry_Int_Tables_number   25
_chemical_formula_structural   TiInAu2
_chemical_formula_sum   'Ti4 In4 Au8'
_cell_volume   866.53081558
_cell_formula_units_Z   4
loop_
 _symmetry_equiv_pos_site_id
 _symmetry_equiv_pos_as_xyz
  1  'x, y, z'
  2  '-x, -y, z'
  3  '-x, y, z'
  4  'x, -y, z'
loop_
 _atom_site_type_symbol
 _atom_site_label
 _atom_site_symmetry_multiplicity
 _atom_site_fract_x
 _atom_site_fract_y
 _atom_site_fract_z
 _atom_site_occupancy
  Ti  Ti0  1  0.00000000  0.00000000  0.13139000  1.0
  Ti  Ti1  1  0.00000000  0.00000000  0.95536000  1.0
  Ti  Ti2  1  0.50000000  0.50000000  0.04380000  1.0
  Ti  Ti3  1  0.50000000  0.50000000  0.87604500  1.0
  In  In4  1  0.00000000  0.50000000  0.13139000  1.0
  In  In5  1  0.00000000  0.50000000  0.95815000  1.0
  In  In6  1  0.50000000  0.00000000  0.04380000  1.0
  In  In7  1  0.50000000  0.00000000  0.85275500  1.0
  Au  Au8  2  0.00000000  0.25000000  0.04380000  1.0
  Au  Au9  2  0.00000000  0.27155000  0.86674000  1.0
  Au  Au10  2  0.50000000  0.23240500  0.95277000  1.0
  Au  Au11  2  0.50000000  0.25000000  0.13139000  1.0
