# generated using pymatgen
data_ScAg
_symmetry_space_group_name_H-M   'P 1'
_cell_length_a   3.46519000
_cell_length_b   3.46519000
_cell_length_c   25.19780000
_cell_angle_alpha   90.00000000
_cell_angle_beta   90.00000000
_cell_angle_gamma   90.00000000
_symmetry_Int_Tables_number   1
_chemical_formula_structural   ScAg
_chemical_formula_sum   'Sc2 Ag2'
_cell_volume   302.56363516
_cell_formula_units_Z   2
loop_
 _symmetry_equiv_pos_site_id
 _symmetry_equiv_pos_as_xyz
  1  'x, y, z'
loop_
 _atom_site_type_symbol
 _atom_site_label
 _atom_site_symmetry_multiplicity
 _atom_site_fract_x
 _atom_site_fract_y
 _atom_site_fract_z
 _atom_site_occupancy
  Sc  Sc0  1  0.00000000  0.00000000  0.08899000  1.0
  Sc  Sc1  1  0.00000000  0.00000000  0.95147000  1.0
  Ag  Ag2  1  0.50000000  0.50000000  0.02023000  1.0
  Ag  Ag3  1  0.50000000  0.50000000  0.88271000  1.0
