# generated using pymatgen
data_Li4Y4In4Ge4CO
_symmetry_space_group_name_H-M   'P 1'
_cell_length_a   8.57642000
_cell_length_b   6.30439000
_cell_length_c   24.70800000
_cell_angle_alpha   90.00000000
_cell_angle_beta   90.00000000
_cell_angle_gamma   90.00000000
_symmetry_Int_Tables_number   1
_chemical_formula_structural   Li4Y4In4Ge4CO
_chemical_formula_sum   'Li4 Y4 In4 Ge4 C1 O1'
_cell_volume   1335.93923592
_cell_formula_units_Z   1
loop_
 _symmetry_equiv_pos_site_id
 _symmetry_equiv_pos_as_xyz
  1  'x, y, z'
loop_
 _atom_site_type_symbol
 _atom_site_label
 _atom_site_symmetry_multiplicity
 _atom_site_fract_x
 _atom_site_fract_y
 _atom_site_fract_z
 _atom_site_occupancy
  Li  Li0  1  0.24715000  0.77805000  0.94853000  1.0
  Li  Li1  1  0.25000000  0.18066000  0.09527000  1.0
  Li  Li2  1  0.75285000  0.77805000  0.94853000  1.0
  Li  Li3  1  0.75000000  0.18066000  0.09527000  1.0
  Y  Y4  1  0.25080000  0.25350000  0.96484000  1.0
  Y  Y5  1  0.25000000  0.68066000  0.09527000  1.0
  Y  Y6  1  0.74920000  0.25350000  0.96484000  1.0
  Y  Y7  1  0.75000000  0.68066000  0.09527000  1.0
  In  In8  1  0.00000000  0.53860000  0.90136000  1.0
  In  In9  1  0.00000000  0.95378000  0.03176000  1.0
  In  In10  1  0.50000000  0.55029000  0.90300000  1.0
  In  In11  1  0.50000000  0.95378000  0.03176000  1.0
  Ge  Ge12  1  0.00000000  0.00182000  0.90865000  1.0
  Ge  Ge13  1  0.00000000  0.45378000  0.03176000  1.0
  Ge  Ge14  1  0.50000000  0.00274000  0.91686000  1.0
  Ge  Ge15  1  0.50000000  0.45378000  0.03176000  1.0
  C  C16  1  0.00000000  0.00530000  0.82996000  1.0
  O  O17  1  0.00000000  0.00059000  0.78310000  1.0
