# generated using pymatgen
data_Li4Y4In4Ge4CO
_symmetry_space_group_name_H-M   Pm
_cell_length_a   6.30439000
_cell_length_b   8.57642000
_cell_length_c   24.70800000
_cell_angle_alpha   90.00000000
_cell_angle_beta   90.00000000
_cell_angle_gamma   90.00000000
_symmetry_Int_Tables_number   6
_chemical_formula_structural   Li4Y4In4Ge4CO
_chemical_formula_sum   'Li4 Y4 In4 Ge4 C1 O1'
_cell_volume   1335.93923592
_cell_formula_units_Z   1
loop_
 _symmetry_equiv_pos_site_id
 _symmetry_equiv_pos_as_xyz
  1  'x, y, z'
  2  'x, -y, z'
loop_
 _atom_site_type_symbol
 _atom_site_label
 _atom_site_symmetry_multiplicity
 _atom_site_fract_x
 _atom_site_fract_y
 _atom_site_fract_z
 _atom_site_occupancy
  Li  Li0  2  0.18066000  0.25000000  0.90473000  1.0
  Li  Li1  2  0.77805000  0.24715000  0.05147000  1.0
  Y  Y2  2  0.25350000  0.25080000  0.03516000  1.0
  Y  Y3  2  0.68066000  0.25000000  0.90473000  1.0
  In  In4  1  0.53860000  0.00000000  0.09864000  1.0
  In  In5  1  0.55029000  0.50000000  0.09700000  1.0
  In  In6  1  0.95378000  0.00000000  0.96824000  1.0
  In  In7  1  0.95378000  0.50000000  0.96824000  1.0
  Ge  Ge8  1  0.00182000  0.00000000  0.09135000  1.0
  Ge  Ge9  1  0.00274000  0.50000000  0.08314000  1.0
  Ge  Ge10  1  0.45378000  0.00000000  0.96824000  1.0
  Ge  Ge11  1  0.45378000  0.50000000  0.96824000  1.0
  C  C12  1  0.00530000  0.00000000  0.17004000  1.0
  O  O13  1  0.00059000  0.00000000  0.21690000  1.0
