# generated using pymatgen
data_Sc8Ga8Cu8Pd8CO
_symmetry_space_group_name_H-M   P1
_cell_length_a   6.33027000
_cell_length_b   8.95236000
_cell_length_c   26.71430000
_cell_angle_alpha   90.00000000
_cell_angle_beta   90.00000000
_cell_angle_gamma   90.00000000
_symmetry_Int_Tables_number   1
_chemical_formula_structural   Sc8Ga8Cu8Pd8CO
_chemical_formula_sum   'Sc8 Ga8 Cu8 Pd8 C1 O1'
_cell_volume   1513.92224676
_cell_formula_units_Z   1
loop_
 _symmetry_equiv_pos_site_id
 _symmetry_equiv_pos_as_xyz
  1  'x, y, z'
loop_
 _atom_site_type_symbol
 _atom_site_label
 _atom_site_symmetry_multiplicity
 _atom_site_fract_x
 _atom_site_fract_y
 _atom_site_fract_z
 _atom_site_occupancy
  Sc  Sc0  1  0.23246000  0.75388000  0.04196000  1.0
  Sc  Sc1  1  0.24776000  0.24651000  0.04287000  1.0
  Sc  Sc2  1  0.25000000  0.25000000  0.87433000  1.0
  Sc  Sc3  1  0.25000000  0.75000000  0.87433000  1.0
  Sc  Sc4  1  0.71375000  0.02255000  0.13806000  1.0
  Sc  Sc5  1  0.72097000  0.49065000  0.13353000  1.0
  Sc  Sc6  1  0.75000000  0.00000000  0.95811000  1.0
  Sc  Sc7  1  0.75000000  0.50000000  0.95811000  1.0
  Ga  Ga8  1  0.22953000  0.52002000  0.12543000  1.0
  Ga  Ga9  1  0.23886000  0.00078000  0.12213000  1.0
  Ga  Ga10  1  0.25000000  0.00000000  0.95811000  1.0
  Ga  Ga11  1  0.25000000  0.50000000  0.95811000  1.0
  Ga  Ga12  1  0.73918000  0.74663000  0.04336000  1.0
  Ga  Ga13  1  0.74153000  0.25171000  0.04302000  1.0
  Ga  Ga14  1  0.75000000  0.25000000  0.87433000  1.0
  Ga  Ga15  1  0.75000000  0.75000000  0.87433000  1.0
  Cu  Cu16  1  0.00000000  0.00000000  0.87433000  1.0
  Cu  Cu17  1  0.00000000  0.50000000  0.87433000  1.0
  Cu  Cu18  1  0.41680000  0.26883000  0.13792000  1.0
  Cu  Cu19  1  0.47728000  0.75925000  0.12352000  1.0
  Cu  Cu20  1  0.50000000  0.25000000  0.95811000  1.0
  Cu  Cu21  1  0.50000000  0.75000000  0.95811000  1.0
  Cu  Cu22  1  0.95534000  0.00425000  0.05164000  1.0
  Cu  Cu23  1  0.97318000  0.49784000  0.04724000  1.0
  Pd  Pd24  1  0.00000000  0.25000000  0.95811000  1.0
  Pd  Pd25  1  0.00000000  0.75000000  0.95811000  1.0
  Pd  Pd26  1  0.01091000  0.25552000  0.12429000  1.0
  Pd  Pd27  1  0.49927000  0.50073000  0.04260000  1.0
  Pd  Pd28  1  0.50000000  0.00000000  0.87433000  1.0
  Pd  Pd29  1  0.50000000  0.50000000  0.87433000  1.0
  Pd  Pd30  1  0.50912000  0.99637000  0.04134000  1.0
  Pd  Pd31  1  0.98016000  0.75931000  0.12288000  1.0
  C  C32  1  0.70777000  0.27611000  0.17250000  1.0
  O  O33  1  0.72257000  0.16198000  0.20095000  1.0
