# generated using pymatgen
data_Ti8Ni16Sn8C
_symmetry_space_group_name_H-M   'P 1'
_cell_length_a   6.14888000
_cell_length_b   8.69583000
_cell_length_c   26.52190000
_cell_angle_alpha   90.00000000
_cell_angle_beta   90.00000000
_cell_angle_gamma   90.00000000
_symmetry_Int_Tables_number   1
_chemical_formula_structural   Ti8Ni16Sn8C
_chemical_formula_sum   'Ti8 Ni16 Sn8 C1'
_cell_volume   1418.11578659
_cell_formula_units_Z   1
loop_
 _symmetry_equiv_pos_site_id
 _symmetry_equiv_pos_as_xyz
  1  'x, y, z'
loop_
 _atom_site_type_symbol
 _atom_site_label
 _atom_site_symmetry_multiplicity
 _atom_site_fract_x
 _atom_site_fract_y
 _atom_site_fract_z
 _atom_site_occupancy
  Ti  Ti0  1  0.00000000  0.00000000  0.87705000  1.0
  Ti  Ti1  1  0.50000000  0.24999000  0.95902000  1.0
  Ti  Ti2  1  0.50000000  0.75001000  0.95902000  1.0
  Ti  Ti3  1  0.00000000  0.50000000  0.87705000  1.0
  Ti  Ti4  1  0.00000000  0.50000000  0.04210000  1.0
  Ti  Ti5  1  0.50000000  0.74797000  0.12046000  1.0
  Ti  Ti6  1  0.50000000  0.25203000  0.12046000  1.0
  Ti  Ti7  1  0.00000000  0.00000000  0.04748000  1.0
  Ni  Ni8  1  0.25000000  0.00000000  0.95902000  1.0
  Ni  Ni9  1  0.75000000  0.50000000  0.95902000  1.0
  Ni  Ni10  1  0.75000000  0.00000000  0.95902000  1.0
  Ni  Ni11  1  0.25000000  0.50000000  0.95902000  1.0
  Ni  Ni12  1  0.75000000  0.74999000  0.87705000  1.0
  Ni  Ni13  1  0.25000000  0.25001000  0.87705000  1.0
  Ni  Ni14  1  0.25000000  0.74999000  0.87705000  1.0
  Ni  Ni15  1  0.75000000  0.25001000  0.87705000  1.0
  Ni  Ni16  1  0.27553000  0.50000000  0.11873000  1.0
  Ni  Ni17  1  0.70666000  0.00000000  0.12660000  1.0
  Ni  Ni18  1  0.72447000  0.50000000  0.11873000  1.0
  Ni  Ni19  1  0.29334000  0.00000000  0.12660000  1.0
  Ni  Ni20  1  0.76626000  0.25462000  0.04471000  1.0
  Ni  Ni21  1  0.23374000  0.74538000  0.04471000  1.0
  Ni  Ni22  1  0.23374000  0.25462000  0.04471000  1.0
  Ni  Ni23  1  0.76626000  0.74538000  0.04471000  1.0
  Sn  Sn24  1  0.00000000  0.74999000  0.95902000  1.0
  Sn  Sn25  1  0.50000000  0.00000000  0.87705000  1.0
  Sn  Sn26  1  0.00000000  0.25001000  0.95902000  1.0
  Sn  Sn27  1  0.50000000  0.50000000  0.87705000  1.0
  Sn  Sn28  1  0.00000000  0.26900000  0.13974000  1.0
  Sn  Sn29  1  0.50000000  0.50000000  0.03732000  1.0
  Sn  Sn30  1  0.00000000  0.73100000  0.13974000  1.0
  Sn  Sn31  1  0.50000000  0.00000000  0.03991000  1.0
  C  C32  1  0.00000000  0.00000000  0.12757000  1.0
