# generated using pymatgen
data_Ti8Ni16Sn8C
_symmetry_space_group_name_H-M   Pmm2
_cell_length_a   6.14888000
_cell_length_b   8.69583000
_cell_length_c   26.52190000
_cell_angle_alpha   90.00000000
_cell_angle_beta   90.00000000
_cell_angle_gamma   90.00000000
_symmetry_Int_Tables_number   25
_chemical_formula_structural   Ti8Ni16Sn8C
_chemical_formula_sum   'Ti8 Ni16 Sn8 C1'
_cell_volume   1418.11578659
_cell_formula_units_Z   1
loop_
 _symmetry_equiv_pos_site_id
 _symmetry_equiv_pos_as_xyz
  1  'x, y, z'
  2  '-x, -y, z'
  3  '-x, y, z'
  4  'x, -y, z'
loop_
 _atom_site_type_symbol
 _atom_site_label
 _atom_site_symmetry_multiplicity
 _atom_site_fract_x
 _atom_site_fract_y
 _atom_site_fract_z
 _atom_site_occupancy
  Ti  Ti0  2  0.50000000  0.24999000  0.95902000  1.0
  Ti  Ti1  2  0.50000000  0.25203000  0.12046000  1.0
  Ti  Ti2  1  0.00000000  0.00000000  0.04748000  1.0
  Ti  Ti3  1  0.00000000  0.00000000  0.87705000  1.0
  Ti  Ti4  1  0.00000000  0.50000000  0.04210000  1.0
  Ti  Ti5  1  0.00000000  0.50000000  0.87705000  1.0
  Ni  Ni6  4  0.23374000  0.25462000  0.04471000  1.0
  Ni  Ni7  4  0.25000000  0.25001000  0.87705000  1.0
  Ni  Ni8  2  0.25000000  0.00000000  0.95902000  1.0
  Ni  Ni9  2  0.25000000  0.50000000  0.95902000  1.0
  Ni  Ni10  2  0.27553000  0.50000000  0.11873000  1.0
  Ni  Ni11  2  0.29334000  0.00000000  0.12660000  1.0
  Sn  Sn12  2  0.00000000  0.25001000  0.95902000  1.0
  Sn  Sn13  2  0.00000000  0.26900000  0.13974000  1.0
  Sn  Sn14  1  0.50000000  0.00000000  0.03991000  1.0
  Sn  Sn15  1  0.50000000  0.00000000  0.87705000  1.0
  Sn  Sn16  1  0.50000000  0.50000000  0.03732000  1.0
  Sn  Sn17  1  0.50000000  0.50000000  0.87705000  1.0
  C  C18  1  0.00000000  0.00000000  0.12757000  1.0
