# generated using pymatgen
data_Y4In4Cu4Sn4CO
_symmetry_space_group_name_H-M   Pm
_cell_length_a   6.24938000
_cell_length_b   9.14612000
_cell_length_c   24.68700000
_cell_angle_alpha   90.00000000
_cell_angle_beta   90.00000000
_cell_angle_gamma   90.00000000
_symmetry_Int_Tables_number   6
_chemical_formula_structural   Y4In4Cu4Sn4CO
_chemical_formula_sum   'Y4 In4 Cu4 Sn4 C1 O1'
_cell_volume   1411.04916279
_cell_formula_units_Z   1
loop_
 _symmetry_equiv_pos_site_id
 _symmetry_equiv_pos_as_xyz
  1  'x, y, z'
  2  'x, -y, z'
loop_
 _atom_site_type_symbol
 _atom_site_label
 _atom_site_symmetry_multiplicity
 _atom_site_fract_x
 _atom_site_fract_y
 _atom_site_fract_z
 _atom_site_occupancy
  Y  Y0  2  0.27332000  0.25467000  0.03281000  1.0
  Y  Y1  2  0.74840000  0.24999000  0.90507000  1.0
  In  In2  1  0.51046000  0.00000000  0.09581000  1.0
  In  In3  1  0.51323000  0.50000000  0.09992000  1.0
  In  In4  1  0.99893000  0.00000000  0.96836000  1.0
  In  In5  1  0.99893000  0.50000000  0.96836000  1.0
  Cu  Cu6  1  0.01350000  0.50000000  0.07874000  1.0
  Cu  Cu7  1  0.02028000  0.00000000  0.08183000  1.0
  Cu  Cu8  1  0.49893000  0.00000000  0.96836000  1.0
  Cu  Cu9  1  0.49893000  0.50000000  0.96836000  1.0
  Sn  Sn10  2  0.24840000  0.24999000  0.90507000  1.0
  Sn  Sn11  2  0.77208000  0.25180000  0.04767000  1.0
  C  C12  1  0.99147000  0.00000000  0.15789000  1.0
  O  O13  1  0.98718000  0.00000000  0.20464000  1.0
