# generated using pymatgen
data_Li4Zn4Ag4Ge4C
_symmetry_space_group_name_H-M   Cmm2
_cell_length_a   8.98821814
_cell_length_b   8.98821814
_cell_length_c   24.76670000
_cell_angle_alpha   90.00000000
_cell_angle_beta   90.00000000
_cell_angle_gamma   90.00000000
_symmetry_Int_Tables_number   35
_chemical_formula_structural   Li4Zn4Ag4Ge4C
_chemical_formula_sum   'Li8 Zn8 Ag8 Ge8 C2'
_cell_volume   2000.85377919
_cell_formula_units_Z   2
loop_
 _symmetry_equiv_pos_site_id
 _symmetry_equiv_pos_as_xyz
  1  'x, y, z'
  2  '-x, -y, z'
  3  '-x, y, z'
  4  'x, -y, z'
  5  'x+1/2, y+1/2, z'
  6  '-x+1/2, -y+1/2, z'
  7  '-x+1/2, y+1/2, z'
  8  'x+1/2, -y+1/2, z'
loop_
 _atom_site_type_symbol
 _atom_site_label
 _atom_site_symmetry_multiplicity
 _atom_site_fract_x
 _atom_site_fract_y
 _atom_site_fract_z
 _atom_site_occupancy
  Li  Li0  4  0.00000000  0.25000500  0.96792000  1.0
  Li  Li1  4  0.23502000  0.50000000  0.11236000  1.0
  Zn  Zn2  4  0.00000000  0.28420000  0.10154000  1.0
  Zn  Zn3  4  0.24999500  0.00000000  0.96792000  1.0
  Ag  Ag4  4  0.25000000  0.25000000  0.90377000  1.0
  Ag  Ag5  2  0.00000000  0.00000000  0.04234000  1.0
  Ag  Ag6  2  0.00000000  0.50000000  0.02273000  1.0
  Ge  Ge7  4  0.25000000  0.25000000  0.03842000  1.0
  Ge  Ge8  2  0.00000000  0.00000000  0.90377000  1.0
  Ge  Ge9  2  0.00000000  0.50000000  0.90377000  1.0
  C  C10  2  0.00000000  0.50000000  0.11812000  1.0
