# generated using pymatgen
data_Y4In4Sn4Pd4CO
_symmetry_space_group_name_H-M   Pm
_cell_length_a   6.44465000
_cell_length_b   8.73372000
_cell_length_c   24.83320000
_cell_angle_alpha   90.00000000
_cell_angle_beta   90.00000000
_cell_angle_gamma   90.00000000
_symmetry_Int_Tables_number   6
_chemical_formula_structural   Y4In4Sn4Pd4CO
_chemical_formula_sum   'Y4 In4 Sn4 Pd4 C1 O1'
_cell_volume   1397.75574875
_cell_formula_units_Z   1
loop_
 _symmetry_equiv_pos_site_id
 _symmetry_equiv_pos_as_xyz
  1  'x, y, z'
  2  'x, -y, z'
loop_
 _atom_site_type_symbol
 _atom_site_label
 _atom_site_symmetry_multiplicity
 _atom_site_fract_x
 _atom_site_fract_y
 _atom_site_fract_z
 _atom_site_occupancy
  Y  Y0  1  0.00549000  0.00000000  0.03244000  1.0
  Y  Y1  1  0.00549000  0.50000000  0.03244000  1.0
  Y  Y2  1  0.52188000  0.00000000  0.90710000  1.0
  Y  Y3  1  0.52603000  0.50000000  0.90736000  1.0
  In  In4  1  0.00792000  0.00000000  0.88677000  1.0
  In  In5  1  0.01619000  0.50000000  0.88722000  1.0
  In  In6  1  0.50549000  0.00000000  0.03244000  1.0
  In  In7  1  0.50549000  0.50000000  0.03244000  1.0
  Sn  Sn8  2  0.23438000  0.25054000  0.95984000  1.0
  Sn  Sn9  2  0.75824000  0.25000000  0.09731000  1.0
  Pd  Pd10  2  0.25824000  0.25000000  0.09731000  1.0
  Pd  Pd11  2  0.76381000  0.25160000  0.96859000  1.0
  C  C12  1  0.50680000  0.00000000  0.80709000  1.0
  O  O13  1  0.50014000  0.00000000  0.76083000  1.0
