# generated using pymatgen
data_NbRh3
_symmetry_space_group_name_H-M   'P 1'
_cell_length_a   5.52830000
_cell_length_b   7.81819000
_cell_length_c   24.14620000
_cell_angle_alpha   90.00000000
_cell_angle_beta   90.00000000
_cell_angle_gamma   90.00000000
_symmetry_Int_Tables_number   1
_chemical_formula_structural   NbRh3
_chemical_formula_sum   'Nb4 Rh12'
_cell_volume   1043.63014868
_cell_formula_units_Z   4
loop_
 _symmetry_equiv_pos_site_id
 _symmetry_equiv_pos_as_xyz
  1  'x, y, z'
loop_
 _atom_site_type_symbol
 _atom_site_label
 _atom_site_symmetry_multiplicity
 _atom_site_fract_x
 _atom_site_fract_y
 _atom_site_fract_z
 _atom_site_occupancy
  Nb  Nb0  1  0.00000000  0.50000000  0.92553000  1.0
  Nb  Nb1  1  0.50000000  0.50000000  0.02862000  1.0
  Nb  Nb2  1  0.00000000  0.00000000  0.92553000  1.0
  Nb  Nb3  1  0.50000000  0.00000000  0.02862000  1.0
  Rh  Rh4  1  0.50000000  0.50000000  0.91869000  1.0
  Rh  Rh5  1  0.75179000  0.75001000  0.96763000  1.0
  Rh  Rh6  1  0.24821000  0.75001000  0.96763000  1.0
  Rh  Rh7  1  0.00000000  0.50000000  0.02862000  1.0
  Rh  Rh8  1  0.25000000  0.75002000  0.08586000  1.0
  Rh  Rh9  1  0.75000000  0.75002000  0.08586000  1.0
  Rh  Rh10  1  0.50000000  0.00000000  0.91865000  1.0
  Rh  Rh11  1  0.75179000  0.24999000  0.96763000  1.0
  Rh  Rh12  1  0.24821000  0.24999000  0.96763000  1.0
  Rh  Rh13  1  0.00000000  0.00000000  0.02862000  1.0
  Rh  Rh14  1  0.25000000  0.24998000  0.08586000  1.0
  Rh  Rh15  1  0.75000000  0.24998000  0.08586000  1.0
