# generated using pymatgen
data_NbRh3
_symmetry_space_group_name_H-M   Pmm2
_cell_length_a   5.52830000
_cell_length_b   7.81819000
_cell_length_c   24.14620000
_cell_angle_alpha   90.00000000
_cell_angle_beta   90.00000000
_cell_angle_gamma   90.00000000
_symmetry_Int_Tables_number   25
_chemical_formula_structural   NbRh3
_chemical_formula_sum   'Nb4 Rh12'
_cell_volume   1043.63014868
_cell_formula_units_Z   4
loop_
 _symmetry_equiv_pos_site_id
 _symmetry_equiv_pos_as_xyz
  1  'x, y, z'
  2  '-x, -y, z'
  3  'x, -y, z'
  4  '-x, y, z'
  5  'x, y+1/2, z'
  6  '-x, -y+1/2, z'
  7  'x, -y+1/2, z'
  8  '-x, y+1/2, z'
loop_
 _atom_site_type_symbol
 _atom_site_label
 _atom_site_symmetry_multiplicity
 _atom_site_fract_x
 _atom_site_fract_y
 _atom_site_fract_z
 _atom_site_occupancy
  Nb  Nb0  2  0.00000000  0.00000000  0.92553000  1.0
  Nb  Nb1  2  0.50000000  0.00000000  0.02862000  1.0
  Rh  Rh2  4  0.24821000  0.24999000  0.96763000  1.0
  Rh  Rh3  4  0.25000000  0.24998000  0.08586000  1.0
  Rh  Rh4  2  0.00000000  0.00000000  0.02862000  1.0
  Rh  Rh5  2  0.50000000  0.00000000  0.91865000  1.0
