# generated using pymatgen
data_Li8Cu8Sn8Ge8C
_symmetry_space_group_name_H-M   Pm
_cell_length_a   6.57410000
_cell_length_b   9.29718000
_cell_length_c   26.97290000
_cell_angle_alpha   90.00000000
_cell_angle_beta   90.00000000
_cell_angle_gamma   90.00000000
_symmetry_Int_Tables_number   6
_chemical_formula_structural   Li8Cu8Sn8Ge8C
_chemical_formula_sum   'Li8 Cu8 Sn8 Ge8 C1'
_cell_volume   1648.59959001
_cell_formula_units_Z   1
loop_
 _symmetry_equiv_pos_site_id
 _symmetry_equiv_pos_as_xyz
  1  'x, y, z'
  2  'x, -y, z'
loop_
 _atom_site_type_symbol
 _atom_site_label
 _atom_site_symmetry_multiplicity
 _atom_site_fract_x
 _atom_site_fract_y
 _atom_site_fract_z
 _atom_site_occupancy
  Li  Li0  2  0.50000000  0.25000000  0.87074000  1.0
  Li  Li1  2  0.53494000  0.24175000  0.04839000  1.0
  Li  Li2  1  -0.00000000  0.50000000  0.95691000  1.0
  Li  Li3  1  -0.00000000  0.00000000  0.95691000  1.0
  Li  Li4  1  0.01556000  0.50000000  0.13547000  1.0
  Li  Li5  1  0.06815000  0.00000000  0.15630000  1.0
  Cu  Cu6  2  0.00000000  0.25000000  0.87074000  1.0
  Cu  Cu7  2  0.95947000  0.26471000  0.05835000  1.0
  Cu  Cu8  1  0.45706000  0.00000000  0.12776000  1.0
  Cu  Cu9  1  0.47186000  0.50000000  0.11912000  1.0
  Cu  Cu10  1  0.50000000  0.00000000  0.95691000  1.0
  Cu  Cu11  1  0.50000000  0.50000000  0.95691000  1.0
  Sn  Sn12  2  0.74013000  0.23756000  0.15524000  1.0
  Sn  Sn13  2  0.75000000  0.25000000  0.95691000  1.0
  Sn  Sn14  1  0.23524000  0.00000000  0.04579000  1.0
  Sn  Sn15  1  0.23556000  0.50000000  0.04080000  1.0
  Sn  Sn16  1  0.25000000  0.00000000  0.87074000  1.0
  Sn  Sn17  1  0.25000000  0.50000000  0.87074000  1.0
  Ge  Ge18  2  0.25000000  0.25000000  0.95691000  1.0
  Ge  Ge19  2  0.26122000  0.25599000  0.12688000  1.0
  Ge  Ge20  1  0.75000000  0.00000000  0.87074000  1.0
  Ge  Ge21  1  0.75000000  0.50000000  0.87074000  1.0
  Ge  Ge22  1  0.75084000  0.50000000  0.04811000  1.0
  Ge  Ge23  1  0.79617000  0.00000000  0.06645000  1.0
  C  C24  1  0.75841000  0.00000000  0.14188000  1.0
