# generated using pymatgen
data_Al4Fe12C
_symmetry_space_group_name_H-M   'P 1'
_cell_length_a   5.77088000
_cell_length_b   5.77088000
_cell_length_c   24.32820000
_cell_angle_alpha   90.00000000
_cell_angle_beta   90.00000000
_cell_angle_gamma   90.00000000
_symmetry_Int_Tables_number   1
_chemical_formula_structural   Al4Fe12C
_chemical_formula_sum   'Al4 Fe12 C1'
_cell_volume   810.20340636
_cell_formula_units_Z   1
loop_
 _symmetry_equiv_pos_site_id
 _symmetry_equiv_pos_as_xyz
  1  'x, y, z'
loop_
 _atom_site_type_symbol
 _atom_site_label
 _atom_site_symmetry_multiplicity
 _atom_site_fract_x
 _atom_site_fract_y
 _atom_site_fract_z
 _atom_site_occupancy
  Al  Al0  1  0.75000000  0.25000000  0.08895000  1
  Al  Al1  1  0.25000000  0.75000000  0.08895000  1
  Al  Al2  1  0.75000000  0.75000000  0.97035000  1
  Al  Al3  1  0.25000000  0.25000000  0.97035000  1
  Fe  Fe4  1  0.50000000  0.50000000  0.02965000  1
  Fe  Fe5  1  0.00000000  0.00000000  0.91105000  1
  Fe  Fe6  1  0.50000000  0.00000000  0.02965000  1
  Fe  Fe7  1  0.00000000  0.50000000  0.91105000  1
  Fe  Fe8  1  0.00000000  0.00000000  0.02965000  1
  Fe  Fe9  1  0.50000000  0.50000000  0.91105000  1
  Fe  Fe10  1  0.00000000  0.50000000  0.02965000  1
  Fe  Fe11  1  0.50000000  0.00000000  0.91105000  1
  Fe  Fe12  1  0.75000000  0.25000000  0.97035000  1
  Fe  Fe13  1  0.75000000  0.75000000  0.08895000  1
  Fe  Fe14  1  0.25000000  0.25000000  0.08895000  1
  Fe  Fe15  1  0.25000000  0.75000000  0.97035000  1
  C  C16  1  0.50000000  0.50000000  0.12184000  1
