data_image0
_chemical_formula_structural       Li4In8Pd4CO
_chemical_formula_sum              "Li4 In8 Pd4 C1 O1"
_cell_length_a       6.70566
_cell_length_b       6.70566
_cell_length_c       25.0292
_cell_angle_alpha    90
_cell_angle_beta     90
_cell_angle_gamma    90

_space_group_name_H-M_alt    "P 1"
_space_group_IT_number       1

loop_
  _space_group_symop_operation_xyz
  'x, y, z'

loop_
  _atom_site_type_symbol
  _atom_site_label
  _atom_site_symmetry_multiplicity
  _atom_site_fract_x
  _atom_site_fract_y
  _atom_site_fract_z
  _atom_site_occupancy
  Li  Li1       1.0  0.00000  0.00000  0.89953  1.0000
  Li  Li2       1.0  0.50000  0.50000  0.89953  1.0000
  Li  Li3       1.0  0.50568  0.99500  0.03351  1.0000
  Li  Li4       1.0  0.99499  0.50566  0.03351  1.0000
  In  In1       1.0  0.25000  0.25000  0.96651  1.0000
  In  In2       1.0  0.74972  0.74972  0.10750  1.0000
  In  In3       1.0  0.75000  0.25000  0.96651  1.0000
  In  In4       1.0  0.24963  0.74986  0.10379  1.0000
  In  In5       1.0  0.75000  0.75000  0.96651  1.0000
  In  In6       1.0  0.24873  0.24872  0.09928  1.0000
  In  In7       1.0  0.25000  0.75000  0.96651  1.0000
  In  In8       1.0  0.74985  0.24963  0.10380  1.0000
  Pd  Pd1       1.0  0.99687  0.99688  0.02974  1.0000
  Pd  Pd2       1.0  0.50000  0.00000  0.89953  1.0000
  Pd  Pd3       1.0  0.00000  0.50000  0.89953  1.0000
  Pd  Pd4       1.0  0.50235  0.50234  0.03073  1.0000
  C   C1        1.0  0.28399  0.28404  0.24220  1.0000
  O   O1        1.0  0.22970  0.22968  0.28271  1.0000
