# generated using pymatgen
data_Li4In8Pd4CO
_symmetry_space_group_name_H-M   'P 1'
_cell_length_a   6.70566000
_cell_length_b   6.70566000
_cell_length_c   25.02920000
_cell_angle_alpha   90.00000000
_cell_angle_beta   90.00000000
_cell_angle_gamma   90.00000000
_symmetry_Int_Tables_number   1
_chemical_formula_structural   Li4In8Pd4CO
_chemical_formula_sum   'Li4 In8 Pd4 C1 O1'
_cell_volume   1125.45990447
_cell_formula_units_Z   1
loop_
 _symmetry_equiv_pos_site_id
 _symmetry_equiv_pos_as_xyz
  1  'x, y, z'
loop_
 _atom_site_type_symbol
 _atom_site_label
 _atom_site_symmetry_multiplicity
 _atom_site_fract_x
 _atom_site_fract_y
 _atom_site_fract_z
 _atom_site_occupancy
  Li  Li0  1  0.00002500  0.99997500  0.10047000  1
  Li  Li1  1  0.50002500  0.49997500  0.10047000  1
  Li  Li2  1  0.99500000  0.49427000  0.96649000  1
  Li  Li3  1  0.50573000  0.00500000  0.96649000  1
  In  In4  1  0.25002500  0.74997500  0.03349000  1
  In  In5  1  0.74974500  0.25025500  0.89250000  1
  In  In6  1  0.25000000  0.24995000  0.03349000  1
  In  In7  1  0.74986000  0.75032000  0.89621000  1
  In  In8  1  0.75002500  0.24997500  0.03349000  1
  In  In9  1  0.24875000  0.75125000  0.90072000  1
  In  In10  1  0.75005000  0.75000000  0.03349000  1
  In  In11  1  0.24968000  0.25014000  0.89621000  1
  Pd  Pd12  1  0.99690000  0.00310000  0.97026000  1
  Pd  Pd13  1  0.00000000  0.49995000  0.10047000  1
  Pd  Pd14  1  0.50005000  1.00000000  0.10047000  1
  Pd  Pd15  1  0.50237000  0.49763000  0.96927000  1
  C  C16  1  0.28404000  0.71596000  0.75780000  1
  O  O17  1  0.22971500  0.77028500  0.71729000  1
