# generated using pymatgen
data_Li4In8Pd4CO
_symmetry_space_group_name_H-M   Cm
_cell_length_a   9.48323532
_cell_length_b   9.48323532
_cell_length_c   25.02920000
_cell_angle_alpha   90.00000000
_cell_angle_beta   90.00000000
_cell_angle_gamma   90.00000000
_symmetry_Int_Tables_number   8
_chemical_formula_structural   Li4In8Pd4CO
_chemical_formula_sum   'Li8 In16 Pd8 C2 O2'
_cell_volume   2250.91980894
_cell_formula_units_Z   2
loop_
 _symmetry_equiv_pos_site_id
 _symmetry_equiv_pos_as_xyz
  1  'x, y, z'
  2  'x, -y, z'
  3  'x+1/2, y+1/2, z'
  4  'x+1/2, -y+1/2, z'
loop_
 _atom_site_type_symbol
 _atom_site_label
 _atom_site_symmetry_multiplicity
 _atom_site_fract_x
 _atom_site_fract_y
 _atom_site_fract_z
 _atom_site_occupancy
  Li  Li0  4  0.25036500  0.25536500  0.03351000  1.0
  Li  Li1  2  0.00002500  0.50000000  0.89953000  1.0
  Li  Li2  2  0.00002500  0.00000000  0.89953000  1.0
  In  In3  4  0.00002500  0.24997500  0.96651000  1.0
  In  In4  4  0.49977000  0.25009000  0.10379000  1.0
  In  In5  2  0.24875000  0.00000000  0.09928000  1.0
  In  In6  2  0.24974500  0.50000000  0.10750000  1.0
  In  In7  2  0.25002500  0.50000000  0.96651000  1.0
  In  In8  2  0.25002500  0.00000000  0.96651000  1.0
  Pd  Pd9  4  0.25002500  0.25002500  0.89953000  1.0
  Pd  Pd10  2  0.00237000  0.50000000  0.03073000  1.0
  Pd  Pd11  2  0.49690000  0.50000000  0.02974000  1.0
  C  C12  2  0.28404000  0.00000000  0.24220000  1.0
  O  O13  2  0.22971500  0.00000000  0.28271000  1.0
