# generated using pymatgen
data_Y8In8Cu8Sn8CO
_symmetry_space_group_name_H-M   P1
_cell_length_a   8.84740000
_cell_length_b   9.14612000
_cell_length_c   26.62140000
_cell_angle_alpha   90.00000000
_cell_angle_beta   90.00000000
_cell_angle_gamma   90.00000000
_symmetry_Int_Tables_number   1
_chemical_formula_structural   Y8In8Cu8Sn8CO
_chemical_formula_sum   'Y8 In8 Cu8 Sn8 C1 O1'
_cell_volume   2154.18723832
_cell_formula_units_Z   1
loop_
 _symmetry_equiv_pos_site_id
 _symmetry_equiv_pos_as_xyz
  1  'x, y, z'
loop_
 _atom_site_type_symbol
 _atom_site_label
 _atom_site_symmetry_multiplicity
 _atom_site_fract_x
 _atom_site_fract_y
 _atom_site_fract_z
 _atom_site_occupancy
  Y  Y0  1  0.00000000  0.25000000  0.95855000  1.0
  Y  Y1  1  0.00000000  0.75000000  0.95855000  1.0
  Y  Y2  1  0.00023000  0.25149000  0.12631000  1.0
  Y  Y3  1  0.00023000  0.74849000  0.12630000  1.0
  Y  Y4  1  0.49984000  0.25152000  0.12630000  1.0
  Y  Y5  1  0.49985000  0.74849000  0.12630000  1.0
  Y  Y6  1  0.50000000  0.25000000  0.95855000  1.0
  Y  Y7  1  0.50000000  0.75000000  0.95855000  1.0
  In  In8  1  0.25000000  0.00000000  0.95855000  1.0
  In  In9  1  0.25000000  0.50000000  0.95855000  1.0
  In  In10  1  0.25003000  0.49999000  0.13103000  1.0
  In  In11  1  0.25007000  0.99999000  0.12771000  1.0
  In  In12  1  0.75000000  0.00000000  0.95855000  1.0
  In  In13  1  0.75000000  0.50000000  0.95855000  1.0
  In  In14  1  0.75003000  0.00000000  0.12899000  1.0
  In  In15  1  0.75004000  0.50000000  0.13209000  1.0
  Cu  Cu16  1  0.00000000  0.00000000  0.87564000  1.0
  Cu  Cu17  1  0.00000000  0.50000000  0.87564000  1.0
  Cu  Cu18  1  0.00613000  0.50000000  0.05128000  1.0
  Cu  Cu19  1  0.49392000  0.50000000  0.05128000  1.0
  Cu  Cu20  1  0.50000000  0.00000000  0.87564000  1.0
  Cu  Cu21  1  0.50000000  0.50000000  0.87564000  1.0
  Cu  Cu22  1  0.50774000  0.99998000  0.04792000  1.0
  Cu  Cu23  1  0.99232000  0.00000000  0.04792000  1.0
  Sn  Sn24  1  0.25000000  0.25000000  0.87564000  1.0
  Sn  Sn25  1  0.25000000  0.75000000  0.87564000  1.0
  Sn  Sn26  1  0.25002000  0.25333000  0.04581000  1.0
  Sn  Sn27  1  0.25002000  0.74666000  0.04581000  1.0
  Sn  Sn28  1  0.75000000  0.25000000  0.87564000  1.0
  Sn  Sn29  1  0.75000000  0.75000000  0.87564000  1.0
  Sn  Sn30  1  0.75002000  0.25872000  0.04582000  1.0
  Sn  Sn31  1  0.75003000  0.74128000  0.04582000  1.0
  C  C32  1  0.24867000  0.00033000  0.29797000  1.0
  O  O33  1  0.25031000  0.99984000  0.34063000  1.0
