data_image0
_chemical_formula_structural       V4Ga4Ni8C
_chemical_formula_sum              "V4 Ga4 Ni8 C1"
_cell_length_a       5.81624
_cell_length_b       5.81624
_cell_length_c       24.3622
_cell_angle_alpha    90
_cell_angle_beta     90
_cell_angle_gamma    90

_space_group_name_H-M_alt    "P 1"
_space_group_IT_number       1

loop_
  _space_group_symop_operation_xyz
  'x, y, z'

loop_
  _atom_site_type_symbol
  _atom_site_label
  _atom_site_symmetry_multiplicity
  _atom_site_fract_x
  _atom_site_fract_y
  _atom_site_fract_z
  _atom_site_occupancy
  V   V1        1.0  0.00000  0.00000  0.91047  1.0000
  V   V2        1.0  0.50000  0.50000  0.91047  1.0000
  V   V3        1.0  0.50000  0.00000  0.02984  1.0000
  V   V4        1.0  0.00000  0.50000  0.02984  1.0000
  Ga  Ga1       1.0  0.00000  0.00000  0.02984  1.0000
  Ga  Ga2       1.0  0.50000  0.00000  0.91047  1.0000
  Ga  Ga3       1.0  0.00000  0.50000  0.91047  1.0000
  Ga  Ga4       1.0  0.50000  0.50000  0.02984  1.0000
  Ni  Ni1       1.0  0.25000  0.25000  0.97016  1.0000
  Ni  Ni2       1.0  0.75000  0.75000  0.08953  1.0000
  Ni  Ni3       1.0  0.75000  0.25000  0.97016  1.0000
  Ni  Ni4       1.0  0.25000  0.75000  0.08953  1.0000
  Ni  Ni5       1.0  0.75000  0.75000  0.97016  1.0000
  Ni  Ni6       1.0  0.25000  0.25000  0.08953  1.0000
  Ni  Ni7       1.0  0.25000  0.75000  0.97016  1.0000
  Ni  Ni8       1.0  0.75000  0.25000  0.08953  1.0000
  C   C1        1.0  0.00000  0.50000  0.12237  1.0000
