# generated using pymatgen
data_Li8Y8Sn8Pb8CO
_symmetry_space_group_name_H-M   'P 1'
_cell_length_a   9.36828000
_cell_length_b   8.87168000
_cell_length_c   27.23350000
_cell_angle_alpha   90.00000000
_cell_angle_beta   90.00000000
_cell_angle_gamma   90.00000000
_symmetry_Int_Tables_number   1
_chemical_formula_structural   Li8Y8Sn8Pb8CO
_chemical_formula_sum   'Li8 Y8 Sn8 Pb8 C1 O1'
_cell_volume   2263.44106365
_cell_formula_units_Z   1
loop_
 _symmetry_equiv_pos_site_id
 _symmetry_equiv_pos_as_xyz
  1  'x, y, z'
loop_
 _atom_site_type_symbol
 _atom_site_label
 _atom_site_symmetry_multiplicity
 _atom_site_fract_x
 _atom_site_fract_y
 _atom_site_fract_z
 _atom_site_occupancy
  Li  Li0  1  0.99984000  0.74826000  0.86742000  1.0
  Li  Li1  1  0.00000000  0.75003000  0.04427000  1.0
  Li  Li2  1  0.50016000  0.74826000  0.86742000  1.0
  Li  Li3  1  0.50000000  0.75003000  0.04427000  1.0
  Li  Li4  1  0.99984000  0.25174000  0.86742000  1.0
  Li  Li5  1  0.00000000  0.24997000  0.04427000  1.0
  Li  Li6  1  0.50016000  0.25174000  0.86742000  1.0
  Li  Li7  1  0.50000000  0.24997000  0.04427000  1.0
  Y  Y8  1  0.25000000  0.75100000  0.95688000  1.0
  Y  Y9  1  0.25000000  0.75003000  0.13280000  1.0
  Y  Y10  1  0.75000000  0.75053000  0.95691000  1.0
  Y  Y11  1  0.75000000  0.75003000  0.13280000  1.0
  Y  Y12  1  0.25000000  0.24900000  0.95688000  1.0
  Y  Y13  1  0.25000000  0.24997000  0.13280000  1.0
  Y  Y14  1  0.75000000  0.24947000  0.95691000  1.0
  Y  Y15  1  0.75000000  0.24997000  0.13280000  1.0
  Sn  Sn16  1  0.00019000  0.50000000  0.94555000  1.0
  Sn  Sn17  1  0.00000000  0.50000000  0.13280000  1.0
  Sn  Sn18  1  0.49981000  0.50000000  0.94555000  1.0
  Sn  Sn19  1  0.50000000  0.50000000  0.13280000  1.0
  Sn  Sn20  1  0.99957000  0.00000000  0.94418000  1.0
  Sn  Sn21  1  0.00000000  0.00000000  0.13280000  1.0
  Sn  Sn22  1  0.50043000  0.00000000  0.94418000  1.0
  Sn  Sn23  1  0.50000000  0.00000000  0.13280000  1.0
  Pb  Pb24  1  0.25000000  0.50000000  0.86080000  1.0
  Pb  Pb25  1  0.25000000  0.50000000  0.04427000  1.0
  Pb  Pb26  1  0.75000000  0.50000000  0.86096000  1.0
  Pb  Pb27  1  0.75000000  0.50000000  0.04427000  1.0
  Pb  Pb28  1  0.25000000  0.00000000  0.85999000  1.0
  Pb  Pb29  1  0.25000000  0.00000000  0.04427000  1.0
  Pb  Pb30  1  0.75000000  0.00000000  0.85975000  1.0
  Pb  Pb31  1  0.75000000  0.00000000  0.04427000  1.0
  C  C32  1  0.25007000  0.50000000  0.71148000  1.0
  O  O33  1  0.24999000  0.50000000  0.66979000  1.0
