# generated using pymatgen
data_Li8Y8Sn8Pb8CO
_symmetry_space_group_name_H-M   Pm
_cell_length_a   9.36828000
_cell_length_b   8.87168000
_cell_length_c   27.23350000
_cell_angle_alpha   90.00000000
_cell_angle_beta   90.00000000
_cell_angle_gamma   90.00000000
_symmetry_Int_Tables_number   6
_chemical_formula_structural   Li8Y8Sn8Pb8CO
_chemical_formula_sum   'Li8 Y8 Sn8 Pb8 C1 O1'
_cell_volume   2263.44106365
_cell_formula_units_Z   1
loop_
 _symmetry_equiv_pos_site_id
 _symmetry_equiv_pos_as_xyz
  1  'x, y, z'
  2  'x, -y, z'
loop_
 _atom_site_type_symbol
 _atom_site_label
 _atom_site_symmetry_multiplicity
 _atom_site_fract_x
 _atom_site_fract_y
 _atom_site_fract_z
 _atom_site_occupancy
  Li  Li0  2  0.00000000  0.24997000  0.95573000  1.0
  Li  Li1  2  0.50000000  0.24997000  0.95573000  1.0
  Li  Li2  2  0.50016000  0.25174000  0.13258000  1.0
  Li  Li3  2  0.99984000  0.25174000  0.13258000  1.0
  Y  Y4  2  0.25000000  0.24900000  0.04312000  1.0
  Y  Y5  2  0.25000000  0.24997000  0.86720000  1.0
  Y  Y6  2  0.75000000  0.24947000  0.04309000  1.0
  Y  Y7  2  0.75000000  0.24997000  0.86720000  1.0
  Sn  Sn8  1  0.00000000  0.00000000  0.86720000  1.0
  Sn  Sn9  1  0.00000000  0.50000000  0.86720000  1.0
  Sn  Sn10  1  0.00019000  0.50000000  0.05445000  1.0
  Sn  Sn11  1  0.49981000  0.50000000  0.05445000  1.0
  Sn  Sn12  1  0.50000000  0.00000000  0.86720000  1.0
  Sn  Sn13  1  0.50000000  0.50000000  0.86720000  1.0
  Sn  Sn14  1  0.50043000  0.00000000  0.05582000  1.0
  Sn  Sn15  1  0.99957000  0.00000000  0.05582000  1.0
  Pb  Pb16  1  0.25000000  0.00000000  0.14001000  1.0
  Pb  Pb17  1  0.25000000  0.00000000  0.95573000  1.0
  Pb  Pb18  1  0.25000000  0.50000000  0.13920000  1.0
  Pb  Pb19  1  0.25000000  0.50000000  0.95573000  1.0
  Pb  Pb20  1  0.75000000  0.00000000  0.14025000  1.0
  Pb  Pb21  1  0.75000000  0.00000000  0.95573000  1.0
  Pb  Pb22  1  0.75000000  0.50000000  0.13904000  1.0
  Pb  Pb23  1  0.75000000  0.50000000  0.95573000  1.0
  C  C24  1  0.25007000  0.50000000  0.28852000  1.0
  O  O25  1  0.24999000  0.50000000  0.33021000  1.0
