data_image0
_chemical_formula_structural       Be16Rh16CO
_chemical_formula_sum              "Be16 Rh16 C1 O1"
_cell_length_a       5.57428
_cell_length_b       7.88322
_cell_length_c       25.9124
_cell_angle_alpha    90
_cell_angle_beta     90
_cell_angle_gamma    90

_space_group_name_H-M_alt    "P 1"
_space_group_IT_number       1

loop_
  _space_group_symop_operation_xyz
  'x, y, z'

loop_
  _atom_site_type_symbol
  _atom_site_label
  _atom_site_symmetry_multiplicity
  _atom_site_fract_x
  _atom_site_fract_y
  _atom_site_fract_z
  _atom_site_occupancy
  Be  Be1       1.0  0.00000  0.00000  0.88592  1.0000
  Be  Be2       1.0  0.00000  0.25000  0.96197  1.0000
  Be  Be3       1.0  0.00000  0.00000  0.03803  1.0000
  Be  Be4       1.0  0.00000  0.25000  0.11408  1.0000
  Be  Be5       1.0  0.00000  0.50000  0.88592  1.0000
  Be  Be6       1.0  0.00000  0.75000  0.96197  1.0000
  Be  Be7       1.0  0.00000  0.50000  0.03803  1.0000
  Be  Be8       1.0  0.00000  0.75000  0.11408  1.0000
  Be  Be9       1.0  0.50000  0.00000  0.88592  1.0000
  Be  Be10      1.0  0.50000  0.25000  0.96197  1.0000
  Be  Be11      1.0  0.50000  0.00000  0.03803  1.0000
  Be  Be12      1.0  0.50000  0.25000  0.11408  1.0000
  Be  Be13      1.0  0.50000  0.50000  0.88592  1.0000
  Be  Be14      1.0  0.50000  0.75000  0.96197  1.0000
  Be  Be15      1.0  0.50000  0.50000  0.03803  1.0000
  Be  Be16      1.0  0.50000  0.75000  0.11408  1.0000
  Rh  Rh1       1.0  0.25000  0.25000  0.88592  1.0000
  Rh  Rh2       1.0  0.25000  0.00000  0.96197  1.0000
  Rh  Rh3       1.0  0.25000  0.25000  0.03803  1.0000
  Rh  Rh4       1.0  0.25000  0.50000  0.11408  1.0000
  Rh  Rh5       1.0  0.25000  0.75000  0.88592  1.0000
  Rh  Rh6       1.0  0.25000  0.50000  0.96197  1.0000
  Rh  Rh7       1.0  0.25000  0.75000  0.03803  1.0000
  Rh  Rh8       1.0  0.25000  0.00000  0.11408  1.0000
  Rh  Rh9       1.0  0.75000  0.25000  0.88592  1.0000
  Rh  Rh10      1.0  0.75000  0.00000  0.96197  1.0000
  Rh  Rh11      1.0  0.75000  0.25000  0.03803  1.0000
  Rh  Rh12      1.0  0.75000  0.50000  0.11408  1.0000
  Rh  Rh13      1.0  0.75000  0.75000  0.88592  1.0000
  Rh  Rh14      1.0  0.75000  0.50000  0.96197  1.0000
  Rh  Rh15      1.0  0.75000  0.75000  0.03803  1.0000
  Rh  Rh16      1.0  0.75000  0.00000  0.11408  1.0000
  C   C1        1.0  0.25000  0.00000  0.18741  1.0000
  O   O1        1.0  0.25000  0.00000  0.23179  1.0000
