# generated using pymatgen
data_Be16Rh16CO
_symmetry_space_group_name_H-M   Pmm2
_cell_length_a   5.57428000
_cell_length_b   7.88322000
_cell_length_c   25.91240000
_cell_angle_alpha   90.00000000
_cell_angle_beta   90.00000000
_cell_angle_gamma   90.00000000
_symmetry_Int_Tables_number   25
_chemical_formula_structural   Be16Rh16CO
_chemical_formula_sum   'Be16 Rh16 C1 O1'
_cell_volume   1138.67573418
_cell_formula_units_Z   1
loop_
 _symmetry_equiv_pos_site_id
 _symmetry_equiv_pos_as_xyz
  1  'x, y, z'
  2  '-x, -y, z'
  3  '-x, y, z'
  4  'x, -y, z'
loop_
 _atom_site_type_symbol
 _atom_site_label
 _atom_site_symmetry_multiplicity
 _atom_site_fract_x
 _atom_site_fract_y
 _atom_site_fract_z
 _atom_site_occupancy
  Be  Be0  4  0.24728000  0.24644000  0.10835000  1.0
  Be  Be1  4  0.25000000  0.25000000  0.96197000  1.0
  Be  Be2  2  0.24820000  0.50000000  0.03900000  1.0
  Be  Be3  2  0.25000000  0.00000000  0.88592000  1.0
  Be  Be4  2  0.25000000  0.50000000  0.88592000  1.0
  Be  Be5  2  0.25562000  0.00000000  0.03930000  1.0
  Rh  Rh6  2  0.00000000  0.24766000  0.03709000  1.0
  Rh  Rh7  2  0.00000000  0.25000000  0.88592000  1.0
  Rh  Rh8  2  0.50000000  0.25000000  0.88592000  1.0
  Rh  Rh9  2  0.50000000  0.25100000  0.03720000  1.0
  Rh  Rh10  1  0.00000000  0.00000000  0.12022000  1.0
  Rh  Rh11  1  0.00000000  0.00000000  0.96197000  1.0
  Rh  Rh12  1  0.00000000  0.50000000  0.11394000  1.0
  Rh  Rh13  1  0.00000000  0.50000000  0.96197000  1.0
  Rh  Rh14  1  0.50000000  0.00000000  0.11459000  1.0
  Rh  Rh15  1  0.50000000  0.00000000  0.96197000  1.0
  Rh  Rh16  1  0.50000000  0.50000000  0.11394000  1.0
  Rh  Rh17  1  0.50000000  0.50000000  0.96197000  1.0
  C  C18  1  0.00000000  0.00000000  0.19263000  1.0
  O  O19  1  0.00000000  0.00000000  0.23726000  1.0
