data_image0
_chemical_formula_structural       Li4Sc4Al4In4
_chemical_formula_sum              "Li4 Sc4 Al4 In4"
_cell_length_a       5.96334
_cell_length_b       8.71362
_cell_length_c       24.4721
_cell_angle_alpha    90
_cell_angle_beta     90
_cell_angle_gamma    90

_space_group_name_H-M_alt    "P 1"
_space_group_IT_number       1

loop_
  _space_group_symop_operation_xyz
  'x, y, z'

loop_
  _atom_site_type_symbol
  _atom_site_label
  _atom_site_symmetry_multiplicity
  _atom_site_fract_x
  _atom_site_fract_y
  _atom_site_fract_z
  _atom_site_occupancy
  Li  Li1       1.0  0.74648  0.25000  0.96954  1.0000
  Li  Li2       1.0  0.28656  0.25001  0.09719  1.0000
  Li  Li3       1.0  0.74648  0.75000  0.96954  1.0000
  Li  Li4       1.0  0.28654  0.74999  0.09721  1.0000
  Sc  Sc1       1.0  0.50000  0.00000  0.90863  1.0000
  Sc  Sc2       1.0  0.01217  0.00001  0.03269  1.0000
  Sc  Sc3       1.0  0.50000  0.50000  0.90863  1.0000
  Sc  Sc4       1.0  0.01225  0.49997  0.03279  1.0000
  Al  Al1       1.0  0.00000  0.00000  0.90863  1.0000
  Al  Al2       1.0  0.51623  0.99999  0.03552  1.0000
  Al  Al3       1.0  0.00000  0.50000  0.90863  1.0000
  Al  Al4       1.0  0.51616  0.50001  0.03552  1.0000
  In  In1       1.0  0.24648  0.25000  0.96954  1.0000
  In  In2       1.0  0.78370  0.24992  0.09311  1.0000
  In  In3       1.0  0.24648  0.75000  0.96954  1.0000
  In  In4       1.0  0.78371  0.75008  0.09312  1.0000
