# generated using pymatgen
data_LiScAlIn
_symmetry_space_group_name_H-M   'P 1'
_cell_length_a   8.71362000
_cell_length_b   5.96334000
_cell_length_c   24.47210000
_cell_angle_alpha   90.00000000
_cell_angle_beta   90.00000000
_cell_angle_gamma   90.00000000
_symmetry_Int_Tables_number   1
_chemical_formula_structural   LiScAlIn
_chemical_formula_sum   'Li4 Sc4 Al4 In4'
_cell_volume   1271.62608035
_cell_formula_units_Z   4
loop_
 _symmetry_equiv_pos_site_id
 _symmetry_equiv_pos_as_xyz
  1  'x, y, z'
loop_
 _atom_site_type_symbol
 _atom_site_label
 _atom_site_symmetry_multiplicity
 _atom_site_fract_x
 _atom_site_fract_y
 _atom_site_fract_z
 _atom_site_occupancy
  Li  Li0  1  0.25000000  0.74648000  0.03046000  1.0
  Li  Li1  1  0.25001000  0.28656000  0.90281000  1.0
  Li  Li2  1  0.75000000  0.74648000  0.03046000  1.0
  Li  Li3  1  0.74999000  0.28656000  0.90281000  1.0
  Sc  Sc4  1  0.00000000  0.50000000  0.09137000  1.0
  Sc  Sc5  1  0.00000000  0.01217000  0.96731000  1.0
  Sc  Sc6  1  0.50000000  0.50000000  0.09137000  1.0
  Sc  Sc7  1  0.50000000  0.01225000  0.96721000  1.0
  Al  Al8  1  0.00000000  0.00000000  0.09137000  1.0
  Al  Al9  1  0.00000000  0.51623000  0.96448000  1.0
  Al  Al10  1  0.50000000  1.00000000  0.09137000  1.0
  Al  Al11  1  0.50000000  0.51616000  0.96448000  1.0
  In  In12  1  0.25000000  0.24648000  0.03046000  1.0
  In  In13  1  0.24992000  0.78370000  0.90689000  1.0
  In  In14  1  0.75000000  0.24648000  0.03046000  1.0
  In  In15  1  0.75008000  0.78370000  0.90689000  1.0
