data_image0
_chemical_formula_structural       NbRu3NbRu3NbRu3NbRu3NbRu3NbRu3NbRu3NbRu3CO
_chemical_formula_sum              "Nb8 Ru24 C1 O1"
_cell_length_a       7.81108
_cell_length_b       7.81108
_cell_length_c       25.8583
_cell_angle_alpha    90
_cell_angle_beta     90
_cell_angle_gamma    90

_space_group_name_H-M_alt    "P 1"
_space_group_IT_number       1

loop_
  _space_group_symop_operation_xyz
  'x, y, z'

loop_
  _atom_site_type_symbol
  _atom_site_label
  _atom_site_symmetry_multiplicity
  _atom_site_fract_x
  _atom_site_fract_y
  _atom_site_fract_z
  _atom_site_occupancy
  Nb  Nb1       1.0  0.00000  0.00000  0.11328  1.0000
  Ru  Ru1       1.0  0.00000  0.25000  0.03776  1.0000
  Ru  Ru2       1.0  0.25000  0.00000  0.03776  1.0000
  Ru  Ru3       1.0  0.25000  0.25000  0.11328  1.0000
  Nb  Nb2       1.0  0.00000  0.00000  0.96224  1.0000
  Ru  Ru4       1.0  0.00000  0.25000  0.88672  1.0000
  Ru  Ru5       1.0  0.25000  0.00000  0.88672  1.0000
  Ru  Ru6       1.0  0.25000  0.25000  0.96224  1.0000
  Nb  Nb3       1.0  0.00000  0.50000  0.11328  1.0000
  Ru  Ru7       1.0  0.00000  0.75000  0.03776  1.0000
  Ru  Ru8       1.0  0.25000  0.50000  0.03776  1.0000
  Ru  Ru9       1.0  0.25000  0.75000  0.11328  1.0000
  Nb  Nb4       1.0  0.00000  0.50000  0.96224  1.0000
  Ru  Ru10      1.0  0.00000  0.75000  0.88672  1.0000
  Ru  Ru11      1.0  0.25000  0.50000  0.88672  1.0000
  Ru  Ru12      1.0  0.25000  0.75000  0.96224  1.0000
  Nb  Nb5       1.0  0.50000  0.00000  0.11328  1.0000
  Ru  Ru13      1.0  0.50000  0.25000  0.03776  1.0000
  Ru  Ru14      1.0  0.75000  0.00000  0.03776  1.0000
  Ru  Ru15      1.0  0.75000  0.25000  0.11328  1.0000
  Nb  Nb6       1.0  0.50000  0.00000  0.96224  1.0000
  Ru  Ru16      1.0  0.50000  0.25000  0.88672  1.0000
  Ru  Ru17      1.0  0.75000  0.00000  0.88672  1.0000
  Ru  Ru18      1.0  0.75000  0.25000  0.96224  1.0000
  Nb  Nb7       1.0  0.50000  0.50000  0.11328  1.0000
  Ru  Ru19      1.0  0.50000  0.75000  0.03776  1.0000
  Ru  Ru20      1.0  0.75000  0.50000  0.03776  1.0000
  Ru  Ru21      1.0  0.75000  0.75000  0.11328  1.0000
  Nb  Nb8       1.0  0.50000  0.50000  0.96224  1.0000
  Ru  Ru22      1.0  0.50000  0.75000  0.88672  1.0000
  Ru  Ru23      1.0  0.75000  0.50000  0.88672  1.0000
  Ru  Ru24      1.0  0.75000  0.75000  0.96224  1.0000
  C   C1        1.0  0.00000  0.00000  0.18675  1.0000
  O   O1        1.0  0.00000  0.00000  0.23123  1.0000
