# generated using pymatgen
data_TaAlNi2
_symmetry_space_group_name_H-M   Pmm2
_cell_length_a   4.24496000
_cell_length_b   6.00328000
_cell_length_c   26.36740000
_cell_angle_alpha   90.00000000
_cell_angle_beta   90.00000000
_cell_angle_gamma   90.00000000
_symmetry_Int_Tables_number   25
_chemical_formula_structural   TaAlNi2
_chemical_formula_sum   'Ta4 Al4 Ni8'
_cell_volume   671.93847550
_cell_formula_units_Z   4
loop_
 _symmetry_equiv_pos_site_id
 _symmetry_equiv_pos_as_xyz
  1  'x, y, z'
  2  '-x, -y, z'
  3  '-x, y, z'
  4  'x, -y, z'
loop_
 _atom_site_type_symbol
 _atom_site_label
 _atom_site_symmetry_multiplicity
 _atom_site_fract_x
 _atom_site_fract_y
 _atom_site_fract_z
 _atom_site_occupancy
  Ta  Ta0  1  0.00000000  0.00000000  0.12074000  1.0
  Ta  Ta1  1  0.00000000  0.00000000  0.95973000  1.0
  Ta  Ta2  1  0.50000000  0.50000000  0.04025000  1.0
  Ta  Ta3  1  0.50000000  0.50000000  0.87907000  1.0
  Al  Al4  1  0.00000000  0.50000000  0.12074000  1.0
  Al  Al5  1  0.00000000  0.50000000  0.96015000  1.0
  Al  Al6  1  0.50000000  0.00000000  0.04025000  1.0
  Al  Al7  1  0.50000000  0.00000000  0.87892000  1.0
  Ni  Ni8  2  0.00000000  0.25000000  0.04025000  1.0
  Ni  Ni9  2  0.00000000  0.25463500  0.88360500  1.0
  Ni  Ni10  2  0.50000000  0.25000000  0.12074000  1.0
  Ni  Ni11  2  0.50000000  0.25694000  0.95723000  1.0
