# generated using pymatgen
data_Li4Mg4In4Ge4C
_symmetry_space_group_name_H-M   Pm
_cell_length_a   5.94975000
_cell_length_b   8.75068000
_cell_length_c   24.46230000
_cell_angle_alpha   90.00000000
_cell_angle_beta   90.00000000
_cell_angle_gamma   90.00000000
_symmetry_Int_Tables_number   6
_chemical_formula_structural   Li4Mg4In4Ge4C
_chemical_formula_sum   'Li4 Mg4 In4 Ge4 C1'
_cell_volume   1273.61395278
_cell_formula_units_Z   1
loop_
 _symmetry_equiv_pos_site_id
 _symmetry_equiv_pos_as_xyz
  1  'x, y, z'
  2  'x, -y, z'
loop_
 _atom_site_type_symbol
 _atom_site_label
 _atom_site_symmetry_multiplicity
 _atom_site_fract_x
 _atom_site_fract_y
 _atom_site_fract_z
 _atom_site_occupancy
  Li  Li0  1  0.25076000  0.00000000  0.90879000  1.0
  Li  Li1  1  0.25076000  0.50000000  0.90879000  1.0
  Li  Li2  1  0.73099000  0.00000000  0.02388000  1.0
  Li  Li3  1  0.80077000  0.50000000  0.06924000  1.0
  Mg  Mg4  2  0.00051000  0.24998000  0.96960000  1.0
  Mg  Mg5  2  0.49492000  0.18716000  0.10154000  1.0
  In  In6  1  0.21676000  0.00000000  0.02728000  1.0
  In  In7  1  0.30368000  0.50000000  0.04106000  1.0
  In  In8  1  0.75076000  0.00000000  0.90879000  1.0
  In  In9  1  0.75076000  0.50000000  0.90879000  1.0
  Ge  Ge10  2  0.50051000  0.24998000  0.96960000  1.0
  Ge  Ge11  2  0.95898000  0.19026000  0.10585000  1.0
  C  C12  1  0.77295000  0.00000000  0.10893000  1.0
