data_image0
_chemical_formula_structural       Mn4Co8Sn4CO
_chemical_formula_sum              "Mn4 Co8 Sn4 C1 O1"
_cell_length_a       6.01864
_cell_length_b       6.01864
_cell_length_c       24.514
_cell_angle_alpha    90
_cell_angle_beta     90
_cell_angle_gamma    90

_space_group_name_H-M_alt    "P 1"
_space_group_IT_number       1

loop_
  _space_group_symop_operation_xyz
  'x, y, z'

loop_
  _atom_site_type_symbol
  _atom_site_label
  _atom_site_symmetry_multiplicity
  _atom_site_fract_x
  _atom_site_fract_y
  _atom_site_fract_z
  _atom_site_occupancy
  Mn  Mn1       1.0  0.00000  0.00000  0.90793  1.0000
  Mn  Mn2       1.0  0.50000  0.50000  0.90793  1.0000
  Mn  Mn3       1.0  0.50000  0.00000  0.03069  1.0000
  Mn  Mn4       1.0  0.00000  0.50000  0.03069  1.0000
  Co  Co1       1.0  0.25000  0.25000  0.96931  1.0000
  Co  Co2       1.0  0.75000  0.75000  0.09207  1.0000
  Co  Co3       1.0  0.75000  0.25000  0.96931  1.0000
  Co  Co4       1.0  0.25000  0.75000  0.09207  1.0000
  Co  Co5       1.0  0.75000  0.75000  0.96931  1.0000
  Co  Co6       1.0  0.25000  0.25000  0.09207  1.0000
  Co  Co7       1.0  0.25000  0.75000  0.96931  1.0000
  Co  Co8       1.0  0.75000  0.25000  0.09207  1.0000
  Sn  Sn1       1.0  0.00000  0.00000  0.03069  1.0000
  Sn  Sn2       1.0  0.50000  0.00000  0.90793  1.0000
  Sn  Sn3       1.0  0.00000  0.50000  0.90793  1.0000
  Sn  Sn4       1.0  0.50000  0.50000  0.03069  1.0000
  C   C1        1.0  0.25000  0.25000  0.16958  1.0000
  O   O1        1.0  0.25000  0.25000  0.21649  1.0000
