# generated using pymatgen
data_Li8Mg8Al8Cu8C
_symmetry_space_group_name_H-M   'P 1'
_cell_length_a   6.19386000
_cell_length_b   8.75944000
_cell_length_c   26.56960000
_cell_angle_alpha   90.00000000
_cell_angle_beta   90.00000000
_cell_angle_gamma   90.00000000
_symmetry_Int_Tables_number   1
_chemical_formula_structural   Li8Mg8Al8Cu8C
_chemical_formula_sum   'Li8 Mg8 Al8 Cu8 C1'
_cell_volume   1441.52687377
_cell_formula_units_Z   1
loop_
 _symmetry_equiv_pos_site_id
 _symmetry_equiv_pos_as_xyz
  1  'x, y, z'
loop_
 _atom_site_type_symbol
 _atom_site_label
 _atom_site_symmetry_multiplicity
 _atom_site_fract_x
 _atom_site_fract_y
 _atom_site_fract_z
 _atom_site_occupancy
  Li  Li0  1  0.75000000  0.00000000  0.95879000  1.0
  Li  Li1  1  0.75000000  0.50000000  0.95879000  1.0
  Li  Li2  1  0.25000000  0.75000000  0.87637000  1.0
  Li  Li3  1  0.25000000  0.25000000  0.87637000  1.0
  Li  Li4  1  0.69816000  0.51564000  0.15866000  1.0
  Li  Li5  1  0.69818000  0.98436000  0.15866000  1.0
  Li  Li6  1  0.24411000  0.25000000  0.04362000  1.0
  Li  Li7  1  0.23311000  0.75001000  0.04231000  1.0
  Mg  Mg8  1  1.00000000  0.75000000  0.95879000  1.0
  Mg  Mg9  1  1.00000000  0.25000000  0.95879000  1.0
  Mg  Mg10  1  0.50000000  0.50000000  0.87637000  1.0
  Mg  Mg11  1  0.50000000  0.00000000  0.87637000  1.0
  Mg  Mg12  1  0.97674000  0.25003000  0.12755000  1.0
  Mg  Mg13  1  0.03129000  0.74992000  0.13599000  1.0
  Mg  Mg14  1  0.51234000  0.99961000  0.04267000  1.0
  Mg  Mg15  1  0.51237000  0.50038000  0.04266000  1.0
  Al  Al16  1  0.00000000  0.00000000  0.87637000  1.0
  Al  Al17  1  1.00000000  0.50000000  0.87637000  1.0
  Al  Al18  1  0.50000000  0.25000000  0.95879000  1.0
  Al  Al19  1  0.50000000  0.75000000  0.95879000  1.0
  Al  Al20  1  0.99180000  0.49638000  0.04503000  1.0
  Al  Al21  1  0.99183000  0.00362000  0.04503000  1.0
  Al  Al22  1  0.46518000  0.74999000  0.12163000  1.0
  Al  Al23  1  0.49682000  0.25000000  0.12462000  1.0
  Cu  Cu24  1  0.25000000  0.00000000  0.95879000  1.0
  Cu  Cu25  1  0.25000000  0.50000000  0.95879000  1.0
  Cu  Cu26  1  0.75000000  0.75000000  0.87637000  1.0
  Cu  Cu27  1  0.75000000  0.25000000  0.87637000  1.0
  Cu  Cu28  1  0.25863000  0.48788000  0.11686000  1.0
  Cu  Cu29  1  0.25862000  0.01210000  0.11686000  1.0
  Cu  Cu30  1  0.75112000  0.25000000  0.03765000  1.0
  Cu  Cu31  1  0.76808000  0.75000000  0.04347000  1.0
  C  C32  1  0.72030000  0.75002000  0.15773000  1.0
