# generated using pymatgen
data_Li8In8Cu8Pt8C
_symmetry_space_group_name_H-M   'P 1'
_cell_length_a   6.33470000
_cell_length_b   8.95862000
_cell_length_c   26.71900000
_cell_angle_alpha   90.00000000
_cell_angle_beta   90.00000000
_cell_angle_gamma   90.00000000
_symmetry_Int_Tables_number   1
_chemical_formula_structural   Li8In8Cu8Pt8C
_chemical_formula_sum   'Li8 In8 Cu8 Pt8 C1'
_cell_volume   1516.30779528
_cell_formula_units_Z   1
loop_
 _symmetry_equiv_pos_site_id
 _symmetry_equiv_pos_as_xyz
  1  'x, y, z'
loop_
 _atom_site_type_symbol
 _atom_site_label
 _atom_site_symmetry_multiplicity
 _atom_site_fract_x
 _atom_site_fract_y
 _atom_site_fract_z
 _atom_site_occupancy
  Li  Li0  1  0.25000000  0.00000000  0.95809000  1.0
  Li  Li1  1  0.25000000  0.50000000  0.95809000  1.0
  Li  Li2  1  0.75000000  0.75000000  0.87427000  1.0
  Li  Li3  1  0.75000000  0.25000000  0.87427000  1.0
  Li  Li4  1  0.35851000  0.50004000  0.14892000  1.0
  Li  Li5  1  0.24322000  0.00002000  0.16187000  1.0
  Li  Li6  1  0.77247000  0.24674000  0.04586000  1.0
  Li  Li7  1  0.77231000  0.75308000  0.04585000  1.0
  In  In8  1  0.00000000  0.75000000  0.95809000  1.0
  In  In9  1  0.00000000  0.25000000  0.95809000  1.0
  In  In10  1  0.50000000  0.50000000  0.87427000  1.0
  In  In11  1  0.50000000  0.00000000  0.87427000  1.0
  In  In12  1  0.03386000  0.27482000  0.13470000  1.0
  In  In13  1  0.03383000  0.72523000  0.13469000  1.0
  In  In14  1  0.49089000  0.00000000  0.04242000  1.0
  In  In15  1  0.49597000  0.49997000  0.04305000  1.0
  Cu  Cu16  1  0.00000000  0.00000000  0.87427000  1.0
  Cu  Cu17  1  0.00000000  0.50000000  0.87427000  1.0
  Cu  Cu18  1  0.50000000  0.25000000  0.95809000  1.0
  Cu  Cu19  1  0.50000000  0.75000000  0.95809000  1.0
  Cu  Cu20  1  0.00734000  0.50000000  0.04077000  1.0
  Cu  Cu21  1  0.02652000  0.99997000  0.03541000  1.0
  Cu  Cu22  1  0.52081000  0.78090000  0.12297000  1.0
  Cu  Cu23  1  0.52077000  0.21915000  0.12297000  1.0
  Pt  Pt24  1  0.75000000  0.00000000  0.95809000  1.0
  Pt  Pt25  1  0.75000000  0.50000000  0.95809000  1.0
  Pt  Pt26  1  0.25000000  0.75000000  0.87427000  1.0
  Pt  Pt27  1  0.25000000  0.25000000  0.87427000  1.0
  Pt  Pt28  1  0.75055000  0.50003000  0.12171000  1.0
  Pt  Pt29  1  0.84019000  0.00004000  0.12119000  1.0
  Pt  Pt30  1  0.24825000  0.25271000  0.04125000  1.0
  Pt  Pt31  1  0.24830000  0.74726000  0.04125000  1.0
  C  C32  1  0.54372000  0.00003000  0.13638000  1.0
