# generated using pymatgen
data_Li8In8Cu8Pt8C
_symmetry_space_group_name_H-M   P1
_cell_length_a   6.33470000
_cell_length_b   8.95862000
_cell_length_c   26.71900000
_cell_angle_alpha   90.00000000
_cell_angle_beta   90.00000000
_cell_angle_gamma   90.00000000
_symmetry_Int_Tables_number   1
_chemical_formula_structural   Li8In8Cu8Pt8C
_chemical_formula_sum   'Li8 In8 Cu8 Pt8 C1'
_cell_volume   1516.30779528
_cell_formula_units_Z   1
loop_
 _symmetry_equiv_pos_site_id
 _symmetry_equiv_pos_as_xyz
  1  'x, y, z'
loop_
 _atom_site_type_symbol
 _atom_site_label
 _atom_site_symmetry_multiplicity
 _atom_site_fract_x
 _atom_site_fract_y
 _atom_site_fract_z
 _atom_site_occupancy
  Li  Li0  1  0.22753000  0.75326000  0.04586000  1.0
  Li  Li1  1  0.22769000  0.24692000  0.04585000  1.0
  Li  Li2  1  0.25000000  0.25000000  0.87427000  1.0
  Li  Li3  1  0.25000000  0.75000000  0.87427000  1.0
  Li  Li4  1  0.64149000  0.49996000  0.14892000  1.0
  Li  Li5  1  0.75000000  0.00000000  0.95809000  1.0
  Li  Li6  1  0.75000000  0.50000000  0.95809000  1.0
  Li  Li7  1  0.75678000  0.99998000  0.16187000  1.0
  In  In8  1  -0.00000000  0.75000000  0.95809000  1.0
  In  In9  1  -0.00000000  0.25000000  0.95809000  1.0
  In  In10  1  0.50000000  0.00000000  0.87427000  1.0
  In  In11  1  0.50000000  0.50000000  0.87427000  1.0
  In  In12  1  0.50403000  0.50003000  0.04305000  1.0
  In  In13  1  0.50911000  0.00000000  0.04242000  1.0
  In  In14  1  0.96614000  0.72518000  0.13470000  1.0
  In  In15  1  0.96617000  0.27477000  0.13469000  1.0
  Cu  Cu16  1  -0.00000000  0.50000000  0.87427000  1.0
  Cu  Cu17  1  0.00000000  0.00000000  0.87427000  1.0
  Cu  Cu18  1  0.47919000  0.21910000  0.12297000  1.0
  Cu  Cu19  1  0.47923000  0.78085000  0.12297000  1.0
  Cu  Cu20  1  0.50000000  0.25000000  0.95809000  1.0
  Cu  Cu21  1  0.50000000  0.75000000  0.95809000  1.0
  Cu  Cu22  1  0.97348000  0.00003000  0.03541000  1.0
  Cu  Cu23  1  0.99266000  0.50000000  0.04077000  1.0
  Pt  Pt24  1  0.15981000  0.99996000  0.12119000  1.0
  Pt  Pt25  1  0.24945000  0.49997000  0.12171000  1.0
  Pt  Pt26  1  0.25000000  0.00000000  0.95809000  1.0
  Pt  Pt27  1  0.25000000  0.50000000  0.95809000  1.0
  Pt  Pt28  1  0.75000000  0.25000000  0.87427000  1.0
  Pt  Pt29  1  0.75000000  0.75000000  0.87427000  1.0
  Pt  Pt30  1  0.75170000  0.25274000  0.04125000  1.0
  Pt  Pt31  1  0.75175000  0.74729000  0.04125000  1.0
  C  C32  1  0.45628000  0.99997000  0.13638000  1.0
