# generated using pymatgen
data_Y8Sc8In8Pd8CO
_symmetry_space_group_name_H-M   'P 1'
_cell_length_a   9.64246000
_cell_length_b   10.11530000
_cell_length_c   25.52170000
_cell_angle_alpha   90.00000000
_cell_angle_beta   90.00000000
_cell_angle_gamma   90.00000000
_symmetry_Int_Tables_number   1
_chemical_formula_structural   Y8Sc8In8Pd8CO
_chemical_formula_sum   'Y8 Sc8 In8 Pd8 C1 O1'
_cell_volume   2489.29411812
_cell_formula_units_Z   1
loop_
 _symmetry_equiv_pos_site_id
 _symmetry_equiv_pos_as_xyz
  1  'x, y, z'
loop_
 _atom_site_type_symbol
 _atom_site_label
 _atom_site_symmetry_multiplicity
 _atom_site_fract_x
 _atom_site_fract_y
 _atom_site_fract_z
 _atom_site_occupancy
  Y  Y0  1  0.75000000  0.25000000  0.96394000  1.0
  Y  Y1  1  0.75000000  0.25000000  0.10818000  1.0
  Y  Y2  1  0.75000000  0.75000000  0.96394000  1.0
  Y  Y3  1  0.75000000  0.75000000  0.10818000  1.0
  Y  Y4  1  0.25000000  0.25000000  0.96394000  1.0
  Y  Y5  1  0.25000000  0.25000000  0.10818000  1.0
  Y  Y6  1  0.25000000  0.75000000  0.96394000  1.0
  Y  Y7  1  0.25000000  0.75000000  0.10818000  1.0
  Sc  Sc8  1  0.00000000  0.00000000  0.96394000  1.0
  Sc  Sc9  1  0.00000000  0.00000000  0.10818000  1.0
  Sc  Sc10  1  0.00000000  0.50000000  0.96394000  1.0
  Sc  Sc11  1  0.00000000  0.50000000  0.10818000  1.0
  Sc  Sc12  1  0.50000000  0.00000000  0.96394000  1.0
  Sc  Sc13  1  0.50000000  0.00000000  0.10818000  1.0
  Sc  Sc14  1  0.50000000  0.50000000  0.96394000  1.0
  Sc  Sc15  1  0.50000000  0.50000000  0.10818000  1.0
  In  In16  1  0.75000000  0.00000000  0.89182000  1.0
  In  In17  1  0.75000000  0.00000000  0.03606000  1.0
  In  In18  1  0.75000000  0.50000000  0.89182000  1.0
  In  In19  1  0.75000000  0.50000000  0.03606000  1.0
  In  In20  1  0.25000000  0.00000000  0.89182000  1.0
  In  In21  1  0.25000000  0.00000000  0.03606000  1.0
  In  In22  1  0.25000000  0.50000000  0.89182000  1.0
  In  In23  1  0.25000000  0.50000000  0.03606000  1.0
  Pd  Pd24  1  0.00000000  0.25000000  0.89182000  1.0
  Pd  Pd25  1  0.00000000  0.25000000  0.03606000  1.0
  Pd  Pd26  1  0.00000000  0.75000000  0.89182000  1.0
  Pd  Pd27  1  0.00000000  0.75000000  0.03606000  1.0
  Pd  Pd28  1  0.50000000  0.25000000  0.89182000  1.0
  Pd  Pd29  1  0.50000000  0.25000000  0.03606000  1.0
  Pd  Pd30  1  0.50000000  0.75000000  0.89182000  1.0
  Pd  Pd31  1  0.50000000  0.75000000  0.03606000  1.0
  C  C32  1  0.00000000  0.00000000  0.18262000  1.0
  O  O33  1  0.00000000  0.00000000  0.22768000  1.0
