# generated using pymatgen
data_LiMgInCu
_symmetry_space_group_name_H-M   'P 1'
_cell_length_a   9.10482000
_cell_length_b   6.43808000
_cell_length_c   26.82860000
_cell_angle_alpha   90.00000000
_cell_angle_beta   90.00000000
_cell_angle_gamma   90.00000000
_symmetry_Int_Tables_number   1
_chemical_formula_structural   LiMgInCu
_chemical_formula_sum   'Li8 Mg8 In8 Cu8'
_cell_volume   1572.62705803
_cell_formula_units_Z   8
loop_
 _symmetry_equiv_pos_site_id
 _symmetry_equiv_pos_as_xyz
  1  'x, y, z'
loop_
 _atom_site_type_symbol
 _atom_site_label
 _atom_site_symmetry_multiplicity
 _atom_site_fract_x
 _atom_site_fract_y
 _atom_site_fract_z
 _atom_site_occupancy
  Li  Li0  1  0.00000000  0.00000000  0.04242000  1.0
  Li  Li1  1  0.50000000  0.00000000  0.04242000  1.0
  Li  Li2  1  0.25000000  0.50000000  0.12726000  1.0
  Li  Li3  1  0.75000000  0.50000000  0.12726000  1.0
  Li  Li4  1  0.50000000  0.02423000  0.84340000  1.0
  Li  Li5  1  0.00000000  0.02422000  0.84340000  1.0
  Li  Li6  1  0.75001000  0.49857000  0.95475000  1.0
  Li  Li7  1  0.24999000  0.49857000  0.95475000  1.0
  Mg  Mg8  1  0.75000000  0.75000000  0.04242000  1.0
  Mg  Mg9  1  0.25000000  0.75000000  0.04242000  1.0
  Mg  Mg10  1  0.00000000  0.25000000  0.12726000  1.0
  Mg  Mg11  1  0.50000000  0.25000000  0.12726000  1.0
  Mg  Mg12  1  0.25001000  0.74712000  0.86626000  1.0
  Mg  Mg13  1  0.74999000  0.74712000  0.86626000  1.0
  Mg  Mg14  1  0.50000000  0.23954000  0.95185000  1.0
  Mg  Mg15  1  0.00000000  0.23933000  0.95184000  1.0
  In  In16  1  0.75000000  0.25000000  0.04242000  1.0
  In  In17  1  0.25000000  0.25000000  0.04242000  1.0
  In  In18  1  0.00000000  0.75000000  0.12726000  1.0
  In  In19  1  0.50000000  0.75000000  0.12726000  1.0
  In  In20  1  0.24999000  0.24954000  0.86404000  1.0
  In  In21  1  0.75001000  0.24954000  0.86404000  1.0
  In  In22  1  0.50000000  0.75791000  0.95085000  1.0
  In  In23  1  0.00000000  0.75787000  0.95084000  1.0
  Cu  Cu24  1  0.75000000  0.00000000  0.12726000  1.0
  Cu  Cu25  1  0.25000000  0.00000000  0.12726000  1.0
  Cu  Cu26  1  0.50000000  0.50000000  0.04242000  1.0
  Cu  Cu27  1  0.00000000  0.50000000  0.04242000  1.0
  Cu  Cu28  1  0.25000000  0.00134000  0.95823000  1.0
  Cu  Cu29  1  0.75000000  0.00134000  0.95823000  1.0
  Cu  Cu30  1  0.00000000  0.49205000  0.87268000  1.0
  Cu  Cu31  1  0.50000000  0.49206000  0.87266000  1.0
