# generated using pymatgen
data_LiMgInCu
_symmetry_space_group_name_H-M   Pm
_cell_length_a   6.43808000
_cell_length_b   9.10482000
_cell_length_c   26.82860000
_cell_angle_alpha   90.00000000
_cell_angle_beta   90.00000000
_cell_angle_gamma   90.00000000
_symmetry_Int_Tables_number   6
_chemical_formula_structural   LiMgInCu
_chemical_formula_sum   'Li8 Mg8 In8 Cu8'
_cell_volume   1572.62705803
_cell_formula_units_Z   8
loop_
 _symmetry_equiv_pos_site_id
 _symmetry_equiv_pos_as_xyz
  1  'x, y, z'
  2  'x, -y, z'
loop_
 _atom_site_type_symbol
 _atom_site_label
 _atom_site_symmetry_multiplicity
 _atom_site_fract_x
 _atom_site_fract_y
 _atom_site_fract_z
 _atom_site_occupancy
  Li  Li0  2  0.49857000  0.24999000  0.04525000  1.0
  Li  Li1  2  0.50000000  0.25000000  0.87274000  1.0
  Li  Li2  1  0.00000000  0.00000000  0.95758000  1.0
  Li  Li3  1  0.00000000  0.50000000  0.95758000  1.0
  Li  Li4  1  0.02422000  0.00000000  0.15660000  1.0
  Li  Li5  1  0.02423000  0.50000000  0.15660000  1.0
  Mg  Mg6  2  0.74712000  0.25001000  0.13374000  1.0
  Mg  Mg7  2  0.75000000  0.25000000  0.95758000  1.0
  Mg  Mg8  1  0.23933000  0.00000000  0.04816000  1.0
  Mg  Mg9  1  0.23954000  0.50000000  0.04815000  1.0
  Mg  Mg10  1  0.25000000  0.00000000  0.87274000  1.0
  Mg  Mg11  1  0.25000000  0.50000000  0.87274000  1.0
  In  In12  2  0.24954000  0.24999000  0.13596000  1.0
  In  In13  2  0.25000000  0.25000000  0.95758000  1.0
  In  In14  1  0.75000000  0.00000000  0.87274000  1.0
  In  In15  1  0.75000000  0.50000000  0.87274000  1.0
  In  In16  1  0.75787000  0.00000000  0.04916000  1.0
  In  In17  1  0.75791000  0.50000000  0.04915000  1.0
  Cu  Cu18  2  0.00000000  0.25000000  0.87274000  1.0
  Cu  Cu19  2  0.00134000  0.25000000  0.04177000  1.0
  Cu  Cu20  1  0.49205000  0.00000000  0.12732000  1.0
  Cu  Cu21  1  0.49206000  0.50000000  0.12734000  1.0
  Cu  Cu22  1  0.50000000  0.00000000  0.95758000  1.0
  Cu  Cu23  1  0.50000000  0.50000000  0.95758000  1.0
