# generated using pymatgen
data_Li4Y4In4Sn4CO
_symmetry_space_group_name_H-M   Pm
_cell_length_a   6.50942000
_cell_length_b   8.86856000
_cell_length_c   24.87900000
_cell_angle_alpha   90.00000000
_cell_angle_beta   90.00000000
_cell_angle_gamma   90.00000000
_symmetry_Int_Tables_number   6
_chemical_formula_structural   Li4Y4In4Sn4CO
_chemical_formula_sum   'Li4 Y4 In4 Sn4 C1 O1'
_cell_volume   1436.24431488
_cell_formula_units_Z   1
loop_
 _symmetry_equiv_pos_site_id
 _symmetry_equiv_pos_as_xyz
  1  'x, y, z'
  2  'x, -y, z'
loop_
 _atom_site_type_symbol
 _atom_site_label
 _atom_site_symmetry_multiplicity
 _atom_site_fract_x
 _atom_site_fract_y
 _atom_site_fract_z
 _atom_site_occupancy
  Li  Li0  1  0.28615000  0.50000000  0.90519000  1.0
  Li  Li1  1  0.29397000  0.00000000  0.91002000  1.0
  Li  Li2  1  0.75881000  0.00000000  0.03269000  1.0
  Li  Li3  1  0.75881000  0.50000000  0.03269000  1.0
  Y  Y4  1  0.25881000  0.00000000  0.03269000  1.0
  Y  Y5  1  0.25881000  0.50000000  0.03269000  1.0
  Y  Y6  1  0.78680000  0.50000000  0.90659000  1.0
  Y  Y7  1  0.79166000  0.00000000  0.90699000  1.0
  In  In8  2  0.00000000  0.25000000  0.09806000  1.0
  In  In9  2  0.53592000  0.24958000  0.96981000  1.0
  Sn  Sn10  2  0.04609000  0.24933000  0.95753000  1.0
  Sn  Sn11  2  0.50000000  0.25000000  0.09806000  1.0
  C  C12  1  0.78460000  0.50000000  0.80767000  1.0
  O  O13  1  0.78851000  0.50000000  0.76114000  1.0
