# generated using pymatgen
data_Li4Al4Fe4Pd4C
_symmetry_space_group_name_H-M   Pm
_cell_length_a   6.16988000
_cell_length_b   5.67696000
_cell_length_c   24.62570000
_cell_angle_alpha   90.00000000
_cell_angle_beta   90.00000000
_cell_angle_gamma   90.00000000
_symmetry_Int_Tables_number   6
_chemical_formula_structural   Li4Al4Fe4Pd4C
_chemical_formula_sum   'Li4 Al4 Fe4 Pd4 C1'
_cell_volume   862.54375670
_cell_formula_units_Z   1
loop_
 _symmetry_equiv_pos_site_id
 _symmetry_equiv_pos_as_xyz
  1  'x, y, z'
  2  'x, -y, z'
loop_
 _atom_site_type_symbol
 _atom_site_label
 _atom_site_symmetry_multiplicity
 _atom_site_fract_x
 _atom_site_fract_y
 _atom_site_fract_z
 _atom_site_occupancy
  Li  Li0  2  0.50000000  0.25000000  0.09392000  1.0
  Li  Li1  2  0.98652000  0.25000000  0.96869000  1.0
  Al  Al2  2  0.00000000  0.25000000  0.09392000  1.0
  Al  Al3  2  0.48652000  0.25000000  0.96869000  1.0
  Fe  Fe4  1  0.24326000  0.00000000  0.03131000  1.0
  Fe  Fe5  1  0.24326000  0.50000000  0.03131000  1.0
  Fe  Fe6  1  0.72978000  0.00000000  0.90608000  1.0
  Fe  Fe7  1  0.72978000  0.50000000  0.90608000  1.0
  Pd  Pd8  1  0.22978000  0.00000000  0.90608000  1.0
  Pd  Pd9  1  0.22978000  0.50000000  0.90608000  1.0
  Pd  Pd10  1  0.74326000  0.00000000  0.03131000  1.0
  Pd  Pd11  1  0.74326000  0.50000000  0.03131000  1.0
  C  C12  1  0.24326000  0.50000000  0.12641000  1.0
