# generated using pymatgen
data_Mn16Ni16C
_symmetry_space_group_name_H-M   'P 1'
_cell_length_a   5.87849000
_cell_length_b   8.31345000
_cell_length_c   26.23510000
_cell_angle_alpha   90.00000000
_cell_angle_beta   90.00000000
_cell_angle_gamma   90.00000000
_symmetry_Int_Tables_number   1
_chemical_formula_structural   Mn16Ni16C
_chemical_formula_sum   'Mn16 Ni16 C1'
_cell_volume   1282.12331219
_cell_formula_units_Z   1
loop_
 _symmetry_equiv_pos_site_id
 _symmetry_equiv_pos_as_xyz
  1  'x, y, z'
loop_
 _atom_site_type_symbol
 _atom_site_label
 _atom_site_symmetry_multiplicity
 _atom_site_fract_x
 _atom_site_fract_y
 _atom_site_fract_z
 _atom_site_occupancy
  Mn  Mn0  1  0.00000000  0.00000000  0.88117000  1.0
  Mn  Mn1  1  0.00000000  0.25000000  0.96039000  1.0
  Mn  Mn2  1  0.00000000  0.00000000  0.04217000  1.0
  Mn  Mn3  1  0.00000000  0.23846000  0.12332000  1.0
  Mn  Mn4  1  0.00000000  0.50000000  0.88117000  1.0
  Mn  Mn5  1  0.00000000  0.75000000  0.96039000  1.0
  Mn  Mn6  1  0.00000000  0.50000000  0.03842000  1.0
  Mn  Mn7  1  0.00000000  0.76154000  0.12332000  1.0
  Mn  Mn8  1  0.50000000  0.00000000  0.88117000  1.0
  Mn  Mn9  1  0.50000000  0.25000000  0.96039000  1.0
  Mn  Mn10  1  0.50000000  0.00000000  0.03653000  1.0
  Mn  Mn11  1  0.50000000  0.26439000  0.12279000  1.0
  Mn  Mn12  1  0.50000000  0.50000000  0.88117000  1.0
  Mn  Mn13  1  0.50000000  0.75000000  0.96039000  1.0
  Mn  Mn14  1  0.50000000  0.50000000  0.04069000  1.0
  Mn  Mn15  1  0.50000000  0.73561000  0.12279000  1.0
  Ni  Ni16  1  0.25000000  0.25000000  0.88117000  1.0
  Ni  Ni17  1  0.25000000  0.00000000  0.96039000  1.0
  Ni  Ni18  1  0.25076000  0.25018000  0.04128000  1.0
  Ni  Ni19  1  0.29396000  0.00000000  0.11511000  1.0
  Ni  Ni20  1  0.25000000  0.75000000  0.88117000  1.0
  Ni  Ni21  1  0.25000000  0.50000000  0.96039000  1.0
  Ni  Ni22  1  0.25076000  0.74982000  0.04128000  1.0
  Ni  Ni23  1  0.23101000  0.50000000  0.11404000  1.0
  Ni  Ni24  1  0.75000000  0.25000000  0.88117000  1.0
  Ni  Ni25  1  0.75000000  0.00000000  0.96039000  1.0
  Ni  Ni26  1  0.74924000  0.25018000  0.04128000  1.0
  Ni  Ni27  1  0.70604000  0.00000000  0.11511000  1.0
  Ni  Ni28  1  0.75000000  0.75000000  0.88117000  1.0
  Ni  Ni29  1  0.75000000  0.50000000  0.96039000  1.0
  Ni  Ni30  1  0.74924000  0.74982000  0.04128000  1.0
  Ni  Ni31  1  0.76899000  0.50000000  0.11404000  1.0
  C  C32  1  0.00000000  0.00000000  0.13346000  1.0
