# generated using pymatgen
data_Li8Mg8Cu8Sn8CO
_symmetry_space_group_name_H-M   'P 1'
_cell_length_a   9.16858000
_cell_length_b   6.48317000
_cell_length_c   26.87640000
_cell_angle_alpha   90.00000000
_cell_angle_beta   90.00000000
_cell_angle_gamma   90.00000000
_symmetry_Int_Tables_number   1
_chemical_formula_structural   Li8Mg8Cu8Sn8CO
_chemical_formula_sum   'Li8 Mg8 Cu8 Sn8 C1 O1'
_cell_volume   1597.57253076
_cell_formula_units_Z   1
loop_
 _symmetry_equiv_pos_site_id
 _symmetry_equiv_pos_as_xyz
  1  'x, y, z'
loop_
 _atom_site_type_symbol
 _atom_site_label
 _atom_site_symmetry_multiplicity
 _atom_site_fract_x
 _atom_site_fract_y
 _atom_site_fract_z
 _atom_site_occupancy
  Li  Li0  1  0.00000000  1.00000000  0.04264000  1.0
  Li  Li1  1  0.50000000  1.00000000  0.04264000  1.0
  Li  Li2  1  0.25000000  0.50000000  0.12793000  1.0
  Li  Li3  1  0.75000000  0.50000000  0.12793000  1.0
  Li  Li4  1  0.50000000  0.07511000  0.83223000  1.0
  Li  Li5  1  0.00000000  0.05710000  0.83282000  1.0
  Li  Li6  1  0.75023000  0.49974000  0.95556000  1.0
  Li  Li7  1  0.24977000  0.49974000  0.95556000  1.0
  Mg  Mg8  1  0.75000000  0.75000000  0.04264000  1.0
  Mg  Mg9  1  0.25000000  0.75000000  0.04264000  1.0
  Mg  Mg10  1  0.00000000  0.25000000  0.12793000  1.0
  Mg  Mg11  1  0.50000000  0.25000000  0.12793000  1.0
  Mg  Mg12  1  0.25374000  0.75825000  0.86803000  1.0
  Mg  Mg13  1  0.74626000  0.75825000  0.86803000  1.0
  Mg  Mg14  1  0.50000000  0.23163000  0.95012000  1.0
  Mg  Mg15  1  0.00000000  0.23373000  0.94989000  1.0
  Cu  Cu16  1  0.75000000  0.00000000  0.12793000  1.0
  Cu  Cu17  1  0.25000000  0.00000000  0.12793000  1.0
  Cu  Cu18  1  0.50000000  0.50000000  0.04264000  1.0
  Cu  Cu19  1  0.00000000  0.50000000  0.04264000  1.0
  Cu  Cu20  1  0.25004000  0.00050000  0.95960000  1.0
  Cu  Cu21  1  0.74996000  0.00050000  0.95960000  1.0
  Cu  Cu22  1  0.00000000  0.49788000  0.87360000  1.0
  Cu  Cu23  1  0.50000000  0.49526000  0.87413000  1.0
  Sn  Sn24  1  0.75000000  0.25000000  0.04264000  1.0
  Sn  Sn25  1  0.25000000  0.25000000  0.04264000  1.0
  Sn  Sn26  1  0.00000000  0.75000000  0.12793000  1.0
  Sn  Sn27  1  0.50000000  0.75000000  0.12793000  1.0
  Sn  Sn28  1  0.24972000  0.26179000  0.86723000  1.0
  Sn  Sn29  1  0.75028000  0.26179000  0.86723000  1.0
  Sn  Sn30  1  0.50000000  0.75831000  0.95317000  1.0
  Sn  Sn31  1  0.00000000  0.75850000  0.95241000  1.0
  C  C32  1  0.00000000  0.98055000  0.75655000  1.0
  O  O33  1  0.00000000  0.93605000  0.71552000  1.0
