# generated using pymatgen
data_Li8Mg8Cu8Sn8CO
_symmetry_space_group_name_H-M   Pm
_cell_length_a   6.48317000
_cell_length_b   9.16858000
_cell_length_c   26.87640000
_cell_angle_alpha   90.00000000
_cell_angle_beta   90.00000000
_cell_angle_gamma   90.00000000
_symmetry_Int_Tables_number   6
_chemical_formula_structural   Li8Mg8Cu8Sn8CO
_chemical_formula_sum   'Li8 Mg8 Cu8 Sn8 C1 O1'
_cell_volume   1597.57253076
_cell_formula_units_Z   1
loop_
 _symmetry_equiv_pos_site_id
 _symmetry_equiv_pos_as_xyz
  1  'x, y, z'
  2  'x, -y, z'
loop_
 _atom_site_type_symbol
 _atom_site_label
 _atom_site_symmetry_multiplicity
 _atom_site_fract_x
 _atom_site_fract_y
 _atom_site_fract_z
 _atom_site_occupancy
  Li  Li0  2  0.49974000  0.24977000  0.04444000  1.0
  Li  Li1  2  0.50000000  0.25000000  0.87207000  1.0
  Li  Li2  1  -0.00000000  0.50000000  0.95736000  1.0
  Li  Li3  1  -0.00000000  0.00000000  0.95736000  1.0
  Li  Li4  1  0.05710000  0.00000000  0.16718000  1.0
  Li  Li5  1  0.07511000  0.50000000  0.16777000  1.0
  Mg  Mg6  2  0.75000000  0.25000000  0.95736000  1.0
  Mg  Mg7  2  0.75825000  0.25374000  0.13197000  1.0
  Mg  Mg8  1  0.23163000  0.50000000  0.04988000  1.0
  Mg  Mg9  1  0.23373000  0.00000000  0.05011000  1.0
  Mg  Mg10  1  0.25000000  0.00000000  0.87207000  1.0
  Mg  Mg11  1  0.25000000  0.50000000  0.87207000  1.0
  Cu  Cu12  2  0.00000000  0.25000000  0.87207000  1.0
  Cu  Cu13  2  0.00050000  0.25004000  0.04040000  1.0
  Cu  Cu14  1  0.49526000  0.50000000  0.12587000  1.0
  Cu  Cu15  1  0.49788000  0.00000000  0.12640000  1.0
  Cu  Cu16  1  0.50000000  0.00000000  0.95736000  1.0
  Cu  Cu17  1  0.50000000  0.50000000  0.95736000  1.0
  Sn  Sn18  2  0.25000000  0.25000000  0.95736000  1.0
  Sn  Sn19  2  0.26179000  0.24972000  0.13277000  1.0
  Sn  Sn20  1  0.75000000  0.00000000  0.87207000  1.0
  Sn  Sn21  1  0.75000000  0.50000000  0.87207000  1.0
  Sn  Sn22  1  0.75831000  0.50000000  0.04683000  1.0
  Sn  Sn23  1  0.75850000  0.00000000  0.04759000  1.0
  C  C24  1  0.98055000  0.00000000  0.24345000  1.0
  O  O25  1  0.93605000  0.00000000  0.28448000  1.0
