# generated using pymatgen
data_Mn8Co16Sb8C
_symmetry_space_group_name_H-M   'P 1'
_cell_length_a   6.03986000
_cell_length_b   8.54165000
_cell_length_c   26.40620000
_cell_angle_alpha   90.00000000
_cell_angle_beta   90.00000000
_cell_angle_gamma   90.00000000
_symmetry_Int_Tables_number   1
_chemical_formula_structural   Mn8Co16Sb8C
_chemical_formula_sum   'Mn8 Co16 Sb8 C1'
_cell_volume   1362.30563276
_cell_formula_units_Z   1
loop_
 _symmetry_equiv_pos_site_id
 _symmetry_equiv_pos_as_xyz
  1  'x, y, z'
loop_
 _atom_site_type_symbol
 _atom_site_label
 _atom_site_symmetry_multiplicity
 _atom_site_fract_x
 _atom_site_fract_y
 _atom_site_fract_z
 _atom_site_occupancy
  Mn  Mn0  1  0.00000000  0.00000000  0.87870000  1.0
  Mn  Mn1  1  0.50000000  0.25000000  0.95957000  1.0
  Mn  Mn2  1  0.50000000  0.75000000  0.95957000  1.0
  Mn  Mn3  1  0.00000000  0.50000000  0.87870000  1.0
  Mn  Mn4  1  0.99557000  0.49888000  0.03809000  1.0
  Mn  Mn5  1  0.50639000  0.74993000  0.12087000  1.0
  Mn  Mn6  1  0.54279000  0.24997000  0.11713000  1.0
  Mn  Mn7  1  0.99556000  0.00115000  0.03810000  1.0
  Co  Co8  1  0.25000000  0.00000000  0.95957000  1.0
  Co  Co9  1  0.75000000  0.50000000  0.95957000  1.0
  Co  Co10  1  0.75000000  0.00000000  0.95957000  1.0
  Co  Co11  1  0.25000000  0.50000000  0.95957000  1.0
  Co  Co12  1  0.75000000  0.75000000  0.87870000  1.0
  Co  Co13  1  0.25000000  0.25000000  0.87870000  1.0
  Co  Co14  1  0.25000000  0.75000000  0.87870000  1.0
  Co  Co15  1  0.75000000  0.25000000  0.87870000  1.0
  Co  Co16  1  0.21411000  0.46862000  0.11446000  1.0
  Co  Co17  1  0.76961000  0.00825000  0.11484000  1.0
  Co  Co18  1  0.76972000  0.49183000  0.11484000  1.0
  Co  Co19  1  0.21412000  0.03149000  0.11446000  1.0
  Co  Co20  1  0.76035000  0.24981000  0.03916000  1.0
  Co  Co21  1  0.24412000  0.75017000  0.04197000  1.0
  Co  Co22  1  0.23885000  0.24986000  0.04273000  1.0
  Co  Co23  1  0.75794000  0.75016000  0.04172000  1.0
  Sb  Sb24  1  0.00000000  0.75000000  0.95957000  1.0
  Sb  Sb25  1  0.50000000  0.00000000  0.87870000  1.0
  Sb  Sb26  1  0.00000000  0.25000000  0.95957000  1.0
  Sb  Sb27  1  0.50000000  0.50000000  0.87870000  1.0
  Sb  Sb28  1  0.92613000  0.24998000  0.16889000  1.0
  Sb  Sb29  1  0.49928000  0.50094000  0.04110000  1.0
  Sb  Sb30  1  0.00971000  0.75009000  0.12894000  1.0
  Sb  Sb31  1  0.49924000  0.99905000  0.04106000  1.0
  C  C32  1  0.22722000  0.25007000  0.11915000  1.0
