# generated using pymatgen
data_Li16Be16CO
_symmetry_space_group_name_H-M   Pm
_cell_length_a   7.95221000
_cell_length_b   5.62306000
_cell_length_c   25.96420000
_cell_angle_alpha   90.00000000
_cell_angle_beta   90.00000000
_cell_angle_gamma   90.00000000
_symmetry_Int_Tables_number   6
_chemical_formula_structural   Li16Be16CO
_chemical_formula_sum   'Li16 Be16 C1 O1'
_cell_volume   1161.00877904
_cell_formula_units_Z   1
loop_
 _symmetry_equiv_pos_site_id
 _symmetry_equiv_pos_as_xyz
  1  'x, y, z'
  2  'x, -y, z'
loop_
 _atom_site_type_symbol
 _atom_site_label
 _atom_site_symmetry_multiplicity
 _atom_site_fract_x
 _atom_site_fract_y
 _atom_site_fract_z
 _atom_site_occupancy
  Li  Li0  1  0.00000000  0.00000000  0.88515000  1.0
  Li  Li1  1  0.00000000  0.50000000  0.88515000  1.0
  Li  Li2  1  0.00298000  0.50000000  0.03079000  1.0
  Li  Li3  1  0.00447000  0.00000000  0.04362000  1.0
  Li  Li4  1  0.24999000  0.00000000  0.13749000  1.0
  Li  Li5  1  0.24999000  0.50000000  0.15757000  1.0
  Li  Li6  1  0.25000000  0.00000000  0.96172000  1.0
  Li  Li7  1  0.25000000  0.50000000  0.96172000  1.0
  Li  Li8  1  0.49552000  0.00000000  0.04361000  1.0
  Li  Li9  1  0.49697000  0.50000000  0.03082000  1.0
  Li  Li10  1  0.50000000  0.00000000  0.88515000  1.0
  Li  Li11  1  0.50000000  0.50000000  0.88515000  1.0
  Li  Li12  1  0.74999000  0.00000000  0.13623000  1.0
  Li  Li13  1  0.74999000  0.50000000  0.15456000  1.0
  Li  Li14  1  0.75000000  0.00000000  0.96172000  1.0
  Li  Li15  1  0.75000000  0.50000000  0.96172000  1.0
  Be  Be16  2  0.00000000  0.25004000  0.96172000  1.0
  Be  Be17  2  0.24999000  0.30477000  0.06918000  1.0
  Be  Be18  2  0.25000000  0.25004000  0.88515000  1.0
  Be  Be19  2  0.50000000  0.25004000  0.96172000  1.0
  Be  Be20  2  0.50295000  0.30919000  0.10929000  1.0
  Be  Be21  2  0.74999000  0.30051000  0.06566000  1.0
  Be  Be22  2  0.75000000  0.25004000  0.88515000  1.0
  Be  Be23  2  0.99702000  0.30917000  0.10930000  1.0
  C  C24  1  0.25013000  0.00000000  0.21652000  1.0
  O  O25  1  0.25010000  0.00000000  0.26070000  1.0
