data_image0
_chemical_formula_structural       Li4In4Ir4Pd4CO
_chemical_formula_sum              "Li4 In4 Ir4 Pd4 C1 O1"
_cell_length_a       6.33559
_cell_length_b       6.33559
_cell_length_c       24.7517
_cell_angle_alpha    90
_cell_angle_beta     90
_cell_angle_gamma    90

_space_group_name_H-M_alt    "P 1"
_space_group_IT_number       1

loop_
  _space_group_symop_operation_xyz
  'x, y, z'

loop_
  _atom_site_type_symbol
  _atom_site_label
  _atom_site_symmetry_multiplicity
  _atom_site_fract_x
  _atom_site_fract_y
  _atom_site_fract_z
  _atom_site_occupancy
  Li  Li1       1.0  0.99999  0.50001  0.09543  1.0000
  Li  Li2       1.0  0.00000  0.00000  0.96800  1.0000
  Li  Li3       1.0  0.50000  0.50000  0.96800  1.0000
  Li  Li4       1.0  0.49999  0.00000  0.09542  1.0000
  In  In1       1.0  1.00000  0.00001  0.09592  1.0000
  In  In2       1.0  0.00000  0.50000  0.96800  1.0000
  In  In3       1.0  0.50000  0.00000  0.96800  1.0000
  In  In4       1.0  0.49999  0.50001  0.09844  1.0000
  Ir  Ir1       1.0  0.25128  0.25129  0.03646  1.0000
  Ir  Ir2       1.0  0.25000  0.75000  0.90401  1.0000
  Ir  Ir3       1.0  0.75000  0.25000  0.90401  1.0000
  Ir  Ir4       1.0  0.74871  0.74871  0.03646  1.0000
  Pd  Pd1       1.0  0.74804  0.25196  0.03376  1.0000
  Pd  Pd2       1.0  0.75000  0.75000  0.90401  1.0000
  Pd  Pd3       1.0  0.25000  0.25000  0.90401  1.0000
  Pd  Pd4       1.0  0.25195  0.74805  0.03375  1.0000
  C   C1        1.0  0.00018  0.99984  0.26314  1.0000
  O   O1        1.0  0.99995  0.00006  0.30899  1.0000
