data_image0
_chemical_formula_structural       Li4Al8Rh4CO
_chemical_formula_sum              "Li4 Al8 Rh4 C1 O1"
_cell_length_a       6.03986
_cell_length_b       6.03986
_cell_length_c       24.5299
_cell_angle_alpha    90
_cell_angle_beta     90
_cell_angle_gamma    90

_space_group_name_H-M_alt    "P 1"
_space_group_IT_number       1

loop_
  _space_group_symop_operation_xyz
  'x, y, z'

loop_
  _atom_site_type_symbol
  _atom_site_label
  _atom_site_symmetry_multiplicity
  _atom_site_fract_x
  _atom_site_fract_y
  _atom_site_fract_z
  _atom_site_occupancy
  Li  Li1       1.0  0.00000  0.00000  0.90767  1.0000
  Li  Li2       1.0  0.50000  0.50000  0.90767  1.0000
  Li  Li3       1.0  0.50000  0.00000  0.03078  1.0000
  Li  Li4       1.0  0.00000  0.50000  0.03078  1.0000
  Al  Al1       1.0  0.25000  0.25000  0.96922  1.0000
  Al  Al2       1.0  0.75000  0.75000  0.09233  1.0000
  Al  Al3       1.0  0.75000  0.25000  0.96922  1.0000
  Al  Al4       1.0  0.25000  0.75000  0.09233  1.0000
  Al  Al5       1.0  0.75000  0.75000  0.96922  1.0000
  Al  Al6       1.0  0.25000  0.25000  0.09233  1.0000
  Al  Al7       1.0  0.25000  0.75000  0.96922  1.0000
  Al  Al8       1.0  0.75000  0.25000  0.09233  1.0000
  Rh  Rh1       1.0  0.00000  0.00000  0.03078  1.0000
  Rh  Rh2       1.0  0.50000  0.00000  0.90767  1.0000
  Rh  Rh3       1.0  0.00000  0.50000  0.90767  1.0000
  Rh  Rh4       1.0  0.50000  0.50000  0.03078  1.0000
  C   C1        1.0  0.25000  0.25000  0.16979  1.0000
  O   O1        1.0  0.25000  0.25000  0.21667  1.0000
