# generated using pymatgen
data_Li4Y4Sn4Ge4CO
_symmetry_space_group_name_H-M   Pm
_cell_length_a   6.35836000
_cell_length_b   8.60818000
_cell_length_c   24.74450000
_cell_angle_alpha   90.00000000
_cell_angle_beta   90.00000000
_cell_angle_gamma   90.00000000
_symmetry_Int_Tables_number   6
_chemical_formula_structural   Li4Y4Sn4Ge4CO
_chemical_formula_sum   'Li4 Y4 Sn4 Ge4 C1 O1'
_cell_volume   1354.36317128
_cell_formula_units_Z   1
loop_
 _symmetry_equiv_pos_site_id
 _symmetry_equiv_pos_as_xyz
  1  'x, y, z'
  2  'x, -y, z'
loop_
 _atom_site_type_symbol
 _atom_site_label
 _atom_site_symmetry_multiplicity
 _atom_site_fract_x
 _atom_site_fract_y
 _atom_site_fract_z
 _atom_site_occupancy
  Li  Li0  1  0.05034000  0.00000000  0.03196000  1.0
  Li  Li1  1  0.05034000  0.50000000  0.03196000  1.0
  Li  Li2  1  0.43911000  0.50000000  0.89147000  1.0
  Li  Li3  1  0.44148000  0.00000000  0.89019000  1.0
  Y  Y4  2  0.32551000  0.25001000  0.09587000  1.0
  Y  Y5  2  0.75288000  0.25016000  0.96718000  1.0
  Sn  Sn6  2  0.25824000  0.24936000  0.95272000  1.0
  Sn  Sn7  2  0.82551000  0.25001000  0.09587000  1.0
  Ge  Ge8  1  0.00817000  0.00000000  0.91520000  1.0
  Ge  Ge9  1  0.00887000  0.50000000  0.91483000  1.0
  Ge  Ge10  1  0.55034000  0.00000000  0.03196000  1.0
  Ge  Ge11  1  0.55034000  0.50000000  0.03196000  1.0
  C  C12  1  0.48542000  0.00000000  0.80646000  1.0
  O  O13  1  0.50553000  0.00000000  0.76076000  1.0
