data_image0
_chemical_formula_structural       LiYInPbLiYInPbLiYInPbLiYInPbC
_chemical_formula_sum              "Li4 Y4 In4 Pb4 C1"
_cell_length_a       6.48172
_cell_length_b       9.42336
_cell_length_c       24.8582
_cell_angle_alpha    90
_cell_angle_beta     90
_cell_angle_gamma    90

_space_group_name_H-M_alt    "P 1"
_space_group_IT_number       1

loop_
  _space_group_symop_operation_xyz
  'x, y, z'

loop_
  _atom_site_type_symbol
  _atom_site_label
  _atom_site_symmetry_multiplicity
  _atom_site_fract_x
  _atom_site_fract_y
  _atom_site_fract_z
  _atom_site_occupancy
  Li  Li1       1.0  0.50000  0.00000  0.09772  1.0000
  Y   Y1        1.0  0.24106  0.25000  0.03257  1.0000
  In  In1       1.0  0.00000  0.00000  0.09772  1.0000
  Pb  Pb1       1.0  0.74106  0.25000  0.03257  1.0000
  Li  Li2       1.0  0.98213  0.00000  0.96743  1.0000
  Y   Y2        1.0  0.72319  0.25000  0.90228  1.0000
  In  In2       1.0  0.48213  0.00000  0.96743  1.0000
  Pb  Pb2       1.0  0.22319  0.25000  0.90228  1.0000
  Li  Li3       1.0  0.50000  0.50000  0.09772  1.0000
  Y   Y3        1.0  0.24106  0.75000  0.03257  1.0000
  In  In3       1.0  0.00000  0.50000  0.09772  1.0000
  Pb  Pb3       1.0  0.74106  0.75000  0.03257  1.0000
  Li  Li4       1.0  0.98213  0.50000  0.96743  1.0000
  Y   Y4        1.0  0.72319  0.75000  0.90228  1.0000
  In  In4       1.0  0.48213  0.50000  0.96743  1.0000
  Pb  Pb4       1.0  0.22319  0.75000  0.90228  1.0000
  C   C1        1.0  0.74106  0.25000  0.12990  1.0000
