# generated using pymatgen
data_Li4Mg4Ga4Pd4CO
_symmetry_space_group_name_H-M   'P 1'
_cell_length_a   6.27706000
_cell_length_b   6.27706000
_cell_length_c   24.70780000
_cell_angle_alpha   90.00000000
_cell_angle_beta   90.00000000
_cell_angle_gamma   90.00000000
_symmetry_Int_Tables_number   1
_chemical_formula_structural   Li4Mg4Ga4Pd4CO
_chemical_formula_sum   'Li4 Mg4 Ga4 Pd4 C1 O1'
_cell_volume   973.52394298
_cell_formula_units_Z   1
loop_
 _symmetry_equiv_pos_site_id
 _symmetry_equiv_pos_as_xyz
  1  'x, y, z'
loop_
 _atom_site_type_symbol
 _atom_site_label
 _atom_site_symmetry_multiplicity
 _atom_site_fract_x
 _atom_site_fract_y
 _atom_site_fract_z
 _atom_site_occupancy
  Li  Li0  1  0.25000000  0.74999000  0.03176000  1
  Li  Li1  1  0.24846000  0.24846000  0.88651000  1
  Li  Li2  1  0.75122500  0.75122500  0.88547000  1
  Li  Li3  1  0.74999000  0.25000000  0.03176000  1
  Mg  Mg4  1  0.00000000  0.49999000  0.09527000  1
  Mg  Mg5  1  0.99927000  0.99927000  0.96625000  1
  Mg  Mg6  1  0.50066500  0.50066500  0.96585000  1
  Mg  Mg7  1  0.49999000  0.00000000  0.09527000  1
  Ga  Ga8  1  0.99999500  0.99999500  0.09527000  1
  Ga  Ga9  1  0.00302000  0.49874000  0.96345000  1
  Ga  Ga10  1  0.49874000  0.00302000  0.96345000  1
  Ga  Ga11  1  0.49999500  0.49999500  0.09527000  1
  Pd  Pd12  1  0.74999500  0.74999500  0.03176000  1
  Pd  Pd13  1  0.75119000  0.25068000  0.90960000  1
  Pd  Pd14  1  0.25068000  0.75119000  0.90960000  1
  Pd  Pd15  1  0.24999500  0.24999500  0.03176000  1
  C  C16  1  0.75125000  0.75125000  0.80011000  1
  O  O17  1  0.75038500  0.75038500  0.75396000  1
