# generated using pymatgen
data_Li4Mg4Ga4Pd4CO
_symmetry_space_group_name_H-M   Cm
_cell_length_a   8.87710338
_cell_length_b   8.87710338
_cell_length_c   24.70780000
_cell_angle_alpha   90.00000000
_cell_angle_beta   90.00000000
_cell_angle_gamma   90.00000000
_symmetry_Int_Tables_number   8
_chemical_formula_structural   Li4Mg4Ga4Pd4CO
_chemical_formula_sum   'Li8 Mg8 Ga8 Pd8 C2 O2'
_cell_volume   1947.04788596
_cell_formula_units_Z   2
loop_
 _symmetry_equiv_pos_site_id
 _symmetry_equiv_pos_as_xyz
  1  'x, y, z'
  2  'x, -y, z'
  3  'x+1/2, y+1/2, z'
  4  'x+1/2, -y+1/2, z'
loop_
 _atom_site_type_symbol
 _atom_site_label
 _atom_site_symmetry_multiplicity
 _atom_site_fract_x
 _atom_site_fract_y
 _atom_site_fract_z
 _atom_site_occupancy
  Li  Li0  4  0.49999500  0.24999500  0.96824000  1.0
  Li  Li1  2  0.24846000  0.00000000  0.11349000  1.0
  Li  Li2  2  0.25122500  0.50000000  0.11453000  1.0
  Mg  Mg3  4  0.24999500  0.24999500  0.90473000  1.0
  Mg  Mg4  2  0.00066500  0.50000000  0.03415000  1.0
  Mg  Mg5  2  0.49927000  0.50000000  0.03375000  1.0
  Ga  Ga6  4  0.25088000  0.24786000  0.03655000  1.0
  Ga  Ga7  2  0.49999500  0.00000000  0.90473000  1.0
  Ga  Ga8  2  0.49999500  0.50000000  0.90473000  1.0
  Pd  Pd9  4  0.00093500  0.24974500  0.09040000  1.0
  Pd  Pd10  2  0.24999500  0.00000000  0.96824000  1.0
  Pd  Pd11  2  0.24999500  0.50000000  0.96824000  1.0
  C  C12  2  0.25125000  0.50000000  0.19989000  1.0
  O  O13  2  0.25038500  0.50000000  0.24604000  1.0
