# generated using pymatgen
data_Ta16Ru16CO
_symmetry_space_group_name_H-M   Pmm2
_cell_length_a   6.72556000
_cell_length_b   8.71119000
_cell_length_c   26.53340000
_cell_angle_alpha   90.00000000
_cell_angle_beta   90.00000000
_cell_angle_gamma   90.00000000
_symmetry_Int_Tables_number   25
_chemical_formula_structural   Ta16Ru16CO
_chemical_formula_sum   'Ta16 Ru16 C1 O1'
_cell_volume   1554.52904881
_cell_formula_units_Z   1
loop_
 _symmetry_equiv_pos_site_id
 _symmetry_equiv_pos_as_xyz
  1  'x, y, z'
  2  '-x, -y, z'
  3  '-x, y, z'
  4  'x, -y, z'
loop_
 _atom_site_type_symbol
 _atom_site_label
 _atom_site_symmetry_multiplicity
 _atom_site_fract_x
 _atom_site_fract_y
 _atom_site_fract_z
 _atom_site_occupancy
  Ta  Ta0  4  0.25000000  0.25000000  0.04104000  1.0
  Ta  Ta1  4  0.25000000  0.25000000  0.87688000  1.0
  Ta  Ta2  2  0.25000000  0.00000000  0.12312000  1.0
  Ta  Ta3  2  0.25000000  0.00000000  0.95896000  1.0
  Ta  Ta4  2  0.25000000  0.50000000  0.12312000  1.0
  Ta  Ta5  2  0.25000000  0.50000000  0.95896000  1.0
  Ru  Ru6  2  0.00000000  0.25000000  0.12312000  1.0
  Ru  Ru7  2  0.00000000  0.25000000  0.95896000  1.0
  Ru  Ru8  2  0.50000000  0.25000000  0.12312000  1.0
  Ru  Ru9  2  0.50000000  0.25000000  0.95896000  1.0
  Ru  Ru10  1  0.00000000  0.00000000  0.04104000  1.0
  Ru  Ru11  1  0.00000000  0.00000000  0.87688000  1.0
  Ru  Ru12  1  0.00000000  0.50000000  0.04104000  1.0
  Ru  Ru13  1  0.00000000  0.50000000  0.87688000  1.0
  Ru  Ru14  1  0.50000000  0.00000000  0.04104000  1.0
  Ru  Ru15  1  0.50000000  0.00000000  0.87688000  1.0
  Ru  Ru16  1  0.50000000  0.50000000  0.04104000  1.0
  Ru  Ru17  1  0.50000000  0.50000000  0.87688000  1.0
  C  C18  1  0.00000000  0.00000000  0.80528000  1.0
  O  O19  1  0.00000000  0.00000000  0.76193000  1.0
