# generated using pymatgen
data_HfRh3
_symmetry_space_group_name_H-M   'P 1'
_cell_length_a   3.94856500
_cell_length_b   3.94856500
_cell_length_c   25.92280000
_cell_angle_alpha   90.00000000
_cell_angle_beta   90.00000000
_cell_angle_gamma   90.00000000
_symmetry_Int_Tables_number   1
_chemical_formula_structural   HfRh3
_chemical_formula_sum   'Hf2 Rh6'
_cell_volume   404.16666656
_cell_formula_units_Z   2
loop_
 _symmetry_equiv_pos_site_id
 _symmetry_equiv_pos_as_xyz
  1  'x, y, z'
loop_
 _atom_site_type_symbol
 _atom_site_label
 _atom_site_symmetry_multiplicity
 _atom_site_fract_x
 _atom_site_fract_y
 _atom_site_fract_z
 _atom_site_occupancy
  Hf  Hf0  1  0.00000000  0.00000000  0.88576000  1.0
  Hf  Hf1  1  0.00000000  0.00000000  0.03808000  1.0
  Rh  Rh2  1  0.50000000  0.00000000  0.96192000  1.0
  Rh  Rh3  1  0.00000000  0.50000000  0.96192000  1.0
  Rh  Rh4  1  0.50000000  0.50000000  0.88576000  1.0
  Rh  Rh5  1  0.50000000  0.00000000  0.11424000  1.0
  Rh  Rh6  1  0.00000000  0.50000000  0.11424000  1.0
  Rh  Rh7  1  0.50000000  0.50000000  0.03808000  1.0
