# generated using pymatgen
data_LiGePdPb
_symmetry_space_group_name_H-M   'P 1'
_cell_length_a   9.54516000
_cell_length_b   6.74945000
_cell_length_c   27.15890000
_cell_angle_alpha   90.00000000
_cell_angle_beta   90.00000000
_cell_angle_gamma   90.00000000
_symmetry_Int_Tables_number   1
_chemical_formula_structural   LiGePdPb
_chemical_formula_sum   'Li8 Ge8 Pd8 Pb8'
_cell_volume   1749.70073016
_cell_formula_units_Z   8
loop_
 _symmetry_equiv_pos_site_id
 _symmetry_equiv_pos_as_xyz
  1  'x, y, z'
loop_
 _atom_site_type_symbol
 _atom_site_label
 _atom_site_symmetry_multiplicity
 _atom_site_fract_x
 _atom_site_fract_y
 _atom_site_fract_z
 _atom_site_occupancy
  Li  Li0  1  0.00000000  0.25000000  0.04393000  1.0
  Li  Li1  1  0.50000000  0.25000000  0.04393000  1.0
  Li  Li2  1  0.25000000  0.75000000  0.13180000  1.0
  Li  Li3  1  0.75000000  0.75000000  0.13180000  1.0
  Li  Li4  1  0.50000000  0.28197000  0.85986000  1.0
  Li  Li5  1  0.00000000  0.28183000  0.85982000  1.0
  Li  Li6  1  0.75001000  0.78228000  0.94908000  1.0
  Li  Li7  1  0.24999000  0.78228000  0.94908000  1.0
  Ge  Ge8  1  0.00000000  0.00000000  0.13180000  1.0
  Ge  Ge9  1  0.50000000  1.00000000  0.13180000  1.0
  Ge  Ge10  1  0.75000000  0.50000000  0.04393000  1.0
  Ge  Ge11  1  0.25000000  0.50000000  0.04393000  1.0
  Ge  Ge12  1  0.50000000  0.00781000  0.94067000  1.0
  Ge  Ge13  1  0.00000000  0.00778000  0.94065000  1.0
  Ge  Ge14  1  0.24996000  0.51157000  0.87119000  1.0
  Ge  Ge15  1  0.75004000  0.51157000  0.87119000  1.0
  Pd  Pd16  1  0.00000000  0.75000000  0.04393000  1.0
  Pd  Pd17  1  0.50000000  0.75000000  0.04393000  1.0
  Pd  Pd18  1  0.25000000  0.25000000  0.13180000  1.0
  Pd  Pd19  1  0.75000000  0.25000000  0.13180000  1.0
  Pd  Pd20  1  0.50000000  0.72038000  0.87698000  1.0
  Pd  Pd21  1  0.00000000  0.72038000  0.87696000  1.0
  Pd  Pd22  1  0.75002000  0.19393000  0.92800000  1.0
  Pd  Pd23  1  0.24998000  0.19393000  0.92800000  1.0
  Pb  Pb24  1  0.25000000  1.00000000  0.04393000  1.0
  Pb  Pb25  1  0.75000000  1.00000000  0.04393000  1.0
  Pb  Pb26  1  0.50000000  0.50000000  0.13180000  1.0
  Pb  Pb27  1  0.00000000  0.50000000  0.13180000  1.0
  Pb  Pb28  1  0.74997000  0.94266000  0.83929000  1.0
  Pb  Pb29  1  0.25003000  0.94266000  0.83929000  1.0
  Pb  Pb30  1  0.00000000  0.46714000  0.95871000  1.0
  Pb  Pb31  1  0.50000000  0.46716000  0.95873000  1.0
