# generated using pymatgen
data_Fe8Co16Ge8CO
_symmetry_space_group_name_H-M   P1
_cell_length_a   5.76795000
_cell_length_b   8.15711000
_cell_length_c   26.11780000
_cell_angle_alpha   90.00000000
_cell_angle_beta   90.00000000
_cell_angle_gamma   90.00000000
_symmetry_Int_Tables_number   1
_chemical_formula_structural   Fe8Co16Ge8CO
_chemical_formula_sum   'Fe8 Co16 Ge8 C1 O1'
_cell_volume   1228.83733499
_cell_formula_units_Z   1
loop_
 _symmetry_equiv_pos_site_id
 _symmetry_equiv_pos_as_xyz
  1  'x, y, z'
loop_
 _atom_site_type_symbol
 _atom_site_label
 _atom_site_symmetry_multiplicity
 _atom_site_fract_x
 _atom_site_fract_y
 _atom_site_fract_z
 _atom_site_occupancy
  Fe  Fe0  1  0.00000000  0.00000000  0.88288000  1.0
  Fe  Fe1  1  0.00000000  0.50000000  0.88288000  1.0
  Fe  Fe2  1  0.00003000  0.50012000  0.03859000  1.0
  Fe  Fe3  1  0.00003000  0.99987000  0.03858000  1.0
  Fe  Fe4  1  0.50000000  0.25000000  0.11591000  1.0
  Fe  Fe5  1  0.50000000  0.25000000  0.96096000  1.0
  Fe  Fe6  1  0.50000000  0.74997000  0.11580000  1.0
  Fe  Fe7  1  0.50000000  0.75000000  0.96096000  1.0
  Co  Co8  1  0.24244000  0.49994000  0.11247000  1.0
  Co  Co9  1  0.24245000  0.00004000  0.11247000  1.0
  Co  Co10  1  0.24839000  0.74998000  0.03905000  1.0
  Co  Co11  1  0.24846000  0.25001000  0.03907000  1.0
  Co  Co12  1  0.25000000  0.00000000  0.96096000  1.0
  Co  Co13  1  0.25000000  0.25000000  0.88288000  1.0
  Co  Co14  1  0.25000000  0.50000000  0.96096000  1.0
  Co  Co15  1  0.25000000  0.75000000  0.88288000  1.0
  Co  Co16  1  0.75000000  0.00000000  0.96096000  1.0
  Co  Co17  1  0.75000000  0.25000000  0.88288000  1.0
  Co  Co18  1  0.75000000  0.50000000  0.96096000  1.0
  Co  Co19  1  0.75000000  0.75000000  0.88288000  1.0
  Co  Co20  1  0.75155000  0.25001000  0.03906000  1.0
  Co  Co21  1  0.75162000  0.74998000  0.03905000  1.0
  Co  Co22  1  0.75760000  0.00004000  0.11248000  1.0
  Co  Co23  1  0.75761000  0.49994000  0.11247000  1.0
  Ge  Ge24  1  0.00000000  0.25000000  0.96096000  1.0
  Ge  Ge25  1  0.00000000  0.75000000  0.96096000  1.0
  Ge  Ge26  1  0.00005000  0.74995000  0.12341000  1.0
  Ge  Ge27  1  0.00007000  0.25003000  0.12302000  1.0
  Ge  Ge28  1  0.49998000  0.00016000  0.03896000  1.0
  Ge  Ge29  1  0.49998000  0.49982000  0.03896000  1.0
  Ge  Ge30  1  0.50000000  0.00000000  0.88288000  1.0
  Ge  Ge31  1  0.50000000  0.50000000  0.88288000  1.0
  C  C32  1  0.99991000  0.25017000  0.27162000  1.0
  O  O33  1  0.99995000  0.25001000  0.31507000  1.0
