# generated using pymatgen
data_Li4V4Ge4Pd4CO
_symmetry_space_group_name_H-M   P1
_cell_length_a   5.68832000
_cell_length_b   6.38622000
_cell_length_c   24.77250000
_cell_angle_alpha   90.00000000
_cell_angle_beta   90.00000000
_cell_angle_gamma   90.00000000
_symmetry_Int_Tables_number   1
_chemical_formula_structural   Li4V4Ge4Pd4CO
_chemical_formula_sum   'Li4 V4 Ge4 Pd4 C1 O1'
_cell_volume   899.90721244
_cell_formula_units_Z   1
loop_
 _symmetry_equiv_pos_site_id
 _symmetry_equiv_pos_as_xyz
  1  'x, y, z'
loop_
 _atom_site_type_symbol
 _atom_site_label
 _atom_site_symmetry_multiplicity
 _atom_site_fract_x
 _atom_site_fract_y
 _atom_site_fract_z
 _atom_site_occupancy
  Li  Li0  1  0.25000000  0.19966000  0.11223000  1.0
  Li  Li1  1  0.25000000  0.72886000  0.96789000  1.0
  Li  Li2  1  0.75000000  0.18787000  0.11189000  1.0
  Li  Li3  1  0.75000000  0.72886000  0.96789000  1.0
  V  V4  1  0.25000000  0.22886000  0.96789000  1.0
  V  V5  1  0.25006000  0.69075000  0.08892000  1.0
  V  V6  1  0.74987000  0.69057000  0.09252000  1.0
  V  V7  1  0.75000000  0.22886000  0.96789000  1.0
  Ge  Ge8  1  0.00000000  0.00000000  0.90367000  1.0
  Ge  Ge9  1  0.50000000  0.00000000  0.90367000  1.0
  Ge  Ge10  1  0.50668000  0.42889000  0.03867000  1.0
  Ge  Ge11  1  0.99329000  0.42894000  0.03867000  1.0
  Pd  Pd12  1  0.00000000  0.50000000  0.90367000  1.0
  Pd  Pd13  1  0.50000000  0.50000000  0.90367000  1.0
  Pd  Pd14  1  0.50155000  0.98527000  0.04001000  1.0
  Pd  Pd15  1  0.99845000  0.98524000  0.04001000  1.0
  C  C16  1  0.25009000  0.66456000  0.16699000  1.0
  O  O17  1  0.25006000  0.66397000  0.21446000  1.0
