# generated using pymatgen
data_Li8Cu8Sb8Pd8C
_symmetry_space_group_name_H-M   'P 1'
_cell_length_a   9.01208000
_cell_length_b   6.37250000
_cell_length_c   26.75910000
_cell_angle_alpha   90.00000000
_cell_angle_beta   90.00000000
_cell_angle_gamma   90.00000000
_symmetry_Int_Tables_number   1
_chemical_formula_structural   Li8Cu8Sb8Pd8C
_chemical_formula_sum   'Li8 Cu8 Sb8 Pd8 C1'
_cell_volume   1536.76119292
_cell_formula_units_Z   1
loop_
 _symmetry_equiv_pos_site_id
 _symmetry_equiv_pos_as_xyz
  1  'x, y, z'
loop_
 _atom_site_type_symbol
 _atom_site_label
 _atom_site_symmetry_multiplicity
 _atom_site_fract_x
 _atom_site_fract_y
 _atom_site_fract_z
 _atom_site_occupancy
  Li  Li0  1  0.00000000  0.25000000  0.04210000  1.0
  Li  Li1  1  0.50000000  0.25000000  0.04210000  1.0
  Li  Li2  1  0.25000000  0.75000000  0.12629000  1.0
  Li  Li3  1  0.75000000  0.75000000  0.12629000  1.0
  Li  Li4  1  0.50000000  0.23869000  0.86845000  1.0
  Li  Li5  1  0.00000000  0.25599000  0.87507000  1.0
  Li  Li6  1  0.74099000  0.74909000  0.96511000  1.0
  Li  Li7  1  0.25901000  0.74909000  0.96511000  1.0
  Cu  Cu8  1  0.00000000  0.00000000  0.12629000  1.0
  Cu  Cu9  1  0.50000000  1.00000000  0.12629000  1.0
  Cu  Cu10  1  0.75000000  0.50000000  0.04210000  1.0
  Cu  Cu11  1  0.25000000  0.50000000  0.04210000  1.0
  Cu  Cu12  1  0.50000000  0.99070000  0.94715000  1.0
  Cu  Cu13  1  0.00000000  0.96900000  0.95292000  1.0
  Cu  Cu14  1  0.25408000  0.53101000  0.88501000  1.0
  Cu  Cu15  1  0.74592000  0.53101000  0.88501000  1.0
  Sb  Sb16  1  0.00000000  0.75000000  0.04210000  1.0
  Sb  Sb17  1  0.50000000  0.75000000  0.04210000  1.0
  Sb  Sb18  1  0.25000000  0.25000000  0.12629000  1.0
  Sb  Sb19  1  0.75000000  0.25000000  0.12629000  1.0
  Sb  Sb20  1  0.50000000  0.75742000  0.86228000  1.0
  Sb  Sb21  1  0.00000000  0.65657000  0.84098000  1.0
  Sb  Sb22  1  0.75276000  0.25172000  0.95768000  1.0
  Sb  Sb23  1  0.24724000  0.25172000  0.95768000  1.0
  Pd  Pd24  1  0.25000000  1.00000000  0.04210000  1.0
  Pd  Pd25  1  0.75000000  1.00000000  0.04210000  1.0
  Pd  Pd26  1  0.50000000  0.50000000  0.12629000  1.0
  Pd  Pd27  1  0.00000000  0.50000000  0.12629000  1.0
  Pd  Pd28  1  0.76638000  0.95734000  0.88365000  1.0
  Pd  Pd29  1  0.23362000  0.95734000  0.88365000  1.0
  Pd  Pd30  1  0.00000000  0.52941000  0.94973000  1.0
  Pd  Pd31  1  0.50000000  0.50295000  0.94944000  1.0
  C  C32  1  0.00000000  0.94651000  0.87814000  1.0
