# generated using pymatgen
data_Li8Cu8Sb8Pd8C
_symmetry_space_group_name_H-M   Pm
_cell_length_a   6.37250000
_cell_length_b   9.01208000
_cell_length_c   26.75910000
_cell_angle_alpha   90.00000000
_cell_angle_beta   90.00000000
_cell_angle_gamma   90.00000000
_symmetry_Int_Tables_number   6
_chemical_formula_structural   Li8Cu8Sb8Pd8C
_chemical_formula_sum   'Li8 Cu8 Sb8 Pd8 C1'
_cell_volume   1536.76119292
_cell_formula_units_Z   1
loop_
 _symmetry_equiv_pos_site_id
 _symmetry_equiv_pos_as_xyz
  1  'x, y, z'
  2  'x, -y, z'
loop_
 _atom_site_type_symbol
 _atom_site_label
 _atom_site_symmetry_multiplicity
 _atom_site_fract_x
 _atom_site_fract_y
 _atom_site_fract_z
 _atom_site_occupancy
  Li  Li0  2  0.74909000  0.25901000  0.03489000  1.0
  Li  Li1  2  0.75000000  0.25000000  0.87371000  1.0
  Li  Li2  1  0.23869000  0.50000000  0.13155000  1.0
  Li  Li3  1  0.25000000  0.00000000  0.95790000  1.0
  Li  Li4  1  0.25000000  0.50000000  0.95790000  1.0
  Li  Li5  1  0.25599000  0.00000000  0.12493000  1.0
  Cu  Cu6  2  0.50000000  0.25000000  0.95790000  1.0
  Cu  Cu7  2  0.53101000  0.25408000  0.11499000  1.0
  Cu  Cu8  1  -0.00000000  0.50000000  0.87371000  1.0
  Cu  Cu9  1  0.00000000  0.00000000  0.87371000  1.0
  Cu  Cu10  1  0.96900000  0.00000000  0.04708000  1.0
  Cu  Cu11  1  0.99070000  0.50000000  0.05285000  1.0
  Sb  Sb12  2  0.25000000  0.25000000  0.87371000  1.0
  Sb  Sb13  2  0.25172000  0.24724000  0.04232000  1.0
  Sb  Sb14  1  0.65657000  0.00000000  0.15902000  1.0
  Sb  Sb15  1  0.75000000  0.00000000  0.95790000  1.0
  Sb  Sb16  1  0.75000000  0.50000000  0.95790000  1.0
  Sb  Sb17  1  0.75742000  0.50000000  0.13772000  1.0
  Pd  Pd18  2  -0.00000000  0.25000000  0.95790000  1.0
  Pd  Pd19  2  0.95734000  0.23362000  0.11635000  1.0
  Pd  Pd20  1  0.50000000  0.00000000  0.87371000  1.0
  Pd  Pd21  1  0.50000000  0.50000000  0.87371000  1.0
  Pd  Pd22  1  0.50295000  0.50000000  0.05056000  1.0
  Pd  Pd23  1  0.52941000  0.00000000  0.05027000  1.0
  C  C24  1  0.94651000  0.00000000  0.12186000  1.0
