# generated using pymatgen
data_Y16Zn16C
_symmetry_space_group_name_H-M   Pm
_cell_length_a   10.13590000
_cell_length_b   7.16718000
_cell_length_c   27.60190000
_cell_angle_alpha   90.00000000
_cell_angle_beta   90.00000000
_cell_angle_gamma   90.00000000
_symmetry_Int_Tables_number   6
_chemical_formula_structural   Y16Zn16C
_chemical_formula_sum   'Y16 Zn16 C1'
_cell_volume   2005.16265249
_cell_formula_units_Z   1
loop_
 _symmetry_equiv_pos_site_id
 _symmetry_equiv_pos_as_xyz
  1  'x, y, z'
  2  'x, -y, z'
loop_
 _atom_site_type_symbol
 _atom_site_label
 _atom_site_symmetry_multiplicity
 _atom_site_fract_x
 _atom_site_fract_y
 _atom_site_fract_z
 _atom_site_occupancy
  Y  Y0  2  0.00000000  0.25000000  0.86229000  1.0
  Y  Y1  2  0.23725000  0.22482000  0.13595000  1.0
  Y  Y2  2  0.25000000  0.25000000  0.95410000  1.0
  Y  Y3  2  0.49966000  0.24852000  0.04439000  1.0
  Y  Y4  2  0.50000000  0.25000000  0.86229000  1.0
  Y  Y5  2  0.74550000  0.24683000  0.14146000  1.0
  Y  Y6  2  0.75000000  0.25000000  0.95410000  1.0
  Y  Y7  2  0.99266000  0.24678000  0.04269000  1.0
  Zn  Zn8  1  0.00000000  0.00000000  0.95410000  1.0
  Zn  Zn9  1  0.00000000  0.50000000  0.95410000  1.0
  Zn  Zn10  1  0.24344000  0.50000000  0.04443000  1.0
  Zn  Zn11  1  0.25000000  0.00000000  0.86229000  1.0
  Zn  Zn12  1  0.25000000  0.50000000  0.86229000  1.0
  Zn  Zn13  1  0.25106000  0.00000000  0.03586000  1.0
  Zn  Zn14  1  0.50000000  0.00000000  0.95410000  1.0
  Zn  Zn15  1  0.50000000  0.50000000  0.95410000  1.0
  Zn  Zn16  1  0.51120000  0.00000000  0.13870000  1.0
  Zn  Zn17  1  0.52858000  0.50000000  0.13154000  1.0
  Zn  Zn18  1  0.74680000  0.00000000  0.04135000  1.0
  Zn  Zn19  1  0.74961000  0.50000000  0.04647000  1.0
  Zn  Zn20  1  0.75000000  0.00000000  0.86229000  1.0
  Zn  Zn21  1  0.75000000  0.50000000  0.86229000  1.0
  Zn  Zn22  1  0.96641000  0.00000000  0.13972000  1.0
  Zn  Zn23  1  0.98255000  0.50000000  0.12009000  1.0
  C  C24  1  0.33538000  0.50000000  0.12643000  1.0
