# generated using pymatgen
data_Hf8Al8Ni16CO
_symmetry_space_group_name_H-M   'P 1'
_cell_length_a   6.09904000
_cell_length_b   8.62534000
_cell_length_c   26.46900000
_cell_angle_alpha   90.00000000
_cell_angle_beta   90.00000000
_cell_angle_gamma   90.00000000
_symmetry_Int_Tables_number   1
_chemical_formula_structural   Hf8Al8Ni16CO
_chemical_formula_sum   'Hf8 Al8 Ni16 C1 O1'
_cell_volume   1392.43598725
_cell_formula_units_Z   1
loop_
 _symmetry_equiv_pos_site_id
 _symmetry_equiv_pos_as_xyz
  1  'x, y, z'
loop_
 _atom_site_type_symbol
 _atom_site_label
 _atom_site_symmetry_multiplicity
 _atom_site_fract_x
 _atom_site_fract_y
 _atom_site_fract_z
 _atom_site_occupancy
  Hf  Hf0  1  0.00000000  0.00000000  0.87780000  1.0
  Hf  Hf1  1  0.50000000  0.25000000  0.95927000  1.0
  Hf  Hf2  1  0.50000000  0.75000000  0.95927000  1.0
  Hf  Hf3  1  1.00000000  0.50000000  0.87780000  1.0
  Hf  Hf4  1  0.99997000  0.50000000  0.03938000  1.0
  Hf  Hf5  1  0.49968000  0.75018000  0.12571000  1.0
  Hf  Hf6  1  0.49969000  0.24981000  0.12571000  1.0
  Hf  Hf7  1  0.00120000  0.00000000  0.04038000  1.0
  Al  Al8  1  1.00000000  0.75000000  0.95927000  1.0
  Al  Al9  1  0.50000000  0.00000000  0.87780000  1.0
  Al  Al10  1  1.00000000  0.25000000  0.95927000  1.0
  Al  Al11  1  0.50000000  0.50000000  0.87780000  1.0
  Al  Al12  1  0.99557000  0.25364000  0.11982000  1.0
  Al  Al13  1  0.49978000  0.50000000  0.04223000  1.0
  Al  Al14  1  0.99559000  0.74635000  0.11981000  1.0
  Al  Al15  1  0.49810000  0.99999000  0.04336000  1.0
  Ni  Ni16  1  0.25000000  0.00000000  0.95927000  1.0
  Ni  Ni17  1  0.75000000  0.50000000  0.95927000  1.0
  Ni  Ni18  1  0.75000000  0.00000000  0.95927000  1.0
  Ni  Ni19  1  0.25000000  0.50000000  0.95927000  1.0
  Ni  Ni20  1  0.75000000  0.75000000  0.87780000  1.0
  Ni  Ni21  1  0.25000000  0.25000000  0.87780000  1.0
  Ni  Ni22  1  0.25000000  0.75000000  0.87780000  1.0
  Ni  Ni23  1  0.75000000  0.25000000  0.87780000  1.0
  Ni  Ni24  1  0.24250000  0.49998000  0.11741000  1.0
  Ni  Ni25  1  0.76289000  0.99997000  0.11660000  1.0
  Ni  Ni26  1  0.75656000  0.49997000  0.11749000  1.0
  Ni  Ni27  1  0.23151000  0.99999000  0.12806000  1.0
  Ni  Ni28  1  0.73295000  0.24983000  0.04335000  1.0
  Ni  Ni29  1  0.26746000  0.75130000  0.04424000  1.0
  Ni  Ni30  1  0.26749000  0.24863000  0.04434000  1.0
  Ni  Ni31  1  0.73282000  0.75034000  0.04341000  1.0
  C  C32  1  0.29236000  0.00001000  0.19345000  1.0
  O  O33  1  0.30875000  0.00001000  0.23738000  1.0
