# generated using pymatgen
data_Li8Ga4Rh4CO
_symmetry_space_group_name_H-M   'P 1'
_cell_length_a   6.03399000
_cell_length_b   6.03399000
_cell_length_c   24.52550000
_cell_angle_alpha   90.00000000
_cell_angle_beta   90.00000000
_cell_angle_gamma   90.00000000
_symmetry_Int_Tables_number   1
_chemical_formula_structural   Li8Ga4Rh4CO
_chemical_formula_sum   'Li8 Ga4 Rh4 C1 O1'
_cell_volume   892.94979574
_cell_formula_units_Z   1
loop_
 _symmetry_equiv_pos_site_id
 _symmetry_equiv_pos_as_xyz
  1  'x, y, z'
loop_
 _atom_site_type_symbol
 _atom_site_label
 _atom_site_symmetry_multiplicity
 _atom_site_fract_x
 _atom_site_fract_y
 _atom_site_fract_z
 _atom_site_occupancy
  Li  Li0  1  0.99779000  0.99779000  0.97401000  1
  Li  Li1  1  0.50000000  0.00000000  0.09226000  1
  Li  Li2  1  0.00000000  0.50000000  0.09226000  1
  Li  Li3  1  0.50238000  0.50238000  0.97418000  1
  Li  Li4  1  0.25024000  0.74983000  0.89765000  1
  Li  Li5  1  0.25000000  0.25000000  0.03075000  1
  Li  Li6  1  0.74983000  0.25024000  0.89765000  1
  Li  Li7  1  0.75000000  0.75000000  0.03075000  1
  Ga  Ga8  1  0.25000000  0.75000000  0.03075000  1
  Ga  Ga9  1  0.25078000  0.25078000  0.91412000  1
  Ga  Ga10  1  0.75000000  0.25000000  0.03075000  1
  Ga  Ga11  1  0.74874000  0.74874000  0.91085000  1
  Rh  Rh12  1  0.00000000  0.00000000  0.09226000  1
  Rh  Rh13  1  0.50000000  0.50000000  0.09226000  1
  Rh  Rh14  1  0.49952000  0.00073000  0.96463000  1
  Rh  Rh15  1  0.00073000  0.49952000  0.96463000  1
  C  C16  1  0.75117000  0.75117000  0.82706000  1
  O  O17  1  0.74979000  0.74979000  0.77969000  1
