# generated using pymatgen
data_LiMg2Ge
_symmetry_space_group_name_H-M   'P 1'
_cell_length_a   4.78346424
_cell_length_b   4.78346424
_cell_length_c   25.07360000
_cell_angle_alpha   90.00000000
_cell_angle_beta   90.00000000
_cell_angle_gamma   90.00000000
_symmetry_Int_Tables_number   1
_chemical_formula_structural   LiMg2Ge
_chemical_formula_sum   'Li2 Mg4 Ge2'
_cell_volume   573.72233344
_cell_formula_units_Z   2
loop_
 _symmetry_equiv_pos_site_id
 _symmetry_equiv_pos_as_xyz
  1  'x, y, z'
loop_
 _atom_site_type_symbol
 _atom_site_label
 _atom_site_symmetry_multiplicity
 _atom_site_fract_x
 _atom_site_fract_y
 _atom_site_fract_z
 _atom_site_occupancy
  Li  Li0  1  0.00000000  0.00000000  0.89883000  1.0
  Li  Li1  1  0.50000000  0.50000000  0.03372000  1.0
  Mg  Mg2  1  0.50000000  0.00000000  0.96628000  1.0
  Mg  Mg3  1  0.50000000  0.00000000  0.10117000  1.0
  Mg  Mg4  1  0.00000000  0.50000000  0.96628000  1.0
  Mg  Mg5  1  0.00000000  0.50000000  0.10117000  1.0
  Ge  Ge6  1  0.00000000  0.00000000  0.03372000  1.0
  Ge  Ge7  1  0.50000000  0.50000000  0.89883000  1.0
