# generated using pymatgen
data_Pb32C
_symmetry_space_group_name_H-M   'P 1'
_cell_length_a   10.17650000
_cell_length_b   10.17650000
_cell_length_c   27.63240000
_cell_angle_alpha   90.00000000
_cell_angle_beta   90.00000000
_cell_angle_gamma   90.00000000
_symmetry_Int_Tables_number   1
_chemical_formula_structural   Pb32C
_chemical_formula_sum   'Pb32 C1'
_cell_volume   2861.64318343
_cell_formula_units_Z   1
loop_
 _symmetry_equiv_pos_site_id
 _symmetry_equiv_pos_as_xyz
  1  'x, y, z'
loop_
 _atom_site_type_symbol
 _atom_site_label
 _atom_site_symmetry_multiplicity
 _atom_site_fract_x
 _atom_site_fract_y
 _atom_site_fract_z
 _atom_site_occupancy
  Pb  Pb0  1  0.00000000  0.00000000  0.86189000  1.0
  Pb  Pb1  1  0.25000000  0.25000000  0.86189000  1.0
  Pb  Pb2  1  0.25000000  0.00000000  0.95396000  1.0
  Pb  Pb3  1  0.00000000  0.25000000  0.95396000  1.0
  Pb  Pb4  1  0.00000000  0.00000000  0.04604000  1.0
  Pb  Pb5  1  0.25000000  0.25000000  0.04604000  1.0
  Pb  Pb6  1  0.25000000  0.00000000  0.13811000  1.0
  Pb  Pb7  1  0.00000000  0.25000000  0.13811000  1.0
  Pb  Pb8  1  0.00000000  0.50000000  0.86189000  1.0
  Pb  Pb9  1  0.25000000  0.75000000  0.86189000  1.0
  Pb  Pb10  1  0.25000000  0.50000000  0.95396000  1.0
  Pb  Pb11  1  0.00000000  0.75000000  0.95396000  1.0
  Pb  Pb12  1  0.00000000  0.50000000  0.04604000  1.0
  Pb  Pb13  1  0.25000000  0.75000000  0.04604000  1.0
  Pb  Pb14  1  0.25000000  0.50000000  0.13811000  1.0
  Pb  Pb15  1  0.00000000  0.75000000  0.13811000  1.0
  Pb  Pb16  1  0.50000000  0.00000000  0.86189000  1.0
  Pb  Pb17  1  0.75000000  0.25000000  0.86189000  1.0
  Pb  Pb18  1  0.75000000  0.00000000  0.95396000  1.0
  Pb  Pb19  1  0.50000000  0.25000000  0.95396000  1.0
  Pb  Pb20  1  0.50000000  0.00000000  0.04604000  1.0
  Pb  Pb21  1  0.75000000  0.25000000  0.04604000  1.0
  Pb  Pb22  1  0.75000000  0.00000000  0.13811000  1.0
  Pb  Pb23  1  0.50000000  0.25000000  0.13811000  1.0
  Pb  Pb24  1  0.50000000  0.50000000  0.86189000  1.0
  Pb  Pb25  1  0.75000000  0.75000000  0.86189000  1.0
  Pb  Pb26  1  0.75000000  0.50000000  0.95396000  1.0
  Pb  Pb27  1  0.50000000  0.75000000  0.95396000  1.0
  Pb  Pb28  1  0.50000000  0.50000000  0.04604000  1.0
  Pb  Pb29  1  0.75000000  0.75000000  0.04604000  1.0
  Pb  Pb30  1  0.75000000  0.50000000  0.13811000  1.0
  Pb  Pb31  1  0.50000000  0.75000000  0.13811000  1.0
  C  C32  1  0.00000000  0.00000000  0.16706000  1.0
