data_image0
_chemical_formula_structural       Pb32C
_chemical_formula_sum              "Pb32 C1"
_cell_length_a       10.1765
_cell_length_b       10.1765
_cell_length_c       27.6324
_cell_angle_alpha    90
_cell_angle_beta     90
_cell_angle_gamma    90

_space_group_name_H-M_alt    "P 1"
_space_group_IT_number       1

loop_
  _space_group_symop_operation_xyz
  'x, y, z'

loop_
  _atom_site_type_symbol
  _atom_site_label
  _atom_site_symmetry_multiplicity
  _atom_site_fract_x
  _atom_site_fract_y
  _atom_site_fract_z
  _atom_site_occupancy
  Pb  Pb1       1.0  0.00000  0.00000  0.86189  1.0000
  Pb  Pb2       1.0  0.25000  0.25000  0.86189  1.0000
  Pb  Pb3       1.0  0.25000  0.00000  0.95396  1.0000
  Pb  Pb4       1.0  0.00000  0.25000  0.95396  1.0000
  Pb  Pb5       1.0  0.00000  0.00000  0.04604  1.0000
  Pb  Pb6       1.0  0.25000  0.25000  0.04604  1.0000
  Pb  Pb7       1.0  0.25000  0.00000  0.13811  1.0000
  Pb  Pb8       1.0  0.00000  0.25000  0.13811  1.0000
  Pb  Pb9       1.0  0.00000  0.50000  0.86189  1.0000
  Pb  Pb10      1.0  0.25000  0.75000  0.86189  1.0000
  Pb  Pb11      1.0  0.25000  0.50000  0.95396  1.0000
  Pb  Pb12      1.0  0.00000  0.75000  0.95396  1.0000
  Pb  Pb13      1.0  0.00000  0.50000  0.04604  1.0000
  Pb  Pb14      1.0  0.25000  0.75000  0.04604  1.0000
  Pb  Pb15      1.0  0.25000  0.50000  0.13811  1.0000
  Pb  Pb16      1.0  0.00000  0.75000  0.13811  1.0000
  Pb  Pb17      1.0  0.50000  0.00000  0.86189  1.0000
  Pb  Pb18      1.0  0.75000  0.25000  0.86189  1.0000
  Pb  Pb19      1.0  0.75000  0.00000  0.95396  1.0000
  Pb  Pb20      1.0  0.50000  0.25000  0.95396  1.0000
  Pb  Pb21      1.0  0.50000  0.00000  0.04604  1.0000
  Pb  Pb22      1.0  0.75000  0.25000  0.04604  1.0000
  Pb  Pb23      1.0  0.75000  0.00000  0.13811  1.0000
  Pb  Pb24      1.0  0.50000  0.25000  0.13811  1.0000
  Pb  Pb25      1.0  0.50000  0.50000  0.86189  1.0000
  Pb  Pb26      1.0  0.75000  0.75000  0.86189  1.0000
  Pb  Pb27      1.0  0.75000  0.50000  0.95396  1.0000
  Pb  Pb28      1.0  0.50000  0.75000  0.95396  1.0000
  Pb  Pb29      1.0  0.50000  0.50000  0.04604  1.0000
  Pb  Pb30      1.0  0.75000  0.75000  0.04604  1.0000
  Pb  Pb31      1.0  0.75000  0.50000  0.13811  1.0000
  Pb  Pb32      1.0  0.50000  0.75000  0.13811  1.0000
  C   C1        1.0  0.00000  0.00000  0.16706  1.0000
