# generated using pymatgen
data_Y4In4Cu4Sn4C
_symmetry_space_group_name_H-M   'P 1'
_cell_length_a   9.14612000
_cell_length_b   6.24938000
_cell_length_c   24.68700000
_cell_angle_alpha   90.00000000
_cell_angle_beta   90.00000000
_cell_angle_gamma   90.00000000
_symmetry_Int_Tables_number   1
_chemical_formula_structural   Y4In4Cu4Sn4C
_chemical_formula_sum   'Y4 In4 Cu4 Sn4 C1'
_cell_volume   1411.04916279
_cell_formula_units_Z   1
loop_
 _symmetry_equiv_pos_site_id
 _symmetry_equiv_pos_as_xyz
  1  'x, y, z'
loop_
 _atom_site_type_symbol
 _atom_site_label
 _atom_site_symmetry_multiplicity
 _atom_site_fract_x
 _atom_site_fract_y
 _atom_site_fract_z
 _atom_site_occupancy
  Y  Y0  1  0.00000000  0.30943000  0.96634000  1.0
  Y  Y1  1  0.00000000  0.74840000  0.09493000  1.0
  Y  Y2  1  0.50000000  0.33131000  0.96711000  1.0
  Y  Y3  1  0.50000000  0.74840000  0.09493000  1.0
  In  In4  1  0.75365000  0.50726000  0.89260000  1.0
  In  In5  1  0.74999000  0.99893000  0.03164000  1.0
  In  In6  1  0.24635000  0.50726000  0.89260000  1.0
  In  In7  1  0.25001000  0.99893000  0.03164000  1.0
  Cu  Cu8  1  0.73964000  0.07493000  0.92313000  1.0
  Cu  Cu9  1  0.74999000  0.49893000  0.03164000  1.0
  Cu  Cu10  1  0.26036000  0.07493000  0.92313000  1.0
  Cu  Cu11  1  0.25001000  0.49893000  0.03164000  1.0
  Sn  Sn12  1  0.00000000  0.90550000  0.89859000  1.0
  Sn  Sn13  1  0.00000000  0.24840000  0.09493000  1.0
  Sn  Sn14  1  0.50000000  0.82180000  0.93815000  1.0
  Sn  Sn15  1  0.50000000  0.24840000  0.09493000  1.0
  C  C16  1  0.00000000  0.57104000  0.90074000  1.0
