# generated using pymatgen
data_Li8Ca8Ge8Pd8C
_symmetry_space_group_name_H-M   P1
_cell_length_a   6.62107000
_cell_length_b   9.36360000
_cell_length_c   27.02270000
_cell_angle_alpha   90.00000000
_cell_angle_beta   90.00000000
_cell_angle_gamma   90.00000000
_symmetry_Int_Tables_number   1
_chemical_formula_structural   Li8Ca8Ge8Pd8C
_chemical_formula_sum   'Li8 Ca8 Ge8 Pd8 C1'
_cell_volume   1675.32771146
_cell_formula_units_Z   1
loop_
 _symmetry_equiv_pos_site_id
 _symmetry_equiv_pos_as_xyz
  1  'x, y, z'
loop_
 _atom_site_type_symbol
 _atom_site_label
 _atom_site_symmetry_multiplicity
 _atom_site_fract_x
 _atom_site_fract_y
 _atom_site_fract_z
 _atom_site_occupancy
  Li  Li0  1  0.25000000  0.25000000  0.87006000  1.0
  Li  Li1  1  0.25000000  0.75000000  0.87006000  1.0
  Li  Li2  1  0.26787000  0.74201000  0.05269000  1.0
  Li  Li3  1  0.26789000  0.25796000  0.05270000  1.0
  Li  Li4  1  0.74895000  0.00001000  0.12792000  1.0
  Li  Li5  1  0.75000000  0.00000000  0.95669000  1.0
  Li  Li6  1  0.75000000  0.50000000  0.95669000  1.0
  Li  Li7  1  0.93402000  0.50000000  0.18053000  1.0
  Ca  Ca8  1  0.00000000  0.00000000  0.87006000  1.0
  Ca  Ca9  1  0.00000000  0.50000000  0.87006000  1.0
  Ca  Ca10  1  0.00218000  0.99998000  0.04355000  1.0
  Ca  Ca11  1  0.49291000  0.26075000  0.14808000  1.0
  Ca  Ca12  1  0.49297000  0.73923000  0.14806000  1.0
  Ca  Ca13  1  0.50000000  0.25000000  0.95669000  1.0
  Ca  Ca14  1  0.50000000  0.75000000  0.95669000  1.0
  Ca  Ca15  1  0.95877000  0.49996000  0.04661000  1.0
  Ge  Ge16  1  0.00000000  0.25000000  0.95669000  1.0
  Ge  Ge17  1  0.00000000  0.75000000  0.95669000  1.0
  Ge  Ge18  1  0.48970000  0.50001000  0.04440000  1.0
  Ge  Ge19  1  0.50000000  0.00000000  0.87006000  1.0
  Ge  Ge20  1  0.50000000  0.50000000  0.87006000  1.0
  Ge  Ge21  1  0.50743000  0.99999000  0.04037000  1.0
  Ge  Ge22  1  0.98658000  0.74798000  0.13125000  1.0
  Ge  Ge23  1  0.98659000  0.25202000  0.13126000  1.0
  Pd  Pd24  1  0.16215000  0.00000000  0.14173000  1.0
  Pd  Pd25  1  0.23690000  0.49999000  0.11965000  1.0
  Pd  Pd26  1  0.25000000  0.00000000  0.95669000  1.0
  Pd  Pd27  1  0.25000000  0.50000000  0.95669000  1.0
  Pd  Pd28  1  0.70882000  0.24421000  0.05420000  1.0
  Pd  Pd29  1  0.70895000  0.75578000  0.05418000  1.0
  Pd  Pd30  1  0.75000000  0.25000000  0.87006000  1.0
  Pd  Pd31  1  0.75000000  0.75000000  0.87006000  1.0
  C  C32  1  0.43094000  0.00000000  0.11036000  1.0
