# generated using pymatgen
data_In16Pd16CO
_symmetry_space_group_name_H-M   'P 1'
_cell_length_a   9.45609000
_cell_length_b   6.68646000
_cell_length_c   27.09210000
_cell_angle_alpha   90.00000000
_cell_angle_beta   90.00000000
_cell_angle_gamma   90.00000000
_symmetry_Int_Tables_number   1
_chemical_formula_structural   In16Pd16CO
_chemical_formula_sum   'In16 Pd16 C1 O1'
_cell_volume   1712.97300101
_cell_formula_units_Z   1
loop_
 _symmetry_equiv_pos_site_id
 _symmetry_equiv_pos_as_xyz
  1  'x, y, z'
loop_
 _atom_site_type_symbol
 _atom_site_label
 _atom_site_symmetry_multiplicity
 _atom_site_fract_x
 _atom_site_fract_y
 _atom_site_fract_z
 _atom_site_occupancy
  In  In0  1  0.00000000  0.00000000  0.13089000  1.0
  In  In1  1  0.25000000  1.00000000  0.04363000  1.0
  In  In2  1  0.00000000  0.00475000  0.95485000  1.0
  In  In3  1  0.25524000  0.99336000  0.86426000  1.0
  In  In4  1  0.50000000  1.00000000  0.13089000  1.0
  In  In5  1  0.75000000  1.00000000  0.04363000  1.0
  In  In6  1  0.50000000  0.00058000  0.95679000  1.0
  In  In7  1  0.74476000  0.99336000  0.86426000  1.0
  In  In8  1  0.00000000  0.50000000  0.13089000  1.0
  In  In9  1  0.25000000  0.50000000  0.04363000  1.0
  In  In10  1  0.00000000  0.49535000  0.95485000  1.0
  In  In11  1  0.25538000  0.50660000  0.86435000  1.0
  In  In12  1  0.50000000  0.50000000  0.13089000  1.0
  In  In13  1  0.75000000  0.50000000  0.04363000  1.0
  In  In14  1  0.50000000  0.49934000  0.95678000  1.0
  In  In15  1  0.74462000  0.50660000  0.86435000  1.0
  Pd  Pd16  1  0.25000000  0.25000000  0.13089000  1.0
  Pd  Pd17  1  0.00000000  0.25000000  0.04363000  1.0
  Pd  Pd18  1  0.24737000  0.24994000  0.95441000  1.0
  Pd  Pd19  1  0.00000000  0.24988000  0.86276000  1.0
  Pd  Pd20  1  0.75000000  0.25000000  0.13089000  1.0
  Pd  Pd21  1  0.50000000  0.25000000  0.04363000  1.0
  Pd  Pd22  1  0.75263000  0.24994000  0.95441000  1.0
  Pd  Pd23  1  0.50000000  0.24976000  0.87369000  1.0
  Pd  Pd24  1  0.25000000  0.75000000  0.13089000  1.0
  Pd  Pd25  1  0.00000000  0.75000000  0.04363000  1.0
  Pd  Pd26  1  0.24831000  0.75000000  0.95951000  1.0
  Pd  Pd27  1  0.00000000  0.75017000  0.87493000  1.0
  Pd  Pd28  1  0.75000000  0.75000000  0.13089000  1.0
  Pd  Pd29  1  0.50000000  0.75000000  0.04363000  1.0
  Pd  Pd30  1  0.75169000  0.75000000  0.95951000  1.0
  Pd  Pd31  1  0.50000000  0.75011000  0.87367000  1.0
  C  C32  1  0.00000000  0.25205000  0.78995000  1.0
  O  O33  1  0.00000000  0.25271000  0.74754000  1.0
