# generated using pymatgen
data_In16Pd16CO
_symmetry_space_group_name_H-M   Pm
_cell_length_a   6.68646000
_cell_length_b   9.45609000
_cell_length_c   27.09210000
_cell_angle_alpha   90.00000000
_cell_angle_beta   90.00000000
_cell_angle_gamma   90.00000000
_symmetry_Int_Tables_number   6
_chemical_formula_structural   In16Pd16CO
_chemical_formula_sum   'In16 Pd16 C1 O1'
_cell_volume   1712.97300101
_cell_formula_units_Z   1
loop_
 _symmetry_equiv_pos_site_id
 _symmetry_equiv_pos_as_xyz
  1  'x, y, z'
  2  'x, -y, z'
loop_
 _atom_site_type_symbol
 _atom_site_label
 _atom_site_symmetry_multiplicity
 _atom_site_fract_x
 _atom_site_fract_y
 _atom_site_fract_z
 _atom_site_occupancy
  In  In0  2  -0.00000000  0.25000000  0.95637000  1.0
  In  In1  2  0.50000000  0.25000000  0.95637000  1.0
  In  In2  2  0.50660000  0.25538000  0.13565000  1.0
  In  In3  2  0.99336000  0.25524000  0.13574000  1.0
  In  In4  1  -0.00000000  0.50000000  0.86911000  1.0
  In  In5  1  0.00000000  0.00000000  0.86911000  1.0
  In  In6  1  0.00058000  0.50000000  0.04321000  1.0
  In  In7  1  0.00475000  0.00000000  0.04515000  1.0
  In  In8  1  0.49535000  0.00000000  0.04515000  1.0
  In  In9  1  0.49934000  0.50000000  0.04322000  1.0
  In  In10  1  0.50000000  0.00000000  0.86911000  1.0
  In  In11  1  0.50000000  0.50000000  0.86911000  1.0
  Pd  Pd12  2  0.24994000  0.24737000  0.04559000  1.0
  Pd  Pd13  2  0.25000000  0.25000000  0.86911000  1.0
  Pd  Pd14  2  0.75000000  0.24831000  0.04049000  1.0
  Pd  Pd15  2  0.75000000  0.25000000  0.86911000  1.0
  Pd  Pd16  1  0.24976000  0.50000000  0.12631000  1.0
  Pd  Pd17  1  0.24988000  0.00000000  0.13724000  1.0
  Pd  Pd18  1  0.25000000  0.00000000  0.95637000  1.0
  Pd  Pd19  1  0.25000000  0.50000000  0.95637000  1.0
  Pd  Pd20  1  0.75000000  0.00000000  0.95637000  1.0
  Pd  Pd21  1  0.75000000  0.50000000  0.95637000  1.0
  Pd  Pd22  1  0.75011000  0.50000000  0.12633000  1.0
  Pd  Pd23  1  0.75017000  0.00000000  0.12507000  1.0
  C  C24  1  0.25205000  0.00000000  0.21005000  1.0
  O  O25  1  0.25271000  0.00000000  0.25246000  1.0
