# generated using pymatgen
data_Li8Pb8C
_symmetry_space_group_name_H-M   'P 1'
_cell_length_a   7.21597000
_cell_length_b   7.21597000
_cell_length_c   25.41200000
_cell_angle_alpha   90.00000000
_cell_angle_beta   90.00000000
_cell_angle_gamma   90.00000000
_symmetry_Int_Tables_number   1
_chemical_formula_structural   Li8Pb8C
_chemical_formula_sum   'Li8 Pb8 C1'
_cell_volume   1323.20850792
_cell_formula_units_Z   1
loop_
 _symmetry_equiv_pos_site_id
 _symmetry_equiv_pos_as_xyz
  1  'x, y, z'
loop_
 _atom_site_type_symbol
 _atom_site_label
 _atom_site_symmetry_multiplicity
 _atom_site_fract_x
 _atom_site_fract_y
 _atom_site_fract_z
 _atom_site_occupancy
  Li  Li0  1  0.00000000  0.00000000  0.86032000  1.0
  Li  Li1  1  0.00000000  0.00000000  0.99556000  1.0
  Li  Li2  1  0.00000000  0.50000000  0.86032000  1.0
  Li  Li3  1  0.00000000  0.50000000  0.99818000  1.0
  Li  Li4  1  0.50000000  0.00000000  0.86032000  1.0
  Li  Li5  1  0.50000000  0.00000000  0.99818000  1.0
  Li  Li6  1  0.50000000  0.50000000  0.86032000  1.0
  Li  Li7  1  0.50000000  0.50000000  0.99519000  1.0
  Pb  Pb8  1  0.25000000  0.25000000  0.93131000  1.0
  Pb  Pb9  1  0.23514000  0.23514000  0.07762000  1.0
  Pb  Pb10  1  0.25000000  0.75000000  0.93131000  1.0
  Pb  Pb11  1  0.23514000  0.76486000  0.07762000  1.0
  Pb  Pb12  1  0.75000000  0.25000000  0.93131000  1.0
  Pb  Pb13  1  0.76486000  0.23514000  0.07762000  1.0
  Pb  Pb14  1  0.75000000  0.75000000  0.93131000  1.0
  Pb  Pb15  1  0.76486000  0.76486000  0.07762000  1.0
  C  C16  1  0.00000000  0.00000000  0.08016000  1.0
