# generated using pymatgen
data_Pt12Pb4C
_symmetry_space_group_name_H-M   Pmm2
_cell_length_a   5.89768000
_cell_length_b   8.34058000
_cell_length_c   24.42330000
_cell_angle_alpha   90.00000000
_cell_angle_beta   90.00000000
_cell_angle_gamma   90.00000000
_symmetry_Int_Tables_number   25
_chemical_formula_structural   Pt12Pb4C
_chemical_formula_sum   'Pt12 Pb4 C1'
_cell_volume   1201.38388192
_cell_formula_units_Z   1
loop_
 _symmetry_equiv_pos_site_id
 _symmetry_equiv_pos_as_xyz
  1  'x, y, z'
  2  '-x, -y, z'
  3  '-x, y, z'
  4  'x, -y, z'
loop_
 _atom_site_type_symbol
 _atom_site_label
 _atom_site_symmetry_multiplicity
 _atom_site_fract_x
 _atom_site_fract_y
 _atom_site_fract_z
 _atom_site_occupancy
  Pt  Pt0  4  0.25000000  0.24999000  0.03018000  1.0
  Pt  Pt1  4  0.26227000  0.17326000  0.89568000  1.0
  Pt  Pt2  1  0.00000000  0.00000000  0.97056000  1.0
  Pt  Pt3  1  0.00000000  0.50000000  0.97219000  1.0
  Pt  Pt4  1  0.50000000  0.00000000  0.09055000  1.0
  Pt  Pt5  1  0.50000000  0.50000000  0.09055000  1.0
  Pb  Pb6  1  0.00000000  0.00000000  0.09055000  1.0
  Pb  Pb7  1  0.00000000  0.50000000  0.09055000  1.0
  Pb  Pb8  1  0.50000000  0.00000000  0.98127000  1.0
  Pb  Pb9  1  0.50000000  0.50000000  0.93720000  1.0
  C  C10  1  0.50000000  0.00000000  0.87441000  1.0
