# generated using pymatgen
data_TiPt
_symmetry_space_group_name_H-M   Pm
_cell_length_a   9.00957000
_cell_length_b   6.37073000
_cell_length_c   26.75720000
_cell_angle_alpha   90.00000000
_cell_angle_beta   90.00000000
_cell_angle_gamma   90.00000000
_symmetry_Int_Tables_number   6
_chemical_formula_structural   TiPt
_chemical_formula_sum   'Ti16 Pt16'
_cell_volume   1535.79740073
_cell_formula_units_Z   16
loop_
 _symmetry_equiv_pos_site_id
 _symmetry_equiv_pos_as_xyz
  1  'x, y, z'
  2  'x, -y, z'
loop_
 _atom_site_type_symbol
 _atom_site_label
 _atom_site_symmetry_multiplicity
 _atom_site_fract_x
 _atom_site_fract_y
 _atom_site_fract_z
 _atom_site_occupancy
  Ti  Ti0  1  0.00000000  0.00000000  0.95791000  1.0
  Ti  Ti1  1  0.00000000  0.50000000  0.95791000  1.0
  Ti  Ti2  1  0.00002000  0.00000000  0.13036000  1.0
  Ti  Ti3  1  0.00004000  0.50000000  0.13025000  1.0
  Ti  Ti4  1  0.24773000  0.00000000  0.03965000  1.0
  Ti  Ti5  1  0.25000000  0.00000000  0.87373000  1.0
  Ti  Ti6  1  0.25000000  0.50000000  0.87373000  1.0
  Ti  Ti7  1  0.25251000  0.50000000  0.03984000  1.0
  Ti  Ti8  1  0.49997000  0.00000000  0.13214000  1.0
  Ti  Ti9  1  0.49998000  0.50000000  0.12860000  1.0
  Ti  Ti10  1  0.50000000  0.00000000  0.95791000  1.0
  Ti  Ti11  1  0.50000000  0.50000000  0.95791000  1.0
  Ti  Ti12  1  0.74753000  0.50000000  0.03985000  1.0
  Ti  Ti13  1  0.75000000  0.00000000  0.87373000  1.0
  Ti  Ti14  1  0.75000000  0.50000000  0.87373000  1.0
  Ti  Ti15  1  0.75230000  0.00000000  0.03966000  1.0
  Pt  Pt16  2  0.00000000  0.25000000  0.87373000  1.0
  Pt  Pt17  2  0.25000000  0.25000000  0.95791000  1.0
  Pt  Pt18  2  0.25038000  0.24947000  0.11990000  1.0
  Pt  Pt19  2  0.50000000  0.25000000  0.87373000  1.0
  Pt  Pt20  2  0.50010000  0.23125000  0.04986000  1.0
  Pt  Pt21  2  0.74966000  0.24948000  0.11987000  1.0
  Pt  Pt22  2  0.75000000  0.25000000  0.95791000  1.0
  Pt  Pt23  2  0.99998000  0.25233000  0.04974000  1.0
