# generated using pymatgen
data_Cr8Rh24CO
_symmetry_space_group_name_H-M   'P 1'
_cell_length_a   7.63311000
_cell_length_b   7.63311000
_cell_length_c   25.72480000
_cell_angle_alpha   90.00000000
_cell_angle_beta   90.00000000
_cell_angle_gamma   90.00000000
_symmetry_Int_Tables_number   1
_chemical_formula_structural   Cr8Rh24CO
_chemical_formula_sum   'Cr8 Rh24 C1 O1'
_cell_volume   1498.83922093
_cell_formula_units_Z   1
loop_
 _symmetry_equiv_pos_site_id
 _symmetry_equiv_pos_as_xyz
  1  'x, y, z'
loop_
 _atom_site_type_symbol
 _atom_site_label
 _atom_site_symmetry_multiplicity
 _atom_site_fract_x
 _atom_site_fract_y
 _atom_site_fract_z
 _atom_site_occupancy
  Cr  Cr0  1  0.75000000  0.75000000  0.11127000  1.0
  Cr  Cr1  1  0.75000000  0.75000000  0.96291000  1.0
  Cr  Cr2  1  0.75000000  0.25000000  0.11127000  1.0
  Cr  Cr3  1  0.75000000  0.25000000  0.96291000  1.0
  Cr  Cr4  1  0.25000000  0.75000000  0.11127000  1.0
  Cr  Cr5  1  0.25000000  0.75000000  0.96291000  1.0
  Cr  Cr6  1  0.25000000  0.25000000  0.11127000  1.0
  Cr  Cr7  1  0.25000000  0.25000000  0.96291000  1.0
  Rh  Rh8  1  0.75000000  0.00000000  0.03709000  1.0
  Rh  Rh9  1  0.00000000  0.75000000  0.03709000  1.0
  Rh  Rh10  1  0.00000000  0.00000000  0.11127000  1.0
  Rh  Rh11  1  0.75000000  0.00000000  0.88873000  1.0
  Rh  Rh12  1  0.00000000  0.75000000  0.88873000  1.0
  Rh  Rh13  1  0.00000000  0.00000000  0.96291000  1.0
  Rh  Rh14  1  0.75000000  0.50000000  0.03709000  1.0
  Rh  Rh15  1  0.00000000  0.25000000  0.03709000  1.0
  Rh  Rh16  1  0.00000000  0.50000000  0.11127000  1.0
  Rh  Rh17  1  0.75000000  0.50000000  0.88873000  1.0
  Rh  Rh18  1  0.00000000  0.25000000  0.88873000  1.0
  Rh  Rh19  1  0.00000000  0.50000000  0.96291000  1.0
  Rh  Rh20  1  0.25000000  0.00000000  0.03709000  1.0
  Rh  Rh21  1  0.50000000  0.75000000  0.03709000  1.0
  Rh  Rh22  1  0.50000000  0.00000000  0.11127000  1.0
  Rh  Rh23  1  0.25000000  0.00000000  0.88873000  1.0
  Rh  Rh24  1  0.50000000  0.75000000  0.88873000  1.0
  Rh  Rh25  1  0.50000000  0.00000000  0.96291000  1.0
  Rh  Rh26  1  0.25000000  0.50000000  0.03709000  1.0
  Rh  Rh27  1  0.50000000  0.25000000  0.03709000  1.0
  Rh  Rh28  1  0.50000000  0.50000000  0.11127000  1.0
  Rh  Rh29  1  0.25000000  0.50000000  0.88873000  1.0
  Rh  Rh30  1  0.50000000  0.25000000  0.88873000  1.0
  Rh  Rh31  1  0.50000000  0.50000000  0.96291000  1.0
  C  C32  1  0.00000000  0.00000000  0.18513000  1.0
  O  O33  1  0.00000000  0.00000000  0.22983000  1.0
