# generated using pymatgen
data_Li4Sc4Al4In4CO
_symmetry_space_group_name_H-M   'P 1'
_cell_length_a   6.08380000
_cell_length_b   8.37392000
_cell_length_c   24.56130000
_cell_angle_alpha   90.00000000
_cell_angle_beta   90.00000000
_cell_angle_gamma   90.00000000
_symmetry_Int_Tables_number   1
_chemical_formula_structural   Li4Sc4Al4In4CO
_chemical_formula_sum   'Li4 Sc4 Al4 In4 C1 O1'
_cell_volume   1251.28167925
_cell_formula_units_Z   1
loop_
 _symmetry_equiv_pos_site_id
 _symmetry_equiv_pos_as_xyz
  1  'x, y, z'
loop_
 _atom_site_type_symbol
 _atom_site_label
 _atom_site_symmetry_multiplicity
 _atom_site_fract_x
 _atom_site_fract_y
 _atom_site_fract_z
 _atom_site_occupancy
  Li  Li0  1  0.50000000  0.00000000  0.09286000  1.0
  Li  Li1  1  0.04535000  0.00020000  0.96861000  1.0
  Li  Li2  1  0.50000000  0.50000000  0.09286000  1.0
  Li  Li3  1  0.04553000  0.49980000  0.96865000  1.0
  Sc  Sc4  1  0.75642000  0.75000000  0.03095000  1.0
  Sc  Sc5  1  0.32639000  0.74998000  0.90232000  1.0
  Sc  Sc6  1  0.75642000  0.25000000  0.03095000  1.0
  Sc  Sc7  1  0.32496000  0.25002000  0.90392000  1.0
  Al  Al8  1  0.00000000  0.00000000  0.09286000  1.0
  Al  Al9  1  0.54058000  0.00057000  0.96640000  1.0
  Al  Al10  1  0.00000000  0.50000000  0.09286000  1.0
  Al  Al11  1  0.54051000  0.49942000  0.96642000  1.0
  In  In12  1  0.25642000  0.75000000  0.03095000  1.0
  In  In13  1  0.81778000  0.74982000  0.90153000  1.0
  In  In14  1  0.25642000  0.25000000  0.03095000  1.0
  In  In15  1  0.81662000  0.25018000  0.90098000  1.0
  C  C16  1  0.46934000  0.75000000  0.81672000  1.0
  O  O17  1  0.52665000  0.75000000  0.77179000  1.0
