# generated using pymatgen
data_Y8Cu8Ge8Pd8CO
_symmetry_space_group_name_H-M   'P 1'
_cell_length_a   6.58158000
_cell_length_b   9.30776000
_cell_length_c   26.98080000
_cell_angle_alpha   90.00000000
_cell_angle_beta   90.00000000
_cell_angle_gamma   90.00000000
_symmetry_Int_Tables_number   1
_chemical_formula_structural   Y8Cu8Ge8Pd8CO
_chemical_formula_sum   'Y8 Cu8 Ge8 Pd8 C1 O1'
_cell_volume   1652.83752311
_cell_formula_units_Z   1
loop_
 _symmetry_equiv_pos_site_id
 _symmetry_equiv_pos_as_xyz
  1  'x, y, z'
loop_
 _atom_site_type_symbol
 _atom_site_label
 _atom_site_symmetry_multiplicity
 _atom_site_fract_x
 _atom_site_fract_y
 _atom_site_fract_z
 _atom_site_occupancy
  Y  Y0  1  0.25000000  0.00000000  0.95688000  1.0
  Y  Y1  1  0.25000000  0.50000000  0.95688000  1.0
  Y  Y2  1  0.75000000  0.75000000  0.87063000  1.0
  Y  Y3  1  0.75000000  0.25000000  0.87063000  1.0
  Y  Y4  1  0.35005000  0.49996000  0.13992000  1.0
  Y  Y5  1  0.35010000  0.99983000  0.14166000  1.0
  Y  Y6  1  0.76743000  0.25019000  0.04650000  1.0
  Y  Y7  1  0.76750000  0.74964000  0.04644000  1.0
  Cu  Cu8  1  0.00000000  0.00000000  0.87063000  1.0
  Cu  Cu9  1  0.00000000  0.50000000  0.87063000  1.0
  Cu  Cu10  1  0.50000000  0.25000000  0.95688000  1.0
  Cu  Cu11  1  0.50000000  0.75000000  0.95688000  1.0
  Cu  Cu12  1  0.07228000  0.49997000  0.05938000  1.0
  Cu  Cu13  1  0.07315000  0.99990000  0.05948000  1.0
  Cu  Cu14  1  0.66813000  0.75042000  0.15254000  1.0
  Cu  Cu15  1  0.66880000  0.24942000  0.15260000  1.0
  Ge  Ge16  1  0.75000000  0.00000000  0.95688000  1.0
  Ge  Ge17  1  0.75000000  0.50000000  0.95688000  1.0
  Ge  Ge18  1  0.25000000  0.75000000  0.87063000  1.0
  Ge  Ge19  1  0.25000000  0.25000000  0.87063000  1.0
  Ge  Ge20  1  0.80149000  0.50003000  0.12669000  1.0
  Ge  Ge21  1  0.80288000  0.99981000  0.12556000  1.0
  Ge  Ge22  1  0.26833000  0.24968000  0.04050000  1.0
  Ge  Ge23  1  0.26832000  0.75016000  0.04053000  1.0
  Pd  Pd24  1  0.00000000  0.75000000  0.95688000  1.0
  Pd  Pd25  1  0.00000000  0.25000000  0.95688000  1.0
  Pd  Pd26  1  0.50000000  0.50000000  0.87063000  1.0
  Pd  Pd27  1  0.50000000  0.00000000  0.87063000  1.0
  Pd  Pd28  1  0.07045000  0.25169000  0.12512000  1.0
  Pd  Pd29  1  0.07018000  0.74823000  0.12514000  1.0
  Pd  Pd30  1  0.50717000  0.99988000  0.04242000  1.0
  Pd  Pd31  1  0.50446000  0.49992000  0.04296000  1.0
  C  C32  1  0.50591000  0.00010000  0.22555000  1.0
  O  O33  1  0.57629000  0.00036000  0.26461000  1.0
