# generated using pymatgen
data_Li8Ga4Ir4CO
_symmetry_space_group_name_H-M   P2
_cell_length_a   6.01864000
_cell_length_b   24.51400000
_cell_length_c   6.01864000
_cell_angle_alpha   90.00000000
_cell_angle_beta   90.00000000
_cell_angle_gamma   90.00000000
_symmetry_Int_Tables_number   3
_chemical_formula_structural   Li8Ga4Ir4CO
_chemical_formula_sum   'Li8 Ga4 Ir4 C1 O1'
_cell_volume   887.99580890
_cell_formula_units_Z   1
loop_
 _symmetry_equiv_pos_site_id
 _symmetry_equiv_pos_as_xyz
  1  'x, y, z'
  2  '-x, y, -z'
loop_
 _atom_site_type_symbol
 _atom_site_label
 _atom_site_symmetry_multiplicity
 _atom_site_fract_x
 _atom_site_fract_y
 _atom_site_fract_z
 _atom_site_occupancy
  Li  Li0  2  0.25000000  0.90793000  0.75000000  1.0
  Li  Li1  2  0.25077000  0.03493000  0.25040000  1.0
  Li  Li2  1  0.00000000  0.10648000  0.50000000  1.0
  Li  Li3  1  0.00000000  0.96931000  0.00000000  1.0
  Li  Li4  1  0.50000000  0.10744000  0.00000000  1.0
  Li  Li5  1  0.50000000  0.96931000  0.50000000  1.0
  Ga  Ga6  2  0.25000000  0.90793000  0.25000000  1.0
  Ga  Ga7  2  0.25094000  0.03247000  0.75010000  1.0
  Ir  Ir8  1  0.00000000  0.08580000  0.00000000  1.0
  Ir  Ir9  1  0.00000000  0.96931000  0.50000000  1.0
  Ir  Ir10  1  0.50000000  0.08610000  0.50000000  1.0
  Ir  Ir11  1  0.50000000  0.96931000  0.00000000  1.0
  C  C12  1  0.50000000  0.19385000  0.00000000  1.0
  O  O13  1  0.50000000  0.24029000  0.00000000  1.0
