# generated using pymatgen
data_Li8Mg8Al8Pd8CO
_symmetry_space_group_name_H-M   Pm
_cell_length_a   6.28130000
_cell_length_b   8.88310000
_cell_length_c   26.66230000
_cell_angle_alpha   90.00000000
_cell_angle_beta   90.00000000
_cell_angle_gamma   90.00000000
_symmetry_Int_Tables_number   6
_chemical_formula_structural   Li8Mg8Al8Pd8CO
_chemical_formula_sum   'Li8 Mg8 Al8 Pd8 C1 O1'
_cell_volume   1487.68744542
_cell_formula_units_Z   1
loop_
 _symmetry_equiv_pos_site_id
 _symmetry_equiv_pos_as_xyz
  1  'x, y, z'
  2  'x, -y, z'
loop_
 _atom_site_type_symbol
 _atom_site_label
 _atom_site_symmetry_multiplicity
 _atom_site_fract_x
 _atom_site_fract_y
 _atom_site_fract_z
 _atom_site_occupancy
  Li  Li0  2  0.75000000  0.25000000  0.87506000  1.0
  Li  Li1  2  0.75529000  0.25088000  0.04012000  1.0
  Li  Li2  1  0.25000000  0.00000000  0.95835000  1.0
  Li  Li3  1  0.25000000  0.50000000  0.95835000  1.0
  Li  Li4  1  0.27247000  0.00000000  0.13081000  1.0
  Li  Li5  1  0.27476000  0.50000000  0.13607000  1.0
  Mg  Mg6  2  0.00000000  0.25000000  0.95835000  1.0
  Mg  Mg7  2  0.98916000  0.25030000  0.12984000  1.0
  Mg  Mg8  1  0.49175000  0.50000000  0.04062000  1.0
  Mg  Mg9  1  0.49345000  0.00000000  0.03919000  1.0
  Mg  Mg10  1  0.50000000  0.00000000  0.87506000  1.0
  Mg  Mg11  1  0.50000000  0.50000000  0.87506000  1.0
  Al  Al12  2  0.50000000  0.25000000  0.95835000  1.0
  Al  Al13  2  0.52096000  0.25127000  0.12261000  1.0
  Al  Al14  1  0.00000000  0.00000000  0.87506000  1.0
  Al  Al15  1  0.00000000  0.50000000  0.87506000  1.0
  Al  Al16  1  0.00209000  0.00000000  0.04303000  1.0
  Al  Al17  1  0.00392000  0.50000000  0.04424000  1.0
  Pd  Pd18  2  0.24455000  0.24888000  0.04421000  1.0
  Pd  Pd19  2  0.25000000  0.25000000  0.87506000  1.0
  Pd  Pd20  1  0.73657000  0.00000000  0.11751000  1.0
  Pd  Pd21  1  0.73868000  0.50000000  0.11945000  1.0
  Pd  Pd22  1  0.75000000  0.00000000  0.95835000  1.0
  Pd  Pd23  1  0.75000000  0.50000000  0.95835000  1.0
  C  C24  1  0.23077000  0.00000000  0.20641000  1.0
  O  O25  1  0.22513000  0.00000000  0.24938000  1.0
