data_image0
_chemical_formula_structural       Li8Ge4Au4CO
_chemical_formula_sum              "Li8 Ge4 Au4 C1 O1"
_cell_length_a       6.30953
_cell_length_b       6.30953
_cell_length_c       24.7321
_cell_angle_alpha    90
_cell_angle_beta     90
_cell_angle_gamma    90

_space_group_name_H-M_alt    "P 1"
_space_group_IT_number       1

loop_
  _space_group_symop_operation_xyz
  'x, y, z'

loop_
  _atom_site_type_symbol
  _atom_site_label
  _atom_site_symmetry_multiplicity
  _atom_site_fract_x
  _atom_site_fract_y
  _atom_site_fract_z
  _atom_site_occupancy
  Li  Li1       1.0  0.00128  0.00152  0.03149  1.0000
  Li  Li2       1.0  0.50000  0.00000  0.90433  1.0000
  Li  Li3       1.0  0.00000  0.50000  0.90433  1.0000
  Li  Li4       1.0  0.49875  0.49836  0.03192  1.0000
  Li  Li5       1.0  0.25108  0.25109  0.11222  1.0000
  Li  Li6       1.0  0.25000  0.75000  0.96811  1.0000
  Li  Li7       1.0  0.75228  0.75231  0.10979  1.0000
  Li  Li8       1.0  0.75000  0.25000  0.96811  1.0000
  Ge  Ge1       1.0  0.00000  0.00000  0.90433  1.0000
  Ge  Ge2       1.0  0.50000  0.50000  0.90433  1.0000
  Ge  Ge3       1.0  0.49980  0.99996  0.03900  1.0000
  Ge  Ge4       1.0  0.99985  0.49972  0.03897  1.0000
  Au  Au1       1.0  0.25000  0.25000  0.96811  1.0000
  Au  Au2       1.0  0.24903  0.75048  0.09258  1.0000
  Au  Au3       1.0  0.75000  0.75000  0.96811  1.0000
  Au  Au4       1.0  0.75051  0.24914  0.09262  1.0000
  C   C1        1.0  0.24837  0.24835  0.19809  1.0000
  O   O1        1.0  0.24702  0.24701  0.24414  1.0000
