# generated using pymatgen
data_Li4Al4Ag4Sn4C
_symmetry_space_group_name_H-M   'P 1'
_cell_length_a   8.66686000
_cell_length_b   5.91351000
_cell_length_c   24.43010000
_cell_angle_alpha   90.00000000
_cell_angle_beta   90.00000000
_cell_angle_gamma   90.00000000
_symmetry_Int_Tables_number   1
_chemical_formula_structural   Li4Al4Ag4Sn4C
_chemical_formula_sum   'Li4 Al4 Ag4 Sn4 C1'
_cell_volume   1252.08081605
_cell_formula_units_Z   1
loop_
 _symmetry_equiv_pos_site_id
 _symmetry_equiv_pos_as_xyz
  1  'x, y, z'
loop_
 _atom_site_type_symbol
 _atom_site_label
 _atom_site_symmetry_multiplicity
 _atom_site_fract_x
 _atom_site_fract_y
 _atom_site_fract_z
 _atom_site_occupancy
  Li  Li0  1  0.80611000  0.71798000  0.89358000  1.0
  Li  Li1  1  0.75000000  0.97614000  0.03022000  1.0
  Li  Li2  1  0.19389000  0.71798000  0.89358000  1.0
  Li  Li3  1  0.25000000  0.97614000  0.03022000  1.0
  Al  Al4  1  0.00000000  0.22613000  0.97125000  1.0
  Al  Al5  1  0.00000000  0.71421000  0.09067000  1.0
  Al  Al6  1  0.50000000  0.30387000  0.96958000  1.0
  Al  Al7  1  0.50000000  0.71421000  0.09067000  1.0
  Ag  Ag8  1  0.74271000  0.14631000  0.92006000  1.0
  Ag  Ag9  1  0.75000000  0.47614000  0.03022000  1.0
  Ag  Ag10  1  0.25729000  0.14631000  0.92006000  1.0
  Ag  Ag11  1  0.25000000  0.47614000  0.03022000  1.0
  Sn  Sn12  1  0.00000000  0.71258000  0.97961000  1.0
  Sn  Sn13  1  0.00000000  0.21421000  0.09067000  1.0
  Sn  Sn14  1  0.50000000  0.79599000  0.96106000  1.0
  Sn  Sn15  1  0.50000000  0.21421000  0.09067000  1.0
  C  C16  1  0.00000000  0.97727000  0.91237000  1.0
