# generated using pymatgen
data_Li4Al4Ag4Sn4C
_symmetry_space_group_name_H-M   Pm
_cell_length_a   5.91351000
_cell_length_b   8.66686000
_cell_length_c   24.43010000
_cell_angle_alpha   90.00000000
_cell_angle_beta   90.00000000
_cell_angle_gamma   90.00000000
_symmetry_Int_Tables_number   6
_chemical_formula_structural   Li4Al4Ag4Sn4C
_chemical_formula_sum   'Li4 Al4 Ag4 Sn4 C1'
_cell_volume   1252.08081605
_cell_formula_units_Z   1
loop_
 _symmetry_equiv_pos_site_id
 _symmetry_equiv_pos_as_xyz
  1  'x, y, z'
  2  'x, -y, z'
loop_
 _atom_site_type_symbol
 _atom_site_label
 _atom_site_symmetry_multiplicity
 _atom_site_fract_x
 _atom_site_fract_y
 _atom_site_fract_z
 _atom_site_occupancy
  Li  Li0  2  0.71798000  0.19389000  0.10642000  1.0
  Li  Li1  2  0.97614000  0.25000000  0.96978000  1.0
  Al  Al2  1  0.22613000  0.00000000  0.02875000  1.0
  Al  Al3  1  0.30387000  0.50000000  0.03042000  1.0
  Al  Al4  1  0.71421000  0.00000000  0.90933000  1.0
  Al  Al5  1  0.71421000  0.50000000  0.90933000  1.0
  Ag  Ag6  2  0.14631000  0.25729000  0.07994000  1.0
  Ag  Ag7  2  0.47614000  0.25000000  0.96978000  1.0
  Sn  Sn8  1  0.21421000  0.00000000  0.90933000  1.0
  Sn  Sn9  1  0.21421000  0.50000000  0.90933000  1.0
  Sn  Sn10  1  0.71258000  0.00000000  0.02039000  1.0
  Sn  Sn11  1  0.79599000  0.50000000  0.03894000  1.0
  C  C12  1  0.97727000  0.00000000  0.08763000  1.0
