data_image0
_chemical_formula_structural       Y8Al8C
_chemical_formula_sum              "Y8 Al8 C1"
_cell_length_a       7.18582
_cell_length_b       7.18582
_cell_length_c       25.3894
_cell_angle_alpha    90
_cell_angle_beta     90
_cell_angle_gamma    90

_space_group_name_H-M_alt    "P 1"
_space_group_IT_number       1

loop_
  _space_group_symop_operation_xyz
  'x, y, z'

loop_
  _atom_site_type_symbol
  _atom_site_label
  _atom_site_symmetry_multiplicity
  _atom_site_fract_x
  _atom_site_fract_y
  _atom_site_fract_z
  _atom_site_occupancy
  Y   Y1        1.0  0.00000  0.00000  0.87496  1.0000
  Y   Y2        1.0  0.99992  0.99999  0.00008  1.0000
  Y   Y3        1.0  0.00000  0.50000  0.87496  1.0000
  Y   Y4        1.0  0.00001  0.50000  0.02141  1.0000
  Y   Y5        1.0  0.50000  0.00000  0.87496  1.0000
  Y   Y6        1.0  0.50003  0.00000  0.02138  1.0000
  Y   Y7        1.0  0.50000  0.50000  0.87496  1.0000
  Y   Y8        1.0  0.50000  0.50000  0.04838  1.0000
  Al  Al1       1.0  0.25000  0.25000  0.94572  1.0000
  Al  Al2       1.0  0.20032  0.20031  0.09333  1.0000
  Al  Al3       1.0  0.25000  0.75000  0.94572  1.0000
  Al  Al4       1.0  0.20032  0.79969  0.09333  1.0000
  Al  Al5       1.0  0.75000  0.25000  0.94572  1.0000
  Al  Al6       1.0  0.79969  0.20031  0.09333  1.0000
  Al  Al7       1.0  0.75000  0.75000  0.94572  1.0000
  Al  Al8       1.0  0.79969  0.79969  0.09333  1.0000
  C   C1        1.0  0.00000  1.00000  0.09440  1.0000
