# generated using pymatgen
data_Al16Pt16CO
_symmetry_space_group_name_H-M   'P 1'
_cell_length_a   6.19423000
_cell_length_b   8.75996000
_cell_length_c   26.57000000
_cell_angle_alpha   90.00000000
_cell_angle_beta   90.00000000
_cell_angle_gamma   90.00000000
_symmetry_Int_Tables_number   1
_chemical_formula_structural   Al16Pt16CO
_chemical_formula_sum   'Al16 Pt16 C1 O1'
_cell_volume   1441.72027081
_cell_formula_units_Z   1
loop_
 _symmetry_equiv_pos_site_id
 _symmetry_equiv_pos_as_xyz
  1  'x, y, z'
loop_
 _atom_site_type_symbol
 _atom_site_label
 _atom_site_symmetry_multiplicity
 _atom_site_fract_x
 _atom_site_fract_y
 _atom_site_fract_z
 _atom_site_occupancy
  Al  Al0  1  0.00000000  0.75000000  0.87636000  1.0
  Al  Al1  1  0.00000000  0.00000000  0.95879000  1.0
  Al  Al2  1  0.00000000  0.74921000  0.04231000  1.0
  Al  Al3  1  0.00000000  0.00000000  0.12661000  1.0
  Al  Al4  1  0.00000000  0.25000000  0.87636000  1.0
  Al  Al5  1  0.00000000  0.50000000  0.95879000  1.0
  Al  Al6  1  0.00000000  0.25079000  0.04231000  1.0
  Al  Al7  1  0.00000000  0.50000000  0.12476000  1.0
  Al  Al8  1  0.50000000  0.75000000  0.87636000  1.0
  Al  Al9  1  0.50000000  0.00000000  0.95879000  1.0
  Al  Al10  1  0.50000000  0.75028000  0.04169000  1.0
  Al  Al11  1  0.50000000  0.00000000  0.12470000  1.0
  Al  Al12  1  0.50000000  0.25000000  0.87636000  1.0
  Al  Al13  1  0.50000000  0.50000000  0.95879000  1.0
  Al  Al14  1  0.50000000  0.24972000  0.04169000  1.0
  Al  Al15  1  0.50000000  0.50000000  0.12485000  1.0
  Pt  Pt16  1  0.25000000  0.00000000  0.87636000  1.0
  Pt  Pt17  1  0.25000000  0.75000000  0.95879000  1.0
  Pt  Pt18  1  0.24909000  0.00000000  0.03850000  1.0
  Pt  Pt19  1  0.25116000  0.25168000  0.11886000  1.0
  Pt  Pt20  1  0.25000000  0.50000000  0.87636000  1.0
  Pt  Pt21  1  0.25000000  0.25000000  0.95879000  1.0
  Pt  Pt22  1  0.25019000  0.50000000  0.03738000  1.0
  Pt  Pt23  1  0.25116000  0.74832000  0.11886000  1.0
  Pt  Pt24  1  0.75000000  0.00000000  0.87636000  1.0
  Pt  Pt25  1  0.75000000  0.75000000  0.95879000  1.0
  Pt  Pt26  1  0.75091000  0.00000000  0.03850000  1.0
  Pt  Pt27  1  0.74884000  0.25168000  0.11886000  1.0
  Pt  Pt28  1  0.75000000  0.50000000  0.87636000  1.0
  Pt  Pt29  1  0.75000000  0.25000000  0.95879000  1.0
  Pt  Pt30  1  0.74981000  0.50000000  0.03738000  1.0
  Pt  Pt31  1  0.74884000  0.74832000  0.11886000  1.0
  C  C32  1  0.00000000  0.00000000  0.20385000  1.0
  O  O33  1  0.00000000  0.00000000  0.24692000  1.0
