# generated using pymatgen
data_Al16Pt16CO
_symmetry_space_group_name_H-M   Pmm2
_cell_length_a   6.19423000
_cell_length_b   8.75996000
_cell_length_c   26.57000000
_cell_angle_alpha   90.00000000
_cell_angle_beta   90.00000000
_cell_angle_gamma   90.00000000
_symmetry_Int_Tables_number   25
_chemical_formula_structural   Al16Pt16CO
_chemical_formula_sum   'Al16 Pt16 C1 O1'
_cell_volume   1441.72027081
_cell_formula_units_Z   1
loop_
 _symmetry_equiv_pos_site_id
 _symmetry_equiv_pos_as_xyz
  1  'x, y, z'
  2  '-x, -y, z'
  3  '-x, y, z'
  4  'x, -y, z'
loop_
 _atom_site_type_symbol
 _atom_site_label
 _atom_site_symmetry_multiplicity
 _atom_site_fract_x
 _atom_site_fract_y
 _atom_site_fract_z
 _atom_site_occupancy
  Al  Al0  2  0.00000000  0.25000000  0.87636000  1.0
  Al  Al1  2  0.00000000  0.25079000  0.04231000  1.0
  Al  Al2  2  0.50000000  0.24972000  0.04169000  1.0
  Al  Al3  2  0.50000000  0.25000000  0.87636000  1.0
  Al  Al4  1  0.00000000  0.00000000  0.12661000  1.0
  Al  Al5  1  0.00000000  0.00000000  0.95879000  1.0
  Al  Al6  1  0.00000000  0.50000000  0.12476000  1.0
  Al  Al7  1  0.00000000  0.50000000  0.95879000  1.0
  Al  Al8  1  0.50000000  0.00000000  0.12470000  1.0
  Al  Al9  1  0.50000000  0.00000000  0.95879000  1.0
  Al  Al10  1  0.50000000  0.50000000  0.12485000  1.0
  Al  Al11  1  0.50000000  0.50000000  0.95879000  1.0
  Pt  Pt12  4  0.25000000  0.25000000  0.95879000  1.0
  Pt  Pt13  4  0.25116000  0.25168000  0.11886000  1.0
  Pt  Pt14  2  0.24909000  0.00000000  0.03850000  1.0
  Pt  Pt15  2  0.25000000  0.00000000  0.87636000  1.0
  Pt  Pt16  2  0.25000000  0.50000000  0.87636000  1.0
  Pt  Pt17  2  0.25019000  0.50000000  0.03738000  1.0
  C  C18  1  0.00000000  0.00000000  0.20385000  1.0
  O  O19  1  0.00000000  0.00000000  0.24692000  1.0
