# generated using pymatgen
data_Fe24Sn8CO
_symmetry_space_group_name_H-M   'P 1'
_cell_length_a   7.64708000
_cell_length_b   7.64708000
_cell_length_c   25.73530000
_cell_angle_alpha   90.00000000
_cell_angle_beta   90.00000000
_cell_angle_gamma   90.00000000
_symmetry_Int_Tables_number   1
_chemical_formula_structural   Fe24Sn8CO
_chemical_formula_sum   'Fe24 Sn8 C1 O1'
_cell_volume   1504.94456342
_cell_formula_units_Z   1
loop_
 _symmetry_equiv_pos_site_id
 _symmetry_equiv_pos_as_xyz
  1  'x, y, z'
loop_
 _atom_site_type_symbol
 _atom_site_label
 _atom_site_symmetry_multiplicity
 _atom_site_fract_x
 _atom_site_fract_y
 _atom_site_fract_z
 _atom_site_occupancy
  Fe  Fe0  1  0.75000000  0.00000000  0.03714000  1.0
  Fe  Fe1  1  0.00000000  0.75000000  0.03714000  1.0
  Fe  Fe2  1  0.00000000  0.00000000  0.11143000  1.0
  Fe  Fe3  1  0.75000000  0.00000000  0.88857000  1.0
  Fe  Fe4  1  0.00000000  0.75000000  0.88857000  1.0
  Fe  Fe5  1  0.00000000  0.00000000  0.96286000  1.0
  Fe  Fe6  1  0.75000000  0.50000000  0.03714000  1.0
  Fe  Fe7  1  0.00000000  0.25000000  0.03714000  1.0
  Fe  Fe8  1  0.00000000  0.50000000  0.11143000  1.0
  Fe  Fe9  1  0.75000000  0.50000000  0.88857000  1.0
  Fe  Fe10  1  0.00000000  0.25000000  0.88857000  1.0
  Fe  Fe11  1  0.00000000  0.50000000  0.96286000  1.0
  Fe  Fe12  1  0.25000000  0.00000000  0.03714000  1.0
  Fe  Fe13  1  0.50000000  0.75000000  0.03714000  1.0
  Fe  Fe14  1  0.50000000  0.00000000  0.11143000  1.0
  Fe  Fe15  1  0.25000000  0.00000000  0.88857000  1.0
  Fe  Fe16  1  0.50000000  0.75000000  0.88857000  1.0
  Fe  Fe17  1  0.50000000  0.00000000  0.96286000  1.0
  Fe  Fe18  1  0.25000000  0.50000000  0.03714000  1.0
  Fe  Fe19  1  0.50000000  0.25000000  0.03714000  1.0
  Fe  Fe20  1  0.50000000  0.50000000  0.11143000  1.0
  Fe  Fe21  1  0.25000000  0.50000000  0.88857000  1.0
  Fe  Fe22  1  0.50000000  0.25000000  0.88857000  1.0
  Fe  Fe23  1  0.50000000  0.50000000  0.96286000  1.0
  Sn  Sn24  1  0.75000000  0.75000000  0.11143000  1.0
  Sn  Sn25  1  0.75000000  0.75000000  0.96286000  1.0
  Sn  Sn26  1  0.75000000  0.25000000  0.11143000  1.0
  Sn  Sn27  1  0.75000000  0.25000000  0.96286000  1.0
  Sn  Sn28  1  0.25000000  0.75000000  0.11143000  1.0
  Sn  Sn29  1  0.25000000  0.75000000  0.96286000  1.0
  Sn  Sn30  1  0.25000000  0.25000000  0.11143000  1.0
  Sn  Sn31  1  0.25000000  0.25000000  0.96286000  1.0
  C  C32  1  0.00000000  0.00000000  0.18526000  1.0
  O  O33  1  0.00000000  0.00000000  0.22994000  1.0
