# generated using pymatgen
data_Cu8Ni16Sb8C
_symmetry_space_group_name_H-M   'P 1'
_cell_length_a   8.51164000
_cell_length_b   6.01864000
_cell_length_c   26.38370000
_cell_angle_alpha   90.00000000
_cell_angle_beta   90.00000000
_cell_angle_gamma   90.00000000
_symmetry_Int_Tables_number   1
_chemical_formula_structural   Cu8Ni16Sb8C
_chemical_formula_sum   'Cu8 Ni16 Sb8 C1'
_cell_volume   1351.59729550
_cell_formula_units_Z   1
loop_
 _symmetry_equiv_pos_site_id
 _symmetry_equiv_pos_as_xyz
  1  'x, y, z'
loop_
 _atom_site_type_symbol
 _atom_site_label
 _atom_site_symmetry_multiplicity
 _atom_site_fract_x
 _atom_site_fract_y
 _atom_site_fract_z
 _atom_site_occupancy
  Cu  Cu0  1  0.75000000  0.00000000  0.12098000  1.0
  Cu  Cu1  1  0.00000000  0.50000000  0.04033000  1.0
  Cu  Cu2  1  0.50000000  0.50000000  0.04033000  1.0
  Cu  Cu3  1  0.25000000  0.00000000  0.12098000  1.0
  Cu  Cu4  1  0.24709000  0.00663000  0.95968000  1.0
  Cu  Cu5  1  0.50000000  0.47709000  0.87868000  1.0
  Cu  Cu6  1  0.00000000  0.53551000  0.88359000  1.0
  Cu  Cu7  1  0.75291000  0.00663000  0.95968000  1.0
  Ni  Ni8  1  0.75000000  0.25000000  0.04033000  1.0
  Ni  Ni9  1  0.25000000  0.75000000  0.04033000  1.0
  Ni  Ni10  1  0.75000000  0.75000000  0.04033000  1.0
  Ni  Ni11  1  0.25000000  0.25000000  0.04033000  1.0
  Ni  Ni12  1  0.50000000  0.75000000  0.12098000  1.0
  Ni  Ni13  1  0.00000000  0.25000000  0.12098000  1.0
  Ni  Ni14  1  0.50000000  0.25000000  0.12098000  1.0
  Ni  Ni15  1  0.00000000  0.75000000  0.12098000  1.0
  Ni  Ni16  1  0.21209000  0.25356000  0.87708000  1.0
  Ni  Ni17  1  0.72827000  0.75741000  0.88491000  1.0
  Ni  Ni18  1  0.27173000  0.75741000  0.88491000  1.0
  Ni  Ni19  1  0.78791000  0.25356000  0.87708000  1.0
  Ni  Ni20  1  0.00000000  0.75037000  0.96509000  1.0
  Ni  Ni21  1  0.50000000  0.22846000  0.95663000  1.0
  Ni  Ni22  1  0.00000000  0.24667000  0.95862000  1.0
  Ni  Ni23  1  0.50000000  0.77038000  0.95291000  1.0
  Sb  Sb24  1  0.50000000  0.00000000  0.04033000  1.0
  Sb  Sb25  1  0.75000000  0.50000000  0.12098000  1.0
  Sb  Sb26  1  0.00000000  0.00000000  0.04033000  1.0
  Sb  Sb27  1  0.25000000  0.50000000  0.12098000  1.0
  Sb  Sb28  1  0.00000000  0.93751000  0.87454000  1.0
  Sb  Sb29  1  0.25558000  0.49557000  0.95971000  1.0
  Sb  Sb30  1  0.50000000  0.02812000  0.86518000  1.0
  Sb  Sb31  1  0.74442000  0.49557000  0.95971000  1.0
  C  C32  1  0.00000000  0.27053000  0.84911000  1.0
