# generated using pymatgen
data_LiInPdRh
_symmetry_space_group_name_H-M   'P 1'
_cell_length_a   6.29773000
_cell_length_b   6.29773000
_cell_length_c   24.72330000
_cell_angle_alpha   90.00000000
_cell_angle_beta   90.00000000
_cell_angle_gamma   90.00000000
_symmetry_Int_Tables_number   1
_chemical_formula_structural   LiInPdRh
_chemical_formula_sum   'Li4 In4 Pd4 Rh4'
_cell_volume   980.56076857
_cell_formula_units_Z   4
loop_
 _symmetry_equiv_pos_site_id
 _symmetry_equiv_pos_as_xyz
  1  'x, y, z'
loop_
 _atom_site_type_symbol
 _atom_site_label
 _atom_site_symmetry_multiplicity
 _atom_site_fract_x
 _atom_site_fract_y
 _atom_site_fract_z
 _atom_site_occupancy
  Li  Li0  1  0.50000000  1.00000000  0.90448000  1
  Li  Li1  1  0.00000000  0.00000000  0.03799000  1
  Li  Li2  1  0.50000000  0.50000000  0.03713000  1
  Li  Li3  1  0.00000000  0.50000000  0.90448000  1
  In  In4  1  0.00000000  0.00000000  0.90448000  1
  In  In5  1  0.50000000  1.00000000  0.03405000  1
  In  In6  1  0.00000000  0.50000000  0.03405000  1
  In  In7  1  0.50000000  0.50000000  0.90448000  1
  Pd  Pd8  1  0.75000000  0.75000000  0.96816000  1
  Pd  Pd9  1  0.24994000  0.75006000  0.09617000  1
  Pd  Pd10  1  0.75006000  0.24994000  0.09617000  1
  Pd  Pd11  1  0.25000000  0.25000000  0.96816000  1
  Rh  Rh12  1  0.75000000  0.25000000  0.96816000  1
  Rh  Rh13  1  0.25019000  0.25019000  0.09431000  1
  Rh  Rh14  1  0.74981000  0.74981000  0.09431000  1
  Rh  Rh15  1  0.25000000  0.75000000  0.96816000  1
