# generated using pymatgen
data_Li4V4Ge4Pd4CO
_symmetry_space_group_name_H-M   P1
_cell_length_a   5.17268000
_cell_length_b   9.40562000
_cell_length_c   23.56350000
_cell_angle_alpha   90.00000000
_cell_angle_beta   90.00000000
_cell_angle_gamma   90.00000000
_symmetry_Int_Tables_number   1
_chemical_formula_structural   Li4V4Ge4Pd4CO
_chemical_formula_sum   'Li4 V4 Ge4 Pd4 C1 O1'
_cell_volume   1146.41758651
_cell_formula_units_Z   1
loop_
 _symmetry_equiv_pos_site_id
 _symmetry_equiv_pos_as_xyz
  1  'x, y, z'
loop_
 _atom_site_type_symbol
 _atom_site_label
 _atom_site_symmetry_multiplicity
 _atom_site_fract_x
 _atom_site_fract_y
 _atom_site_fract_z
 _atom_site_occupancy
  Li  Li0  1  0.45349000  0.25000000  0.92439000  1.0
  Li  Li1  1  0.45349000  0.75000000  0.92439000  1.0
  Li  Li2  1  0.92887000  0.25499000  0.03184000  1.0
  Li  Li3  1  0.97894000  0.75824000  0.03707000  1.0
  V  V4  1  0.63627000  0.00332000  0.06237000  1.0
  V  V5  1  0.64218000  0.49657000  0.05983000  1.0
  V  V6  1  0.80233000  0.00000000  0.97480000  1.0
  V  V7  1  0.80233000  0.50000000  0.97480000  1.0
  Ge  Ge8  1  0.12891000  0.02799000  0.07536000  1.0
  Ge  Ge9  1  0.13830000  0.49065000  0.07539000  1.0
  Ge  Ge10  1  0.30233000  0.00000000  0.97480000  1.0
  Ge  Ge11  1  0.30233000  0.50000000  0.97480000  1.0
  Pd  Pd12  1  0.42700000  0.25419000  0.03432000  1.0
  Pd  Pd13  1  0.47340000  0.74298000  0.02876000  1.0
  Pd  Pd14  1  0.95349000  0.25000000  0.92439000  1.0
  Pd  Pd15  1  0.95349000  0.75000000  0.92439000  1.0
  C  C16  1  0.65089000  0.83205000  0.11301000  1.0
  O  O17  1  0.66822000  0.75716000  0.15296000  1.0
