# generated using pymatgen
data_Li4Al4In4Cu4C
_symmetry_space_group_name_H-M   'P 1'
_cell_length_a   6.37467000
_cell_length_b   6.37467000
_cell_length_c   24.78100000
_cell_angle_alpha   90.00000000
_cell_angle_beta   90.00000000
_cell_angle_gamma   90.00000000
_symmetry_Int_Tables_number   1
_chemical_formula_structural   Li4Al4In4Cu4C
_chemical_formula_sum   'Li4 Al4 In4 Cu4 C1'
_cell_volume   1007.01106477
_cell_formula_units_Z   1
loop_
 _symmetry_equiv_pos_site_id
 _symmetry_equiv_pos_as_xyz
  1  'x, y, z'
loop_
 _atom_site_type_symbol
 _atom_site_label
 _atom_site_symmetry_multiplicity
 _atom_site_fract_x
 _atom_site_fract_y
 _atom_site_fract_z
 _atom_site_occupancy
  Li  Li0  1  0.75000000  0.25000000  0.96784000  1
  Li  Li1  1  0.25000000  0.25000000  0.09647000  1
  Li  Li2  1  0.75000000  0.75000000  0.09647000  1
  Li  Li3  1  0.25000000  0.75000000  0.96784000  1
  Al  Al4  1  0.00000000  0.50000000  0.90353000  1
  Al  Al5  1  0.50000000  0.50000000  0.03216000  1
  Al  Al6  1  0.00000000  0.00000000  0.03216000  1
  Al  Al7  1  0.50000000  1.00000000  0.90353000  1
  In  In8  1  0.50000000  0.50000000  0.90353000  1
  In  In9  1  0.00000000  0.50000000  0.03216000  1
  In  In10  1  0.50000000  1.00000000  0.03216000  1
  In  In11  1  0.00000000  0.00000000  0.90353000  1
  Cu  Cu12  1  0.75000000  0.75000000  0.96784000  1
  Cu  Cu13  1  0.25000000  0.75000000  0.09647000  1
  Cu  Cu14  1  0.75000000  0.25000000  0.09647000  1
  Cu  Cu15  1  0.25000000  0.25000000  0.96784000  1
  C  C16  1  0.50000000  0.50000000  0.12875000  1
