# generated using pymatgen
data_Y8In8Pd8Pt8C
_symmetry_space_group_name_H-M   'P 1'
_cell_length_a   9.65478000
_cell_length_b   6.82696000
_cell_length_c   27.24110000
_cell_angle_alpha   90.00000000
_cell_angle_beta   90.00000000
_cell_angle_gamma   90.00000000
_symmetry_Int_Tables_number   1
_chemical_formula_structural   Y8In8Pd8Pt8C
_chemical_formula_sum   'Y8 In8 Pd8 Pt8 C1'
_cell_volume   1795.53709078
_cell_formula_units_Z   1
loop_
 _symmetry_equiv_pos_site_id
 _symmetry_equiv_pos_as_xyz
  1  'x, y, z'
loop_
 _atom_site_type_symbol
 _atom_site_label
 _atom_site_symmetry_multiplicity
 _atom_site_fract_x
 _atom_site_fract_y
 _atom_site_fract_z
 _atom_site_occupancy
  Y  Y0  1  0.00000000  1.00000000  0.04430000  1.0
  Y  Y1  1  0.50000000  0.00000000  0.04430000  1.0
  Y  Y2  1  0.24999000  0.50000000  0.13291000  1.0
  Y  Y3  1  0.75001000  0.50000000  0.13291000  1.0
  Y  Y4  1  0.50000000  0.01059000  0.86440000  1.0
  Y  Y5  1  0.00000000  0.96440000  0.86364000  1.0
  Y  Y6  1  0.74552000  0.49673000  0.95563000  1.0
  Y  Y7  1  0.25448000  0.49673000  0.95563000  1.0
  In  In8  1  0.74999000  0.00000000  0.13291000  1.0
  In  In9  1  0.25001000  0.00000000  0.13291000  1.0
  In  In10  1  0.50000000  0.50000000  0.04430000  1.0
  In  In11  1  0.00000000  0.50000000  0.04430000  1.0
  In  In12  1  0.24759000  0.00131000  0.95239000  1.0
  In  In13  1  0.75241000  0.00131000  0.95239000  1.0
  In  In14  1  0.00000000  0.54028000  0.86761000  1.0
  In  In15  1  0.50000000  0.48286000  0.86437000  1.0
  Pd  Pd16  1  0.74999000  0.75000000  0.04430000  1.0
  Pd  Pd17  1  0.25001000  0.75000000  0.04430000  1.0
  Pd  Pd18  1  0.00000000  0.25000000  0.13291000  1.0
  Pd  Pd19  1  0.50000000  0.25000000  0.13291000  1.0
  Pd  Pd20  1  0.26554000  0.73454000  0.87035000  1.0
  Pd  Pd21  1  0.73446000  0.73454000  0.87035000  1.0
  Pd  Pd22  1  0.50000000  0.23367000  0.95398000  1.0
  Pd  Pd23  1  0.00000000  0.24515000  0.95231000  1.0
  Pt  Pt24  1  0.74999000  0.25000000  0.04430000  1.0
  Pt  Pt25  1  0.25001000  0.25000000  0.04430000  1.0
  Pt  Pt26  1  0.00000000  0.75000000  0.13291000  1.0
  Pt  Pt27  1  0.50000000  0.75000000  0.13291000  1.0
  Pt  Pt28  1  0.22839000  0.26126000  0.86861000  1.0
  Pt  Pt29  1  0.77161000  0.26126000  0.86861000  1.0
  Pt  Pt30  1  0.50000000  0.76203000  0.95118000  1.0
  Pt  Pt31  1  0.00000000  0.74824000  0.95937000  1.0
  C  C32  1  0.00000000  0.26415000  0.83506000  1.0
