data_image0
_chemical_formula_structural       Li8Cu8Ag8Ge8CO
_chemical_formula_sum              "Li8 Cu8 Ag8 Ge8 C1 O1"
_cell_length_a       6.23049
_cell_length_b       8.81124
_cell_length_c       26.6084
_cell_angle_alpha    90
_cell_angle_beta     90
_cell_angle_gamma    90

_space_group_name_H-M_alt    "P 1"
_space_group_IT_number       1

loop_
  _space_group_symop_operation_xyz
  'x, y, z'

loop_
  _atom_site_type_symbol
  _atom_site_label
  _atom_site_symmetry_multiplicity
  _atom_site_fract_x
  _atom_site_fract_y
  _atom_site_fract_z
  _atom_site_occupancy
  Li  Li1       1.0  0.25000  0.00000  0.95861  1.0000
  Li  Li2       1.0  0.25000  0.50000  0.95861  1.0000
  Li  Li3       1.0  0.75000  0.25000  0.87582  1.0000
  Li  Li4       1.0  0.75000  0.75000  0.87582  1.0000
  Li  Li5       1.0  0.23171  0.49978  0.13202  1.0000
  Li  Li6       1.0  0.23171  0.00022  0.13202  1.0000
  Li  Li7       1.0  0.74206  0.75000  0.03937  1.0000
  Li  Li8       1.0  0.73259  0.25000  0.03924  1.0000
  Cu  Cu1       1.0  0.00000  0.25000  0.95861  1.0000
  Cu  Cu2       1.0  0.00000  0.75000  0.95861  1.0000
  Cu  Cu3       1.0  0.50000  0.50000  0.87582  1.0000
  Cu  Cu4       1.0  0.50000  0.00000  0.87582  1.0000
  Cu  Cu5       1.0  0.98492  0.75000  0.11722  1.0000
  Cu  Cu6       1.0  0.96901  0.25000  0.11497  1.0000
  Cu  Cu7       1.0  0.50449  0.00069  0.05241  1.0000
  Cu  Cu8       1.0  0.50449  0.49932  0.05241  1.0000
  Ag  Ag1       1.0  0.00000  0.00000  0.87582  1.0000
  Ag  Ag2       1.0  0.00000  0.50000  0.87582  1.0000
  Ag  Ag3       1.0  0.50000  0.75000  0.95861  1.0000
  Ag  Ag4       1.0  0.50000  0.25000  0.95861  1.0000
  Ag  Ag5       1.0  0.99538  0.49739  0.04315  1.0000
  Ag  Ag6       1.0  0.99539  0.00261  0.04315  1.0000
  Ag  Ag7       1.0  0.52069  0.25000  0.13315  1.0000
  Ag  Ag8       1.0  0.50955  0.75000  0.12692  1.0000
  Ge  Ge1       1.0  0.75000  0.00000  0.95861  1.0000
  Ge  Ge2       1.0  0.75000  0.50000  0.95861  1.0000
  Ge  Ge3       1.0  0.25000  0.25000  0.87582  1.0000
  Ge  Ge4       1.0  0.25000  0.75000  0.87582  1.0000
  Ge  Ge5       1.0  0.77317  0.50421  0.13098  1.0000
  Ge  Ge6       1.0  0.77317  0.99579  0.13098  1.0000
  Ge  Ge7       1.0  0.25431  0.75000  0.04432  1.0000
  Ge  Ge8       1.0  0.26411  0.25000  0.04817  1.0000
  C   C1        1.0  0.44638  0.25000  0.21831  1.0000
  O   O1        1.0  0.51560  0.24999  0.25808  1.0000
