# generated using pymatgen
data_Li8Cu8Ag8Ge8CO
_symmetry_space_group_name_H-M   'P 1'
_cell_length_a   8.81124000
_cell_length_b   6.23049000
_cell_length_c   26.60840000
_cell_angle_alpha   90.00000000
_cell_angle_beta   90.00000000
_cell_angle_gamma   90.00000000
_symmetry_Int_Tables_number   1
_chemical_formula_structural   Li8Cu8Ag8Ge8CO
_chemical_formula_sum   'Li8 Cu8 Ag8 Ge8 C1 O1'
_cell_volume   1460.75706210
_cell_formula_units_Z   1
loop_
 _symmetry_equiv_pos_site_id
 _symmetry_equiv_pos_as_xyz
  1  'x, y, z'
loop_
 _atom_site_type_symbol
 _atom_site_label
 _atom_site_symmetry_multiplicity
 _atom_site_fract_x
 _atom_site_fract_y
 _atom_site_fract_z
 _atom_site_occupancy
  Li  Li0  1  0.75000000  0.25000000  0.04139000  1.0
  Li  Li1  1  0.25000000  0.25000000  0.04139000  1.0
  Li  Li2  1  0.00000000  0.75000000  0.12418000  1.0
  Li  Li3  1  0.50000000  0.75000000  0.12418000  1.0
  Li  Li4  1  0.24978000  0.23171000  0.86798000  1.0
  Li  Li5  1  0.75022000  0.23171000  0.86798000  1.0
  Li  Li6  1  0.50000000  0.74206000  0.96063000  1.0
  Li  Li7  1  0.00000000  0.73259000  0.96076000  1.0
  Cu  Cu8  1  0.00000000  0.00000000  0.04139000  1.0
  Cu  Cu9  1  0.50000000  0.00000000  0.04139000  1.0
  Cu  Cu10  1  0.25000000  0.50000000  0.12418000  1.0
  Cu  Cu11  1  0.75000000  0.50000000  0.12418000  1.0
  Cu  Cu12  1  0.50000000  0.98492000  0.88278000  1.0
  Cu  Cu13  1  0.00000000  0.96901000  0.88503000  1.0
  Cu  Cu14  1  0.75069000  0.50449000  0.94759000  1.0
  Cu  Cu15  1  0.24931000  0.50449000  0.94759000  1.0
  Ag  Ag16  1  0.75000000  0.00000000  0.12418000  1.0
  Ag  Ag17  1  0.25000000  0.00000000  0.12418000  1.0
  Ag  Ag18  1  0.50000000  0.50000000  0.04139000  1.0
  Ag  Ag19  1  0.00000000  0.50000000  0.04139000  1.0
  Ag  Ag20  1  0.24739000  0.99538000  0.95685000  1.0
  Ag  Ag21  1  0.75261000  0.99538000  0.95685000  1.0
  Ag  Ag22  1  0.00000000  0.52069000  0.86685000  1.0
  Ag  Ag23  1  0.50000000  0.50955000  0.87308000  1.0
  Ge  Ge24  1  0.75000000  0.75000000  0.04139000  1.0
  Ge  Ge25  1  0.25000000  0.75000000  0.04139000  1.0
  Ge  Ge26  1  0.00000000  0.25000000  0.12418000  1.0
  Ge  Ge27  1  0.50000000  0.25000000  0.12418000  1.0
  Ge  Ge28  1  0.25421000  0.77317000  0.86902000  1.0
  Ge  Ge29  1  0.74579000  0.77317000  0.86902000  1.0
  Ge  Ge30  1  0.50000000  0.25431000  0.95568000  1.0
  Ge  Ge31  1  0.00000000  0.26411000  0.95183000  1.0
  C  C32  1  0.00000000  0.44638000  0.78169000  1.0
  O  O33  1  0.00000000  0.51560000  0.74192000  1.0
