# generated using pymatgen
data_Li16In8Ir8CO
_symmetry_space_group_name_H-M   P1
_cell_length_a   6.17944000
_cell_length_b   8.73904000
_cell_length_c   26.55430000
_cell_angle_alpha   90.00000000
_cell_angle_beta   90.00000000
_cell_angle_gamma   90.00000000
_symmetry_Int_Tables_number   1
_chemical_formula_structural   Li16In8Ir8CO
_chemical_formula_sum   'Li16 In8 Ir8 C1 O1'
_cell_volume   1433.99522232
_cell_formula_units_Z   1
loop_
 _symmetry_equiv_pos_site_id
 _symmetry_equiv_pos_as_xyz
  1  'x, y, z'
loop_
 _atom_site_type_symbol
 _atom_site_label
 _atom_site_symmetry_multiplicity
 _atom_site_fract_x
 _atom_site_fract_y
 _atom_site_fract_z
 _atom_site_occupancy
  Li  Li0  1  0.22790000  0.49959000  0.13942000  1.0
  Li  Li1  1  0.22803000  0.00038000  0.13948000  1.0
  Li  Li2  1  0.24426000  0.25006000  0.03708000  1.0
  Li  Li3  1  0.24698000  0.75008000  0.03814000  1.0
  Li  Li4  1  0.25000000  0.00000000  0.95886000  1.0
  Li  Li5  1  0.25000000  0.25000000  0.87659000  1.0
  Li  Li6  1  0.25000000  0.50000000  0.95886000  1.0
  Li  Li7  1  0.25000000  0.75000000  0.87659000  1.0
  Li  Li8  1  0.75000000  0.00000000  0.95886000  1.0
  Li  Li9  1  0.75000000  0.25000000  0.87659000  1.0
  Li  Li10  1  0.75000000  0.50000000  0.95886000  1.0
  Li  Li11  1  0.75000000  0.75000000  0.87659000  1.0
  Li  Li12  1  0.75304000  0.75010000  0.03814000  1.0
  Li  Li13  1  0.75574000  0.25004000  0.03709000  1.0
  Li  Li14  1  0.77199000  0.00041000  0.13947000  1.0
  Li  Li15  1  0.77205000  0.49958000  0.13941000  1.0
  In  In16  1  0.00000000  0.00000000  0.87659000  1.0
  In  In17  1  0.00000000  0.50000000  0.87659000  1.0
  In  In18  1  0.00007000  0.99895000  0.04668000  1.0
  In  In19  1  0.49993000  0.24997000  0.11665000  1.0
  In  In20  1  0.50000000  0.25000000  0.95886000  1.0
  In  In21  1  0.50000000  0.75000000  0.95886000  1.0
  In  In22  1  0.50004000  0.75001000  0.11807000  1.0
  In  In23  1  0.99997000  0.50116000  0.04653000  1.0
  Ir  Ir24  1  0.00000000  0.25000000  0.95886000  1.0
  Ir  Ir25  1  0.00000000  0.75000000  0.95886000  1.0
  Ir  Ir26  1  0.00004000  0.25013000  0.11628000  1.0
  Ir  Ir27  1  0.50000000  0.00000000  0.87659000  1.0
  Ir  Ir28  1  0.50000000  0.00109000  0.04817000  1.0
  Ir  Ir29  1  0.50000000  0.50000000  0.87659000  1.0
  Ir  Ir30  1  0.50001000  0.49897000  0.04820000  1.0
  Ir  Ir31  1  0.99999000  0.74988000  0.11713000  1.0
  C  C32  1  0.49997000  0.25017000  0.26539000  1.0
  O  O33  1  0.49999000  0.24977000  0.30815000  1.0
