# generated using pymatgen
data_K3Pd
_symmetry_space_group_name_H-M   'P 1'
_cell_length_a   5.53790000
_cell_length_b   5.53790000
_cell_length_c   28.30690000
_cell_angle_alpha   90.00000000
_cell_angle_beta   90.00000000
_cell_angle_gamma   90.00000000
_symmetry_Int_Tables_number   1
_chemical_formula_structural   K3Pd
_chemical_formula_sum   'K6 Pd2'
_cell_volume   868.12553192
_cell_formula_units_Z   2
loop_
 _symmetry_equiv_pos_site_id
 _symmetry_equiv_pos_as_xyz
  1  'x, y, z'
loop_
 _atom_site_type_symbol
 _atom_site_label
 _atom_site_symmetry_multiplicity
 _atom_site_fract_x
 _atom_site_fract_y
 _atom_site_fract_z
 _atom_site_occupancy
  K  K0  1  0.50000000  0.00000000  0.95109000  1.0
  K  K1  1  0.00000000  0.50000000  0.95109000  1.0
  K  K2  1  0.50000000  0.50000000  0.85327000  1.0
  K  K3  1  0.50000000  0.00000000  0.14673000  1.0
  K  K4  1  0.00000000  0.50000000  0.14673000  1.0
  K  K5  1  0.50000000  0.50000000  0.04891000  1.0
  Pd  Pd6  1  0.00000000  0.00000000  0.85327000  1.0
  Pd  Pd7  1  0.00000000  0.00000000  0.04891000  1.0
