data_image0
_chemical_formula_structural       Li8V8Ge8Pd8CO
_chemical_formula_sum              "Li8 V8 Ge8 Pd8 C1 O1"
_cell_length_a       9.40562
_cell_length_b       5.68832
_cell_length_c       26.4809
_cell_angle_alpha    90
_cell_angle_beta     90
_cell_angle_gamma    90

_space_group_name_H-M_alt    "P 1"
_space_group_IT_number       1

loop_
  _space_group_symop_operation_xyz
  'x, y, z'

loop_
  _atom_site_type_symbol
  _atom_site_label
  _atom_site_symmetry_multiplicity
  _atom_site_fract_x
  _atom_site_fract_y
  _atom_site_fract_z
  _atom_site_occupancy
  Li  Li1       1.0  0.26749  0.24919  0.14193  1.0000
  Li  Li2       1.0  0.25000  0.25000  0.95921  1.0000
  Li  Li3       1.0  0.26742  0.74871  0.14208  1.0000
  Li  Li4       1.0  0.25000  0.75000  0.95921  1.0000
  Li  Li5       1.0  0.77012  0.24566  0.14551  1.0000
  Li  Li6       1.0  0.75000  0.25000  0.95921  1.0000
  Li  Li7       1.0  0.76763  0.74986  0.14193  1.0000
  Li  Li8       1.0  0.75000  0.75000  0.95921  1.0000
  V   V1        1.0  0.00291  0.24983  0.03913  1.0000
  V   V2        1.0  0.00000  0.25000  0.87763  1.0000
  V   V3        1.0  0.00461  0.74780  0.03912  1.0000
  V   V4        1.0  0.00000  0.75000  0.87763  1.0000
  V   V5        1.0  0.50894  0.24946  0.03910  1.0000
  V   V6        1.0  0.50000  0.25000  0.87763  1.0000
  V   V7        1.0  0.50783  0.74855  0.03923  1.0000
  V   V8        1.0  0.50000  0.75000  0.87763  1.0000
  Ge  Ge1       1.0  0.02460  0.99587  0.11969  1.0000
  Ge  Ge2       1.0  0.00000  0.00000  0.95921  1.0000
  Ge  Ge3       1.0  0.02027  0.49808  0.12090  1.0000
  Ge  Ge4       1.0  0.00000  0.50000  0.95921  1.0000
  Ge  Ge5       1.0  0.51152  0.99828  0.12070  1.0000
  Ge  Ge6       1.0  0.50000  0.00000  0.95921  1.0000
  Ge  Ge7       1.0  0.51319  0.49700  0.12125  1.0000
  Ge  Ge8       1.0  0.50000  0.50000  0.95921  1.0000
  Pd  Pd1       1.0  0.25840  0.99863  0.05727  1.0000
  Pd  Pd2       1.0  0.25000  0.00000  0.87763  1.0000
  Pd  Pd3       1.0  0.25942  0.49901  0.05774  1.0000
  Pd  Pd4       1.0  0.25000  0.50000  0.87763  1.0000
  Pd  Pd5       1.0  0.75725  0.99847  0.05996  1.0000
  Pd  Pd6       1.0  0.75000  0.00000  0.87763  1.0000
  Pd  Pd7       1.0  0.75715  0.49718  0.06047  1.0000
  Pd  Pd8       1.0  0.75000  0.50000  0.87763  1.0000
  C   C1        1.0  0.82236  0.09436  0.21600  1.0000
  O   O1        1.0  0.85358  0.00532  0.25317  1.0000
