# generated using pymatgen
data_Li8V8Ge8Pd8CO
_symmetry_space_group_name_H-M   'P 1'
_cell_length_a   5.68832000
_cell_length_b   9.40562000
_cell_length_c   26.48090000
_cell_angle_alpha   90.00000000
_cell_angle_beta   90.00000000
_cell_angle_gamma   90.00000000
_symmetry_Int_Tables_number   1
_chemical_formula_structural   Li8V8Ge8Pd8CO
_chemical_formula_sum   'Li8 V8 Ge8 Pd8 C1 O1'
_cell_volume   1416.78578193
_cell_formula_units_Z   1
loop_
 _symmetry_equiv_pos_site_id
 _symmetry_equiv_pos_as_xyz
  1  'x, y, z'
loop_
 _atom_site_type_symbol
 _atom_site_label
 _atom_site_symmetry_multiplicity
 _atom_site_fract_x
 _atom_site_fract_y
 _atom_site_fract_z
 _atom_site_occupancy
  Li  Li0  1  0.75081000  0.73251000  0.85807000  1.0
  Li  Li1  1  0.75000000  0.75000000  0.04079000  1.0
  Li  Li2  1  0.25129000  0.73258000  0.85792000  1.0
  Li  Li3  1  0.25000000  0.75000000  0.04079000  1.0
  Li  Li4  1  0.75434000  0.22988000  0.85449000  1.0
  Li  Li5  1  0.75000000  0.25000000  0.04079000  1.0
  Li  Li6  1  0.25014000  0.23237000  0.85807000  1.0
  Li  Li7  1  0.25000000  0.25000000  0.04079000  1.0
  V  V8  1  0.75017000  0.99709000  0.96087000  1.0
  V  V9  1  0.75000000  1.00000000  0.12237000  1.0
  V  V10  1  0.25220000  0.99539000  0.96088000  1.0
  V  V11  1  0.25000000  1.00000000  0.12237000  1.0
  V  V12  1  0.75054000  0.49106000  0.96090000  1.0
  V  V13  1  0.75000000  0.50000000  0.12237000  1.0
  V  V14  1  0.25145000  0.49217000  0.96077000  1.0
  V  V15  1  0.25000000  0.50000000  0.12237000  1.0
  Ge  Ge16  1  0.00413000  0.97540000  0.88031000  1.0
  Ge  Ge17  1  0.00000000  0.00000000  0.04079000  1.0
  Ge  Ge18  1  0.50192000  0.97973000  0.87910000  1.0
  Ge  Ge19  1  0.50000000  1.00000000  0.04079000  1.0
  Ge  Ge20  1  0.00172000  0.48848000  0.87930000  1.0
  Ge  Ge21  1  0.00000000  0.50000000  0.04079000  1.0
  Ge  Ge22  1  0.50300000  0.48681000  0.87875000  1.0
  Ge  Ge23  1  0.50000000  0.50000000  0.04079000  1.0
  Pd  Pd24  1  0.00137000  0.74160000  0.94273000  1.0
  Pd  Pd25  1  0.00000000  0.75000000  0.12237000  1.0
  Pd  Pd26  1  0.50099000  0.74058000  0.94226000  1.0
  Pd  Pd27  1  0.50000000  0.75000000  0.12237000  1.0
  Pd  Pd28  1  0.00153000  0.24275000  0.94004000  1.0
  Pd  Pd29  1  0.00000000  0.25000000  0.12237000  1.0
  Pd  Pd30  1  0.50282000  0.24285000  0.93953000  1.0
  Pd  Pd31  1  0.50000000  0.25000000  0.12237000  1.0
  C  C32  1  0.90564000  0.17764000  0.78400000  1.0
  O  O33  1  0.99468000  0.14642000  0.74683000  1.0
