# generated using pymatgen
data_Y8In8Pd8Au8CO
_symmetry_space_group_name_H-M   'P 1'
_cell_length_a   6.93157000
_cell_length_b   9.80272000
_cell_length_c   27.35200000
_cell_angle_alpha   90.00000000
_cell_angle_beta   90.00000000
_cell_angle_gamma   90.00000000
_symmetry_Int_Tables_number   1
_chemical_formula_structural   Y8In8Pd8Au8CO
_chemical_formula_sum   'Y8 In8 Pd8 Au8 C1 O1'
_cell_volume   1858.52025694
_cell_formula_units_Z   1
loop_
 _symmetry_equiv_pos_site_id
 _symmetry_equiv_pos_as_xyz
  1  'x, y, z'
loop_
 _atom_site_type_symbol
 _atom_site_label
 _atom_site_symmetry_multiplicity
 _atom_site_fract_x
 _atom_site_fract_y
 _atom_site_fract_z
 _atom_site_occupancy
  Y  Y0  1  0.25000000  0.00000000  0.95520000  1.0
  Y  Y1  1  0.25000000  0.50000000  0.95520000  1.0
  Y  Y2  1  0.75000000  0.75000000  0.86560000  1.0
  Y  Y3  1  0.75000000  0.25000000  0.86560000  1.0
  Y  Y4  1  0.27534000  0.51242000  0.13190000  1.0
  Y  Y5  1  0.27536000  0.98728000  0.13201000  1.0
  Y  Y6  1  0.75296000  0.24990000  0.04781000  1.0
  Y  Y7  1  0.74340000  0.74996000  0.04866000  1.0
  In  In8  1  0.75000000  0.00000000  0.95520000  1.0
  In  In9  1  0.75000000  0.50000000  0.95520000  1.0
  In  In10  1  0.25000000  0.75000000  0.86560000  1.0
  In  In11  1  0.25000000  0.25000000  0.86560000  1.0
  In  In12  1  0.77756000  0.48835000  0.14047000  1.0
  In  In13  1  0.77756000  0.01146000  0.14046000  1.0
  In  In14  1  0.25539000  0.24994000  0.04402000  1.0
  In  In15  1  0.25218000  0.74995000  0.04404000  1.0
  Pd  Pd16  1  0.00000000  0.75000000  0.95520000  1.0
  Pd  Pd17  1  0.00000000  0.25000000  0.95520000  1.0
  Pd  Pd18  1  0.50000000  0.50000000  0.86560000  1.0
  Pd  Pd19  1  0.50000000  0.00000000  0.86560000  1.0
  Pd  Pd20  1  0.03060000  0.24989000  0.12866000  1.0
  Pd  Pd21  1  0.00250000  0.74990000  0.12887000  1.0
  Pd  Pd22  1  0.50405000  0.00112000  0.04428000  1.0
  Pd  Pd23  1  0.50421000  0.49870000  0.04423000  1.0
  Au  Au24  1  0.00000000  0.00000000  0.86560000  1.0
  Au  Au25  1  0.00000000  0.50000000  0.86560000  1.0
  Au  Au26  1  0.50000000  0.25000000  0.95520000  1.0
  Au  Au27  1  0.50000000  0.75000000  0.95520000  1.0
  Au  Au28  1  0.00049000  0.50242000  0.04626000  1.0
  Au  Au29  1  0.00066000  0.99742000  0.04630000  1.0
  Au  Au30  1  0.55863000  0.74985000  0.14727000  1.0
  Au  Au31  1  0.50178000  0.24989000  0.13931000  1.0
  C  C32  1  0.42137000  0.75301000  0.25474000  1.0
  O  O33  1  0.54166000  0.74938000  0.28308000  1.0
