# generated using pymatgen
data_Y8In8Pd8Au8CO
_symmetry_space_group_name_H-M   P1
_cell_length_a   6.93157000
_cell_length_b   9.80272000
_cell_length_c   27.35200000
_cell_angle_alpha   90.00000000
_cell_angle_beta   90.00000000
_cell_angle_gamma   90.00000000
_symmetry_Int_Tables_number   1
_chemical_formula_structural   Y8In8Pd8Au8CO
_chemical_formula_sum   'Y8 In8 Pd8 Au8 C1 O1'
_cell_volume   1858.52025694
_cell_formula_units_Z   1
loop_
 _symmetry_equiv_pos_site_id
 _symmetry_equiv_pos_as_xyz
  1  'x, y, z'
loop_
 _atom_site_type_symbol
 _atom_site_label
 _atom_site_symmetry_multiplicity
 _atom_site_fract_x
 _atom_site_fract_y
 _atom_site_fract_z
 _atom_site_occupancy
  Y  Y0  1  0.24704000  0.75010000  0.04781000  1.0
  Y  Y1  1  0.25000000  0.25000000  0.86560000  1.0
  Y  Y2  1  0.25000000  0.75000000  0.86560000  1.0
  Y  Y3  1  0.25660000  0.25004000  0.04866000  1.0
  Y  Y4  1  0.72464000  0.01272000  0.13201000  1.0
  Y  Y5  1  0.72466000  0.48758000  0.13190000  1.0
  Y  Y6  1  0.75000000  0.00000000  0.95520000  1.0
  Y  Y7  1  0.75000000  0.50000000  0.95520000  1.0
  In  In8  1  0.22244000  0.51165000  0.14047000  1.0
  In  In9  1  0.22244000  0.98854000  0.14046000  1.0
  In  In10  1  0.25000000  0.00000000  0.95520000  1.0
  In  In11  1  0.25000000  0.50000000  0.95520000  1.0
  In  In12  1  0.74461000  0.75006000  0.04402000  1.0
  In  In13  1  0.74782000  0.25005000  0.04404000  1.0
  In  In14  1  0.75000000  0.25000000  0.86560000  1.0
  In  In15  1  0.75000000  0.75000000  0.86560000  1.0
  Pd  Pd16  1  0.00000000  0.25000000  0.95520000  1.0
  Pd  Pd17  1  0.00000000  0.75000000  0.95520000  1.0
  Pd  Pd18  1  0.49579000  0.50130000  0.04423000  1.0
  Pd  Pd19  1  0.49595000  0.99888000  0.04428000  1.0
  Pd  Pd20  1  0.50000000  0.00000000  0.86560000  1.0
  Pd  Pd21  1  0.50000000  0.50000000  0.86560000  1.0
  Pd  Pd22  1  0.96940000  0.75011000  0.12866000  1.0
  Pd  Pd23  1  0.99750000  0.25010000  0.12887000  1.0
  Au  Au24  1  0.00000000  0.00000000  0.86560000  1.0
  Au  Au25  1  0.00000000  0.50000000  0.86560000  1.0
  Au  Au26  1  0.44137000  0.25015000  0.14727000  1.0
  Au  Au27  1  0.49822000  0.75011000  0.13931000  1.0
  Au  Au28  1  0.50000000  0.25000000  0.95520000  1.0
  Au  Au29  1  0.50000000  0.75000000  0.95520000  1.0
  Au  Au30  1  0.99934000  0.00258000  0.04630000  1.0
  Au  Au31  1  0.99951000  0.49758000  0.04626000  1.0
  C  C32  1  0.57863000  0.24699000  0.25474000  1.0
  O  O33  1  0.45834000  0.25062000  0.28308000  1.0
