# generated using pymatgen
data_Li8Mg8Pd8Pb8C
_symmetry_space_group_name_H-M   'P 1'
_cell_length_a   9.45090000
_cell_length_b   6.68280000
_cell_length_c   27.08820000
_cell_angle_alpha   90.00000000
_cell_angle_beta   90.00000000
_cell_angle_gamma   90.00000000
_symmetry_Int_Tables_number   1
_chemical_formula_structural   Li8Mg8Pd8Pb8C
_chemical_formula_sum   'Li8 Mg8 Pd8 Pb8 C1'
_cell_volume   1710.84938949
_cell_formula_units_Z   1
loop_
 _symmetry_equiv_pos_site_id
 _symmetry_equiv_pos_as_xyz
  1  'x, y, z'
loop_
 _atom_site_type_symbol
 _atom_site_label
 _atom_site_symmetry_multiplicity
 _atom_site_fract_x
 _atom_site_fract_y
 _atom_site_fract_z
 _atom_site_occupancy
  Li  Li0  1  0.75000000  0.00000000  0.13084000  1.0
  Li  Li1  1  0.25000000  0.00000000  0.13084000  1.0
  Li  Li2  1  0.50000000  0.50000000  0.04361000  1.0
  Li  Li3  1  0.00000000  0.50000000  0.04361000  1.0
  Li  Li4  1  0.24509000  0.02575000  0.94904000  1.0
  Li  Li5  1  0.75491000  0.02575000  0.94904000  1.0
  Li  Li6  1  0.00000000  0.54560000  0.85579000  1.0
  Li  Li7  1  0.50000000  0.46952000  0.87213000  1.0
  Mg  Mg8  1  0.75000000  0.75000000  0.04361000  1.0
  Mg  Mg9  1  0.25000000  0.75000000  0.04361000  1.0
  Mg  Mg10  1  0.00000000  0.25000000  0.13084000  1.0
  Mg  Mg11  1  0.50000000  0.25000000  0.13084000  1.0
  Mg  Mg12  1  0.26310000  0.76356000  0.86738000  1.0
  Mg  Mg13  1  0.73690000  0.76356000  0.86738000  1.0
  Mg  Mg14  1  0.50000000  0.24636000  0.95846000  1.0
  Mg  Mg15  1  0.00000000  0.27101000  0.94552000  1.0
  Pd  Pd16  1  0.00000000  0.00000000  0.04361000  1.0
  Pd  Pd17  1  0.50000000  0.00000000  0.04361000  1.0
  Pd  Pd18  1  0.25000000  0.50000000  0.13084000  1.0
  Pd  Pd19  1  0.75000000  0.50000000  0.13084000  1.0
  Pd  Pd20  1  0.50000000  0.01397000  0.87606000  1.0
  Pd  Pd21  1  0.00000000  0.95267000  0.87365000  1.0
  Pd  Pd22  1  0.74170000  0.48146000  0.95004000  1.0
  Pd  Pd23  1  0.25830000  0.48146000  0.95004000  1.0
  Pb  Pb24  1  0.75000000  0.25000000  0.04361000  1.0
  Pb  Pb25  1  0.25000000  0.25000000  0.04361000  1.0
  Pb  Pb26  1  0.00000000  0.75000000  0.13084000  1.0
  Pb  Pb27  1  0.50000000  0.75000000  0.13084000  1.0
  Pb  Pb28  1  0.24488000  0.25713000  0.84325000  1.0
  Pb  Pb29  1  0.75512000  0.25713000  0.84325000  1.0
  Pb  Pb30  1  0.50000000  0.75040000  0.95680000  1.0
  Pb  Pb31  1  0.00000000  0.73346000  0.95914000  1.0
  C  C32  1  0.00000000  0.24664000  0.85999000  1.0
