# generated using pymatgen
data_Li8Mg8Pd8Pb8C
_symmetry_space_group_name_H-M   Pm
_cell_length_a   6.68280000
_cell_length_b   9.45090000
_cell_length_c   27.08820000
_cell_angle_alpha   90.00000000
_cell_angle_beta   90.00000000
_cell_angle_gamma   90.00000000
_symmetry_Int_Tables_number   6
_chemical_formula_structural   Li8Mg8Pd8Pb8C
_chemical_formula_sum   'Li8 Mg8 Pd8 Pb8 C1'
_cell_volume   1710.84938949
_cell_formula_units_Z   1
loop_
 _symmetry_equiv_pos_site_id
 _symmetry_equiv_pos_as_xyz
  1  'x, y, z'
  2  'x, -y, z'
loop_
 _atom_site_type_symbol
 _atom_site_label
 _atom_site_symmetry_multiplicity
 _atom_site_fract_x
 _atom_site_fract_y
 _atom_site_fract_z
 _atom_site_occupancy
  Li  Li0  2  0.00000000  0.25000000  0.86916000  1.0
  Li  Li1  2  0.02575000  0.24509000  0.05096000  1.0
  Li  Li2  1  0.46952000  0.50000000  0.12787000  1.0
  Li  Li3  1  0.50000000  0.00000000  0.95639000  1.0
  Li  Li4  1  0.50000000  0.50000000  0.95639000  1.0
  Li  Li5  1  0.54560000  0.00000000  0.14421000  1.0
  Mg  Mg6  2  0.75000000  0.25000000  0.95639000  1.0
  Mg  Mg7  2  0.76356000  0.26310000  0.13262000  1.0
  Mg  Mg8  1  0.24636000  0.50000000  0.04154000  1.0
  Mg  Mg9  1  0.25000000  0.00000000  0.86916000  1.0
  Mg  Mg10  1  0.25000000  0.50000000  0.86916000  1.0
  Mg  Mg11  1  0.27101000  0.00000000  0.05448000  1.0
  Pd  Pd12  2  0.48146000  0.25830000  0.04996000  1.0
  Pd  Pd13  2  0.50000000  0.25000000  0.86916000  1.0
  Pd  Pd14  1  0.00000000  0.00000000  0.95639000  1.0
  Pd  Pd15  1  0.00000000  0.50000000  0.95639000  1.0
  Pd  Pd16  1  0.01397000  0.50000000  0.12394000  1.0
  Pd  Pd17  1  0.95267000  0.00000000  0.12635000  1.0
  Pb  Pb18  2  0.25000000  0.25000000  0.95639000  1.0
  Pb  Pb19  2  0.25713000  0.24488000  0.15675000  1.0
  Pb  Pb20  1  0.73346000  0.00000000  0.04086000  1.0
  Pb  Pb21  1  0.75000000  0.00000000  0.86916000  1.0
  Pb  Pb22  1  0.75000000  0.50000000  0.86916000  1.0
  Pb  Pb23  1  0.75040000  0.50000000  0.04320000  1.0
  C  C24  1  0.24664000  0.00000000  0.14001000  1.0
