# generated using pymatgen
data_LiYSnPb
_symmetry_space_group_name_H-M   'P 1'
_cell_length_a   9.36828000
_cell_length_b   6.55220000
_cell_length_c   24.89710000
_cell_angle_alpha   90.00000000
_cell_angle_beta   90.00000000
_cell_angle_gamma   90.00000000
_symmetry_Int_Tables_number   1
_chemical_formula_structural   LiYSnPb
_chemical_formula_sum   'Li4 Y4 Sn4 Pb4'
_cell_volume   1528.25481073
_cell_formula_units_Z   4
loop_
 _symmetry_equiv_pos_site_id
 _symmetry_equiv_pos_as_xyz
  1  'x, y, z'
loop_
 _atom_site_type_symbol
 _atom_site_label
 _atom_site_symmetry_multiplicity
 _atom_site_fract_x
 _atom_site_fract_y
 _atom_site_fract_z
 _atom_site_occupancy
  Li  Li0  1  0.75000000  0.00000000  0.09835000  1.0
  Li  Li1  1  0.74999000  0.44922000  0.96861000  1.0
  Li  Li2  1  0.25000000  0.00000000  0.09835000  1.0
  Li  Li3  1  0.25001000  0.44922000  0.96861000  1.0
  Y  Y4  1  0.00000000  0.72916000  0.03278000  1.0
  Y  Y5  1  0.00000000  0.15417000  0.90334000  1.0
  Y  Y6  1  0.50000000  0.72916000  0.03278000  1.0
  Y  Y7  1  0.50000000  0.15377000  0.90332000  1.0
  Sn  Sn8  1  0.75000000  0.50000000  0.09835000  1.0
  Sn  Sn9  1  0.75006000  0.91090000  0.95615000  1.0
  Sn  Sn10  1  0.25000000  0.50000000  0.09835000  1.0
  Sn  Sn11  1  0.24994000  0.91090000  0.95615000  1.0
  Pb  Pb12  1  0.00000000  0.22916000  0.03278000  1.0
  Pb  Pb13  1  0.00000000  0.66158000  0.88865000  1.0
  Pb  Pb14  1  0.50000000  0.22916000  0.03278000  1.0
  Pb  Pb15  1  0.50000000  0.66096000  0.88859000  1.0
