data_image0
_chemical_formula_structural       Sc8Al8Ag16CO
_chemical_formula_sum              "Sc8 Al8 Ag16 C1 O1"
_cell_length_a       6.65011
_cell_length_b       9.40467
_cell_length_c       27.0535
_cell_angle_alpha    90
_cell_angle_beta     90
_cell_angle_gamma    90

_space_group_name_H-M_alt    "P 1"
_space_group_IT_number       1

loop_
  _space_group_symop_operation_xyz
  'x, y, z'

loop_
  _atom_site_type_symbol
  _atom_site_label
  _atom_site_symmetry_multiplicity
  _atom_site_fract_x
  _atom_site_fract_y
  _atom_site_fract_z
  _atom_site_occupancy
  Sc  Sc1       1.0  0.00000  0.00000  0.86964  1.0000
  Sc  Sc2       1.0  0.50000  0.25000  0.95655  1.0000
  Sc  Sc3       1.0  0.50000  0.75000  0.95655  1.0000
  Sc  Sc4       1.0  0.00000  0.50000  0.86964  1.0000
  Sc  Sc5       1.0  1.00000  0.50088  0.04385  1.0000
  Sc  Sc6       1.0  0.50000  0.75000  0.13186  1.0000
  Sc  Sc7       1.0  0.50004  0.24999  0.13141  1.0000
  Sc  Sc8       1.0  1.00000  0.99912  0.04385  1.0000
  Al  Al1       1.0  0.00000  0.75000  0.95655  1.0000
  Al  Al2       1.0  0.50000  0.00000  0.86964  1.0000
  Al  Al3       1.0  0.00000  0.25000  0.95655  1.0000
  Al  Al4       1.0  0.50000  0.50000  0.86964  1.0000
  Al  Al5       1.0  0.00000  0.25000  0.12396  1.0000
  Al  Al6       1.0  0.50000  0.50090  0.04439  1.0000
  Al  Al7       1.0  1.00000  0.75000  0.12526  1.0000
  Al  Al8       1.0  0.50000  0.99910  0.04439  1.0000
  Ag  Ag1       1.0  0.25000  0.00000  0.95655  1.0000
  Ag  Ag2       1.0  0.75000  0.50000  0.95655  1.0000
  Ag  Ag3       1.0  0.75000  0.00000  0.95655  1.0000
  Ag  Ag4       1.0  0.25000  0.50000  0.95655  1.0000
  Ag  Ag5       1.0  0.75000  0.75000  0.86964  1.0000
  Ag  Ag6       1.0  0.25000  0.25000  0.86964  1.0000
  Ag  Ag7       1.0  0.25000  0.75000  0.86964  1.0000
  Ag  Ag8       1.0  0.75000  0.25000  0.86964  1.0000
  Ag  Ag9       1.0  0.24652  0.50334  0.13104  1.0000
  Ag  Ag10      1.0  0.75349  0.99665  0.13104  1.0000
  Ag  Ag11      1.0  0.75348  0.50334  0.13105  1.0000
  Ag  Ag12      1.0  0.24650  0.99666  0.13104  1.0000
  Ag  Ag13      1.0  0.74339  0.25000  0.04331  1.0000
  Ag  Ag14      1.0  0.25683  0.75000  0.04273  1.0000
  Ag  Ag15      1.0  0.25661  0.25000  0.04331  1.0000
  Ag  Ag16      1.0  0.74317  0.75000  0.04273  1.0000
  C   C1        1.0  0.00001  0.25000  0.19658  1.0000
  O   O1        1.0  0.00000  0.25000  0.23950  1.0000
