# generated using pymatgen
data_Sc8Al8Ag16CO
_symmetry_space_group_name_H-M   Pmm2
_cell_length_a   6.65011000
_cell_length_b   9.40467000
_cell_length_c   27.05350000
_cell_angle_alpha   90.00000000
_cell_angle_beta   90.00000000
_cell_angle_gamma   90.00000000
_symmetry_Int_Tables_number   25
_chemical_formula_structural   Sc8Al8Ag16CO
_chemical_formula_sum   'Sc8 Al8 Ag16 C1 O1'
_cell_volume   1691.98243219
_cell_formula_units_Z   1
loop_
 _symmetry_equiv_pos_site_id
 _symmetry_equiv_pos_as_xyz
  1  'x, y, z'
  2  '-x, -y, z'
  3  '-x, y, z'
  4  'x, -y, z'
loop_
 _atom_site_type_symbol
 _atom_site_label
 _atom_site_symmetry_multiplicity
 _atom_site_fract_x
 _atom_site_fract_y
 _atom_site_fract_z
 _atom_site_occupancy
  Sc  Sc0  2  0.00000000  0.25000000  0.86964000  1.0
  Sc  Sc1  2  0.00000000  0.25088000  0.04385000  1.0
  Sc  Sc2  1  0.50000000  0.00000000  0.13141000  1.0
  Sc  Sc3  1  0.50000000  0.00000000  0.95655000  1.0
  Sc  Sc4  1  0.50000000  0.50000000  0.13186000  1.0
  Sc  Sc5  1  0.50000000  0.50000000  0.95655000  1.0
  Al  Al6  2  0.50000000  0.25000000  0.86964000  1.0
  Al  Al7  2  0.50000000  0.25090000  0.04439000  1.0
  Al  Al8  1  0.00000000  0.00000000  0.12396000  1.0
  Al  Al9  1  0.00000000  0.00000000  0.95655000  1.0
  Al  Al10  1  0.00000000  0.50000000  0.12526000  1.0
  Al  Al11  1  0.00000000  0.50000000  0.95655000  1.0
  Ag  Ag12  4  0.24651000  0.25334000  0.13104000  1.0
  Ag  Ag13  4  0.24999000  0.25000000  0.95655000  1.0
  Ag  Ag14  2  0.24999000  0.00000000  0.86964000  1.0
  Ag  Ag15  2  0.25001000  0.50000000  0.86964000  1.0
  Ag  Ag16  2  0.25662000  0.00000000  0.04331000  1.0
  Ag  Ag17  2  0.25682000  0.50000000  0.04273000  1.0
  C  C18  1  0.00000000  0.00000000  0.19658000  1.0
  O  O19  1  0.00000000  0.00000000  0.23950000  1.0
