data_image0
_chemical_formula_structural       Li8Sc8In8Ge8CO
_chemical_formula_sum              "Li8 Sc8 In8 Ge8 C1 O1"
_cell_length_a       8.22048
_cell_length_b       8.97372
_cell_length_c       26.0947
_cell_angle_alpha    90
_cell_angle_beta     90
_cell_angle_gamma    90

_space_group_name_H-M_alt    "P 1"
_space_group_IT_number       1

loop_
  _space_group_symop_operation_xyz
  'x, y, z'

loop_
  _atom_site_type_symbol
  _atom_site_label
  _atom_site_symmetry_multiplicity
  _atom_site_fract_x
  _atom_site_fract_y
  _atom_site_fract_z
  _atom_site_occupancy
  Li  Li1       1.0  0.00000  0.25000  0.96107  1.0000
  Li  Li2       1.0  0.99976  0.27186  0.10337  1.0000
  Li  Li3       1.0  0.00000  0.75000  0.96107  1.0000
  Li  Li4       1.0  0.00069  0.73816  0.11767  1.0000
  Li  Li5       1.0  0.50000  0.25000  0.96107  1.0000
  Li  Li6       1.0  0.49831  0.22955  0.11629  1.0000
  Li  Li7       1.0  0.50000  0.75000  0.96107  1.0000
  Li  Li8       1.0  0.49940  0.78012  0.12155  1.0000
  Sc  Sc1       1.0  0.25000  0.00000  0.96107  1.0000
  Sc  Sc2       1.0  0.20437  0.00505  0.11673  1.0000
  Sc  Sc3       1.0  0.25000  0.50000  0.96107  1.0000
  Sc  Sc4       1.0  0.27941  0.50406  0.11197  1.0000
  Sc  Sc5       1.0  0.75000  0.00000  0.96107  1.0000
  Sc  Sc6       1.0  0.78848  0.00697  0.11731  1.0000
  Sc  Sc7       1.0  0.75000  0.50000  0.96107  1.0000
  Sc  Sc8       1.0  0.72049  0.50629  0.11137  1.0000
  In  In1       1.0  0.25000  0.25000  0.88322  1.0000
  In  In2       1.0  0.25668  0.25206  0.03713  1.0000
  In  In3       1.0  0.25000  0.75000  0.88322  1.0000
  In  In4       1.0  0.25116  0.75863  0.04144  1.0000
  In  In5       1.0  0.75000  0.25000  0.88322  1.0000
  In  In6       1.0  0.74624  0.25129  0.03870  1.0000
  In  In7       1.0  0.75000  0.75000  0.88322  1.0000
  In  In8       1.0  0.74811  0.75425  0.03992  1.0000
  Ge  Ge1       1.0  0.00000  0.00000  0.88322  1.0000
  Ge  Ge2       1.0  0.00041  0.99956  0.03572  1.0000
  Ge  Ge3       1.0  0.00000  0.50000  0.88322  1.0000
  Ge  Ge4       1.0  0.00002  0.51155  0.04576  1.0000
  Ge  Ge5       1.0  0.50000  0.00000  0.88322  1.0000
  Ge  Ge6       1.0  0.49914  0.00293  0.04690  1.0000
  Ge  Ge7       1.0  0.50000  0.50000  0.88322  1.0000
  Ge  Ge8       1.0  0.49890  0.50600  0.03459  1.0000
  C   C1        1.0  0.02095  0.08683  0.16857  1.0000
  O   O1        1.0  0.97656  0.14162  0.20884  1.0000
