# generated using pymatgen
data_Li8Sc8In8Ge8CO
_symmetry_space_group_name_H-M   'P 1'
_cell_length_a   8.22048000
_cell_length_b   8.97372000
_cell_length_c   26.09470000
_cell_angle_alpha   90.00000000
_cell_angle_beta   90.00000000
_cell_angle_gamma   90.00000000
_symmetry_Int_Tables_number   1
_chemical_formula_structural   Li8Sc8In8Ge8CO
_chemical_formula_sum   'Li8 Sc8 In8 Ge8 C1 O1'
_cell_volume   1924.96128709
_cell_formula_units_Z   1
loop_
 _symmetry_equiv_pos_site_id
 _symmetry_equiv_pos_as_xyz
  1  'x, y, z'
loop_
 _atom_site_type_symbol
 _atom_site_label
 _atom_site_symmetry_multiplicity
 _atom_site_fract_x
 _atom_site_fract_y
 _atom_site_fract_z
 _atom_site_occupancy
  Li  Li0  1  0.00000000  0.25000000  0.96107000  1.0
  Li  Li1  1  0.99204000  0.26566000  0.13266000  1.0
  Li  Li2  1  0.00000000  0.75000000  0.96107000  1.0
  Li  Li3  1  0.99940000  0.73771000  0.11725000  1.0
  Li  Li4  1  0.50000000  0.25000000  0.96107000  1.0
  Li  Li5  1  0.49908000  0.22811000  0.11085000  1.0
  Li  Li6  1  0.50000000  0.75000000  0.96107000  1.0
  Li  Li7  1  0.50034000  0.77349000  0.11635000  1.0
  Sc  Sc8  1  0.25000000  0.00000000  0.96107000  1.0
  Sc  Sc9  1  0.20775000  0.00124000  0.11585000  1.0
  Sc  Sc10  1  0.25000000  0.50000000  0.96107000  1.0
  Sc  Sc11  1  0.27959000  0.50164000  0.11277000  1.0
  Sc  Sc12  1  0.75000000  0.00000000  0.96107000  1.0
  Sc  Sc13  1  0.79191000  0.00241000  0.11916000  1.0
  Sc  Sc14  1  0.75000000  0.50000000  0.96107000  1.0
  Sc  Sc15  1  0.71751000  0.50173000  0.11252000  1.0
  In  In16  1  0.25000000  0.25000000  0.88322000  1.0
  In  In17  1  0.24040000  0.24822000  0.04057000  1.0
  In  In18  1  0.25000000  0.75000000  0.88322000  1.0
  In  In19  1  0.25391000  0.75300000  0.03944000  1.0
  In  In20  1  0.75000000  0.25000000  0.88322000  1.0
  In  In21  1  0.75887000  0.24744000  0.04021000  1.0
  In  In22  1  0.75000000  0.75000000  0.88322000  1.0
  In  In23  1  0.74835000  0.75421000  0.03982000  1.0
  Ge  Ge24  1  0.00000000  0.00000000  0.88322000  1.0
  Ge  Ge25  1  0.99817000  0.99197000  0.03310000  1.0
  Ge  Ge26  1  0.00000000  0.50000000  0.88322000  1.0
  Ge  Ge27  1  0.99926000  0.49840000  0.04794000  1.0
  Ge  Ge28  1  0.50000000  0.00000000  0.88322000  1.0
  Ge  Ge29  1  0.50234000  0.99782000  0.04347000  1.0
  Ge  Ge30  1  0.50000000  0.50000000  0.88322000  1.0
  Ge  Ge31  1  0.49989000  0.49818000  0.03564000  1.0
  C  C32  1  0.01635000  0.05021000  0.16275000  1.0
  O  O33  1  0.88452000  0.11301000  0.18203000  1.0
