# generated using pymatgen
data_Li4Sc4Al4In4CO
_symmetry_space_group_name_H-M   'P 1'
_cell_length_a   8.49254000
_cell_length_b   6.04255000
_cell_length_c   24.52830000
_cell_angle_alpha   90.00000000
_cell_angle_beta   90.00000000
_cell_angle_gamma   90.00000000
_symmetry_Int_Tables_number   1
_chemical_formula_structural   Li4Sc4Al4In4CO
_chemical_formula_sum   'Li4 Sc4 Al4 In4 C1 O1'
_cell_volume   1258.70890035
_cell_formula_units_Z   1
loop_
 _symmetry_equiv_pos_site_id
 _symmetry_equiv_pos_as_xyz
  1  'x, y, z'
loop_
 _atom_site_type_symbol
 _atom_site_label
 _atom_site_symmetry_multiplicity
 _atom_site_fract_x
 _atom_site_fract_y
 _atom_site_fract_z
 _atom_site_occupancy
  Li  Li0  1  0.00000000  0.74006000  0.03077000  1.0
  Li  Li1  1  0.00000000  0.21653000  0.91200000  1.0
  Li  Li2  1  0.50000000  0.74006000  0.03077000  1.0
  Li  Li3  1  0.50000000  0.21480000  0.91175000  1.0
  Sc  Sc4  1  0.00000000  0.24006000  0.03077000  1.0
  Sc  Sc5  1  0.00000000  0.70287000  0.91057000  1.0
  Sc  Sc6  1  0.50000000  0.24006000  0.03077000  1.0
  Sc  Sc7  1  0.50000000  0.70320000  0.91524000  1.0
  Al  Al8  1  0.75000000  0.00000000  0.09231000  1.0
  Al  Al9  1  0.75196000  0.46954000  0.96689000  1.0
  Al  Al10  1  0.25000000  0.00000000  0.09231000  1.0
  Al  Al11  1  0.24804000  0.46954000  0.96689000  1.0
  In  In12  1  0.75000000  0.50000000  0.09231000  1.0
  In  In13  1  0.75192000  0.97134000  0.96738000  1.0
  In  In14  1  0.25000000  0.50000000  0.09231000  1.0
  In  In15  1  0.24808000  0.97134000  0.96738000  1.0
  C  C16  1  0.00000000  0.22102000  0.83079000  1.0
  O  O17  1  0.00000000  0.22085000  0.78364000  1.0
