# generated using pymatgen
data_Li8Al8Fe8Pd8C
_symmetry_space_group_name_H-M   Pmm2
_cell_length_a   5.67696000
_cell_length_b   8.84236000
_cell_length_c   26.45530000
_cell_angle_alpha   90.00000000
_cell_angle_beta   90.00000000
_cell_angle_gamma   90.00000000
_symmetry_Int_Tables_number   25
_chemical_formula_structural   Li8Al8Fe8Pd8C
_chemical_formula_sum   'Li8 Al8 Fe8 Pd8 C1'
_cell_volume   1327.99584841
_cell_formula_units_Z   1
loop_
 _symmetry_equiv_pos_site_id
 _symmetry_equiv_pos_as_xyz
  1  'x, y, z'
  2  '-x, -y, z'
  3  '-x, y, z'
  4  'x, -y, z'
loop_
 _atom_site_type_symbol
 _atom_site_label
 _atom_site_symmetry_multiplicity
 _atom_site_fract_x
 _atom_site_fract_y
 _atom_site_fract_z
 _atom_site_occupancy
  Li  Li0  2  0.00000000  0.25000000  0.04067000  1.0
  Li  Li1  2  0.00000000  0.26821000  0.86679000  1.0
  Li  Li2  2  0.50000000  0.23551000  0.86243000  1.0
  Li  Li3  2  0.50000000  0.25000000  0.04067000  1.0
  Al  Al4  1  0.00000000  0.00000000  0.12200000  1.0
  Al  Al5  1  0.00000000  0.00000000  0.96910000  1.0
  Al  Al6  1  0.00000000  0.50000000  0.12200000  1.0
  Al  Al7  1  0.00000000  0.50000000  0.96412000  1.0
  Al  Al8  1  0.50000000  0.00000000  0.12200000  1.0
  Al  Al9  1  0.50000000  0.00000000  0.96423000  1.0
  Al  Al10  1  0.50000000  0.50000000  0.12200000  1.0
  Al  Al11  1  0.50000000  0.50000000  0.97132000  1.0
  Fe  Fe12  2  0.22204000  0.00000000  0.88721000  1.0
  Fe  Fe13  2  0.24998000  0.00000000  0.04067000  1.0
  Fe  Fe14  2  0.24998000  0.50000000  0.04067000  1.0
  Fe  Fe15  2  0.31275000  0.50000000  0.89182000  1.0
  Pd  Pd16  4  0.24933000  0.24958000  0.95402000  1.0
  Pd  Pd17  4  0.24998000  0.25000000  0.12200000  1.0
  C  C18  1  0.50000000  0.00000000  0.85793000  1.0
