# generated using pymatgen
data_Li8V8Ge8Pd8CO
_symmetry_space_group_name_H-M   'P 1'
_cell_length_a   5.68832000
_cell_length_b   8.64114000
_cell_length_c   27.05420000
_cell_angle_alpha   90.00000000
_cell_angle_beta   90.00000000
_cell_angle_gamma   90.00000000
_symmetry_Int_Tables_number   1
_chemical_formula_structural   Li8V8Ge8Pd8CO
_chemical_formula_sum   'Li8 V8 Ge8 Pd8 C1 O1'
_cell_volume   1329.81049956
_cell_formula_units_Z   1
loop_
 _symmetry_equiv_pos_site_id
 _symmetry_equiv_pos_as_xyz
  1  'x, y, z'
loop_
 _atom_site_type_symbol
 _atom_site_label
 _atom_site_symmetry_multiplicity
 _atom_site_fract_x
 _atom_site_fract_y
 _atom_site_fract_z
 _atom_site_occupancy
  Li  Li0  1  0.25000000  0.74999000  0.95654000  1.0
  Li  Li1  1  0.25307000  0.74960000  0.13960000  1.0
  Li  Li2  1  0.25000000  0.25001000  0.95654000  1.0
  Li  Li3  1  0.25307000  0.25040000  0.13960000  1.0
  Li  Li4  1  0.75000000  0.74999000  0.95654000  1.0
  Li  Li5  1  0.74693000  0.74960000  0.13960000  1.0
  Li  Li6  1  0.75000000  0.25001000  0.95654000  1.0
  Li  Li7  1  0.74693000  0.25040000  0.13960000  1.0
  V  V8  1  0.25000000  0.00000000  0.86963000  1.0
  V  V9  1  0.24163000  0.00000000  0.04165000  1.0
  V  V10  1  0.25000000  0.50000000  0.86963000  1.0
  V  V11  1  0.25260000  0.50000000  0.04309000  1.0
  V  V12  1  0.75000000  0.00000000  0.86963000  1.0
  V  V13  1  0.75837000  0.00000000  0.04165000  1.0
  V  V14  1  0.75000000  0.50000000  0.86963000  1.0
  V  V15  1  0.74740000  0.50000000  0.04309000  1.0
  Ge  Ge16  1  0.00000000  0.74999000  0.86963000  1.0
  Ge  Ge17  1  0.00000000  0.74893000  0.04640000  1.0
  Ge  Ge18  1  0.00000000  0.25001000  0.86963000  1.0
  Ge  Ge19  1  0.00000000  0.25107000  0.04640000  1.0
  Ge  Ge20  1  0.50000000  0.74999000  0.86963000  1.0
  Ge  Ge21  1  0.50000000  0.75295000  0.04543000  1.0
  Ge  Ge22  1  0.50000000  0.25001000  0.86963000  1.0
  Ge  Ge23  1  0.50000000  0.24705000  0.04543000  1.0
  Pd  Pd24  1  0.00000000  0.00000000  0.95654000  1.0
  Pd  Pd25  1  0.00000000  0.00000000  0.12979000  1.0
  Pd  Pd26  1  0.00000000  0.50000000  0.95654000  1.0
  Pd  Pd27  1  0.00000000  0.50000000  0.12432000  1.0
  Pd  Pd28  1  0.50000000  0.00000000  0.95654000  1.0
  Pd  Pd29  1  0.50000000  0.00000000  0.12188000  1.0
  Pd  Pd30  1  0.50000000  0.50000000  0.95654000  1.0
  Pd  Pd31  1  0.50000000  0.50000000  0.12567000  1.0
  C  C32  1  0.00000000  0.00000000  0.20097000  1.0
  O  O33  1  0.00000000  0.00000000  0.24381000  1.0
