# generated using pymatgen
data_Li8V8Ge8Pd8CO
_symmetry_space_group_name_H-M   Pmm2
_cell_length_a   5.68832000
_cell_length_b   8.64114000
_cell_length_c   27.05420000
_cell_angle_alpha   90.00000000
_cell_angle_beta   90.00000000
_cell_angle_gamma   90.00000000
_symmetry_Int_Tables_number   25
_chemical_formula_structural   Li8V8Ge8Pd8CO
_chemical_formula_sum   'Li8 V8 Ge8 Pd8 C1 O1'
_cell_volume   1329.81049956
_cell_formula_units_Z   1
loop_
 _symmetry_equiv_pos_site_id
 _symmetry_equiv_pos_as_xyz
  1  'x, y, z'
  2  '-x, -y, z'
  3  '-x, y, z'
  4  'x, -y, z'
loop_
 _atom_site_type_symbol
 _atom_site_label
 _atom_site_symmetry_multiplicity
 _atom_site_fract_x
 _atom_site_fract_y
 _atom_site_fract_z
 _atom_site_occupancy
  Li  Li0  4  0.25000000  0.25001000  0.95654000  1.0
  Li  Li1  4  0.25307000  0.25040000  0.13960000  1.0
  V  V2  2  0.24163000  0.00000000  0.04165000  1.0
  V  V3  2  0.25000000  0.00000000  0.86963000  1.0
  V  V4  2  0.25000000  0.50000000  0.86963000  1.0
  V  V5  2  0.25260000  0.50000000  0.04309000  1.0
  Ge  Ge6  2  0.00000000  0.25001000  0.86963000  1.0
  Ge  Ge7  2  0.00000000  0.25107000  0.04640000  1.0
  Ge  Ge8  2  0.50000000  0.24705000  0.04543000  1.0
  Ge  Ge9  2  0.50000000  0.25001000  0.86963000  1.0
  Pd  Pd10  1  0.00000000  0.00000000  0.12979000  1.0
  Pd  Pd11  1  0.00000000  0.00000000  0.95654000  1.0
  Pd  Pd12  1  0.00000000  0.50000000  0.12432000  1.0
  Pd  Pd13  1  0.00000000  0.50000000  0.95654000  1.0
  Pd  Pd14  1  0.50000000  0.00000000  0.12188000  1.0
  Pd  Pd15  1  0.50000000  0.00000000  0.95654000  1.0
  Pd  Pd16  1  0.50000000  0.50000000  0.12567000  1.0
  Pd  Pd17  1  0.50000000  0.50000000  0.95654000  1.0
  C  C18  1  0.00000000  0.00000000  0.20097000  1.0
  O  O19  1  0.00000000  0.00000000  0.24381000  1.0
