# generated using pymatgen
data_Zr16Pt16CO
_symmetry_space_group_name_H-M   Pm
_cell_length_a   6.75388000
_cell_length_b   9.55143000
_cell_length_c   27.16360000
_cell_angle_alpha   90.00000000
_cell_angle_beta   90.00000000
_cell_angle_gamma   90.00000000
_symmetry_Int_Tables_number   6
_chemical_formula_structural   Zr16Pt16CO
_chemical_formula_sum   'Zr16 Pt16 C1 O1'
_cell_volume   1752.30243240
_cell_formula_units_Z   1
loop_
 _symmetry_equiv_pos_site_id
 _symmetry_equiv_pos_as_xyz
  1  'x, y, z'
  2  'x, -y, z'
loop_
 _atom_site_type_symbol
 _atom_site_label
 _atom_site_symmetry_multiplicity
 _atom_site_fract_x
 _atom_site_fract_y
 _atom_site_fract_z
 _atom_site_occupancy
  Zr  Zr0  2  0.24992000  0.23984000  0.04160000  1.0
  Zr  Zr1  2  0.25000000  0.25000000  0.86814000  1.0
  Zr  Zr2  2  0.74993000  0.25779000  0.04104000  1.0
  Zr  Zr3  2  0.75000000  0.25000000  0.86814000  1.0
  Zr  Zr4  1  0.24995000  0.50000000  0.13481000  1.0
  Zr  Zr5  1  0.25000000  0.00000000  0.95605000  1.0
  Zr  Zr6  1  0.25000000  0.50000000  0.95605000  1.0
  Zr  Zr7  1  0.25009000  0.00000000  0.13194000  1.0
  Zr  Zr8  1  0.74993000  0.00000000  0.13616000  1.0
  Zr  Zr9  1  0.74993000  0.50000000  0.12718000  1.0
  Zr  Zr10  1  0.75000000  0.00000000  0.95605000  1.0
  Zr  Zr11  1  0.75000000  0.50000000  0.95605000  1.0
  Pt  Pt12  2  0.00000000  0.25000000  0.95605000  1.0
  Pt  Pt13  2  0.50000000  0.25000000  0.95605000  1.0
  Pt  Pt14  2  0.50094000  0.25137000  0.12243000  1.0
  Pt  Pt15  2  0.99906000  0.25090000  0.12244000  1.0
  Pt  Pt16  1  0.00000000  0.00000000  0.86814000  1.0
  Pt  Pt17  1  0.00000000  0.50000000  0.86814000  1.0
  Pt  Pt18  1  0.03561000  0.50000000  0.04941000  1.0
  Pt  Pt19  1  0.46386000  0.50000000  0.04933000  1.0
  Pt  Pt20  1  0.50000000  0.00000000  0.86814000  1.0
  Pt  Pt21  1  0.50000000  0.50000000  0.86814000  1.0
  Pt  Pt22  1  0.53465000  0.00000000  0.05070000  1.0
  Pt  Pt23  1  0.96477000  0.00000000  0.05060000  1.0
  C  C24  1  0.25274000  0.00000000  0.21554000  1.0
  O  O25  1  0.25363000  0.00000000  0.25808000  1.0
