# generated using pymatgen
data_Ti16Ni16C
_symmetry_space_group_name_H-M   'P 1'
_cell_length_a   8.56306000
_cell_length_b   6.05499000
_cell_length_c   26.42230000
_cell_angle_alpha   90.00000000
_cell_angle_beta   90.00000000
_cell_angle_gamma   90.00000000
_symmetry_Int_Tables_number   1
_chemical_formula_structural   Ti16Ni16C
_chemical_formula_sum   'Ti16 Ni16 C1'
_cell_volume   1369.97624458
_cell_formula_units_Z   1
loop_
 _symmetry_equiv_pos_site_id
 _symmetry_equiv_pos_as_xyz
  1  'x, y, z'
loop_
 _atom_site_type_symbol
 _atom_site_label
 _atom_site_symmetry_multiplicity
 _atom_site_fract_x
 _atom_site_fract_y
 _atom_site_fract_z
 _atom_site_occupancy
  Ti  Ti0  1  0.25000000  0.75000000  0.12153000  1.0
  Ti  Ti1  1  0.50000000  0.75000000  0.04051000  1.0
  Ti  Ti2  1  0.25122000  0.75001000  0.95918000  1.0
  Ti  Ti3  1  0.50001000  0.75798000  0.87677000  1.0
  Ti  Ti4  1  0.75000000  0.75000000  0.12153000  1.0
  Ti  Ti5  1  0.00000000  0.75000000  0.04051000  1.0
  Ti  Ti6  1  0.74875000  0.75001000  0.95915000  1.0
  Ti  Ti7  1  0.00000000  0.72198000  0.87802000  1.0
  Ti  Ti8  1  0.25000000  0.25000000  0.12153000  1.0
  Ti  Ti9  1  0.50000000  0.25000000  0.04051000  1.0
  Ti  Ti10  1  0.25122000  0.24999000  0.95918000  1.0
  Ti  Ti11  1  0.50001000  0.24202000  0.87677000  1.0
  Ti  Ti12  1  0.75000000  0.25000000  0.12153000  1.0
  Ti  Ti13  1  0.00000000  0.25000000  0.04051000  1.0
  Ti  Ti14  1  0.74875000  0.24999000  0.95915000  1.0
  Ti  Ti15  1  0.00000000  0.27802000  0.87802000  1.0
  Ni  Ni16  1  0.00000000  0.00000000  0.12153000  1.0
  Ni  Ni17  1  0.25000000  0.00000000  0.04051000  1.0
  Ni  Ni18  1  0.50004000  0.00000000  0.95896000  1.0
  Ni  Ni19  1  0.23832000  0.00000000  0.87982000  1.0
  Ni  Ni20  1  0.50000000  0.00000000  0.12153000  1.0
  Ni  Ni21  1  0.75000000  0.00000000  0.04051000  1.0
  Ni  Ni22  1  0.99985000  0.00000000  0.96185000  1.0
  Ni  Ni23  1  0.76163000  0.00000000  0.87967000  1.0
  Ni  Ni24  1  0.00000000  0.50000000  0.12153000  1.0
  Ni  Ni25  1  0.25000000  0.50000000  0.04051000  1.0
  Ni  Ni26  1  0.49999000  0.50000000  0.95018000  1.0
  Ni  Ni27  1  0.26189000  0.50000000  0.88507000  1.0
  Ni  Ni28  1  0.50000000  0.50000000  0.12153000  1.0
  Ni  Ni29  1  0.75000000  0.50000000  0.04051000  1.0
  Ni  Ni30  1  0.99999000  0.50000000  0.96669000  1.0
  Ni  Ni31  1  0.73815000  0.50000000  0.88504000  1.0
  C  C32  1  0.99997000  0.00000000  0.84567000  1.0
