# generated using pymatgen
data_Ti16Ni16C
_symmetry_space_group_name_H-M   Pm
_cell_length_a   8.56306000
_cell_length_b   6.05499000
_cell_length_c   26.42230000
_cell_angle_alpha   90.00000000
_cell_angle_beta   90.00000000
_cell_angle_gamma   90.00000000
_symmetry_Int_Tables_number   6
_chemical_formula_structural   Ti16Ni16C
_chemical_formula_sum   'Ti16 Ni16 C1'
_cell_volume   1369.97624458
_cell_formula_units_Z   1
loop_
 _symmetry_equiv_pos_site_id
 _symmetry_equiv_pos_as_xyz
  1  'x, y, z'
  2  'x, -y, z'
loop_
 _atom_site_type_symbol
 _atom_site_label
 _atom_site_symmetry_multiplicity
 _atom_site_fract_x
 _atom_site_fract_y
 _atom_site_fract_z
 _atom_site_occupancy
  Ti  Ti0  2  0.00000000  0.25000000  0.95949000  1.0
  Ti  Ti1  2  0.00000000  0.27802000  0.12198000  1.0
  Ti  Ti2  2  0.25000000  0.25000000  0.87847000  1.0
  Ti  Ti3  2  0.25122000  0.24999000  0.04082000  1.0
  Ti  Ti4  2  0.50000000  0.25000000  0.95949000  1.0
  Ti  Ti5  2  0.50001000  0.24202000  0.12323000  1.0
  Ti  Ti6  2  0.74875000  0.24999000  0.04085000  1.0
  Ti  Ti7  2  0.75000000  0.25000000  0.87847000  1.0
  Ni  Ni8  1  0.00000000  0.00000000  0.87847000  1.0
  Ni  Ni9  1  0.00000000  0.50000000  0.87847000  1.0
  Ni  Ni10  1  0.23832000  0.00000000  0.12018000  1.0
  Ni  Ni11  1  0.25000000  0.00000000  0.95949000  1.0
  Ni  Ni12  1  0.25000000  0.50000000  0.95949000  1.0
  Ni  Ni13  1  0.26189000  0.50000000  0.11493000  1.0
  Ni  Ni14  1  0.49999000  0.50000000  0.04982000  1.0
  Ni  Ni15  1  0.50000000  0.00000000  0.87847000  1.0
  Ni  Ni16  1  0.50000000  0.50000000  0.87847000  1.0
  Ni  Ni17  1  0.50004000  0.00000000  0.04104000  1.0
  Ni  Ni18  1  0.73815000  0.50000000  0.11496000  1.0
  Ni  Ni19  1  0.75000000  0.00000000  0.95949000  1.0
  Ni  Ni20  1  0.75000000  0.50000000  0.95949000  1.0
  Ni  Ni21  1  0.76163000  0.00000000  0.12033000  1.0
  Ni  Ni22  1  0.99985000  0.00000000  0.03815000  1.0
  Ni  Ni23  1  0.99999000  0.50000000  0.03331000  1.0
  C  C24  1  0.99997000  0.00000000  0.15433000  1.0
