# generated using pymatgen
data_Li2GePd
_symmetry_space_group_name_H-M   Pmm2
_cell_length_a   4.31267000
_cell_length_b   6.09904000
_cell_length_c   26.46900000
_cell_angle_alpha   90.00000000
_cell_angle_beta   90.00000000
_cell_angle_gamma   90.00000000
_symmetry_Int_Tables_number   25
_chemical_formula_structural   Li2GePd
_chemical_formula_sum   'Li8 Ge4 Pd4'
_cell_volume   696.21799362
_cell_formula_units_Z   4
loop_
 _symmetry_equiv_pos_site_id
 _symmetry_equiv_pos_as_xyz
  1  'x, y, z'
  2  '-x, -y, z'
  3  '-x, y, z'
  4  'x, -y, z'
loop_
 _atom_site_type_symbol
 _atom_site_label
 _atom_site_symmetry_multiplicity
 _atom_site_fract_x
 _atom_site_fract_y
 _atom_site_fract_z
 _atom_site_occupancy
  Li  Li0  2  0.00000000  0.24817000  0.86865000  1.0
  Li  Li1  2  0.00000000  0.25000000  0.04073000  1.0
  Li  Li2  2  0.50000000  0.25000000  0.12220000  1.0
  Li  Li3  2  0.50000000  0.25139000  0.96410000  1.0
  Ge  Ge4  1  0.00000000  0.00000000  0.12220000  1.0
  Ge  Ge5  1  0.00000000  0.00000000  0.95700000  1.0
  Ge  Ge6  1  0.50000000  0.50000000  0.04073000  1.0
  Ge  Ge7  1  0.50000000  0.50000000  0.88583000  1.0
  Pd  Pd8  1  0.00000000  0.50000000  0.12220000  1.0
  Pd  Pd9  1  0.00000000  0.50000000  0.95551000  1.0
  Pd  Pd10  1  0.50000000  0.00000000  0.04073000  1.0
  Pd  Pd11  1  0.50000000  0.00000000  0.88980000  1.0
