# generated using pymatgen
data_Li8Ga8Ge8Pd8C
_symmetry_space_group_name_H-M   'P 1'
_cell_length_a   6.27488000
_cell_length_b   8.87402000
_cell_length_c   26.65550000
_cell_angle_alpha   90.00000000
_cell_angle_beta   90.00000000
_cell_angle_gamma   90.00000000
_symmetry_Int_Tables_number   1
_chemical_formula_structural   Li8Ga8Ge8Pd8C
_chemical_formula_sum   'Li8 Ga8 Ge8 Pd8 C1'
_cell_volume   1484.26915172
_cell_formula_units_Z   1
loop_
 _symmetry_equiv_pos_site_id
 _symmetry_equiv_pos_as_xyz
  1  'x, y, z'
loop_
 _atom_site_type_symbol
 _atom_site_label
 _atom_site_symmetry_multiplicity
 _atom_site_fract_x
 _atom_site_fract_y
 _atom_site_fract_z
 _atom_site_occupancy
  Li  Li0  1  0.75000000  0.00000000  0.95839000  1.0
  Li  Li1  1  0.75000000  0.50000000  0.95839000  1.0
  Li  Li2  1  0.25000000  0.25000000  0.87516000  1.0
  Li  Li3  1  0.25000000  0.75000000  0.87516000  1.0
  Li  Li4  1  0.77473000  0.50000000  0.13071000  1.0
  Li  Li5  1  0.63363000  0.99998000  0.17613000  1.0
  Li  Li6  1  0.22732000  0.76200000  0.04523000  1.0
  Li  Li7  1  0.22720000  0.23810000  0.04522000  1.0
  Ga  Ga8  1  0.00000000  0.00000000  0.87516000  1.0
  Ga  Ga9  1  0.00000000  0.50000000  0.87516000  1.0
  Ga  Ga10  1  0.50000000  0.75000000  0.95839000  1.0
  Ga  Ga11  1  0.50000000  0.25000000  0.95839000  1.0
  Ga  Ga12  1  0.99504000  0.50008000  0.04002000  1.0
  Ga  Ga13  1  0.93362000  0.00003000  0.05841000  1.0
  Ga  Ga14  1  0.47294000  0.25574000  0.13255000  1.0
  Ga  Ga15  1  0.47293000  0.74423000  0.13255000  1.0
  Ge  Ge16  1  0.00000000  0.25000000  0.95839000  1.0
  Ge  Ge17  1  0.00000000  0.75000000  0.95839000  1.0
  Ge  Ge18  1  0.50000000  0.50000000  0.87516000  1.0
  Ge  Ge19  1  0.50000000  0.00000000  0.87516000  1.0
  Ge  Ge20  1  0.92475000  0.78328000  0.13886000  1.0
  Ge  Ge21  1  0.92473000  0.21673000  0.13887000  1.0
  Ge  Ge22  1  0.50410000  0.00009000  0.04331000  1.0
  Ge  Ge23  1  0.50063000  0.50003000  0.04478000  1.0
  Pd  Pd24  1  0.25000000  0.00000000  0.95839000  1.0
  Pd  Pd25  1  0.25000000  0.50000000  0.95839000  1.0
  Pd  Pd26  1  0.75000000  0.25000000  0.87516000  1.0
  Pd  Pd27  1  0.75000000  0.75000000  0.87516000  1.0
  Pd  Pd28  1  0.24572000  0.49997000  0.11806000  1.0
  Pd  Pd29  1  0.26638000  0.99999000  0.11970000  1.0
  Pd  Pd30  1  0.74633000  0.74396000  0.03809000  1.0
  Pd  Pd31  1  0.74641000  0.25615000  0.03809000  1.0
  C  C32  1  0.93770000  0.00000000  0.14634000  1.0
