# generated using pymatgen
data_Zr4Al12C
_symmetry_space_group_name_H-M   'P 1'
_cell_length_a   8.19423000
_cell_length_b   5.79419000
_cell_length_c   24.34560000
_cell_angle_alpha   90.00000000
_cell_angle_beta   90.00000000
_cell_angle_gamma   90.00000000
_symmetry_Int_Tables_number   1
_chemical_formula_structural   Zr4Al12C
_chemical_formula_sum   'Zr4 Al12 C1'
_cell_volume   1155.90292923
_cell_formula_units_Z   1
loop_
 _symmetry_equiv_pos_site_id
 _symmetry_equiv_pos_as_xyz
  1  'x, y, z'
loop_
 _atom_site_type_symbol
 _atom_site_label
 _atom_site_symmetry_multiplicity
 _atom_site_fract_x
 _atom_site_fract_y
 _atom_site_fract_z
 _atom_site_occupancy
  Zr  Zr0  1  0.70981000  0.99233000  0.08899000  1.0
  Zr  Zr1  1  0.75000000  0.50000000  0.97025000  1.0
  Zr  Zr2  1  0.29019000  0.99233000  0.08899000  1.0
  Zr  Zr3  1  0.25000000  0.50000000  0.97025000  1.0
  Al  Al4  1  0.68836000  0.49435000  0.09876000  1.0
  Al  Al5  1  0.50000000  0.25352000  0.02374000  1.0
  Al  Al6  1  0.50000000  0.74537000  0.02184000  1.0
  Al  Al7  1  0.75000000  0.00000000  0.97025000  1.0
  Al  Al8  1  0.50000000  0.75000000  0.91075000  1.0
  Al  Al9  1  0.50000000  0.25000000  0.91075000  1.0
  Al  Al10  1  0.31164000  0.49435000  0.09876000  1.0
  Al  Al11  1  0.00000000  0.23338000  0.03304000  1.0
  Al  Al12  1  0.00000000  0.72860000  0.04569000  1.0
  Al  Al13  1  0.25000000  0.00000000  0.97025000  1.0
  Al  Al14  1  0.00000000  0.75000000  0.91075000  1.0
  Al  Al15  1  0.00000000  0.25000000  0.91075000  1.0
  C  C16  1  0.50000000  0.75815000  0.10815000  1.0
