# generated using pymatgen
data_Li8In8Cu8Ag8C
_symmetry_space_group_name_H-M   'P 1'
_cell_length_a   9.06224000
_cell_length_b   6.40797000
_cell_length_c   26.79670000
_cell_angle_alpha   90.00000000
_cell_angle_beta   90.00000000
_cell_angle_gamma   90.00000000
_symmetry_Int_Tables_number   1
_chemical_formula_structural   Li8In8Cu8Ag8C
_chemical_formula_sum   'Li8 In8 Cu8 Ag8 C1'
_cell_volume   1556.09943016
_cell_formula_units_Z   1
loop_
 _symmetry_equiv_pos_site_id
 _symmetry_equiv_pos_as_xyz
  1  'x, y, z'
loop_
 _atom_site_type_symbol
 _atom_site_label
 _atom_site_symmetry_multiplicity
 _atom_site_fract_x
 _atom_site_fract_y
 _atom_site_fract_z
 _atom_site_occupancy
  Li  Li0  1  0.00000000  0.75000000  0.04227000  1.0
  Li  Li1  1  0.50000000  0.75000000  0.04227000  1.0
  Li  Li2  1  0.25000000  0.25000000  0.12682000  1.0
  Li  Li3  1  0.75000000  0.25000000  0.12682000  1.0
  Li  Li4  1  0.50000000  0.68993000  0.85497000  1.0
  Li  Li5  1  0.00000000  0.75412000  0.85866000  1.0
  Li  Li6  1  0.75652000  0.23717000  0.95192000  1.0
  Li  Li7  1  0.24348000  0.23717000  0.95192000  1.0
  In  In8  1  0.25000000  0.00000000  0.04227000  1.0
  In  In9  1  0.75000000  0.00000000  0.04227000  1.0
  In  In10  1  0.50000000  0.50000000  0.12682000  1.0
  In  In11  1  0.00000000  0.50000000  0.12682000  1.0
  In  In12  1  0.72959000  0.98844000  0.85906000  1.0
  In  In13  1  0.27041000  0.98844000  0.85906000  1.0
  In  In14  1  0.00000000  0.51460000  0.96046000  1.0
  In  In15  1  0.50000000  0.50076000  0.95413000  1.0
  Cu  Cu16  1  0.00000000  0.25000000  0.04227000  1.0
  Cu  Cu17  1  0.50000000  0.25000000  0.04227000  1.0
  Cu  Cu18  1  0.25000000  0.75000000  0.12682000  1.0
  Cu  Cu19  1  0.75000000  0.75000000  0.12682000  1.0
  Cu  Cu20  1  0.50000000  0.25483000  0.87223000  1.0
  Cu  Cu21  1  0.00000000  0.16504000  0.86869000  1.0
  Cu  Cu22  1  0.74397000  0.75503000  0.95454000  1.0
  Cu  Cu23  1  0.25603000  0.75503000  0.95454000  1.0
  Ag  Ag24  1  0.00000000  0.00000000  0.12682000  1.0
  Ag  Ag25  1  0.50000000  1.00000000  0.12682000  1.0
  Ag  Ag26  1  0.75000000  0.50000000  0.04227000  1.0
  Ag  Ag27  1  0.25000000  0.50000000  0.04227000  1.0
  Ag  Ag28  1  0.50000000  0.00108000  0.95630000  1.0
  Ag  Ag29  1  0.00000000  0.98499000  0.95908000  1.0
  Ag  Ag30  1  0.24443000  0.47533000  0.86859000  1.0
  Ag  Ag31  1  0.75557000  0.47533000  0.86859000  1.0
  C  C32  1  0.00000000  0.45145000  0.87862000  1.0
