# generated using pymatgen
data_Zr16Rh16C
_symmetry_space_group_name_H-M   Pmm2
_cell_length_a   6.65024000
_cell_length_b   9.40485000
_cell_length_c   27.05360000
_cell_angle_alpha   90.00000000
_cell_angle_beta   90.00000000
_cell_angle_gamma   90.00000000
_symmetry_Int_Tables_number   25
_chemical_formula_structural   Zr16Rh16C
_chemical_formula_sum   'Zr16 Rh16 C1'
_cell_volume   1692.05414665
_cell_formula_units_Z   1
loop_
 _symmetry_equiv_pos_site_id
 _symmetry_equiv_pos_as_xyz
  1  'x, y, z'
  2  '-x, -y, z'
  3  '-x, y, z'
  4  'x, -y, z'
loop_
 _atom_site_type_symbol
 _atom_site_label
 _atom_site_symmetry_multiplicity
 _atom_site_fract_x
 _atom_site_fract_y
 _atom_site_fract_z
 _atom_site_occupancy
  Zr  Zr0  4  0.24977000  0.24870000  0.04352000  1.0
  Zr  Zr1  4  0.25000000  0.24998000  0.86964000  1.0
  Zr  Zr2  2  0.24996000  0.50000000  0.13004000  1.0
  Zr  Zr3  2  0.25000000  0.00000000  0.95655000  1.0
  Zr  Zr4  2  0.25000000  0.50000000  0.95655000  1.0
  Zr  Zr5  2  0.25251000  0.00000000  0.13323000  1.0
  Rh  Rh6  2  0.00000000  0.24998000  0.95655000  1.0
  Rh  Rh7  2  0.00000000  0.26964000  0.12203000  1.0
  Rh  Rh8  2  0.50000000  0.24998000  0.95655000  1.0
  Rh  Rh9  2  0.50000000  0.25766000  0.12002000  1.0
  Rh  Rh10  1  0.00000000  0.00000000  0.04089000  1.0
  Rh  Rh11  1  0.00000000  0.00000000  0.86964000  1.0
  Rh  Rh12  1  0.00000000  0.50000000  0.04497000  1.0
  Rh  Rh13  1  0.00000000  0.50000000  0.86964000  1.0
  Rh  Rh14  1  0.50000000  0.00000000  0.03835000  1.0
  Rh  Rh15  1  0.50000000  0.00000000  0.86964000  1.0
  Rh  Rh16  1  0.50000000  0.50000000  0.04183000  1.0
  Rh  Rh17  1  0.50000000  0.50000000  0.86964000  1.0
  C  C18  1  0.00000000  0.00000000  0.17442000  1.0
