# generated using pymatgen
data_Sc8Al8Ag16C
_symmetry_space_group_name_H-M   'P 1'
_cell_length_a   9.40467000
_cell_length_b   6.65011000
_cell_length_c   27.05350000
_cell_angle_alpha   90.00000000
_cell_angle_beta   90.00000000
_cell_angle_gamma   90.00000000
_symmetry_Int_Tables_number   1
_chemical_formula_structural   Sc8Al8Ag16C
_chemical_formula_sum   'Sc8 Al8 Ag16 C1'
_cell_volume   1691.98243219
_cell_formula_units_Z   1
loop_
 _symmetry_equiv_pos_site_id
 _symmetry_equiv_pos_as_xyz
  1  'x, y, z'
loop_
 _atom_site_type_symbol
 _atom_site_label
 _atom_site_symmetry_multiplicity
 _atom_site_fract_x
 _atom_site_fract_y
 _atom_site_fract_z
 _atom_site_occupancy
  Sc  Sc0  1  0.75000000  0.00000000  0.13036000  1.0
  Sc  Sc1  1  0.00000000  0.50000000  0.04345000  1.0
  Sc  Sc2  1  0.50000000  0.50000000  0.04345000  1.0
  Sc  Sc3  1  0.25000000  0.00000000  0.13036000  1.0
  Sc  Sc4  1  0.25207000  0.00199000  0.95446000  1.0
  Sc  Sc5  1  0.50000000  0.46745000  0.87104000  1.0
  Sc  Sc6  1  0.00000000  0.50830000  0.87344000  1.0
  Sc  Sc7  1  0.74793000  0.00199000  0.95446000  1.0
  Al  Al8  1  0.50000000  0.00000000  0.04345000  1.0
  Al  Al9  1  0.75000000  0.50000000  0.13036000  1.0
  Al  Al10  1  0.00000000  0.00000000  0.04345000  1.0
  Al  Al11  1  0.25000000  0.50000000  0.13036000  1.0
  Al  Al12  1  0.00000000  0.92270000  0.86258000  1.0
  Al  Al13  1  0.25121000  0.50181000  0.95658000  1.0
  Al  Al14  1  0.50000000  0.01100000  0.87442000  1.0
  Al  Al15  1  0.74879000  0.50181000  0.95658000  1.0
  Ag  Ag16  1  0.75000000  0.25000000  0.04345000  1.0
  Ag  Ag17  1  0.25000000  0.75000000  0.04345000  1.0
  Ag  Ag18  1  0.75000000  0.75000000  0.04345000  1.0
  Ag  Ag19  1  0.25000000  0.25000000  0.04345000  1.0
  Ag  Ag20  1  0.50000000  0.75000000  0.13036000  1.0
  Ag  Ag21  1  0.00000000  0.25000000  0.13036000  1.0
  Ag  Ag22  1  0.50000000  0.25000000  0.13036000  1.0
  Ag  Ag23  1  0.00000000  0.75000000  0.13036000  1.0
  Ag  Ag24  1  0.24947000  0.22110000  0.86008000  1.0
  Ag  Ag25  1  0.73648000  0.74594000  0.86679000  1.0
  Ag  Ag26  1  0.26352000  0.74594000  0.86679000  1.0
  Ag  Ag27  1  0.75053000  0.22110000  0.86008000  1.0
  Ag  Ag28  1  0.00000000  0.75608000  0.96011000  1.0
  Ag  Ag29  1  0.50000000  0.25012000  0.96093000  1.0
  Ag  Ag30  1  0.00000000  0.24387000  0.95759000  1.0
  Ag  Ag31  1  0.50000000  0.74280000  0.95576000  1.0
  C  C32  1  0.00000000  0.20491000  0.86573000  1.0
