# generated using pymatgen
data_Sc8Al8Ag16C
_symmetry_space_group_name_H-M   Pm
_cell_length_a   6.65011000
_cell_length_b   9.40467000
_cell_length_c   27.05350000
_cell_angle_alpha   90.00000000
_cell_angle_beta   90.00000000
_cell_angle_gamma   90.00000000
_symmetry_Int_Tables_number   6
_chemical_formula_structural   Sc8Al8Ag16C
_chemical_formula_sum   'Sc8 Al8 Ag16 C1'
_cell_volume   1691.98243219
_cell_formula_units_Z   1
loop_
 _symmetry_equiv_pos_site_id
 _symmetry_equiv_pos_as_xyz
  1  'x, y, z'
  2  'x, -y, z'
loop_
 _atom_site_type_symbol
 _atom_site_label
 _atom_site_symmetry_multiplicity
 _atom_site_fract_x
 _atom_site_fract_y
 _atom_site_fract_z
 _atom_site_occupancy
  Sc  Sc0  2  0.00000000  0.25000000  0.86964000  1.0
  Sc  Sc1  2  0.00199000  0.25207000  0.04554000  1.0
  Sc  Sc2  1  0.46745000  0.50000000  0.12896000  1.0
  Sc  Sc3  1  0.50000000  0.00000000  0.95655000  1.0
  Sc  Sc4  1  0.50000000  0.50000000  0.95655000  1.0
  Sc  Sc5  1  0.50830000  0.00000000  0.12656000  1.0
  Al  Al6  2  0.50000000  0.25000000  0.86964000  1.0
  Al  Al7  2  0.50181000  0.25121000  0.04342000  1.0
  Al  Al8  1  0.00000000  0.00000000  0.95655000  1.0
  Al  Al9  1  0.00000000  0.50000000  0.95655000  1.0
  Al  Al10  1  0.01100000  0.50000000  0.12558000  1.0
  Al  Al11  1  0.92270000  0.00000000  0.13742000  1.0
  Ag  Ag12  2  0.22110000  0.24947000  0.13992000  1.0
  Ag  Ag13  2  0.25000000  0.25000000  0.95655000  1.0
  Ag  Ag14  2  0.74594000  0.26352000  0.13321000  1.0
  Ag  Ag15  2  0.75000000  0.25000000  0.95655000  1.0
  Ag  Ag16  1  0.24387000  0.00000000  0.04241000  1.0
  Ag  Ag17  1  0.25000000  0.00000000  0.86964000  1.0
  Ag  Ag18  1  0.25000000  0.50000000  0.86964000  1.0
  Ag  Ag19  1  0.25012000  0.50000000  0.03907000  1.0
  Ag  Ag20  1  0.74280000  0.50000000  0.04424000  1.0
  Ag  Ag21  1  0.75000000  0.00000000  0.86964000  1.0
  Ag  Ag22  1  0.75000000  0.50000000  0.86964000  1.0
  Ag  Ag23  1  0.75608000  0.00000000  0.03989000  1.0
  C  C24  1  0.20491000  0.00000000  0.13427000  1.0
