# generated using pymatgen
data_Li8In8Cu8Pt8CO
_symmetry_space_group_name_H-M   'P 1'
_cell_length_a   6.33470000
_cell_length_b   8.95862000
_cell_length_c   26.71900000
_cell_angle_alpha   90.00000000
_cell_angle_beta   90.00000000
_cell_angle_gamma   90.00000000
_symmetry_Int_Tables_number   1
_chemical_formula_structural   Li8In8Cu8Pt8CO
_chemical_formula_sum   'Li8 In8 Cu8 Pt8 C1 O1'
_cell_volume   1516.30779528
_cell_formula_units_Z   1
loop_
 _symmetry_equiv_pos_site_id
 _symmetry_equiv_pos_as_xyz
  1  'x, y, z'
loop_
 _atom_site_type_symbol
 _atom_site_label
 _atom_site_symmetry_multiplicity
 _atom_site_fract_x
 _atom_site_fract_y
 _atom_site_fract_z
 _atom_site_occupancy
  Li  Li0  1  0.25000000  0.00000000  0.95809000  1.0
  Li  Li1  1  0.25000000  0.50000000  0.95809000  1.0
  Li  Li2  1  0.75000000  0.75000000  0.87427000  1.0
  Li  Li3  1  0.75000000  0.25000000  0.87427000  1.0
  Li  Li4  1  0.28736000  0.49618000  0.13295000  1.0
  Li  Li5  1  0.28736000  0.00382000  0.13295000  1.0
  Li  Li6  1  0.77686000  0.24999000  0.04432000  1.0
  Li  Li7  1  0.76023000  0.74999000  0.04152000  1.0
  In  In8  1  0.00000000  0.75000000  0.95809000  1.0
  In  In9  1  0.00000000  0.25000000  0.95809000  1.0
  In  In10  1  0.50000000  0.50000000  0.87427000  1.0
  In  In11  1  0.50000000  0.00000000  0.87427000  1.0
  In  In12  1  0.99139000  0.25000000  0.13937000  1.0
  In  In13  1  0.99915000  0.75000000  0.13367000  1.0
  In  In14  1  0.49460000  0.00397000  0.04046000  1.0
  In  In15  1  0.49460000  0.49601000  0.04046000  1.0
  Cu  Cu16  1  0.00000000  0.00000000  0.87427000  1.0
  Cu  Cu17  1  0.00000000  0.50000000  0.87427000  1.0
  Cu  Cu18  1  0.50000000  0.25000000  0.95809000  1.0
  Cu  Cu19  1  0.50000000  0.75000000  0.95809000  1.0
  Cu  Cu20  1  0.01042000  0.50257000  0.04077000  1.0
  Cu  Cu21  1  0.01042000  0.99741000  0.04077000  1.0
  Cu  Cu22  1  0.52525000  0.75000000  0.11774000  1.0
  Cu  Cu23  1  0.52683000  0.25000000  0.11747000  1.0
  Pt  Pt24  1  0.75000000  0.00000000  0.95809000  1.0
  Pt  Pt25  1  0.75000000  0.50000000  0.95809000  1.0
  Pt  Pt26  1  0.25000000  0.75000000  0.87427000  1.0
  Pt  Pt27  1  0.25000000  0.25000000  0.87427000  1.0
  Pt  Pt28  1  0.75636000  0.50030000  0.12009000  1.0
  Pt  Pt29  1  0.75636000  0.99969000  0.12009000  1.0
  Pt  Pt30  1  0.23504000  0.24999000  0.04551000  1.0
  Pt  Pt31  1  0.24731000  0.74999000  0.04330000  1.0
  C  C32  1  0.10747000  0.75012000  0.26769000  1.0
  O  O33  1  0.96638000  0.75000000  0.29392000  1.0
