# generated using pymatgen
data_Li8In8Cu8Pt8CO
_symmetry_space_group_name_H-M   P1
_cell_length_a   6.33470000
_cell_length_b   8.95862000
_cell_length_c   26.71900000
_cell_angle_alpha   90.00000000
_cell_angle_beta   90.00000000
_cell_angle_gamma   90.00000000
_symmetry_Int_Tables_number   1
_chemical_formula_structural   Li8In8Cu8Pt8CO
_chemical_formula_sum   'Li8 In8 Cu8 Pt8 C1 O1'
_cell_volume   1516.30779528
_cell_formula_units_Z   1
loop_
 _symmetry_equiv_pos_site_id
 _symmetry_equiv_pos_as_xyz
  1  'x, y, z'
loop_
 _atom_site_type_symbol
 _atom_site_label
 _atom_site_symmetry_multiplicity
 _atom_site_fract_x
 _atom_site_fract_y
 _atom_site_fract_z
 _atom_site_occupancy
  Li  Li0  1  0.22314000  0.75001000  0.04432000  1.0
  Li  Li1  1  0.23977000  0.25001000  0.04152000  1.0
  Li  Li2  1  0.25000000  0.25000000  0.87427000  1.0
  Li  Li3  1  0.25000000  0.75000000  0.87427000  1.0
  Li  Li4  1  0.71264000  0.50382000  0.13295000  1.0
  Li  Li5  1  0.71264000  0.99618000  0.13295000  1.0
  Li  Li6  1  0.75000000  0.00000000  0.95809000  1.0
  Li  Li7  1  0.75000000  0.50000000  0.95809000  1.0
  In  In8  1  -0.00000000  0.75000000  0.95809000  1.0
  In  In9  1  -0.00000000  0.25000000  0.95809000  1.0
  In  In10  1  0.00085000  0.25000000  0.13367000  1.0
  In  In11  1  0.00861000  0.75000000  0.13937000  1.0
  In  In12  1  0.50000000  0.00000000  0.87427000  1.0
  In  In13  1  0.50000000  0.50000000  0.87427000  1.0
  In  In14  1  0.50540000  0.50399000  0.04046000  1.0
  In  In15  1  0.50540000  0.99603000  0.04046000  1.0
  Cu  Cu16  1  -0.00000000  0.50000000  0.87427000  1.0
  Cu  Cu17  1  0.00000000  0.00000000  0.87427000  1.0
  Cu  Cu18  1  0.47317000  0.75000000  0.11747000  1.0
  Cu  Cu19  1  0.47475000  0.25000000  0.11774000  1.0
  Cu  Cu20  1  0.50000000  0.25000000  0.95809000  1.0
  Cu  Cu21  1  0.50000000  0.75000000  0.95809000  1.0
  Cu  Cu22  1  0.98958000  0.00259000  0.04077000  1.0
  Cu  Cu23  1  0.98958000  0.49743000  0.04077000  1.0
  Pt  Pt24  1  0.24364000  0.00031000  0.12009000  1.0
  Pt  Pt25  1  0.24364000  0.49970000  0.12009000  1.0
  Pt  Pt26  1  0.25000000  0.00000000  0.95809000  1.0
  Pt  Pt27  1  0.25000000  0.50000000  0.95809000  1.0
  Pt  Pt28  1  0.75000000  0.25000000  0.87427000  1.0
  Pt  Pt29  1  0.75000000  0.75000000  0.87427000  1.0
  Pt  Pt30  1  0.75269000  0.25001000  0.04330000  1.0
  Pt  Pt31  1  0.76496000  0.75001000  0.04551000  1.0
  C  C32  1  0.89253000  0.24988000  0.26769000  1.0
  O  O33  1  0.03362000  0.25000000  0.29392000  1.0
