# generated using pymatgen
data_Li4In8Pd4CO
_symmetry_space_group_name_H-M   P1
_cell_length_a   6.70566000
_cell_length_b   6.70566000
_cell_length_c   25.02920000
_cell_angle_alpha   90.00000000
_cell_angle_beta   90.00000000
_cell_angle_gamma   90.00000000
_symmetry_Int_Tables_number   1
_chemical_formula_structural   Li4In8Pd4CO
_chemical_formula_sum   'Li4 In8 Pd4 C1 O1'
_cell_volume   1125.45990447
_cell_formula_units_Z   1
loop_
 _symmetry_equiv_pos_site_id
 _symmetry_equiv_pos_as_xyz
  1  'x, y, z'
loop_
 _atom_site_type_symbol
 _atom_site_label
 _atom_site_symmetry_multiplicity
 _atom_site_fract_x
 _atom_site_fract_y
 _atom_site_fract_z
 _atom_site_occupancy
  Li  Li0  1  0.00000000  0.00004000  0.10800000  1.0
  Li  Li1  1  0.00000000  0.50000000  0.96651000  1.0
  Li  Li2  1  0.49999000  0.49995000  0.10622000  1.0
  Li  Li3  1  0.50000000  0.00000000  0.96651000  1.0
  In  In4  1  0.24991000  0.75016000  0.03379000  1.0
  In  In5  1  0.25000000  0.25000000  0.89953000  1.0
  In  In6  1  0.25000000  0.75000000  0.89953000  1.0
  In  In7  1  0.25002000  0.25000000  0.03372000  1.0
  In  In8  1  0.74996000  0.74998000  0.03368000  1.0
  In  In9  1  0.74999000  0.24976000  0.03383000  1.0
  In  In10  1  0.75000000  0.25000000  0.89953000  1.0
  In  In11  1  0.75000000  0.75000000  0.89953000  1.0
  Pd  Pd12  1  0.00000000  0.00000000  0.96651000  1.0
  Pd  Pd13  1  0.00001000  0.49996000  0.08785000  1.0
  Pd  Pd14  1  0.49996000  0.00005000  0.08787000  1.0
  Pd  Pd15  1  0.50000000  0.50000000  0.96651000  1.0
  C  C16  1  0.99999000  0.00002000  0.19219000  1.0
  O  O17  1  0.00000000  0.99997000  0.23772000  1.0
