# generated using pymatgen
data_V16Os16C
_symmetry_space_group_name_H-M   Pmm2
_cell_length_a   6.04788000
_cell_length_b   8.55299000
_cell_length_c   26.41470000
_cell_angle_alpha   90.00000000
_cell_angle_beta   90.00000000
_cell_angle_gamma   90.00000000
_symmetry_Int_Tables_number   25
_chemical_formula_structural   V16Os16C
_chemical_formula_sum   'V16 Os16 C1'
_cell_volume   1366.36526268
_cell_formula_units_Z   1
loop_
 _symmetry_equiv_pos_site_id
 _symmetry_equiv_pos_as_xyz
  1  'x, y, z'
  2  '-x, -y, z'
  3  '-x, y, z'
  4  'x, -y, z'
loop_
 _atom_site_type_symbol
 _atom_site_label
 _atom_site_symmetry_multiplicity
 _atom_site_fract_x
 _atom_site_fract_y
 _atom_site_fract_z
 _atom_site_occupancy
  V  V0  2  0.00000000  0.24237000  0.12792000  1.0
  V  V1  2  0.00000000  0.25000000  0.95953000  1.0
  V  V2  2  0.50000000  0.25000000  0.95953000  1.0
  V  V3  2  0.50000000  0.26108000  0.12529000  1.0
  V  V4  1  0.00000000  0.00000000  0.04261000  1.0
  V  V5  1  0.00000000  0.00000000  0.87858000  1.0
  V  V6  1  0.00000000  0.50000000  0.04213000  1.0
  V  V7  1  0.00000000  0.50000000  0.87858000  1.0
  V  V8  1  0.50000000  0.00000000  0.03683000  1.0
  V  V9  1  0.50000000  0.00000000  0.87858000  1.0
  V  V10  1  0.50000000  0.50000000  0.04247000  1.0
  V  V11  1  0.50000000  0.50000000  0.87858000  1.0
  Os  Os12  4  0.25000000  0.25000000  0.87858000  1.0
  Os  Os13  4  0.25009000  0.24870000  0.04416000  1.0
  Os  Os14  2  0.24481000  0.50000000  0.11779000  1.0
  Os  Os15  2  0.25000000  0.00000000  0.95953000  1.0
  Os  Os16  2  0.25000000  0.50000000  0.95953000  1.0
  Os  Os17  2  0.28094000  0.00000000  0.11886000  1.0
  C  C18  1  0.00000000  0.00000000  0.15351000  1.0
