# generated using pymatgen
data_Li8Ge8Pd8Au8C
_symmetry_space_group_name_H-M   'P 1'
_cell_length_a   8.92356000
_cell_length_b   6.30991000
_cell_length_c   26.69270000
_cell_angle_alpha   90.00000000
_cell_angle_beta   90.00000000
_cell_angle_gamma   90.00000000
_symmetry_Int_Tables_number   1
_chemical_formula_structural   Li8Ge8Pd8Au8C
_chemical_formula_sum   'Li8 Ge8 Pd8 Au8 C1'
_cell_volume   1502.98213472
_cell_formula_units_Z   1
loop_
 _symmetry_equiv_pos_site_id
 _symmetry_equiv_pos_as_xyz
  1  'x, y, z'
loop_
 _atom_site_type_symbol
 _atom_site_label
 _atom_site_symmetry_multiplicity
 _atom_site_fract_x
 _atom_site_fract_y
 _atom_site_fract_z
 _atom_site_occupancy
  Li  Li0  1  0.00000000  0.25000000  0.04179000  1.0
  Li  Li1  1  0.50000000  0.25000000  0.04179000  1.0
  Li  Li2  1  0.25000000  0.75000000  0.12537000  1.0
  Li  Li3  1  0.75000000  0.75000000  0.12537000  1.0
  Li  Li4  1  0.50000000  0.24644000  0.85415000  1.0
  Li  Li5  1  0.00000000  0.25776000  0.85926000  1.0
  Li  Li6  1  0.74209000  0.73974000  0.95953000  1.0
  Li  Li7  1  0.25791000  0.73974000  0.95953000  1.0
  Ge  Ge8  1  0.00000000  0.75000000  0.04179000  1.0
  Ge  Ge9  1  0.50000000  0.75000000  0.04179000  1.0
  Ge  Ge10  1  0.25000000  0.25000000  0.12537000  1.0
  Ge  Ge11  1  0.75000000  0.25000000  0.12537000  1.0
  Ge  Ge12  1  0.50000000  0.75262000  0.86570000  1.0
  Ge  Ge13  1  0.00000000  0.86171000  0.85616000  1.0
  Ge  Ge14  1  0.74990000  0.25388000  0.95927000  1.0
  Ge  Ge15  1  0.25010000  0.25388000  0.95927000  1.0
  Pd  Pd16  1  0.25000000  0.00000000  0.04179000  1.0
  Pd  Pd17  1  0.75000000  0.00000000  0.04179000  1.0
  Pd  Pd18  1  0.50000000  0.50000000  0.12537000  1.0
  Pd  Pd19  1  0.00000000  0.50000000  0.12537000  1.0
  Pd  Pd20  1  0.73949000  0.00049000  0.88280000  1.0
  Pd  Pd21  1  0.26051000  0.00049000  0.88280000  1.0
  Pd  Pd22  1  0.00000000  0.52297000  0.95478000  1.0
  Pd  Pd23  1  0.50000000  0.46103000  0.93913000  1.0
  Au  Au24  1  0.00000000  0.00000000  0.12537000  1.0
  Au  Au25  1  0.50000000  0.00000000  0.12537000  1.0
  Au  Au26  1  0.75000000  0.50000000  0.04179000  1.0
  Au  Au27  1  0.25000000  0.50000000  0.04179000  1.0
  Au  Au28  1  0.50000000  0.98367000  0.95679000  1.0
  Au  Au29  1  0.00000000  0.99845000  0.95629000  1.0
  Au  Au30  1  0.24637000  0.52041000  0.87371000  1.0
  Au  Au31  1  0.75363000  0.52041000  0.87371000  1.0
  C  C32  1  0.00000000  0.57230000  0.87459000  1.0
