# generated using pymatgen
data_Li16Ga8Pt8CO
_symmetry_space_group_name_H-M   'P 1'
_cell_length_a   6.10853000
_cell_length_b   8.63876000
_cell_length_c   26.47910000
_cell_angle_alpha   90.00000000
_cell_angle_beta   90.00000000
_cell_angle_gamma   90.00000000
_symmetry_Int_Tables_number   1
_chemical_formula_structural   Li16Ga8Pt8CO
_chemical_formula_sum   'Li16 Ga8 Pt8 C1 O1'
_cell_volume   1397.30540690
_cell_formula_units_Z   1
loop_
 _symmetry_equiv_pos_site_id
 _symmetry_equiv_pos_as_xyz
  1  'x, y, z'
loop_
 _atom_site_type_symbol
 _atom_site_label
 _atom_site_symmetry_multiplicity
 _atom_site_fract_x
 _atom_site_fract_y
 _atom_site_fract_z
 _atom_site_occupancy
  Li  Li0  1  0.00000000  0.75000000  0.95922000  1.0
  Li  Li1  1  0.50000000  0.00000000  0.87766000  1.0
  Li  Li2  1  0.00000000  0.25000000  0.95922000  1.0
  Li  Li3  1  0.50000000  0.50000000  0.87766000  1.0
  Li  Li4  1  0.25000000  0.25000000  0.87766000  1.0
  Li  Li5  1  0.25000000  0.75000000  0.87766000  1.0
  Li  Li6  1  0.75000000  0.50000000  0.95922000  1.0
  Li  Li7  1  0.75000000  0.00000000  0.95922000  1.0
  Li  Li8  1  0.00636000  0.24861000  0.12178000  1.0
  Li  Li9  1  0.50585000  0.50001000  0.03935000  1.0
  Li  Li10  1  0.00633000  0.75141000  0.12177000  1.0
  Li  Li11  1  0.51291000  0.99999000  0.04061000  1.0
  Li  Li12  1  0.24580000  0.75102000  0.03689000  1.0
  Li  Li13  1  0.24578000  0.24899000  0.03689000  1.0
  Li  Li14  1  0.72650000  0.99998000  0.13725000  1.0
  Li  Li15  1  0.72955000  0.50000000  0.12942000  1.0
  Ga  Ga16  1  0.25000000  0.00000000  0.95922000  1.0
  Ga  Ga17  1  0.25000000  0.50000000  0.95922000  1.0
  Ga  Ga18  1  0.75000000  0.75000000  0.87766000  1.0
  Ga  Ga19  1  0.75000000  0.25000000  0.87766000  1.0
  Ga  Ga20  1  0.26235000  0.49998000  0.12319000  1.0
  Ga  Ga21  1  0.26716000  0.00001000  0.12203000  1.0
  Ga  Ga22  1  0.75439000  0.25060000  0.04025000  1.0
  Ga  Ga23  1  0.75438000  0.74944000  0.04025000  1.0
  Pt  Pt24  1  0.00000000  0.00000000  0.87766000  1.0
  Pt  Pt25  1  0.50000000  0.25000000  0.95922000  1.0
  Pt  Pt26  1  0.50000000  0.75000000  0.95922000  1.0
  Pt  Pt27  1  0.00000000  0.50000000  0.87766000  1.0
  Pt  Pt28  1  0.99896000  0.50000000  0.04300000  1.0
  Pt  Pt29  1  0.48394000  0.74875000  0.11383000  1.0
  Pt  Pt30  1  0.48397000  0.25124000  0.11385000  1.0
  Pt  Pt31  1  0.99516000  0.00002000  0.04443000  1.0
  C  C32  1  0.87194000  0.99946000  0.21032000  1.0
  O  O33  1  0.93870000  0.99920000  0.25067000  1.0
