# generated using pymatgen
data_Sc4Cu4Ge4Pd4CO
_symmetry_space_group_name_H-M   'P 1'
_cell_length_a   6.33395000
_cell_length_b   6.33395000
_cell_length_c   24.75050000
_cell_angle_alpha   90.00000000
_cell_angle_beta   90.00000000
_cell_angle_gamma   90.00000000
_symmetry_Int_Tables_number   1
_chemical_formula_structural   Sc4Cu4Ge4Pd4CO
_chemical_formula_sum   'Sc4 Cu4 Ge4 Pd4 C1 O1'
_cell_volume   992.96339387
_cell_formula_units_Z   1
loop_
 _symmetry_equiv_pos_site_id
 _symmetry_equiv_pos_as_xyz
  1  'x, y, z'
loop_
 _atom_site_type_symbol
 _atom_site_label
 _atom_site_symmetry_multiplicity
 _atom_site_fract_x
 _atom_site_fract_y
 _atom_site_fract_z
 _atom_site_occupancy
  Sc  Sc0  1  0.50000000  0.00000000  0.96801000  1
  Sc  Sc1  1  0.00000000  0.00000000  0.09597000  1
  Sc  Sc2  1  0.50000000  0.50000000  0.09597000  1
  Sc  Sc3  1  1.00000000  0.50000000  0.96801000  1
  Cu  Cu4  1  0.75000000  0.25000000  0.90403000  1
  Cu  Cu5  1  0.25000000  0.25000000  0.03199000  1
  Cu  Cu6  1  0.75000000  0.75000000  0.03199000  1
  Cu  Cu7  1  0.25000000  0.75000000  0.90403000  1
  Ge  Ge8  1  0.50000000  0.50000000  0.96801000  1
  Ge  Ge9  1  1.00000000  0.50000000  0.09597000  1
  Ge  Ge10  1  0.50000000  0.00000000  0.09597000  1
  Ge  Ge11  1  0.00000000  0.00000000  0.96801000  1
  Pd  Pd12  1  0.25000000  0.25000000  0.90403000  1
  Pd  Pd13  1  0.75000000  0.25000000  0.03199000  1
  Pd  Pd14  1  0.25000000  0.75000000  0.03199000  1
  Pd  Pd15  1  0.75000000  0.75000000  0.90403000  1
  C  C16  1  0.50000000  0.50000000  0.17273000  1
  O  O17  1  0.50000000  0.50000000  0.21920000  1
