# generated using pymatgen
data_Li8Y8Ag8Sn8C
_symmetry_space_group_name_H-M   P1
_cell_length_a   7.11214000
_cell_length_b   10.05810000
_cell_length_c   27.54360000
_cell_angle_alpha   90.00000000
_cell_angle_beta   90.00000000
_cell_angle_gamma   90.00000000
_symmetry_Int_Tables_number   1
_chemical_formula_structural   Li8Y8Ag8Sn8C
_chemical_formula_sum   'Li8 Y8 Ag8 Sn8 C1'
_cell_volume   1970.32083091
_cell_formula_units_Z   1
loop_
 _symmetry_equiv_pos_site_id
 _symmetry_equiv_pos_as_xyz
  1  'x, y, z'
loop_
 _atom_site_type_symbol
 _atom_site_label
 _atom_site_symmetry_multiplicity
 _atom_site_fract_x
 _atom_site_fract_y
 _atom_site_fract_z
 _atom_site_occupancy
  Li  Li0  1  0.24315000  0.47121000  0.13635000  1.0
  Li  Li1  1  0.24333000  0.02923000  0.13638000  1.0
  Li  Li2  1  0.25000000  0.00000000  0.95435000  1.0
  Li  Li3  1  0.25000000  0.50000000  0.95435000  1.0
  Li  Li4  1  0.74651000  0.24995000  0.04454000  1.0
  Li  Li5  1  0.74836000  0.75037000  0.04199000  1.0
  Li  Li6  1  0.75000000  0.25000000  0.86306000  1.0
  Li  Li7  1  0.75000000  0.75000000  0.86306000  1.0
  Y  Y8  1  0.23894000  0.74999000  0.04920000  1.0
  Y  Y9  1  0.25000000  0.25000000  0.86306000  1.0
  Y  Y10  1  0.25000000  0.75000000  0.86306000  1.0
  Y  Y11  1  0.25524000  0.25020000  0.05351000  1.0
  Y  Y12  1  0.75000000  0.00000000  0.95435000  1.0
  Y  Y13  1  0.75000000  0.50000000  0.95435000  1.0
  Y  Y14  1  0.75105000  0.96536000  0.13706000  1.0
  Y  Y15  1  0.75171000  0.53462000  0.13703000  1.0
  Ag  Ag16  1  0.00000000  0.00000000  0.86306000  1.0
  Ag  Ag17  1  0.00000000  0.50000000  0.86306000  1.0
  Ag  Ag18  1  0.45179000  0.74983000  0.14254000  1.0
  Ag  Ag19  1  0.50000000  0.25000000  0.95435000  1.0
  Ag  Ag20  1  0.50000000  0.75000000  0.95435000  1.0
  Ag  Ag21  1  0.54692000  0.25011000  0.14836000  1.0
  Ag  Ag22  1  0.99060000  0.49506000  0.04549000  1.0
  Ag  Ag23  1  0.99077000  0.00512000  0.04558000  1.0
  Sn  Sn24  1  0.00000000  0.25000000  0.95435000  1.0
  Sn  Sn25  1  0.00000000  0.75000000  0.95435000  1.0
  Sn  Sn26  1  0.04636000  0.75035000  0.15275000  1.0
  Sn  Sn27  1  0.50000000  0.00000000  0.86306000  1.0
  Sn  Sn28  1  0.50000000  0.50000000  0.86306000  1.0
  Sn  Sn29  1  0.50330000  0.99552000  0.04600000  1.0
  Sn  Sn30  1  0.50370000  0.50461000  0.04603000  1.0
  Sn  Sn31  1  0.95163000  0.24962000  0.14494000  1.0
  C  C32  1  0.25277000  0.25061000  0.13661000  1.0
