# generated using pymatgen
data_SiRh
_symmetry_space_group_name_H-M   'P 1'
_cell_length_a   8.42507000
_cell_length_b   2.97871500
_cell_length_c   26.31880000
_cell_angle_alpha   90.00000000
_cell_angle_beta   90.00000000
_cell_angle_gamma   90.00000000
_symmetry_Int_Tables_number   1
_chemical_formula_structural   SiRh
_chemical_formula_sum   'Si8 Rh8'
_cell_volume   660.49350932
_cell_formula_units_Z   8
loop_
 _symmetry_equiv_pos_site_id
 _symmetry_equiv_pos_as_xyz
  1  'x, y, z'
loop_
 _atom_site_type_symbol
 _atom_site_label
 _atom_site_symmetry_multiplicity
 _atom_site_fract_x
 _atom_site_fract_y
 _atom_site_fract_z
 _atom_site_occupancy
  Si  Si0  1  0.25000000  0.50000000  0.12004000  1.0
  Si  Si1  1  0.00000000  0.50000000  0.04001000  1.0
  Si  Si2  1  0.24998500  0.50000000  0.95710000  1.0
  Si  Si3  1  0.49998000  0.50000000  0.87714500  1.0
  Si  Si4  1  0.75000000  0.50000000  0.12004000  1.0
  Si  Si5  1  0.50000000  0.50000000  0.04001000  1.0
  Si  Si6  1  0.74999000  0.50000000  0.95710000  1.0
  Si  Si7  1  0.99998000  0.50000000  0.87713000  1.0
  Rh  Rh8  1  0.00000000  0.00000000  0.12004000  1.0
  Rh  Rh9  1  0.25000000  0.00000000  0.04001000  1.0
  Rh  Rh10  1  0.00019500  0.00000000  0.96199000  1.0
  Rh  Rh11  1  0.24981500  0.00000000  0.88539000  1.0
  Rh  Rh12  1  0.50000000  0.00000000  0.12004000  1.0
  Rh  Rh13  1  0.75000000  0.00000000  0.04001000  1.0
  Rh  Rh14  1  0.49995000  0.00000000  0.96188500  1.0
  Rh  Rh15  1  0.75017500  0.00000000  0.88540500  1.0
