data_image0
_chemical_formula_structural       Ta4Ir12CO
_chemical_formula_sum              "Ta4 Ir12 C1 O1"
_cell_length_a       7.86698
_cell_length_b       5.56279
_cell_length_c       24.1721
_cell_angle_alpha    90
_cell_angle_beta     90
_cell_angle_gamma    90

_space_group_name_H-M_alt    "P 1"
_space_group_IT_number       1

loop_
  _space_group_symop_operation_xyz
  'x, y, z'

loop_
  _atom_site_type_symbol
  _atom_site_label
  _atom_site_symmetry_multiplicity
  _atom_site_fract_x
  _atom_site_fract_y
  _atom_site_fract_z
  _atom_site_occupancy
  Ta  Ta1       1.0  0.00001  0.00000  0.08028  1.0000
  Ta  Ta2       1.0  0.00000  0.50000  0.97123  1.0000
  Ta  Ta3       1.0  0.49999  1.00000  0.07542  1.0000
  Ta  Ta4       1.0  0.50000  0.50000  0.97123  1.0000
  Ir  Ir1       1.0  0.99999  0.50000  0.08242  1.0000
  Ir  Ir2       1.0  0.24729  0.75096  0.03279  1.0000
  Ir  Ir3       1.0  0.24729  0.24904  0.03279  1.0000
  Ir  Ir4       1.0  0.00000  0.00000  0.97123  1.0000
  Ir  Ir5       1.0  0.25000  0.25000  0.91370  1.0000
  Ir  Ir6       1.0  0.25000  0.75000  0.91370  1.0000
  Ir  Ir7       1.0  0.50001  0.50000  0.08047  1.0000
  Ir  Ir8       1.0  0.75271  0.75096  0.03279  1.0000
  Ir  Ir9       1.0  0.75271  0.24903  0.03279  1.0000
  Ir  Ir10      1.0  0.50000  0.00000  0.97123  1.0000
  Ir  Ir11      1.0  0.75000  0.25000  0.91370  1.0000
  Ir  Ir12      1.0  0.75000  0.75000  0.91370  1.0000
  C   C1        1.0  1.00000  1.00000  0.17214  1.0000
  O   O1        1.0  1.00000  1.00000  0.21969  1.0000
