# generated using pymatgen
data_Sc4Rh12C
_symmetry_space_group_name_H-M   'P 1'
_cell_length_a   5.57908000
_cell_length_b   7.89001000
_cell_length_c   24.18430000
_cell_angle_alpha   90.00000000
_cell_angle_beta   90.00000000
_cell_angle_gamma   90.00000000
_symmetry_Int_Tables_number   1
_chemical_formula_structural   Sc4Rh12C
_chemical_formula_sum   'Sc4 Rh12 C1'
_cell_volume   1064.56862892
_cell_formula_units_Z   1
loop_
 _symmetry_equiv_pos_site_id
 _symmetry_equiv_pos_as_xyz
  1  'x, y, z'
loop_
 _atom_site_type_symbol
 _atom_site_label
 _atom_site_symmetry_multiplicity
 _atom_site_fract_x
 _atom_site_fract_y
 _atom_site_fract_z
 _atom_site_occupancy
  Sc  Sc0  1  0.00000000  0.00000000  0.08651000  1.0
  Sc  Sc1  1  0.50000000  0.00000000  0.98567000  1.0
  Sc  Sc2  1  0.00000000  0.50000000  0.08651000  1.0
  Sc  Sc3  1  0.50000000  0.50000000  0.96274000  1.0
  Rh  Rh4  1  0.50000000  0.00000000  0.08651000  1.0
  Rh  Rh5  1  0.75000000  0.25000000  0.02884000  1.0
  Rh  Rh6  1  0.25000000  0.25000000  0.02884000  1.0
  Rh  Rh7  1  0.00000000  0.00000000  0.98091000  1.0
  Rh  Rh8  1  0.25161000  0.18675000  0.91077000  1.0
  Rh  Rh9  1  0.74839000  0.18675000  0.91077000  1.0
  Rh  Rh10  1  0.50000000  0.50000000  0.08651000  1.0
  Rh  Rh11  1  0.75000000  0.75000000  0.02884000  1.0
  Rh  Rh12  1  0.25000000  0.75000000  0.02884000  1.0
  Rh  Rh13  1  0.00000000  0.50000000  0.97052000  1.0
  Rh  Rh14  1  0.25161000  0.81325000  0.91077000  1.0
  Rh  Rh15  1  0.74839000  0.81325000  0.91077000  1.0
  C  C16  1  0.50000000  0.00000000  0.89252000  1.0
