# generated using pymatgen
data_Y4Sc4In4Pd4C
_symmetry_space_group_name_H-M   'P 1'
_cell_length_a   7.36232000
_cell_length_b   6.98742000
_cell_length_c   25.23460000
_cell_angle_alpha   90.00000000
_cell_angle_beta   90.00000000
_cell_angle_gamma   90.00000000
_symmetry_Int_Tables_number   1
_chemical_formula_structural   Y4Sc4In4Pd4C
_chemical_formula_sum   'Y4 Sc4 In4 Pd4 C1'
_cell_volume   1298.15922408
_cell_formula_units_Z   1
loop_
 _symmetry_equiv_pos_site_id
 _symmetry_equiv_pos_as_xyz
  1  'x, y, z'
loop_
 _atom_site_type_symbol
 _atom_site_label
 _atom_site_symmetry_multiplicity
 _atom_site_fract_x
 _atom_site_fract_y
 _atom_site_fract_z
 _atom_site_occupancy
  Y  Y0  1  0.74997000  0.26196000  0.96543000  1.0
  Y  Y1  1  0.76997000  0.79535000  0.10566000  1.0
  Y  Y2  1  0.25003000  0.26196000  0.96543000  1.0
  Y  Y3  1  0.23003000  0.79535000  0.10566000  1.0
  Sc  Sc4  1  0.74997000  0.76196000  0.96543000  1.0
  Sc  Sc5  1  0.79064000  0.31370000  0.10992000  1.0
  Sc  Sc6  1  0.25003000  0.76196000  0.96543000  1.0
  Sc  Sc7  1  0.20936000  0.31370000  0.10992000  1.0
  In  In8  1  0.00000000  0.00000000  0.89628000  1.0
  In  In9  1  0.00000000  0.53060000  0.02956000  1.0
  In  In10  1  0.50000000  0.00000000  0.89628000  1.0
  In  In11  1  0.50000000  0.52537000  0.04510000  1.0
  Pd  Pd12  1  0.00000000  0.50000000  0.89628000  1.0
  Pd  Pd13  1  0.00000000  0.06256000  0.04649000  1.0
  Pd  Pd14  1  0.50000000  0.50000000  0.89628000  1.0
  Pd  Pd15  1  0.50000000  0.97314000  0.02744000  1.0
  C  C16  1  0.00000000  0.53521000  0.12345000  1.0
