# generated using pymatgen
data_Y4Sc4In4Pd4C
_symmetry_space_group_name_H-M   Pm
_cell_length_a   6.98742000
_cell_length_b   7.36232000
_cell_length_c   25.23460000
_cell_angle_alpha   90.00000000
_cell_angle_beta   90.00000000
_cell_angle_gamma   90.00000000
_symmetry_Int_Tables_number   6
_chemical_formula_structural   Y4Sc4In4Pd4C
_chemical_formula_sum   'Y4 Sc4 In4 Pd4 C1'
_cell_volume   1298.15922408
_cell_formula_units_Z   1
loop_
 _symmetry_equiv_pos_site_id
 _symmetry_equiv_pos_as_xyz
  1  'x, y, z'
  2  'x, -y, z'
loop_
 _atom_site_type_symbol
 _atom_site_label
 _atom_site_symmetry_multiplicity
 _atom_site_fract_x
 _atom_site_fract_y
 _atom_site_fract_z
 _atom_site_occupancy
  Y  Y0  2  0.26196000  0.25003000  0.03457000  1.0
  Y  Y1  2  0.79535000  0.23003000  0.89434000  1.0
  Sc  Sc2  2  0.31370000  0.20936000  0.89008000  1.0
  Sc  Sc3  2  0.76196000  0.25003000  0.03457000  1.0
  In  In4  1  0.00000000  0.00000000  0.10372000  1.0
  In  In5  1  0.00000000  0.50000000  0.10372000  1.0
  In  In6  1  0.52537000  0.50000000  0.95490000  1.0
  In  In7  1  0.53060000  0.00000000  0.97044000  1.0
  Pd  Pd8  1  0.06256000  0.00000000  0.95351000  1.0
  Pd  Pd9  1  0.50000000  0.00000000  0.10372000  1.0
  Pd  Pd10  1  0.50000000  0.50000000  0.10372000  1.0
  Pd  Pd11  1  0.97314000  0.50000000  0.97256000  1.0
  C  C12  1  0.53521000  0.00000000  0.87655000  1.0
