# generated using pymatgen
data_Li8Mg4Pb4CO
_symmetry_space_group_name_H-M   'P 1'
_cell_length_a   6.88544000
_cell_length_b   6.88544000
_cell_length_c   25.16410000
_cell_angle_alpha   90.00000000
_cell_angle_beta   90.00000000
_cell_angle_gamma   90.00000000
_symmetry_Int_Tables_number   1
_chemical_formula_structural   Li8Mg4Pb4CO
_chemical_formula_sum   'Li8 Mg4 Pb4 C1 O1'
_cell_volume   1193.01196334
_cell_formula_units_Z   1
loop_
 _symmetry_equiv_pos_site_id
 _symmetry_equiv_pos_as_xyz
  1  'x, y, z'
loop_
 _atom_site_type_symbol
 _atom_site_label
 _atom_site_symmetry_multiplicity
 _atom_site_fract_x
 _atom_site_fract_y
 _atom_site_fract_z
 _atom_site_occupancy
  Li  Li0  1  0.50000000  0.50000000  0.96580000  1
  Li  Li1  1  0.00000000  0.00000000  0.10261000  1
  Li  Li2  1  0.50000000  0.00000000  0.96580000  1
  Li  Li3  1  1.00000000  0.50000000  0.10261000  1
  Li  Li4  1  0.00000000  0.00000000  0.96580000  1
  Li  Li5  1  0.50000000  0.50000000  0.10261000  1
  Li  Li6  1  1.00000000  0.50000000  0.96580000  1
  Li  Li7  1  0.50000000  0.00000000  0.10261000  1
  Mg  Mg8  1  0.75000000  0.25000000  0.89739000  1
  Mg  Mg9  1  0.25000000  0.75000000  0.89739000  1
  Mg  Mg10  1  0.75000000  0.75000000  0.03420000  1
  Mg  Mg11  1  0.25000000  0.25000000  0.03420000  1
  Pb  Pb12  1  0.75000000  0.25000000  0.03420000  1
  Pb  Pb13  1  0.75000000  0.75000000  0.89739000  1
  Pb  Pb14  1  0.25000000  0.25000000  0.89739000  1
  Pb  Pb15  1  0.25000000  0.75000000  0.03420000  1
  C  C16  1  0.50000000  0.50000000  0.17811000  1
  O  O17  1  0.50000000  0.50000000  0.22381000  1
