# generated using pymatgen
data_Sc16Rh16CO
_symmetry_space_group_name_H-M   Pmm2
_cell_length_a   6.47981000
_cell_length_b   9.16384000
_cell_length_c   26.87290000
_cell_angle_alpha   90.00000000
_cell_angle_beta   90.00000000
_cell_angle_gamma   90.00000000
_symmetry_Int_Tables_number   25
_chemical_formula_structural   Sc16Rh16CO
_chemical_formula_sum   'Sc16 Rh16 C1 O1'
_cell_volume   1595.71124526
_cell_formula_units_Z   1
loop_
 _symmetry_equiv_pos_site_id
 _symmetry_equiv_pos_as_xyz
  1  'x, y, z'
  2  '-x, -y, z'
  3  '-x, y, z'
  4  'x, -y, z'
loop_
 _atom_site_type_symbol
 _atom_site_label
 _atom_site_symmetry_multiplicity
 _atom_site_fract_x
 _atom_site_fract_y
 _atom_site_fract_z
 _atom_site_occupancy
  Sc  Sc0  2  0.00000000  0.24999000  0.04385000  1.0
  Sc  Sc1  2  0.00000000  0.25000000  0.87212000  1.0
  Sc  Sc2  2  0.50000000  0.24976000  0.04386000  1.0
  Sc  Sc3  2  0.50000000  0.25000000  0.87212000  1.0
  Sc  Sc4  1  0.00000000  0.00000000  0.13086000  1.0
  Sc  Sc5  1  0.00000000  0.00000000  0.95737000  1.0
  Sc  Sc6  1  0.00000000  0.50000000  0.12993000  1.0
  Sc  Sc7  1  0.00000000  0.50000000  0.95737000  1.0
  Sc  Sc8  1  0.50000000  0.00000000  0.13048000  1.0
  Sc  Sc9  1  0.50000000  0.00000000  0.95737000  1.0
  Sc  Sc10  1  0.50000000  0.50000000  0.13030000  1.0
  Sc  Sc11  1  0.50000000  0.50000000  0.95737000  1.0
  Rh  Rh12  4  0.25000000  0.25000000  0.95737000  1.0
  Rh  Rh13  4  0.25147000  0.25238000  0.12293000  1.0
  Rh  Rh14  2  0.25000000  0.00000000  0.87212000  1.0
  Rh  Rh15  2  0.25000000  0.50000000  0.87212000  1.0
  Rh  Rh16  2  0.25047000  0.50000000  0.04369000  1.0
  Rh  Rh17  2  0.25083000  0.00000000  0.04364000  1.0
  C  C18  1  0.00000000  0.00000000  0.21772000  1.0
  O  O19  1  0.00000000  0.00000000  0.26042000  1.0
