data_image0
_chemical_formula_structural       Y4In4Ge4Pd4CO
_chemical_formula_sum              "Y4 In4 Ge4 Pd4 C1 O1"
_cell_length_a       6.1705
_cell_length_b       8.87204
_cell_length_c       24.5583
_cell_angle_alpha    90
_cell_angle_beta     90
_cell_angle_gamma    90

_space_group_name_H-M_alt    "P 1"
_space_group_IT_number       1

loop_
  _space_group_symop_operation_xyz
  'x, y, z'

loop_
  _atom_site_type_symbol
  _atom_site_label
  _atom_site_symmetry_multiplicity
  _atom_site_fract_x
  _atom_site_fract_y
  _atom_site_fract_z
  _atom_site_occupancy
  Y   Y1        1.0  0.20196  0.24817  0.03247  1.0000
  Y   Y2        1.0  0.62042  0.25000  0.90719  1.0000
  Y   Y3        1.0  0.20212  0.75182  0.03241  1.0000
  Y   Y4        1.0  0.62042  0.75000  0.90719  1.0000
  In  In1       1.0  0.60750  0.00013  0.08865  1.0000
  In  In2       1.0  0.91361  0.00000  0.96906  1.0000
  In  In3       1.0  0.49928  0.50004  0.09486  1.0000
  In  In4       1.0  0.91361  0.50000  0.96906  1.0000
  Ge  Ge1       1.0  0.08256  0.99980  0.10753  1.0000
  Ge  Ge2       1.0  0.41361  0.00000  0.96906  1.0000
  Ge  Ge3       1.0  0.93953  0.50019  0.08239  1.0000
  Ge  Ge4       1.0  0.41361  0.50000  0.96906  1.0000
  Pd  Pd1       1.0  0.69352  0.26289  0.02505  1.0000
  Pd  Pd2       1.0  0.12042  0.25000  0.90719  1.0000
  Pd  Pd3       1.0  0.69363  0.73729  0.02505  1.0000
  Pd  Pd4       1.0  0.12042  0.75000  0.90719  1.0000
  C   C1        1.0  0.05169  0.99992  0.18517  1.0000
  O   O1        1.0  0.01498  0.00006  0.23153  1.0000
