# generated using pymatgen
data_Li8Mg8Al8Ag8C
_symmetry_space_group_name_H-M   'P 1'
_cell_length_a   9.10182000
_cell_length_b   6.43596000
_cell_length_c   26.82640000
_cell_angle_alpha   90.00000000
_cell_angle_beta   90.00000000
_cell_angle_gamma   90.00000000
_symmetry_Int_Tables_number   1
_chemical_formula_structural   Li8Mg8Al8Ag8C
_chemical_formula_sum   'Li8 Mg8 Al8 Ag8 C1'
_cell_volume   1571.46232945
_cell_formula_units_Z   1
loop_
 _symmetry_equiv_pos_site_id
 _symmetry_equiv_pos_as_xyz
  1  'x, y, z'
loop_
 _atom_site_type_symbol
 _atom_site_label
 _atom_site_symmetry_multiplicity
 _atom_site_fract_x
 _atom_site_fract_y
 _atom_site_fract_z
 _atom_site_occupancy
  Li  Li0  1  0.00000000  1.00000000  0.04241000  1.0
  Li  Li1  1  0.50000000  1.00000000  0.04241000  1.0
  Li  Li2  1  0.25000000  0.50000000  0.12723000  1.0
  Li  Li3  1  0.75000000  0.50000000  0.12723000  1.0
  Li  Li4  1  0.50000000  0.07767000  0.84118000  1.0
  Li  Li5  1  0.00000000  0.96160000  0.82555000  1.0
  Li  Li6  1  0.74976000  0.51067000  0.95231000  1.0
  Li  Li7  1  0.25024000  0.51067000  0.95231000  1.0
  Mg  Mg8  1  0.75000000  0.75000000  0.04241000  1.0
  Mg  Mg9  1  0.25000000  0.75000000  0.04241000  1.0
  Mg  Mg10  1  0.00000000  0.25000000  0.12723000  1.0
  Mg  Mg11  1  0.50000000  0.25000000  0.12723000  1.0
  Mg  Mg12  1  0.26984000  0.77175000  0.86523000  1.0
  Mg  Mg13  1  0.73016000  0.77175000  0.86523000  1.0
  Mg  Mg14  1  0.50000000  0.24472000  0.95705000  1.0
  Mg  Mg15  1  0.00000000  0.24241000  0.95108000  1.0
  Al  Al16  1  0.75000000  0.25000000  0.04241000  1.0
  Al  Al17  1  0.25000000  0.25000000  0.04241000  1.0
  Al  Al18  1  0.00000000  0.75000000  0.12723000  1.0
  Al  Al19  1  0.50000000  0.75000000  0.12723000  1.0
  Al  Al20  1  0.21500000  0.23130000  0.86575000  1.0
  Al  Al21  1  0.78500000  0.23130000  0.86575000  1.0
  Al  Al22  1  0.50000000  0.75838000  0.95268000  1.0
  Al  Al23  1  0.00000000  0.76982000  0.95545000  1.0
  Ag  Ag24  1  0.75000000  0.00000000  0.12723000  1.0
  Ag  Ag25  1  0.25000000  0.00000000  0.12723000  1.0
  Ag  Ag26  1  0.50000000  0.50000000  0.04241000  1.0
  Ag  Ag27  1  0.00000000  0.50000000  0.04241000  1.0
  Ag  Ag28  1  0.25399000  0.99900000  0.96010000  1.0
  Ag  Ag29  1  0.74601000  0.99900000  0.96010000  1.0
  Ag  Ag30  1  0.00000000  0.57257000  0.87059000  1.0
  Ag  Ag31  1  0.50000000  0.48527000  0.87256000  1.0
  C  C32  1  0.00000000  0.22755000  0.86547000  1.0
