# generated using pymatgen
data_Li8Mg8Al8Ag8C
_symmetry_space_group_name_H-M   Pm
_cell_length_a   6.43596000
_cell_length_b   9.10182000
_cell_length_c   26.82640000
_cell_angle_alpha   90.00000000
_cell_angle_beta   90.00000000
_cell_angle_gamma   90.00000000
_symmetry_Int_Tables_number   6
_chemical_formula_structural   Li8Mg8Al8Ag8C
_chemical_formula_sum   'Li8 Mg8 Al8 Ag8 C1'
_cell_volume   1571.46232945
_cell_formula_units_Z   1
loop_
 _symmetry_equiv_pos_site_id
 _symmetry_equiv_pos_as_xyz
  1  'x, y, z'
  2  'x, -y, z'
loop_
 _atom_site_type_symbol
 _atom_site_label
 _atom_site_symmetry_multiplicity
 _atom_site_fract_x
 _atom_site_fract_y
 _atom_site_fract_z
 _atom_site_occupancy
  Li  Li0  2  0.50000000  0.25000000  0.87277000  1.0
  Li  Li1  2  0.51067000  0.25024000  0.04769000  1.0
  Li  Li2  1  -0.00000000  0.50000000  0.95759000  1.0
  Li  Li3  1  -0.00000000  0.00000000  0.95759000  1.0
  Li  Li4  1  0.07767000  0.50000000  0.15882000  1.0
  Li  Li5  1  0.96160000  0.00000000  0.17445000  1.0
  Mg  Mg6  2  0.75000000  0.25000000  0.95759000  1.0
  Mg  Mg7  2  0.77175000  0.26984000  0.13477000  1.0
  Mg  Mg8  1  0.24241000  0.00000000  0.04892000  1.0
  Mg  Mg9  1  0.24472000  0.50000000  0.04295000  1.0
  Mg  Mg10  1  0.25000000  0.00000000  0.87277000  1.0
  Mg  Mg11  1  0.25000000  0.50000000  0.87277000  1.0
  Al  Al12  2  0.23130000  0.21500000  0.13425000  1.0
  Al  Al13  2  0.25000000  0.25000000  0.95759000  1.0
  Al  Al14  1  0.75000000  0.00000000  0.87277000  1.0
  Al  Al15  1  0.75000000  0.50000000  0.87277000  1.0
  Al  Al16  1  0.75838000  0.50000000  0.04732000  1.0
  Al  Al17  1  0.76982000  0.00000000  0.04455000  1.0
  Ag  Ag18  2  0.00000000  0.25000000  0.87277000  1.0
  Ag  Ag19  2  0.99900000  0.25399000  0.03990000  1.0
  Ag  Ag20  1  0.48527000  0.50000000  0.12744000  1.0
  Ag  Ag21  1  0.50000000  0.00000000  0.95759000  1.0
  Ag  Ag22  1  0.50000000  0.50000000  0.95759000  1.0
  Ag  Ag23  1  0.57257000  0.00000000  0.12941000  1.0
  C  C24  1  0.22755000  0.00000000  0.13453000  1.0
