data_image0
_chemical_formula_structural       Sc8In8Pt16C
_chemical_formula_sum              "Sc8 In8 Pt16 C1"
_cell_length_a       6.63475
_cell_length_b       9.38295
_cell_length_c       27.0372
_cell_angle_alpha    90
_cell_angle_beta     90
_cell_angle_gamma    90

_space_group_name_H-M_alt    "P 1"
_space_group_IT_number       1

loop_
  _space_group_symop_operation_xyz
  'x, y, z'

loop_
  _atom_site_type_symbol
  _atom_site_label
  _atom_site_symmetry_multiplicity
  _atom_site_fract_x
  _atom_site_fract_y
  _atom_site_fract_z
  _atom_site_occupancy
  Sc  Sc1       1.0  0.00000  0.00000  0.86986  1.0000
  Sc  Sc2       1.0  0.50000  0.25000  0.95662  1.0000
  Sc  Sc3       1.0  0.50000  0.75000  0.95662  1.0000
  Sc  Sc4       1.0  0.00000  0.50000  0.86986  1.0000
  Sc  Sc5       1.0  0.99307  0.50756  0.04310  1.0000
  Sc  Sc6       1.0  0.49895  0.75000  0.12702  1.0000
  Sc  Sc7       1.0  0.54454  0.25000  0.12870  1.0000
  Sc  Sc8       1.0  0.99307  0.99244  0.04309  1.0000
  In  In1       1.0  0.00000  0.75000  0.95662  1.0000
  In  In2       1.0  0.50000  0.00000  0.86986  1.0000
  In  In3       1.0  0.00000  0.25000  0.95662  1.0000
  In  In4       1.0  0.50000  0.50000  0.86986  1.0000
  In  In5       1.0  0.94282  0.25000  0.17017  1.0000
  In  In6       1.0  0.49438  0.49136  0.04446  1.0000
  In  In7       1.0  0.01952  0.75000  0.13713  1.0000
  In  In8       1.0  0.49437  0.00864  0.04446  1.0000
  Pt  Pt1       1.0  0.25000  0.00000  0.95662  1.0000
  Pt  Pt2       1.0  0.75000  0.50000  0.95662  1.0000
  Pt  Pt3       1.0  0.75000  0.00000  0.95662  1.0000
  Pt  Pt4       1.0  0.25000  0.50000  0.95662  1.0000
  Pt  Pt5       1.0  0.75000  0.75000  0.86986  1.0000
  Pt  Pt6       1.0  0.25000  0.25000  0.86986  1.0000
  Pt  Pt7       1.0  0.25000  0.75000  0.86986  1.0000
  Pt  Pt8       1.0  0.75000  0.25000  0.86986  1.0000
  Pt  Pt9       1.0  0.22357  0.48786  0.12505  1.0000
  Pt  Pt10      1.0  0.76195  0.98980  0.12598  1.0000
  Pt  Pt11      1.0  0.76195  0.51020  0.12598  1.0000
  Pt  Pt12      1.0  0.22357  0.01214  0.12505  1.0000
  Pt  Pt13      1.0  0.75711  0.25000  0.04190  1.0000
  Pt  Pt14      1.0  0.26314  0.75000  0.04259  1.0000
  Pt  Pt15      1.0  0.20613  0.25000  0.05160  1.0000
  Pt  Pt16      1.0  0.74358  0.75000  0.04434  1.0000
  C   C1        1.0  0.23365  0.25000  0.13037  1.0000
