# generated using pymatgen
data_Sc8In8Pt16C
_symmetry_space_group_name_H-M   'P 1'
_cell_length_a   9.38295000
_cell_length_b   6.63475000
_cell_length_c   27.03720000
_cell_angle_alpha   90.00000000
_cell_angle_beta   90.00000000
_cell_angle_gamma   90.00000000
_symmetry_Int_Tables_number   1
_chemical_formula_structural   Sc8In8Pt16C
_chemical_formula_sum   'Sc8 In8 Pt16 C1'
_cell_volume   1683.16107406
_cell_formula_units_Z   1
loop_
 _symmetry_equiv_pos_site_id
 _symmetry_equiv_pos_as_xyz
  1  'x, y, z'
loop_
 _atom_site_type_symbol
 _atom_site_label
 _atom_site_symmetry_multiplicity
 _atom_site_fract_x
 _atom_site_fract_y
 _atom_site_fract_z
 _atom_site_occupancy
  Sc  Sc0  1  0.75000000  0.00000000  0.13014000  1.0
  Sc  Sc1  1  0.00000000  0.50000000  0.04338000  1.0
  Sc  Sc2  1  0.50000000  0.50000000  0.04338000  1.0
  Sc  Sc3  1  0.25000000  0.00000000  0.13014000  1.0
  Sc  Sc4  1  0.25756000  0.99307000  0.95690000  1.0
  Sc  Sc5  1  0.50000000  0.49895000  0.87298000  1.0
  Sc  Sc6  1  0.00000000  0.54454000  0.87130000  1.0
  Sc  Sc7  1  0.74244000  0.99307000  0.95690000  1.0
  In  In8  1  0.50000000  1.00000000  0.04338000  1.0
  In  In9  1  0.75000000  0.50000000  0.13014000  1.0
  In  In10  1  0.00000000  1.00000000  0.04338000  1.0
  In  In11  1  0.25000000  0.50000000  0.13014000  1.0
  In  In12  1  0.00000000  0.94282000  0.82983000  1.0
  In  In13  1  0.24136000  0.49438000  0.95554000  1.0
  In  In14  1  0.50000000  0.01952000  0.86287000  1.0
  In  In15  1  0.75864000  0.49438000  0.95554000  1.0
  Pt  Pt16  1  0.75000000  0.25000000  0.04338000  1.0
  Pt  Pt17  1  0.25000000  0.75000000  0.04338000  1.0
  Pt  Pt18  1  0.75000000  0.75000000  0.04338000  1.0
  Pt  Pt19  1  0.25000000  0.25000000  0.04338000  1.0
  Pt  Pt20  1  0.50000000  0.75000000  0.13014000  1.0
  Pt  Pt21  1  0.00000000  0.25000000  0.13014000  1.0
  Pt  Pt22  1  0.50000000  0.25000000  0.13014000  1.0
  Pt  Pt23  1  0.00000000  0.75000000  0.13014000  1.0
  Pt  Pt24  1  0.23786000  0.22357000  0.87495000  1.0
  Pt  Pt25  1  0.73980000  0.76195000  0.87402000  1.0
  Pt  Pt26  1  0.26020000  0.76195000  0.87402000  1.0
  Pt  Pt27  1  0.76214000  0.22357000  0.87495000  1.0
  Pt  Pt28  1  0.00000000  0.75711000  0.95810000  1.0
  Pt  Pt29  1  0.50000000  0.26314000  0.95741000  1.0
  Pt  Pt30  1  0.00000000  0.20613000  0.94840000  1.0
  Pt  Pt31  1  0.50000000  0.74358000  0.95566000  1.0
  C  C32  1  0.00000000  0.23365000  0.86963000  1.0
