# generated using pymatgen
data_InSb
_symmetry_space_group_name_H-M   'P 1'
_cell_length_a   3.83902500
_cell_length_b   3.83902500
_cell_length_c   25.75850000
_cell_angle_alpha   90.00000000
_cell_angle_beta   90.00000000
_cell_angle_gamma   90.00000000
_symmetry_Int_Tables_number   1
_chemical_formula_structural   InSb
_chemical_formula_sum   'In2 Sb2'
_cell_volume   379.63168244
_cell_formula_units_Z   2
loop_
 _symmetry_equiv_pos_site_id
 _symmetry_equiv_pos_as_xyz
  1  'x, y, z'
loop_
 _atom_site_type_symbol
 _atom_site_label
 _atom_site_symmetry_multiplicity
 _atom_site_fract_x
 _atom_site_fract_y
 _atom_site_fract_z
 _atom_site_occupancy
  In  In0  1  0.00000000  0.00000000  0.11287000  1.0
  In  In1  1  0.00000000  0.00000000  0.96383000  1.0
  Sb  Sb2  1  0.50000000  0.50000000  0.03835000  1.0
  Sb  Sb3  1  0.50000000  0.50000000  0.88931000  1.0
