# generated using pymatgen
data_Li4Y4Ge4Pb4C
_symmetry_space_group_name_H-M   Pm
_cell_length_a   6.08443000
_cell_length_b   9.86128000
_cell_length_c   24.56300000
_cell_angle_alpha   90.00000000
_cell_angle_beta   90.00000000
_cell_angle_gamma   90.00000000
_symmetry_Int_Tables_number   6
_chemical_formula_structural   Li4Y4Ge4Pb4C
_chemical_formula_sum   'Li4 Y4 Ge4 Pb4 C1'
_cell_volume   1473.78657970
_cell_formula_units_Z   1
loop_
 _symmetry_equiv_pos_site_id
 _symmetry_equiv_pos_as_xyz
  1  'x, y, z'
  2  'x, -y, z'
loop_
 _atom_site_type_symbol
 _atom_site_label
 _atom_site_symmetry_multiplicity
 _atom_site_fract_x
 _atom_site_fract_y
 _atom_site_fract_z
 _atom_site_occupancy
  Li  Li0  1  0.24722000  0.50000000  0.03503000  1.0
  Li  Li1  1  0.33024000  0.00000000  0.01875000  1.0
  Li  Li2  1  0.74120000  0.00000000  0.90712000  1.0
  Li  Li3  1  0.74120000  0.50000000  0.90712000  1.0
  Y  Y4  2  0.49654000  0.22317000  0.09712000  1.0
  Y  Y5  2  0.99413000  0.25000000  0.96904000  1.0
  Ge  Ge6  2  0.00045000  0.27996000  0.09467000  1.0
  Ge  Ge7  2  0.49413000  0.25000000  0.96904000  1.0
  Pb  Pb8  1  0.24120000  0.00000000  0.90712000  1.0
  Pb  Pb9  1  0.24120000  0.50000000  0.90712000  1.0
  Pb  Pb10  1  0.74968000  0.50000000  0.04089000  1.0
  Pb  Pb11  1  0.86026000  0.00000000  0.05035000  1.0
  C  C12  1  0.51411000  0.00000000  0.08737000  1.0
