# generated using pymatgen
data_NbRu3
_symmetry_space_group_name_H-M   'P 1'
_cell_length_a   3.90554000
_cell_length_b   3.90554000
_cell_length_c   25.85830000
_cell_angle_alpha   90.00000000
_cell_angle_beta   90.00000000
_cell_angle_gamma   90.00000000
_symmetry_Int_Tables_number   1
_chemical_formula_structural   NbRu3
_chemical_formula_sum   'Nb2 Ru6'
_cell_volume   394.42292549
_cell_formula_units_Z   2
loop_
 _symmetry_equiv_pos_site_id
 _symmetry_equiv_pos_as_xyz
  1  'x, y, z'
loop_
 _atom_site_type_symbol
 _atom_site_label
 _atom_site_symmetry_multiplicity
 _atom_site_fract_x
 _atom_site_fract_y
 _atom_site_fract_z
 _atom_site_occupancy
  Nb  Nb0  1  0.00000000  0.00000000  0.88672000  1.0
  Nb  Nb1  1  0.00000000  0.00000000  0.03776000  1.0
  Ru  Ru2  1  0.50000000  0.00000000  0.96224000  1.0
  Ru  Ru3  1  0.00000000  0.50000000  0.96224000  1.0
  Ru  Ru4  1  0.50000000  0.50000000  0.88672000  1.0
  Ru  Ru5  1  0.50000000  0.00000000  0.11328000  1.0
  Ru  Ru6  1  0.00000000  0.50000000  0.11328000  1.0
  Ru  Ru7  1  0.50000000  0.50000000  0.03776000  1.0
