# generated using pymatgen
data_LiYAgPb
_symmetry_space_group_name_H-M   'P 1'
_cell_length_a   10.19520000
_cell_length_b   7.20907000
_cell_length_c   27.64640000
_cell_angle_alpha   90.00000000
_cell_angle_beta   90.00000000
_cell_angle_gamma   90.00000000
_symmetry_Int_Tables_number   1
_chemical_formula_structural   LiYAgPb
_chemical_formula_sum   'Li8 Y8 Ag8 Pb8'
_cell_volume   2031.95263185
_cell_formula_units_Z   8
loop_
 _symmetry_equiv_pos_site_id
 _symmetry_equiv_pos_as_xyz
  1  'x, y, z'
loop_
 _atom_site_type_symbol
 _atom_site_label
 _atom_site_symmetry_multiplicity
 _atom_site_fract_x
 _atom_site_fract_y
 _atom_site_fract_z
 _atom_site_occupancy
  Li  Li0  1  0.00000000  0.25000000  0.04610000  1.0
  Li  Li1  1  0.50000000  0.25000000  0.04610000  1.0
  Li  Li2  1  0.25000000  0.75000000  0.13829000  1.0
  Li  Li3  1  0.75000000  0.75000000  0.13829000  1.0
  Li  Li4  1  0.50000000  0.23742000  0.86607000  1.0
  Li  Li5  1  0.00000000  0.23821000  0.86597000  1.0
  Li  Li6  1  0.75014000  0.75225000  0.95358000  1.0
  Li  Li7  1  0.24986000  0.75225000  0.95358000  1.0
  Y  Y8  1  0.00000000  0.75000000  0.04610000  1.0
  Y  Y9  1  0.50000000  0.75000000  0.04610000  1.0
  Y  Y10  1  0.25000000  0.25000000  0.13829000  1.0
  Y  Y11  1  0.75000000  0.25000000  0.13829000  1.0
  Y  Y12  1  0.50000000  0.75991000  0.86203000  1.0
  Y  Y13  1  0.00000000  0.75992000  0.86201000  1.0
  Y  Y14  1  0.74996000  0.24205000  0.95170000  1.0
  Y  Y15  1  0.25004000  0.24205000  0.95170000  1.0
  Ag  Ag16  1  0.00000000  0.00000000  0.13829000  1.0
  Ag  Ag17  1  0.50000000  0.00000000  0.13829000  1.0
  Ag  Ag18  1  0.75000000  0.50000000  0.04610000  1.0
  Ag  Ag19  1  0.25000000  0.50000000  0.04610000  1.0
  Ag  Ag20  1  0.50000000  0.99332000  0.95333000  1.0
  Ag  Ag21  1  0.00000000  0.99343000  0.95329000  1.0
  Ag  Ag22  1  0.25000000  0.50610000  0.86675000  1.0
  Ag  Ag23  1  0.75000000  0.50610000  0.86675000  1.0
  Pb  Pb24  1  0.25000000  0.00000000  0.04610000  1.0
  Pb  Pb25  1  0.75000000  0.00000000  0.04610000  1.0
  Pb  Pb26  1  0.50000000  0.50000000  0.13829000  1.0
  Pb  Pb27  1  0.00000000  0.50000000  0.13829000  1.0
  Pb  Pb28  1  0.75002000  0.01504000  0.85130000  1.0
  Pb  Pb29  1  0.24998000  0.01504000  0.85130000  1.0
  Pb  Pb30  1  0.00000000  0.49878000  0.95245000  1.0
  Pb  Pb31  1  0.50000000  0.49895000  0.95246000  1.0
