# generated using pymatgen
data_LiYAgPb
_symmetry_space_group_name_H-M   Pm
_cell_length_a   7.20907000
_cell_length_b   10.19520000
_cell_length_c   27.64640000
_cell_angle_alpha   90.00000000
_cell_angle_beta   90.00000000
_cell_angle_gamma   90.00000000
_symmetry_Int_Tables_number   6
_chemical_formula_structural   LiYAgPb
_chemical_formula_sum   'Li8 Y8 Ag8 Pb8'
_cell_volume   2031.95263185
_cell_formula_units_Z   8
loop_
 _symmetry_equiv_pos_site_id
 _symmetry_equiv_pos_as_xyz
  1  'x, y, z'
  2  'x, -y, z'
loop_
 _atom_site_type_symbol
 _atom_site_label
 _atom_site_symmetry_multiplicity
 _atom_site_fract_x
 _atom_site_fract_y
 _atom_site_fract_z
 _atom_site_occupancy
  Li  Li0  2  0.75000000  0.25000000  0.86171000  1.0
  Li  Li1  2  0.75225000  0.24986000  0.04642000  1.0
  Li  Li2  1  0.23742000  0.50000000  0.13393000  1.0
  Li  Li3  1  0.23821000  0.00000000  0.13403000  1.0
  Li  Li4  1  0.25000000  0.00000000  0.95390000  1.0
  Li  Li5  1  0.25000000  0.50000000  0.95390000  1.0
  Y  Y6  2  0.24205000  0.25004000  0.04830000  1.0
  Y  Y7  2  0.25000000  0.25000000  0.86171000  1.0
  Y  Y8  1  0.75000000  0.00000000  0.95390000  1.0
  Y  Y9  1  0.75000000  0.50000000  0.95390000  1.0
  Y  Y10  1  0.75991000  0.50000000  0.13797000  1.0
  Y  Y11  1  0.75992000  0.00000000  0.13799000  1.0
  Ag  Ag12  2  0.50000000  0.25000000  0.95390000  1.0
  Ag  Ag13  2  0.50610000  0.25000000  0.13325000  1.0
  Ag  Ag14  1  0.00000000  0.00000000  0.86171000  1.0
  Ag  Ag15  1  0.00000000  0.50000000  0.86171000  1.0
  Ag  Ag16  1  0.99332000  0.50000000  0.04667000  1.0
  Ag  Ag17  1  0.99343000  0.00000000  0.04671000  1.0
  Pb  Pb18  2  0.00000000  0.25000000  0.95390000  1.0
  Pb  Pb19  2  0.01504000  0.24998000  0.14870000  1.0
  Pb  Pb20  1  0.49878000  0.00000000  0.04755000  1.0
  Pb  Pb21  1  0.49895000  0.50000000  0.04754000  1.0
  Pb  Pb22  1  0.50000000  0.00000000  0.86171000  1.0
  Pb  Pb23  1  0.50000000  0.50000000  0.86171000  1.0
