# generated using pymatgen
data_MgNi2Sn
_symmetry_space_group_name_H-M   P1
_cell_length_a   6.22749000
_cell_length_b   6.22749000
_cell_length_c   24.67060000
_cell_angle_alpha   90.00000000
_cell_angle_beta   90.00000000
_cell_angle_gamma   90.00000000
_symmetry_Int_Tables_number   1
_chemical_formula_structural   MgNi2Sn
_chemical_formula_sum   'Mg4 Ni8 Sn4'
_cell_volume   956.76612302
_cell_formula_units_Z   4
loop_
 _symmetry_equiv_pos_site_id
 _symmetry_equiv_pos_as_xyz
  1  'x, y, z'
loop_
 _atom_site_type_symbol
 _atom_site_label
 _atom_site_symmetry_multiplicity
 _atom_site_fract_x
 _atom_site_fract_y
 _atom_site_fract_z
 _atom_site_occupancy
  Mg  Mg0  1  0.00000000  0.00000000  0.90534000  1.0
  Mg  Mg1  1  0.00035000  0.50006000  0.03282000  1.0
  Mg  Mg2  1  0.49974000  0.00031000  0.03287000  1.0
  Mg  Mg3  1  0.50000000  0.50000000  0.90534000  1.0
  Ni  Ni4  1  0.25000000  0.25000000  0.96845000  1.0
  Ni  Ni5  1  0.25000000  0.75000000  0.96845000  1.0
  Ni  Ni6  1  0.25008000  0.25009000  0.09051000  1.0
  Ni  Ni7  1  0.25039000  0.75086000  0.09025000  1.0
  Ni  Ni8  1  0.74944000  0.25105000  0.09019000  1.0
  Ni  Ni9  1  0.74981000  0.74963000  0.09005000  1.0
  Ni  Ni10  1  0.75000000  0.25000000  0.96845000  1.0
  Ni  Ni11  1  0.75000000  0.75000000  0.96845000  1.0
  Sn  Sn12  1  0.00000000  0.50000000  0.90534000  1.0
  Sn  Sn13  1  0.50000000  0.00000000  0.90534000  1.0
  Sn  Sn14  1  0.50014000  0.49965000  0.03504000  1.0
  Sn  Sn15  1  0.99935000  0.00070000  0.03512000  1.0
