# generated using pymatgen
data_Ga16Rh16C
_symmetry_space_group_name_H-M   'P 1'
_cell_length_a   6.09666000
_cell_length_b   8.62198000
_cell_length_c   26.46650000
_cell_angle_alpha   90.00000000
_cell_angle_beta   90.00000000
_cell_angle_gamma   90.00000000
_symmetry_Int_Tables_number   1
_chemical_formula_structural   Ga16Rh16C
_chemical_formula_sum   'Ga16 Rh16 C1'
_cell_volume   1391.21899865
_cell_formula_units_Z   1
loop_
 _symmetry_equiv_pos_site_id
 _symmetry_equiv_pos_as_xyz
  1  'x, y, z'
loop_
 _atom_site_type_symbol
 _atom_site_label
 _atom_site_symmetry_multiplicity
 _atom_site_fract_x
 _atom_site_fract_y
 _atom_site_fract_z
 _atom_site_occupancy
  Ga  Ga0  1  0.00000000  0.00000000  0.87784000  1.0
  Ga  Ga1  1  0.00000000  0.25000000  0.95928000  1.0
  Ga  Ga2  1  0.00000000  0.00000000  0.03953000  1.0
  Ga  Ga3  1  0.00000000  0.27203000  0.12643000  1.0
  Ga  Ga4  1  0.00000000  0.50000000  0.87784000  1.0
  Ga  Ga5  1  0.00000000  0.75000000  0.95928000  1.0
  Ga  Ga6  1  0.00000000  0.50000000  0.03962000  1.0
  Ga  Ga7  1  0.00000000  0.72797000  0.12643000  1.0
  Ga  Ga8  1  0.50000000  0.00000000  0.87784000  1.0
  Ga  Ga9  1  0.50000000  0.25000000  0.95928000  1.0
  Ga  Ga10  1  0.50000000  0.00000000  0.03853000  1.0
  Ga  Ga11  1  0.50000000  0.25587000  0.13096000  1.0
  Ga  Ga12  1  0.50000000  0.50000000  0.87784000  1.0
  Ga  Ga13  1  0.50000000  0.75000000  0.95928000  1.0
  Ga  Ga14  1  0.50000000  0.50000000  0.03943000  1.0
  Ga  Ga15  1  0.50000000  0.74413000  0.13096000  1.0
  Rh  Rh16  1  0.25000000  0.25000000  0.87784000  1.0
  Rh  Rh17  1  0.25000000  0.00000000  0.95928000  1.0
  Rh  Rh18  1  0.24966000  0.24369000  0.03965000  1.0
  Rh  Rh19  1  0.24317000  0.00000000  0.12327000  1.0
  Rh  Rh20  1  0.25000000  0.75000000  0.87784000  1.0
  Rh  Rh21  1  0.25000000  0.50000000  0.95928000  1.0
  Rh  Rh22  1  0.24966000  0.75631000  0.03965000  1.0
  Rh  Rh23  1  0.25664000  0.50000000  0.11668000  1.0
  Rh  Rh24  1  0.75000000  0.25000000  0.87784000  1.0
  Rh  Rh25  1  0.75000000  0.00000000  0.95928000  1.0
  Rh  Rh26  1  0.75034000  0.24369000  0.03965000  1.0
  Rh  Rh27  1  0.75683000  0.00000000  0.12327000  1.0
  Rh  Rh28  1  0.75000000  0.75000000  0.87784000  1.0
  Rh  Rh29  1  0.75000000  0.50000000  0.95928000  1.0
  Rh  Rh30  1  0.75034000  0.75631000  0.03965000  1.0
  Rh  Rh31  1  0.74336000  0.50000000  0.11668000  1.0
  C  C32  1  0.00000000  0.00000000  0.16472000  1.0
