data_image0
_chemical_formula_structural       Y16Ir16CO
_chemical_formula_sum              "Y16 Ir16 C1 O1"
_cell_length_a       6.8816
_cell_length_b       9.73205
_cell_length_c       27.299
_cell_angle_alpha    90
_cell_angle_beta     90
_cell_angle_gamma    90

_space_group_name_H-M_alt    "P 1"
_space_group_IT_number       1

loop_
  _space_group_symop_operation_xyz
  'x, y, z'

loop_
  _atom_site_type_symbol
  _atom_site_label
  _atom_site_symmetry_multiplicity
  _atom_site_fract_x
  _atom_site_fract_y
  _atom_site_fract_z
  _atom_site_occupancy
  Y   Y1        1.0  0.25000  0.25000  0.86631  1.0000
  Y   Y2        1.0  0.25000  0.00000  0.95544  1.0000
  Y   Y3        1.0  0.25549  0.25000  0.04508  1.0000
  Y   Y4        1.0  0.25269  0.50362  0.13790  1.0000
  Y   Y5        1.0  0.25000  0.75000  0.86631  1.0000
  Y   Y6        1.0  0.25000  0.50000  0.95544  1.0000
  Y   Y7        1.0  0.24962  0.75000  0.04608  1.0000
  Y   Y8        1.0  0.25269  0.99638  0.13790  1.0000
  Y   Y9        1.0  0.75000  0.25000  0.86631  1.0000
  Y   Y10       1.0  0.75000  0.00000  0.95544  1.0000
  Y   Y11       1.0  0.74451  0.25000  0.04508  1.0000
  Y   Y12       1.0  0.74731  0.50362  0.13790  1.0000
  Y   Y13       1.0  0.75000  0.75000  0.86631  1.0000
  Y   Y14       1.0  0.75000  0.50000  0.95544  1.0000
  Y   Y15       1.0  0.75038  0.75000  0.04607  1.0000
  Y   Y16       1.0  0.74731  0.99638  0.13790  1.0000
  Ir  Ir1       1.0  0.00000  0.00000  0.86631  1.0000
  Ir  Ir2       1.0  0.00000  0.25000  0.95544  1.0000
  Ir  Ir3       1.0  0.00000  0.00773  0.05016  1.0000
  Ir  Ir4       1.0  1.00000  0.25000  0.13539  1.0000
  Ir  Ir5       1.0  0.00000  0.50000  0.86631  1.0000
  Ir  Ir6       1.0  0.00000  0.75000  0.95544  1.0000
  Ir  Ir7       1.0  0.00000  0.49227  0.05016  1.0000
  Ir  Ir8       1.0  0.00000  0.75000  0.12888  1.0000
  Ir  Ir9       1.0  0.50000  0.00000  0.86631  1.0000
  Ir  Ir10      1.0  0.50000  0.25000  0.95544  1.0000
  Ir  Ir11      1.0  0.50000  0.99950  0.04873  1.0000
  Ir  Ir12      1.0  0.50000  0.25000  0.12871  1.0000
  Ir  Ir13      1.0  0.50000  0.50000  0.86631  1.0000
  Ir  Ir14      1.0  0.50000  0.75000  0.95544  1.0000
  Ir  Ir15      1.0  0.50000  0.50049  0.04873  1.0000
  Ir  Ir16      1.0  0.50000  0.75000  0.12908  1.0000
  C   C1        1.0  1.00000  0.25000  0.20319  1.0000
  O   O1        1.0  1.00000  0.25000  0.24625  1.0000
