# generated using pymatgen
data_Y16Ir16CO
_symmetry_space_group_name_H-M   'P 1'
_cell_length_a   6.88160000
_cell_length_b   9.73205000
_cell_length_c   27.29900000
_cell_angle_alpha   90.00000000
_cell_angle_beta   90.00000000
_cell_angle_gamma   90.00000000
_symmetry_Int_Tables_number   1
_chemical_formula_structural   Y16Ir16CO
_chemical_formula_sum   'Y16 Ir16 C1 O1'
_cell_volume   1828.27068307
_cell_formula_units_Z   1
loop_
 _symmetry_equiv_pos_site_id
 _symmetry_equiv_pos_as_xyz
  1  'x, y, z'
loop_
 _atom_site_type_symbol
 _atom_site_label
 _atom_site_symmetry_multiplicity
 _atom_site_fract_x
 _atom_site_fract_y
 _atom_site_fract_z
 _atom_site_occupancy
  Y  Y0  1  0.25000000  0.00000000  0.86631000  1.0
  Y  Y1  1  0.25000000  0.75000000  0.95544000  1.0
  Y  Y2  1  0.25549000  0.00000000  0.04508000  1.0
  Y  Y3  1  0.25269000  0.25362000  0.13790000  1.0
  Y  Y4  1  0.25000000  0.50000000  0.86631000  1.0
  Y  Y5  1  0.25000000  0.25000000  0.95544000  1.0
  Y  Y6  1  0.24962000  0.50000000  0.04608000  1.0
  Y  Y7  1  0.25269000  0.74638000  0.13790000  1.0
  Y  Y8  1  0.75000000  0.00000000  0.86631000  1.0
  Y  Y9  1  0.75000000  0.75000000  0.95544000  1.0
  Y  Y10  1  0.74451000  0.00000000  0.04508000  1.0
  Y  Y11  1  0.74731000  0.25362000  0.13790000  1.0
  Y  Y12  1  0.75000000  0.50000000  0.86631000  1.0
  Y  Y13  1  0.75000000  0.25000000  0.95544000  1.0
  Y  Y14  1  0.75038000  0.50000000  0.04608000  1.0
  Y  Y15  1  0.74731000  0.74638000  0.13790000  1.0
  Ir  Ir16  1  0.00000000  0.75000000  0.86631000  1.0
  Ir  Ir17  1  0.00000000  0.00000000  0.95544000  1.0
  Ir  Ir18  1  0.00000000  0.75773000  0.05016000  1.0
  Ir  Ir19  1  0.00000000  0.00000000  0.13539000  1.0
  Ir  Ir20  1  0.00000000  0.25000000  0.86631000  1.0
  Ir  Ir21  1  0.00000000  0.50000000  0.95544000  1.0
  Ir  Ir22  1  0.00000000  0.24227000  0.05016000  1.0
  Ir  Ir23  1  0.00000000  0.50000000  0.12888000  1.0
  Ir  Ir24  1  0.50000000  0.75000000  0.86631000  1.0
  Ir  Ir25  1  0.50000000  0.00000000  0.95544000  1.0
  Ir  Ir26  1  0.50000000  0.74950000  0.04873000  1.0
  Ir  Ir27  1  0.50000000  0.00000000  0.12871000  1.0
  Ir  Ir28  1  0.50000000  0.25000000  0.86631000  1.0
  Ir  Ir29  1  0.50000000  0.50000000  0.95544000  1.0
  Ir  Ir30  1  0.50000000  0.25050000  0.04873000  1.0
  Ir  Ir31  1  0.50000000  0.50000000  0.12908000  1.0
  C  C32  1  0.00000000  0.00000000  0.20319000  1.0
  O  O33  1  0.00000000  0.00000000  0.24625000  1.0
