# generated using pymatgen
data_Li16In8Pd8C
_symmetry_space_group_name_H-M   'P 1'
_cell_length_a   9.14213000
_cell_length_b   6.46446000
_cell_length_c   26.85660000
_cell_angle_alpha   90.00000000
_cell_angle_beta   90.00000000
_cell_angle_gamma   90.00000000
_symmetry_Int_Tables_number   1
_chemical_formula_structural   Li16In8Pd8C
_chemical_formula_sum   'Li16 In8 Pd8 C1'
_cell_volume   1587.19642280
_cell_formula_units_Z   1
loop_
 _symmetry_equiv_pos_site_id
 _symmetry_equiv_pos_as_xyz
  1  'x, y, z'
loop_
 _atom_site_type_symbol
 _atom_site_label
 _atom_site_symmetry_multiplicity
 _atom_site_fract_x
 _atom_site_fract_y
 _atom_site_fract_z
 _atom_site_occupancy
  Li  Li0  1  0.50000000  0.00000000  0.04255000  1.0
  Li  Li1  1  0.75000000  0.50000000  0.12765000  1.0
  Li  Li2  1  0.00000000  0.00000000  0.04255000  1.0
  Li  Li3  1  0.25000000  0.50000000  0.12765000  1.0
  Li  Li4  1  0.00000000  0.25000000  0.12765000  1.0
  Li  Li5  1  0.50000000  0.25000000  0.12765000  1.0
  Li  Li6  1  0.25000000  0.75000000  0.04255000  1.0
  Li  Li7  1  0.75000000  0.75000000  0.04255000  1.0
  Li  Li8  1  0.00000000  0.93809000  0.85934000  1.0
  Li  Li9  1  0.24113000  0.49507000  0.95562000  1.0
  Li  Li10  1  0.50000000  0.02417000  0.87804000  1.0
  Li  Li11  1  0.75887000  0.49507000  0.95562000  1.0
  Li  Li12  1  0.50000000  0.25371000  0.96311000  1.0
  Li  Li13  1  0.00000000  0.23114000  0.95079000  1.0
  Li  Li14  1  0.73216000  0.71560000  0.87102000  1.0
  Li  Li15  1  0.26784000  0.71560000  0.87102000  1.0
  In  In16  1  0.75000000  0.25000000  0.04255000  1.0
  In  In17  1  0.25000000  0.25000000  0.04255000  1.0
  In  In18  1  0.50000000  0.75000000  0.12765000  1.0
  In  In19  1  0.00000000  0.75000000  0.12765000  1.0
  In  In20  1  0.24186000  0.23284000  0.86344000  1.0
  In  In21  1  0.75814000  0.23284000  0.86344000  1.0
  In  In22  1  0.00000000  0.77587000  0.96230000  1.0
  In  In23  1  0.50000000  0.73971000  0.95670000  1.0
  Pd  Pd24  1  0.75000000  0.00000000  0.12765000  1.0
  Pd  Pd25  1  0.00000000  0.50000000  0.04255000  1.0
  Pd  Pd26  1  0.50000000  0.50000000  0.04255000  1.0
  Pd  Pd27  1  0.25000000  0.00000000  0.12765000  1.0
  Pd  Pd28  1  0.26019000  0.00030000  0.95650000  1.0
  Pd  Pd29  1  0.50000000  0.45036000  0.88179000  1.0
  Pd  Pd30  1  0.00000000  0.54218000  0.88197000  1.0
  Pd  Pd31  1  0.73981000  0.00030000  0.95650000  1.0
  C  C32  1  0.00000000  0.24702000  0.86263000  1.0
