# generated using pymatgen
data_Li16In8Ag8CO
_symmetry_space_group_name_H-M   'P 1'
_cell_length_a   6.67495000
_cell_length_b   9.43981000
_cell_length_c   27.07990000
_cell_angle_alpha   90.00000000
_cell_angle_beta   90.00000000
_cell_angle_gamma   90.00000000
_symmetry_Int_Tables_number   1
_chemical_formula_structural   Li16In8Ag8CO
_chemical_formula_sum   'Li16 In8 Ag8 C1 O1'
_cell_volume   1706.31153326
_cell_formula_units_Z   1
loop_
 _symmetry_equiv_pos_site_id
 _symmetry_equiv_pos_as_xyz
  1  'x, y, z'
loop_
 _atom_site_type_symbol
 _atom_site_label
 _atom_site_symmetry_multiplicity
 _atom_site_fract_x
 _atom_site_fract_y
 _atom_site_fract_z
 _atom_site_occupancy
  Li  Li0  1  1.00000000  0.75000000  0.95643000  1.0
  Li  Li1  1  0.50000000  0.00000000  0.86928000  1.0
  Li  Li2  1  1.00000000  0.25000000  0.95643000  1.0
  Li  Li3  1  0.50000000  0.50000000  0.86928000  1.0
  Li  Li4  1  0.25000000  0.00000000  0.95643000  1.0
  Li  Li5  1  0.25000000  0.50000000  0.95643000  1.0
  Li  Li6  1  0.75000000  0.75000000  0.86928000  1.0
  Li  Li7  1  0.75000000  0.25000000  0.86928000  1.0
  Li  Li8  1  0.98288000  0.24916000  0.12787000  1.0
  Li  Li9  1  0.49065000  0.50001000  0.03670000  1.0
  Li  Li10  1  0.98288000  0.75084000  0.12787000  1.0
  Li  Li11  1  0.48714000  0.00000000  0.03802000  1.0
  Li  Li12  1  0.26637000  0.49999000  0.12728000  1.0
  Li  Li13  1  0.25903000  0.00000000  0.12983000  1.0
  Li  Li14  1  0.73711000  0.24985000  0.04458000  1.0
  Li  Li15  1  0.73714000  0.75016000  0.04458000  1.0
  In  In16  1  0.00000000  0.00000000  0.86928000  1.0
  In  In17  1  0.50000000  0.25000000  0.95643000  1.0
  In  In18  1  0.50000000  0.75000000  0.95643000  1.0
  In  In19  1  0.00000000  0.50000000  0.86928000  1.0
  In  In20  1  0.00413000  0.50001000  0.04203000  1.0
  In  In21  1  0.50088000  0.74951000  0.14129000  1.0
  In  In22  1  0.50086000  0.25048000  0.14130000  1.0
  In  In23  1  0.00471000  0.00002000  0.04193000  1.0
  Ag  Ag24  1  0.25000000  0.25000000  0.86928000  1.0
  Ag  Ag25  1  0.25000000  0.75000000  0.86928000  1.0
  Ag  Ag26  1  0.75000000  0.50000000  0.95643000  1.0
  Ag  Ag27  1  0.75000000  0.00000000  0.95643000  1.0
  Ag  Ag28  1  0.25819000  0.74988000  0.04749000  1.0
  Ag  Ag29  1  0.25820000  0.25015000  0.04749000  1.0
  Ag  Ag30  1  0.71645000  0.00000000  0.11984000  1.0
  Ag  Ag31  1  0.72418000  0.49997000  0.12112000  1.0
  C  C32  1  0.10250000  0.00003000  0.19557000  1.0
  O  O33  1  0.03665000  0.00007000  0.23477000  1.0
