# generated using pymatgen
data_Mn4Al4Fe8C
_symmetry_space_group_name_H-M   'P 1'
_cell_length_a   5.79866000
_cell_length_b   5.79866000
_cell_length_c   24.34900000
_cell_angle_alpha   90.00000000
_cell_angle_beta   90.00000000
_cell_angle_gamma   90.00000000
_symmetry_Int_Tables_number   1
_chemical_formula_structural   Mn4Al4Fe8C
_chemical_formula_sum   'Mn4 Al4 Fe8 C1'
_cell_volume   818.72192287
_cell_formula_units_Z   1
loop_
 _symmetry_equiv_pos_site_id
 _symmetry_equiv_pos_as_xyz
  1  'x, y, z'
loop_
 _atom_site_type_symbol
 _atom_site_label
 _atom_site_symmetry_multiplicity
 _atom_site_fract_x
 _atom_site_fract_y
 _atom_site_fract_z
 _atom_site_occupancy
  Mn  Mn0  1  0.75000000  0.25000000  0.08931000  1
  Mn  Mn1  1  0.25000000  0.75000000  0.08931000  1
  Mn  Mn2  1  0.75000000  0.75000000  0.97023000  1
  Mn  Mn3  1  0.25000000  0.25000000  0.97023000  1
  Al  Al4  1  0.75000000  0.25000000  0.97023000  1
  Al  Al5  1  0.75000000  0.75000000  0.08931000  1
  Al  Al6  1  0.25000000  0.25000000  0.08931000  1
  Al  Al7  1  0.25000000  0.75000000  0.97023000  1
  Fe  Fe8  1  0.50000000  0.50000000  0.02977000  1
  Fe  Fe9  1  0.00000000  0.00000000  0.91069000  1
  Fe  Fe10  1  0.50000000  0.00000000  0.02977000  1
  Fe  Fe11  1  0.00000000  0.50000000  0.91069000  1
  Fe  Fe12  1  0.00000000  0.00000000  0.02977000  1
  Fe  Fe13  1  0.50000000  0.50000000  0.91069000  1
  Fe  Fe14  1  0.00000000  0.50000000  0.02977000  1
  Fe  Fe15  1  0.50000000  0.00000000  0.91069000  1
  C  C16  1  0.50000000  0.50000000  0.12216000  1
