# generated using pymatgen
data_Li8In16Ir8C
_symmetry_space_group_name_H-M   Pm
_cell_length_a   6.57920000
_cell_length_b   9.30439000
_cell_length_c   26.97830000
_cell_angle_alpha   90.00000000
_cell_angle_beta   90.00000000
_cell_angle_gamma   90.00000000
_symmetry_Int_Tables_number   6
_chemical_formula_structural   Li8In16Ir8C
_chemical_formula_sum   'Li8 In16 Ir8 C1'
_cell_volume   1651.48857747
_cell_formula_units_Z   1
loop_
 _symmetry_equiv_pos_site_id
 _symmetry_equiv_pos_as_xyz
  1  'x, y, z'
  2  'x, -y, z'
loop_
 _atom_site_type_symbol
 _atom_site_label
 _atom_site_symmetry_multiplicity
 _atom_site_fract_x
 _atom_site_fract_y
 _atom_site_fract_z
 _atom_site_occupancy
  Li  Li0  2  0.00000000  0.25000000  0.87067000  1.0
  Li  Li1  2  0.00071000  0.24618000  0.04673000  1.0
  Li  Li2  1  0.50000000  0.00000000  0.95689000  1.0
  Li  Li3  1  0.50000000  0.50000000  0.95689000  1.0
  Li  Li4  1  0.52850000  0.50000000  0.13854000  1.0
  Li  Li5  1  0.55350000  0.00000000  0.17279000  1.0
  In  In6  2  0.25000000  0.25000000  0.95689000  1.0
  In  In7  2  0.27448000  0.25773000  0.13500000  1.0
  In  In8  2  0.75000000  0.25000000  0.95689000  1.0
  In  In9  2  0.77668000  0.25382000  0.13905000  1.0
  In  In10  1  0.25000000  0.00000000  0.87067000  1.0
  In  In11  1  0.25000000  0.50000000  0.87067000  1.0
  In  In12  1  0.25512000  0.50000000  0.04266000  1.0
  In  In13  1  0.25667000  0.00000000  0.04447000  1.0
  In  In14  1  0.73386000  0.00000000  0.04558000  1.0
  In  In15  1  0.75000000  0.00000000  0.87067000  1.0
  In  In16  1  0.75000000  0.50000000  0.87067000  1.0
  In  In17  1  0.75080000  0.50000000  0.04412000  1.0
  Ir  Ir18  2  0.50000000  0.25000000  0.87067000  1.0
  Ir  Ir19  2  0.50072000  0.25411000  0.03956000  1.0
  Ir  Ir20  1  -0.00000000  0.00000000  0.95689000  1.0
  Ir  Ir21  1  0.00000000  0.50000000  0.95689000  1.0
  Ir  Ir22  1  0.00928000  0.50000000  0.12342000  1.0
  Ir  Ir23  1  0.99549000  0.00000000  0.12869000  1.0
  C  C24  1  0.23328000  0.00000000  0.16393000  1.0
