# generated using pymatgen
data_Li16Ag8Pb8C
_symmetry_space_group_name_H-M   'P 1'
_cell_length_a   9.68063000
_cell_length_b   6.84524000
_cell_length_c   27.26050000
_cell_angle_alpha   90.00000000
_cell_angle_beta   90.00000000
_cell_angle_gamma   90.00000000
_symmetry_Int_Tables_number   1
_chemical_formula_structural   Li16Ag8Pb8C
_chemical_formula_sum   'Li16 Ag8 Pb8 C1'
_cell_volume   1806.45071833
_cell_formula_units_Z   1
loop_
 _symmetry_equiv_pos_site_id
 _symmetry_equiv_pos_as_xyz
  1  'x, y, z'
loop_
 _atom_site_type_symbol
 _atom_site_label
 _atom_site_symmetry_multiplicity
 _atom_site_fract_x
 _atom_site_fract_y
 _atom_site_fract_z
 _atom_site_occupancy
  Li  Li0  1  0.75000000  1.00000000  0.04439000  1.0
  Li  Li1  1  0.00000000  0.50000000  0.13317000  1.0
  Li  Li2  1  0.25000000  1.00000000  0.04439000  1.0
  Li  Li3  1  0.50000000  0.50000000  0.13317000  1.0
  Li  Li4  1  0.25000000  0.25000000  0.13317000  1.0
  Li  Li5  1  0.75000000  0.25000000  0.13317000  1.0
  Li  Li6  1  0.50000000  0.75000000  0.04439000  1.0
  Li  Li7  1  0.00000000  0.75000000  0.04439000  1.0
  Li  Li8  1  0.26548000  0.01230000  0.87214000  1.0
  Li  Li9  1  0.50000000  0.48935000  0.96559000  1.0
  Li  Li10  1  0.73452000  0.01230000  0.87214000  1.0
  Li  Li11  1  0.00000000  0.53135000  0.93886000  1.0
  Li  Li12  1  0.75971000  0.27736000  0.95009000  1.0
  Li  Li13  1  0.24029000  0.27736000  0.95009000  1.0
  Li  Li14  1  0.00000000  0.80386000  0.86091000  1.0
  Li  Li15  1  0.50000000  0.69893000  0.87815000  1.0
  Ag  Ag16  1  0.00000000  0.25000000  0.04439000  1.0
  Ag  Ag17  1  0.50000000  0.25000000  0.04439000  1.0
  Ag  Ag18  1  0.75000000  0.75000000  0.13317000  1.0
  Ag  Ag19  1  0.25000000  0.75000000  0.13317000  1.0
  Ag  Ag20  1  0.50000000  0.27806000  0.87682000  1.0
  Ag  Ag21  1  0.00000000  0.20584000  0.87355000  1.0
  Ag  Ag22  1  0.25916000  0.72195000  0.94739000  1.0
  Ag  Ag23  1  0.74084000  0.72195000  0.94739000  1.0
  Pb  Pb24  1  0.00000000  0.00000000  0.13317000  1.0
  Pb  Pb25  1  0.25000000  0.50000000  0.04439000  1.0
  Pb  Pb26  1  0.75000000  0.50000000  0.04439000  1.0
  Pb  Pb27  1  0.50000000  1.00000000  0.13317000  1.0
  Pb  Pb28  1  0.50000000  0.99974000  0.95627000  1.0
  Pb  Pb29  1  0.76698000  0.51850000  0.84274000  1.0
  Pb  Pb30  1  0.23302000  0.51850000  0.84274000  1.0
  Pb  Pb31  1  0.00000000  0.97995000  0.95973000  1.0
  C  C32  1  0.00000000  0.51122000  0.85529000  1.0
