# generated using pymatgen
data_Li16Ag8Pb8C
_symmetry_space_group_name_H-M   Pm
_cell_length_a   6.84524000
_cell_length_b   9.68063000
_cell_length_c   27.26050000
_cell_angle_alpha   90.00000000
_cell_angle_beta   90.00000000
_cell_angle_gamma   90.00000000
_symmetry_Int_Tables_number   6
_chemical_formula_structural   Li16Ag8Pb8C
_chemical_formula_sum   'Li16 Ag8 Pb8 C1'
_cell_volume   1806.45071833
_cell_formula_units_Z   1
loop_
 _symmetry_equiv_pos_site_id
 _symmetry_equiv_pos_as_xyz
  1  'x, y, z'
  2  'x, -y, z'
loop_
 _atom_site_type_symbol
 _atom_site_label
 _atom_site_symmetry_multiplicity
 _atom_site_fract_x
 _atom_site_fract_y
 _atom_site_fract_z
 _atom_site_occupancy
  Li  Li0  2  -0.00000000  0.25000000  0.95561000  1.0
  Li  Li1  2  0.01230000  0.26548000  0.12786000  1.0
  Li  Li2  2  0.25000000  0.25000000  0.86683000  1.0
  Li  Li3  2  0.27736000  0.24029000  0.04991000  1.0
  Li  Li4  1  0.48935000  0.50000000  0.03441000  1.0
  Li  Li5  1  0.50000000  0.00000000  0.86683000  1.0
  Li  Li6  1  0.50000000  0.50000000  0.86683000  1.0
  Li  Li7  1  0.53135000  0.00000000  0.06114000  1.0
  Li  Li8  1  0.69893000  0.50000000  0.12185000  1.0
  Li  Li9  1  0.75000000  0.00000000  0.95561000  1.0
  Li  Li10  1  0.75000000  0.50000000  0.95561000  1.0
  Li  Li11  1  0.80386000  0.00000000  0.13909000  1.0
  Ag  Ag12  2  0.72195000  0.25916000  0.05261000  1.0
  Ag  Ag13  2  0.75000000  0.25000000  0.86683000  1.0
  Ag  Ag14  1  0.20584000  0.00000000  0.12645000  1.0
  Ag  Ag15  1  0.25000000  0.00000000  0.95561000  1.0
  Ag  Ag16  1  0.25000000  0.50000000  0.95561000  1.0
  Ag  Ag17  1  0.27806000  0.50000000  0.12318000  1.0
  Pb  Pb18  2  0.50000000  0.25000000  0.95561000  1.0
  Pb  Pb19  2  0.51850000  0.23302000  0.15726000  1.0
  Pb  Pb20  1  -0.00000000  0.50000000  0.86683000  1.0
  Pb  Pb21  1  0.00000000  0.00000000  0.86683000  1.0
  Pb  Pb22  1  0.97995000  0.00000000  0.04027000  1.0
  Pb  Pb23  1  0.99974000  0.50000000  0.04373000  1.0
  C  C24  1  0.51122000  0.00000000  0.14471000  1.0
