# generated using pymatgen
data_Li8Mg8In8Au8C
_symmetry_space_group_name_H-M   'P 1'
_cell_length_a   9.40140000
_cell_length_b   6.64779000
_cell_length_c   27.05110000
_cell_angle_alpha   90.00000000
_cell_angle_beta   90.00000000
_cell_angle_gamma   90.00000000
_symmetry_Int_Tables_number   1
_chemical_formula_structural   Li8Mg8In8Au8C
_chemical_formula_sum   'Li8 Mg8 In8 Au8 C1'
_cell_volume   1690.65406349
_cell_formula_units_Z   1
loop_
 _symmetry_equiv_pos_site_id
 _symmetry_equiv_pos_as_xyz
  1  'x, y, z'
loop_
 _atom_site_type_symbol
 _atom_site_label
 _atom_site_symmetry_multiplicity
 _atom_site_fract_x
 _atom_site_fract_y
 _atom_site_fract_z
 _atom_site_occupancy
  Li  Li0  1  0.25000000  0.00000000  0.04344000  1.0
  Li  Li1  1  0.75000000  0.00000000  0.04344000  1.0
  Li  Li2  1  0.50000000  0.50000000  0.13033000  1.0
  Li  Li3  1  0.00000000  0.50000000  0.13033000  1.0
  Li  Li4  1  0.77794000  0.00714000  0.84646000  1.0
  Li  Li5  1  0.22206000  0.00714000  0.84646000  1.0
  Li  Li6  1  0.00000000  0.49081000  0.95798000  1.0
  Li  Li7  1  0.50000000  0.48127000  0.94720000  1.0
  Mg  Mg8  1  0.00000000  0.75000000  0.04344000  1.0
  Mg  Mg9  1  0.50000000  0.75000000  0.04344000  1.0
  Mg  Mg10  1  0.25000000  0.25000000  0.13033000  1.0
  Mg  Mg11  1  0.75000000  0.25000000  0.13033000  1.0
  Mg  Mg12  1  0.50000000  0.75911000  0.86587000  1.0
  Mg  Mg13  1  0.00000000  0.70681000  0.86853000  1.0
  Mg  Mg14  1  0.74911000  0.23421000  0.95364000  1.0
  Mg  Mg15  1  0.25089000  0.23421000  0.95364000  1.0
  In  In16  1  0.00000000  0.25000000  0.04344000  1.0
  In  In17  1  0.50000000  0.25000000  0.04344000  1.0
  In  In18  1  0.25000000  0.75000000  0.13033000  1.0
  In  In19  1  0.75000000  0.75000000  0.13033000  1.0
  In  In20  1  0.50000000  0.21582000  0.84952000  1.0
  In  In21  1  0.00000000  0.30397000  0.85269000  1.0
  In  In22  1  0.74991000  0.75409000  0.95371000  1.0
  In  In23  1  0.25009000  0.75409000  0.95371000  1.0
  Au  Au24  1  0.00000000  0.00000000  0.13033000  1.0
  Au  Au25  1  0.50000000  0.00000000  0.13033000  1.0
  Au  Au26  1  0.75000000  0.50000000  0.04344000  1.0
  Au  Au27  1  0.25000000  0.50000000  0.04344000  1.0
  Au  Au28  1  0.50000000  0.00588000  0.95649000  1.0
  Au  Au29  1  0.00000000  0.00773000  0.95149000  1.0
  Au  Au30  1  0.27426000  0.48533000  0.87325000  1.0
  Au  Au31  1  0.72574000  0.48533000  0.87325000  1.0
  C  C32  1  0.00000000  0.99484000  0.84688000  1.0
