# generated using pymatgen
data_Li8Mg8In8Au8C
_symmetry_space_group_name_H-M   Pm
_cell_length_a   6.64779000
_cell_length_b   9.40140000
_cell_length_c   27.05110000
_cell_angle_alpha   90.00000000
_cell_angle_beta   90.00000000
_cell_angle_gamma   90.00000000
_symmetry_Int_Tables_number   6
_chemical_formula_structural   Li8Mg8In8Au8C
_chemical_formula_sum   'Li8 Mg8 In8 Au8 C1'
_cell_volume   1690.65406349
_cell_formula_units_Z   1
loop_
 _symmetry_equiv_pos_site_id
 _symmetry_equiv_pos_as_xyz
  1  'x, y, z'
  2  'x, -y, z'
loop_
 _atom_site_type_symbol
 _atom_site_label
 _atom_site_symmetry_multiplicity
 _atom_site_fract_x
 _atom_site_fract_y
 _atom_site_fract_z
 _atom_site_occupancy
  Li  Li0  2  0.00000000  0.25000000  0.95656000  1.0
  Li  Li1  2  0.00714000  0.22206000  0.15354000  1.0
  Li  Li2  1  0.48127000  0.50000000  0.05280000  1.0
  Li  Li3  1  0.49081000  0.00000000  0.04202000  1.0
  Li  Li4  1  0.50000000  0.00000000  0.86967000  1.0
  Li  Li5  1  0.50000000  0.50000000  0.86967000  1.0
  Mg  Mg6  2  0.23421000  0.25089000  0.04636000  1.0
  Mg  Mg7  2  0.25000000  0.25000000  0.86967000  1.0
  Mg  Mg8  1  0.70681000  0.00000000  0.13147000  1.0
  Mg  Mg9  1  0.75000000  0.00000000  0.95656000  1.0
  Mg  Mg10  1  0.75000000  0.50000000  0.95656000  1.0
  Mg  Mg11  1  0.75911000  0.50000000  0.13413000  1.0
  In  In12  2  0.75000000  0.25000000  0.86967000  1.0
  In  In13  2  0.75409000  0.25009000  0.04629000  1.0
  In  In14  1  0.21582000  0.50000000  0.15048000  1.0
  In  In15  1  0.25000000  0.00000000  0.95656000  1.0
  In  In16  1  0.25000000  0.50000000  0.95656000  1.0
  In  In17  1  0.30397000  0.00000000  0.14731000  1.0
  Au  Au18  2  0.48533000  0.27426000  0.12675000  1.0
  Au  Au19  2  0.50000000  0.25000000  0.95656000  1.0
  Au  Au20  1  0.00000000  0.00000000  0.86967000  1.0
  Au  Au21  1  0.00000000  0.50000000  0.86967000  1.0
  Au  Au22  1  0.00588000  0.50000000  0.04351000  1.0
  Au  Au23  1  0.00773000  0.00000000  0.04851000  1.0
  C  C24  1  0.99484000  0.00000000  0.15312000  1.0
