# generated using pymatgen
data_Y4In4Sn4Pd4C
_symmetry_space_group_name_H-M   Pm
_cell_length_a   6.44465000
_cell_length_b   8.73372000
_cell_length_c   24.83320000
_cell_angle_alpha   90.00000000
_cell_angle_beta   90.00000000
_cell_angle_gamma   90.00000000
_symmetry_Int_Tables_number   6
_chemical_formula_structural   Y4In4Sn4Pd4C
_chemical_formula_sum   'Y4 In4 Sn4 Pd4 C1'
_cell_volume   1397.75574875
_cell_formula_units_Z   1
loop_
 _symmetry_equiv_pos_site_id
 _symmetry_equiv_pos_as_xyz
  1  'x, y, z'
  2  'x, -y, z'
loop_
 _atom_site_type_symbol
 _atom_site_label
 _atom_site_symmetry_multiplicity
 _atom_site_fract_x
 _atom_site_fract_y
 _atom_site_fract_z
 _atom_site_occupancy
  Y  Y0  2  0.00549000  0.25000000  0.03244000  1.0
  Y  Y1  2  0.51158000  0.28740000  0.90216000  1.0
  In  In2  2  0.00450000  0.31224000  0.88125000  1.0
  In  In3  2  0.50549000  0.25000000  0.03244000  1.0
  Sn  Sn4  1  0.24221000  0.50000000  0.97365000  1.0
  Sn  Sn5  1  0.25619000  0.00000000  0.96362000  1.0
  Sn  Sn6  1  0.75824000  0.00000000  0.09731000  1.0
  Sn  Sn7  1  0.75824000  0.50000000  0.09731000  1.0
  Pd  Pd8  1  0.25824000  0.00000000  0.09731000  1.0
  Pd  Pd9  1  0.25824000  0.50000000  0.09731000  1.0
  Pd  Pd10  1  0.70784000  0.00000000  0.97073000  1.0
  Pd  Pd11  1  0.76835000  0.50000000  0.97719000  1.0
  C  C12  1  0.72133000  0.50000000  0.88810000  1.0
