# generated using pymatgen
data_LiYSnGe
_symmetry_space_group_name_H-M   Pm
_cell_length_a   6.38551000
_cell_length_b   4.26371000
_cell_length_c   24.76910000
_cell_angle_alpha   90.00000000
_cell_angle_beta   90.00000000
_cell_angle_gamma   90.00000000
_symmetry_Int_Tables_number   6
_chemical_formula_structural   LiYSnGe
_chemical_formula_sum   'Li2 Y2 Sn2 Ge2'
_cell_volume   674.36259623
_cell_formula_units_Z   2
loop_
 _symmetry_equiv_pos_site_id
 _symmetry_equiv_pos_as_xyz
  1  'x, y, z'
  2  'x, -y, z'
loop_
 _atom_site_type_symbol
 _atom_site_label
 _atom_site_symmetry_multiplicity
 _atom_site_fract_x
 _atom_site_fract_y
 _atom_site_fract_z
 _atom_site_occupancy
  Li  Li0  1  0.24936500  0.50000000  0.95816500  1.0
  Li  Li1  1  0.81850000  0.50000000  0.09627000  1.0
  Y  Y2  1  0.31850000  0.50000000  0.09627000  1.0
  Y  Y3  1  0.76476500  0.50000000  0.96557500  1.0
  Sn  Sn4  1  0.04567000  0.00000000  0.03209000  1.0
  Sn  Sn5  1  0.46990500  0.00000000  0.91061500  1.0
  Ge  Ge6  1  0.03721500  0.00000000  0.91849500  1.0
  Ge  Ge7  1  0.54567000  0.00000000  0.03209000  1.0
