# generated using pymatgen
data_Li4Y4Pd4Pb4CO
_symmetry_space_group_name_H-M   'P 1'
_cell_length_a   6.89083000
_cell_length_b   6.89083000
_cell_length_c   25.16810000
_cell_angle_alpha   90.00000000
_cell_angle_beta   90.00000000
_cell_angle_gamma   90.00000000
_symmetry_Int_Tables_number   1
_chemical_formula_structural   Li4Y4Pd4Pb4CO
_chemical_formula_sum   'Li4 Y4 Pd4 Pb4 C1 O1'
_cell_volume   1195.07043498
_cell_formula_units_Z   1
loop_
 _symmetry_equiv_pos_site_id
 _symmetry_equiv_pos_as_xyz
  1  'x, y, z'
loop_
 _atom_site_type_symbol
 _atom_site_label
 _atom_site_symmetry_multiplicity
 _atom_site_fract_x
 _atom_site_fract_y
 _atom_site_fract_z
 _atom_site_occupancy
  Li  Li0  1  0.75000000  0.25000000  0.89733000  1
  Li  Li1  1  0.25000000  0.25000000  0.03422000  1
  Li  Li2  1  0.75000000  0.75000000  0.03422000  1
  Li  Li3  1  0.25000000  0.75000000  0.89733000  1
  Y  Y4  1  0.50000000  0.00000000  0.96578000  1
  Y  Y5  1  0.00000000  0.00000000  0.10267000  1
  Y  Y6  1  0.50000000  0.50000000  0.10267000  1
  Y  Y7  1  1.00000000  0.50000000  0.96578000  1
  Pd  Pd8  1  0.25000000  0.25000000  0.89733000  1
  Pd  Pd9  1  0.75000000  0.25000000  0.03422000  1
  Pd  Pd10  1  0.25000000  0.75000000  0.03422000  1
  Pd  Pd11  1  0.75000000  0.75000000  0.89733000  1
  Pb  Pb12  1  0.50000000  0.50000000  0.96578000  1
  Pb  Pb13  1  1.00000000  0.50000000  0.10267000  1
  Pb  Pb14  1  0.50000000  0.00000000  0.10267000  1
  Pb  Pb15  1  0.00000000  0.00000000  0.96578000  1
  C  C16  1  0.50000000  0.50000000  0.17816000  1
  O  O17  1  0.50000000  0.50000000  0.22386000  1
