data_image0
_chemical_formula_structural       Mn8Co16Sn8C
_chemical_formula_sum              "Mn8 Co16 Sn8 C1"
_cell_length_a       6.01864
_cell_length_b       8.51164
_cell_length_c       26.3837
_cell_angle_alpha    90
_cell_angle_beta     90
_cell_angle_gamma    90

_space_group_name_H-M_alt    "P 1"
_space_group_IT_number       1

loop_
  _space_group_symop_operation_xyz
  'x, y, z'

loop_
  _atom_site_type_symbol
  _atom_site_label
  _atom_site_symmetry_multiplicity
  _atom_site_fract_x
  _atom_site_fract_y
  _atom_site_fract_z
  _atom_site_occupancy
  Mn  Mn1       1.0  0.00000  0.00000  0.87902  1.0000
  Mn  Mn2       1.0  0.50000  0.25000  0.95967  1.0000
  Mn  Mn3       1.0  0.50000  0.75000  0.95967  1.0000
  Mn  Mn4       1.0  0.00000  0.50000  0.87902  1.0000
  Mn  Mn5       1.0  0.00000  0.50000  0.04166  1.0000
  Mn  Mn6       1.0  0.50000  0.75490  0.12149  1.0000
  Mn  Mn7       1.0  0.50000  0.24510  0.12150  1.0000
  Mn  Mn8       1.0  1.00000  1.00000  0.03816  1.0000
  Co  Co1       1.0  0.25000  0.00000  0.95967  1.0000
  Co  Co2       1.0  0.75000  0.50000  0.95967  1.0000
  Co  Co3       1.0  0.75000  0.00000  0.95967  1.0000
  Co  Co4       1.0  0.25000  0.50000  0.95967  1.0000
  Co  Co5       1.0  0.75000  0.75000  0.87902  1.0000
  Co  Co6       1.0  0.25000  0.25000  0.87902  1.0000
  Co  Co7       1.0  0.25000  0.75000  0.87902  1.0000
  Co  Co8       1.0  0.75000  0.25000  0.87902  1.0000
  Co  Co9       1.0  0.26174  0.50000  0.11934  1.0000
  Co  Co10      1.0  0.77874  0.00000  0.11876  1.0000
  Co  Co11      1.0  0.73825  0.50000  0.11934  1.0000
  Co  Co12      1.0  0.22125  0.00000  0.11876  1.0000
  Co  Co13      1.0  0.75650  0.24854  0.04290  1.0000
  Co  Co14      1.0  0.24350  0.75145  0.04290  1.0000
  Co  Co15      1.0  0.24350  0.24855  0.04290  1.0000
  Co  Co16      1.0  0.75650  0.75146  0.04290  1.0000
  Sn  Sn1       1.0  0.00000  0.75000  0.95967  1.0000
  Sn  Sn2       1.0  0.50000  0.00000  0.87902  1.0000
  Sn  Sn3       1.0  0.00000  0.25000  0.95967  1.0000
  Sn  Sn4       1.0  0.50000  0.50000  0.87902  1.0000
  Sn  Sn5       1.0  0.00000  0.25953  0.13074  1.0000
  Sn  Sn6       1.0  0.50000  0.50000  0.03911  1.0000
  Sn  Sn7       1.0  0.00000  0.74047  0.13074  1.0000
  Sn  Sn8       1.0  0.50000  0.00000  0.03889  1.0000
  C   C1        1.0  0.50000  1.00000  0.13867  1.0000
