# generated using pymatgen
data_Li16Al8Pd8CO
_symmetry_space_group_name_H-M   'P 1'
_cell_length_a   8.67390000
_cell_length_b   6.13337000
_cell_length_c   26.50540000
_cell_angle_alpha   90.00000000
_cell_angle_beta   90.00000000
_cell_angle_gamma   90.00000000
_symmetry_Int_Tables_number   1
_chemical_formula_structural   Li16Al8Pd8CO
_chemical_formula_sum   'Li16 Al8 Pd8 C1 O1'
_cell_volume   1410.09358942
_cell_formula_units_Z   1
loop_
 _symmetry_equiv_pos_site_id
 _symmetry_equiv_pos_as_xyz
  1  'x, y, z'
loop_
 _atom_site_type_symbol
 _atom_site_label
 _atom_site_symmetry_multiplicity
 _atom_site_fract_x
 _atom_site_fract_y
 _atom_site_fract_z
 _atom_site_occupancy
  Li  Li0  1  0.74998000  0.00000000  0.04091000  1.0
  Li  Li1  1  0.00000000  0.50000000  0.12272000  1.0
  Li  Li2  1  0.25002000  0.00000000  0.04091000  1.0
  Li  Li3  1  0.50000000  0.50000000  0.12272000  1.0
  Li  Li4  1  0.00000000  0.25000000  0.04091000  1.0
  Li  Li5  1  0.50000000  0.25000000  0.04091000  1.0
  Li  Li6  1  0.74998000  0.75000000  0.12272000  1.0
  Li  Li7  1  0.25002000  0.75000000  0.12272000  1.0
  Li  Li8  1  0.25253000  0.98070000  0.87466000  1.0
  Li  Li9  1  0.50000000  0.49563000  0.96266000  1.0
  Li  Li10  1  0.74747000  0.98070000  0.87466000  1.0
  Li  Li11  1  0.00000000  0.50080000  0.95914000  1.0
  Li  Li12  1  0.50000000  0.25487000  0.87354000  1.0
  Li  Li13  1  0.00000000  0.24662000  0.87144000  1.0
  Li  Li14  1  0.24694000  0.75950000  0.96217000  1.0
  Li  Li15  1  0.75306000  0.75950000  0.96217000  1.0
  Al  Al16  1  0.00000000  0.00000000  0.12272000  1.0
  Al  Al17  1  0.24998000  0.50000000  0.04091000  1.0
  Al  Al18  1  0.75002000  0.50000000  0.04091000  1.0
  Al  Al19  1  0.50000000  0.00000000  0.12272000  1.0
  Al  Al20  1  0.50000000  0.00164000  0.95846000  1.0
  Al  Al21  1  0.75175000  0.50911000  0.88374000  1.0
  Al  Al22  1  0.24825000  0.50911000  0.88374000  1.0
  Al  Al23  1  0.00000000  0.99897000  0.95751000  1.0
  Pd  Pd24  1  0.24998000  0.25000000  0.12272000  1.0
  Pd  Pd25  1  0.75002000  0.25000000  0.12272000  1.0
  Pd  Pd26  1  0.50000000  0.75000000  0.04091000  1.0
  Pd  Pd27  1  0.00000000  0.75000000  0.04091000  1.0
  Pd  Pd28  1  0.75028000  0.24432000  0.95875000  1.0
  Pd  Pd29  1  0.24972000  0.24432000  0.95875000  1.0
  Pd  Pd30  1  0.00000000  0.74112000  0.87582000  1.0
  Pd  Pd31  1  0.50000000  0.72623000  0.88591000  1.0
  C  C32  1  0.00000000  0.81010000  0.80339000  1.0
  O  O33  1  0.00000000  0.82264000  0.75977000  1.0
