# generated using pymatgen
data_Li16Al8Pd8CO
_symmetry_space_group_name_H-M   Pm
_cell_length_a   6.13337000
_cell_length_b   8.67390000
_cell_length_c   26.50540000
_cell_angle_alpha   90.00000000
_cell_angle_beta   90.00000000
_cell_angle_gamma   90.00000000
_symmetry_Int_Tables_number   6
_chemical_formula_structural   Li16Al8Pd8CO
_chemical_formula_sum   'Li16 Al8 Pd8 C1 O1'
_cell_volume   1410.09358942
_cell_formula_units_Z   1
loop_
 _symmetry_equiv_pos_site_id
 _symmetry_equiv_pos_as_xyz
  1  'x, y, z'
  2  'x, -y, z'
loop_
 _atom_site_type_symbol
 _atom_site_label
 _atom_site_symmetry_multiplicity
 _atom_site_fract_x
 _atom_site_fract_y
 _atom_site_fract_z
 _atom_site_occupancy
  Li  Li0  2  0.00000000  0.25002000  0.95909000  1.0
  Li  Li1  2  0.75000000  0.25002000  0.87728000  1.0
  Li  Li2  2  0.75950000  0.24694000  0.03783000  1.0
  Li  Li3  2  0.98070000  0.25253000  0.12534000  1.0
  Li  Li4  1  0.24662000  0.00000000  0.12856000  1.0
  Li  Li5  1  0.25000000  0.00000000  0.95909000  1.0
  Li  Li6  1  0.25000000  0.50000000  0.95909000  1.0
  Li  Li7  1  0.25487000  0.50000000  0.12646000  1.0
  Li  Li8  1  0.49563000  0.50000000  0.03734000  1.0
  Li  Li9  1  0.50000000  0.00000000  0.87728000  1.0
  Li  Li10  1  0.50000000  0.50000000  0.87728000  1.0
  Li  Li11  1  0.50080000  0.00000000  0.04086000  1.0
  Al  Al12  2  0.50000000  0.24998000  0.95909000  1.0
  Al  Al13  2  0.50911000  0.24825000  0.11626000  1.0
  Al  Al14  1  0.00000000  0.00000000  0.87728000  1.0
  Al  Al15  1  0.00000000  0.50000000  0.87728000  1.0
  Al  Al16  1  0.00164000  0.50000000  0.04154000  1.0
  Al  Al17  1  0.99897000  0.00000000  0.04249000  1.0
  Pd  Pd18  2  0.24432000  0.24972000  0.04125000  1.0
  Pd  Pd19  2  0.25000000  0.24998000  0.87728000  1.0
  Pd  Pd20  1  0.72623000  0.50000000  0.11409000  1.0
  Pd  Pd21  1  0.74112000  0.00000000  0.12418000  1.0
  Pd  Pd22  1  0.75000000  0.00000000  0.95909000  1.0
  Pd  Pd23  1  0.75000000  0.50000000  0.95909000  1.0
  C  C24  1  0.81010000  0.00000000  0.19661000  1.0
  O  O25  1  0.82264000  0.00000000  0.24023000  1.0
