# generated using pymatgen
data_Sc4Al4In4Pd4CO
_symmetry_space_group_name_H-M   Pm
_cell_length_a   5.88291000
_cell_length_b   8.60736000
_cell_length_c   24.41210000
_cell_angle_alpha   90.00000000
_cell_angle_beta   90.00000000
_cell_angle_gamma   90.00000000
_symmetry_Int_Tables_number   6
_chemical_formula_structural   Sc4Al4In4Pd4CO
_chemical_formula_sum   'Sc4 Al4 In4 Pd4 C1 O1'
_cell_volume   1236.13901043
_cell_formula_units_Z   1
loop_
 _symmetry_equiv_pos_site_id
 _symmetry_equiv_pos_as_xyz
  1  'x, y, z'
  2  'x, -y, z'
loop_
 _atom_site_type_symbol
 _atom_site_label
 _atom_site_symmetry_multiplicity
 _atom_site_fract_x
 _atom_site_fract_y
 _atom_site_fract_z
 _atom_site_occupancy
  Sc  Sc0  1  0.24896000  0.00000000  0.96988000  1.0
  Sc  Sc1  1  0.24896000  0.50000000  0.96988000  1.0
  Sc  Sc2  1  0.73742000  0.50000000  0.08539000  1.0
  Sc  Sc3  1  0.74073000  0.00000000  0.08739000  1.0
  Al  Al4  2  0.00000000  0.25000000  0.90963000  1.0
  Al  Al5  2  0.48489000  0.24896000  0.03507000  1.0
  In  In6  2  0.50000000  0.25000000  0.90963000  1.0
  In  In7  2  0.98266000  0.24958000  0.03127000  1.0
  Pd  Pd8  1  0.26807000  0.50000000  0.07634000  1.0
  Pd  Pd9  1  0.27018000  0.00000000  0.07694000  1.0
  Pd  Pd10  1  0.74896000  0.00000000  0.96988000  1.0
  Pd  Pd11  1  0.74896000  0.50000000  0.96988000  1.0
  C  C12  1  0.74399000  0.00000000  0.18356000  1.0
  O  O13  1  0.74753000  0.00000000  0.23064000  1.0
