# generated using pymatgen
data_ZrZnCu2
_symmetry_space_group_name_H-M   Pmm2
_cell_length_a   4.42222500
_cell_length_b   6.25397000
_cell_length_c   26.63330000
_cell_angle_alpha   90.00000000
_cell_angle_beta   90.00000000
_cell_angle_gamma   90.00000000
_symmetry_Int_Tables_number   25
_chemical_formula_structural   ZrZnCu2
_chemical_formula_sum   'Zr4 Zn4 Cu8'
_cell_volume   736.58286226
_cell_formula_units_Z   4
loop_
 _symmetry_equiv_pos_site_id
 _symmetry_equiv_pos_as_xyz
  1  'x, y, z'
  2  '-x, -y, z'
  3  '-x, y, z'
  4  'x, -y, z'
loop_
 _atom_site_type_symbol
 _atom_site_label
 _atom_site_symmetry_multiplicity
 _atom_site_fract_x
 _atom_site_fract_y
 _atom_site_fract_z
 _atom_site_occupancy
  Zr  Zr0  1  0.00000000  0.00000000  0.12453000  1.0
  Zr  Zr1  1  0.00000000  0.00000000  0.95717500  1.0
  Zr  Zr2  1  0.50000000  0.50000000  0.04151000  1.0
  Zr  Zr3  1  0.50000000  0.50000000  0.87473000  1.0
  Zn  Zn4  1  0.00000000  0.50000000  0.12453000  1.0
  Zn  Zn5  1  0.00000000  0.50000000  0.95952000  1.0
  Zn  Zn6  1  0.50000000  0.00000000  0.04151000  1.0
  Zn  Zn7  1  0.50000000  0.00000000  0.88077000  1.0
  Cu  Cu8  2  0.00000000  0.25000000  0.04151000  1.0
  Cu  Cu9  2  0.00000000  0.25084000  0.87441000  1.0
  Cu  Cu10  2  0.50000000  0.25000000  0.12453000  1.0
  Cu  Cu11  2  0.50000000  0.25933000  0.95772000  1.0
