# generated using pymatgen
data_Li4Al4Ga4Pd4C
_symmetry_space_group_name_H-M   P2
_cell_length_a   6.14517000
_cell_length_b   24.60890000
_cell_length_c   6.14517000
_cell_angle_alpha   90.00000000
_cell_angle_beta   90.00000000
_cell_angle_gamma   90.00000000
_symmetry_Int_Tables_number   3
_chemical_formula_structural   Li4Al4Ga4Pd4C
_chemical_formula_sum   'Li4 Al4 Ga4 Pd4 C1'
_cell_volume   929.30870421
_cell_formula_units_Z   1
loop_
 _symmetry_equiv_pos_site_id
 _symmetry_equiv_pos_as_xyz
  1  'x, y, z'
  2  '-x, y, -z'
loop_
 _atom_site_type_symbol
 _atom_site_label
 _atom_site_symmetry_multiplicity
 _atom_site_fract_x
 _atom_site_fract_y
 _atom_site_fract_z
 _atom_site_occupancy
  Li  Li0  2  0.25000000  0.96879000  0.75000000  1.0
  Li  Li1  2  0.25327000  0.11832000  0.24652000  1.0
  Al  Al2  1  0.00000000  0.03988000  0.50000000  1.0
  Al  Al3  1  0.00000000  0.90636000  0.00000000  1.0
  Al  Al4  1  0.50000000  0.02810000  0.00000000  1.0
  Al  Al5  1  0.50000000  0.90636000  0.50000000  1.0
  Ga  Ga6  1  0.00000000  0.03415000  0.00000000  1.0
  Ga  Ga7  1  0.00000000  0.90636000  0.50000000  1.0
  Ga  Ga8  1  0.50000000  0.03418000  0.50000000  1.0
  Ga  Ga9  1  0.50000000  0.90636000  0.00000000  1.0
  Pd  Pd10  2  0.25000000  0.96879000  0.25000000  1.0
  Pd  Pd11  2  0.26569000  0.08949000  0.76568000  1.0
  C  C12  1  0.50000000  0.11086000  0.00000000  1.0
