# generated using pymatgen
data_Li8Mg8In8Ag8C
_symmetry_space_group_name_H-M   'P 1'
_cell_length_a   9.46136000
_cell_length_b   6.69019000
_cell_length_c   27.09600000
_cell_angle_alpha   90.00000000
_cell_angle_beta   90.00000000
_cell_angle_gamma   90.00000000
_symmetry_Int_Tables_number   1
_chemical_formula_structural   Li8Mg8In8Ag8C
_chemical_formula_sum   'Li8 Mg8 In8 Ag8 C1'
_cell_volume   1715.13063000
_cell_formula_units_Z   1
loop_
 _symmetry_equiv_pos_site_id
 _symmetry_equiv_pos_as_xyz
  1  'x, y, z'
loop_
 _atom_site_type_symbol
 _atom_site_label
 _atom_site_symmetry_multiplicity
 _atom_site_fract_x
 _atom_site_fract_y
 _atom_site_fract_z
 _atom_site_occupancy
  Li  Li0  1  0.00000000  0.00000000  0.04365000  1.0
  Li  Li1  1  0.50000000  1.00000000  0.04365000  1.0
  Li  Li2  1  0.25000000  0.50000000  0.13094000  1.0
  Li  Li3  1  0.75000000  0.50000000  0.13094000  1.0
  Li  Li4  1  0.50000000  0.96879000  0.85820000  1.0
  Li  Li5  1  0.00000000  0.03235000  0.84429000  1.0
  Li  Li6  1  0.75105000  0.49590000  0.94777000  1.0
  Li  Li7  1  0.24895000  0.49590000  0.94777000  1.0
  Mg  Mg8  1  0.75000000  0.75000000  0.04365000  1.0
  Mg  Mg9  1  0.25000000  0.75000000  0.04365000  1.0
  Mg  Mg10  1  0.00000000  0.25000000  0.13094000  1.0
  Mg  Mg11  1  0.50000000  0.25000000  0.13094000  1.0
  Mg  Mg12  1  0.22706000  0.74666000  0.85655000  1.0
  Mg  Mg13  1  0.77294000  0.74666000  0.85655000  1.0
  Mg  Mg14  1  0.50000000  0.25147000  0.95025000  1.0
  Mg  Mg15  1  0.00000000  0.23815000  0.95505000  1.0
  In  In16  1  0.75000000  0.25000000  0.04365000  1.0
  In  In17  1  0.25000000  0.25000000  0.04365000  1.0
  In  In18  1  0.00000000  0.75000000  0.13094000  1.0
  In  In19  1  0.50000000  0.75000000  0.13094000  1.0
  In  In20  1  0.26867000  0.23200000  0.85297000  1.0
  In  In21  1  0.73133000  0.23200000  0.85297000  1.0
  In  In22  1  0.50000000  0.74963000  0.95461000  1.0
  In  In23  1  0.00000000  0.76455000  0.95281000  1.0
  Ag  Ag24  1  0.75000000  0.00000000  0.13094000  1.0
  Ag  Ag25  1  0.25000000  0.00000000  0.13094000  1.0
  Ag  Ag26  1  0.50000000  0.50000000  0.04365000  1.0
  Ag  Ag27  1  0.00000000  0.50000000  0.04365000  1.0
  Ag  Ag28  1  0.25599000  0.00875000  0.95447000  1.0
  Ag  Ag29  1  0.74401000  0.00875000  0.95447000  1.0
  Ag  Ag30  1  0.00000000  0.42399000  0.86372000  1.0
  Ag  Ag31  1  0.50000000  0.51757000  0.86563000  1.0
  C  C32  1  0.00000000  0.74841000  0.86811000  1.0
