# generated using pymatgen
data_Li8V8Ge8Pd8CO
_symmetry_space_group_name_H-M   P1
_cell_length_a   8.64114000
_cell_length_b   9.40562000
_cell_length_c   24.26620000
_cell_angle_alpha   90.00000000
_cell_angle_beta   90.00000000
_cell_angle_gamma   90.00000000
_symmetry_Int_Tables_number   1
_chemical_formula_structural   Li8V8Ge8Pd8CO
_chemical_formula_sum   'Li8 V8 Ge8 Pd8 C1 O1'
_cell_volume   1972.24218029
_cell_formula_units_Z   1
loop_
 _symmetry_equiv_pos_site_id
 _symmetry_equiv_pos_as_xyz
  1  'x, y, z'
loop_
 _atom_site_type_symbol
 _atom_site_label
 _atom_site_symmetry_multiplicity
 _atom_site_fract_x
 _atom_site_fract_y
 _atom_site_fract_z
 _atom_site_occupancy
  Li  Li0  1  0.00000000  0.25000000  0.91210000  1.0
  Li  Li1  1  0.00000000  0.75000000  0.91210000  1.0
  Li  Li2  1  0.50000000  0.25000000  0.91210000  1.0
  Li  Li3  1  0.50000000  0.75000000  0.91210000  1.0
  Li  Li4  1  0.50109000  0.75128000  0.03122000  1.0
  Li  Li5  1  0.50114000  0.24894000  0.03120000  1.0
  Li  Li6  1  0.99895000  0.24817000  0.03108000  1.0
  Li  Li7  1  0.99902000  0.75142000  0.03102000  1.0
  V  V8  1  0.24965000  0.00001000  0.02439000  1.0
  V  V9  1  0.25000000  0.00000000  0.91210000  1.0
  V  V10  1  0.25000000  0.50000000  0.91210000  1.0
  V  V11  1  0.25028000  0.50002000  0.01349000  1.0
  V  V12  1  0.74974000  0.99997000  0.02210000  1.0
  V  V13  1  0.75000000  0.00000000  0.91210000  1.0
  V  V14  1  0.75000000  0.50000000  0.91210000  1.0
  V  V15  1  0.75019000  0.50003000  0.01396000  1.0
  Ge  Ge16  1  0.00000000  0.00000000  0.97070000  1.0
  Ge  Ge17  1  0.00000000  0.50000000  0.97070000  1.0
  Ge  Ge18  1  0.00240000  0.49983000  0.08314000  1.0
  Ge  Ge19  1  0.49907000  0.00018000  0.07993000  1.0
  Ge  Ge20  1  0.50000000  0.00000000  0.97070000  1.0
  Ge  Ge21  1  0.50000000  0.50000000  0.97070000  1.0
  Ge  Ge22  1  0.50004000  0.50018000  0.08314000  1.0
  Ge  Ge23  1  0.99981000  0.99969000  0.07933000  1.0
  Pd  Pd24  1  0.25000000  0.25000000  0.97070000  1.0
  Pd  Pd25  1  0.25000000  0.75000000  0.97070000  1.0
  Pd  Pd26  1  0.25004000  0.70746000  0.08411000  1.0
  Pd  Pd27  1  0.25007000  0.29263000  0.08411000  1.0
  Pd  Pd28  1  0.74990000  0.30026000  0.08592000  1.0
  Pd  Pd29  1  0.74991000  0.69995000  0.08590000  1.0
  Pd  Pd30  1  0.75000000  0.25000000  0.97070000  1.0
  Pd  Pd31  1  0.75000000  0.75000000  0.97070000  1.0
  C  C32  1  0.99016000  0.99931000  0.21854000  1.0
  O  O33  1  0.00416000  0.99996000  0.26503000  1.0
