# generated using pymatgen
data_Ca24In8C
_symmetry_space_group_name_H-M   P1
_cell_length_a   8.11767000
_cell_length_b   11.48010000
_cell_length_c   28.61010000
_cell_angle_alpha   90.00000000
_cell_angle_beta   90.00000000
_cell_angle_gamma   90.00000000
_symmetry_Int_Tables_number   1
_chemical_formula_structural   Ca24In8C
_chemical_formula_sum   'Ca24 In8 C1'
_cell_volume   2666.22280810
_cell_formula_units_Z   1
loop_
 _symmetry_equiv_pos_site_id
 _symmetry_equiv_pos_as_xyz
  1  'x, y, z'
loop_
 _atom_site_type_symbol
 _atom_site_label
 _atom_site_symmetry_multiplicity
 _atom_site_fract_x
 _atom_site_fract_y
 _atom_site_fract_z
 _atom_site_occupancy
  Ca  Ca0  1  0.00000000  0.25000000  0.94984000  1.0
  Ca  Ca1  1  0.00000000  0.75000000  0.94984000  1.0
  Ca  Ca2  1  0.00004000  0.79288000  0.16827000  1.0
  Ca  Ca3  1  0.24129000  0.74657000  0.05382000  1.0
  Ca  Ca4  1  0.24134000  0.25332000  0.05383000  1.0
  Ca  Ca5  1  0.24830000  0.50001000  0.15220000  1.0
  Ca  Ca6  1  0.25000000  0.00000000  0.94984000  1.0
  Ca  Ca7  1  0.25000000  0.25000000  0.84953000  1.0
  Ca  Ca8  1  0.25000000  0.50000000  0.94984000  1.0
  Ca  Ca9  1  0.25000000  0.75000000  0.84953000  1.0
  Ca  Ca10  1  0.28889000  0.00000000  0.15354000  1.0
  Ca  Ca11  1  0.49936000  0.49990000  0.05116000  1.0
  Ca  Ca12  1  0.50000000  0.00000000  0.84953000  1.0
  Ca  Ca13  1  0.50000000  0.50000000  0.84953000  1.0
  Ca  Ca14  1  0.50024000  0.99979000  0.04701000  1.0
  Ca  Ca15  1  0.71114000  0.99996000  0.15360000  1.0
  Ca  Ca16  1  0.75000000  0.00000000  0.94984000  1.0
  Ca  Ca17  1  0.75000000  0.25000000  0.84953000  1.0
  Ca  Ca18  1  0.75000000  0.50000000  0.94984000  1.0
  Ca  Ca19  1  0.75000000  0.75000000  0.84953000  1.0
  Ca  Ca20  1  0.75144000  0.49996000  0.15224000  1.0
  Ca  Ca21  1  0.75858000  0.25355000  0.05380000  1.0
  Ca  Ca22  1  0.75865000  0.74633000  0.05383000  1.0
  Ca  Ca23  1  0.99993000  0.20705000  0.16817000  1.0
  In  In24  1  0.00000000  0.00000000  0.84953000  1.0
  In  In25  1  0.00000000  0.50000000  0.84953000  1.0
  In  In26  1  0.00031000  0.50009000  0.04547000  1.0
  In  In27  1  0.49999000  0.74108000  0.14059000  1.0
  In  In28  1  0.50000000  0.25000000  0.94984000  1.0
  In  In29  1  0.50000000  0.75000000  0.94984000  1.0
  In  In30  1  0.50005000  0.25897000  0.14061000  1.0
  In  In31  1  0.99998000  0.99999000  0.05896000  1.0
  C  C32  1  0.00001000  0.99995000  0.15414000  1.0
