# generated using pymatgen
data_Li4Y4In4Ag4C
_symmetry_space_group_name_H-M   'P 1'
_cell_length_a   6.90709000
_cell_length_b   6.90709000
_cell_length_c   25.18030000
_cell_angle_alpha   90.00000000
_cell_angle_beta   90.00000000
_cell_angle_gamma   90.00000000
_symmetry_Int_Tables_number   1
_chemical_formula_structural   Li4Y4In4Ag4C
_chemical_formula_sum   'Li4 Y4 In4 Ag4 C1'
_cell_volume   1201.29903968
_cell_formula_units_Z   1
loop_
 _symmetry_equiv_pos_site_id
 _symmetry_equiv_pos_as_xyz
  1  'x, y, z'
loop_
 _atom_site_type_symbol
 _atom_site_label
 _atom_site_symmetry_multiplicity
 _atom_site_fract_x
 _atom_site_fract_y
 _atom_site_fract_z
 _atom_site_occupancy
  Li  Li0  1  0.50000000  0.50000000  0.89714000  1
  Li  Li1  1  0.00000000  0.50000000  0.03964000  1
  Li  Li2  1  0.50000000  0.00000000  0.03964000  1
  Li  Li3  1  0.00000000  0.00000000  0.89714000  1
  Y  Y4  1  0.75000000  0.25000000  0.96571000  1
  Y  Y5  1  0.26435000  0.26435000  0.11503000  1
  Y  Y6  1  0.73565000  0.73565000  0.11503000  1
  Y  Y7  1  0.25000000  0.75000000  0.96571000  1
  In  In8  1  0.75000000  0.75000000  0.96571000  1
  In  In9  1  0.25326500  0.74673500  0.10809000  1
  In  In10  1  0.74673500  0.25326500  0.10809000  1
  In  In11  1  0.25000000  0.25000000  0.96571000  1
  Ag  Ag12  1  0.00000000  0.50000000  0.89714000  1
  Ag  Ag13  1  0.50000000  0.50000000  0.03091000  1
  Ag  Ag14  1  0.00000000  0.00000000  0.03698000  1
  Ag  Ag15  1  0.50000000  0.00000000  0.89714000  1
  C  C16  1  0.50000000  0.50000000  0.12309000  1
