# generated using pymatgen
data_Nb8Ni16Sn8CO
_symmetry_space_group_name_H-M   P1
_cell_length_a   6.23466000
_cell_length_b   8.81715000
_cell_length_c   26.61290000
_cell_angle_alpha   90.00000000
_cell_angle_beta   90.00000000
_cell_angle_gamma   90.00000000
_symmetry_Int_Tables_number   1
_chemical_formula_structural   Nb8Ni16Sn8CO
_chemical_formula_sum   'Nb8 Ni16 Sn8 C1 O1'
_cell_volume   1462.96254027
_cell_formula_units_Z   1
loop_
 _symmetry_equiv_pos_site_id
 _symmetry_equiv_pos_as_xyz
  1  'x, y, z'
loop_
 _atom_site_type_symbol
 _atom_site_label
 _atom_site_symmetry_multiplicity
 _atom_site_fract_x
 _atom_site_fract_y
 _atom_site_fract_z
 _atom_site_occupancy
  Nb  Nb0  1  -0.00000000  0.50000000  0.87576000  1.0
  Nb  Nb1  1  0.00000000  0.00000000  0.87576000  1.0
  Nb  Nb2  1  0.00002000  0.00197000  0.04249000  1.0
  Nb  Nb3  1  0.00003000  0.49801000  0.04249000  1.0
  Nb  Nb4  1  0.50000000  0.25000000  0.95859000  1.0
  Nb  Nb5  1  0.50000000  0.75000000  0.95859000  1.0
  Nb  Nb6  1  0.50003000  0.75000000  0.12052000  1.0
  Nb  Nb7  1  0.50004000  0.25001000  0.12024000  1.0
  Ni  Ni8  1  0.22222000  0.74999000  0.04892000  1.0
  Ni  Ni9  1  0.24721000  0.24998000  0.04444000  1.0
  Ni  Ni10  1  0.25000000  0.00000000  0.95859000  1.0
  Ni  Ni11  1  0.25000000  0.25000000  0.87576000  1.0
  Ni  Ni12  1  0.25000000  0.50000000  0.95859000  1.0
  Ni  Ni13  1  0.25000000  0.75000000  0.87576000  1.0
  Ni  Ni14  1  0.27181000  0.00033000  0.11893000  1.0
  Ni  Ni15  1  0.27185000  0.49967000  0.11894000  1.0
  Ni  Ni16  1  0.72822000  0.00033000  0.11893000  1.0
  Ni  Ni17  1  0.72824000  0.49967000  0.11892000  1.0
  Ni  Ni18  1  0.75000000  0.00000000  0.95859000  1.0
  Ni  Ni19  1  0.75000000  0.25000000  0.87576000  1.0
  Ni  Ni20  1  0.75000000  0.50000000  0.95859000  1.0
  Ni  Ni21  1  0.75000000  0.75000000  0.87576000  1.0
  Ni  Ni22  1  0.75287000  0.25003000  0.04443000  1.0
  Ni  Ni23  1  0.77788000  0.74999000  0.04893000  1.0
  Sn  Sn24  1  -0.00000000  0.75000000  0.95859000  1.0
  Sn  Sn25  1  -0.00000000  0.25000000  0.95859000  1.0
  Sn  Sn26  1  0.00003000  0.25000000  0.13406000  1.0
  Sn  Sn27  1  0.00004000  0.75002000  0.13996000  1.0
  Sn  Sn28  1  0.50000000  0.00000000  0.87576000  1.0
  Sn  Sn29  1  0.50000000  0.50000000  0.87576000  1.0
  Sn  Sn30  1  0.50002000  0.50516000  0.03803000  1.0
  Sn  Sn31  1  0.50002000  0.99484000  0.03803000  1.0
  C  C32  1  0.99842000  0.24985000  0.28218000  1.0
  O  O33  1  0.00019000  0.25001000  0.32482000  1.0
