# generated using pymatgen
data_LiYInPd
_symmetry_space_group_name_H-M   'P 1'
_cell_length_a   6.81638000
_cell_length_b   9.63982000
_cell_length_c   27.22990000
_cell_angle_alpha   90.00000000
_cell_angle_beta   90.00000000
_cell_angle_gamma   90.00000000
_symmetry_Int_Tables_number   1
_chemical_formula_structural   LiYInPd
_chemical_formula_sum   'Li8 Y8 In8 Pd8'
_cell_volume   1789.24068346
_cell_formula_units_Z   8
loop_
 _symmetry_equiv_pos_site_id
 _symmetry_equiv_pos_as_xyz
  1  'x, y, z'
loop_
 _atom_site_type_symbol
 _atom_site_label
 _atom_site_symmetry_multiplicity
 _atom_site_fract_x
 _atom_site_fract_y
 _atom_site_fract_z
 _atom_site_occupancy
  Li  Li0  1  0.75000000  0.00000000  0.95575000  1.0
  Li  Li1  1  0.75000000  0.50000000  0.95575000  1.0
  Li  Li2  1  0.25000000  0.25000000  0.86724000  1.0
  Li  Li3  1  0.25000000  0.75000000  0.86724000  1.0
  Li  Li4  1  0.53274000  0.49998000  0.17522000  1.0
  Li  Li5  1  0.52905000  0.00002000  0.17682000  1.0
  Li  Li6  1  0.21022000  0.75013000  0.04968000  1.0
  Li  Li7  1  0.21027000  0.24979000  0.04966000  1.0
  Y  Y8  1  0.00000000  0.25000000  0.95575000  1.0
  Y  Y9  1  0.00000000  0.75000000  0.95575000  1.0
  Y  Y10  1  0.50000000  0.50000000  0.86724000  1.0
  Y  Y11  1  0.50000000  0.00000000  0.86724000  1.0
  Y  Y12  1  0.92041000  0.75059000  0.13247000  1.0
  Y  Y13  1  0.92046000  0.24940000  0.13246000  1.0
  Y  Y14  1  0.49389000  0.99994000  0.05138000  1.0
  Y  Y15  1  0.49267000  0.49999000  0.05106000  1.0
  In  In16  1  0.00000000  0.00000000  0.86724000  1.0
  In  In17  1  0.00000000  0.50000000  0.86724000  1.0
  In  In18  1  0.50000000  0.75000000  0.95575000  1.0
  In  In19  1  0.50000000  0.25000000  0.95575000  1.0
  In  In20  1  0.97317000  0.49998000  0.04283000  1.0
  In  In21  1  0.97396000  0.99998000  0.04273000  1.0
  In  In22  1  0.43165000  0.24983000  0.13423000  1.0
  In  In23  1  0.43162000  0.75013000  0.13426000  1.0
  Pd  Pd24  1  0.25000000  0.00000000  0.95575000  1.0
  Pd  Pd25  1  0.25000000  0.50000000  0.95575000  1.0
  Pd  Pd26  1  0.75000000  0.25000000  0.86724000  1.0
  Pd  Pd27  1  0.75000000  0.75000000  0.86724000  1.0
  Pd  Pd28  1  0.20232000  0.50002000  0.12585000  1.0
  Pd  Pd29  1  0.20244000  0.99999000  0.12590000  1.0
  Pd  Pd30  1  0.74106000  0.74996000  0.03993000  1.0
  Pd  Pd31  1  0.74097000  0.24993000  0.03993000  1.0
