# generated using pymatgen
data_Mg8Ag24CO
_symmetry_space_group_name_H-M   P4mm
_cell_length_a   8.43103000
_cell_length_b   8.43103000
_cell_length_c   26.32330000
_cell_angle_alpha   90.00000000
_cell_angle_beta   90.00000000
_cell_angle_gamma   90.00000000
_symmetry_Int_Tables_number   99
_chemical_formula_structural   Mg8Ag24CO
_chemical_formula_sum   'Mg8 Ag24 C1 O1'
_cell_volume   1871.11983526
_cell_formula_units_Z   1
loop_
 _symmetry_equiv_pos_site_id
 _symmetry_equiv_pos_as_xyz
  1  'x, y, z'
  2  '-y, x, z'
  3  '-x, -y, z'
  4  'y, -x, z'
  5  '-x, y, z'
  6  'y, x, z'
  7  'x, -y, z'
  8  '-y, -x, z'
loop_
 _atom_site_type_symbol
 _atom_site_label
 _atom_site_symmetry_multiplicity
 _atom_site_fract_x
 _atom_site_fract_y
 _atom_site_fract_z
 _atom_site_occupancy
  Mg  Mg0  2  0.00000000  0.50000000  0.12011000  1.0
  Mg  Mg1  2  0.00000000  0.50000000  0.95996000  1.0
  Mg  Mg2  1  0.00000000  0.00000000  0.12011000  1.0
  Mg  Mg3  1  0.00000000  0.00000000  0.95996000  1.0
  Mg  Mg4  1  0.50000000  0.50000000  0.12011000  1.0
  Mg  Mg5  1  0.50000000  0.50000000  0.95996000  1.0
  Ag  Ag6  4  0.00000000  0.25000000  0.04004000  1.0
  Ag  Ag7  4  0.00000000  0.25000000  0.87989000  1.0
  Ag  Ag8  4  0.25000000  0.25000000  0.12011000  1.0
  Ag  Ag9  4  0.25000000  0.25000000  0.95996000  1.0
  Ag  Ag10  4  0.25000000  0.50000000  0.04004000  1.0
  Ag  Ag11  4  0.25000000  0.50000000  0.87989000  1.0
  C  C12  1  0.00000000  0.00000000  0.19229000  1.0
  O  O13  1  0.00000000  0.00000000  0.23598000  1.0
