# generated using pymatgen
data_Ta8Al8Ni16C
_symmetry_space_group_name_H-M   Pmm2
_cell_length_a   6.00328000
_cell_length_b   8.48992000
_cell_length_c   26.36740000
_cell_angle_alpha   90.00000000
_cell_angle_beta   90.00000000
_cell_angle_gamma   90.00000000
_symmetry_Int_Tables_number   25
_chemical_formula_structural   Ta8Al8Ni16C
_chemical_formula_sum   'Ta8 Al8 Ni16 C1'
_cell_volume   1343.87695099
_cell_formula_units_Z   1
loop_
 _symmetry_equiv_pos_site_id
 _symmetry_equiv_pos_as_xyz
  1  'x, y, z'
  2  '-x, -y, z'
  3  '-x, y, z'
  4  'x, -y, z'
loop_
 _atom_site_type_symbol
 _atom_site_label
 _atom_site_symmetry_multiplicity
 _atom_site_fract_x
 _atom_site_fract_y
 _atom_site_fract_z
 _atom_site_occupancy
  Ta  Ta0  2  0.50000000  0.25000000  0.95975000  1.0
  Ta  Ta1  2  0.50000000  0.25896000  0.11876000  1.0
  Ta  Ta2  1  0.00000000  0.00000000  0.04322000  1.0
  Ta  Ta3  1  0.00000000  0.00000000  0.87926000  1.0
  Ta  Ta4  1  0.00000000  0.50000000  0.04082000  1.0
  Ta  Ta5  1  0.00000000  0.50000000  0.87926000  1.0
  Al  Al6  2  0.00000000  0.24840000  0.12391000  1.0
  Al  Al7  2  0.00000000  0.25000000  0.95975000  1.0
  Al  Al8  1  0.50000000  0.00000000  0.04024000  1.0
  Al  Al9  1  0.50000000  0.00000000  0.87926000  1.0
  Al  Al10  1  0.50000000  0.50000000  0.03957000  1.0
  Al  Al11  1  0.50000000  0.50000000  0.87926000  1.0
  Ni  Ni12  4  0.25002000  0.25000000  0.87926000  1.0
  Ni  Ni13  4  0.25138000  0.25434000  0.03999000  1.0
  Ni  Ni14  2  0.24309000  0.50000000  0.11805000  1.0
  Ni  Ni15  2  0.24998000  0.00000000  0.95975000  1.0
  Ni  Ni16  2  0.25002000  0.50000000  0.95975000  1.0
  Ni  Ni17  2  0.29743000  0.00000000  0.12302000  1.0
  C  C18  1  0.00000000  0.00000000  0.12811000  1.0
