# generated using pymatgen
data_Li2CuSn
_symmetry_space_group_name_H-M   'P 1'
_cell_length_a   6.34973000
_cell_length_b   4.48993500
_cell_length_c   26.73490000
_cell_angle_alpha   90.00000000
_cell_angle_beta   90.00000000
_cell_angle_gamma   90.00000000
_symmetry_Int_Tables_number   1
_chemical_formula_structural   Li2CuSn
_chemical_formula_sum   'Li8 Cu4 Sn4'
_cell_volume   762.20865627
_cell_formula_units_Z   4
loop_
 _symmetry_equiv_pos_site_id
 _symmetry_equiv_pos_as_xyz
  1  'x, y, z'
loop_
 _atom_site_type_symbol
 _atom_site_label
 _atom_site_symmetry_multiplicity
 _atom_site_fract_x
 _atom_site_fract_y
 _atom_site_fract_z
 _atom_site_occupancy
  Li  Li0  1  0.00000000  0.50000000  0.95801000  1.0
  Li  Li1  1  0.50000000  0.00000000  0.87404000  1.0
  Li  Li2  1  0.75000000  0.00000000  0.95801000  1.0
  Li  Li3  1  0.25000000  0.50000000  0.87404000  1.0
  Li  Li4  1  0.01362000  0.50000000  0.12474000  1.0
  Li  Li5  1  0.51161000  0.00000000  0.03878000  1.0
  Li  Li6  1  0.72785000  0.00000000  0.13411000  1.0
  Li  Li7  1  0.25499000  0.50000000  0.04303000  1.0
  Cu  Cu8  1  0.75000000  0.50000000  0.87404000  1.0
  Cu  Cu9  1  0.25000000  0.00000000  0.95801000  1.0
  Cu  Cu10  1  0.74087000  0.50000000  0.04423000  1.0
  Cu  Cu11  1  0.27900000  0.00000000  0.11580000  1.0
  Sn  Sn12  1  0.00000000  0.00000000  0.87404000  1.0
  Sn  Sn13  1  0.50000000  0.50000000  0.95801000  1.0
  Sn  Sn14  1  0.98899000  0.00000000  0.04543000  1.0
  Sn  Sn15  1  0.49204000  0.50000000  0.13076000  1.0
