data_image0
_chemical_formula_structural       Li4Nb4Al4Pd4CO
_chemical_formula_sum              "Li4 Nb4 Al4 Pd4 C1 O1"
_cell_length_a       6.26744
_cell_length_b       6.26744
_cell_length_c       24.7006
_cell_angle_alpha    90
_cell_angle_beta     90
_cell_angle_gamma    90

_space_group_name_H-M_alt    "P 1"
_space_group_IT_number       1

loop_
  _space_group_symop_operation_xyz
  'x, y, z'

loop_
  _atom_site_type_symbol
  _atom_site_label
  _atom_site_symmetry_multiplicity
  _atom_site_fract_x
  _atom_site_fract_y
  _atom_site_fract_z
  _atom_site_occupancy
  Li  Li1       1.0  0.25000  0.25000  0.96828  1.0000
  Li  Li2       1.0  0.24890  0.75107  0.11635  1.0000
  Li  Li3       1.0  0.75107  0.24890  0.11634  1.0000
  Li  Li4       1.0  0.75000  0.75000  0.96828  1.0000
  Nb  Nb1       1.0  0.00000  0.50000  0.90485  1.0000
  Nb  Nb2       1.0  0.00464  0.00464  0.03206  1.0000
  Nb  Nb3       1.0  0.49529  0.49530  0.03200  1.0000
  Nb  Nb4       1.0  0.50000  0.00000  0.90485  1.0000
  Al  Al1       1.0  0.00000  0.00000  0.90485  1.0000
  Al  Al2       1.0  0.00225  0.49799  0.03239  1.0000
  Al  Al3       1.0  0.49800  0.00225  0.03239  1.0000
  Al  Al4       1.0  0.50000  0.50000  0.90485  1.0000
  Pd  Pd1       1.0  0.75000  0.25000  0.96828  1.0000
  Pd  Pd2       1.0  0.75004  0.75004  0.08284  1.0000
  Pd  Pd3       1.0  0.25036  0.25036  0.09251  1.0000
  Pd  Pd4       1.0  0.25000  0.75000  0.96828  1.0000
  C   C1        1.0  0.24797  0.24797  0.17223  1.0000
  O   O1        1.0  0.24827  0.24827  0.21929  1.0000
