# generated using pymatgen
data_Li4Mg4In4Ag4CO
_symmetry_space_group_name_H-M   P1
_cell_length_a   6.69019000
_cell_length_b   6.69019000
_cell_length_c   25.01760000
_cell_angle_alpha   90.00000000
_cell_angle_beta   90.00000000
_cell_angle_gamma   90.00000000
_symmetry_Int_Tables_number   1
_chemical_formula_structural   Li4Mg4In4Ag4CO
_chemical_formula_sum   'Li4 Mg4 In4 Ag4 C1 O1'
_cell_volume   1119.75380801
_cell_formula_units_Z   1
loop_
 _symmetry_equiv_pos_site_id
 _symmetry_equiv_pos_as_xyz
  1  'x, y, z'
loop_
 _atom_site_type_symbol
 _atom_site_label
 _atom_site_symmetry_multiplicity
 _atom_site_fract_x
 _atom_site_fract_y
 _atom_site_fract_z
 _atom_site_occupancy
  Li  Li0  1  -0.00000000  0.50000000  0.89972000  1.0
  Li  Li1  1  0.00405000  0.99702000  0.04021000  1.0
  Li  Li2  1  0.49441000  0.50485000  0.03917000  1.0
  Li  Li3  1  0.50000000  0.00000000  0.89972000  1.0
  Mg  Mg4  1  0.25000000  0.75000000  0.96657000  1.0
  Mg  Mg5  1  0.25172000  0.25133000  0.10566000  1.0
  Mg  Mg6  1  0.74838000  0.74843000  0.10515000  1.0
  Mg  Mg7  1  0.75000000  0.25000000  0.96657000  1.0
  In  In8  1  0.24982000  0.75002000  0.11676000  1.0
  In  In9  1  0.25000000  0.25000000  0.96657000  1.0
  In  In10  1  0.74819000  0.25199000  0.10980000  1.0
  In  In11  1  0.75000000  0.75000000  0.96657000  1.0
  Ag  Ag12  1  0.00000000  0.00000000  0.89972000  1.0
  Ag  Ag13  1  0.00459000  0.50389000  0.03671000  1.0
  Ag  Ag14  1  0.49668000  0.99591000  0.03675000  1.0
  Ag  Ag15  1  0.50000000  0.50000000  0.89972000  1.0
  C  C16  1  0.71171000  0.32089000  0.24484000  1.0
  O  O17  1  0.79903000  0.19267000  0.26352000  1.0
