# generated using pymatgen
data_Ca24Pb8CO
_symmetry_space_group_name_H-M   'P 1'
_cell_length_a   10.21910000
_cell_length_b   10.21910000
_cell_length_c   27.66430000
_cell_angle_alpha   90.00000000
_cell_angle_beta   90.00000000
_cell_angle_gamma   90.00000000
_symmetry_Int_Tables_number   1
_chemical_formula_structural   Ca24Pb8CO
_chemical_formula_sum   'Ca24 Pb8 C1 O1'
_cell_volume   2888.98298207
_cell_formula_units_Z   1
loop_
 _symmetry_equiv_pos_site_id
 _symmetry_equiv_pos_as_xyz
  1  'x, y, z'
loop_
 _atom_site_type_symbol
 _atom_site_label
 _atom_site_symmetry_multiplicity
 _atom_site_fract_x
 _atom_site_fract_y
 _atom_site_fract_z
 _atom_site_occupancy
  Ca  Ca0  1  0.24999000  0.00000000  0.04617000  1.0
  Ca  Ca1  1  0.00000000  0.25000000  0.04617000  1.0
  Ca  Ca2  1  0.24999000  0.25000000  0.13852000  1.0
  Ca  Ca3  1  0.24173000  0.00457000  0.86074000  1.0
  Ca  Ca4  1  0.00000000  0.25013000  0.87264000  1.0
  Ca  Ca5  1  0.25716000  0.25001000  0.95461000  1.0
  Ca  Ca6  1  0.75001000  0.00000000  0.04617000  1.0
  Ca  Ca7  1  0.50000000  0.25000000  0.04617000  1.0
  Ca  Ca8  1  0.75001000  0.25000000  0.13852000  1.0
  Ca  Ca9  1  0.75827000  0.00457000  0.86074000  1.0
  Ca  Ca10  1  0.50000000  0.24995000  0.86426000  1.0
  Ca  Ca11  1  0.74284000  0.25001000  0.95461000  1.0
  Ca  Ca12  1  0.24999000  0.50000000  0.04617000  1.0
  Ca  Ca13  1  0.00000000  0.75000000  0.04617000  1.0
  Ca  Ca14  1  0.24999000  0.75000000  0.13852000  1.0
  Ca  Ca15  1  0.24171000  0.49531000  0.86067000  1.0
  Ca  Ca16  1  0.00000000  0.74987000  0.86296000  1.0
  Ca  Ca17  1  0.24943000  0.74991000  0.95305000  1.0
  Ca  Ca18  1  0.75001000  0.50000000  0.04617000  1.0
  Ca  Ca19  1  0.50000000  0.75000000  0.04617000  1.0
  Ca  Ca20  1  0.75001000  0.75000000  0.13852000  1.0
  Ca  Ca21  1  0.75829000  0.49531000  0.86067000  1.0
  Ca  Ca22  1  0.50000000  0.74994000  0.86378000  1.0
  Ca  Ca23  1  0.75057000  0.74991000  0.95305000  1.0
  Pb  Pb24  1  0.00000000  0.00000000  0.13852000  1.0
  Pb  Pb25  1  0.00000000  0.99776000  0.94984000  1.0
  Pb  Pb26  1  0.50000000  1.00000000  0.13852000  1.0
  Pb  Pb27  1  0.50000000  0.99859000  0.94673000  1.0
  Pb  Pb28  1  0.00000000  0.50000000  0.13852000  1.0
  Pb  Pb29  1  0.00000000  0.50223000  0.94988000  1.0
  Pb  Pb30  1  0.50000000  0.50000000  0.13852000  1.0
  Pb  Pb31  1  0.50000000  0.50141000  0.94672000  1.0
  C  C32  1  0.00000000  0.25158000  0.78219000  1.0
  O  O33  1  0.00000000  0.25152000  0.74026000  1.0
