# generated using pymatgen
data_Ca24Pb8CO
_symmetry_space_group_name_H-M   Pm
_cell_length_a   10.21910000
_cell_length_b   10.21910000
_cell_length_c   27.66430000
_cell_angle_alpha   90.00000000
_cell_angle_beta   90.00000000
_cell_angle_gamma   90.00000000
_symmetry_Int_Tables_number   6
_chemical_formula_structural   Ca24Pb8CO
_chemical_formula_sum   'Ca24 Pb8 C1 O1'
_cell_volume   2888.98298207
_cell_formula_units_Z   1
loop_
 _symmetry_equiv_pos_site_id
 _symmetry_equiv_pos_as_xyz
  1  'x, y, z'
  2  'x, -y, z'
loop_
 _atom_site_type_symbol
 _atom_site_label
 _atom_site_symmetry_multiplicity
 _atom_site_fract_x
 _atom_site_fract_y
 _atom_site_fract_z
 _atom_site_occupancy
  Ca  Ca0  2  0.00000000  0.24999000  0.95383000  1.0
  Ca  Ca1  2  0.00457000  0.24173000  0.13926000  1.0
  Ca  Ca2  2  0.25000000  0.24999000  0.86148000  1.0
  Ca  Ca3  2  0.25001000  0.25716000  0.04539000  1.0
  Ca  Ca4  2  0.49531000  0.24171000  0.13933000  1.0
  Ca  Ca5  2  0.50000000  0.24999000  0.95383000  1.0
  Ca  Ca6  2  0.74991000  0.24943000  0.04695000  1.0
  Ca  Ca7  2  0.75000000  0.24999000  0.86148000  1.0
  Ca  Ca8  1  0.24995000  0.50000000  0.13574000  1.0
  Ca  Ca9  1  0.25000000  0.00000000  0.95383000  1.0
  Ca  Ca10  1  0.25000000  0.50000000  0.95383000  1.0
  Ca  Ca11  1  0.25013000  0.00000000  0.12736000  1.0
  Ca  Ca12  1  0.74987000  0.00000000  0.13704000  1.0
  Ca  Ca13  1  0.74994000  0.50000000  0.13622000  1.0
  Ca  Ca14  1  0.75000000  0.00000000  0.95383000  1.0
  Ca  Ca15  1  0.75000000  0.50000000  0.95383000  1.0
  Pb  Pb16  1  -0.00000000  0.50000000  0.86148000  1.0
  Pb  Pb17  1  0.00000000  0.00000000  0.86148000  1.0
  Pb  Pb18  1  0.50000000  0.00000000  0.86148000  1.0
  Pb  Pb19  1  0.50000000  0.50000000  0.86148000  1.0
  Pb  Pb20  1  0.50141000  0.50000000  0.05328000  1.0
  Pb  Pb21  1  0.50223000  0.00000000  0.05012000  1.0
  Pb  Pb22  1  0.99776000  0.00000000  0.05016000  1.0
  Pb  Pb23  1  0.99859000  0.50000000  0.05327000  1.0
  C  C24  1  0.25158000  0.00000000  0.21781000  1.0
  O  O25  1  0.25152000  0.00000000  0.25974000  1.0
