# generated using pymatgen
data_Li8Mg16Ge8CO
_symmetry_space_group_name_H-M   P1
_cell_length_a   6.76484000
_cell_length_b   9.56693000
_cell_length_c   27.17520000
_cell_angle_alpha   90.00000000
_cell_angle_beta   90.00000000
_cell_angle_gamma   90.00000000
_symmetry_Int_Tables_number   1
_chemical_formula_structural   Li8Mg16Ge8CO
_chemical_formula_sum   'Li8 Mg16 Ge8 C1 O1'
_cell_volume   1758.74499514
_cell_formula_units_Z   1
loop_
 _symmetry_equiv_pos_site_id
 _symmetry_equiv_pos_as_xyz
  1  'x, y, z'
loop_
 _atom_site_type_symbol
 _atom_site_label
 _atom_site_symmetry_multiplicity
 _atom_site_fract_x
 _atom_site_fract_y
 _atom_site_fract_z
 _atom_site_occupancy
  Li  Li0  1  -0.00000000  0.50000000  0.86798000  1.0
  Li  Li1  1  0.00000000  0.00000000  0.86798000  1.0
  Li  Li2  1  0.00012000  0.49836000  0.04963000  1.0
  Li  Li3  1  0.00015000  0.99766000  0.04956000  1.0
  Li  Li4  1  0.50000000  0.25000000  0.95599000  1.0
  Li  Li5  1  0.50000000  0.75000000  0.17519000  1.0
  Li  Li6  1  0.50000000  0.75000000  0.95599000  1.0
  Li  Li7  1  0.50003000  0.25020000  0.17245000  1.0
  Mg  Mg8  1  0.25000000  0.00000000  0.95599000  1.0
  Mg  Mg9  1  0.25000000  0.25000000  0.86798000  1.0
  Mg  Mg10  1  0.25000000  0.50000000  0.95599000  1.0
  Mg  Mg11  1  0.25000000  0.75000000  0.86798000  1.0
  Mg  Mg12  1  0.25653000  0.24911000  0.04818000  1.0
  Mg  Mg13  1  0.25684000  0.74911000  0.04718000  1.0
  Mg  Mg14  1  0.26602000  0.50291000  0.13613000  1.0
  Mg  Mg15  1  0.26602000  0.99696000  0.13612000  1.0
  Mg  Mg16  1  0.73397000  0.50291000  0.13612000  1.0
  Mg  Mg17  1  0.73399000  0.99697000  0.13611000  1.0
  Mg  Mg18  1  0.74321000  0.74912000  0.04717000  1.0
  Mg  Mg19  1  0.74356000  0.24909000  0.04816000  1.0
  Mg  Mg20  1  0.75000000  0.00000000  0.95599000  1.0
  Mg  Mg21  1  0.75000000  0.25000000  0.86798000  1.0
  Mg  Mg22  1  0.75000000  0.50000000  0.95599000  1.0
  Mg  Mg23  1  0.75000000  0.75000000  0.86798000  1.0
  Ge  Ge24  1  -0.00000000  0.25000000  0.95599000  1.0
  Ge  Ge25  1  -0.00000000  0.75000000  0.95599000  1.0
  Ge  Ge26  1  0.00002000  0.25011000  0.12937000  1.0
  Ge  Ge27  1  0.49998000  0.49916000  0.03982000  1.0
  Ge  Ge28  1  0.49998000  0.99952000  0.03986000  1.0
  Ge  Ge29  1  0.50000000  0.00000000  0.86798000  1.0
  Ge  Ge30  1  0.50000000  0.50000000  0.86798000  1.0
  Ge  Ge31  1  0.99996000  0.74992000  0.12839000  1.0
  C  C32  1  0.50000000  0.25025000  0.24909000  1.0
  O  O33  1  0.49996000  0.25055000  0.29106000  1.0
