# generated using pymatgen
data_Ti8In8Au16C
_symmetry_space_group_name_H-M   'P 1'
_cell_length_a   9.50495000
_cell_length_b   6.72102000
_cell_length_c   27.12870000
_cell_angle_alpha   90.00000000
_cell_angle_beta   90.00000000
_cell_angle_gamma   90.00000000
_symmetry_Int_Tables_number   1
_chemical_formula_structural   Ti8In8Au16C
_chemical_formula_sum   'Ti8 In8 Au16 C1'
_cell_volume   1733.06163115
_cell_formula_units_Z   1
loop_
 _symmetry_equiv_pos_site_id
 _symmetry_equiv_pos_as_xyz
  1  'x, y, z'
loop_
 _atom_site_type_symbol
 _atom_site_label
 _atom_site_symmetry_multiplicity
 _atom_site_fract_x
 _atom_site_fract_y
 _atom_site_fract_z
 _atom_site_occupancy
  Ti  Ti0  1  0.00000000  0.00000000  0.13139000  1.0
  Ti  Ti1  1  0.25000000  0.50000000  0.04380000  1.0
  Ti  Ti2  1  0.75000000  0.50000000  0.04380000  1.0
  Ti  Ti3  1  0.50000000  0.00000000  0.13139000  1.0
  Ti  Ti4  1  0.49999000  0.00000000  0.95648000  1.0
  Ti  Ti5  1  0.75402000  0.50000000  0.87698000  1.0
  Ti  Ti6  1  0.24597000  0.50000000  0.87698000  1.0
  Ti  Ti7  1  0.00002000  0.00000000  0.94218000  1.0
  In  In8  1  0.75000000  0.00000000  0.04380000  1.0
  In  In9  1  0.00000000  0.50000000  0.13139000  1.0
  In  In10  1  0.25000000  0.00000000  0.04380000  1.0
  In  In11  1  0.50000000  0.50000000  0.13139000  1.0
  In  In12  1  0.26332000  0.00000000  0.85355000  1.0
  In  In13  1  0.50002000  0.50000000  0.95799000  1.0
  In  In14  1  0.73669000  0.00000000  0.85353000  1.0
  In  In15  1  0.99998000  0.50000000  0.95601000  1.0
  Au  Au16  1  0.00000000  0.75000000  0.04380000  1.0
  Au  Au17  1  0.50000000  0.25000000  0.04380000  1.0
  Au  Au18  1  0.00000000  0.25000000  0.04380000  1.0
  Au  Au19  1  0.50000000  0.75000000  0.04380000  1.0
  Au  Au20  1  0.75000000  0.25000000  0.13139000  1.0
  Au  Au21  1  0.25000000  0.75000000  0.13139000  1.0
  Au  Au22  1  0.75000000  0.75000000  0.13139000  1.0
  Au  Au23  1  0.25000000  0.25000000  0.13139000  1.0
  Au  Au24  1  0.50001000  0.71725000  0.86331000  1.0
  Au  Au25  1  0.99997000  0.29927000  0.84861000  1.0
  Au  Au26  1  0.50001000  0.28275000  0.86331000  1.0
  Au  Au27  1  0.99997000  0.70073000  0.84861000  1.0
  Au  Au28  1  0.25270000  0.23384000  0.95419000  1.0
  Au  Au29  1  0.74730000  0.76617000  0.95419000  1.0
  Au  Au30  1  0.25270000  0.76616000  0.95419000  1.0
  Au  Au31  1  0.74730000  0.23383000  0.95419000  1.0
  C  C32  1  0.00006000  0.00000000  0.87069000  1.0
