# generated using pymatgen
data_Ti8In8Au16C
_symmetry_space_group_name_H-M   Pm
_cell_length_a   9.50495000
_cell_length_b   6.72102000
_cell_length_c   27.12870000
_cell_angle_alpha   90.00000000
_cell_angle_beta   90.00000000
_cell_angle_gamma   90.00000000
_symmetry_Int_Tables_number   6
_chemical_formula_structural   Ti8In8Au16C
_chemical_formula_sum   'Ti8 In8 Au16 C1'
_cell_volume   1733.06163115
_cell_formula_units_Z   1
loop_
 _symmetry_equiv_pos_site_id
 _symmetry_equiv_pos_as_xyz
  1  'x, y, z'
  2  'x, -y, z'
loop_
 _atom_site_type_symbol
 _atom_site_label
 _atom_site_symmetry_multiplicity
 _atom_site_fract_x
 _atom_site_fract_y
 _atom_site_fract_z
 _atom_site_occupancy
  Ti  Ti0  1  0.00000000  0.00000000  0.86861000  1.0
  Ti  Ti1  1  0.00002000  0.00000000  0.05782000  1.0
  Ti  Ti2  1  0.24597000  0.50000000  0.12302000  1.0
  Ti  Ti3  1  0.25000000  0.50000000  0.95620000  1.0
  Ti  Ti4  1  0.49999000  0.00000000  0.04352000  1.0
  Ti  Ti5  1  0.50000000  0.00000000  0.86861000  1.0
  Ti  Ti6  1  0.75000000  0.50000000  0.95620000  1.0
  Ti  Ti7  1  0.75402000  0.50000000  0.12302000  1.0
  In  In8  1  0.00000000  0.50000000  0.86861000  1.0
  In  In9  1  0.25000000  0.00000000  0.95620000  1.0
  In  In10  1  0.26332000  0.00000000  0.14645000  1.0
  In  In11  1  0.50000000  0.50000000  0.86861000  1.0
  In  In12  1  0.50002000  0.50000000  0.04201000  1.0
  In  In13  1  0.73669000  0.00000000  0.14647000  1.0
  In  In14  1  0.75000000  0.00000000  0.95620000  1.0
  In  In15  1  0.99998000  0.50000000  0.04399000  1.0
  Au  Au16  2  0.00000000  0.25000000  0.95620000  1.0
  Au  Au17  2  0.25000000  0.25000000  0.86861000  1.0
  Au  Au18  2  0.25270000  0.23384000  0.04581000  1.0
  Au  Au19  2  0.50000000  0.25000000  0.95620000  1.0
  Au  Au20  2  0.50001000  0.28275000  0.13669000  1.0
  Au  Au21  2  0.74730000  0.23383000  0.04581000  1.0
  Au  Au22  2  0.75000000  0.25000000  0.86861000  1.0
  Au  Au23  2  0.99997000  0.29927000  0.15139000  1.0
  C  C24  1  0.00006000  0.00000000  0.12931000  1.0
