# generated using pymatgen
data_Zn2CuAu
_symmetry_space_group_name_H-M   'P 1'
_cell_length_a   4.40465500
_cell_length_b   6.22913000
_cell_length_c   26.60700000
_cell_angle_alpha   90.00000000
_cell_angle_beta   90.00000000
_cell_angle_gamma   90.00000000
_symmetry_Int_Tables_number   1
_chemical_formula_structural   Zn2CuAu
_chemical_formula_sum   'Zn8 Cu4 Au4'
_cell_volume   730.02074494
_cell_formula_units_Z   4
loop_
 _symmetry_equiv_pos_site_id
 _symmetry_equiv_pos_as_xyz
  1  'x, y, z'
loop_
 _atom_site_type_symbol
 _atom_site_label
 _atom_site_symmetry_multiplicity
 _atom_site_fract_x
 _atom_site_fract_y
 _atom_site_fract_z
 _atom_site_occupancy
  Zn  Zn0  1  0.00000000  0.75000000  0.04139000  1.0
  Zn  Zn1  1  0.00000000  0.25000000  0.04139000  1.0
  Zn  Zn2  1  0.50000000  0.25000000  0.12416000  1.0
  Zn  Zn3  1  0.50000000  0.75000000  0.12416000  1.0
  Zn  Zn4  1  0.00000000  0.74218000  0.86948000  1.0
  Zn  Zn5  1  0.00000000  0.25782000  0.86948000  1.0
  Zn  Zn6  1  0.50000000  0.24509500  0.95763000  1.0
  Zn  Zn7  1  0.50000000  0.75490500  0.95763000  1.0
  Cu  Cu8  1  0.00000000  0.00000000  0.12416000  1.0
  Cu  Cu9  1  0.50000000  0.50000000  0.04139000  1.0
  Cu  Cu10  1  0.00000000  0.00000000  0.96001000  1.0
  Cu  Cu11  1  0.50000000  0.50000000  0.87936000  1.0
  Au  Au12  1  0.50000000  0.00000000  0.04139000  1.0
  Au  Au13  1  0.00000000  0.50000000  0.12416000  1.0
  Au  Au14  1  0.50000000  0.00000000  0.87378000  1.0
  Au  Au15  1  0.00000000  0.50000000  0.95904000  1.0
