# generated using pymatgen
data_V8Fe16Sn8CO
_symmetry_space_group_name_H-M   'P 1'
_cell_length_a   8.62534000
_cell_length_b   6.09904000
_cell_length_c   26.46900000
_cell_angle_alpha   90.00000000
_cell_angle_beta   90.00000000
_cell_angle_gamma   90.00000000
_symmetry_Int_Tables_number   1
_chemical_formula_structural   V8Fe16Sn8CO
_chemical_formula_sum   'V8 Fe16 Sn8 C1 O1'
_cell_volume   1392.43598725
_cell_formula_units_Z   1
loop_
 _symmetry_equiv_pos_site_id
 _symmetry_equiv_pos_as_xyz
  1  'x, y, z'
loop_
 _atom_site_type_symbol
 _atom_site_label
 _atom_site_symmetry_multiplicity
 _atom_site_fract_x
 _atom_site_fract_y
 _atom_site_fract_z
 _atom_site_occupancy
  V  V0  1  0.50000000  0.00000000  0.12220000  1.0
  V  V1  1  0.75001000  0.50000000  0.04073000  1.0
  V  V2  1  0.24999000  0.50000000  0.04073000  1.0
  V  V3  1  0.00000000  0.00000000  0.12220000  1.0
  V  V4  1  0.00000000  0.99433000  0.95717000  1.0
  V  V5  1  0.25263000  0.49857000  0.88277000  1.0
  V  V6  1  0.74737000  0.49857000  0.88277000  1.0
  V  V7  1  0.50000000  0.99760000  0.96145000  1.0
  Fe  Fe8  1  0.50000000  0.25000000  0.04073000  1.0
  Fe  Fe9  1  0.00000000  0.75000000  0.04073000  1.0
  Fe  Fe10  1  0.50000000  0.75000000  0.04073000  1.0
  Fe  Fe11  1  0.00000000  0.25000000  0.04073000  1.0
  Fe  Fe12  1  0.25001000  0.75000000  0.12220000  1.0
  Fe  Fe13  1  0.75001000  0.25000000  0.12220000  1.0
  Fe  Fe14  1  0.24999000  0.25000000  0.12220000  1.0
  Fe  Fe15  1  0.74999000  0.75000000  0.12220000  1.0
  Fe  Fe16  1  0.00000000  0.24047000  0.88024000  1.0
  Fe  Fe17  1  0.50000000  0.76099000  0.88507000  1.0
  Fe  Fe18  1  0.00000000  0.73525000  0.87596000  1.0
  Fe  Fe19  1  0.50000000  0.24967000  0.87774000  1.0
  Fe  Fe20  1  0.74655000  0.75690000  0.95276000  1.0
  Fe  Fe21  1  0.24634000  0.22842000  0.95199000  1.0
  Fe  Fe22  1  0.75366000  0.22842000  0.95199000  1.0
  Fe  Fe23  1  0.25345000  0.75690000  0.95276000  1.0
  Sn  Sn24  1  0.25001000  0.00000000  0.04073000  1.0
  Sn  Sn25  1  0.50000000  0.50000000  0.12220000  1.0
  Sn  Sn26  1  0.74999000  0.00000000  0.04073000  1.0
  Sn  Sn27  1  0.00000000  0.50000000  0.12220000  1.0
  Sn  Sn28  1  0.74838000  0.99558000  0.86008000  1.0
  Sn  Sn29  1  0.00000000  0.49969000  0.96083000  1.0
  Sn  Sn30  1  0.25162000  0.99558000  0.86008000  1.0
  Sn  Sn31  1  0.50000000  0.48812000  0.96133000  1.0
  C  C32  1  0.50000000  0.31527000  0.81281000  1.0
  O  O33  1  0.50000000  0.34021000  0.76886000  1.0
