# generated using pymatgen
data_V8Fe16Sn8CO
_symmetry_space_group_name_H-M   Pm
_cell_length_a   6.09904000
_cell_length_b   8.62534000
_cell_length_c   26.46900000
_cell_angle_alpha   90.00000000
_cell_angle_beta   90.00000000
_cell_angle_gamma   90.00000000
_symmetry_Int_Tables_number   6
_chemical_formula_structural   V8Fe16Sn8CO
_chemical_formula_sum   'V8 Fe16 Sn8 C1 O1'
_cell_volume   1392.43598725
_cell_formula_units_Z   1
loop_
 _symmetry_equiv_pos_site_id
 _symmetry_equiv_pos_as_xyz
  1  'x, y, z'
  2  'x, -y, z'
loop_
 _atom_site_type_symbol
 _atom_site_label
 _atom_site_symmetry_multiplicity
 _atom_site_fract_x
 _atom_site_fract_y
 _atom_site_fract_z
 _atom_site_occupancy
  V  V0  2  0.49857000  0.25263000  0.11723000  1.0
  V  V1  2  0.50000000  0.24999000  0.95927000  1.0
  V  V2  1  0.00000000  0.50000000  0.87780000  1.0
  V  V3  1  0.00000000  0.00000000  0.87780000  1.0
  V  V4  1  0.99433000  0.00000000  0.04283000  1.0
  V  V5  1  0.99760000  0.50000000  0.03855000  1.0
  Fe  Fe6  2  0.22842000  0.24634000  0.04801000  1.0
  Fe  Fe7  2  0.25000000  0.24999000  0.87780000  1.0
  Fe  Fe8  2  0.75000000  0.25001000  0.87780000  1.0
  Fe  Fe9  2  0.75690000  0.25345000  0.04724000  1.0
  Fe  Fe10  1  0.24047000  0.00000000  0.11976000  1.0
  Fe  Fe11  1  0.24967000  0.50000000  0.12226000  1.0
  Fe  Fe12  1  0.25000000  0.00000000  0.95927000  1.0
  Fe  Fe13  1  0.25000000  0.50000000  0.95927000  1.0
  Fe  Fe14  1  0.73525000  0.00000000  0.12404000  1.0
  Fe  Fe15  1  0.75000000  0.00000000  0.95927000  1.0
  Fe  Fe16  1  0.75000000  0.50000000  0.95927000  1.0
  Fe  Fe17  1  0.76099000  0.50000000  0.11493000  1.0
  Sn  Sn18  2  0.00000000  0.25001000  0.95927000  1.0
  Sn  Sn19  2  0.99558000  0.25162000  0.13992000  1.0
  Sn  Sn20  1  0.48812000  0.50000000  0.03867000  1.0
  Sn  Sn21  1  0.49969000  0.00000000  0.03917000  1.0
  Sn  Sn22  1  0.50000000  0.00000000  0.87780000  1.0
  Sn  Sn23  1  0.50000000  0.50000000  0.87780000  1.0
  C  C24  1  0.31527000  0.50000000  0.18719000  1.0
  O  O25  1  0.34021000  0.50000000  0.23114000  1.0
