# generated using pymatgen
data_Li16Sn8Au8C
_symmetry_space_group_name_H-M   Pm
_cell_length_a   6.60404000
_cell_length_b   9.33952000
_cell_length_c   27.00460000
_cell_angle_alpha   90.00000000
_cell_angle_beta   90.00000000
_cell_angle_gamma   90.00000000
_symmetry_Int_Tables_number   6
_chemical_formula_structural   Li16Sn8Au8C
_chemical_formula_sum   'Li16 Sn8 Au8 C1'
_cell_volume   1665.60494023
_cell_formula_units_Z   1
loop_
 _symmetry_equiv_pos_site_id
 _symmetry_equiv_pos_as_xyz
  1  'x, y, z'
  2  'x, -y, z'
loop_
 _atom_site_type_symbol
 _atom_site_label
 _atom_site_symmetry_multiplicity
 _atom_site_fract_x
 _atom_site_fract_y
 _atom_site_fract_z
 _atom_site_occupancy
  Li  Li0  2  0.50000000  0.25000000  0.87031000  1.0
  Li  Li1  2  0.50745000  0.25276000  0.03816000  1.0
  Li  Li2  2  0.72576000  0.27377000  0.12667000  1.0
  Li  Li3  2  0.75000000  0.25000000  0.95677000  1.0
  Li  Li4  1  -0.00000000  0.50000000  0.95677000  1.0
  Li  Li5  1  -0.00000000  0.00000000  0.95677000  1.0
  Li  Li6  1  0.03566000  0.50000000  0.12775000  1.0
  Li  Li7  1  0.25000000  0.00000000  0.87031000  1.0
  Li  Li8  1  0.25000000  0.50000000  0.87031000  1.0
  Li  Li9  1  0.27687000  0.50000000  0.04706000  1.0
  Li  Li10  1  0.28062000  0.00000000  0.05529000  1.0
  Li  Li11  1  0.98148000  0.00000000  0.12783000  1.0
  Sn  Sn12  2  0.00000000  0.25000000  0.87031000  1.0
  Sn  Sn13  2  0.00006000  0.25067000  0.04468000  1.0
  Sn  Sn14  1  0.47253000  0.50000000  0.14522000  1.0
  Sn  Sn15  1  0.50000000  0.00000000  0.95677000  1.0
  Sn  Sn16  1  0.50000000  0.50000000  0.95677000  1.0
  Sn  Sn17  1  0.58180000  0.00000000  0.15780000  1.0
  Au  Au18  2  0.25000000  0.25000000  0.95677000  1.0
  Au  Au19  2  0.28348000  0.23576000  0.12294000  1.0
  Au  Au20  1  0.73650000  0.50000000  0.05307000  1.0
  Au  Au21  1  0.74800000  0.00000000  0.04249000  1.0
  Au  Au22  1  0.75000000  0.00000000  0.87031000  1.0
  Au  Au23  1  0.75000000  0.50000000  0.87031000  1.0
  C  C24  1  0.27888000  0.00000000  0.13678000  1.0
