# generated using pymatgen
data_Li8Hf8In8Pd8C
_symmetry_space_group_name_H-M   'P 1'
_cell_length_a   9.21246000
_cell_length_b   6.51419000
_cell_length_c   26.90930000
_cell_angle_alpha   90.00000000
_cell_angle_beta   90.00000000
_cell_angle_gamma   90.00000000
_symmetry_Int_Tables_number   1
_chemical_formula_structural   Li8Hf8In8Pd8C
_chemical_formula_sum   'Li8 Hf8 In8 Pd8 C1'
_cell_volume   1614.87323727
_cell_formula_units_Z   1
loop_
 _symmetry_equiv_pos_site_id
 _symmetry_equiv_pos_as_xyz
  1  'x, y, z'
loop_
 _atom_site_type_symbol
 _atom_site_label
 _atom_site_symmetry_multiplicity
 _atom_site_fract_x
 _atom_site_fract_y
 _atom_site_fract_z
 _atom_site_occupancy
  Li  Li0  1  0.00000000  0.75000000  0.04279000  1.0
  Li  Li1  1  0.50000000  0.75000000  0.04279000  1.0
  Li  Li2  1  0.25000000  0.25000000  0.12838000  1.0
  Li  Li3  1  0.75000000  0.25000000  0.12838000  1.0
  Li  Li4  1  0.50000000  0.81406000  0.81940000  1.0
  Li  Li5  1  0.00000000  0.77004000  0.82428000  1.0
  Li  Li6  1  0.74872000  0.23899000  0.95518000  1.0
  Li  Li7  1  0.25128000  0.23899000  0.95518000  1.0
  Hf  Hf8  1  0.00000000  0.00000000  0.12838000  1.0
  Hf  Hf9  1  0.50000000  1.00000000  0.12838000  1.0
  Hf  Hf10  1  0.75000000  0.50000000  0.04279000  1.0
  Hf  Hf11  1  0.25000000  0.50000000  0.04279000  1.0
  Hf  Hf12  1  0.50000000  0.98964000  0.95170000  1.0
  Hf  Hf13  1  0.00000000  0.97226000  0.94768000  1.0
  Hf  Hf14  1  0.25901000  0.53297000  0.87434000  1.0
  Hf  Hf15  1  0.74099000  0.53297000  0.87434000  1.0
  In  In16  1  0.25000000  1.00000000  0.04279000  1.0
  In  In17  1  0.75000000  1.00000000  0.04279000  1.0
  In  In18  1  0.50000000  0.50000000  0.12838000  1.0
  In  In19  1  0.00000000  0.50000000  0.12838000  1.0
  In  In20  1  0.74667000  0.00242000  0.86054000  1.0
  In  In21  1  0.25333000  0.00242000  0.86054000  1.0
  In  In22  1  0.00000000  0.49521000  0.95691000  1.0
  In  In23  1  0.50000000  0.49993000  0.95843000  1.0
  Pd  Pd24  1  0.00000000  0.25000000  0.04279000  1.0
  Pd  Pd25  1  0.50000000  0.25000000  0.04279000  1.0
  Pd  Pd26  1  0.25000000  0.75000000  0.12838000  1.0
  Pd  Pd27  1  0.75000000  0.75000000  0.12838000  1.0
  Pd  Pd28  1  0.50000000  0.26992000  0.87364000  1.0
  Pd  Pd29  1  0.00000000  0.34185000  0.86050000  1.0
  Pd  Pd30  1  0.74730000  0.74880000  0.95840000  1.0
  Pd  Pd31  1  0.25270000  0.74880000  0.95840000  1.0
  C  C32  1  0.00000000  0.03145000  0.87228000  1.0
