# generated using pymatgen
data_Y8Pb24CO
_symmetry_space_group_name_H-M   'P 1'
_cell_length_a   9.91485000
_cell_length_b   9.91485000
_cell_length_c   27.43610000
_cell_angle_alpha   90.00000000
_cell_angle_beta   90.00000000
_cell_angle_gamma   90.00000000
_symmetry_Int_Tables_number   1
_chemical_formula_structural   Y8Pb24CO
_chemical_formula_sum   'Y8 Pb24 C1 O1'
_cell_volume   2697.08524776
_cell_formula_units_Z   1
loop_
 _symmetry_equiv_pos_site_id
 _symmetry_equiv_pos_as_xyz
  1  'x, y, z'
loop_
 _atom_site_type_symbol
 _atom_site_label
 _atom_site_symmetry_multiplicity
 _atom_site_fract_x
 _atom_site_fract_y
 _atom_site_fract_z
 _atom_site_occupancy
  Y  Y0  1  0.76437000  0.01435000  0.87947000  1.0
  Y  Y1  1  0.75001000  0.00000000  0.04517000  1.0
  Y  Y2  1  0.23563000  0.01435000  0.87947000  1.0
  Y  Y3  1  0.24999000  0.00000000  0.04517000  1.0
  Y  Y4  1  0.76437000  0.48566000  0.87947000  1.0
  Y  Y5  1  0.75001000  0.50000000  0.04517000  1.0
  Y  Y6  1  0.23563000  0.48566000  0.87947000  1.0
  Y  Y7  1  0.24999000  0.50000000  0.04517000  1.0
  Pb  Pb8  1  0.00000000  0.99986000  0.95924000  1.0
  Pb  Pb9  1  0.74986000  0.25000000  0.95923000  1.0
  Pb  Pb10  1  0.00000000  0.25000000  0.85756000  1.0
  Pb  Pb11  1  0.00000000  0.00000000  0.13552000  1.0
  Pb  Pb12  1  0.75001000  0.25000000  0.13552000  1.0
  Pb  Pb13  1  0.00000000  0.25000000  0.04517000  1.0
  Pb  Pb14  1  0.50000000  0.00008000  0.95384000  1.0
  Pb  Pb15  1  0.25014000  0.25000000  0.95923000  1.0
  Pb  Pb16  1  0.50000000  0.25000000  0.86158000  1.0
  Pb  Pb17  1  0.50000000  0.00000000  0.13552000  1.0
  Pb  Pb18  1  0.24999000  0.25000000  0.13552000  1.0
  Pb  Pb19  1  0.50000000  0.25000000  0.04517000  1.0
  Pb  Pb20  1  0.00000000  0.50015000  0.95924000  1.0
  Pb  Pb21  1  0.75008000  0.75000000  0.95384000  1.0
  Pb  Pb22  1  0.00000000  0.75000000  0.86160000  1.0
  Pb  Pb23  1  0.00000000  0.50000000  0.13552000  1.0
  Pb  Pb24  1  0.75001000  0.75000000  0.13552000  1.0
  Pb  Pb25  1  0.00000000  0.75000000  0.04517000  1.0
  Pb  Pb26  1  0.50000000  0.49993000  0.95384000  1.0
  Pb  Pb27  1  0.24992000  0.75000000  0.95384000  1.0
  Pb  Pb28  1  0.50000000  0.75000000  0.86351000  1.0
  Pb  Pb29  1  0.50000000  0.50000000  0.13552000  1.0
  Pb  Pb30  1  0.24999000  0.75000000  0.13552000  1.0
  Pb  Pb31  1  0.50000000  0.75000000  0.04517000  1.0
  C  C32  1  0.00000000  0.24987000  0.71595000  1.0
  O  O33  1  0.00000000  0.25002000  0.67458000  1.0
