# generated using pymatgen
data_Y8Pb24CO
_symmetry_space_group_name_H-M   Pm
_cell_length_a   9.91485000
_cell_length_b   9.91485000
_cell_length_c   27.43610000
_cell_angle_alpha   90.00000000
_cell_angle_beta   90.00000000
_cell_angle_gamma   90.00000000
_symmetry_Int_Tables_number   6
_chemical_formula_structural   Y8Pb24CO
_chemical_formula_sum   'Y8 Pb24 C1 O1'
_cell_volume   2697.08524776
_cell_formula_units_Z   1
loop_
 _symmetry_equiv_pos_site_id
 _symmetry_equiv_pos_as_xyz
  1  'x, y, z'
  2  'x, -y, z'
loop_
 _atom_site_type_symbol
 _atom_site_label
 _atom_site_symmetry_multiplicity
 _atom_site_fract_x
 _atom_site_fract_y
 _atom_site_fract_z
 _atom_site_occupancy
  Y  Y0  2  0.00000000  0.24999000  0.95483000  1.0
  Y  Y1  2  0.01435000  0.23563000  0.12053000  1.0
  Y  Y2  2  0.48566000  0.23563000  0.12053000  1.0
  Y  Y3  2  0.50000000  0.24999000  0.95483000  1.0
  Pb  Pb4  2  0.25000000  0.24999000  0.86448000  1.0
  Pb  Pb5  2  0.25000000  0.25014000  0.04077000  1.0
  Pb  Pb6  2  0.75000000  0.24992000  0.04616000  1.0
  Pb  Pb7  2  0.75000000  0.24999000  0.86448000  1.0
  Pb  Pb8  1  0.00000000  0.00000000  0.86448000  1.0
  Pb  Pb9  1  0.00000000  0.50000000  0.86448000  1.0
  Pb  Pb10  1  0.00008000  0.50000000  0.04616000  1.0
  Pb  Pb11  1  0.25000000  0.00000000  0.14244000  1.0
  Pb  Pb12  1  0.25000000  0.00000000  0.95483000  1.0
  Pb  Pb13  1  0.25000000  0.50000000  0.13842000  1.0
  Pb  Pb14  1  0.25000000  0.50000000  0.95483000  1.0
  Pb  Pb15  1  0.49993000  0.50000000  0.04616000  1.0
  Pb  Pb16  1  0.50000000  0.00000000  0.86448000  1.0
  Pb  Pb17  1  0.50000000  0.50000000  0.86448000  1.0
  Pb  Pb18  1  0.50015000  0.00000000  0.04076000  1.0
  Pb  Pb19  1  0.75000000  0.00000000  0.13840000  1.0
  Pb  Pb20  1  0.75000000  0.00000000  0.95483000  1.0
  Pb  Pb21  1  0.75000000  0.50000000  0.13649000  1.0
  Pb  Pb22  1  0.75000000  0.50000000  0.95483000  1.0
  Pb  Pb23  1  0.99986000  0.00000000  0.04076000  1.0
  C  C24  1  0.24987000  0.00000000  0.28405000  1.0
  O  O25  1  0.25002000  0.00000000  0.32542000  1.0
