# generated using pymatgen
data_Li4Ga4Ni4Pd4C
_symmetry_space_group_name_H-M   'P 1'
_cell_length_a   5.93220000
_cell_length_b   5.93220000
_cell_length_c   24.44920000
_cell_angle_alpha   90.00000000
_cell_angle_beta   90.00000000
_cell_angle_gamma   90.00000000
_symmetry_Int_Tables_number   1
_chemical_formula_structural   Li4Ga4Ni4Pd4C
_chemical_formula_sum   'Li4 Ga4 Ni4 Pd4 C1'
_cell_volume   860.39171994
_cell_formula_units_Z   1
loop_
 _symmetry_equiv_pos_site_id
 _symmetry_equiv_pos_as_xyz
  1  'x, y, z'
loop_
 _atom_site_type_symbol
 _atom_site_label
 _atom_site_symmetry_multiplicity
 _atom_site_fract_x
 _atom_site_fract_y
 _atom_site_fract_z
 _atom_site_occupancy
  Li  Li0  1  0.24975500  0.75024500  0.10590000  1
  Li  Li1  1  0.75000000  0.75000000  0.96967000  1
  Li  Li2  1  0.25000000  0.25000000  0.96967000  1
  Li  Li3  1  0.75024500  0.24975500  0.10590000  1
  Ga  Ga4  1  0.73085000  0.73085000  0.09312000  1
  Ga  Ga5  1  0.25000000  0.75000000  0.96967000  1
  Ga  Ga6  1  0.75000000  0.25000000  0.96967000  1
  Ga  Ga7  1  0.26915000  0.26915000  0.09312000  1
  Ni  Ni8  1  0.50000000  0.00000000  0.03137000  1
  Ni  Ni9  1  0.00000000  0.00000000  0.90901000  1
  Ni  Ni10  1  0.50000000  0.50000000  0.90901000  1
  Ni  Ni11  1  0.00000000  0.50000000  0.03137000  1
  Pd  Pd12  1  0.50000000  0.50000000  0.02265000  1
  Pd  Pd13  1  0.00000000  0.50000000  0.90901000  1
  Pd  Pd14  1  0.50000000  0.00000000  0.90901000  1
  Pd  Pd15  1  0.00000000  0.00000000  0.04013000  1
  C  C16  1  0.50000000  0.50000000  0.11335000  1
