# generated using pymatgen
data_Li4Ga4Ni4Pd4C
_symmetry_space_group_name_H-M   Cmm2
_cell_length_a   8.38939769
_cell_length_b   8.38939769
_cell_length_c   24.44920000
_cell_angle_alpha   90.00000000
_cell_angle_beta   90.00000000
_cell_angle_gamma   90.00000000
_symmetry_Int_Tables_number   35
_chemical_formula_structural   Li4Ga4Ni4Pd4C
_chemical_formula_sum   'Li8 Ga8 Ni8 Pd8 C2'
_cell_volume   1720.78343988
_cell_formula_units_Z   2
loop_
 _symmetry_equiv_pos_site_id
 _symmetry_equiv_pos_as_xyz
  1  'x, y, z'
  2  '-x, -y, z'
  3  '-x, y, z'
  4  'x, -y, z'
  5  'x+1/2, y+1/2, z'
  6  '-x+1/2, -y+1/2, z'
  7  '-x+1/2, y+1/2, z'
  8  'x+1/2, -y+1/2, z'
loop_
 _atom_site_type_symbol
 _atom_site_label
 _atom_site_symmetry_multiplicity
 _atom_site_fract_x
 _atom_site_fract_y
 _atom_site_fract_z
 _atom_site_occupancy
  Li  Li0  4  0.00000000  0.24975500  0.10590000  1.0
  Li  Li1  4  0.25000000  0.00000000  0.96967000  1.0
  Ga  Ga2  4  0.00000000  0.25000000  0.96967000  1.0
  Ga  Ga3  4  0.23085000  0.50000000  0.09312000  1.0
  Ni  Ni4  4  0.25000000  0.25000000  0.03137000  1.0
  Ni  Ni5  2  0.00000000  0.00000000  0.90901000  1.0
  Ni  Ni6  2  0.00000000  0.50000000  0.90901000  1.0
  Pd  Pd7  4  0.25000000  0.25000000  0.90901000  1.0
  Pd  Pd8  2  0.00000000  0.00000000  0.04013000  1.0
  Pd  Pd9  2  0.00000000  0.50000000  0.02265000  1.0
  C  C10  2  0.00000000  0.50000000  0.11335000  1.0
