# generated using pymatgen
data_Li16Ag8Sn8CO
_symmetry_space_group_name_H-M   Pm
_cell_length_a   6.59455000
_cell_length_b   9.32610000
_cell_length_c   26.99460000
_cell_angle_alpha   90.00000000
_cell_angle_beta   90.00000000
_cell_angle_gamma   90.00000000
_symmetry_Int_Tables_number   6
_chemical_formula_structural   Li16Ag8Sn8CO
_chemical_formula_sum   'Li16 Ag8 Sn8 C1 O1'
_cell_volume   1660.20657665
_cell_formula_units_Z   1
loop_
 _symmetry_equiv_pos_site_id
 _symmetry_equiv_pos_as_xyz
  1  'x, y, z'
  2  'x, -y, z'
loop_
 _atom_site_type_symbol
 _atom_site_label
 _atom_site_symmetry_multiplicity
 _atom_site_fract_x
 _atom_site_fract_y
 _atom_site_fract_z
 _atom_site_occupancy
  Li  Li0  2  0.24278000  0.25066000  0.04190000  1.0
  Li  Li1  2  0.25000000  0.25000000  0.87044000  1.0
  Li  Li2  2  0.75000000  0.25000000  0.87044000  1.0
  Li  Li3  2  0.75512000  0.24911000  0.03904000  1.0
  Li  Li4  1  0.24199000  0.50000000  0.13362000  1.0
  Li  Li5  1  0.24398000  0.00000000  0.13709000  1.0
  Li  Li6  1  0.25000000  0.00000000  0.95681000  1.0
  Li  Li7  1  0.25000000  0.50000000  0.95681000  1.0
  Li  Li8  1  0.74935000  0.50000000  0.13920000  1.0
  Li  Li9  1  0.75000000  0.00000000  0.95681000  1.0
  Li  Li10  1  0.75000000  0.50000000  0.95681000  1.0
  Li  Li11  1  0.75185000  0.00000000  0.13670000  1.0
  Ag  Ag12  2  0.50000000  0.25000000  0.95681000  1.0
  Ag  Ag13  2  0.51022000  0.25199000  0.12027000  1.0
  Ag  Ag14  1  0.00000000  0.00000000  0.87044000  1.0
  Ag  Ag15  1  0.00000000  0.50000000  0.87044000  1.0
  Ag  Ag16  1  0.99066000  0.50000000  0.04693000  1.0
  Ag  Ag17  1  0.99772000  0.00000000  0.04853000  1.0
  Sn  Sn18  2  0.00000000  0.25000000  0.95681000  1.0
  Sn  Sn19  2  0.98920000  0.25219000  0.12779000  1.0
  Sn  Sn20  1  0.50000000  0.00000000  0.87044000  1.0
  Sn  Sn21  1  0.50000000  0.50000000  0.87044000  1.0
  Sn  Sn22  1  0.50066000  0.00000000  0.04680000  1.0
  Sn  Sn23  1  0.50497000  0.50000000  0.04638000  1.0
  C  C24  1  0.25747000  0.00000000  0.21455000  1.0
  O  O25  1  0.25388000  0.00000000  0.25684000  1.0
