# generated using pymatgen
data_Li8Ge8Pd8Pb8C
_symmetry_space_group_name_H-M   Pm
_cell_length_a   6.74945000
_cell_length_b   9.54516000
_cell_length_c   27.15890000
_cell_angle_alpha   90.00000000
_cell_angle_beta   90.00000000
_cell_angle_gamma   90.00000000
_symmetry_Int_Tables_number   6
_chemical_formula_structural   Li8Ge8Pd8Pb8C
_chemical_formula_sum   'Li8 Ge8 Pd8 Pb8 C1'
_cell_volume   1749.70073016
_cell_formula_units_Z   1
loop_
 _symmetry_equiv_pos_site_id
 _symmetry_equiv_pos_as_xyz
  1  'x, y, z'
  2  'x, -y, z'
loop_
 _atom_site_type_symbol
 _atom_site_label
 _atom_site_symmetry_multiplicity
 _atom_site_fract_x
 _atom_site_fract_y
 _atom_site_fract_z
 _atom_site_occupancy
  Li  Li0  2  0.71901000  0.24347000  0.05079000  1.0
  Li  Li1  2  0.75000000  0.25000000  0.86820000  1.0
  Li  Li2  1  0.10354000  0.00000000  0.14159000  1.0
  Li  Li3  1  0.19191000  0.50000000  0.13593000  1.0
  Li  Li4  1  0.25000000  0.00000000  0.95607000  1.0
  Li  Li5  1  0.25000000  0.50000000  0.95607000  1.0
  Ge  Ge6  2  0.39620000  0.20060000  0.14383000  1.0
  Ge  Ge7  2  0.50000000  0.25000000  0.95607000  1.0
  Ge  Ge8  1  -0.00000000  0.50000000  0.86820000  1.0
  Ge  Ge9  1  0.00000000  0.00000000  0.86820000  1.0
  Ge  Ge10  1  0.01656000  0.50000000  0.03589000  1.0
  Ge  Ge11  1  0.94472000  0.00000000  0.04404000  1.0
  Pd  Pd12  2  0.10300000  0.25059000  0.08099000  1.0
  Pd  Pd13  2  0.25000000  0.25000000  0.86820000  1.0
  Pd  Pd14  1  0.71588000  0.00000000  0.11936000  1.0
  Pd  Pd15  1  0.75000000  0.00000000  0.95607000  1.0
  Pd  Pd16  1  0.75000000  0.50000000  0.95607000  1.0
  Pd  Pd17  1  0.81200000  0.50000000  0.10860000  1.0
  Pb  Pb18  2  -0.00000000  0.25000000  0.95607000  1.0
  Pb  Pb19  2  0.83107000  0.25929000  0.16738000  1.0
  Pb  Pb20  1  0.39324000  0.00000000  0.05100000  1.0
  Pb  Pb21  1  0.45719000  0.50000000  0.04754000  1.0
  Pb  Pb22  1  0.50000000  0.00000000  0.86820000  1.0
  Pb  Pb23  1  0.50000000  0.50000000  0.86820000  1.0
  C  C24  1  0.41948000  0.00000000  0.15213000  1.0
