# generated using pymatgen
data_Sc8Ni16Sn8C
_symmetry_space_group_name_H-M   P1
_cell_length_a   6.31539000
_cell_length_b   8.93131000
_cell_length_c   26.69850000
_cell_angle_alpha   90.00000000
_cell_angle_beta   90.00000000
_cell_angle_gamma   90.00000000
_symmetry_Int_Tables_number   1
_chemical_formula_structural   Sc8Ni16Sn8C
_chemical_formula_sum   'Sc8 Ni16 Sn8 C1'
_cell_volume   1505.92103943
_cell_formula_units_Z   1
loop_
 _symmetry_equiv_pos_site_id
 _symmetry_equiv_pos_as_xyz
  1  'x, y, z'
loop_
 _atom_site_type_symbol
 _atom_site_label
 _atom_site_symmetry_multiplicity
 _atom_site_fract_x
 _atom_site_fract_y
 _atom_site_fract_z
 _atom_site_occupancy
  Sc  Sc0  1  0.00000000  0.00000000  0.87455000  1.0
  Sc  Sc1  1  0.00000000  0.49997000  0.04110000  1.0
  Sc  Sc2  1  0.00000000  0.50000000  0.87455000  1.0
  Sc  Sc3  1  0.49999000  0.25354000  0.12704000  1.0
  Sc  Sc4  1  0.50000000  0.25000000  0.95818000  1.0
  Sc  Sc5  1  0.50000000  0.75000000  0.95818000  1.0
  Sc  Sc6  1  0.50001000  0.74649000  0.12706000  1.0
  Sc  Sc7  1  0.99985000  0.00007000  0.04424000  1.0
  Ni  Ni8  1  0.25000000  0.00000000  0.95818000  1.0
  Ni  Ni9  1  0.25000000  0.25000000  0.87455000  1.0
  Ni  Ni10  1  0.25000000  0.50000000  0.95818000  1.0
  Ni  Ni11  1  0.25000000  0.75000000  0.87455000  1.0
  Ni  Ni12  1  0.25035000  0.25225000  0.04403000  1.0
  Ni  Ni13  1  0.25050000  0.74771000  0.04401000  1.0
  Ni  Ni14  1  0.25942000  0.49999000  0.11924000  1.0
  Ni  Ni15  1  0.28328000  0.00000000  0.12521000  1.0
  Ni  Ni16  1  0.71675000  0.00003000  0.12522000  1.0
  Ni  Ni17  1  0.74057000  0.50000000  0.11923000  1.0
  Ni  Ni18  1  0.74951000  0.74772000  0.04399000  1.0
  Ni  Ni19  1  0.74958000  0.25224000  0.04402000  1.0
  Ni  Ni20  1  0.75000000  0.00000000  0.95818000  1.0
  Ni  Ni21  1  0.75000000  0.25000000  0.87455000  1.0
  Ni  Ni22  1  0.75000000  0.50000000  0.95818000  1.0
  Ni  Ni23  1  0.75000000  0.75000000  0.87455000  1.0
  Sn  Sn24  1  0.00000000  0.25000000  0.95818000  1.0
  Sn  Sn25  1  0.00000000  0.26393000  0.13149000  1.0
  Sn  Sn26  1  0.00000000  0.75000000  0.95818000  1.0
  Sn  Sn27  1  0.00001000  0.73609000  0.13146000  1.0
  Sn  Sn28  1  0.49999000  0.99997000  0.04042000  1.0
  Sn  Sn29  1  0.50000000  0.00000000  0.87455000  1.0
  Sn  Sn30  1  0.50000000  0.50000000  0.87455000  1.0
  Sn  Sn31  1  0.50001000  0.50001000  0.03960000  1.0
  C  C32  1  0.00002000  0.00000000  0.13425000  1.0
