# generated using pymatgen
data_LiGa2Rh
_symmetry_space_group_name_H-M   Pmm2
_cell_length_a   4.33023500
_cell_length_b   6.12388000
_cell_length_c   26.49540000
_cell_angle_alpha   90.00000000
_cell_angle_beta   90.00000000
_cell_angle_gamma   90.00000000
_symmetry_Int_Tables_number   25
_chemical_formula_structural   LiGa2Rh
_chemical_formula_sum   'Li4 Ga8 Rh4'
_cell_volume   702.60076500
_cell_formula_units_Z   4
loop_
 _symmetry_equiv_pos_site_id
 _symmetry_equiv_pos_as_xyz
  1  'x, y, z'
  2  '-x, -y, z'
  3  '-x, y, z'
  4  'x, -y, z'
loop_
 _atom_site_type_symbol
 _atom_site_label
 _atom_site_symmetry_multiplicity
 _atom_site_fract_x
 _atom_site_fract_y
 _atom_site_fract_z
 _atom_site_occupancy
  Li  Li0  1  0.00000000  0.00000000  0.12258000  1.0
  Li  Li1  1  0.00000000  0.00000000  0.96120000  1.0
  Li  Li2  1  0.50000000  0.50000000  0.04086000  1.0
  Li  Li3  1  0.50000000  0.50000000  0.86872000  1.0
  Ga  Ga4  2  0.00000000  0.23337500  0.87534000  1.0
  Ga  Ga5  2  0.00000000  0.25000000  0.04086000  1.0
  Ga  Ga6  2  0.50000000  0.25000000  0.12258000  1.0
  Ga  Ga7  2  0.50000000  0.25713000  0.95924000  1.0
  Rh  Rh8  1  0.00000000  0.50000000  0.12258000  1.0
  Rh  Rh9  1  0.00000000  0.50000000  0.96145000  1.0
  Rh  Rh10  1  0.50000000  0.00000000  0.04086000  1.0
  Rh  Rh11  1  0.50000000  0.00000000  0.88444000  1.0
