# generated using pymatgen
data_Li8Ga4Au4C
_symmetry_space_group_name_H-M   P2
_cell_length_a   6.29417000
_cell_length_b   24.72060000
_cell_length_c   6.29417000
_cell_angle_alpha   90.00000000
_cell_angle_beta   90.00000000
_cell_angle_gamma   90.00000000
_symmetry_Int_Tables_number   3
_chemical_formula_structural   Li8Ga4Au4C
_chemical_formula_sum   'Li8 Ga4 Au4 C1'
_cell_volume   979.34552839
_cell_formula_units_Z   1
loop_
 _symmetry_equiv_pos_site_id
 _symmetry_equiv_pos_as_xyz
  1  'x, y, z'
  2  '-x, y, -z'
loop_
 _atom_site_type_symbol
 _atom_site_label
 _atom_site_symmetry_multiplicity
 _atom_site_fract_x
 _atom_site_fract_y
 _atom_site_fract_z
 _atom_site_occupancy
  Li  Li0  2  0.24397000  0.12357000  0.24386000  1.0
  Li  Li1  2  0.25000000  0.96817000  0.75001000  1.0
  Li  Li2  1  0.00000000  0.03122000  0.00000000  1.0
  Li  Li3  1  0.00000000  0.90452000  0.50000000  1.0
  Li  Li4  1  0.50000000  0.04166000  0.50000000  1.0
  Li  Li5  1  0.50000000  0.90452000  0.00000000  1.0
  Ga  Ga6  1  0.00000000  0.03810000  0.50000000  1.0
  Ga  Ga7  1  0.00000000  0.90452000  0.00000000  1.0
  Ga  Ga8  1  0.50000000  0.03809000  0.00000000  1.0
  Ga  Ga9  1  0.50000000  0.90452000  0.50000000  1.0
  Au  Au10  2  0.21931000  0.09578000  0.78084000  1.0
  Au  Au11  2  0.25000000  0.96817000  0.24999000  1.0
  C  C12  1  0.00000000  0.12532000  0.00000000  1.0
