data_image0
_chemical_formula_structural       Sb32C
_chemical_formula_sum              "Sb32 C1"
_cell_length_a       9.6426
_cell_length_b       9.6426
_cell_length_c       27.232
_cell_angle_alpha    90
_cell_angle_beta     90
_cell_angle_gamma    90

_space_group_name_H-M_alt    "P 1"
_space_group_IT_number       1

loop_
  _space_group_symop_operation_xyz
  'x, y, z'

loop_
  _atom_site_type_symbol
  _atom_site_label
  _atom_site_symmetry_multiplicity
  _atom_site_fract_x
  _atom_site_fract_y
  _atom_site_fract_z
  _atom_site_occupancy
  Sb  Sb1       1.0  0.00000  0.00000  0.86722  1.0000
  Sb  Sb2       1.0  0.25000  0.25000  0.86722  1.0000
  Sb  Sb3       1.0  0.25000  0.00000  0.95574  1.0000
  Sb  Sb4       1.0  0.00000  0.25000  0.95574  1.0000
  Sb  Sb5       1.0  0.00001  1.00000  0.05220  1.0000
  Sb  Sb6       1.0  0.22519  0.22519  0.08162  1.0000
  Sb  Sb7       1.0  0.23418  0.99998  0.15789  1.0000
  Sb  Sb8       1.0  0.00000  0.23420  0.15790  1.0000
  Sb  Sb9       1.0  0.00000  0.50000  0.86722  1.0000
  Sb  Sb10      1.0  0.25000  0.75000  0.86722  1.0000
  Sb  Sb11      1.0  0.25000  0.50000  0.95574  1.0000
  Sb  Sb12      1.0  0.00000  0.75000  0.95574  1.0000
  Sb  Sb13      1.0  0.00000  0.49999  0.02759  1.0000
  Sb  Sb14      1.0  0.22519  0.77483  0.08162  1.0000
  Sb  Sb15      1.0  0.27363  0.50002  0.14026  1.0000
  Sb  Sb16      1.0  0.00002  0.76581  0.15789  1.0000
  Sb  Sb17      1.0  0.50000  0.00000  0.86722  1.0000
  Sb  Sb18      1.0  0.75000  0.25000  0.86722  1.0000
  Sb  Sb19      1.0  0.75000  0.00000  0.95574  1.0000
  Sb  Sb20      1.0  0.50000  0.25000  0.95574  1.0000
  Sb  Sb21      1.0  0.49999  0.00000  0.02759  1.0000
  Sb  Sb22      1.0  0.77481  0.22520  0.08162  1.0000
  Sb  Sb23      1.0  0.76579  0.99999  0.15790  1.0000
  Sb  Sb24      1.0  0.50001  0.27363  0.14026  1.0000
  Sb  Sb25      1.0  0.50000  0.50000  0.86722  1.0000
  Sb  Sb26      1.0  0.75000  0.75000  0.86722  1.0000
  Sb  Sb27      1.0  0.75000  0.50000  0.95574  1.0000
  Sb  Sb28      1.0  0.50000  0.75000  0.95574  1.0000
  Sb  Sb29      1.0  0.50000  0.50000  0.06377  1.0000
  Sb  Sb30      1.0  0.77480  0.77480  0.08161  1.0000
  Sb  Sb31      1.0  0.72637  0.50000  0.14026  1.0000
  Sb  Sb32      1.0  0.49999  0.72637  0.14026  1.0000
  C   C1        1.0  0.00002  0.99999  0.13673  1.0000
