# generated using pymatgen
data_Sb32C
_symmetry_space_group_name_H-M   'P 1'
_cell_length_a   9.64260000
_cell_length_b   9.64260000
_cell_length_c   27.23200000
_cell_angle_alpha   90.00000000
_cell_angle_beta   90.00000000
_cell_angle_gamma   90.00000000
_symmetry_Int_Tables_number   1
_chemical_formula_structural   Sb32C
_chemical_formula_sum   'Sb32 C1'
_cell_volume   2532.02413698
_cell_formula_units_Z   1
loop_
 _symmetry_equiv_pos_site_id
 _symmetry_equiv_pos_as_xyz
  1  'x, y, z'
loop_
 _atom_site_type_symbol
 _atom_site_label
 _atom_site_symmetry_multiplicity
 _atom_site_fract_x
 _atom_site_fract_y
 _atom_site_fract_z
 _atom_site_occupancy
  Sb  Sb0  1  0.50000000  0.50000000  0.86722000  1.0
  Sb  Sb1  1  0.74999500  0.74999500  0.86722000  1.0
  Sb  Sb2  1  0.74998000  0.50000000  0.95574000  1.0
  Sb  Sb3  1  0.50000000  0.74998000  0.95574000  1.0
  Sb  Sb4  1  0.50000000  0.50000000  0.05220000  1.0
  Sb  Sb5  1  0.72518500  0.72518500  0.08162000  1.0
  Sb  Sb6  1  0.73416000  0.50000000  0.15789000  1.0
  Sb  Sb7  1  0.50000000  0.73416000  0.15789000  1.0
  Sb  Sb8  1  0.50000000  0.00000000  0.86722000  1.0
  Sb  Sb9  1  0.74999500  0.25000500  0.86722000  1.0
  Sb  Sb10  1  0.74998000  0.00000000  0.95574000  1.0
  Sb  Sb11  1  0.50000000  0.25002000  0.95574000  1.0
  Sb  Sb12  1  0.50000000  0.00000000  0.02759000  1.0
  Sb  Sb13  1  0.72518500  0.27481500  0.08162000  1.0
  Sb  Sb14  1  0.77361000  0.00000000  0.14026000  1.0
  Sb  Sb15  1  0.50000000  0.26584000  0.15789000  1.0
  Sb  Sb16  1  0.00000000  0.50000000  0.86722000  1.0
  Sb  Sb17  1  0.25000500  0.74999500  0.86722000  1.0
  Sb  Sb18  1  0.25002000  0.50000000  0.95574000  1.0
  Sb  Sb19  1  0.00000000  0.74998000  0.95574000  1.0
  Sb  Sb20  1  0.00000000  0.50000000  0.02759000  1.0
  Sb  Sb21  1  0.27481500  0.72518500  0.08162000  1.0
  Sb  Sb22  1  0.26584000  0.50000000  0.15789000  1.0
  Sb  Sb23  1  0.00000000  0.77361000  0.14026000  1.0
  Sb  Sb24  1  0.00000000  0.00000000  0.86722000  1.0
  Sb  Sb25  1  0.25000500  0.25000500  0.86722000  1.0
  Sb  Sb26  1  0.25002000  0.00000000  0.95574000  1.0
  Sb  Sb27  1  0.00000000  0.25002000  0.95574000  1.0
  Sb  Sb28  1  0.00000000  0.00000000  0.06377000  1.0
  Sb  Sb29  1  0.27481500  0.27481500  0.08162000  1.0
  Sb  Sb30  1  0.22639000  0.00000000  0.14026000  1.0
  Sb  Sb31  1  0.00000000  0.22639000  0.14026000  1.0
  C  C32  1  0.50000000  0.50000000  0.13673000  1.0
