# generated using pymatgen
data_Sb32C
_symmetry_space_group_name_H-M   P4mm
_cell_length_a   9.64260000
_cell_length_b   9.64260000
_cell_length_c   27.23200000
_cell_angle_alpha   90.00000000
_cell_angle_beta   90.00000000
_cell_angle_gamma   90.00000000
_symmetry_Int_Tables_number   99
_chemical_formula_structural   Sb32C
_chemical_formula_sum   'Sb32 C1'
_cell_volume   2532.02413698
_cell_formula_units_Z   1
loop_
 _symmetry_equiv_pos_site_id
 _symmetry_equiv_pos_as_xyz
  1  'x, y, z'
  2  '-y, x, z'
  3  '-x, -y, z'
  4  'y, -x, z'
  5  '-x, y, z'
  6  'y, x, z'
  7  'x, -y, z'
  8  '-y, -x, z'
loop_
 _atom_site_type_symbol
 _atom_site_label
 _atom_site_symmetry_multiplicity
 _atom_site_fract_x
 _atom_site_fract_y
 _atom_site_fract_z
 _atom_site_occupancy
  Sb  Sb0  4  0.00000000  0.22639000  0.14026000  1.0
  Sb  Sb1  4  0.00000000  0.25002000  0.95574000  1.0
  Sb  Sb2  4  0.25000500  0.25000500  0.86722000  1.0
  Sb  Sb3  4  0.25002000  0.50000000  0.95574000  1.0
  Sb  Sb4  4  0.26584000  0.50000000  0.15789000  1.0
  Sb  Sb5  4  0.27481500  0.27481500  0.08162000  1.0
  Sb  Sb6  2  0.00000000  0.50000000  0.02759000  1.0
  Sb  Sb7  2  0.00000000  0.50000000  0.86722000  1.0
  Sb  Sb8  1  0.00000000  0.00000000  0.06377000  1.0
  Sb  Sb9  1  0.00000000  0.00000000  0.86722000  1.0
  Sb  Sb10  1  0.50000000  0.50000000  0.05220000  1.0
  Sb  Sb11  1  0.50000000  0.50000000  0.86722000  1.0
  C  C12  1  0.50000000  0.50000000  0.13673000  1.0
