# generated using pymatgen
data_ScCo2Sn
_symmetry_space_group_name_H-M   'P 1'
_cell_length_a   4.40465500
_cell_length_b   6.22913000
_cell_length_c   26.60700000
_cell_angle_alpha   90.00000000
_cell_angle_beta   90.00000000
_cell_angle_gamma   90.00000000
_symmetry_Int_Tables_number   1
_chemical_formula_structural   ScCo2Sn
_chemical_formula_sum   'Sc4 Co8 Sn4'
_cell_volume   730.02074494
_cell_formula_units_Z   4
loop_
 _symmetry_equiv_pos_site_id
 _symmetry_equiv_pos_as_xyz
  1  'x, y, z'
loop_
 _atom_site_type_symbol
 _atom_site_label
 _atom_site_symmetry_multiplicity
 _atom_site_fract_x
 _atom_site_fract_y
 _atom_site_fract_z
 _atom_site_occupancy
  Sc  Sc0  1  0.00000000  0.00000000  0.12416000  1.0
  Sc  Sc1  1  0.50000000  0.50000000  0.04139000  1.0
  Sc  Sc2  1  0.00000000  0.00000000  0.95741500  1.0
  Sc  Sc3  1  0.50000000  0.50000000  0.87356500  1.0
  Co  Co4  1  0.00000000  0.75000000  0.04139000  1.0
  Co  Co5  1  0.00000000  0.25000000  0.04139000  1.0
  Co  Co6  1  0.50000000  0.25000000  0.12416000  1.0
  Co  Co7  1  0.50000000  0.75000000  0.12416000  1.0
  Co  Co8  1  0.00000000  0.76842500  0.88222000  1.0
  Co  Co9  1  0.00000000  0.23157500  0.88222000  1.0
  Co  Co10  1  0.50000000  0.25380500  0.95712000  1.0
  Co  Co11  1  0.50000000  0.74619500  0.95712000  1.0
  Sn  Sn12  1  0.50000000  0.00000000  0.04139000  1.0
  Sn  Sn13  1  0.00000000  0.50000000  0.12416000  1.0
  Sn  Sn14  1  0.50000000  0.00000000  0.86970000  1.0
  Sn  Sn15  1  0.00000000  0.50000000  0.95702000  1.0
