# generated using pymatgen
data_Ni12Sn4C
_symmetry_space_group_name_H-M   'P 1'
_cell_length_a   7.51544000
_cell_length_b   5.31422000
_cell_length_c   23.98570000
_cell_angle_alpha   90.00000000
_cell_angle_beta   90.00000000
_cell_angle_gamma   90.00000000
_symmetry_Int_Tables_number   1
_chemical_formula_structural   Ni12Sn4C
_chemical_formula_sum   'Ni12 Sn4 C1'
_cell_volume   957.95771393
_cell_formula_units_Z   1
loop_
 _symmetry_equiv_pos_site_id
 _symmetry_equiv_pos_as_xyz
  1  'x, y, z'
loop_
 _atom_site_type_symbol
 _atom_site_label
 _atom_site_symmetry_multiplicity
 _atom_site_fract_x
 _atom_site_fract_y
 _atom_site_fract_z
 _atom_site_occupancy
  Ni  Ni0  1  0.74082000  0.50246000  0.08099000  1.0
  Ni  Ni1  1  0.50000000  0.23893000  0.02978000  1.0
  Ni  Ni2  1  0.50000000  0.76339000  0.02922000  1.0
  Ni  Ni3  1  0.74999000  0.00000000  0.97231000  1.0
  Ni  Ni4  1  0.50000000  0.75000000  0.91692000  1.0
  Ni  Ni5  1  0.50000000  0.25000000  0.91692000  1.0
  Ni  Ni6  1  0.25918000  0.50246000  0.08099000  1.0
  Ni  Ni7  1  0.00000000  0.25055000  0.02671000  1.0
  Ni  Ni8  1  0.00000000  0.75231000  0.02627000  1.0
  Ni  Ni9  1  0.25001000  0.00000000  0.97231000  1.0
  Ni  Ni10  1  0.00000000  0.75000000  0.91692000  1.0
  Ni  Ni11  1  0.00000000  0.25000000  0.91692000  1.0
  Sn  Sn12  1  0.77106000  0.00098000  0.08974000  1.0
  Sn  Sn13  1  0.74999000  0.50000000  0.97231000  1.0
  Sn  Sn14  1  0.22894000  0.00098000  0.08974000  1.0
  Sn  Sn15  1  0.25001000  0.50000000  0.97231000  1.0
  C  C16  1  0.50000000  0.50216000  0.08135000  1.0
