# generated using pymatgen
data_Co8Si8CO
_symmetry_space_group_name_H-M   'P 1'
_cell_length_a   5.56276000
_cell_length_b   5.56276000
_cell_length_c   24.17210000
_cell_angle_alpha   90.00000000
_cell_angle_beta   90.00000000
_cell_angle_gamma   90.00000000
_symmetry_Int_Tables_number   1
_chemical_formula_structural   Co8Si8CO
_chemical_formula_sum   'Co8 Si8 C1 O1'
_cell_volume   747.98868545
_cell_formula_units_Z   1
loop_
 _symmetry_equiv_pos_site_id
 _symmetry_equiv_pos_as_xyz
  1  'x, y, z'
loop_
 _atom_site_type_symbol
 _atom_site_label
 _atom_site_symmetry_multiplicity
 _atom_site_fract_x
 _atom_site_fract_y
 _atom_site_fract_z
 _atom_site_occupancy
  Co  Co0  1  0.00000000  0.00000000  0.98143000  1.0
  Co  Co1  1  0.00000000  0.00000000  0.09650000  1.0
  Co  Co2  1  0.00000000  0.50000000  0.98143000  1.0
  Co  Co3  1  0.00000000  0.50000000  0.09650000  1.0
  Co  Co4  1  0.50000000  0.00000000  0.98143000  1.0
  Co  Co5  1  0.50000000  0.00000000  0.09650000  1.0
  Co  Co6  1  0.50000000  0.50000000  0.98143000  1.0
  Co  Co7  1  0.50000000  0.50000000  0.09650000  1.0
  Si  Si8  1  0.75000000  0.75000000  0.92390000  1.0
  Si  Si9  1  0.75000000  0.75000000  0.03896000  1.0
  Si  Si10  1  0.75000000  0.25000000  0.92390000  1.0
  Si  Si11  1  0.75000000  0.25000000  0.03896000  1.0
  Si  Si12  1  0.25000000  0.75000000  0.92390000  1.0
  Si  Si13  1  0.25000000  0.75000000  0.03896000  1.0
  Si  Si14  1  0.25000000  0.25000000  0.92390000  1.0
  Si  Si15  1  0.25000000  0.25000000  0.03896000  1.0
  C  C16  1  0.00000000  0.00000000  0.17510000  1.0
  O  O17  1  0.00000000  0.00000000  0.22268000  1.0
