# generated using pymatgen
data_Y8In8Sn8Pd8CO
_symmetry_space_group_name_H-M   'P 1'
_cell_length_a   8.73372000
_cell_length_b   9.16402000
_cell_length_c   26.79800000
_cell_angle_alpha   90.00000000
_cell_angle_beta   90.00000000
_cell_angle_gamma   90.00000000
_symmetry_Int_Tables_number   1
_chemical_formula_structural   Y8In8Sn8Pd8CO
_chemical_formula_sum   'Y8 In8 Sn8 Pd8 C1 O1'
_cell_volume   2144.80431945
_cell_formula_units_Z   1
loop_
 _symmetry_equiv_pos_site_id
 _symmetry_equiv_pos_as_xyz
  1  'x, y, z'
loop_
 _atom_site_type_symbol
 _atom_site_label
 _atom_site_symmetry_multiplicity
 _atom_site_fract_x
 _atom_site_fract_y
 _atom_site_fract_z
 _atom_site_occupancy
  Y  Y0  1  0.00000000  0.00000000  0.04228000  1.0
  Y  Y1  1  0.00000000  0.00000000  0.86759000  1.0
  Y  Y2  1  0.50000000  0.00000000  0.04228000  1.0
  Y  Y3  1  0.50000000  0.00000000  0.86830000  1.0
  Y  Y4  1  0.00000000  0.50000000  0.04228000  1.0
  Y  Y5  1  0.00000000  0.50000000  0.86812000  1.0
  Y  Y6  1  0.50000000  0.50000000  0.04228000  1.0
  Y  Y7  1  0.50000000  0.50000000  0.86853000  1.0
  In  In8  1  0.00000000  0.75000000  0.12684000  1.0
  In  In9  1  0.00000000  0.74992000  0.95745000  1.0
  In  In10  1  0.50000000  0.75000000  0.12684000  1.0
  In  In11  1  0.50000000  0.75035000  0.95790000  1.0
  In  In12  1  0.00000000  0.25000000  0.12684000  1.0
  In  In13  1  0.00000000  0.25008000  0.95745000  1.0
  In  In14  1  0.50000000  0.25000000  0.12684000  1.0
  In  In15  1  0.50000000  0.24965000  0.95790000  1.0
  Sn  Sn16  1  0.25000000  0.00000000  0.12684000  1.0
  Sn  Sn17  1  0.24975000  0.00000000  0.95631000  1.0
  Sn  Sn18  1  0.75000000  0.00000000  0.12684000  1.0
  Sn  Sn19  1  0.75025000  0.00000000  0.95631000  1.0
  Sn  Sn20  1  0.25000000  0.50000000  0.12684000  1.0
  Sn  Sn21  1  0.25005000  0.50000000  0.95674000  1.0
  Sn  Sn22  1  0.75000000  0.50000000  0.12684000  1.0
  Sn  Sn23  1  0.74995000  0.50000000  0.95674000  1.0
  Pd  Pd24  1  0.25000000  0.75000000  0.04228000  1.0
  Pd  Pd25  1  0.25244000  0.74685000  0.88347000  1.0
  Pd  Pd26  1  0.75000000  0.75000000  0.04228000  1.0
  Pd  Pd27  1  0.74756000  0.74685000  0.88347000  1.0
  Pd  Pd28  1  0.25000000  0.25000000  0.04228000  1.0
  Pd  Pd29  1  0.25244000  0.25315000  0.88347000  1.0
  Pd  Pd30  1  0.75000000  0.25000000  0.04228000  1.0
  Pd  Pd31  1  0.74756000  0.25315000  0.88347000  1.0
  C  C32  1  0.00000000  0.00000000  0.77479000  1.0
  O  O33  1  0.00000000  0.00000000  0.73187000  1.0
