# generated using pymatgen
data_Mg8Sc8Ga8Pd8C
_symmetry_space_group_name_H-M   'P 1'
_cell_length_a   9.28388000
_cell_length_b   6.56469000
_cell_length_c   26.96290000
_cell_angle_alpha   90.00000000
_cell_angle_beta   90.00000000
_cell_angle_gamma   90.00000000
_symmetry_Int_Tables_number   1
_chemical_formula_structural   Mg8Sc8Ga8Pd8C
_chemical_formula_sum   'Mg8 Sc8 Ga8 Pd8 C1'
_cell_volume   1643.27535436
_cell_formula_units_Z   1
loop_
 _symmetry_equiv_pos_site_id
 _symmetry_equiv_pos_as_xyz
  1  'x, y, z'
loop_
 _atom_site_type_symbol
 _atom_site_label
 _atom_site_symmetry_multiplicity
 _atom_site_fract_x
 _atom_site_fract_y
 _atom_site_fract_z
 _atom_site_occupancy
  Mg  Mg0  1  0.75000000  0.25000000  0.04304000  1.0
  Mg  Mg1  1  0.25000000  0.25000000  0.04304000  1.0
  Mg  Mg2  1  0.00000000  0.75000000  0.12912000  1.0
  Mg  Mg3  1  0.50000000  0.75000000  0.12912000  1.0
  Mg  Mg4  1  0.23962000  0.24784000  0.86640000  1.0
  Mg  Mg5  1  0.76038000  0.24784000  0.86640000  1.0
  Mg  Mg6  1  0.50000000  0.74606000  0.95580000  1.0
  Mg  Mg7  1  0.00000000  0.75112000  0.95612000  1.0
  Sc  Sc8  1  0.75000000  0.75000000  0.04304000  1.0
  Sc  Sc9  1  0.25000000  0.75000000  0.04304000  1.0
  Sc  Sc10  1  0.00000000  0.25000000  0.12912000  1.0
  Sc  Sc11  1  0.50000000  0.25000000  0.12912000  1.0
  Sc  Sc12  1  0.27657000  0.75164000  0.86853000  1.0
  Sc  Sc13  1  0.72343000  0.75164000  0.86853000  1.0
  Sc  Sc14  1  0.50000000  0.25869000  0.95614000  1.0
  Sc  Sc15  1  0.00000000  0.24992000  0.94989000  1.0
  Ga  Ga16  1  0.75000000  0.00000000  0.12912000  1.0
  Ga  Ga17  1  0.25000000  0.00000000  0.12912000  1.0
  Ga  Ga18  1  0.50000000  0.50000000  0.04304000  1.0
  Ga  Ga19  1  0.00000000  0.50000000  0.04304000  1.0
  Ga  Ga20  1  0.25539000  0.99580000  0.95622000  1.0
  Ga  Ga21  1  0.74461000  0.99580000  0.95622000  1.0
  Ga  Ga22  1  0.00000000  0.54272000  0.85587000  1.0
  Ga  Ga23  1  0.50000000  0.46623000  0.85698000  1.0
  Pd  Pd24  1  0.00000000  0.00000000  0.04304000  1.0
  Pd  Pd25  1  0.50000000  0.00000000  0.04304000  1.0
  Pd  Pd26  1  0.25000000  0.50000000  0.12912000  1.0
  Pd  Pd27  1  0.75000000  0.50000000  0.12912000  1.0
  Pd  Pd28  1  0.50000000  0.03384000  0.87626000  1.0
  Pd  Pd29  1  0.00000000  0.93548000  0.86440000  1.0
  Pd  Pd30  1  0.74734000  0.51354000  0.95626000  1.0
  Pd  Pd31  1  0.25266000  0.51354000  0.95626000  1.0
  C  C32  1  0.00000000  0.25016000  0.86859000  1.0
