# generated using pymatgen
data_V16Os16C
_symmetry_space_group_name_H-M   Pm
_cell_length_a   6.04788000
_cell_length_b   8.55299000
_cell_length_c   26.41470000
_cell_angle_alpha   90.00000000
_cell_angle_beta   90.00000000
_cell_angle_gamma   90.00000000
_symmetry_Int_Tables_number   6
_chemical_formula_structural   V16Os16C
_chemical_formula_sum   'V16 Os16 C1'
_cell_volume   1366.36526268
_cell_formula_units_Z   1
loop_
 _symmetry_equiv_pos_site_id
 _symmetry_equiv_pos_as_xyz
  1  'x, y, z'
  2  'x, -y, z'
loop_
 _atom_site_type_symbol
 _atom_site_label
 _atom_site_symmetry_multiplicity
 _atom_site_fract_x
 _atom_site_fract_y
 _atom_site_fract_z
 _atom_site_occupancy
  V  V0  2  0.00000000  0.25000000  0.87858000  1.0
  V  V1  2  0.00069000  0.25090000  0.04286000  1.0
  V  V2  2  0.49919000  0.25088000  0.04286000  1.0
  V  V3  2  0.50000000  0.25000000  0.87858000  1.0
  V  V4  1  0.00000000  0.00000000  0.95953000  1.0
  V  V5  1  0.00000000  0.50000000  0.95953000  1.0
  V  V6  1  0.00221000  0.50000000  0.12741000  1.0
  V  V7  1  0.49750000  0.50000000  0.12734000  1.0
  V  V8  1  0.50000000  0.00000000  0.95953000  1.0
  V  V9  1  0.50000000  0.50000000  0.95953000  1.0
  V  V10  1  0.54985000  0.00000000  0.12559000  1.0
  V  V11  1  0.95033000  0.00000000  0.12554000  1.0
  Os  Os12  2  0.24997000  0.23941000  0.11862000  1.0
  Os  Os13  2  0.25000000  0.25000000  0.95953000  1.0
  Os  Os14  2  0.74999000  0.26274000  0.11749000  1.0
  Os  Os15  2  0.75000000  0.25000000  0.95953000  1.0
  Os  Os16  1  0.24990000  0.50000000  0.04570000  1.0
  Os  Os17  1  0.24996000  0.00000000  0.04013000  1.0
  Os  Os18  1  0.25000000  0.00000000  0.87858000  1.0
  Os  Os19  1  0.25000000  0.50000000  0.87858000  1.0
  Os  Os20  1  0.74995000  0.00000000  0.03933000  1.0
  Os  Os21  1  0.74996000  0.50000000  0.04209000  1.0
  Os  Os22  1  0.75000000  0.00000000  0.87858000  1.0
  Os  Os23  1  0.75000000  0.50000000  0.87858000  1.0
  C  C24  1  0.24994000  0.00000000  0.14642000  1.0
