data_image0
_chemical_formula_structural       Al8Cr8Fe16C
_chemical_formula_sum              "Al8 Cr8 Fe16 C1"
_cell_length_a       6.50665
_cell_length_b       9.20179
_cell_length_c       26.9013
_cell_angle_alpha    90
_cell_angle_beta     90
_cell_angle_gamma    90

_space_group_name_H-M_alt    "P 1"
_space_group_IT_number       1

loop_
  _space_group_symop_operation_xyz
  'x, y, z'

loop_
  _atom_site_type_symbol
  _atom_site_label
  _atom_site_symmetry_multiplicity
  _atom_site_fract_x
  _atom_site_fract_y
  _atom_site_fract_z
  _atom_site_occupancy
  Al  Al1       1.0  0.00000  0.00000  0.87173  1.0000
  Al  Al2       1.0  0.50000  0.25000  0.95724  1.0000
  Al  Al3       1.0  0.50000  0.75000  0.95724  1.0000
  Al  Al4       1.0  0.00000  0.50000  0.87173  1.0000
  Al  Al5       1.0  0.00000  0.50000  0.04276  1.0000
  Al  Al6       1.0  0.50000  0.75000  0.12827  1.0000
  Al  Al7       1.0  0.50000  0.25000  0.12827  1.0000
  Al  Al8       1.0  0.00000  0.00000  0.04276  1.0000
  Cr  Cr1       1.0  0.00000  0.75000  0.95724  1.0000
  Cr  Cr2       1.0  0.50000  0.00000  0.87173  1.0000
  Cr  Cr3       1.0  0.00000  0.25000  0.95724  1.0000
  Cr  Cr4       1.0  0.50000  0.50000  0.87173  1.0000
  Cr  Cr5       1.0  0.00000  0.25000  0.12827  1.0000
  Cr  Cr6       1.0  0.50000  0.50000  0.04276  1.0000
  Cr  Cr7       1.0  0.00000  0.75000  0.12827  1.0000
  Cr  Cr8       1.0  0.50000  0.00000  0.04276  1.0000
  Fe  Fe1       1.0  0.25000  0.00000  0.95724  1.0000
  Fe  Fe2       1.0  0.75000  0.50000  0.95724  1.0000
  Fe  Fe3       1.0  0.75000  0.00000  0.95724  1.0000
  Fe  Fe4       1.0  0.25000  0.50000  0.95724  1.0000
  Fe  Fe5       1.0  0.75000  0.75000  0.87173  1.0000
  Fe  Fe6       1.0  0.25000  0.25000  0.87173  1.0000
  Fe  Fe7       1.0  0.25000  0.75000  0.87173  1.0000
  Fe  Fe8       1.0  0.75000  0.25000  0.87173  1.0000
  Fe  Fe9       1.0  0.25000  0.50000  0.12827  1.0000
  Fe  Fe10      1.0  0.75000  0.00000  0.12827  1.0000
  Fe  Fe11      1.0  0.75000  0.50000  0.12827  1.0000
  Fe  Fe12      1.0  0.25000  0.00000  0.12827  1.0000
  Fe  Fe13      1.0  0.75000  0.25000  0.04276  1.0000
  Fe  Fe14      1.0  0.25000  0.75000  0.04276  1.0000
  Fe  Fe15      1.0  0.25000  0.25000  0.04276  1.0000
  Fe  Fe16      1.0  0.75000  0.75000  0.04276  1.0000
  C   C1        1.0  0.00000  0.00000  0.15801  1.0000
