# generated using pymatgen
data_Li4Ni8Ge4C
_symmetry_space_group_name_H-M   Cmm2
_cell_length_a   8.07853941
_cell_length_b   8.07853941
_cell_length_c   24.28430000
_cell_angle_alpha   90.00000000
_cell_angle_beta   90.00000000
_cell_angle_gamma   90.00000000
_symmetry_Int_Tables_number   35
_chemical_formula_structural   Li4Ni8Ge4C
_chemical_formula_sum   'Li8 Ni16 Ge8 C2'
_cell_volume   1584.86139034
_cell_formula_units_Z   2
loop_
 _symmetry_equiv_pos_site_id
 _symmetry_equiv_pos_as_xyz
  1  'x, y, z'
  2  '-x, -y, z'
  3  '-x, y, z'
  4  'x, -y, z'
  5  'x+1/2, y+1/2, z'
  6  '-x+1/2, -y+1/2, z'
  7  '-x+1/2, y+1/2, z'
  8  'x+1/2, -y+1/2, z'
loop_
 _atom_site_type_symbol
 _atom_site_label
 _atom_site_symmetry_multiplicity
 _atom_site_fract_x
 _atom_site_fract_y
 _atom_site_fract_z
 _atom_site_occupancy
  Li  Li0  4  0.00000000  0.25000000  0.08821000  1.0
  Li  Li1  4  0.25000000  0.00000000  0.97060000  1.0
  Ni  Ni2  4  0.25000000  0.25000000  0.02940000  1.0
  Ni  Ni3  4  0.25000000  0.25000000  0.91179000  1.0
  Ni  Ni4  2  0.00000000  0.00000000  0.02940000  1.0
  Ni  Ni5  2  0.00000000  0.00000000  0.91179000  1.0
  Ni  Ni6  2  0.00000000  0.50000000  0.02940000  1.0
  Ni  Ni7  2  0.00000000  0.50000000  0.91179000  1.0
  Ge  Ge8  4  0.00000000  0.25000000  0.97060000  1.0
  Ge  Ge9  4  0.25000000  0.00000000  0.08821000  1.0
  C  C10  2  0.00000000  0.50000000  0.12115000  1.0
