data_image0
_chemical_formula_structural       Li8Ga16Rh8CO
_chemical_formula_sum              "Li8 Ga16 Rh8 C1 O1"
_cell_length_a       6.12388
_cell_length_b       8.66047
_cell_length_c       26.4954
_cell_angle_alpha    90
_cell_angle_beta     90
_cell_angle_gamma    90

_space_group_name_H-M_alt    "P 1"
_space_group_IT_number       1

loop_
  _space_group_symop_operation_xyz
  'x, y, z'

loop_
  _atom_site_type_symbol
  _atom_site_label
  _atom_site_symmetry_multiplicity
  _atom_site_fract_x
  _atom_site_fract_y
  _atom_site_fract_z
  _atom_site_occupancy
  Li  Li1       1.0  0.00000  0.00000  0.87742  1.0000
  Li  Li2       1.0  0.50000  0.25000  0.95914  1.0000
  Li  Li3       1.0  0.50000  0.75000  0.95914  1.0000
  Li  Li4       1.0  0.00000  0.50000  0.87742  1.0000
  Li  Li5       1.0  0.00301  0.50000  0.03912  1.0000
  Li  Li6       1.0  0.49654  0.74633  0.12813  1.0000
  Li  Li7       1.0  0.49654  0.25366  0.12813  1.0000
  Li  Li8       1.0  0.00061  1.00000  0.03884  1.0000
  Ga  Ga1       1.0  0.25000  0.00000  0.95914  1.0000
  Ga  Ga2       1.0  0.75000  0.50000  0.95914  1.0000
  Ga  Ga3       1.0  0.75000  0.00000  0.95914  1.0000
  Ga  Ga4       1.0  0.25000  0.50000  0.95914  1.0000
  Ga  Ga5       1.0  0.75000  0.75000  0.87742  1.0000
  Ga  Ga6       1.0  0.25000  0.25000  0.87742  1.0000
  Ga  Ga7       1.0  0.25000  0.75000  0.87742  1.0000
  Ga  Ga8       1.0  0.75000  0.25000  0.87742  1.0000
  Ga  Ga9       1.0  0.22326  0.50000  0.13018  1.0000
  Ga  Ga10      1.0  0.76734  1.00000  0.12543  1.0000
  Ga  Ga11      1.0  0.75916  0.50000  0.12242  1.0000
  Ga  Ga12      1.0  0.21784  1.00000  0.12567  1.0000
  Ga  Ga13      1.0  0.74108  0.24849  0.03956  1.0000
  Ga  Ga14      1.0  0.25552  0.74926  0.04012  1.0000
  Ga  Ga15      1.0  0.25552  0.25074  0.04012  1.0000
  Ga  Ga16      1.0  0.74108  0.75151  0.03956  1.0000
  Rh  Rh1       1.0  0.00000  0.75000  0.95914  1.0000
  Rh  Rh2       1.0  0.50000  0.00000  0.87742  1.0000
  Rh  Rh3       1.0  0.00000  0.25000  0.95914  1.0000
  Rh  Rh4       1.0  0.50000  0.50000  0.87742  1.0000
  Rh  Rh5       1.0  0.99557  0.25321  0.11447  1.0000
  Rh  Rh6       1.0  0.49714  0.50000  0.03804  1.0000
  Rh  Rh7       1.0  0.99556  0.74679  0.11447  1.0000
  Rh  Rh8       1.0  0.49226  1.00000  0.04992  1.0000
  C   C1        1.0  0.31549  0.00000  0.20379  1.0000
  O   O1        1.0  0.29718  0.00000  0.24705  1.0000
