# generated using pymatgen
data_Li8Ga16Rh8CO
_symmetry_space_group_name_H-M   'P 1'
_cell_length_a   8.66047000
_cell_length_b   6.12388000
_cell_length_c   26.49540000
_cell_angle_alpha   90.00000000
_cell_angle_beta   90.00000000
_cell_angle_gamma   90.00000000
_symmetry_Int_Tables_number   1
_chemical_formula_structural   Li8Ga16Rh8CO
_chemical_formula_sum   'Li8 Ga16 Rh8 C1 O1'
_cell_volume   1405.20153000
_cell_formula_units_Z   1
loop_
 _symmetry_equiv_pos_site_id
 _symmetry_equiv_pos_as_xyz
  1  'x, y, z'
loop_
 _atom_site_type_symbol
 _atom_site_label
 _atom_site_symmetry_multiplicity
 _atom_site_fract_x
 _atom_site_fract_y
 _atom_site_fract_z
 _atom_site_occupancy
  Li  Li0  1  0.00000000  0.00000000  0.12258000  1.0
  Li  Li1  1  0.25000000  0.50000000  0.04086000  1.0
  Li  Li2  1  0.75000000  0.50000000  0.04086000  1.0
  Li  Li3  1  0.50000000  0.00000000  0.12258000  1.0
  Li  Li4  1  0.50000000  0.00301000  0.96088000  1.0
  Li  Li5  1  0.74633000  0.49654000  0.87187000  1.0
  Li  Li6  1  0.25367000  0.49654000  0.87187000  1.0
  Li  Li7  1  0.00000000  0.00061000  0.96116000  1.0
  Ga  Ga8  1  0.00000000  0.25000000  0.04086000  1.0
  Ga  Ga9  1  0.50000000  0.75000000  0.04086000  1.0
  Ga  Ga10  1  0.00000000  0.75000000  0.04086000  1.0
  Ga  Ga11  1  0.50000000  0.25000000  0.04086000  1.0
  Ga  Ga12  1  0.75000000  0.75000000  0.12258000  1.0
  Ga  Ga13  1  0.25000000  0.25000000  0.12258000  1.0
  Ga  Ga14  1  0.75000000  0.25000000  0.12258000  1.0
  Ga  Ga15  1  0.25000000  0.75000000  0.12258000  1.0
  Ga  Ga16  1  0.50000000  0.22326000  0.86982000  1.0
  Ga  Ga17  1  0.00000000  0.76734000  0.87457000  1.0
  Ga  Ga18  1  0.50000000  0.75916000  0.87758000  1.0
  Ga  Ga19  1  0.00000000  0.21784000  0.87433000  1.0
  Ga  Ga20  1  0.24849000  0.74108000  0.96044000  1.0
  Ga  Ga21  1  0.74926000  0.25552000  0.95988000  1.0
  Ga  Ga22  1  0.25074000  0.25552000  0.95988000  1.0
  Ga  Ga23  1  0.75151000  0.74108000  0.96044000  1.0
  Rh  Rh24  1  0.75000000  0.00000000  0.04086000  1.0
  Rh  Rh25  1  0.00000000  0.50000000  0.12258000  1.0
  Rh  Rh26  1  0.25000000  0.00000000  0.04086000  1.0
  Rh  Rh27  1  0.50000000  0.50000000  0.12258000  1.0
  Rh  Rh28  1  0.25321000  0.99557000  0.88553000  1.0
  Rh  Rh29  1  0.50000000  0.49714000  0.96196000  1.0
  Rh  Rh30  1  0.74679000  0.99557000  0.88553000  1.0
  Rh  Rh31  1  0.00000000  0.49226000  0.95008000  1.0
  C  C32  1  0.00000000  0.31549000  0.79621000  1.0
  O  O33  1  0.00000000  0.29718000  0.75295000  1.0
