# generated using pymatgen
data_Li8Ga16Rh8CO
_symmetry_space_group_name_H-M   Pm
_cell_length_a   6.12388000
_cell_length_b   8.66047000
_cell_length_c   26.49540000
_cell_angle_alpha   90.00000000
_cell_angle_beta   90.00000000
_cell_angle_gamma   90.00000000
_symmetry_Int_Tables_number   6
_chemical_formula_structural   Li8Ga16Rh8CO
_chemical_formula_sum   'Li8 Ga16 Rh8 C1 O1'
_cell_volume   1405.20153000
_cell_formula_units_Z   1
loop_
 _symmetry_equiv_pos_site_id
 _symmetry_equiv_pos_as_xyz
  1  'x, y, z'
  2  'x, -y, z'
loop_
 _atom_site_type_symbol
 _atom_site_label
 _atom_site_symmetry_multiplicity
 _atom_site_fract_x
 _atom_site_fract_y
 _atom_site_fract_z
 _atom_site_occupancy
  Li  Li0  2  0.49654000  0.25367000  0.12813000  1.0
  Li  Li1  2  0.50000000  0.25000000  0.95914000  1.0
  Li  Li2  1  0.00000000  0.00000000  0.87742000  1.0
  Li  Li3  1  0.00000000  0.50000000  0.87742000  1.0
  Li  Li4  1  0.00061000  0.00000000  0.03884000  1.0
  Li  Li5  1  0.00301000  0.50000000  0.03912000  1.0
  Ga  Ga6  2  0.25000000  0.25000000  0.87742000  1.0
  Ga  Ga7  2  0.25552000  0.25074000  0.04012000  1.0
  Ga  Ga8  2  0.74108000  0.24849000  0.03956000  1.0
  Ga  Ga9  2  0.75000000  0.25000000  0.87742000  1.0
  Ga  Ga10  1  0.21784000  0.00000000  0.12567000  1.0
  Ga  Ga11  1  0.22326000  0.50000000  0.13018000  1.0
  Ga  Ga12  1  0.25000000  0.00000000  0.95914000  1.0
  Ga  Ga13  1  0.25000000  0.50000000  0.95914000  1.0
  Ga  Ga14  1  0.75000000  0.00000000  0.95914000  1.0
  Ga  Ga15  1  0.75000000  0.50000000  0.95914000  1.0
  Ga  Ga16  1  0.75916000  0.50000000  0.12242000  1.0
  Ga  Ga17  1  0.76734000  0.00000000  0.12543000  1.0
  Rh  Rh18  2  0.00000000  0.25000000  0.95914000  1.0
  Rh  Rh19  2  0.99557000  0.25321000  0.11447000  1.0
  Rh  Rh20  1  0.49226000  0.00000000  0.04992000  1.0
  Rh  Rh21  1  0.49714000  0.50000000  0.03804000  1.0
  Rh  Rh22  1  0.50000000  0.00000000  0.87742000  1.0
  Rh  Rh23  1  0.50000000  0.50000000  0.87742000  1.0
  C  C24  1  0.31549000  0.00000000  0.20379000  1.0
  O  O25  1  0.29718000  0.00000000  0.24705000  1.0
