# generated using pymatgen
data_Ta8Ga8Ni16CO
_symmetry_space_group_name_H-M   'P 1'
_cell_length_a   5.98793000
_cell_length_b   8.46821000
_cell_length_c   26.35120000
_cell_angle_alpha   90.00000000
_cell_angle_beta   90.00000000
_cell_angle_gamma   90.00000000
_symmetry_Int_Tables_number   1
_chemical_formula_structural   Ta8Ga8Ni16CO
_chemical_formula_sum   'Ta8 Ga8 Ni16 C1 O1'
_cell_volume   1336.19158184
_cell_formula_units_Z   1
loop_
 _symmetry_equiv_pos_site_id
 _symmetry_equiv_pos_as_xyz
  1  'x, y, z'
loop_
 _atom_site_type_symbol
 _atom_site_label
 _atom_site_symmetry_multiplicity
 _atom_site_fract_x
 _atom_site_fract_y
 _atom_site_fract_z
 _atom_site_occupancy
  Ta  Ta0  1  0.00000000  0.75000000  0.87949000  1.0
  Ta  Ta1  1  0.50000000  0.00000000  0.95983000  1.0
  Ta  Ta2  1  0.50000000  0.50000000  0.95983000  1.0
  Ta  Ta3  1  0.00000000  0.25000000  0.87949000  1.0
  Ta  Ta4  1  0.00000000  0.25386000  0.04080000  1.0
  Ta  Ta5  1  0.50000000  0.50000000  0.12195000  1.0
  Ta  Ta6  1  0.50000000  0.00000000  0.12104000  1.0
  Ta  Ta7  1  0.00000000  0.74614000  0.04080000  1.0
  Ga  Ga8  1  0.00000000  0.50000000  0.95983000  1.0
  Ga  Ga9  1  0.50000000  0.75000000  0.87949000  1.0
  Ga  Ga10  1  0.00000000  0.00000000  0.95983000  1.0
  Ga  Ga11  1  0.50000000  0.25000000  0.87949000  1.0
  Ga  Ga12  1  0.00000000  0.00000000  0.12372000  1.0
  Ga  Ga13  1  0.50000000  0.24463000  0.03929000  1.0
  Ga  Ga14  1  0.00000000  0.50000000  0.12237000  1.0
  Ga  Ga15  1  0.50000000  0.75537000  0.03929000  1.0
  Ni  Ni16  1  0.25000000  0.75000000  0.95983000  1.0
  Ni  Ni17  1  0.75000000  0.25000000  0.95983000  1.0
  Ni  Ni18  1  0.75000000  0.75000000  0.95983000  1.0
  Ni  Ni19  1  0.25000000  0.25000000  0.95983000  1.0
  Ni  Ni20  1  0.75000000  0.50000000  0.87949000  1.0
  Ni  Ni21  1  0.25000000  0.00000000  0.87949000  1.0
  Ni  Ni22  1  0.25000000  0.50000000  0.87949000  1.0
  Ni  Ni23  1  0.75000000  0.00000000  0.87949000  1.0
  Ni  Ni24  1  0.25397000  0.25135000  0.11685000  1.0
  Ni  Ni25  1  0.74603000  0.74865000  0.11685000  1.0
  Ni  Ni26  1  0.74603000  0.25135000  0.11685000  1.0
  Ni  Ni27  1  0.25397000  0.74865000  0.11685000  1.0
  Ni  Ni28  1  0.76139000  0.00000000  0.04042000  1.0
  Ni  Ni29  1  0.26852000  0.50000000  0.04294000  1.0
  Ni  Ni30  1  0.23861000  0.00000000  0.04042000  1.0
  Ni  Ni31  1  0.73148000  0.50000000  0.04294000  1.0
  C  C32  1  0.50000000  0.00000000  0.20123000  1.0
  O  O33  1  0.50000000  0.00000000  0.24514000  1.0
