data_image0
_chemical_formula_structural       Sc8In24CO
_chemical_formula_sum              "Sc8 In24 C1 O1"
_cell_length_a       9.13703
_cell_length_b       9.13703
_cell_length_c       26.8528
_cell_angle_alpha    90
_cell_angle_beta     90
_cell_angle_gamma    90

_space_group_name_H-M_alt    "P 1"
_space_group_IT_number       1

loop_
  _space_group_symop_operation_xyz
  'x, y, z'

loop_
  _atom_site_type_symbol
  _atom_site_label
  _atom_site_symmetry_multiplicity
  _atom_site_fract_x
  _atom_site_fract_y
  _atom_site_fract_z
  _atom_site_occupancy
  Sc  Sc1       1.0  0.00000  1.00000  0.12054  1.0000
  Sc  Sc2       1.0  0.00000  0.00000  0.95747  1.0000
  Sc  Sc3       1.0  0.00001  0.50003  0.12073  1.0000
  Sc  Sc4       1.0  0.00000  0.50000  0.95747  1.0000
  Sc  Sc5       1.0  0.50000  0.00000  0.12074  1.0000
  Sc  Sc6       1.0  0.50000  0.00000  0.95747  1.0000
  Sc  Sc7       1.0  0.50000  0.50000  0.12114  1.0000
  Sc  Sc8       1.0  0.50000  0.50000  0.95747  1.0000
  In  In1       1.0  1.00000  0.25021  0.04318  1.0000
  In  In2       1.0  0.25017  0.99999  0.04318  1.0000
  In  In3       1.0  0.25058  0.25061  0.13775  1.0000
  In  In4       1.0  0.00000  0.25000  0.87240  1.0000
  In  In5       1.0  0.25000  0.00000  0.87240  1.0000
  In  In6       1.0  0.25000  0.25000  0.95747  1.0000
  In  In7       1.0  0.00000  0.74980  0.04318  1.0000
  In  In8       1.0  0.25008  0.50000  0.04327  1.0000
  In  In9       1.0  0.25058  0.74939  0.13776  1.0000
  In  In10      1.0  0.00000  0.75000  0.87240  1.0000
  In  In11      1.0  0.25000  0.50000  0.87240  1.0000
  In  In12      1.0  0.25000  0.75000  0.95747  1.0000
  In  In13      1.0  0.50000  0.25014  0.04327  1.0000
  In  In14      1.0  0.74984  1.00000  0.04318  1.0000
  In  In15      1.0  0.74942  0.25061  0.13776  1.0000
  In  In16      1.0  0.50000  0.25000  0.87240  1.0000
  In  In17      1.0  0.75000  0.00000  0.87240  1.0000
  In  In18      1.0  0.75000  0.25000  0.95747  1.0000
  In  In19      1.0  0.50000  0.74986  0.04327  1.0000
  In  In20      1.0  0.74992  0.49999  0.04327  1.0000
  In  In21      1.0  0.74942  0.74940  0.13776  1.0000
  In  In22      1.0  0.50000  0.75000  0.87240  1.0000
  In  In23      1.0  0.75000  0.50000  0.87240  1.0000
  In  In24      1.0  0.75000  0.75000  0.95747  1.0000
  C   C1        1.0  1.00000  1.00000  0.20449  1.0000
  O   O1        1.0  0.99999  0.00000  0.24750  1.0000
