# generated using pymatgen
data_Li4V4Ge4Pd4C
_symmetry_space_group_name_H-M   P1
_cell_length_a   5.17268000
_cell_length_b   9.40562000
_cell_length_c   23.56350000
_cell_angle_alpha   90.00000000
_cell_angle_beta   90.00000000
_cell_angle_gamma   90.00000000
_symmetry_Int_Tables_number   1
_chemical_formula_structural   Li4V4Ge4Pd4C
_chemical_formula_sum   'Li4 V4 Ge4 Pd4 C1'
_cell_volume   1146.41758651
_cell_formula_units_Z   1
loop_
 _symmetry_equiv_pos_site_id
 _symmetry_equiv_pos_as_xyz
  1  'x, y, z'
loop_
 _atom_site_type_symbol
 _atom_site_label
 _atom_site_symmetry_multiplicity
 _atom_site_fract_x
 _atom_site_fract_y
 _atom_site_fract_z
 _atom_site_occupancy
  Li  Li0  1  0.03880000  0.24992000  0.02108000  1.0
  Li  Li1  1  0.10172000  0.75004000  0.03877000  1.0
  Li  Li2  1  0.45349000  0.25000000  0.92439000  1.0
  Li  Li3  1  0.45349000  0.75000000  0.92439000  1.0
  V  V4  1  0.66893000  0.99809000  0.06101000  1.0
  V  V5  1  0.67078000  0.50231000  0.06085000  1.0
  V  V6  1  0.80233000  0.00000000  0.97480000  1.0
  V  V7  1  0.80233000  0.50000000  0.97480000  1.0
  Ge  Ge8  1  0.16548000  0.05398000  0.08834000  1.0
  Ge  Ge9  1  0.16675000  0.44543000  0.08848000  1.0
  Ge  Ge10  1  0.30233000  0.00000000  0.97480000  1.0
  Ge  Ge11  1  0.30233000  0.50000000  0.97480000  1.0
  Pd  Pd12  1  0.56294000  0.25018000  0.01992000  1.0
  Pd  Pd13  1  0.60064000  0.75015000  0.02073000  1.0
  Pd  Pd14  1  0.95349000  0.25000000  0.92439000  1.0
  Pd  Pd15  1  0.95349000  0.75000000  0.92439000  1.0
  C  C16  1  0.29338000  0.24959000  0.08598000  1.0
