# generated using pymatgen
data_Li8Al8Pd8Pt8C
_symmetry_space_group_name_H-M   'P 1'
_cell_length_a   8.57186000
_cell_length_b   6.06122000
_cell_length_c   26.42890000
_cell_angle_alpha   90.00000000
_cell_angle_beta   90.00000000
_cell_angle_gamma   90.00000000
_symmetry_Int_Tables_number   1
_chemical_formula_structural   Li8Al8Pd8Pt8C
_chemical_formula_sum   'Li8 Al8 Pd8 Pt8 C1'
_cell_volume   1373.13805906
_cell_formula_units_Z   1
loop_
 _symmetry_equiv_pos_site_id
 _symmetry_equiv_pos_as_xyz
  1  'x, y, z'
loop_
 _atom_site_type_symbol
 _atom_site_label
 _atom_site_symmetry_multiplicity
 _atom_site_fract_x
 _atom_site_fract_y
 _atom_site_fract_z
 _atom_site_occupancy
  Li  Li0  1  0.25000000  0.00000000  0.04054000  1.0
  Li  Li1  1  0.75000000  0.00000000  0.04054000  1.0
  Li  Li2  1  0.50000000  0.50000000  0.12163000  1.0
  Li  Li3  1  0.00000000  0.50000000  0.12163000  1.0
  Li  Li4  1  0.74266000  0.00146000  0.85477000  1.0
  Li  Li5  1  0.25734000  0.00146000  0.85477000  1.0
  Li  Li6  1  0.00000000  0.50403000  0.96343000  1.0
  Li  Li7  1  0.50000000  0.49757000  0.96051000  1.0
  Al  Al8  1  0.00000000  0.00000000  0.12163000  1.0
  Al  Al9  1  0.50000000  0.00000000  0.12163000  1.0
  Al  Al10  1  0.75000000  0.50000000  0.04054000  1.0
  Al  Al11  1  0.25000000  0.50000000  0.04054000  1.0
  Al  Al12  1  0.50000000  0.99941000  0.95889000  1.0
  Al  Al13  1  0.00000000  0.99469000  0.96022000  1.0
  Al  Al14  1  0.25809000  0.49223000  0.87995000  1.0
  Al  Al15  1  0.74191000  0.49223000  0.87995000  1.0
  Pd  Pd16  1  0.00000000  0.75000000  0.04054000  1.0
  Pd  Pd17  1  0.50000000  0.75000000  0.04054000  1.0
  Pd  Pd18  1  0.25000000  0.25000000  0.12163000  1.0
  Pd  Pd19  1  0.75000000  0.25000000  0.12163000  1.0
  Pd  Pd20  1  0.50000000  0.74289000  0.88124000  1.0
  Pd  Pd21  1  0.00000000  0.72946000  0.87730000  1.0
  Pd  Pd22  1  0.75503000  0.24400000  0.95977000  1.0
  Pd  Pd23  1  0.24497000  0.24400000  0.95977000  1.0
  Pt  Pt24  1  0.00000000  0.25000000  0.04054000  1.0
  Pt  Pt25  1  0.50000000  0.25000000  0.04054000  1.0
  Pt  Pt26  1  0.25000000  0.75000000  0.12163000  1.0
  Pt  Pt27  1  0.75000000  0.75000000  0.12163000  1.0
  Pt  Pt28  1  0.50000000  0.25403000  0.88220000  1.0
  Pt  Pt29  1  0.00000000  0.26155000  0.88060000  1.0
  Pt  Pt30  1  0.75262000  0.75182000  0.95810000  1.0
  Pt  Pt31  1  0.24738000  0.75182000  0.95810000  1.0
  C  C32  1  0.00000000  0.00638000  0.84126000  1.0
