# generated using pymatgen
data_Li8Al8Pd8Pt8C
_symmetry_space_group_name_H-M   Pm
_cell_length_a   6.06122000
_cell_length_b   8.57186000
_cell_length_c   26.42890000
_cell_angle_alpha   90.00000000
_cell_angle_beta   90.00000000
_cell_angle_gamma   90.00000000
_symmetry_Int_Tables_number   6
_chemical_formula_structural   Li8Al8Pd8Pt8C
_chemical_formula_sum   'Li8 Al8 Pd8 Pt8 C1'
_cell_volume   1373.13805906
_cell_formula_units_Z   1
loop_
 _symmetry_equiv_pos_site_id
 _symmetry_equiv_pos_as_xyz
  1  'x, y, z'
  2  'x, -y, z'
loop_
 _atom_site_type_symbol
 _atom_site_label
 _atom_site_symmetry_multiplicity
 _atom_site_fract_x
 _atom_site_fract_y
 _atom_site_fract_z
 _atom_site_occupancy
  Li  Li0  2  0.00000000  0.25000000  0.95946000  1.0
  Li  Li1  2  0.00146000  0.25734000  0.14523000  1.0
  Li  Li2  1  0.49757000  0.50000000  0.03949000  1.0
  Li  Li3  1  0.50000000  0.00000000  0.87837000  1.0
  Li  Li4  1  0.50000000  0.50000000  0.87837000  1.0
  Li  Li5  1  0.50403000  0.00000000  0.03657000  1.0
  Al  Al6  2  0.49223000  0.25809000  0.12005000  1.0
  Al  Al7  2  0.50000000  0.25000000  0.95946000  1.0
  Al  Al8  1  0.00000000  0.00000000  0.87837000  1.0
  Al  Al9  1  0.00000000  0.50000000  0.87837000  1.0
  Al  Al10  1  0.99469000  0.00000000  0.03978000  1.0
  Al  Al11  1  0.99941000  0.50000000  0.04111000  1.0
  Pd  Pd12  2  0.24400000  0.24497000  0.04023000  1.0
  Pd  Pd13  2  0.25000000  0.25000000  0.87837000  1.0
  Pd  Pd14  1  0.72946000  0.00000000  0.12270000  1.0
  Pd  Pd15  1  0.74289000  0.50000000  0.11876000  1.0
  Pd  Pd16  1  0.75000000  0.00000000  0.95946000  1.0
  Pd  Pd17  1  0.75000000  0.50000000  0.95946000  1.0
  Pt  Pt18  2  0.75000000  0.25000000  0.87837000  1.0
  Pt  Pt19  2  0.75182000  0.24738000  0.04190000  1.0
  Pt  Pt20  1  0.25000000  0.00000000  0.95946000  1.0
  Pt  Pt21  1  0.25000000  0.50000000  0.95946000  1.0
  Pt  Pt22  1  0.25403000  0.50000000  0.11780000  1.0
  Pt  Pt23  1  0.26155000  0.00000000  0.11940000  1.0
  C  C24  1  0.00638000  0.00000000  0.15874000  1.0
