# generated using pymatgen
data_Li16In8Rh8CO
_symmetry_space_group_name_H-M   Pm
_cell_length_a   6.34973000
_cell_length_b   8.97987000
_cell_length_c   26.73490000
_cell_angle_alpha   90.00000000
_cell_angle_beta   90.00000000
_cell_angle_gamma   90.00000000
_symmetry_Int_Tables_number   6
_chemical_formula_structural   Li16In8Rh8CO
_chemical_formula_sum   'Li16 In8 Rh8 C1 O1'
_cell_volume   1524.41731254
_cell_formula_units_Z   1
loop_
 _symmetry_equiv_pos_site_id
 _symmetry_equiv_pos_as_xyz
  1  'x, y, z'
  2  'x, -y, z'
loop_
 _atom_site_type_symbol
 _atom_site_label
 _atom_site_symmetry_multiplicity
 _atom_site_fract_x
 _atom_site_fract_y
 _atom_site_fract_z
 _atom_site_occupancy
  Li  Li0  2  0.00000000  0.25001000  0.95801000  1.0
  Li  Li1  2  0.00989000  0.24995000  0.12513000  1.0
  Li  Li2  2  0.25000000  0.24999000  0.87404000  1.0
  Li  Li3  2  0.25711000  0.24914000  0.04100000  1.0
  Li  Li4  1  0.50000000  0.00000000  0.87404000  1.0
  Li  Li5  1  0.50000000  0.50000000  0.87404000  1.0
  Li  Li6  1  0.50159000  0.50000000  0.04323000  1.0
  Li  Li7  1  0.51024000  0.00000000  0.04180000  1.0
  Li  Li8  1  0.73305000  0.00000000  0.13284000  1.0
  Li  Li9  1  0.73524000  0.50000000  0.13254000  1.0
  Li  Li10  1  0.75000000  0.00000000  0.95801000  1.0
  Li  Li11  1  0.75000000  0.50000000  0.95801000  1.0
  In  In12  2  0.75000000  0.25001000  0.87404000  1.0
  In  In13  2  0.75812000  0.25154000  0.04030000  1.0
  In  In14  1  0.25000000  0.00000000  0.95801000  1.0
  In  In15  1  0.25000000  0.50000000  0.95801000  1.0
  In  In16  1  0.26785000  0.50000000  0.13181000  1.0
  In  In17  1  0.26965000  0.00000000  0.12899000  1.0
  Rh  Rh18  2  0.49846000  0.25073000  0.11889000  1.0
  Rh  Rh19  2  0.50000000  0.24999000  0.95801000  1.0
  Rh  Rh20  1  0.00000000  0.00000000  0.87404000  1.0
  Rh  Rh21  1  0.00000000  0.50000000  0.87404000  1.0
  Rh  Rh22  1  0.00519000  0.00000000  0.04690000  1.0
  Rh  Rh23  1  0.00992000  0.50000000  0.04755000  1.0
  C  C24  1  0.13725000  0.00000000  0.26400000  1.0
  O  O25  1  0.27990000  0.00000000  0.28965000  1.0
