# generated using pymatgen
data_Nb8Al8Ru16C
_symmetry_space_group_name_H-M   'P 1'
_cell_length_a   8.76076000
_cell_length_b   6.19479000
_cell_length_c   26.57060000
_cell_angle_alpha   90.00000000
_cell_angle_beta   90.00000000
_cell_angle_gamma   90.00000000
_symmetry_Int_Tables_number   1
_chemical_formula_structural   Nb8Al8Ru16C
_chemical_formula_sum   'Nb8 Al8 Ru16 C1'
_cell_volume   1442.01485110
_cell_formula_units_Z   1
loop_
 _symmetry_equiv_pos_site_id
 _symmetry_equiv_pos_as_xyz
  1  'x, y, z'
loop_
 _atom_site_type_symbol
 _atom_site_label
 _atom_site_symmetry_multiplicity
 _atom_site_fract_x
 _atom_site_fract_y
 _atom_site_fract_z
 _atom_site_occupancy
  Nb  Nb0  1  0.75000000  0.00000000  0.12364000  1.0
  Nb  Nb1  1  0.00000000  0.50000000  0.04121000  1.0
  Nb  Nb2  1  0.50000000  0.50000000  0.04121000  1.0
  Nb  Nb3  1  0.25000000  0.00000000  0.12364000  1.0
  Nb  Nb4  1  0.25190000  0.99982000  0.95786000  1.0
  Nb  Nb5  1  0.50000000  0.48913000  0.87588000  1.0
  Nb  Nb6  1  0.00000000  0.55755000  0.87217000  1.0
  Nb  Nb7  1  0.74810000  0.99982000  0.95786000  1.0
  Al  Al8  1  0.50000000  0.00000000  0.04121000  1.0
  Al  Al9  1  0.75000000  0.50000000  0.12364000  1.0
  Al  Al10  1  0.00000000  0.00000000  0.04121000  1.0
  Al  Al11  1  0.25000000  0.50000000  0.12364000  1.0
  Al  Al12  1  0.00000000  0.95905000  0.87084000  1.0
  Al  Al13  1  0.24906000  0.49927000  0.95750000  1.0
  Al  Al14  1  0.50000000  0.00932000  0.87292000  1.0
  Al  Al15  1  0.75094000  0.49927000  0.95750000  1.0
  Ru  Ru16  1  0.75000000  0.25000000  0.04121000  1.0
  Ru  Ru17  1  0.25000000  0.75000000  0.04121000  1.0
  Ru  Ru18  1  0.75000000  0.75000000  0.04121000  1.0
  Ru  Ru19  1  0.25000000  0.25000000  0.04121000  1.0
  Ru  Ru20  1  0.50000000  0.75000000  0.12364000  1.0
  Ru  Ru21  1  0.00000000  0.25000000  0.12364000  1.0
  Ru  Ru22  1  0.50000000  0.25000000  0.12364000  1.0
  Ru  Ru23  1  0.00000000  0.75000000  0.12364000  1.0
  Ru  Ru24  1  0.24444000  0.24289000  0.88049000  1.0
  Ru  Ru25  1  0.74033000  0.75872000  0.88076000  1.0
  Ru  Ru26  1  0.25967000  0.75872000  0.88076000  1.0
  Ru  Ru27  1  0.75556000  0.24289000  0.88049000  1.0
  Ru  Ru28  1  0.00000000  0.75063000  0.95955000  1.0
  Ru  Ru29  1  0.50000000  0.25112000  0.95795000  1.0
  Ru  Ru30  1  0.00000000  0.25441000  0.95605000  1.0
  Ru  Ru31  1  0.50000000  0.74420000  0.95864000  1.0
  C  C32  1  0.00000000  0.25335000  0.86452000  1.0
