# generated using pymatgen
data_Nb8Al8Ru16C
_symmetry_space_group_name_H-M   Pm
_cell_length_a   6.19479000
_cell_length_b   8.76076000
_cell_length_c   26.57060000
_cell_angle_alpha   90.00000000
_cell_angle_beta   90.00000000
_cell_angle_gamma   90.00000000
_symmetry_Int_Tables_number   6
_chemical_formula_structural   Nb8Al8Ru16C
_chemical_formula_sum   'Nb8 Al8 Ru16 C1'
_cell_volume   1442.01485110
_cell_formula_units_Z   1
loop_
 _symmetry_equiv_pos_site_id
 _symmetry_equiv_pos_as_xyz
  1  'x, y, z'
  2  'x, -y, z'
loop_
 _atom_site_type_symbol
 _atom_site_label
 _atom_site_symmetry_multiplicity
 _atom_site_fract_x
 _atom_site_fract_y
 _atom_site_fract_z
 _atom_site_occupancy
  Nb  Nb0  2  0.00000000  0.25000000  0.87636000  1.0
  Nb  Nb1  2  0.99982000  0.25190000  0.04214000  1.0
  Nb  Nb2  1  0.48913000  0.50000000  0.12412000  1.0
  Nb  Nb3  1  0.50000000  0.00000000  0.95879000  1.0
  Nb  Nb4  1  0.50000000  0.50000000  0.95879000  1.0
  Nb  Nb5  1  0.55755000  0.00000000  0.12783000  1.0
  Al  Al6  2  0.49927000  0.24906000  0.04250000  1.0
  Al  Al7  2  0.50000000  0.25000000  0.87636000  1.0
  Al  Al8  1  0.00000000  0.00000000  0.95879000  1.0
  Al  Al9  1  0.00000000  0.50000000  0.95879000  1.0
  Al  Al10  1  0.00932000  0.50000000  0.12708000  1.0
  Al  Al11  1  0.95905000  0.00000000  0.12916000  1.0
  Ru  Ru12  2  0.24289000  0.24444000  0.11951000  1.0
  Ru  Ru13  2  0.25000000  0.25000000  0.95879000  1.0
  Ru  Ru14  2  0.75000000  0.25000000  0.95879000  1.0
  Ru  Ru15  2  0.75872000  0.25967000  0.11924000  1.0
  Ru  Ru16  1  0.25000000  0.00000000  0.87636000  1.0
  Ru  Ru17  1  0.25000000  0.50000000  0.87636000  1.0
  Ru  Ru18  1  0.25112000  0.50000000  0.04205000  1.0
  Ru  Ru19  1  0.25441000  0.00000000  0.04395000  1.0
  Ru  Ru20  1  0.74420000  0.50000000  0.04136000  1.0
  Ru  Ru21  1  0.75000000  0.00000000  0.87636000  1.0
  Ru  Ru22  1  0.75000000  0.50000000  0.87636000  1.0
  Ru  Ru23  1  0.75063000  0.00000000  0.04045000  1.0
  C  C24  1  0.25335000  0.00000000  0.13548000  1.0
