# generated using pymatgen
data_Li4Y4In4Ge4C
_symmetry_space_group_name_H-M   'P 1'
_cell_length_a   8.49364000
_cell_length_b   6.33235000
_cell_length_c   24.73290000
_cell_angle_alpha   90.00000000
_cell_angle_beta   90.00000000
_cell_angle_gamma   90.00000000
_symmetry_Int_Tables_number   1
_chemical_formula_structural   Li4Y4In4Ge4C
_chemical_formula_sum   'Li4 Y4 In4 Ge4 C1'
_cell_volume   1330.25163765
_cell_formula_units_Z   1
loop_
 _symmetry_equiv_pos_site_id
 _symmetry_equiv_pos_as_xyz
  1  'x, y, z'
loop_
 _atom_site_type_symbol
 _atom_site_label
 _atom_site_symmetry_multiplicity
 _atom_site_fract_x
 _atom_site_fract_y
 _atom_site_fract_z
 _atom_site_occupancy
  Li  Li0  1  0.75274000  0.33632000  0.11243000  1.0
  Li  Li1  1  0.74999000  0.04141000  0.96811000  1.0
  Li  Li2  1  0.24726000  0.33632000  0.11243000  1.0
  Li  Li3  1  0.25001000  0.04141000  0.96811000  1.0
  Y  Y4  1  0.50000000  0.66022000  0.03901000  1.0
  Y  Y5  1  0.50000000  0.31212000  0.90432000  1.0
  Y  Y6  1  0.00000000  0.73569000  0.04322000  1.0
  Y  Y7  1  0.00000000  0.31212000  0.90432000  1.0
  In  In8  1  0.50000000  0.17342000  0.04038000  1.0
  In  In9  1  0.50000000  0.81212000  0.90432000  1.0
  In  In10  1  0.00000000  0.24445000  0.03487000  1.0
  In  In11  1  0.00000000  0.81212000  0.90432000  1.0
  Ge  Ge12  1  0.72194000  0.89620000  0.11405000  1.0
  Ge  Ge13  1  0.74999000  0.54141000  0.96811000  1.0
  Ge  Ge14  1  0.27806000  0.89620000  0.11405000  1.0
  Ge  Ge15  1  0.25001000  0.54141000  0.96811000  1.0
  C  C16  1  0.50000000  0.90393000  0.11458000  1.0
