data_image0
_chemical_formula_structural       LiYInGeLiYInGeLiYInGeLiYInGeC
_chemical_formula_sum              "Li4 Y4 In4 Ge4 C1"
_cell_length_a       8.49364
_cell_length_b       6.33235
_cell_length_c       24.7329
_cell_angle_alpha    90
_cell_angle_beta     90
_cell_angle_gamma    90

_space_group_name_H-M_alt    "P 1"
_space_group_IT_number       1

loop_
  _space_group_symop_operation_xyz
  'x, y, z'

loop_
  _atom_site_type_symbol
  _atom_site_label
  _atom_site_symmetry_multiplicity
  _atom_site_fract_x
  _atom_site_fract_y
  _atom_site_fract_z
  _atom_site_occupancy
  Li  Li1       1.0  0.00000  0.50000  0.09568  1.0000
  Y   Y1        1.0  0.25000  0.22929  0.03189  1.0000
  In  In1       1.0  0.25000  0.72929  0.03189  1.0000
  Ge  Ge1       1.0  0.00000  0.00000  0.09568  1.0000
  Li  Li2       1.0  0.00000  0.95859  0.96811  1.0000
  Y   Y2        1.0  0.25000  0.68788  0.90432  1.0000
  In  In2       1.0  0.25000  0.18788  0.90432  1.0000
  Ge  Ge2       1.0  0.00000  0.45859  0.96811  1.0000
  Li  Li3       1.0  0.50000  0.50000  0.09568  1.0000
  Y   Y3        1.0  0.75000  0.22929  0.03189  1.0000
  In  In3       1.0  0.75000  0.72929  0.03189  1.0000
  Ge  Ge3       1.0  0.50000  0.00000  0.09568  1.0000
  Li  Li4       1.0  0.50000  0.95859  0.96811  1.0000
  Y   Y4        1.0  0.75000  0.68788  0.90432  1.0000
  In  In4       1.0  0.75000  0.18788  0.90432  1.0000
  Ge  Ge4       1.0  0.50000  0.45859  0.96811  1.0000
  C   C1        1.0  0.25000  0.72929  0.12803  1.0000
