data_image0
_chemical_formula_structural       Li8Mg8Ag8Sn8CO
_chemical_formula_sum              "Li8 Mg8 Ag8 Sn8 C1 O1"
_cell_length_a       6.75899
_cell_length_b       9.55866
_cell_length_c       27.169
_cell_angle_alpha    90
_cell_angle_beta     90
_cell_angle_gamma    90

_space_group_name_H-M_alt    "P 1"
_space_group_IT_number       1

loop_
  _space_group_symop_operation_xyz
  'x, y, z'

loop_
  _atom_site_type_symbol
  _atom_site_label
  _atom_site_symmetry_multiplicity
  _atom_site_fract_x
  _atom_site_fract_y
  _atom_site_fract_z
  _atom_site_occupancy
  Li  Li1       1.0  0.75000  0.00000  0.95602  1.0000
  Li  Li2       1.0  0.75000  0.50000  0.95602  1.0000
  Li  Li3       1.0  0.25000  0.25000  0.86807  1.0000
  Li  Li4       1.0  0.25000  0.75000  0.86807  1.0000
  Li  Li5       1.0  0.74770  0.49162  0.13867  1.0000
  Li  Li6       1.0  0.74772  0.00839  0.13866  1.0000
  Li  Li7       1.0  0.24025  0.75000  0.04734  1.0000
  Li  Li8       1.0  0.24014  0.25000  0.04396  1.0000
  Mg  Mg1       1.0  0.25000  0.00000  0.95602  1.0000
  Mg  Mg2       1.0  0.25000  0.50000  0.95602  1.0000
  Mg  Mg3       1.0  0.75000  0.25000  0.86807  1.0000
  Mg  Mg4       1.0  0.75000  0.75000  0.86807  1.0000
  Mg  Mg5       1.0  0.24089  0.50992  0.14178  1.0000
  Mg  Mg6       1.0  0.24087  0.99003  0.14177  1.0000
  Mg  Mg7       1.0  0.75881  0.74999  0.04528  1.0000
  Mg  Mg8       1.0  0.75756  0.24999  0.04830  1.0000
  Ag  Ag1       1.0  0.00000  0.00000  0.86807  1.0000
  Ag  Ag2       1.0  0.00000  0.50000  0.86807  1.0000
  Ag  Ag3       1.0  0.50000  0.75000  0.95602  1.0000
  Ag  Ag4       1.0  0.50000  0.25000  0.95602  1.0000
  Ag  Ag5       1.0  0.00648  0.49909  0.05134  1.0000
  Ag  Ag6       1.0  0.00646  0.00091  0.05134  1.0000
  Ag  Ag7       1.0  0.46777  0.25000  0.12858  1.0000
  Ag  Ag8       1.0  0.51010  0.75000  0.13071  1.0000
  Sn  Sn1       1.0  0.00000  0.25000  0.95602  1.0000
  Sn  Sn2       1.0  0.00000  0.75000  0.95602  1.0000
  Sn  Sn3       1.0  0.50000  0.50000  0.86807  1.0000
  Sn  Sn4       1.0  0.50000  0.00000  0.86807  1.0000
  Sn  Sn5       1.0  0.97147  0.74999  0.14289  1.0000
  Sn  Sn6       1.0  0.00262  0.25000  0.14156  1.0000
  Sn  Sn7       1.0  0.49369  0.99965  0.05076  1.0000
  Sn  Sn8       1.0  0.49366  0.50035  0.05076  1.0000
  C   C1        1.0  0.07845  0.25000  0.29259  1.0000
  O   O1        1.0  0.94807  0.25000  0.31896  1.0000
