# generated using pymatgen
data_Li8Mg8Ag8Sn8CO
_symmetry_space_group_name_H-M   'P 1'
_cell_length_a   9.55866000
_cell_length_b   6.75899000
_cell_length_c   27.16900000
_cell_angle_alpha   90.00000000
_cell_angle_beta   90.00000000
_cell_angle_gamma   90.00000000
_symmetry_Int_Tables_number   1
_chemical_formula_structural   Li8Mg8Ag8Sn8CO
_chemical_formula_sum   'Li8 Mg8 Ag8 Sn8 C1 O1'
_cell_volume   1755.30452250
_cell_formula_units_Z   1
loop_
 _symmetry_equiv_pos_site_id
 _symmetry_equiv_pos_as_xyz
  1  'x, y, z'
loop_
 _atom_site_type_symbol
 _atom_site_label
 _atom_site_symmetry_multiplicity
 _atom_site_fract_x
 _atom_site_fract_y
 _atom_site_fract_z
 _atom_site_occupancy
  Li  Li0  1  0.75000000  0.75000000  0.04398000  1.0
  Li  Li1  1  0.25000000  0.75000000  0.04398000  1.0
  Li  Li2  1  0.00000000  0.25000000  0.13193000  1.0
  Li  Li3  1  0.50000000  0.25000000  0.13193000  1.0
  Li  Li4  1  0.24166000  0.74786000  0.86132000  1.0
  Li  Li5  1  0.75834000  0.74786000  0.86132000  1.0
  Li  Li6  1  0.50000000  0.24032000  0.95268000  1.0
  Li  Li7  1  0.00000000  0.24015000  0.95603000  1.0
  Mg  Mg8  1  0.75000000  0.25000000  0.04398000  1.0
  Mg  Mg9  1  0.25000000  0.25000000  0.04398000  1.0
  Mg  Mg10  1  0.00000000  0.75000000  0.13193000  1.0
  Mg  Mg11  1  0.50000000  0.75000000  0.13193000  1.0
  Mg  Mg12  1  0.25984000  0.24069000  0.85821000  1.0
  Mg  Mg13  1  0.74016000  0.24069000  0.85821000  1.0
  Mg  Mg14  1  0.50000000  0.75880000  0.95473000  1.0
  Mg  Mg15  1  0.00000000  0.75754000  0.95175000  1.0
  Ag  Ag16  1  0.75000000  0.00000000  0.13193000  1.0
  Ag  Ag17  1  0.25000000  0.00000000  0.13193000  1.0
  Ag  Ag18  1  0.50000000  0.50000000  0.04398000  1.0
  Ag  Ag19  1  0.00000000  0.50000000  0.04398000  1.0
  Ag  Ag20  1  0.24913000  0.00646000  0.94866000  1.0
  Ag  Ag21  1  0.75087000  0.00646000  0.94866000  1.0
  Ag  Ag22  1  0.00000000  0.46776000  0.87140000  1.0
  Ag  Ag23  1  0.50000000  0.51006000  0.86929000  1.0
  Sn  Sn24  1  0.00000000  0.00000000  0.04398000  1.0
  Sn  Sn25  1  0.50000000  0.00000000  0.04398000  1.0
  Sn  Sn26  1  0.25000000  0.50000000  0.13193000  1.0
  Sn  Sn27  1  0.75000000  0.50000000  0.13193000  1.0
  Sn  Sn28  1  0.50000000  0.97146000  0.85708000  1.0
  Sn  Sn29  1  0.00000000  0.00292000  0.85834000  1.0
  Sn  Sn30  1  0.74962000  0.49372000  0.94924000  1.0
  Sn  Sn31  1  0.25038000  0.49372000  0.94924000  1.0
  C  C32  1  0.00000000  0.07863000  0.70742000  1.0
  O  O33  1  0.00000000  0.94804000  0.68113000  1.0
