# generated using pymatgen
data_Li8Mg8Ag8Sn8CO
_symmetry_space_group_name_H-M   Pm
_cell_length_a   6.75899000
_cell_length_b   9.55866000
_cell_length_c   27.16900000
_cell_angle_alpha   90.00000000
_cell_angle_beta   90.00000000
_cell_angle_gamma   90.00000000
_symmetry_Int_Tables_number   6
_chemical_formula_structural   Li8Mg8Ag8Sn8CO
_chemical_formula_sum   'Li8 Mg8 Ag8 Sn8 C1 O1'
_cell_volume   1755.30452250
_cell_formula_units_Z   1
loop_
 _symmetry_equiv_pos_site_id
 _symmetry_equiv_pos_as_xyz
  1  'x, y, z'
  2  'x, -y, z'
loop_
 _atom_site_type_symbol
 _atom_site_label
 _atom_site_symmetry_multiplicity
 _atom_site_fract_x
 _atom_site_fract_y
 _atom_site_fract_z
 _atom_site_occupancy
  Li  Li0  2  0.74786000  0.24166000  0.13868000  1.0
  Li  Li1  2  0.75000000  0.25000000  0.95602000  1.0
  Li  Li2  1  0.24015000  0.00000000  0.04397000  1.0
  Li  Li3  1  0.24032000  0.50000000  0.04732000  1.0
  Li  Li4  1  0.25000000  0.00000000  0.86807000  1.0
  Li  Li5  1  0.25000000  0.50000000  0.86807000  1.0
  Mg  Mg6  2  0.24069000  0.25984000  0.14179000  1.0
  Mg  Mg7  2  0.25000000  0.25000000  0.95602000  1.0
  Mg  Mg8  1  0.75000000  0.00000000  0.86807000  1.0
  Mg  Mg9  1  0.75000000  0.50000000  0.86807000  1.0
  Mg  Mg10  1  0.75754000  0.00000000  0.04825000  1.0
  Mg  Mg11  1  0.75880000  0.50000000  0.04527000  1.0
  Ag  Ag12  2  0.00000000  0.25000000  0.86807000  1.0
  Ag  Ag13  2  0.00646000  0.24913000  0.05134000  1.0
  Ag  Ag14  1  0.46776000  0.00000000  0.12860000  1.0
  Ag  Ag15  1  0.50000000  0.00000000  0.95602000  1.0
  Ag  Ag16  1  0.50000000  0.50000000  0.95602000  1.0
  Ag  Ag17  1  0.51006000  0.50000000  0.13071000  1.0
  Sn  Sn18  2  0.49372000  0.25038000  0.05076000  1.0
  Sn  Sn19  2  0.50000000  0.25000000  0.86807000  1.0
  Sn  Sn20  1  0.00000000  0.00000000  0.95602000  1.0
  Sn  Sn21  1  0.00000000  0.50000000  0.95602000  1.0
  Sn  Sn22  1  0.00292000  0.00000000  0.14166000  1.0
  Sn  Sn23  1  0.97146000  0.50000000  0.14292000  1.0
  C  C24  1  0.07863000  0.00000000  0.29258000  1.0
  O  O25  1  0.94804000  0.00000000  0.31887000  1.0
