# generated using pymatgen
data_Ti8Co16Ge8C
_symmetry_space_group_name_H-M   'P 1'
_cell_length_a   8.31620000
_cell_length_b   5.88044000
_cell_length_c   26.23710000
_cell_angle_alpha   90.00000000
_cell_angle_beta   90.00000000
_cell_angle_gamma   90.00000000
_symmetry_Int_Tables_number   1
_chemical_formula_structural   Ti8Co16Ge8C
_chemical_formula_sum   'Ti8 Co16 Ge8 C1'
_cell_volume   1283.07067450
_cell_formula_units_Z   1
loop_
 _symmetry_equiv_pos_site_id
 _symmetry_equiv_pos_as_xyz
  1  'x, y, z'
loop_
 _atom_site_type_symbol
 _atom_site_label
 _atom_site_symmetry_multiplicity
 _atom_site_fract_x
 _atom_site_fract_y
 _atom_site_fract_z
 _atom_site_occupancy
  Ti  Ti0  1  0.00000000  0.00000000  0.11886000  1.0
  Ti  Ti1  1  0.25000000  0.50000000  0.03962000  1.0
  Ti  Ti2  1  0.75000000  0.50000000  0.03962000  1.0
  Ti  Ti3  1  0.50000000  0.00000000  0.11886000  1.0
  Ti  Ti4  1  0.50000000  0.00000000  0.96133000  1.0
  Ti  Ti5  1  0.75001000  0.50000000  0.87911000  1.0
  Ti  Ti6  1  0.24998000  0.50000000  0.87910000  1.0
  Ti  Ti7  1  0.99999000  0.00000000  0.96190000  1.0
  Co  Co8  1  0.00000000  0.75000000  0.03962000  1.0
  Co  Co9  1  0.50000000  0.25000000  0.03962000  1.0
  Co  Co10  1  0.00000000  0.25000000  0.03962000  1.0
  Co  Co11  1  0.50000000  0.75000000  0.03962000  1.0
  Co  Co12  1  0.75000000  0.25000000  0.11886000  1.0
  Co  Co13  1  0.25000000  0.75000000  0.11886000  1.0
  Co  Co14  1  0.75000000  0.75000000  0.11886000  1.0
  Co  Co15  1  0.25000000  0.25000000  0.11886000  1.0
  Co  Co16  1  0.49999000  0.76767000  0.88711000  1.0
  Co  Co17  1  0.00000000  0.21668000  0.88357000  1.0
  Co  Co18  1  0.49999000  0.23233000  0.88711000  1.0
  Co  Co19  1  0.00000000  0.78332000  0.88357000  1.0
  Co  Co20  1  0.24806000  0.25651000  0.95954000  1.0
  Co  Co21  1  0.75194000  0.74347000  0.95953000  1.0
  Co  Co22  1  0.24806000  0.74349000  0.95954000  1.0
  Co  Co23  1  0.75194000  0.25653000  0.95953000  1.0
  Ge  Ge24  1  0.75000000  0.00000000  0.03962000  1.0
  Ge  Ge25  1  0.00000000  0.50000000  0.11886000  1.0
  Ge  Ge26  1  0.25000000  0.00000000  0.03962000  1.0
  Ge  Ge27  1  0.50000000  0.50000000  0.11886000  1.0
  Ge  Ge28  1  0.25177000  0.00000000  0.87888000  1.0
  Ge  Ge29  1  0.49997000  0.50000000  0.95920000  1.0
  Ge  Ge30  1  0.74822000  0.00000000  0.87887000  1.0
  Ge  Ge31  1  0.00007000  0.50000000  0.96019000  1.0
  C  C32  1  0.00000000  0.50000000  0.85791000  1.0
