data_image0
_chemical_formula_structural       Ti4Rh12C
_chemical_formula_sum              "Ti4 Rh12 C1"
_cell_length_a       7.73214
_cell_length_b       5.46745
_cell_length_c       24.1006
_cell_angle_alpha    90
_cell_angle_beta     90
_cell_angle_gamma    90

_space_group_name_H-M_alt    "P 1"
_space_group_IT_number       1

loop_
  _space_group_symop_operation_xyz
  'x, y, z'

loop_
  _atom_site_type_symbol
  _atom_site_label
  _atom_site_symmetry_multiplicity
  _atom_site_fract_x
  _atom_site_fract_y
  _atom_site_fract_z
  _atom_site_occupancy
  Ti  Ti1       1.0  0.00000  0.00000  0.91493  1.0000
  Ti  Ti2       1.0  1.00000  0.50000  0.02287  1.0000
  Ti  Ti3       1.0  0.50000  0.00000  0.91493  1.0000
  Ti  Ti4       1.0  0.50000  0.50000  0.02185  1.0000
  Rh  Rh1       1.0  0.00000  0.50000  0.91493  1.0000
  Rh  Rh2       1.0  0.25000  0.75000  0.97164  1.0000
  Rh  Rh3       1.0  0.25000  0.25000  0.97164  1.0000
  Rh  Rh4       1.0  0.00001  0.00000  0.01842  1.0000
  Rh  Rh5       1.0  0.19649  0.25385  0.08810  1.0000
  Rh  Rh6       1.0  0.19650  0.74616  0.08810  1.0000
  Rh  Rh7       1.0  0.50000  0.50000  0.91493  1.0000
  Rh  Rh8       1.0  0.75000  0.75000  0.97164  1.0000
  Rh  Rh9       1.0  0.75000  0.25000  0.97164  1.0000
  Rh  Rh10      1.0  0.49999  1.00000  0.03127  1.0000
  Rh  Rh11      1.0  0.80350  0.25385  0.08810  1.0000
  Rh  Rh12      1.0  0.80350  0.74615  0.08810  1.0000
  C   C1        1.0  1.00000  1.00000  0.10391  1.0000
