# generated using pymatgen
data_Sc8Sn8Pt16CO
_symmetry_space_group_name_H-M   Pm
_cell_length_a   6.65597000
_cell_length_b   9.41296000
_cell_length_c   27.05970000
_cell_angle_alpha   90.00000000
_cell_angle_beta   90.00000000
_cell_angle_gamma   90.00000000
_symmetry_Int_Tables_number   6
_chemical_formula_structural   Sc8Sn8Pt16CO
_chemical_formula_sum   'Sc8 Sn8 Pt16 C1 O1'
_cell_volume   1695.35459007
_cell_formula_units_Z   1
loop_
 _symmetry_equiv_pos_site_id
 _symmetry_equiv_pos_as_xyz
  1  'x, y, z'
  2  'x, -y, z'
loop_
 _atom_site_type_symbol
 _atom_site_label
 _atom_site_symmetry_multiplicity
 _atom_site_fract_x
 _atom_site_fract_y
 _atom_site_fract_z
 _atom_site_occupancy
  Sc  Sc0  2  0.00000000  0.25000000  0.86955000  1.0
  Sc  Sc1  2  0.00002000  0.24913000  0.04553000  1.0
  Sc  Sc2  1  0.50000000  0.00000000  0.95652000  1.0
  Sc  Sc3  1  0.50000000  0.50000000  0.95652000  1.0
  Sc  Sc4  1  0.50002000  0.00000000  0.12738000  1.0
  Sc  Sc5  1  0.50002000  0.50000000  0.12763000  1.0
  Sn  Sn6  2  0.50000000  0.25000000  0.86955000  1.0
  Sn  Sn7  2  0.50002000  0.25118000  0.04191000  1.0
  Sn  Sn8  1  -0.00000000  0.50000000  0.95652000  1.0
  Sn  Sn9  1  0.00000000  0.00000000  0.95652000  1.0
  Sn  Sn10  1  0.00002000  0.00000000  0.13749000  1.0
  Sn  Sn11  1  0.00002000  0.50000000  0.13905000  1.0
  Pt  Pt12  2  0.25000000  0.25000000  0.95652000  1.0
  Pt  Pt13  2  0.25922000  0.25012000  0.12506000  1.0
  Pt  Pt14  2  0.74083000  0.25012000  0.12506000  1.0
  Pt  Pt15  2  0.75000000  0.25000000  0.95652000  1.0
  Pt  Pt16  1  0.23690000  0.50000000  0.04558000  1.0
  Pt  Pt17  1  0.24255000  0.00000000  0.04461000  1.0
  Pt  Pt18  1  0.25000000  0.00000000  0.86955000  1.0
  Pt  Pt19  1  0.25000000  0.50000000  0.86955000  1.0
  Pt  Pt20  1  0.75000000  0.00000000  0.86955000  1.0
  Pt  Pt21  1  0.75000000  0.50000000  0.86955000  1.0
  Pt  Pt22  1  0.75750000  0.00000000  0.04461000  1.0
  Pt  Pt23  1  0.76314000  0.50000000  0.04558000  1.0
  C  C24  1  0.99901000  0.00000000  0.28736000  1.0
  O  O25  1  0.00006000  0.00000000  0.32930000  1.0
