# generated using pymatgen
data_Li8Pb8C
_symmetry_space_group_name_H-M   Pmm2
_cell_length_a   7.21597000
_cell_length_b   7.21597000
_cell_length_c   25.41200000
_cell_angle_alpha   90.00000000
_cell_angle_beta   90.00000000
_cell_angle_gamma   90.00000000
_symmetry_Int_Tables_number   25
_chemical_formula_structural   Li8Pb8C
_chemical_formula_sum   'Li8 Pb8 C1'
_cell_volume   1323.20850792
_cell_formula_units_Z   1
loop_
 _symmetry_equiv_pos_site_id
 _symmetry_equiv_pos_as_xyz
  1  'x, y, z'
  2  '-x, -y, z'
  3  '-x, y, z'
  4  'x, -y, z'
loop_
 _atom_site_type_symbol
 _atom_site_label
 _atom_site_symmetry_multiplicity
 _atom_site_fract_x
 _atom_site_fract_y
 _atom_site_fract_z
 _atom_site_occupancy
  Li  Li0  4  0.20349000  0.20367000  0.07129000  1.0
  Li  Li1  4  0.24999000  0.25000000  0.93131000  1.0
  Pb  Pb2  1  0.00000000  0.00000000  0.86032000  1.0
  Pb  Pb3  1  0.00000000  0.00000000  0.98926000  1.0
  Pb  Pb4  1  0.00000000  0.50000000  0.86032000  1.0
  Pb  Pb5  1  0.00000000  0.50000000  0.99778000  1.0
  Pb  Pb6  1  0.50000000  0.00000000  0.86032000  1.0
  Pb  Pb7  1  0.50000000  0.00000000  0.99807000  1.0
  Pb  Pb8  1  0.50000000  0.50000000  0.00691000  1.0
  Pb  Pb9  1  0.50000000  0.50000000  0.86032000  1.0
  C  C10  1  0.00000000  0.00000000  0.07919000  1.0
