# generated using pymatgen
data_Nb4Zn12C
_symmetry_space_group_name_H-M   'P 1'
_cell_length_a   7.89001000
_cell_length_b   5.57908000
_cell_length_c   24.18430000
_cell_angle_alpha   90.00000000
_cell_angle_beta   90.00000000
_cell_angle_gamma   90.00000000
_symmetry_Int_Tables_number   1
_chemical_formula_structural   Nb4Zn12C
_chemical_formula_sum   'Nb4 Zn12 C1'
_cell_volume   1064.56862892
_cell_formula_units_Z   1
loop_
 _symmetry_equiv_pos_site_id
 _symmetry_equiv_pos_as_xyz
  1  'x, y, z'
loop_
 _atom_site_type_symbol
 _atom_site_label
 _atom_site_symmetry_multiplicity
 _atom_site_fract_x
 _atom_site_fract_y
 _atom_site_fract_z
 _atom_site_occupancy
  Nb  Nb0  1  0.71071000  0.98199000  0.08473000  1.0
  Nb  Nb1  1  0.75001000  0.50000000  0.97116000  1.0
  Nb  Nb2  1  0.28929000  0.98199000  0.08473000  1.0
  Nb  Nb3  1  0.24999000  0.50000000  0.97116000  1.0
  Zn  Zn4  1  0.74083000  0.48369000  0.08959000  1.0
  Zn  Zn5  1  0.50000000  0.25810000  0.02683000  1.0
  Zn  Zn6  1  0.50000000  0.72777000  0.02269000  1.0
  Zn  Zn7  1  0.75001000  0.00000000  0.97116000  1.0
  Zn  Zn8  1  0.50000000  0.75000000  0.91349000  1.0
  Zn  Zn9  1  0.50000000  0.25000000  0.91349000  1.0
  Zn  Zn10  1  0.25917000  0.48369000  0.08959000  1.0
  Zn  Zn11  1  0.00000000  0.24011000  0.03556000  1.0
  Zn  Zn12  1  0.00000000  0.74678000  0.03757000  1.0
  Zn  Zn13  1  0.24999000  0.00000000  0.97116000  1.0
  Zn  Zn14  1  0.00000000  0.75000000  0.91349000  1.0
  Zn  Zn15  1  0.00000000  0.25000000  0.91349000  1.0
  C  C16  1  0.50000000  0.82724000  0.11238000  1.0
