# generated using pymatgen
data_Nb4Zn12C
_symmetry_space_group_name_H-M   Pm
_cell_length_a   5.57908000
_cell_length_b   7.89001000
_cell_length_c   24.18430000
_cell_angle_alpha   90.00000000
_cell_angle_beta   90.00000000
_cell_angle_gamma   90.00000000
_symmetry_Int_Tables_number   6
_chemical_formula_structural   Nb4Zn12C
_chemical_formula_sum   'Nb4 Zn12 C1'
_cell_volume   1064.56862892
_cell_formula_units_Z   1
loop_
 _symmetry_equiv_pos_site_id
 _symmetry_equiv_pos_as_xyz
  1  'x, y, z'
  2  'x, -y, z'
loop_
 _atom_site_type_symbol
 _atom_site_label
 _atom_site_symmetry_multiplicity
 _atom_site_fract_x
 _atom_site_fract_y
 _atom_site_fract_z
 _atom_site_occupancy
  Nb  Nb0  2  0.50000000  0.24999000  0.02884000  1.0
  Nb  Nb1  2  0.98199000  0.28929000  0.91527000  1.0
  Zn  Zn2  2  0.00000000  0.24999000  0.02884000  1.0
  Zn  Zn3  2  0.48369000  0.25917000  0.91041000  1.0
  Zn  Zn4  1  0.24011000  0.00000000  0.96444000  1.0
  Zn  Zn5  1  0.25000000  0.00000000  0.08651000  1.0
  Zn  Zn6  1  0.25000000  0.50000000  0.08651000  1.0
  Zn  Zn7  1  0.25810000  0.50000000  0.97317000  1.0
  Zn  Zn8  1  0.72777000  0.50000000  0.97731000  1.0
  Zn  Zn9  1  0.74678000  0.00000000  0.96243000  1.0
  Zn  Zn10  1  0.75000000  0.00000000  0.08651000  1.0
  Zn  Zn11  1  0.75000000  0.50000000  0.08651000  1.0
  C  C12  1  0.82724000  0.50000000  0.88762000  1.0
