# generated using pymatgen
data_Sc8Al8Cu8Pd8C
_symmetry_space_group_name_H-M   'P 1'
_cell_length_a   8.94626000
_cell_length_b   6.32596000
_cell_length_c   26.70970000
_cell_angle_alpha   90.00000000
_cell_angle_beta   90.00000000
_cell_angle_gamma   90.00000000
_symmetry_Int_Tables_number   1
_chemical_formula_structural   Sc8Al8Cu8Pd8C
_chemical_formula_sum   'Sc8 Al8 Cu8 Pd8 C1'
_cell_volume   1511.60029241
_cell_formula_units_Z   1
loop_
 _symmetry_equiv_pos_site_id
 _symmetry_equiv_pos_as_xyz
  1  'x, y, z'
loop_
 _atom_site_type_symbol
 _atom_site_label
 _atom_site_symmetry_multiplicity
 _atom_site_fract_x
 _atom_site_fract_y
 _atom_site_fract_z
 _atom_site_occupancy
  Sc  Sc0  1  0.25000000  1.00000000  0.04187000  1.0
  Sc  Sc1  1  0.75000000  1.00000000  0.04187000  1.0
  Sc  Sc2  1  0.50000000  0.50000000  0.12560000  1.0
  Sc  Sc3  1  0.00000000  0.50000000  0.12560000  1.0
  Sc  Sc4  1  0.73130000  0.99896000  0.86964000  1.0
  Sc  Sc5  1  0.26870000  0.99896000  0.86964000  1.0
  Sc  Sc6  1  0.00000000  0.49833000  0.95754000  1.0
  Sc  Sc7  1  0.50000000  0.49933000  0.95785000  1.0
  Al  Al8  1  0.00000000  0.00000000  0.12560000  1.0
  Al  Al9  1  0.50000000  1.00000000  0.12560000  1.0
  Al  Al10  1  0.75000000  0.50000000  0.04187000  1.0
  Al  Al11  1  0.25000000  0.50000000  0.04187000  1.0
  Al  Al12  1  0.50000000  0.00421000  0.95532000  1.0
  Al  Al13  1  0.00000000  0.00074000  0.95997000  1.0
  Al  Al14  1  0.23175000  0.49727000  0.87716000  1.0
  Al  Al15  1  0.76825000  0.49727000  0.87716000  1.0
  Cu  Cu16  1  0.00000000  0.75000000  0.04187000  1.0
  Cu  Cu17  1  0.50000000  0.75000000  0.04187000  1.0
  Cu  Cu18  1  0.25000000  0.25000000  0.12560000  1.0
  Cu  Cu19  1  0.75000000  0.25000000  0.12560000  1.0
  Cu  Cu20  1  0.50000000  0.71568000  0.87235000  1.0
  Cu  Cu21  1  0.00000000  0.79746000  0.87696000  1.0
  Cu  Cu22  1  0.74724000  0.23820000  0.95743000  1.0
  Cu  Cu23  1  0.25276000  0.23820000  0.95743000  1.0
  Pd  Pd24  1  0.00000000  0.25000000  0.04187000  1.0
  Pd  Pd25  1  0.50000000  0.25000000  0.04187000  1.0
  Pd  Pd26  1  0.25000000  0.75000000  0.12560000  1.0
  Pd  Pd27  1  0.75000000  0.75000000  0.12560000  1.0
  Pd  Pd28  1  0.50000000  0.28747000  0.87297000  1.0
  Pd  Pd29  1  0.00000000  0.19305000  0.87462000  1.0
  Pd  Pd30  1  0.74633000  0.76279000  0.95681000  1.0
  Pd  Pd31  1  0.25367000  0.76279000  0.95681000  1.0
  C  C32  1  0.00000000  0.50737000  0.86936000  1.0
