data_image0
_chemical_formula_structural       Nb8Co16Sn8CO
_chemical_formula_sum              "Nb8 Co16 Sn8 C1 O1"
_cell_length_a       6.19479
_cell_length_b       8.76076
_cell_length_c       26.5706
_cell_angle_alpha    90
_cell_angle_beta     90
_cell_angle_gamma    90

_space_group_name_H-M_alt    "P 1"
_space_group_IT_number       1

loop_
  _space_group_symop_operation_xyz
  'x, y, z'

loop_
  _atom_site_type_symbol
  _atom_site_label
  _atom_site_symmetry_multiplicity
  _atom_site_fract_x
  _atom_site_fract_y
  _atom_site_fract_z
  _atom_site_occupancy
  Nb  Nb1       1.0  0.00000  0.00000  0.87636  1.0000
  Nb  Nb2       1.0  0.50000  0.25000  0.95879  1.0000
  Nb  Nb3       1.0  0.50000  0.75000  0.95879  1.0000
  Nb  Nb4       1.0  0.00000  0.50000  0.87636  1.0000
  Nb  Nb5       1.0  0.99491  0.50000  0.04370  1.0000
  Nb  Nb6       1.0  0.49972  0.74620  0.12192  1.0000
  Nb  Nb7       1.0  0.49971  0.25380  0.12192  1.0000
  Nb  Nb8       1.0  0.99741  1.00000  0.04485  1.0000
  Co  Co1       1.0  0.25000  0.00000  0.95879  1.0000
  Co  Co2       1.0  0.75000  0.50000  0.95879  1.0000
  Co  Co3       1.0  0.75000  0.00000  0.95879  1.0000
  Co  Co4       1.0  0.25000  0.50000  0.95879  1.0000
  Co  Co5       1.0  0.75000  0.75000  0.87636  1.0000
  Co  Co6       1.0  0.25000  0.25000  0.87636  1.0000
  Co  Co7       1.0  0.25000  0.75000  0.87636  1.0000
  Co  Co8       1.0  0.75000  0.25000  0.87636  1.0000
  Co  Co9       1.0  0.25351  0.50001  0.11672  1.0000
  Co  Co10      1.0  0.74827  1.00000  0.11448  1.0000
  Co  Co11      1.0  0.73177  0.50001  0.11689  1.0000
  Co  Co12      1.0  0.28219  0.99999  0.12991  1.0000
  Co  Co13      1.0  0.74934  0.24756  0.04341  1.0000
  Co  Co14      1.0  0.23998  0.74884  0.04390  1.0000
  Co  Co15      1.0  0.23998  0.25116  0.04389  1.0000
  Co  Co16      1.0  0.74934  0.75244  0.04342  1.0000
  Sn  Sn1       1.0  0.00000  0.75000  0.95879  1.0000
  Sn  Sn2       1.0  0.50000  0.00000  0.87636  1.0000
  Sn  Sn3       1.0  0.00000  0.25000  0.95879  1.0000
  Sn  Sn4       1.0  0.50000  0.50000  0.87636  1.0000
  Sn  Sn5       1.0  0.99332  0.25216  0.13442  1.0000
  Sn  Sn6       1.0  0.49706  0.50000  0.03846  1.0000
  Sn  Sn7       1.0  0.99333  0.74785  0.13442  1.0000
  Sn  Sn8       1.0  0.48863  0.00000  0.04014  1.0000
  C   C1        1.0  0.38391  1.00000  0.19094  1.0000
  O   O1        1.0  0.43375  0.00001  0.23348  1.0000
