# generated using pymatgen
data_Nb8Co16Sn8CO
_symmetry_space_group_name_H-M   'P 1'
_cell_length_a   8.76076000
_cell_length_b   6.19479000
_cell_length_c   26.57060000
_cell_angle_alpha   90.00000000
_cell_angle_beta   90.00000000
_cell_angle_gamma   90.00000000
_symmetry_Int_Tables_number   1
_chemical_formula_structural   Nb8Co16Sn8CO
_chemical_formula_sum   'Nb8 Co16 Sn8 C1 O1'
_cell_volume   1442.01485110
_cell_formula_units_Z   1
loop_
 _symmetry_equiv_pos_site_id
 _symmetry_equiv_pos_as_xyz
  1  'x, y, z'
loop_
 _atom_site_type_symbol
 _atom_site_label
 _atom_site_symmetry_multiplicity
 _atom_site_fract_x
 _atom_site_fract_y
 _atom_site_fract_z
 _atom_site_occupancy
  Nb  Nb0  1  0.00000000  0.00000000  0.12364000  1.0
  Nb  Nb1  1  0.25000000  0.50000000  0.04121000  1.0
  Nb  Nb2  1  0.75000000  0.50000000  0.04121000  1.0
  Nb  Nb3  1  0.50000000  0.00000000  0.12364000  1.0
  Nb  Nb4  1  0.50000000  0.99491000  0.95630000  1.0
  Nb  Nb5  1  0.74620000  0.49972000  0.87808000  1.0
  Nb  Nb6  1  0.25380000  0.49972000  0.87808000  1.0
  Nb  Nb7  1  0.00000000  0.99741000  0.95515000  1.0
  Co  Co8  1  0.00000000  0.25000000  0.04121000  1.0
  Co  Co9  1  0.50000000  0.75000000  0.04121000  1.0
  Co  Co10  1  0.00000000  0.75000000  0.04121000  1.0
  Co  Co11  1  0.50000000  0.25000000  0.04121000  1.0
  Co  Co12  1  0.75000000  0.75000000  0.12364000  1.0
  Co  Co13  1  0.25000000  0.25000000  0.12364000  1.0
  Co  Co14  1  0.75000000  0.25000000  0.12364000  1.0
  Co  Co15  1  0.25000000  0.75000000  0.12364000  1.0
  Co  Co16  1  0.50000000  0.25351000  0.88328000  1.0
  Co  Co17  1  0.00000000  0.74827000  0.88552000  1.0
  Co  Co18  1  0.50000000  0.73177000  0.88311000  1.0
  Co  Co19  1  0.00000000  0.28219000  0.87009000  1.0
  Co  Co20  1  0.24756000  0.74934000  0.95659000  1.0
  Co  Co21  1  0.74884000  0.23998000  0.95610000  1.0
  Co  Co22  1  0.25116000  0.23998000  0.95610000  1.0
  Co  Co23  1  0.75244000  0.74934000  0.95659000  1.0
  Sn  Sn24  1  0.75000000  0.00000000  0.04121000  1.0
  Sn  Sn25  1  0.00000000  0.50000000  0.12364000  1.0
  Sn  Sn26  1  0.25000000  0.00000000  0.04121000  1.0
  Sn  Sn27  1  0.50000000  0.50000000  0.12364000  1.0
  Sn  Sn28  1  0.25216000  0.99332000  0.86558000  1.0
  Sn  Sn29  1  0.50000000  0.49706000  0.96154000  1.0
  Sn  Sn30  1  0.74784000  0.99332000  0.86558000  1.0
  Sn  Sn31  1  0.00000000  0.48863000  0.95986000  1.0
  C  C32  1  0.00000000  0.38391000  0.80906000  1.0
  O  O33  1  0.00000000  0.43375000  0.76652000  1.0
