# generated using pymatgen
data_Nb8Co16Sn8CO
_symmetry_space_group_name_H-M   Pm
_cell_length_a   6.19479000
_cell_length_b   8.76076000
_cell_length_c   26.57060000
_cell_angle_alpha   90.00000000
_cell_angle_beta   90.00000000
_cell_angle_gamma   90.00000000
_symmetry_Int_Tables_number   6
_chemical_formula_structural   Nb8Co16Sn8CO
_chemical_formula_sum   'Nb8 Co16 Sn8 C1 O1'
_cell_volume   1442.01485110
_cell_formula_units_Z   1
loop_
 _symmetry_equiv_pos_site_id
 _symmetry_equiv_pos_as_xyz
  1  'x, y, z'
  2  'x, -y, z'
loop_
 _atom_site_type_symbol
 _atom_site_label
 _atom_site_symmetry_multiplicity
 _atom_site_fract_x
 _atom_site_fract_y
 _atom_site_fract_z
 _atom_site_occupancy
  Nb  Nb0  2  0.49972000  0.25380000  0.12192000  1.0
  Nb  Nb1  2  0.50000000  0.25000000  0.95879000  1.0
  Nb  Nb2  1  0.00000000  0.00000000  0.87636000  1.0
  Nb  Nb3  1  0.00000000  0.50000000  0.87636000  1.0
  Nb  Nb4  1  0.99491000  0.50000000  0.04370000  1.0
  Nb  Nb5  1  0.99741000  0.00000000  0.04485000  1.0
  Co  Co6  2  0.23998000  0.25116000  0.04390000  1.0
  Co  Co7  2  0.25000000  0.25000000  0.87636000  1.0
  Co  Co8  2  0.74934000  0.24756000  0.04341000  1.0
  Co  Co9  2  0.75000000  0.25000000  0.87636000  1.0
  Co  Co10  1  0.25000000  0.00000000  0.95879000  1.0
  Co  Co11  1  0.25000000  0.50000000  0.95879000  1.0
  Co  Co12  1  0.25351000  0.50000000  0.11672000  1.0
  Co  Co13  1  0.28219000  0.00000000  0.12991000  1.0
  Co  Co14  1  0.73177000  0.50000000  0.11689000  1.0
  Co  Co15  1  0.74827000  0.00000000  0.11448000  1.0
  Co  Co16  1  0.75000000  0.00000000  0.95879000  1.0
  Co  Co17  1  0.75000000  0.50000000  0.95879000  1.0
  Sn  Sn18  2  0.00000000  0.25000000  0.95879000  1.0
  Sn  Sn19  2  0.99332000  0.25216000  0.13442000  1.0
  Sn  Sn20  1  0.48863000  0.00000000  0.04014000  1.0
  Sn  Sn21  1  0.49706000  0.50000000  0.03846000  1.0
  Sn  Sn22  1  0.50000000  0.00000000  0.87636000  1.0
  Sn  Sn23  1  0.50000000  0.50000000  0.87636000  1.0
  C  C24  1  0.38391000  0.00000000  0.19094000  1.0
  O  O25  1  0.43375000  0.00000000  0.23348000  1.0
