# generated using pymatgen
data_Ti8Ga8Ni16CO
_symmetry_space_group_name_H-M   'P 1'
_cell_length_a   5.94410000
_cell_length_b   8.40623000
_cell_length_c   26.30470000
_cell_angle_alpha   90.00000000
_cell_angle_beta   90.00000000
_cell_angle_gamma   90.00000000
_symmetry_Int_Tables_number   1
_chemical_formula_structural   Ti8Ga8Ni16CO
_chemical_formula_sum   'Ti8 Ga8 Ni16 C1 O1'
_cell_volume   1314.37935396
_cell_formula_units_Z   1
loop_
 _symmetry_equiv_pos_site_id
 _symmetry_equiv_pos_as_xyz
  1  'x, y, z'
loop_
 _atom_site_type_symbol
 _atom_site_label
 _atom_site_symmetry_multiplicity
 _atom_site_fract_x
 _atom_site_fract_y
 _atom_site_fract_z
 _atom_site_occupancy
  Ti  Ti0  1  0.00000000  0.00000000  0.88016000  1.0
  Ti  Ti1  1  0.50000000  0.25000000  0.96005000  1.0
  Ti  Ti2  1  0.50000000  0.75000000  0.96005000  1.0
  Ti  Ti3  1  0.00000000  0.50000000  0.88016000  1.0
  Ti  Ti4  1  0.99914000  0.49997000  0.03898000  1.0
  Ti  Ti5  1  0.50155000  0.74881000  0.11969000  1.0
  Ti  Ti6  1  0.50156000  0.25113000  0.11970000  1.0
  Ti  Ti7  1  0.00129000  0.00003000  0.04031000  1.0
  Ga  Ga8  1  0.00000000  0.75000000  0.96005000  1.0
  Ga  Ga9  1  0.50000000  0.00000000  0.88016000  1.0
  Ga  Ga10  1  0.00000000  0.25000000  0.96005000  1.0
  Ga  Ga11  1  0.50000000  0.50000000  0.88016000  1.0
  Ga  Ga12  1  0.99668000  0.25296000  0.11918000  1.0
  Ga  Ga13  1  0.49959000  0.50003000  0.03859000  1.0
  Ga  Ga14  1  0.99683000  0.74691000  0.11920000  1.0
  Ga  Ga15  1  0.49400000  0.99995000  0.04062000  1.0
  Ni  Ni16  1  0.25000000  0.00000000  0.96005000  1.0
  Ni  Ni17  1  0.75000000  0.50000000  0.96005000  1.0
  Ni  Ni18  1  0.75000000  0.00000000  0.96005000  1.0
  Ni  Ni19  1  0.25000000  0.50000000  0.96005000  1.0
  Ni  Ni20  1  0.75000000  0.75000000  0.88016000  1.0
  Ni  Ni21  1  0.25000000  0.25000000  0.88016000  1.0
  Ni  Ni22  1  0.25000000  0.75000000  0.88016000  1.0
  Ni  Ni23  1  0.75000000  0.25000000  0.88016000  1.0
  Ni  Ni24  1  0.24764000  0.49994000  0.11376000  1.0
  Ni  Ni25  1  0.76035000  0.99989000  0.11320000  1.0
  Ni  Ni26  1  0.74928000  0.49997000  0.11436000  1.0
  Ni  Ni27  1  0.24418000  0.99993000  0.12514000  1.0
  Ni  Ni28  1  0.73808000  0.24971000  0.04041000  1.0
  Ni  Ni29  1  0.26107000  0.75050000  0.04143000  1.0
  Ni  Ni30  1  0.26133000  0.24951000  0.04144000  1.0
  Ni  Ni31  1  0.73813000  0.75029000  0.04046000  1.0
  C  C32  1  0.34192000  0.99997000  0.18866000  1.0
  O  O33  1  0.38526000  0.00006000  0.23184000  1.0
