data_image0
_chemical_formula_structural       Y32
_chemical_formula_sum              "Y32"
_cell_length_a       10.102
_cell_length_b       10.102
_cell_length_c       27.5765
_cell_angle_alpha    90
_cell_angle_beta     90
_cell_angle_gamma    90

_space_group_name_H-M_alt    "P 1"
_space_group_IT_number       1

loop_
  _space_group_symop_operation_xyz
  'x, y, z'

loop_
  _atom_site_type_symbol
  _atom_site_label
  _atom_site_symmetry_multiplicity
  _atom_site_fract_x
  _atom_site_fract_y
  _atom_site_fract_z
  _atom_site_occupancy
  Y   Y1        1.0  0.00000  0.00000  0.86263  1.0000
  Y   Y2        1.0  0.25000  0.25000  0.86263  1.0000
  Y   Y3        1.0  0.25000  0.00000  0.95421  1.0000
  Y   Y4        1.0  0.00000  0.25000  0.95421  1.0000
  Y   Y5        1.0  0.00000  0.00000  0.04579  1.0000
  Y   Y6        1.0  0.25000  0.25000  0.04579  1.0000
  Y   Y7        1.0  0.25000  0.00000  0.13737  1.0000
  Y   Y8        1.0  0.00000  0.25000  0.13737  1.0000
  Y   Y9        1.0  0.00000  0.50000  0.86263  1.0000
  Y   Y10       1.0  0.25000  0.75000  0.86263  1.0000
  Y   Y11       1.0  0.25000  0.50000  0.95421  1.0000
  Y   Y12       1.0  0.00000  0.75000  0.95421  1.0000
  Y   Y13       1.0  0.00000  0.50000  0.04579  1.0000
  Y   Y14       1.0  0.25000  0.75000  0.04579  1.0000
  Y   Y15       1.0  0.25000  0.50000  0.13737  1.0000
  Y   Y16       1.0  0.00000  0.75000  0.13737  1.0000
  Y   Y17       1.0  0.50000  0.00000  0.86263  1.0000
  Y   Y18       1.0  0.75000  0.25000  0.86263  1.0000
  Y   Y19       1.0  0.75000  0.00000  0.95421  1.0000
  Y   Y20       1.0  0.50000  0.25000  0.95421  1.0000
  Y   Y21       1.0  0.50000  0.00000  0.04579  1.0000
  Y   Y22       1.0  0.75000  0.25000  0.04579  1.0000
  Y   Y23       1.0  0.75000  0.00000  0.13737  1.0000
  Y   Y24       1.0  0.50000  0.25000  0.13737  1.0000
  Y   Y25       1.0  0.50000  0.50000  0.86263  1.0000
  Y   Y26       1.0  0.75000  0.75000  0.86263  1.0000
  Y   Y27       1.0  0.75000  0.50000  0.95421  1.0000
  Y   Y28       1.0  0.50000  0.75000  0.95421  1.0000
  Y   Y29       1.0  0.50000  0.50000  0.04579  1.0000
  Y   Y30       1.0  0.75000  0.75000  0.04579  1.0000
  Y   Y31       1.0  0.75000  0.50000  0.13737  1.0000
  Y   Y32       1.0  0.50000  0.75000  0.13737  1.0000
