data_image0
_chemical_formula_structural       Li8Y8Sn8Pb8CO
_chemical_formula_sum              "Li8 Y8 Sn8 Pb8 C1 O1"
_cell_length_a       9.36828
_cell_length_b       9.64462
_cell_length_c       26.6538
_cell_angle_alpha    90
_cell_angle_beta     90
_cell_angle_gamma    90

_space_group_name_H-M_alt    "P 1"
_space_group_IT_number       1

loop_
  _space_group_symop_operation_xyz
  'x, y, z'

loop_
  _atom_site_type_symbol
  _atom_site_label
  _atom_site_symmetry_multiplicity
  _atom_site_fract_x
  _atom_site_fract_y
  _atom_site_fract_z
  _atom_site_occupancy
  Li  Li1       1.0  0.00001  0.99445  0.06101  1.0000
  Li  Li2       1.0  0.00000  0.00000  0.95839  1.0000
  Li  Li3       1.0  0.00002  0.49191  0.11865  1.0000
  Li  Li4       1.0  0.00000  0.50000  0.95839  1.0000
  Li  Li5       1.0  0.50001  0.99200  0.12198  1.0000
  Li  Li6       1.0  0.50000  0.00000  0.95839  1.0000
  Li  Li7       1.0  0.50003  0.49594  0.12247  1.0000
  Li  Li8       1.0  0.50000  0.50000  0.95839  1.0000
  Y   Y1        1.0  0.18646  0.16585  0.13138  1.0000
  Y   Y2        1.0  0.25000  0.25000  0.95839  1.0000
  Y   Y3        1.0  0.19063  0.81177  0.12449  1.0000
  Y   Y4        1.0  0.25000  0.75000  0.95839  1.0000
  Y   Y5        1.0  0.81365  0.16583  0.13142  1.0000
  Y   Y6        1.0  0.75000  0.25000  0.95839  1.0000
  Y   Y7        1.0  0.80938  0.81173  0.12447  1.0000
  Y   Y8        1.0  0.75000  0.75000  0.95839  1.0000
  Sn  Sn1       1.0  0.00001  0.27038  0.03828  1.0000
  Sn  Sn2       1.0  0.00000  0.25000  0.87518  1.0000
  Sn  Sn3       1.0  0.00000  0.71776  0.03597  1.0000
  Sn  Sn4       1.0  0.00000  0.75000  0.87518  1.0000
  Sn  Sn5       1.0  0.49999  0.25028  0.05134  1.0000
  Sn  Sn6       1.0  0.50000  0.25000  0.87518  1.0000
  Sn  Sn7       1.0  0.50009  0.74396  0.05007  1.0000
  Sn  Sn8       1.0  0.50000  0.75000  0.87518  1.0000
  Pb  Pb1       1.0  0.28651  0.99995  0.03398  1.0000
  Pb  Pb2       1.0  0.25000  0.00000  0.87518  1.0000
  Pb  Pb3       1.0  0.25504  0.49567  0.05114  1.0000
  Pb  Pb4       1.0  0.25000  0.50000  0.87518  1.0000
  Pb  Pb5       1.0  0.71354  0.99990  0.03395  1.0000
  Pb  Pb6       1.0  0.75000  0.00000  0.87518  1.0000
  Pb  Pb7       1.0  0.74498  0.49568  0.05115  1.0000
  Pb  Pb8       1.0  0.75000  0.50000  0.87518  1.0000
  C   C1        1.0  0.99995  0.97931  0.14227  1.0000
  O   O1        1.0  0.00002  0.10719  0.17480  1.0000
