# generated using pymatgen
data_Li8Y8Sn8Pb8CO
_symmetry_space_group_name_H-M   'P 1'
_cell_length_a   9.36828000
_cell_length_b   9.64462000
_cell_length_c   26.65380000
_cell_angle_alpha   90.00000000
_cell_angle_beta   90.00000000
_cell_angle_gamma   90.00000000
_symmetry_Int_Tables_number   1
_chemical_formula_structural   Li8Y8Sn8Pb8CO
_chemical_formula_sum   'Li8 Y8 Sn8 Pb8 C1 O1'
_cell_volume   2408.26413572
_cell_formula_units_Z   1
loop_
 _symmetry_equiv_pos_site_id
 _symmetry_equiv_pos_as_xyz
  1  'x, y, z'
loop_
 _atom_site_type_symbol
 _atom_site_label
 _atom_site_symmetry_multiplicity
 _atom_site_fract_x
 _atom_site_fract_y
 _atom_site_fract_z
 _atom_site_occupancy
  Li  Li0  1  0.00001000  0.99445000  0.06101000  1.0
  Li  Li1  1  0.00000000  0.00000000  0.95839000  1.0
  Li  Li2  1  0.00002000  0.49191000  0.11865000  1.0
  Li  Li3  1  0.00000000  0.50000000  0.95839000  1.0
  Li  Li4  1  0.50001000  0.99200000  0.12198000  1.0
  Li  Li5  1  0.50000000  0.00000000  0.95839000  1.0
  Li  Li6  1  0.50003000  0.49594000  0.12247000  1.0
  Li  Li7  1  0.50000000  0.50000000  0.95839000  1.0
  Y  Y8  1  0.18646000  0.16585000  0.13138000  1.0
  Y  Y9  1  0.25000000  0.25000000  0.95839000  1.0
  Y  Y10  1  0.19063000  0.81177000  0.12449000  1.0
  Y  Y11  1  0.25000000  0.75000000  0.95839000  1.0
  Y  Y12  1  0.81365000  0.16583000  0.13142000  1.0
  Y  Y13  1  0.75000000  0.25000000  0.95839000  1.0
  Y  Y14  1  0.80938000  0.81173000  0.12447000  1.0
  Y  Y15  1  0.75000000  0.75000000  0.95839000  1.0
  Sn  Sn16  1  0.00001000  0.27038000  0.03828000  1.0
  Sn  Sn17  1  0.00000000  0.25000000  0.87518000  1.0
  Sn  Sn18  1  0.00000000  0.71776000  0.03597000  1.0
  Sn  Sn19  1  0.00000000  0.75000000  0.87518000  1.0
  Sn  Sn20  1  0.49999000  0.25028000  0.05134000  1.0
  Sn  Sn21  1  0.50000000  0.25000000  0.87518000  1.0
  Sn  Sn22  1  0.50009000  0.74396000  0.05007000  1.0
  Sn  Sn23  1  0.50000000  0.75000000  0.87518000  1.0
  Pb  Pb24  1  0.28651000  0.99995000  0.03398000  1.0
  Pb  Pb25  1  0.25000000  0.00000000  0.87518000  1.0
  Pb  Pb26  1  0.25504000  0.49567000  0.05114000  1.0
  Pb  Pb27  1  0.25000000  0.50000000  0.87518000  1.0
  Pb  Pb28  1  0.71354000  0.99990000  0.03395000  1.0
  Pb  Pb29  1  0.75000000  0.00000000  0.87518000  1.0
  Pb  Pb30  1  0.74498000  0.49568000  0.05115000  1.0
  Pb  Pb31  1  0.75000000  0.50000000  0.87518000  1.0
  C  C32  1  0.99995000  0.97931000  0.14227000  1.0
  O  O33  1  0.00002000  0.10719000  0.17480000  1.0
