# generated using pymatgen
data_CaNi
_symmetry_space_group_name_H-M   'P 1'
_cell_length_a   5.98575084
_cell_length_b   5.98575084
_cell_length_c   27.33100000
_cell_angle_alpha   90.00000000
_cell_angle_beta   90.00000000
_cell_angle_gamma   109.47121738
_symmetry_Int_Tables_number   1
_chemical_formula_structural   CaNi
_chemical_formula_sum   'Ca8 Ni8'
_cell_volume   923.24409905
_cell_formula_units_Z   8
loop_
 _symmetry_equiv_pos_site_id
 _symmetry_equiv_pos_as_xyz
  1  'x, y, z'
loop_
 _atom_site_type_symbol
 _atom_site_label
 _atom_site_symmetry_multiplicity
 _atom_site_fract_x
 _atom_site_fract_y
 _atom_site_fract_z
 _atom_site_occupancy
  Ca  Ca0  1  0.00000000  0.00000000  0.86588000  1
  Ca  Ca1  1  0.75000000  0.25000000  0.95529000  1
  Ca  Ca2  1  0.00000000  0.00000000  0.04493000  1
  Ca  Ca3  1  0.75001500  0.24998500  0.13838000  1
  Ca  Ca4  1  0.50000000  0.50000000  0.86588000  1
  Ca  Ca5  1  0.25000000  0.75000000  0.95529000  1
  Ca  Ca6  1  0.50000000  0.50000000  0.04492500  1
  Ca  Ca7  1  0.24998500  0.75001500  0.13838000  1
  Ni  Ni8  1  0.00000000  0.50000000  0.86588000  1
  Ni  Ni9  1  0.25000000  0.25000000  0.95529000  1
  Ni  Ni10  1  0.00000000  0.50000000  0.04986500  1
  Ni  Ni11  1  0.25007000  0.25007000  0.12473500  1
  Ni  Ni12  1  0.50000000  0.00000000  0.86588000  1
  Ni  Ni13  1  0.75000000  0.75000000  0.95529000  1
  Ni  Ni14  1  0.50000000  0.00000000  0.04986500  1
  Ni  Ni15  1  0.74993000  0.74993000  0.12473500  1
