# generated using pymatgen
data_CaNi
_symmetry_space_group_name_H-M   Cmm2
_cell_length_a   6.91175000
_cell_length_b   9.77469000
_cell_length_c   27.33100000
_cell_angle_alpha   90.00000000
_cell_angle_beta   90.00000000
_cell_angle_gamma   90.00000000
_symmetry_Int_Tables_number   35
_chemical_formula_structural   CaNi
_chemical_formula_sum   'Ca16 Ni16'
_cell_volume   1846.48819811
_cell_formula_units_Z   16
loop_
 _symmetry_equiv_pos_site_id
 _symmetry_equiv_pos_as_xyz
  1  'x, y, z'
  2  '-x, -y, z'
  3  '-x, y, z'
  4  'x, -y, z'
  5  'x, y+1/2, z'
  6  '-x, -y+1/2, z'
  7  '-x, y+1/2, z'
  8  'x, -y+1/2, z'
  9  'x+1/2, y, z'
  10  '-x+1/2, -y, z'
  11  '-x+1/2, y, z'
  12  'x+1/2, -y, z'
  13  'x+1/2, y+1/2, z'
  14  '-x+1/2, -y+1/2, z'
  15  '-x+1/2, y+1/2, z'
  16  'x+1/2, -y+1/2, z'
loop_
 _atom_site_type_symbol
 _atom_site_label
 _atom_site_symmetry_multiplicity
 _atom_site_fract_x
 _atom_site_fract_y
 _atom_site_fract_z
 _atom_site_occupancy
  Ca  Ca0  4  0.00000000  0.00000000  0.04493000  1.0
  Ca  Ca1  4  0.00000000  0.00000000  0.86588000  1.0
  Ca  Ca2  4  0.00000000  0.24998500  0.13838000  1.0
  Ca  Ca3  4  0.00000000  0.25000000  0.95529000  1.0
  Ni  Ni4  4  0.24993000  0.50000000  0.12473500  1.0
  Ni  Ni5  4  0.25000000  0.00000000  0.95529000  1.0
  Ni  Ni6  4  0.25000000  0.25000000  0.04986500  1.0
  Ni  Ni7  4  0.25000000  0.25000000  0.86588000  1.0
