# generated using pymatgen
data_Li4Ga4Cu4Pd4CO
_symmetry_space_group_name_H-M   'P 1'
_cell_length_a   6.02537000
_cell_length_b   6.02537000
_cell_length_c   24.51900000
_cell_angle_alpha   90.00000000
_cell_angle_beta   90.00000000
_cell_angle_gamma   90.00000000
_symmetry_Int_Tables_number   1
_chemical_formula_structural   Li4Ga4Cu4Pd4CO
_chemical_formula_sum   'Li4 Ga4 Cu4 Pd4 C1 O1'
_cell_volume   890.16434569
_cell_formula_units_Z   1
loop_
 _symmetry_equiv_pos_site_id
 _symmetry_equiv_pos_as_xyz
  1  'x, y, z'
loop_
 _atom_site_type_symbol
 _atom_site_label
 _atom_site_symmetry_multiplicity
 _atom_site_fract_x
 _atom_site_fract_y
 _atom_site_fract_z
 _atom_site_occupancy
  Li  Li0  1  0.25000000  0.75001000  0.03072000  1
  Li  Li1  1  0.25036500  0.25036500  0.89623000  1
  Li  Li2  1  0.75014500  0.75014500  0.89308000  1
  Li  Li3  1  0.75001000  0.25000000  0.03072000  1
  Ga  Ga4  1  0.75000500  0.75000500  0.03072000  1
  Ga  Ga5  1  0.74949000  0.25042000  0.90766000  1
  Ga  Ga6  1  0.25042000  0.74949000  0.90766000  1
  Ga  Ga7  1  0.25000500  0.25000500  0.03072000  1
  Cu  Cu8  1  0.00000500  0.00000500  0.09215000  1
  Cu  Cu9  1  0.99971000  0.50022000  0.96711000  1
  Cu  Cu10  1  0.50022000  0.99971000  0.96711000  1
  Cu  Cu11  1  0.50000500  0.50000500  0.09215000  1
  Pd  Pd12  1  0.00000000  0.50001000  0.09215000  1
  Pd  Pd13  1  0.00014000  0.00014000  0.96453000  1
  Pd  Pd14  1  0.50022500  0.50022500  0.96466000  1
  Pd  Pd15  1  0.50001000  1.00000000  0.09215000  1
  C  C16  1  0.75029000  0.75029000  0.80723000  1
  O  O17  1  0.75036500  0.75036500  0.76068000  1
