# generated using pymatgen
data_YCu
_symmetry_space_group_name_H-M   'P 1'
_cell_length_a   3.49534000
_cell_length_b   4.94316000
_cell_length_c   27.41470000
_cell_angle_alpha   90.00000000
_cell_angle_beta   90.00000000
_cell_angle_gamma   90.00000000
_symmetry_Int_Tables_number   1
_chemical_formula_structural   YCu
_chemical_formula_sum   'Y4 Cu4'
_cell_volume   473.67186852
_cell_formula_units_Z   4
loop_
 _symmetry_equiv_pos_site_id
 _symmetry_equiv_pos_as_xyz
  1  'x, y, z'
loop_
 _atom_site_type_symbol
 _atom_site_label
 _atom_site_symmetry_multiplicity
 _atom_site_fract_x
 _atom_site_fract_y
 _atom_site_fract_z
 _atom_site_occupancy
  Y  Y0  1  0.00000000  0.00000000  0.86477000  1.0
  Y  Y1  1  0.00000000  0.50000000  0.95492000  1.0
  Y  Y2  1  0.00000000  0.00000000  0.04427000  1.0
  Y  Y3  1  0.00000000  0.50000000  0.13635750  1.0
  Cu  Cu4  1  0.50000000  0.50000000  0.86477000  1.0
  Cu  Cu5  1  0.50000000  0.00000000  0.95492000  1.0
  Cu  Cu6  1  0.50000000  0.50000000  0.04965250  1.0
  Cu  Cu7  1  0.50000000  0.00000000  0.12745250  1.0
