data_image0
_chemical_formula_structural       Li24Pb8CO
_chemical_formula_sum              "Li24 Pb8 C1 O1"
_cell_length_a       6.73051
_cell_length_b       9.51837
_cell_length_c       27.1388
_cell_angle_alpha    90
_cell_angle_beta     90
_cell_angle_gamma    90

_space_group_name_H-M_alt    "P 1"
_space_group_IT_number       1

loop_
  _space_group_symop_operation_xyz
  'x, y, z'

loop_
  _atom_site_type_symbol
  _atom_site_label
  _atom_site_symmetry_multiplicity
  _atom_site_fract_x
  _atom_site_fract_y
  _atom_site_fract_z
  _atom_site_occupancy
  Li  Li1       1.0  0.25000  0.00000  0.95616  1.0000
  Li  Li2       1.0  0.75000  0.50000  0.95616  1.0000
  Li  Li3       1.0  0.75000  0.00000  0.95616  1.0000
  Li  Li4       1.0  0.25000  0.50000  0.95616  1.0000
  Li  Li5       1.0  0.75000  0.75000  0.86848  1.0000
  Li  Li6       1.0  0.25000  0.25000  0.86848  1.0000
  Li  Li7       1.0  0.25000  0.75000  0.86848  1.0000
  Li  Li8       1.0  0.75000  0.25000  0.86848  1.0000
  Li  Li9       1.0  0.00000  0.75000  0.95616  1.0000
  Li  Li10      1.0  0.50000  0.00000  0.86848  1.0000
  Li  Li11      1.0  0.00000  0.25000  0.95616  1.0000
  Li  Li12      1.0  0.50000  0.50000  0.86848  1.0000
  Li  Li13      1.0  0.25000  0.50000  0.13152  1.0000
  Li  Li14      1.0  0.75000  0.00000  0.13152  1.0000
  Li  Li15      1.0  0.75000  0.50000  0.13152  1.0000
  Li  Li16      1.0  0.25000  0.00000  0.13152  1.0000
  Li  Li17      1.0  0.75000  0.25000  0.04384  1.0000
  Li  Li18      1.0  0.25000  0.75000  0.04384  1.0000
  Li  Li19      1.0  0.25000  0.25000  0.04384  1.0000
  Li  Li20      1.0  0.75000  0.75000  0.04384  1.0000
  Li  Li21      1.0  0.00000  0.25000  0.13152  1.0000
  Li  Li22      1.0  0.50000  0.50000  0.04384  1.0000
  Li  Li23      1.0  0.00000  0.75000  0.13152  1.0000
  Li  Li24      1.0  0.50000  0.00000  0.04384  1.0000
  Pb  Pb1       1.0  0.00000  0.00000  0.86848  1.0000
  Pb  Pb2       1.0  0.50000  0.25000  0.95616  1.0000
  Pb  Pb3       1.0  0.50000  0.75000  0.95616  1.0000
  Pb  Pb4       1.0  0.00000  0.50000  0.86848  1.0000
  Pb  Pb5       1.0  0.00000  0.50000  0.04384  1.0000
  Pb  Pb6       1.0  0.50000  0.75000  0.13152  1.0000
  Pb  Pb7       1.0  0.50000  0.25000  0.13152  1.0000
  Pb  Pb8       1.0  0.00000  0.00000  0.04384  1.0000
  C   C1        1.0  0.50000  0.25000  0.20153  1.0000
  O   O1        1.0  0.50000  0.25000  0.24391  1.0000
