# generated using pymatgen
data_LiPd
_symmetry_space_group_name_H-M   'P 1'
_cell_length_a   4.28967000
_cell_length_b   6.06651000
_cell_length_c   26.43450000
_cell_angle_alpha   90.00000000
_cell_angle_beta   90.00000000
_cell_angle_gamma   90.00000000
_symmetry_Int_Tables_number   1
_chemical_formula_structural   LiPd
_chemical_formula_sum   'Li8 Pd8'
_cell_volume   687.91360987
_cell_formula_units_Z   8
loop_
 _symmetry_equiv_pos_site_id
 _symmetry_equiv_pos_as_xyz
  1  'x, y, z'
loop_
 _atom_site_type_symbol
 _atom_site_label
 _atom_site_symmetry_multiplicity
 _atom_site_fract_x
 _atom_site_fract_y
 _atom_site_fract_z
 _atom_site_occupancy
  Li  Li0  1  0.00000000  0.00000000  0.12171000  1.0
  Li  Li1  1  0.50000000  0.00000000  0.04057000  1.0
  Li  Li2  1  0.00000000  0.00000000  0.96089000  1.0
  Li  Li3  1  0.50000000  0.00000000  0.87341000  1.0
  Li  Li4  1  0.00000000  0.50000000  0.12171000  1.0
  Li  Li5  1  0.50000000  0.50000000  0.04057000  1.0
  Li  Li6  1  0.00000000  0.50000000  0.96122500  1.0
  Li  Li7  1  0.50000000  0.50000000  0.87309500  1.0
  Pd  Pd8  1  0.50000000  0.75000000  0.12171000  1.0
  Pd  Pd9  1  0.00000000  0.75000000  0.04057000  1.0
  Pd  Pd10  1  0.50000000  0.75003000  0.95874000  1.0
  Pd  Pd11  1  0.00000000  0.74969000  0.88346000  1.0
  Pd  Pd12  1  0.50000000  0.25000000  0.12171000  1.0
  Pd  Pd13  1  0.00000000  0.25000000  0.04057000  1.0
  Pd  Pd14  1  0.50000000  0.24997000  0.95874000  1.0
  Pd  Pd15  1  0.00000000  0.25031000  0.88346000  1.0
