# generated using pymatgen
data_Li2InAu
_symmetry_space_group_name_H-M   'P 1'
_cell_length_a   4.67391218
_cell_length_b   4.67391218
_cell_length_c   24.95740000
_cell_angle_alpha   90.00000000
_cell_angle_beta   90.00000000
_cell_angle_gamma   90.00000000
_symmetry_Int_Tables_number   1
_chemical_formula_structural   Li2InAu
_chemical_formula_sum   'Li4 In2 Au2'
_cell_volume   545.20576121
_cell_formula_units_Z   2
loop_
 _symmetry_equiv_pos_site_id
 _symmetry_equiv_pos_as_xyz
  1  'x, y, z'
loop_
 _atom_site_type_symbol
 _atom_site_label
 _atom_site_symmetry_multiplicity
 _atom_site_fract_x
 _atom_site_fract_y
 _atom_site_fract_z
 _atom_site_occupancy
  Li  Li0  1  0.00000000  0.00000000  0.03311000  1.0
  Li  Li1  1  0.50000000  0.50000000  0.90127000  1.0
  Li  Li2  1  0.00000000  0.50000000  0.09932000  1.0
  Li  Li3  1  0.50000000  0.00000000  0.96650000  1.0
  In  In4  1  0.00000000  0.00000000  0.89891000  1.0
  In  In5  1  0.50000000  0.50000000  0.03311000  1.0
  Au  Au6  1  0.00000000  0.50000000  0.96796000  1.0
  Au  Au7  1  0.50000000  0.00000000  0.09932000  1.0
