# generated using pymatgen
data_Li8Zr8Ge8Pd8CO
_symmetry_space_group_name_H-M   'P 1'
_cell_length_a   6.47880000
_cell_length_b   9.16240000
_cell_length_c   26.87180000
_cell_angle_alpha   90.00000000
_cell_angle_beta   90.00000000
_cell_angle_gamma   90.00000000
_symmetry_Int_Tables_number   1
_chemical_formula_structural   Li8Zr8Ge8Pd8CO
_chemical_formula_sum   'Li8 Zr8 Ge8 Pd8 C1 O1'
_cell_volume   1595.14651626
_cell_formula_units_Z   1
loop_
 _symmetry_equiv_pos_site_id
 _symmetry_equiv_pos_as_xyz
  1  'x, y, z'
loop_
 _atom_site_type_symbol
 _atom_site_label
 _atom_site_symmetry_multiplicity
 _atom_site_fract_x
 _atom_site_fract_y
 _atom_site_fract_z
 _atom_site_occupancy
  Li  Li0  1  0.25000000  0.00000000  0.95738000  1.0
  Li  Li1  1  0.25000000  0.50000000  0.95738000  1.0
  Li  Li2  1  0.75000000  0.25000000  0.87214000  1.0
  Li  Li3  1  0.75000000  0.75000000  0.87214000  1.0
  Li  Li4  1  0.21631000  0.51805000  0.13581000  1.0
  Li  Li5  1  0.21628000  0.98191000  0.13581000  1.0
  Li  Li6  1  0.73441000  0.75004000  0.03919000  1.0
  Li  Li7  1  0.74570000  0.24999000  0.04086000  1.0
  Zr  Zr8  1  0.75000000  0.00000000  0.95738000  1.0
  Zr  Zr9  1  0.75000000  0.50000000  0.95738000  1.0
  Zr  Zr10  1  0.25000000  0.25000000  0.87214000  1.0
  Zr  Zr11  1  0.25000000  0.75000000  0.87214000  1.0
  Zr  Zr12  1  0.68100000  0.47336000  0.12655000  1.0
  Zr  Zr13  1  0.68096000  0.02654000  0.12650000  1.0
  Zr  Zr14  1  0.22601000  0.74997000  0.04591000  1.0
  Zr  Zr15  1  0.26338000  0.25006000  0.04582000  1.0
  Ge  Ge16  1  0.00000000  0.00000000  0.87214000  1.0
  Ge  Ge17  1  0.00000000  0.50000000  0.87214000  1.0
  Ge  Ge18  1  0.50000000  0.75000000  0.95738000  1.0
  Ge  Ge19  1  0.50000000  0.25000000  0.95738000  1.0
  Ge  Ge20  1  0.97976000  0.49075000  0.05147000  1.0
  Ge  Ge21  1  0.97992000  0.00927000  0.05146000  1.0
  Ge  Ge22  1  0.41173000  0.24997000  0.14349000  1.0
  Ge  Ge23  1  0.49810000  0.74994000  0.13138000  1.0
  Pd  Pd24  1  0.00000000  0.25000000  0.95738000  1.0
  Pd  Pd25  1  0.00000000  0.75000000  0.95738000  1.0
  Pd  Pd26  1  0.50000000  0.50000000  0.87214000  1.0
  Pd  Pd27  1  0.50000000  0.00000000  0.87214000  1.0
  Pd  Pd28  1  0.91948000  0.74997000  0.11987000  1.0
  Pd  Pd29  1  0.00106000  0.24998000  0.12727000  1.0
  Pd  Pd30  1  0.49164000  0.98574000  0.03861000  1.0
  Pd  Pd31  1  0.49189000  0.51432000  0.03864000  1.0
  C  C32  1  0.90300000  0.25000000  0.19634000  1.0
  O  O33  1  0.89373000  0.24998000  0.23950000  1.0
