# generated using pymatgen
data_ScInGePd
_symmetry_space_group_name_H-M   Pm
_cell_length_a   5.71274000
_cell_length_b   4.64184000
_cell_length_c   24.27220000
_cell_angle_alpha   90.00000000
_cell_angle_beta   90.00000000
_cell_angle_gamma   90.00000000
_symmetry_Int_Tables_number   6
_chemical_formula_structural   ScInGePd
_chemical_formula_sum   'Sc2 In2 Ge2 Pd2'
_cell_volume   643.64109853
_cell_formula_units_Z   2
loop_
 _symmetry_equiv_pos_site_id
 _symmetry_equiv_pos_as_xyz
  1  'x, y, z'
  2  'x, -y, z'
loop_
 _atom_site_type_symbol
 _atom_site_label
 _atom_site_symmetry_multiplicity
 _atom_site_fract_x
 _atom_site_fract_y
 _atom_site_fract_z
 _atom_site_occupancy
  Sc  Sc0  1  0.50649500  0.00000000  0.08346000  1.0
  Sc  Sc1  1  0.96198000  0.00000000  0.97066000  1.0
  In  In2  1  0.22138500  0.50000000  0.03667000  1.0
  In  In3  1  0.69297000  0.50000000  0.91199000  1.0
  Ge  Ge4  1  0.46198000  0.00000000  0.97066000  1.0
  Ge  Ge5  1  0.99640000  0.00000000  0.09099000  1.0
  Pd  Pd6  1  0.19297000  0.50000000  0.91199000  1.0
  Pd  Pd7  1  0.72512500  0.50000000  0.04063000  1.0
