# generated using pymatgen
data_Li8Sc8In8Ga8CO
_symmetry_space_group_name_H-M   'P 1'
_cell_length_a   8.23116000
_cell_length_b   8.86716000
_cell_length_c   26.27990000
_cell_angle_alpha   90.00000000
_cell_angle_beta   90.00000000
_cell_angle_gamma   90.00000000
_symmetry_Int_Tables_number   1
_chemical_formula_structural   Li8Sc8In8Ga8CO
_chemical_formula_sum   'Li8 Sc8 In8 Ga8 C1 O1'
_cell_volume   1918.09139520
_cell_formula_units_Z   1
loop_
 _symmetry_equiv_pos_site_id
 _symmetry_equiv_pos_as_xyz
  1  'x, y, z'
loop_
 _atom_site_type_symbol
 _atom_site_label
 _atom_site_symmetry_multiplicity
 _atom_site_fract_x
 _atom_site_fract_y
 _atom_site_fract_z
 _atom_site_occupancy
  Li  Li0  1  0.00000000  0.00000000  0.03983000  1.0
  Li  Li1  1  0.00000000  0.00000000  0.88052000  1.0
  Li  Li2  1  0.50000000  0.00000000  0.03983000  1.0
  Li  Li3  1  0.50000000  0.00000000  0.88052000  1.0
  Li  Li4  1  0.00000000  0.50000000  0.03983000  1.0
  Li  Li5  1  0.00000000  0.50000000  0.88052000  1.0
  Li  Li6  1  0.50000000  0.50000000  0.03983000  1.0
  Li  Li7  1  0.50000000  0.50000000  0.88052000  1.0
  Sc  Sc8  1  0.25000000  0.75000000  0.03983000  1.0
  Sc  Sc9  1  0.25000000  0.75000000  0.88052000  1.0
  Sc  Sc10  1  0.75000000  0.75000000  0.03983000  1.0
  Sc  Sc11  1  0.75000000  0.75000000  0.88052000  1.0
  Sc  Sc12  1  0.25000000  0.25000000  0.03983000  1.0
  Sc  Sc13  1  0.25000000  0.25000000  0.88052000  1.0
  Sc  Sc14  1  0.75000000  0.25000000  0.03983000  1.0
  Sc  Sc15  1  0.75000000  0.25000000  0.88052000  1.0
  In  In16  1  0.25000000  0.00000000  0.11948000  1.0
  In  In17  1  0.25000000  0.00000000  0.96017000  1.0
  In  In18  1  0.75000000  0.00000000  0.11948000  1.0
  In  In19  1  0.75000000  0.00000000  0.96017000  1.0
  In  In20  1  0.25000000  0.50000000  0.11948000  1.0
  In  In21  1  0.25000000  0.50000000  0.96017000  1.0
  In  In22  1  0.75000000  0.50000000  0.11948000  1.0
  In  In23  1  0.75000000  0.50000000  0.96017000  1.0
  Ga  Ga24  1  0.00000000  0.75000000  0.11948000  1.0
  Ga  Ga25  1  0.00000000  0.75000000  0.96017000  1.0
  Ga  Ga26  1  0.50000000  0.75000000  0.11948000  1.0
  Ga  Ga27  1  0.50000000  0.75000000  0.96017000  1.0
  Ga  Ga28  1  0.00000000  0.25000000  0.11948000  1.0
  Ga  Ga29  1  0.00000000  0.25000000  0.96017000  1.0
  Ga  Ga30  1  0.50000000  0.25000000  0.11948000  1.0
  Ga  Ga31  1  0.50000000  0.25000000  0.96017000  1.0
  C  C32  1  0.00000000  0.00000000  0.80822000  1.0
  O  O33  1  0.00000000  0.00000000  0.76446000  1.0
