# generated using pymatgen
data_Zn16Ni16CO
_symmetry_space_group_name_H-M   'P 1'
_cell_length_a   8.20182000
_cell_length_b   5.79956000
_cell_length_c   26.15140000
_cell_angle_alpha   90.00000000
_cell_angle_beta   90.00000000
_cell_angle_gamma   90.00000000
_symmetry_Int_Tables_number   1
_chemical_formula_structural   Zn16Ni16CO
_chemical_formula_sum   'Zn16 Ni16 C1 O1'
_cell_volume   1243.94226299
_cell_formula_units_Z   1
loop_
 _symmetry_equiv_pos_site_id
 _symmetry_equiv_pos_as_xyz
  1  'x, y, z'
loop_
 _atom_site_type_symbol
 _atom_site_label
 _atom_site_symmetry_multiplicity
 _atom_site_fract_x
 _atom_site_fract_y
 _atom_site_fract_z
 _atom_site_occupancy
  Zn  Zn0  1  0.25000000  0.75000000  0.11761000  1.0
  Zn  Zn1  1  0.00000000  0.75000000  0.03920000  1.0
  Zn  Zn2  1  0.24999000  0.75609000  0.96149000  1.0
  Zn  Zn3  1  0.99564000  0.74708000  0.87677000  1.0
  Zn  Zn4  1  0.75000000  0.75000000  0.11761000  1.0
  Zn  Zn5  1  0.50000000  0.75000000  0.03920000  1.0
  Zn  Zn6  1  0.75000000  0.74865000  0.96291000  1.0
  Zn  Zn7  1  0.50437000  0.74707000  0.87678000  1.0
  Zn  Zn8  1  0.25000000  0.25000000  0.11761000  1.0
  Zn  Zn9  1  0.00000000  0.25000000  0.03920000  1.0
  Zn  Zn10  1  0.24999000  0.24391000  0.96149000  1.0
  Zn  Zn11  1  0.99564000  0.25292000  0.87677000  1.0
  Zn  Zn12  1  0.75000000  0.25000000  0.11761000  1.0
  Zn  Zn13  1  0.50000000  0.25000000  0.03920000  1.0
  Zn  Zn14  1  0.75000000  0.25135000  0.96291000  1.0
  Zn  Zn15  1  0.50437000  0.25293000  0.87678000  1.0
  Ni  Ni16  1  0.00000000  0.00000000  0.11761000  1.0
  Ni  Ni17  1  0.25000000  0.00000000  0.03920000  1.0
  Ni  Ni18  1  0.99995000  0.00000000  0.95818000  1.0
  Ni  Ni19  1  0.25001000  0.00000000  0.87858000  1.0
  Ni  Ni20  1  0.50000000  0.00000000  0.11761000  1.0
  Ni  Ni21  1  0.75000000  0.00000000  0.03920000  1.0
  Ni  Ni22  1  0.50000000  0.00000000  0.95820000  1.0
  Ni  Ni23  1  0.75002000  0.00000000  0.88777000  1.0
  Ni  Ni24  1  0.00000000  0.50000000  0.11761000  1.0
  Ni  Ni25  1  0.25000000  0.50000000  0.03920000  1.0
  Ni  Ni26  1  0.00211000  0.50000000  0.95873000  1.0
  Ni  Ni27  1  0.25003000  0.50000000  0.88787000  1.0
  Ni  Ni28  1  0.50000000  0.50000000  0.11761000  1.0
  Ni  Ni29  1  0.75000000  0.50000000  0.03920000  1.0
  Ni  Ni30  1  0.49784000  0.50000000  0.95877000  1.0
  Ni  Ni31  1  0.75001000  0.50000000  0.88709000  1.0
  C  C32  1  0.25001000  0.00000000  0.81090000  1.0
  O  O33  1  0.25000000  0.00000000  0.76669000  1.0
