# generated using pymatgen
data_Zn16Ni16CO
_symmetry_space_group_name_H-M   Pm
_cell_length_a   8.20182000
_cell_length_b   5.79956000
_cell_length_c   26.15140000
_cell_angle_alpha   90.00000000
_cell_angle_beta   90.00000000
_cell_angle_gamma   90.00000000
_symmetry_Int_Tables_number   6
_chemical_formula_structural   Zn16Ni16CO
_chemical_formula_sum   'Zn16 Ni16 C1 O1'
_cell_volume   1243.94226299
_cell_formula_units_Z   1
loop_
 _symmetry_equiv_pos_site_id
 _symmetry_equiv_pos_as_xyz
  1  'x, y, z'
  2  'x, -y, z'
loop_
 _atom_site_type_symbol
 _atom_site_label
 _atom_site_symmetry_multiplicity
 _atom_site_fract_x
 _atom_site_fract_y
 _atom_site_fract_z
 _atom_site_occupancy
  Zn  Zn0  2  0.00000000  0.25000000  0.96080000  1.0
  Zn  Zn1  2  0.24999000  0.24391000  0.03851000  1.0
  Zn  Zn2  2  0.25000000  0.25000000  0.88239000  1.0
  Zn  Zn3  2  0.50000000  0.25000000  0.96080000  1.0
  Zn  Zn4  2  0.50437000  0.25293000  0.12322000  1.0
  Zn  Zn5  2  0.75000000  0.25000000  0.88239000  1.0
  Zn  Zn6  2  0.75000000  0.25135000  0.03709000  1.0
  Zn  Zn7  2  0.99564000  0.25292000  0.12323000  1.0
  Ni  Ni8  1  0.00000000  0.00000000  0.88239000  1.0
  Ni  Ni9  1  0.00000000  0.50000000  0.88239000  1.0
  Ni  Ni10  1  0.00211000  0.50000000  0.04127000  1.0
  Ni  Ni11  1  0.25000000  0.00000000  0.96080000  1.0
  Ni  Ni12  1  0.25000000  0.50000000  0.96080000  1.0
  Ni  Ni13  1  0.25001000  0.00000000  0.12142000  1.0
  Ni  Ni14  1  0.25003000  0.50000000  0.11213000  1.0
  Ni  Ni15  1  0.49784000  0.50000000  0.04123000  1.0
  Ni  Ni16  1  0.50000000  0.00000000  0.04180000  1.0
  Ni  Ni17  1  0.50000000  0.00000000  0.88239000  1.0
  Ni  Ni18  1  0.50000000  0.50000000  0.88239000  1.0
  Ni  Ni19  1  0.75000000  0.00000000  0.96080000  1.0
  Ni  Ni20  1  0.75000000  0.50000000  0.96080000  1.0
  Ni  Ni21  1  0.75001000  0.50000000  0.11291000  1.0
  Ni  Ni22  1  0.75002000  0.00000000  0.11223000  1.0
  Ni  Ni23  1  0.99995000  0.00000000  0.04182000  1.0
  C  C24  1  0.25001000  0.00000000  0.18910000  1.0
  O  O25  1  0.25000000  0.00000000  0.23331000  1.0
