data_image0
_chemical_formula_structural       V8Ru8CO
_chemical_formula_sum              "V8 Ru8 C1 O1"
_cell_length_a       6.03636
_cell_length_b       6.03636
_cell_length_c       24.5273
_cell_angle_alpha    90
_cell_angle_beta     90
_cell_angle_gamma    90

_space_group_name_H-M_alt    "P 1"
_space_group_IT_number       1

loop_
  _space_group_symop_operation_xyz
  'x, y, z'

loop_
  _atom_site_type_symbol
  _atom_site_label
  _atom_site_symmetry_multiplicity
  _atom_site_fract_x
  _atom_site_fract_y
  _atom_site_fract_z
  _atom_site_occupancy
  V   V1        1.0  0.00000  0.00000  0.91785  1.0000
  V   V2        1.0  0.99844  0.99844  0.04458  1.0000
  V   V3        1.0  0.00000  0.50000  0.91785  1.0000
  V   V4        1.0  0.99846  0.50161  0.04459  1.0000
  V   V5        1.0  0.50000  0.00000  0.91785  1.0000
  V   V6        1.0  0.50160  0.99846  0.04459  1.0000
  V   V7        1.0  0.50000  0.50000  0.91785  1.0000
  V   V8        1.0  0.50159  0.50159  0.04461  1.0000
  Ru  Ru1       1.0  0.25000  0.25000  0.97938  1.0000
  Ru  Ru2       1.0  0.24996  0.24994  0.09885  1.0000
  Ru  Ru3       1.0  0.25000  0.75000  0.97938  1.0000
  Ru  Ru4       1.0  0.25001  0.74995  0.09524  1.0000
  Ru  Ru5       1.0  0.75000  0.25000  0.97938  1.0000
  Ru  Ru6       1.0  0.74993  0.25000  0.09524  1.0000
  Ru  Ru7       1.0  0.75000  0.75000  0.97938  1.0000
  Ru  Ru8       1.0  0.75000  0.75001  0.09588  1.0000
  C   C1        1.0  0.24974  0.24974  0.17708  1.0000
  O   O1        1.0  0.24983  0.24983  0.22437  1.0000
