# generated using pymatgen
data_V8Ru8CO
_symmetry_space_group_name_H-M   'P 1'
_cell_length_a   6.03636000
_cell_length_b   6.03636000
_cell_length_c   24.52730000
_cell_angle_alpha   90.00000000
_cell_angle_beta   90.00000000
_cell_angle_gamma   90.00000000
_symmetry_Int_Tables_number   1
_chemical_formula_structural   V8Ru8CO
_chemical_formula_sum   'V8 Ru8 C1 O1'
_cell_volume   893.71697784
_cell_formula_units_Z   1
loop_
 _symmetry_equiv_pos_site_id
 _symmetry_equiv_pos_as_xyz
  1  'x, y, z'
loop_
 _atom_site_type_symbol
 _atom_site_label
 _atom_site_symmetry_multiplicity
 _atom_site_fract_x
 _atom_site_fract_y
 _atom_site_fract_z
 _atom_site_occupancy
  V  V0  1  0.00000000  0.00000000  0.08215000  1
  V  V1  1  0.99844000  0.00156000  0.95542000  1
  V  V2  1  0.50000000  0.00000000  0.08215000  1
  V  V3  1  0.50161000  0.00154000  0.95541000  1
  V  V4  1  1.00000000  0.50000000  0.08215000  1
  V  V5  1  0.99846000  0.49839000  0.95541000  1
  V  V6  1  0.50000000  0.50000000  0.08215000  1
  V  V7  1  0.50159000  0.49841000  0.95539000  1
  Ru  Ru8  1  0.25000000  0.75000000  0.02062000  1
  Ru  Ru9  1  0.24995000  0.75005000  0.90115000  1
  Ru  Ru10  1  0.75000000  0.75000000  0.02062000  1
  Ru  Ru11  1  0.74995000  0.74999000  0.90476000  1
  Ru  Ru12  1  0.25000000  0.25000000  0.02062000  1
  Ru  Ru13  1  0.25001000  0.25005000  0.90476000  1
  Ru  Ru14  1  0.75000000  0.25000000  0.02062000  1
  Ru  Ru15  1  0.75000500  0.24999500  0.90412000  1
  C  C16  1  0.24974000  0.75026000  0.82292000  1
  O  O17  1  0.24983000  0.75017000  0.77563000  1
