# generated using pymatgen
data_V8Ru8CO
_symmetry_space_group_name_H-M   Cm
_cell_length_a   8.53670218
_cell_length_b   8.53670218
_cell_length_c   24.52730000
_cell_angle_alpha   90.00000000
_cell_angle_beta   90.00000000
_cell_angle_gamma   90.00000000
_symmetry_Int_Tables_number   8
_chemical_formula_structural   V8Ru8CO
_chemical_formula_sum   'V16 Ru16 C2 O2'
_cell_volume   1787.43395569
_cell_formula_units_Z   2
loop_
 _symmetry_equiv_pos_site_id
 _symmetry_equiv_pos_as_xyz
  1  'x, y, z'
  2  'x, -y, z'
  3  'x+1/2, y+1/2, z'
  4  'x+1/2, -y+1/2, z'
loop_
 _atom_site_type_symbol
 _atom_site_label
 _atom_site_symmetry_multiplicity
 _atom_site_fract_x
 _atom_site_fract_y
 _atom_site_fract_z
 _atom_site_occupancy
  V  V0  4  0.25000000  0.25000000  0.91785000  1.0
  V  V1  4  0.25003500  0.25157500  0.04459000  1.0
  V  V2  2  0.00000000  0.00000000  0.91785000  1.0
  V  V3  2  0.00000000  0.50000000  0.91785000  1.0
  V  V4  2  0.00159000  0.50000000  0.04461000  1.0
  V  V5  2  0.49844000  0.50000000  0.04458000  1.0
  Ru  Ru6  4  0.00000000  0.25000000  0.97938000  1.0
  Ru  Ru7  4  0.49998000  0.24997000  0.09524000  1.0
  Ru  Ru8  2  0.24995000  0.00000000  0.09885000  1.0
  Ru  Ru9  2  0.25000000  0.00000000  0.97938000  1.0
  Ru  Ru10  2  0.25000000  0.50000000  0.97938000  1.0
  Ru  Ru11  2  0.25000500  0.50000000  0.09588000  1.0
  C  C12  2  0.24974000  0.00000000  0.17708000  1.0
  O  O13  2  0.24983000  0.00000000  0.22437000  1.0
