# generated using pymatgen
data_InNi
_symmetry_space_group_name_H-M   Pmm2
_cell_length_a   4.50478500
_cell_length_b   6.37073000
_cell_length_c   26.75720000
_cell_angle_alpha   90.00000000
_cell_angle_beta   90.00000000
_cell_angle_gamma   90.00000000
_symmetry_Int_Tables_number   25
_chemical_formula_structural   InNi
_chemical_formula_sum   'In8 Ni8'
_cell_volume   767.89870036
_cell_formula_units_Z   8
loop_
 _symmetry_equiv_pos_site_id
 _symmetry_equiv_pos_as_xyz
  1  'x, y, z'
  2  '-x, -y, z'
  3  '-x, y, z'
  4  'x, -y, z'
loop_
 _atom_site_type_symbol
 _atom_site_label
 _atom_site_symmetry_multiplicity
 _atom_site_fract_x
 _atom_site_fract_y
 _atom_site_fract_z
 _atom_site_occupancy
  In  In0  2  0.00000000  0.24997000  0.95811000  1.0
  In  In1  2  0.00000000  0.25000000  0.12627000  1.0
  In  In2  2  0.50000000  0.24998000  0.86620000  1.0
  In  In3  2  0.50000000  0.25000000  0.04209000  1.0
  Ni  Ni4  1  0.00000000  0.00000000  0.04209000  1.0
  Ni  Ni5  1  0.00000000  0.00000000  0.87937500  1.0
  Ni  Ni6  1  0.00000000  0.50000000  0.04209000  1.0
  Ni  Ni7  1  0.00000000  0.50000000  0.87942000  1.0
  Ni  Ni8  1  0.50000000  0.00000000  0.12627000  1.0
  Ni  Ni9  1  0.50000000  0.00000000  0.95878500  1.0
  Ni  Ni10  1  0.50000000  0.50000000  0.12627000  1.0
  Ni  Ni11  1  0.50000000  0.50000000  0.95874500  1.0
