# generated using pymatgen
data_Zr16Ir16CO
_symmetry_space_group_name_H-M   Pm
_cell_length_a   6.65024000
_cell_length_b   9.40485000
_cell_length_c   27.05360000
_cell_angle_alpha   90.00000000
_cell_angle_beta   90.00000000
_cell_angle_gamma   90.00000000
_symmetry_Int_Tables_number   6
_chemical_formula_structural   Zr16Ir16CO
_chemical_formula_sum   'Zr16 Ir16 C1 O1'
_cell_volume   1692.05414665
_cell_formula_units_Z   1
loop_
 _symmetry_equiv_pos_site_id
 _symmetry_equiv_pos_as_xyz
  1  'x, y, z'
  2  'x, -y, z'
loop_
 _atom_site_type_symbol
 _atom_site_label
 _atom_site_symmetry_multiplicity
 _atom_site_fract_x
 _atom_site_fract_y
 _atom_site_fract_z
 _atom_site_occupancy
  Zr  Zr0  2  0.24994000  0.24874000  0.04327000  1.0
  Zr  Zr1  2  0.25000000  0.25000000  0.86964000  1.0
  Zr  Zr2  2  0.74994000  0.25065000  0.04316000  1.0
  Zr  Zr3  2  0.75000000  0.25000000  0.86964000  1.0
  Zr  Zr4  1  0.24992000  0.50000000  0.13066000  1.0
  Zr  Zr5  1  0.25000000  0.00000000  0.95655000  1.0
  Zr  Zr6  1  0.25000000  0.50000000  0.95655000  1.0
  Zr  Zr7  1  0.25008000  0.00000000  0.13289000  1.0
  Zr  Zr8  1  0.74991000  0.50000000  0.13057000  1.0
  Zr  Zr9  1  0.75000000  0.00000000  0.95655000  1.0
  Zr  Zr10  1  0.75000000  0.50000000  0.95655000  1.0
  Zr  Zr11  1  0.75003000  0.00000000  0.13033000  1.0
  Ir  Ir12  2  -0.00000000  0.25000000  0.95655000  1.0
  Ir  Ir13  2  0.00010000  0.25162000  0.12128000  1.0
  Ir  Ir14  2  0.49978000  0.25193000  0.12129000  1.0
  Ir  Ir15  2  0.50000000  0.25000000  0.95655000  1.0
  Ir  Ir16  1  -0.00000000  0.50000000  0.86964000  1.0
  Ir  Ir17  1  0.00000000  0.00000000  0.86964000  1.0
  Ir  Ir18  1  0.00101000  0.50000000  0.04400000  1.0
  Ir  Ir19  1  0.49885000  0.50000000  0.04401000  1.0
  Ir  Ir20  1  0.50000000  0.00000000  0.86964000  1.0
  Ir  Ir21  1  0.50000000  0.50000000  0.86964000  1.0
  Ir  Ir22  1  0.50303000  0.00000000  0.04335000  1.0
  Ir  Ir23  1  0.99684000  0.00000000  0.04327000  1.0
  C  C24  1  0.25189000  0.00000000  0.21838000  1.0
  O  O25  1  0.25213000  0.00000000  0.26086000  1.0
