# generated using pymatgen
data_Mn16Rh16CO
_symmetry_space_group_name_H-M   Pmm2
_cell_length_a   6.11529000
_cell_length_b   8.64833000
_cell_length_c   26.48620000
_cell_angle_alpha   90.00000000
_cell_angle_beta   90.00000000
_cell_angle_gamma   90.00000000
_symmetry_Int_Tables_number   25
_chemical_formula_structural   Mn16Rh16CO
_chemical_formula_sum   'Mn16 Rh16 C1 O1'
_cell_volume   1400.77687686
_cell_formula_units_Z   1
loop_
 _symmetry_equiv_pos_site_id
 _symmetry_equiv_pos_as_xyz
  1  'x, y, z'
  2  '-x, -y, z'
  3  '-x, y, z'
  4  'x, -y, z'
loop_
 _atom_site_type_symbol
 _atom_site_label
 _atom_site_symmetry_multiplicity
 _atom_site_fract_x
 _atom_site_fract_y
 _atom_site_fract_z
 _atom_site_occupancy
  Mn  Mn0  2  0.00000000  0.25000000  0.87755000  1.0
  Mn  Mn1  2  0.00000000  0.25083000  0.04019000  1.0
  Mn  Mn2  2  0.50000000  0.25000000  0.87755000  1.0
  Mn  Mn3  2  0.50000000  0.25112000  0.04114000  1.0
  Mn  Mn4  1  0.00000000  0.00000000  0.11977000  1.0
  Mn  Mn5  1  0.00000000  0.00000000  0.95918000  1.0
  Mn  Mn6  1  0.00000000  0.50000000  0.12414000  1.0
  Mn  Mn7  1  0.00000000  0.50000000  0.95918000  1.0
  Mn  Mn8  1  0.50000000  0.00000000  0.12451000  1.0
  Mn  Mn9  1  0.50000000  0.00000000  0.95918000  1.0
  Mn  Mn10  1  0.50000000  0.50000000  0.12459000  1.0
  Mn  Mn11  1  0.50000000  0.50000000  0.95918000  1.0
  Rh  Rh12  4  0.24578000  0.24699000  0.11831000  1.0
  Rh  Rh13  4  0.25000000  0.25000000  0.95918000  1.0
  Rh  Rh14  2  0.25000000  0.00000000  0.87755000  1.0
  Rh  Rh15  2  0.25000000  0.50000000  0.87755000  1.0
  Rh  Rh16  2  0.25011000  0.00000000  0.04017000  1.0
  Rh  Rh17  2  0.25054000  0.50000000  0.04105000  1.0
  C  C18  1  0.00000000  0.00000000  0.19005000  1.0
  O  O19  1  0.00000000  0.00000000  0.23390000  1.0
