data_image0
_chemical_formula_structural       MgRhMgRhMgRhMgRhMgRhMgRhMgRhMgRh
_chemical_formula_sum              "Mg8 Rh8"
_cell_length_a       6.2918
_cell_length_b       6.2918
_cell_length_c       24.7188
_cell_angle_alpha    90
_cell_angle_beta     90
_cell_angle_gamma    90

_space_group_name_H-M_alt    "P 1"
_space_group_IT_number       1

loop_
  _space_group_symop_operation_xyz
  'x, y, z'

loop_
  _atom_site_type_symbol
  _atom_site_label
  _atom_site_symmetry_multiplicity
  _atom_site_fract_x
  _atom_site_fract_y
  _atom_site_fract_z
  _atom_site_occupancy
  Mg  Mg1       1.0  0.00000  0.00000  0.88489  1.0000
  Rh  Rh1       1.0  0.25000  0.25000  0.94852  1.0000
  Mg  Mg2       1.0  0.00000  0.00000  0.01216  1.0000
  Rh  Rh2       1.0  0.25000  0.25000  0.07579  1.0000
  Mg  Mg3       1.0  0.00000  0.50000  0.88489  1.0000
  Rh  Rh3       1.0  0.25000  0.75000  0.94852  1.0000
  Mg  Mg4       1.0  0.00000  0.50000  0.01216  1.0000
  Rh  Rh4       1.0  0.25000  0.75000  0.07579  1.0000
  Mg  Mg5       1.0  0.50000  0.00000  0.88489  1.0000
  Rh  Rh5       1.0  0.75000  0.25000  0.94852  1.0000
  Mg  Mg6       1.0  0.50000  0.00000  0.01216  1.0000
  Rh  Rh6       1.0  0.75000  0.25000  0.07579  1.0000
  Mg  Mg7       1.0  0.50000  0.50000  0.88489  1.0000
  Rh  Rh7       1.0  0.75000  0.75000  0.94852  1.0000
  Mg  Mg8       1.0  0.50000  0.50000  0.01216  1.0000
  Rh  Rh8       1.0  0.75000  0.75000  0.07579  1.0000
