# generated using pymatgen
data_Li8Mn8Ge8Pd8C
_symmetry_space_group_name_H-M   'P 1'
_cell_length_a   8.69336000
_cell_length_b   6.14713000
_cell_length_c   26.52000000
_cell_angle_alpha   90.00000000
_cell_angle_beta   90.00000000
_cell_angle_gamma   90.00000000
_symmetry_Int_Tables_number   1
_chemical_formula_structural   Li8Mn8Ge8Pd8C
_chemical_formula_sum   'Li8 Mn8 Ge8 Pd8 C1'
_cell_volume   1417.20795679
_cell_formula_units_Z   1
loop_
 _symmetry_equiv_pos_site_id
 _symmetry_equiv_pos_as_xyz
  1  'x, y, z'
loop_
 _atom_site_type_symbol
 _atom_site_label
 _atom_site_symmetry_multiplicity
 _atom_site_fract_x
 _atom_site_fract_y
 _atom_site_fract_z
 _atom_site_occupancy
  Li  Li0  1  0.00000000  0.00000000  0.04098000  1.0
  Li  Li1  1  0.50000000  0.00000000  0.04098000  1.0
  Li  Li2  1  0.25000000  0.50000000  0.12293000  1.0
  Li  Li3  1  0.75000000  0.50000000  0.12293000  1.0
  Li  Li4  1  0.50000000  0.00069000  0.86438000  1.0
  Li  Li5  1  0.00000000  0.95543000  0.84080000  1.0
  Li  Li6  1  0.75000000  0.49728000  0.96354000  1.0
  Li  Li7  1  0.25000000  0.49728000  0.96354000  1.0
  Mn  Mn8  1  0.75000000  0.25000000  0.04098000  1.0
  Mn  Mn9  1  0.25000000  0.25000000  0.04098000  1.0
  Mn  Mn10  1  0.00000000  0.75000000  0.12293000  1.0
  Mn  Mn11  1  0.50000000  0.75000000  0.12293000  1.0
  Mn  Mn12  1  0.22913000  0.26357000  0.87928000  1.0
  Mn  Mn13  1  0.77087000  0.26357000  0.87928000  1.0
  Mn  Mn14  1  0.50000000  0.74720000  0.95429000  1.0
  Mn  Mn15  1  0.00000000  0.77068000  0.95352000  1.0
  Ge  Ge16  1  0.75000000  0.00000000  0.12293000  1.0
  Ge  Ge17  1  0.25000000  0.00000000  0.12293000  1.0
  Ge  Ge18  1  0.50000000  0.50000000  0.04098000  1.0
  Ge  Ge19  1  0.00000000  0.50000000  0.04098000  1.0
  Ge  Ge20  1  0.25449000  0.00616000  0.96017000  1.0
  Ge  Ge21  1  0.74551000  0.00616000  0.96017000  1.0
  Ge  Ge22  1  0.00000000  0.56456000  0.86304000  1.0
  Ge  Ge23  1  0.50000000  0.47432000  0.87179000  1.0
  Pd  Pd24  1  0.75000000  0.75000000  0.04098000  1.0
  Pd  Pd25  1  0.25000000  0.75000000  0.04098000  1.0
  Pd  Pd26  1  0.00000000  0.25000000  0.12293000  1.0
  Pd  Pd27  1  0.50000000  0.25000000  0.12293000  1.0
  Pd  Pd28  1  0.25940000  0.73166000  0.88640000  1.0
  Pd  Pd29  1  0.74060000  0.73166000  0.88640000  1.0
  Pd  Pd30  1  0.50000000  0.24834000  0.95757000  1.0
  Pd  Pd31  1  0.00000000  0.25817000  0.95698000  1.0
  C  C32  1  0.00000000  0.25385000  0.87042000  1.0
