# generated using pymatgen
data_Li8Mn8Ge8Pd8C
_symmetry_space_group_name_H-M   Pm
_cell_length_a   6.14713000
_cell_length_b   8.69336000
_cell_length_c   26.52000000
_cell_angle_alpha   90.00000000
_cell_angle_beta   90.00000000
_cell_angle_gamma   90.00000000
_symmetry_Int_Tables_number   6
_chemical_formula_structural   Li8Mn8Ge8Pd8C
_chemical_formula_sum   'Li8 Mn8 Ge8 Pd8 C1'
_cell_volume   1417.20795679
_cell_formula_units_Z   1
loop_
 _symmetry_equiv_pos_site_id
 _symmetry_equiv_pos_as_xyz
  1  'x, y, z'
  2  'x, -y, z'
loop_
 _atom_site_type_symbol
 _atom_site_label
 _atom_site_symmetry_multiplicity
 _atom_site_fract_x
 _atom_site_fract_y
 _atom_site_fract_z
 _atom_site_occupancy
  Li  Li0  2  0.49728000  0.25000000  0.03646000  1.0
  Li  Li1  2  0.50000000  0.25000000  0.87707000  1.0
  Li  Li2  1  0.00000000  0.00000000  0.95902000  1.0
  Li  Li3  1  0.00000000  0.50000000  0.95902000  1.0
  Li  Li4  1  0.00069000  0.50000000  0.13562000  1.0
  Li  Li5  1  0.95543000  0.00000000  0.15920000  1.0
  Mn  Mn6  2  0.25000000  0.25000000  0.95902000  1.0
  Mn  Mn7  2  0.26357000  0.22913000  0.12072000  1.0
  Mn  Mn8  1  0.74720000  0.50000000  0.04571000  1.0
  Mn  Mn9  1  0.75000000  0.00000000  0.87707000  1.0
  Mn  Mn10  1  0.75000000  0.50000000  0.87707000  1.0
  Mn  Mn11  1  0.77068000  0.00000000  0.04648000  1.0
  Ge  Ge12  2  0.00000000  0.25000000  0.87707000  1.0
  Ge  Ge13  2  0.00616000  0.25449000  0.03983000  1.0
  Ge  Ge14  1  0.47432000  0.50000000  0.12821000  1.0
  Ge  Ge15  1  0.50000000  0.00000000  0.95902000  1.0
  Ge  Ge16  1  0.50000000  0.50000000  0.95902000  1.0
  Ge  Ge17  1  0.56456000  0.00000000  0.13696000  1.0
  Pd  Pd18  2  0.73166000  0.25940000  0.11360000  1.0
  Pd  Pd19  2  0.75000000  0.25000000  0.95902000  1.0
  Pd  Pd20  1  0.24834000  0.50000000  0.04243000  1.0
  Pd  Pd21  1  0.25000000  0.00000000  0.87707000  1.0
  Pd  Pd22  1  0.25000000  0.50000000  0.87707000  1.0
  Pd  Pd23  1  0.25817000  0.00000000  0.04302000  1.0
  C  C24  1  0.25385000  0.00000000  0.12958000  1.0
