# generated using pymatgen
data_Na24As8C
_symmetry_space_group_name_H-M   Pmm2
_cell_length_a   7.20118000
_cell_length_b   10.18400000
_cell_length_c   27.63800000
_cell_angle_alpha   90.00000000
_cell_angle_beta   90.00000000
_cell_angle_gamma   90.00000000
_symmetry_Int_Tables_number   25
_chemical_formula_structural   Na24As8C
_chemical_formula_sum   'Na24 As8 C1'
_cell_volume   2026.88295156
_cell_formula_units_Z   1
loop_
 _symmetry_equiv_pos_site_id
 _symmetry_equiv_pos_as_xyz
  1  'x, y, z'
  2  '-x, -y, z'
  3  '-x, y, z'
  4  'x, -y, z'
loop_
 _atom_site_type_symbol
 _atom_site_label
 _atom_site_symmetry_multiplicity
 _atom_site_fract_x
 _atom_site_fract_y
 _atom_site_fract_z
 _atom_site_occupancy
  Na  Na0  4  0.25000000  0.25001000  0.86182000  1.0
  Na  Na1  4  0.25053000  0.24520000  0.04950000  1.0
  Na  Na2  2  0.00000000  0.25001000  0.95394000  1.0
  Na  Na3  2  0.00000000  0.25881000  0.14170000  1.0
  Na  Na4  2  0.25000000  0.00000000  0.95394000  1.0
  Na  Na5  2  0.25000000  0.50000000  0.95394000  1.0
  Na  Na6  2  0.28154000  0.00000000  0.14808000  1.0
  Na  Na7  2  0.28681000  0.50000000  0.16332000  1.0
  Na  Na8  1  0.50000000  0.00000000  0.05013000  1.0
  Na  Na9  1  0.50000000  0.00000000  0.86182000  1.0
  Na  Na10  1  0.50000000  0.50000000  0.06380000  1.0
  Na  Na11  1  0.50000000  0.50000000  0.86182000  1.0
  As  As12  2  0.50000000  0.24999000  0.95394000  1.0
  As  As13  2  0.50000000  0.25378000  0.13576000  1.0
  As  As14  1  0.00000000  0.00000000  0.05794000  1.0
  As  As15  1  0.00000000  0.00000000  0.86182000  1.0
  As  As16  1  0.00000000  0.50000000  0.04317000  1.0
  As  As17  1  0.00000000  0.50000000  0.86182000  1.0
  C  C18  1  0.00000000  0.50000000  0.11032000  1.0
