# generated using pymatgen
data_Li8Ge8Pd8Au8C
_symmetry_space_group_name_H-M   'P 1'
_cell_length_a   6.30991000
_cell_length_b   8.92356000
_cell_length_c   26.69270000
_cell_angle_alpha   90.00000000
_cell_angle_beta   90.00000000
_cell_angle_gamma   90.00000000
_symmetry_Int_Tables_number   1
_chemical_formula_structural   Li8Ge8Pd8Au8C
_chemical_formula_sum   'Li8 Ge8 Pd8 Au8 C1'
_cell_volume   1502.98213472
_cell_formula_units_Z   1
loop_
 _symmetry_equiv_pos_site_id
 _symmetry_equiv_pos_as_xyz
  1  'x, y, z'
loop_
 _atom_site_type_symbol
 _atom_site_label
 _atom_site_symmetry_multiplicity
 _atom_site_fract_x
 _atom_site_fract_y
 _atom_site_fract_z
 _atom_site_occupancy
  Li  Li0  1  0.25000000  0.00000000  0.95821000  1.0
  Li  Li1  1  0.25000000  0.50000000  0.95821000  1.0
  Li  Li2  1  0.75000000  0.25000000  0.87463000  1.0
  Li  Li3  1  0.75000000  0.75000000  0.87463000  1.0
  Li  Li4  1  0.24906000  0.51182000  0.13285000  1.0
  Li  Li5  1  0.24906000  0.98817000  0.13285000  1.0
  Li  Li6  1  0.74154000  0.74999000  0.03978000  1.0
  Li  Li7  1  0.75254000  0.25000000  0.04067000  1.0
  Ge  Ge8  1  0.75000000  0.00000000  0.95821000  1.0
  Ge  Ge9  1  0.75000000  0.50000000  0.95821000  1.0
  Ge  Ge10  1  0.25000000  0.25000000  0.87463000  1.0
  Ge  Ge11  1  0.25000000  0.75000000  0.87463000  1.0
  Ge  Ge12  1  0.77097000  0.48293000  0.14127000  1.0
  Ge  Ge13  1  0.77095000  0.01717000  0.14128000  1.0
  Ge  Ge14  1  0.25136000  0.75000000  0.04499000  1.0
  Ge  Ge15  1  0.24625000  0.24999000  0.03351000  1.0
  Pd  Pd16  1  0.00000000  0.25000000  0.95821000  1.0
  Pd  Pd17  1  0.00000000  0.75000000  0.95821000  1.0
  Pd  Pd18  1  0.50000000  0.50000000  0.87463000  1.0
  Pd  Pd19  1  0.50000000  0.00000000  0.87463000  1.0
  Pd  Pd20  1  0.97871000  0.74996000  0.12041000  1.0
  Pd  Pd21  1  0.03914000  0.24997000  0.11335000  1.0
  Pd  Pd22  1  0.50151000  0.99305000  0.04426000  1.0
  Pd  Pd23  1  0.50149000  0.50692000  0.04426000  1.0
  Au  Au24  1  0.00000000  0.00000000  0.87463000  1.0
  Au  Au25  1  0.00000000  0.50000000  0.87463000  1.0
  Au  Au26  1  0.50000000  0.75000000  0.95821000  1.0
  Au  Au27  1  0.50000000  0.25000000  0.95821000  1.0
  Au  Au28  1  0.98726000  0.50633000  0.04533000  1.0
  Au  Au29  1  0.98722000  0.99362000  0.04534000  1.0
  Au  Au30  1  0.47323000  0.24997000  0.11470000  1.0
  Au  Au31  1  0.51231000  0.74998000  0.12623000  1.0
  C  C32  1  0.76524000  0.25015000  0.15324000  1.0
