# generated using pymatgen
data_Y4Sc4Ga4Pd4C
_symmetry_space_group_name_H-M   'P 1'
_cell_length_a   5.91305000
_cell_length_b   9.85606000
_cell_length_c   24.24990000
_cell_angle_alpha   90.00000000
_cell_angle_beta   90.00000000
_cell_angle_gamma   90.00000000
_symmetry_Int_Tables_number   1
_chemical_formula_structural   Y4Sc4Ga4Pd4C
_chemical_formula_sum   'Y4 Sc4 Ga4 Pd4 C1'
_cell_volume   1413.26902995
_cell_formula_units_Z   1
loop_
 _symmetry_equiv_pos_site_id
 _symmetry_equiv_pos_as_xyz
  1  'x, y, z'
loop_
 _atom_site_type_symbol
 _atom_site_label
 _atom_site_symmetry_multiplicity
 _atom_site_fract_x
 _atom_site_fract_y
 _atom_site_fract_z
 _atom_site_occupancy
  Y  Y0  1  0.13690000  0.25005000  0.03447000  1.0
  Y  Y1  1  0.53570000  0.25000000  0.91237000  1.0
  Y  Y2  1  0.21949000  0.75039000  0.02919000  1.0
  Y  Y3  1  0.53570000  0.75000000  0.91237000  1.0
  Sc  Sc4  1  0.52705000  0.04419000  0.09127000  1.0
  Sc  Sc5  1  0.85713000  0.00000000  0.97079000  1.0
  Sc  Sc6  1  0.52894000  0.45685000  0.09078000  1.0
  Sc  Sc7  1  0.85713000  0.50000000  0.97079000  1.0
  Ga  Ga8  1  0.01808000  0.97539000  0.08615000  1.0
  Ga  Ga9  1  0.35713000  0.00000000  0.97079000  1.0
  Ga  Ga10  1  0.02045000  0.52483000  0.08598000  1.0
  Ga  Ga11  1  0.35713000  0.50000000  0.97079000  1.0
  Pd  Pd12  1  0.65721000  0.24946000  0.01620000  1.0
  Pd  Pd13  1  0.03570000  0.25000000  0.91237000  1.0
  Pd  Pd14  1  0.72232000  0.74966000  0.02392000  1.0
  Pd  Pd15  1  0.03570000  0.75000000  0.91237000  1.0
  C  C16  1  0.44885000  0.25063000  0.09160000  1.0
