# generated using pymatgen
data_Mn16Sn8W8CO
_symmetry_space_group_name_H-M   'P 1'
_cell_length_a   8.63363000
_cell_length_b   6.10490000
_cell_length_c   26.47520000
_cell_angle_alpha   90.00000000
_cell_angle_beta   90.00000000
_cell_angle_gamma   90.00000000
_symmetry_Int_Tables_number   1
_chemical_formula_structural   Mn16Sn8W8CO
_chemical_formula_sum   'Mn16 Sn8 W8 C1 O1'
_cell_volume   1395.44022165
_cell_formula_units_Z   1
loop_
 _symmetry_equiv_pos_site_id
 _symmetry_equiv_pos_as_xyz
  1  'x, y, z'
loop_
 _atom_site_type_symbol
 _atom_site_label
 _atom_site_symmetry_multiplicity
 _atom_site_fract_x
 _atom_site_fract_y
 _atom_site_fract_z
 _atom_site_occupancy
  Mn  Mn0  1  0.00000000  0.25000000  0.04076000  1.0
  Mn  Mn1  1  0.50000000  0.75000000  0.04076000  1.0
  Mn  Mn2  1  0.00000000  0.75000000  0.04076000  1.0
  Mn  Mn3  1  0.50000000  0.25000000  0.04076000  1.0
  Mn  Mn4  1  0.75000000  0.75000000  0.12229000  1.0
  Mn  Mn5  1  0.25000000  0.25000000  0.12229000  1.0
  Mn  Mn6  1  0.75000000  0.25000000  0.12229000  1.0
  Mn  Mn7  1  0.25000000  0.75000000  0.12229000  1.0
  Mn  Mn8  1  0.50000000  0.23650000  0.87551000  1.0
  Mn  Mn9  1  0.00000000  0.75247000  0.88009000  1.0
  Mn  Mn10  1  0.50000000  0.77821000  0.87051000  1.0
  Mn  Mn11  1  0.00000000  0.23631000  0.87356000  1.0
  Mn  Mn12  1  0.24850000  0.75131000  0.95673000  1.0
  Mn  Mn13  1  0.74745000  0.26133000  0.95548000  1.0
  Mn  Mn14  1  0.25255000  0.26133000  0.95548000  1.0
  Mn  Mn15  1  0.75150000  0.75131000  0.95673000  1.0
  Sn  Sn16  1  0.00000000  0.00000000  0.12229000  1.0
  Sn  Sn17  1  0.25000000  0.50000000  0.04076000  1.0
  Sn  Sn18  1  0.75000000  0.50000000  0.04076000  1.0
  Sn  Sn19  1  0.50000000  1.00000000  0.12229000  1.0
  Sn  Sn20  1  0.50000000  0.99981000  0.95896000  1.0
  Sn  Sn21  1  0.74960000  0.50158000  0.86326000  1.0
  Sn  Sn22  1  0.25040000  0.50158000  0.86326000  1.0
  Sn  Sn23  1  0.00000000  0.01144000  0.95991000  1.0
  W  W24  1  0.75000000  1.00000000  0.04076000  1.0
  W  W25  1  0.00000000  0.50000000  0.12229000  1.0
  W  W26  1  0.25000000  1.00000000  0.04076000  1.0
  W  W27  1  0.50000000  0.50000000  0.12229000  1.0
  W  W28  1  0.24287000  0.00485000  0.88181000  1.0
  W  W29  1  0.50000000  0.50562000  0.95593000  1.0
  W  W30  1  0.75713000  0.00485000  0.88181000  1.0
  W  W31  1  0.00000000  0.50438000  0.95707000  1.0
  C  C32  1  0.00000000  0.19552000  0.80567000  1.0
  O  O33  1  0.00000000  0.17668000  0.76181000  1.0
