# generated using pymatgen
data_Mn16Sn8W8CO
_symmetry_space_group_name_H-M   Pm
_cell_length_a   6.10490000
_cell_length_b   8.63363000
_cell_length_c   26.47520000
_cell_angle_alpha   90.00000000
_cell_angle_beta   90.00000000
_cell_angle_gamma   90.00000000
_symmetry_Int_Tables_number   6
_chemical_formula_structural   Mn16Sn8W8CO
_chemical_formula_sum   'Mn16 Sn8 W8 C1 O1'
_cell_volume   1395.44022165
_cell_formula_units_Z   1
loop_
 _symmetry_equiv_pos_site_id
 _symmetry_equiv_pos_as_xyz
  1  'x, y, z'
  2  'x, -y, z'
loop_
 _atom_site_type_symbol
 _atom_site_label
 _atom_site_symmetry_multiplicity
 _atom_site_fract_x
 _atom_site_fract_y
 _atom_site_fract_z
 _atom_site_occupancy
  Mn  Mn0  2  0.25000000  0.25000000  0.87771000  1.0
  Mn  Mn1  2  0.26133000  0.25255000  0.04452000  1.0
  Mn  Mn2  2  0.75000000  0.25000000  0.87771000  1.0
  Mn  Mn3  2  0.75131000  0.24850000  0.04327000  1.0
  Mn  Mn4  1  0.23631000  0.00000000  0.12644000  1.0
  Mn  Mn5  1  0.23650000  0.50000000  0.12449000  1.0
  Mn  Mn6  1  0.25000000  0.00000000  0.95924000  1.0
  Mn  Mn7  1  0.25000000  0.50000000  0.95924000  1.0
  Mn  Mn8  1  0.75000000  0.00000000  0.95924000  1.0
  Mn  Mn9  1  0.75000000  0.50000000  0.95924000  1.0
  Mn  Mn10  1  0.75247000  0.00000000  0.11991000  1.0
  Mn  Mn11  1  0.77821000  0.50000000  0.12949000  1.0
  Sn  Sn12  2  0.50000000  0.25000000  0.95924000  1.0
  Sn  Sn13  2  0.50158000  0.25040000  0.13674000  1.0
  Sn  Sn14  1  -0.00000000  0.50000000  0.87771000  1.0
  Sn  Sn15  1  0.00000000  0.00000000  0.87771000  1.0
  Sn  Sn16  1  0.01144000  0.00000000  0.04009000  1.0
  Sn  Sn17  1  0.99981000  0.50000000  0.04104000  1.0
  W  W18  2  -0.00000000  0.25000000  0.95924000  1.0
  W  W19  2  0.00485000  0.24287000  0.11819000  1.0
  W  W20  1  0.50000000  0.00000000  0.87771000  1.0
  W  W21  1  0.50000000  0.50000000  0.87771000  1.0
  W  W22  1  0.50438000  0.00000000  0.04293000  1.0
  W  W23  1  0.50562000  0.50000000  0.04407000  1.0
  C  C24  1  0.19552000  0.00000000  0.19433000  1.0
  O  O25  1  0.17668000  0.00000000  0.23819000  1.0
