# generated using pymatgen
data_Zr4Al12CO
_symmetry_space_group_name_H-M   'P 1'
_cell_length_a   5.79419000
_cell_length_b   8.19423000
_cell_length_c   24.34560000
_cell_angle_alpha   90.00000000
_cell_angle_beta   90.00000000
_cell_angle_gamma   90.00000000
_symmetry_Int_Tables_number   1
_chemical_formula_structural   Zr4Al12CO
_chemical_formula_sum   'Zr4 Al12 C1 O1'
_cell_volume   1155.90292923
_cell_formula_units_Z   1
loop_
 _symmetry_equiv_pos_site_id
 _symmetry_equiv_pos_as_xyz
  1  'x, y, z'
loop_
 _atom_site_type_symbol
 _atom_site_label
 _atom_site_symmetry_multiplicity
 _atom_site_fract_x
 _atom_site_fract_y
 _atom_site_fract_z
 _atom_site_occupancy
  Zr  Zr0  1  0.00000000  0.00000000  0.91377000  1.0
  Zr  Zr1  1  0.50000000  0.00000000  0.02975000  1.0
  Zr  Zr2  1  0.00000000  0.50000000  0.91366000  1.0
  Zr  Zr3  1  0.50000000  0.50000000  0.02975000  1.0
  Al  Al4  1  0.50000000  0.00000000  0.91584000  1.0
  Al  Al5  1  0.75085000  0.25349000  0.96871000  1.0
  Al  Al6  1  0.24915000  0.25349000  0.96871000  1.0
  Al  Al7  1  0.00000000  0.00000000  0.02975000  1.0
  Al  Al8  1  0.25000000  0.25000000  0.08925000  1.0
  Al  Al9  1  0.75000000  0.25000000  0.08925000  1.0
  Al  Al10  1  0.50000000  0.50000000  0.90768000  1.0
  Al  Al11  1  0.75085000  0.74651000  0.96871000  1.0
  Al  Al12  1  0.24915000  0.74651000  0.96871000  1.0
  Al  Al13  1  0.00000000  0.50000000  0.02975000  1.0
  Al  Al14  1  0.25000000  0.75000000  0.08925000  1.0
  Al  Al15  1  0.75000000  0.75000000  0.08925000  1.0
  C  C16  1  0.50000000  0.00000000  0.83696000  1.0
  O  O17  1  0.50000000  0.00000000  0.78898000  1.0
