data_image0
_chemical_formula_structural       YGaSnPdYGaSnPdYGaSnPdYGaSnPdCO
_chemical_formula_sum              "Y4 Ga4 Sn4 Pd4 C1 O1"
_cell_length_a       8.5455
_cell_length_b       6.26088
_cell_length_c       24.6956
_cell_angle_alpha    90
_cell_angle_beta     90
_cell_angle_gamma    90

_space_group_name_H-M_alt    "P 1"
_space_group_IT_number       1

loop_
  _space_group_symop_operation_xyz
  'x, y, z'

loop_
  _atom_site_type_symbol
  _atom_site_label
  _atom_site_symmetry_multiplicity
  _atom_site_fract_x
  _atom_site_fract_y
  _atom_site_fract_z
  _atom_site_occupancy
  Y   Y1        1.0  0.25000  0.74835  0.03169  1.0000
  Ga  Ga1       1.0  0.00000  0.00000  0.09507  1.0000
  Sn  Sn1       1.0  0.25000  0.24835  0.03169  1.0000
  Pd  Pd1       1.0  0.00000  0.50000  0.09507  1.0000
  Y   Y2        1.0  0.25000  0.24505  0.90493  1.0000
  Ga  Ga2       1.0  0.00000  0.49670  0.96831  1.0000
  Sn  Sn2       1.0  0.25000  0.74505  0.90493  1.0000
  Pd  Pd2       1.0  0.00000  0.99670  0.96831  1.0000
  Y   Y3        1.0  0.75000  0.74835  0.03169  1.0000
  Ga  Ga3       1.0  0.50000  0.00000  0.09507  1.0000
  Sn  Sn3       1.0  0.75000  0.24835  0.03169  1.0000
  Pd  Pd3       1.0  0.50000  0.50000  0.09507  1.0000
  Y   Y4        1.0  0.75000  0.24505  0.90493  1.0000
  Ga  Ga4       1.0  0.50000  0.49670  0.96831  1.0000
  Sn  Sn4       1.0  0.75000  0.74505  0.90493  1.0000
  Pd  Pd4       1.0  0.50000  0.99670  0.96831  1.0000
  C   C1        1.0  0.00000  0.50000  0.17201  1.0000
  O   O1        1.0  0.00000  0.50000  0.21857  1.0000
