# generated using pymatgen
data_Y4Mg4In4Pd4CO
_symmetry_space_group_name_H-M   'P 1'
_cell_length_a   6.99626000
_cell_length_b   6.99626000
_cell_length_c   25.24720000
_cell_angle_alpha   90.00000000
_cell_angle_beta   90.00000000
_cell_angle_gamma   90.00000000
_symmetry_Int_Tables_number   1
_chemical_formula_structural   Y4Mg4In4Pd4CO
_chemical_formula_sum   'Y4 Mg4 In4 Pd4 C1 O1'
_cell_volume   1235.79120976
_cell_formula_units_Z   1
loop_
 _symmetry_equiv_pos_site_id
 _symmetry_equiv_pos_as_xyz
  1  'x, y, z'
loop_
 _atom_site_type_symbol
 _atom_site_label
 _atom_site_symmetry_multiplicity
 _atom_site_fract_x
 _atom_site_fract_y
 _atom_site_fract_z
 _atom_site_occupancy
  Y  Y0  1  0.75034000  0.24966000  0.03878000  1
  Y  Y1  1  0.25000000  0.25000000  0.89608000  1
  Y  Y2  1  0.75000000  0.75000000  0.89608000  1
  Y  Y3  1  0.24966000  0.75034000  0.03878000  1
  Mg  Mg4  1  0.75055000  0.75055000  0.03647000  1
  Mg  Mg5  1  0.25000000  0.75000000  0.89608000  1
  Mg  Mg6  1  0.75000000  0.25000000  0.89608000  1
  Mg  Mg7  1  0.24945000  0.24945000  0.03647000  1
  In  In8  1  1.00000000  0.50000000  0.12384000  1
  In  In9  1  0.50000000  0.50000000  0.96536000  1
  In  In10  1  1.00000000  0.00000000  0.96536000  1
  In  In11  1  0.50000000  0.00000000  0.12384000  1
  Pd  Pd12  1  0.50000000  0.50000000  0.09816000  1
  Pd  Pd13  1  1.00000000  0.50000000  0.96536000  1
  Pd  Pd14  1  0.50000000  0.00000000  0.96536000  1
  Pd  Pd15  1  1.00000000  0.00000000  0.09543000  1
  C  C16  1  0.50000000  0.50000000  0.17718000  1
  O  O17  1  0.50000000  0.50000000  0.22279000  1
