# generated using pymatgen
data_Li8Y8Ag8Pb8C
_symmetry_space_group_name_H-M   'P 1'
_cell_length_a   7.20907000
_cell_length_b   10.19520000
_cell_length_c   27.64640000
_cell_angle_alpha   90.00000000
_cell_angle_beta   90.00000000
_cell_angle_gamma   90.00000000
_symmetry_Int_Tables_number   1
_chemical_formula_structural   Li8Y8Ag8Pb8C
_chemical_formula_sum   'Li8 Y8 Ag8 Pb8 C1'
_cell_volume   2031.95263185
_cell_formula_units_Z   1
loop_
 _symmetry_equiv_pos_site_id
 _symmetry_equiv_pos_as_xyz
  1  'x, y, z'
loop_
 _atom_site_type_symbol
 _atom_site_label
 _atom_site_symmetry_multiplicity
 _atom_site_fract_x
 _atom_site_fract_y
 _atom_site_fract_z
 _atom_site_occupancy
  Li  Li0  1  0.25000000  0.00000000  0.95390000  1.0
  Li  Li1  1  0.25000000  0.50000000  0.95390000  1.0
  Li  Li2  1  0.75000000  0.25000000  0.86171000  1.0
  Li  Li3  1  0.75000000  0.75000000  0.86171000  1.0
  Li  Li4  1  0.29437000  0.51907000  0.14364000  1.0
  Li  Li5  1  0.29493000  0.98083000  0.14367000  1.0
  Li  Li6  1  0.76624000  0.74900000  0.04155000  1.0
  Li  Li7  1  0.75136000  0.25006000  0.04576000  1.0
  Y  Y8  1  0.75000000  0.00000000  0.95390000  1.0
  Y  Y9  1  0.75000000  0.50000000  0.95390000  1.0
  Y  Y10  1  0.25000000  0.25000000  0.86171000  1.0
  Y  Y11  1  0.25000000  0.75000000  0.86171000  1.0
  Y  Y12  1  0.83200000  0.44705000  0.13469000  1.0
  Y  Y13  1  0.83304000  0.05437000  0.13463000  1.0
  Y  Y14  1  0.27740000  0.75034000  0.04789000  1.0
  Y  Y15  1  0.19141000  0.24999000  0.05906000  1.0
  Ag  Ag16  1  0.00000000  0.00000000  0.86171000  1.0
  Ag  Ag17  1  0.00000000  0.50000000  0.86171000  1.0
  Ag  Ag18  1  0.50000000  0.75000000  0.95390000  1.0
  Ag  Ag19  1  0.50000000  0.25000000  0.95390000  1.0
  Ag  Ag20  1  0.01352000  0.52809000  0.04004000  1.0
  Ag  Ag21  1  0.01251000  0.97206000  0.04001000  1.0
  Ag  Ag22  1  0.49151000  0.25023000  0.13513000  1.0
  Ag  Ag23  1  0.58541000  0.75058000  0.12679000  1.0
  Pb  Pb24  1  0.00000000  0.25000000  0.95390000  1.0
  Pb  Pb25  1  0.00000000  0.75000000  0.95390000  1.0
  Pb  Pb26  1  0.50000000  0.50000000  0.86171000  1.0
  Pb  Pb27  1  0.50000000  0.00000000  0.86171000  1.0
  Pb  Pb28  1  0.01231000  0.75047000  0.13987000  1.0
  Pb  Pb29  1  0.13072000  0.25066000  0.18793000  1.0
  Pb  Pb30  1  0.51430000  0.00884000  0.05247000  1.0
  Pb  Pb31  1  0.51353000  0.49143000  0.05230000  1.0
  C  C32  1  0.93947000  0.25065000  0.10951000  1.0
