# generated using pymatgen
data_Li8Y8Ge8Pd8C
_symmetry_space_group_name_H-M   'P 1'
_cell_length_a   9.26950000
_cell_length_b   6.55453000
_cell_length_c   26.95210000
_cell_angle_alpha   90.00000000
_cell_angle_beta   90.00000000
_cell_angle_gamma   90.00000000
_symmetry_Int_Tables_number   1
_chemical_formula_structural   Li8Y8Ge8Pd8C
_chemical_formula_sum   'Li8 Y8 Ge8 Pd8 C1'
_cell_volume   1637.53455691
_cell_formula_units_Z   1
loop_
 _symmetry_equiv_pos_site_id
 _symmetry_equiv_pos_as_xyz
  1  'x, y, z'
loop_
 _atom_site_type_symbol
 _atom_site_label
 _atom_site_symmetry_multiplicity
 _atom_site_fract_x
 _atom_site_fract_y
 _atom_site_fract_z
 _atom_site_occupancy
  Li  Li0  1  0.75000000  0.75000000  0.04299000  1.0
  Li  Li1  1  0.25000000  0.75000000  0.04299000  1.0
  Li  Li2  1  0.00000000  0.25000000  0.12897000  1.0
  Li  Li3  1  0.50000000  0.25000000  0.12897000  1.0
  Li  Li4  1  0.26705000  0.54763000  0.81912000  1.0
  Li  Li5  1  0.73295000  0.54763000  0.81912000  1.0
  Li  Li6  1  0.50000000  0.23182000  0.95309000  1.0
  Li  Li7  1  0.00000000  0.22738000  0.94149000  1.0
  Y  Y8  1  0.00000000  1.00000000  0.04299000  1.0
  Y  Y9  1  0.50000000  0.00000000  0.04299000  1.0
  Y  Y10  1  0.25000000  0.50000000  0.12897000  1.0
  Y  Y11  1  0.75000000  0.50000000  0.12897000  1.0
  Y  Y12  1  0.50000000  0.95172000  0.86873000  1.0
  Y  Y13  1  0.00000000  0.91142000  0.86882000  1.0
  Y  Y14  1  0.74854000  0.50342000  0.95264000  1.0
  Y  Y15  1  0.25146000  0.50342000  0.95264000  1.0
  Ge  Ge16  1  0.75000000  0.00000000  0.12897000  1.0
  Ge  Ge17  1  0.25000000  0.00000000  0.12897000  1.0
  Ge  Ge18  1  0.50000000  0.50000000  0.04299000  1.0
  Ge  Ge19  1  0.00000000  0.50000000  0.04299000  1.0
  Ge  Ge20  1  0.24873000  0.98749000  0.95717000  1.0
  Ge  Ge21  1  0.75127000  0.98749000  0.95717000  1.0
  Ge  Ge22  1  0.00000000  0.51273000  0.86149000  1.0
  Ge  Ge23  1  0.50000000  0.46071000  0.87112000  1.0
  Pd  Pd24  1  0.75000000  0.25000000  0.04299000  1.0
  Pd  Pd25  1  0.25000000  0.25000000  0.04299000  1.0
  Pd  Pd26  1  0.00000000  0.75000000  0.12897000  1.0
  Pd  Pd27  1  0.50000000  0.75000000  0.12897000  1.0
  Pd  Pd28  1  0.24420000  0.21998000  0.87519000  1.0
  Pd  Pd29  1  0.75580000  0.21998000  0.87519000  1.0
  Pd  Pd30  1  0.50000000  0.75260000  0.95866000  1.0
  Pd  Pd31  1  0.00000000  0.73815000  0.96214000  1.0
  C  C32  1  0.00000000  0.23468000  0.85614000  1.0
