data_image0
_chemical_formula_structural       V8Sn8Rh16
_chemical_formula_sum              "V8 Sn8 Rh16"
_cell_length_a       6.32488
_cell_length_b       8.94473
_cell_length_c       26.7085
_cell_angle_alpha    90
_cell_angle_beta     90
_cell_angle_gamma    90

_space_group_name_H-M_alt    "P 1"
_space_group_IT_number       1

loop_
  _space_group_symop_operation_xyz
  'x, y, z'

loop_
  _atom_site_type_symbol
  _atom_site_label
  _atom_site_symmetry_multiplicity
  _atom_site_fract_x
  _atom_site_fract_y
  _atom_site_fract_z
  _atom_site_occupancy
  V   V1        1.0  0.00000  0.00000  0.87441  1.0000
  V   V2        1.0  0.50000  0.25000  0.95814  1.0000
  V   V3        1.0  0.50000  0.75000  0.95814  1.0000
  V   V4        1.0  0.00000  0.50000  0.87441  1.0000
  V   V5        1.0  0.00000  0.49999  0.04694  1.0000
  V   V6        1.0  0.50000  0.75000  0.11569  1.0000
  V   V7        1.0  0.50000  0.25000  0.11570  1.0000
  V   V8        1.0  1.00000  0.00001  0.04695  1.0000
  Sn  Sn1       1.0  0.00000  0.75000  0.95814  1.0000
  Sn  Sn2       1.0  0.50000  0.00000  0.87441  1.0000
  Sn  Sn3       1.0  0.00000  0.25000  0.95814  1.0000
  Sn  Sn4       1.0  0.50000  0.50000  0.87441  1.0000
  Sn  Sn5       1.0  0.00000  0.25001  0.13824  1.0000
  Sn  Sn6       1.0  0.50000  0.50000  0.03816  1.0000
  Sn  Sn7       1.0  1.00000  0.74999  0.13822  1.0000
  Sn  Sn8       1.0  0.50000  0.00000  0.03816  1.0000
  Rh  Rh1       1.0  0.25000  0.00000  0.95814  1.0000
  Rh  Rh2       1.0  0.75000  0.50000  0.95814  1.0000
  Rh  Rh3       1.0  0.75000  0.00000  0.95814  1.0000
  Rh  Rh4       1.0  0.25000  0.50000  0.95814  1.0000
  Rh  Rh5       1.0  0.75000  0.75000  0.87441  1.0000
  Rh  Rh6       1.0  0.25000  0.25000  0.87441  1.0000
  Rh  Rh7       1.0  0.25000  0.75000  0.87441  1.0000
  Rh  Rh8       1.0  0.75000  0.25000  0.87441  1.0000
  Rh  Rh9       1.0  0.25400  0.49999  0.11865  1.0000
  Rh  Rh10      1.0  0.74600  0.00001  0.11865  1.0000
  Rh  Rh11      1.0  0.74600  0.49999  0.11865  1.0000
  Rh  Rh12      1.0  0.25401  0.00001  0.11865  1.0000
  Rh  Rh13      1.0  0.76491  0.24999  0.04456  1.0000
  Rh  Rh14      1.0  0.23510  0.75001  0.04455  1.0000
  Rh  Rh15      1.0  0.23509  0.24999  0.04456  1.0000
  Rh  Rh16      1.0  0.76490  0.75001  0.04455  1.0000
