# generated using pymatgen
data_VSnRh2
_symmetry_space_group_name_H-M   'P 1'
_cell_length_a   4.47236500
_cell_length_b   6.32488000
_cell_length_c   26.70850000
_cell_angle_alpha   90.00000000
_cell_angle_beta   90.00000000
_cell_angle_gamma   90.00000000
_symmetry_Int_Tables_number   1
_chemical_formula_structural   VSnRh2
_chemical_formula_sum   'V4 Sn4 Rh8'
_cell_volume   755.50793179
_cell_formula_units_Z   4
loop_
 _symmetry_equiv_pos_site_id
 _symmetry_equiv_pos_as_xyz
  1  'x, y, z'
loop_
 _atom_site_type_symbol
 _atom_site_label
 _atom_site_symmetry_multiplicity
 _atom_site_fract_x
 _atom_site_fract_y
 _atom_site_fract_z
 _atom_site_occupancy
  V  V0  1  0.00000000  0.00000000  0.12559000  1.0
  V  V1  1  0.50000000  0.50000000  0.04186000  1.0
  V  V2  1  0.00000000  0.00000000  0.95305500  1.0
  V  V3  1  0.50000000  0.50000000  0.88430500  1.0
  Sn  Sn4  1  0.50000000  0.00000000  0.04186000  1.0
  Sn  Sn5  1  0.00000000  0.50000000  0.12559000  1.0
  Sn  Sn6  1  0.50000000  0.00000000  0.86177000  1.0
  Sn  Sn7  1  0.00000000  0.50000000  0.96184000  1.0
  Rh  Rh8  1  0.00000000  0.75000000  0.04186000  1.0
  Rh  Rh9  1  0.00000000  0.25000000  0.04186000  1.0
  Rh  Rh10  1  0.50000000  0.25000000  0.12559000  1.0
  Rh  Rh11  1  0.50000000  0.75000000  0.12559000  1.0
  Rh  Rh12  1  0.00000000  0.74599500  0.88135000  1.0
  Rh  Rh13  1  0.00000000  0.25400500  0.88135000  1.0
  Rh  Rh14  1  0.50000000  0.23509500  0.95544500  1.0
  Rh  Rh15  1  0.50000000  0.76490500  0.95544500  1.0
