# generated using pymatgen
data_Ca24In8CO
_symmetry_space_group_name_H-M   Pmm2
_cell_length_a   8.11767000
_cell_length_b   11.48010000
_cell_length_c   28.61010000
_cell_angle_alpha   90.00000000
_cell_angle_beta   90.00000000
_cell_angle_gamma   90.00000000
_symmetry_Int_Tables_number   25
_chemical_formula_structural   Ca24In8CO
_chemical_formula_sum   'Ca24 In8 C1 O1'
_cell_volume   2666.22280810
_cell_formula_units_Z   1
loop_
 _symmetry_equiv_pos_site_id
 _symmetry_equiv_pos_as_xyz
  1  'x, y, z'
  2  '-x, -y, z'
  3  '-x, y, z'
  4  'x, -y, z'
loop_
 _atom_site_type_symbol
 _atom_site_label
 _atom_site_symmetry_multiplicity
 _atom_site_fract_x
 _atom_site_fract_y
 _atom_site_fract_z
 _atom_site_occupancy
  Ca  Ca0  4  0.24466000  0.25890000  0.15025000  1.0
  Ca  Ca1  4  0.25000000  0.24999000  0.94984000  1.0
  Ca  Ca2  2  0.22572000  0.00000000  0.05654000  1.0
  Ca  Ca3  2  0.22595000  0.50000000  0.05865000  1.0
  Ca  Ca4  2  0.25000000  0.00000000  0.84953000  1.0
  Ca  Ca5  2  0.25000000  0.50000000  0.84953000  1.0
  Ca  Ca6  2  0.50000000  0.24999000  0.84953000  1.0
  Ca  Ca7  2  0.50000000  0.25555000  0.04969000  1.0
  Ca  Ca8  1  0.00000000  0.00000000  0.18210000  1.0
  Ca  Ca9  1  0.00000000  0.00000000  0.94984000  1.0
  Ca  Ca10  1  0.00000000  0.50000000  0.19268000  1.0
  Ca  Ca11  1  0.00000000  0.50000000  0.94984000  1.0
  In  In12  2  0.00000000  0.24786000  0.04701000  1.0
  In  In13  2  0.00000000  0.24999000  0.84953000  1.0
  In  In14  1  0.50000000  0.00000000  0.13830000  1.0
  In  In15  1  0.50000000  0.00000000  0.94984000  1.0
  In  In16  1  0.50000000  0.50000000  0.14295000  1.0
  In  In17  1  0.50000000  0.50000000  0.94984000  1.0
  C  C18  1  0.50000000  0.00000000  0.21785000  1.0
  O  O19  1  0.50000000  0.00000000  0.25858000  1.0
