# generated using pymatgen
data_Li8Y8Sn8Pb8C
_symmetry_space_group_name_H-M   'P 1'
_cell_length_a   8.87168000
_cell_length_b   9.64462000
_cell_length_c   27.02620000
_cell_angle_alpha   90.00000000
_cell_angle_beta   90.00000000
_cell_angle_gamma   90.00000000
_symmetry_Int_Tables_number   1
_chemical_formula_structural   Li8Y8Sn8Pb8C
_chemical_formula_sum   'Li8 Y8 Sn8 Pb8 C1'
_cell_volume   2312.46930010
_cell_formula_units_Z   1
loop_
 _symmetry_equiv_pos_site_id
 _symmetry_equiv_pos_as_xyz
  1  'x, y, z'
loop_
 _atom_site_type_symbol
 _atom_site_label
 _atom_site_symmetry_multiplicity
 _atom_site_fract_x
 _atom_site_fract_y
 _atom_site_fract_z
 _atom_site_occupancy
  Li  Li0  1  0.75000000  0.75000000  0.12999000  1.0
  Li  Li1  1  0.75493000  0.74898000  0.95580000  1.0
  Li  Li2  1  0.25000000  0.75000000  0.12999000  1.0
  Li  Li3  1  0.24507000  0.74898000  0.95580000  1.0
  Li  Li4  1  0.75000000  0.25000000  0.12999000  1.0
  Li  Li5  1  0.75493000  0.25102000  0.95580000  1.0
  Li  Li6  1  0.25000000  0.25000000  0.12999000  1.0
  Li  Li7  1  0.24507000  0.25102000  0.95580000  1.0
  Y  Y8  1  0.75000000  0.00000000  0.04333000  1.0
  Y  Y9  1  0.74318000  0.00000000  0.87202000  1.0
  Y  Y10  1  0.25000000  0.00000000  0.04333000  1.0
  Y  Y11  1  0.25682000  0.00000000  0.87202000  1.0
  Y  Y12  1  0.75000000  0.50000000  0.04333000  1.0
  Y  Y13  1  0.74793000  0.50000000  0.87187000  1.0
  Y  Y14  1  0.25000000  0.50000000  0.04333000  1.0
  Y  Y15  1  0.25207000  0.50000000  0.87187000  1.0
  Sn  Sn16  1  0.00000000  0.00000000  0.12999000  1.0
  Sn  Sn17  1  0.00000000  0.00000000  0.95512000  1.0
  Sn  Sn18  1  0.50000000  0.00000000  0.12999000  1.0
  Sn  Sn19  1  0.50000000  0.00000000  0.95687000  1.0
  Sn  Sn20  1  0.00000000  0.50000000  0.12999000  1.0
  Sn  Sn21  1  0.00000000  0.50000000  0.95403000  1.0
  Sn  Sn22  1  0.50000000  0.50000000  0.12999000  1.0
  Sn  Sn23  1  0.50000000  0.50000000  0.95513000  1.0
  Pb  Pb24  1  0.00000000  0.75000000  0.04333000  1.0
  Pb  Pb25  1  0.00000000  0.73791000  0.85978000  1.0
  Pb  Pb26  1  0.50000000  0.75000000  0.04333000  1.0
  Pb  Pb27  1  0.50000000  0.74377000  0.86845000  1.0
  Pb  Pb28  1  0.00000000  0.25000000  0.04333000  1.0
  Pb  Pb29  1  0.00000000  0.26209000  0.85978000  1.0
  Pb  Pb30  1  0.50000000  0.25000000  0.04333000  1.0
  Pb  Pb31  1  0.50000000  0.25623000  0.86845000  1.0
  C  C32  1  0.00000000  0.00000000  0.86922000  1.0
