# generated using pymatgen
data_Hf16Pt16C
_symmetry_space_group_name_H-M   'P 1'
_cell_length_a   9.41730000
_cell_length_b   6.65903000
_cell_length_c   27.06300000
_cell_angle_alpha   90.00000000
_cell_angle_beta   90.00000000
_cell_angle_gamma   90.00000000
_symmetry_Int_Tables_number   1
_chemical_formula_structural   Hf16Pt16C
_chemical_formula_sum   'Hf16 Pt16 C1'
_cell_volume   1697.12298216
_cell_formula_units_Z   1
loop_
 _symmetry_equiv_pos_site_id
 _symmetry_equiv_pos_as_xyz
  1  'x, y, z'
loop_
 _atom_site_type_symbol
 _atom_site_label
 _atom_site_symmetry_multiplicity
 _atom_site_fract_x
 _atom_site_fract_y
 _atom_site_fract_z
 _atom_site_occupancy
  Hf  Hf0  1  0.74998000  0.00000000  0.13049000  1.0
  Hf  Hf1  1  0.00000000  0.00000000  0.04350000  1.0
  Hf  Hf2  1  0.74913000  0.00197000  0.95274000  1.0
  Hf  Hf3  1  0.00000000  0.99561000  0.86498000  1.0
  Hf  Hf4  1  0.25002000  0.00000000  0.13049000  1.0
  Hf  Hf5  1  0.50000000  1.00000000  0.04350000  1.0
  Hf  Hf6  1  0.25087000  0.00197000  0.95274000  1.0
  Hf  Hf7  1  0.50000000  0.00628000  0.86611000  1.0
  Hf  Hf8  1  0.74998000  0.50000000  0.13049000  1.0
  Hf  Hf9  1  0.00000000  0.50000000  0.04350000  1.0
  Hf  Hf10  1  0.74910000  0.49815000  0.95273000  1.0
  Hf  Hf11  1  0.00000000  0.50518000  0.86505000  1.0
  Hf  Hf12  1  0.25002000  0.50000000  0.13049000  1.0
  Hf  Hf13  1  0.50000000  0.50000000  0.04350000  1.0
  Hf  Hf14  1  0.25090000  0.49815000  0.95273000  1.0
  Hf  Hf15  1  0.50000000  0.49397000  0.86606000  1.0
  Pt  Pt16  1  0.00000000  0.25000000  0.13049000  1.0
  Pt  Pt17  1  0.74998000  0.25000000  0.04350000  1.0
  Pt  Pt18  1  0.00000000  0.24976000  0.95452000  1.0
  Pt  Pt19  1  0.73171000  0.25016000  0.86934000  1.0
  Pt  Pt20  1  0.50000000  0.25000000  0.13049000  1.0
  Pt  Pt21  1  0.25002000  0.25000000  0.04350000  1.0
  Pt  Pt22  1  0.50000000  0.24991000  0.96797000  1.0
  Pt  Pt23  1  0.26829000  0.25016000  0.86934000  1.0
  Pt  Pt24  1  0.00000000  0.75000000  0.13049000  1.0
  Pt  Pt25  1  0.74998000  0.75000000  0.04350000  1.0
  Pt  Pt26  1  0.00000000  0.74993000  0.96662000  1.0
  Pt  Pt27  1  0.75377000  0.75021000  0.87343000  1.0
  Pt  Pt28  1  0.50000000  0.75000000  0.13049000  1.0
  Pt  Pt29  1  0.25002000  0.75000000  0.04350000  1.0
  Pt  Pt30  1  0.50000000  0.74989000  0.94267000  1.0
  Pt  Pt31  1  0.24623000  0.75021000  0.87343000  1.0
  C  C32  1  0.00000000  0.25052000  0.82517000  1.0
