# generated using pymatgen
data_Hf16Pt16C
_symmetry_space_group_name_H-M   Pm
_cell_length_a   6.65903000
_cell_length_b   9.41730000
_cell_length_c   27.06300000
_cell_angle_alpha   90.00000000
_cell_angle_beta   90.00000000
_cell_angle_gamma   90.00000000
_symmetry_Int_Tables_number   6
_chemical_formula_structural   Hf16Pt16C
_chemical_formula_sum   'Hf16 Pt16 C1'
_cell_volume   1697.12298216
_cell_formula_units_Z   1
loop_
 _symmetry_equiv_pos_site_id
 _symmetry_equiv_pos_as_xyz
  1  'x, y, z'
  2  'x, -y, z'
loop_
 _atom_site_type_symbol
 _atom_site_label
 _atom_site_symmetry_multiplicity
 _atom_site_fract_x
 _atom_site_fract_y
 _atom_site_fract_z
 _atom_site_occupancy
  Hf  Hf0  2  0.00000000  0.25002000  0.86951000  1.0
  Hf  Hf1  2  0.00197000  0.25087000  0.04726000  1.0
  Hf  Hf2  2  0.49815000  0.25090000  0.04727000  1.0
  Hf  Hf3  2  0.50000000  0.25002000  0.86951000  1.0
  Hf  Hf4  1  -0.00000000  0.50000000  0.95650000  1.0
  Hf  Hf5  1  0.00000000  0.00000000  0.95650000  1.0
  Hf  Hf6  1  0.00628000  0.50000000  0.13389000  1.0
  Hf  Hf7  1  0.49397000  0.50000000  0.13394000  1.0
  Hf  Hf8  1  0.50000000  0.00000000  0.95650000  1.0
  Hf  Hf9  1  0.50000000  0.50000000  0.95650000  1.0
  Hf  Hf10  1  0.50518000  0.00000000  0.13495000  1.0
  Hf  Hf11  1  0.99561000  0.00000000  0.13502000  1.0
  Pt  Pt12  2  0.25000000  0.25002000  0.95650000  1.0
  Pt  Pt13  2  0.25016000  0.26829000  0.13066000  1.0
  Pt  Pt14  2  0.75000000  0.25002000  0.95650000  1.0
  Pt  Pt15  2  0.75021000  0.24623000  0.12657000  1.0
  Pt  Pt16  1  0.24976000  0.00000000  0.04548000  1.0
  Pt  Pt17  1  0.24991000  0.50000000  0.03203000  1.0
  Pt  Pt18  1  0.25000000  0.00000000  0.86951000  1.0
  Pt  Pt19  1  0.25000000  0.50000000  0.86951000  1.0
  Pt  Pt20  1  0.74989000  0.50000000  0.05733000  1.0
  Pt  Pt21  1  0.74993000  0.00000000  0.03338000  1.0
  Pt  Pt22  1  0.75000000  0.00000000  0.86951000  1.0
  Pt  Pt23  1  0.75000000  0.50000000  0.86951000  1.0
  C  C24  1  0.25052000  0.00000000  0.17483000  1.0
