# generated using pymatgen
data_Li8Sc8Ga8Ge8CO
_symmetry_space_group_name_H-M   'P 1'
_cell_length_a   7.95848000
_cell_length_b   8.07712000
_cell_length_c   26.27990000
_cell_angle_alpha   90.00000000
_cell_angle_beta   90.00000000
_cell_angle_gamma   90.00000000
_symmetry_Int_Tables_number   1
_chemical_formula_structural   Li8Sc8Ga8Ge8CO
_chemical_formula_sum   'Li8 Sc8 Ga8 Ge8 C1 O1'
_cell_volume   1689.31396669
_cell_formula_units_Z   1
loop_
 _symmetry_equiv_pos_site_id
 _symmetry_equiv_pos_as_xyz
  1  'x, y, z'
loop_
 _atom_site_type_symbol
 _atom_site_label
 _atom_site_symmetry_multiplicity
 _atom_site_fract_x
 _atom_site_fract_y
 _atom_site_fract_z
 _atom_site_occupancy
  Li  Li0  1  0.25000000  0.25000000  0.11948000  1.0
  Li  Li1  1  0.25000000  0.25000000  0.96017000  1.0
  Li  Li2  1  0.25000000  0.75000000  0.11948000  1.0
  Li  Li3  1  0.25000000  0.75000000  0.96017000  1.0
  Li  Li4  1  0.75000000  0.25000000  0.11948000  1.0
  Li  Li5  1  0.75000000  0.25000000  0.96017000  1.0
  Li  Li6  1  0.75000000  0.75000000  0.11948000  1.0
  Li  Li7  1  0.75000000  0.75000000  0.96017000  1.0
  Sc  Sc8  1  0.25000000  0.00000000  0.03983000  1.0
  Sc  Sc9  1  0.25000000  0.00000000  0.88052000  1.0
  Sc  Sc10  1  0.25000000  0.50000000  0.03983000  1.0
  Sc  Sc11  1  0.25000000  0.50000000  0.88052000  1.0
  Sc  Sc12  1  0.75000000  0.00000000  0.03983000  1.0
  Sc  Sc13  1  0.75000000  0.00000000  0.88052000  1.0
  Sc  Sc14  1  0.75000000  0.50000000  0.03983000  1.0
  Sc  Sc15  1  0.75000000  0.50000000  0.88052000  1.0
  Ga  Ga16  1  0.00000000  0.00000000  0.11948000  1.0
  Ga  Ga17  1  0.00000000  0.00000000  0.96017000  1.0
  Ga  Ga18  1  0.00000000  0.50000000  0.11948000  1.0
  Ga  Ga19  1  0.00000000  0.50000000  0.96017000  1.0
  Ga  Ga20  1  0.50000000  0.00000000  0.11948000  1.0
  Ga  Ga21  1  0.50000000  0.00000000  0.96017000  1.0
  Ga  Ga22  1  0.50000000  0.50000000  0.11948000  1.0
  Ga  Ga23  1  0.50000000  0.50000000  0.96017000  1.0
  Ge  Ge24  1  0.00000000  0.25000000  0.03983000  1.0
  Ge  Ge25  1  0.00000000  0.25000000  0.88052000  1.0
  Ge  Ge26  1  0.00000000  0.75000000  0.03983000  1.0
  Ge  Ge27  1  0.00000000  0.75000000  0.88052000  1.0
  Ge  Ge28  1  0.50000000  0.25000000  0.03983000  1.0
  Ge  Ge29  1  0.50000000  0.25000000  0.88052000  1.0
  Ge  Ge30  1  0.50000000  0.75000000  0.03983000  1.0
  Ge  Ge31  1  0.50000000  0.75000000  0.88052000  1.0
  C  C32  1  0.00000000  0.00000000  0.19178000  1.0
  O  O33  1  0.00000000  0.00000000  0.23554000  1.0
