# generated using pymatgen
data_Li4Mg4Al4Pd4CO
_symmetry_space_group_name_H-M   'P 1'
_cell_length_a   6.28130000
_cell_length_b   6.28130000
_cell_length_c   24.71100000
_cell_angle_alpha   90.00000000
_cell_angle_beta   90.00000000
_cell_angle_gamma   90.00000000
_symmetry_Int_Tables_number   1
_chemical_formula_structural   Li4Mg4Al4Pd4CO
_chemical_formula_sum   'Li4 Mg4 Al4 Pd4 C1 O1'
_cell_volume   974.96582537
_cell_formula_units_Z   1
loop_
 _symmetry_equiv_pos_site_id
 _symmetry_equiv_pos_as_xyz
  1  'x, y, z'
loop_
 _atom_site_type_symbol
 _atom_site_label
 _atom_site_symmetry_multiplicity
 _atom_site_fract_x
 _atom_site_fract_y
 _atom_site_fract_z
 _atom_site_occupancy
  Li  Li0  1  0.25000000  0.75000000  0.03177000  1
  Li  Li1  1  0.75024000  0.74961000  0.88500000  1
  Li  Li2  1  0.25039000  0.24976000  0.88500000  1
  Li  Li3  1  0.75000000  0.25000000  0.03177000  1
  Mg  Mg4  1  0.50000000  0.00000000  0.09532000  1
  Mg  Mg5  1  0.00478000  0.99522000  0.96645000  1
  Mg  Mg6  1  0.49610000  0.50390000  0.96622000  1
  Mg  Mg7  1  1.00000000  0.50000000  0.09532000  1
  Al  Al8  1  0.00000000  0.00000000  0.09532000  1
  Al  Al9  1  0.49650000  0.99602000  0.96481000  1
  Al  Al10  1  0.00398000  0.50350000  0.96481000  1
  Al  Al11  1  0.50000000  0.50000000  0.09532000  1
  Pd  Pd12  1  0.25000000  0.25000000  0.03177000  1
  Pd  Pd13  1  0.75052000  0.24948000  0.91337000  1
  Pd  Pd14  1  0.24987000  0.75013000  0.90273000  1
  Pd  Pd15  1  0.75000000  0.75000000  0.03177000  1
  C  C16  1  0.24820000  0.75180000  0.82280000  1
  O  O17  1  0.24801000  0.75199000  0.77587000  1
