# generated using pymatgen
data_Li16Ga8Pd8C
_symmetry_space_group_name_H-M   'P 1'
_cell_length_a   8.69561000
_cell_length_b   6.14873000
_cell_length_c   26.52170000
_cell_angle_alpha   90.00000000
_cell_angle_beta   90.00000000
_cell_angle_gamma   90.00000000
_symmetry_Int_Tables_number   1
_chemical_formula_structural   Li16Ga8Pd8C
_chemical_formula_sum   'Li16 Ga8 Pd8 C1'
_cell_volume   1418.03462199
_cell_formula_units_Z   1
loop_
 _symmetry_equiv_pos_site_id
 _symmetry_equiv_pos_as_xyz
  1  'x, y, z'
loop_
 _atom_site_type_symbol
 _atom_site_label
 _atom_site_symmetry_multiplicity
 _atom_site_fract_x
 _atom_site_fract_y
 _atom_site_fract_z
 _atom_site_occupancy
  Li  Li0  1  0.50000000  1.00000000  0.04098000  1.0
  Li  Li1  1  0.75001000  0.50000000  0.12295000  1.0
  Li  Li2  1  0.00000000  0.00000000  0.04098000  1.0
  Li  Li3  1  0.24999000  0.50000000  0.12295000  1.0
  Li  Li4  1  0.00000000  0.25000000  0.12295000  1.0
  Li  Li5  1  0.50000000  0.25000000  0.12295000  1.0
  Li  Li6  1  0.25001000  0.75000000  0.04098000  1.0
  Li  Li7  1  0.74999000  0.75000000  0.04098000  1.0
  Li  Li8  1  0.00000000  0.94962000  0.86271000  1.0
  Li  Li9  1  0.23245000  0.49927000  0.95619000  1.0
  Li  Li10  1  0.50000000  0.94258000  0.87286000  1.0
  Li  Li11  1  0.76755000  0.49927000  0.95619000  1.0
  Li  Li12  1  0.50000000  0.24470000  0.96138000  1.0
  Li  Li13  1  0.00000000  0.23364000  0.95339000  1.0
  Li  Li14  1  0.76723000  0.68671000  0.87132000  1.0
  Li  Li15  1  0.23277000  0.68671000  0.87132000  1.0
  Ga  Ga16  1  0.75001000  0.25000000  0.04098000  1.0
  Ga  Ga17  1  0.24999000  0.25000000  0.04098000  1.0
  Ga  Ga18  1  0.50000000  0.75000000  0.12295000  1.0
  Ga  Ga19  1  0.00000000  0.75000000  0.12295000  1.0
  Ga  Ga20  1  0.26218000  0.20832000  0.87314000  1.0
  Ga  Ga21  1  0.73782000  0.20832000  0.87314000  1.0
  Ga  Ga22  1  0.00000000  0.77663000  0.96338000  1.0
  Ga  Ga23  1  0.50000000  0.73217000  0.95750000  1.0
  Pd  Pd24  1  0.75001000  0.00000000  0.12295000  1.0
  Pd  Pd25  1  0.00000000  0.50000000  0.04098000  1.0
  Pd  Pd26  1  0.50000000  0.50000000  0.04098000  1.0
  Pd  Pd27  1  0.24999000  0.00000000  0.12295000  1.0
  Pd  Pd28  1  0.26168000  0.99207000  0.95908000  1.0
  Pd  Pd29  1  0.50000000  0.45753000  0.88394000  1.0
  Pd  Pd30  1  0.00000000  0.36907000  0.86108000  1.0
  Pd  Pd31  1  0.73832000  0.99207000  0.95908000  1.0
  C  C32  1  0.00000000  0.64570000  0.89726000  1.0
