data_image0
_chemical_formula_structural       Zr8Al8Pd16C
_chemical_formula_sum              "Zr8 Al8 Pd16 C1"
_cell_length_a       6.48931
_cell_length_b       9.17726
_cell_length_c       26.8829
_cell_angle_alpha    90
_cell_angle_beta     90
_cell_angle_gamma    90

_space_group_name_H-M_alt    "P 1"
_space_group_IT_number       1

loop_
  _space_group_symop_operation_xyz
  'x, y, z'

loop_
  _atom_site_type_symbol
  _atom_site_label
  _atom_site_symmetry_multiplicity
  _atom_site_fract_x
  _atom_site_fract_y
  _atom_site_fract_z
  _atom_site_occupancy
  Zr  Zr1       1.0  0.00000  0.00000  0.87198  1.0000
  Zr  Zr2       1.0  0.50000  0.25000  0.95733  1.0000
  Zr  Zr3       1.0  0.50000  0.75000  0.95733  1.0000
  Zr  Zr4       1.0  0.00000  0.50000  0.87198  1.0000
  Zr  Zr5       1.0  0.00298  0.50289  0.04232  1.0000
  Zr  Zr6       1.0  0.48044  0.75000  0.12977  1.0000
  Zr  Zr7       1.0  0.52863  0.25000  0.13361  1.0000
  Zr  Zr8       1.0  0.00298  0.99711  0.04232  1.0000
  Al  Al1       1.0  0.00000  0.75000  0.95733  1.0000
  Al  Al2       1.0  0.50000  0.00000  0.87198  1.0000
  Al  Al3       1.0  0.00000  0.25000  0.95733  1.0000
  Al  Al4       1.0  0.50000  0.50000  0.87198  1.0000
  Al  Al5       1.0  0.95971  0.25000  0.12600  1.0000
  Al  Al6       1.0  0.49781  0.49817  0.04594  1.0000
  Al  Al7       1.0  0.00336  0.75000  0.12320  1.0000
  Al  Al8       1.0  0.49781  0.00183  0.04594  1.0000
  Pd  Pd1       1.0  0.25000  0.00000  0.95733  1.0000
  Pd  Pd2       1.0  0.75000  0.50000  0.95733  1.0000
  Pd  Pd3       1.0  0.75000  0.00000  0.95733  1.0000
  Pd  Pd4       1.0  0.25000  0.50000  0.95733  1.0000
  Pd  Pd5       1.0  0.75000  0.75000  0.87198  1.0000
  Pd  Pd6       1.0  0.25000  0.25000  0.87198  1.0000
  Pd  Pd7       1.0  0.25000  0.75000  0.87198  1.0000
  Pd  Pd8       1.0  0.75000  0.25000  0.87198  1.0000
  Pd  Pd9       1.0  0.22802  0.49501  0.12827  1.0000
  Pd  Pd10      1.0  0.75002  0.98777  0.12279  1.0000
  Pd  Pd11      1.0  0.75002  0.51223  0.12279  1.0000
  Pd  Pd12      1.0  0.22802  0.00499  0.12827  1.0000
  Pd  Pd13      1.0  0.74721  0.25000  0.04083  1.0000
  Pd  Pd14      1.0  0.26960  0.75000  0.04141  1.0000
  Pd  Pd15      1.0  0.26476  0.25000  0.04408  1.0000
  Pd  Pd16      1.0  0.73514  0.75000  0.04523  1.0000
  C   C1        1.0  0.22917  0.25000  0.15285  1.0000
