# generated using pymatgen
data_Ca8In8C
_symmetry_space_group_name_H-M   'P 1'
_cell_length_a   7.80577000
_cell_length_b   7.80577000
_cell_length_c   25.85430000
_cell_angle_alpha   90.00000000
_cell_angle_beta   90.00000000
_cell_angle_gamma   90.00000000
_symmetry_Int_Tables_number   1
_chemical_formula_structural   Ca8In8C
_chemical_formula_sum   'Ca8 In8 C1'
_cell_volume   1575.30367002
_cell_formula_units_Z   1
loop_
 _symmetry_equiv_pos_site_id
 _symmetry_equiv_pos_as_xyz
  1  'x, y, z'
loop_
 _atom_site_type_symbol
 _atom_site_label
 _atom_site_symmetry_multiplicity
 _atom_site_fract_x
 _atom_site_fract_y
 _atom_site_fract_z
 _atom_site_occupancy
  Ca  Ca0  1  0.00000000  0.00000000  0.13143000  1.0
  Ca  Ca1  1  0.00000000  0.00008000  0.99320000  1.0
  Ca  Ca2  1  0.50000000  1.00000000  0.13143000  1.0
  Ca  Ca3  1  0.50000000  0.00031000  0.97791000  1.0
  Ca  Ca4  1  0.00000000  0.50000000  0.13143000  1.0
  Ca  Ca5  1  0.00000000  0.49981000  0.97777000  1.0
  Ca  Ca6  1  0.50000000  0.50000000  0.13143000  1.0
  Ca  Ca7  1  0.50000000  0.49997000  0.96281000  1.0
  In  In8  1  0.25000000  0.25000000  0.05595000  1.0
  In  In9  1  0.21148000  0.21151000  0.89445000  1.0
  In  In10  1  0.75000000  0.25000000  0.05595000  1.0
  In  In11  1  0.78852000  0.21151000  0.89445000  1.0
  In  In12  1  0.25000000  0.75000000  0.05595000  1.0
  In  In13  1  0.21152000  0.78850000  0.89446000  1.0
  In  In14  1  0.75000000  0.75000000  0.05595000  1.0
  In  In15  1  0.78848000  0.78850000  0.89446000  1.0
  C  C16  1  0.00000000  0.99997000  0.90034000  1.0
