# generated using pymatgen
data_Ca8In8C
_symmetry_space_group_name_H-M   Pm
_cell_length_a   7.80577000
_cell_length_b   7.80577000
_cell_length_c   25.85430000
_cell_angle_alpha   90.00000000
_cell_angle_beta   90.00000000
_cell_angle_gamma   90.00000000
_symmetry_Int_Tables_number   6
_chemical_formula_structural   Ca8In8C
_chemical_formula_sum   'Ca8 In8 C1'
_cell_volume   1575.30367002
_cell_formula_units_Z   1
loop_
 _symmetry_equiv_pos_site_id
 _symmetry_equiv_pos_as_xyz
  1  'x, y, z'
  2  'x, -y, z'
loop_
 _atom_site_type_symbol
 _atom_site_label
 _atom_site_symmetry_multiplicity
 _atom_site_fract_x
 _atom_site_fract_y
 _atom_site_fract_z
 _atom_site_occupancy
  Ca  Ca0  1  -0.00000000  0.50000000  0.86857000  1.0
  Ca  Ca1  1  0.00000000  0.00000000  0.86857000  1.0
  Ca  Ca2  1  0.00008000  0.00000000  0.00680000  1.0
  Ca  Ca3  1  0.00031000  0.50000000  0.02209000  1.0
  Ca  Ca4  1  0.49981000  0.00000000  0.02223000  1.0
  Ca  Ca5  1  0.49997000  0.50000000  0.03719000  1.0
  Ca  Ca6  1  0.50000000  0.00000000  0.86857000  1.0
  Ca  Ca7  1  0.50000000  0.50000000  0.86857000  1.0
  In  In8  2  0.21151000  0.21148000  0.10555000  1.0
  In  In9  2  0.25000000  0.25000000  0.94405000  1.0
  In  In10  2  0.75000000  0.25000000  0.94405000  1.0
  In  In11  2  0.78850000  0.21152000  0.10554000  1.0
  C  C12  1  0.99997000  0.00000000  0.09966000  1.0
