# generated using pymatgen
data_Li8Hf8Ge8Pd8CO
_symmetry_space_group_name_H-M   'P 1'
_cell_length_a   9.08784000
_cell_length_b   6.42607000
_cell_length_c   26.81590000
_cell_angle_alpha   90.00000000
_cell_angle_beta   90.00000000
_cell_angle_gamma   90.00000000
_symmetry_Int_Tables_number   1
_chemical_formula_structural   Li8Hf8Ge8Pd8CO
_chemical_formula_sum   'Li8 Hf8 Ge8 Pd8 C1 O1'
_cell_volume   1566.02431813
_cell_formula_units_Z   1
loop_
 _symmetry_equiv_pos_site_id
 _symmetry_equiv_pos_as_xyz
  1  'x, y, z'
loop_
 _atom_site_type_symbol
 _atom_site_label
 _atom_site_symmetry_multiplicity
 _atom_site_fract_x
 _atom_site_fract_y
 _atom_site_fract_z
 _atom_site_occupancy
  Li  Li0  1  0.75000000  0.25000000  0.04236000  1.0
  Li  Li1  1  0.25000000  0.25000000  0.04236000  1.0
  Li  Li2  1  0.00000000  0.75000000  0.12709000  1.0
  Li  Li3  1  0.50000000  0.75000000  0.12709000  1.0
  Li  Li4  1  0.24874000  0.21228000  0.85680000  1.0
  Li  Li5  1  0.75126000  0.21228000  0.85680000  1.0
  Li  Li6  1  0.50000000  0.74607000  0.96116000  1.0
  Li  Li7  1  0.00000000  0.73920000  0.96127000  1.0
  Hf  Hf8  1  0.75000000  0.75000000  0.04236000  1.0
  Hf  Hf9  1  0.25000000  0.75000000  0.04236000  1.0
  Hf  Hf10  1  0.00000000  0.25000000  0.12709000  1.0
  Hf  Hf11  1  0.50000000  0.25000000  0.12709000  1.0
  Hf  Hf12  1  0.25350000  0.68304000  0.88208000  1.0
  Hf  Hf13  1  0.74650000  0.68304000  0.88208000  1.0
  Hf  Hf14  1  0.50000000  0.26066000  0.94598000  1.0
  Hf  Hf15  1  0.00000000  0.25467000  0.94763000  1.0
  Ge  Ge16  1  0.75000000  0.00000000  0.12709000  1.0
  Ge  Ge17  1  0.25000000  0.00000000  0.12709000  1.0
  Ge  Ge18  1  0.50000000  0.50000000  0.04236000  1.0
  Ge  Ge19  1  0.00000000  0.50000000  0.04236000  1.0
  Ge  Ge20  1  0.25034000  0.00234000  0.95255000  1.0
  Ge  Ge21  1  0.74966000  0.00234000  0.95255000  1.0
  Ge  Ge22  1  0.00000000  0.48371000  0.85857000  1.0
  Ge  Ge23  1  0.50000000  0.47366000  0.85495000  1.0
  Pd  Pd24  1  0.00000000  0.00000000  0.04236000  1.0
  Pd  Pd25  1  0.50000000  0.00000000  0.04236000  1.0
  Pd  Pd26  1  0.25000000  0.50000000  0.12709000  1.0
  Pd  Pd27  1  0.75000000  0.50000000  0.12709000  1.0
  Pd  Pd28  1  0.50000000  0.93955000  0.87842000  1.0
  Pd  Pd29  1  0.00000000  0.93055000  0.87975000  1.0
  Pd  Pd30  1  0.75030000  0.47247000  0.96691000  1.0
  Pd  Pd31  1  0.24970000  0.47247000  0.96691000  1.0
  C  C32  1  0.00000000  0.36319000  0.72958000  1.0
  O  O33  1  0.00000000  0.51607000  0.70829000  1.0
