data_image0
_chemical_formula_structural       Ag4Pt12CO
_chemical_formula_sum              "Ag4 Pt12 C1 O1"
_cell_length_a       8.08515
_cell_length_b       5.71706
_cell_length_c       24.2878
_cell_angle_alpha    90
_cell_angle_beta     90
_cell_angle_gamma    90

_space_group_name_H-M_alt    "P 1"
_space_group_IT_number       1

loop_
  _space_group_symop_operation_xyz
  'x, y, z'

loop_
  _atom_site_type_symbol
  _atom_site_label
  _atom_site_symmetry_multiplicity
  _atom_site_fract_x
  _atom_site_fract_y
  _atom_site_fract_z
  _atom_site_occupancy
  Ag  Ag1       1.0  0.00000  0.00000  0.91173  1.0000
  Ag  Ag2       1.0  0.99857  0.50542  0.03326  1.0000
  Ag  Ag3       1.0  0.50000  0.00000  0.91173  1.0000
  Ag  Ag4       1.0  0.50142  0.50541  0.03326  1.0000
  Pt  Pt1       1.0  0.00000  0.50000  0.91173  1.0000
  Pt  Pt2       1.0  0.25000  0.75000  0.97058  1.0000
  Pt  Pt3       1.0  0.25000  0.25000  0.97058  1.0000
  Pt  Pt4       1.0  0.99971  0.00216  0.02976  1.0000
  Pt  Pt5       1.0  0.24999  0.25800  0.08671  1.0000
  Pt  Pt6       1.0  0.24998  0.77341  0.08591  1.0000
  Pt  Pt7       1.0  0.50000  0.50000  0.91173  1.0000
  Pt  Pt8       1.0  0.75000  0.75000  0.97058  1.0000
  Pt  Pt9       1.0  0.75000  0.25000  0.97058  1.0000
  Pt  Pt10      1.0  0.50029  0.00214  0.02975  1.0000
  Pt  Pt11      1.0  0.75001  0.24662  0.08572  1.0000
  Pt  Pt12      1.0  0.75000  0.77029  0.08528  1.0000
  C   C1        1.0  0.24998  0.28587  0.16282  1.0000
  O   O1        1.0  0.25001  0.29517  0.21025  1.0000
