# generated using pymatgen
data_Ag4Pt12CO
_symmetry_space_group_name_H-M   'P 1'
_cell_length_a   8.08515000
_cell_length_b   5.71706000
_cell_length_c   24.28780000
_cell_angle_alpha   90.00000000
_cell_angle_beta   90.00000000
_cell_angle_gamma   90.00000000
_symmetry_Int_Tables_number   1
_chemical_formula_structural   Ag4Pt12CO
_chemical_formula_sum   'Ag4 Pt12 C1 O1'
_cell_volume   1122.66196600
_cell_formula_units_Z   1
loop_
 _symmetry_equiv_pos_site_id
 _symmetry_equiv_pos_as_xyz
  1  'x, y, z'
loop_
 _atom_site_type_symbol
 _atom_site_label
 _atom_site_symmetry_multiplicity
 _atom_site_fract_x
 _atom_site_fract_y
 _atom_site_fract_z
 _atom_site_occupancy
  Ag  Ag0  1  0.74998000  0.00000000  0.91173000  1.0
  Ag  Ag1  1  0.75141000  0.49458000  0.03326000  1.0
  Ag  Ag2  1  0.25002000  0.00000000  0.91173000  1.0
  Ag  Ag3  1  0.24859000  0.49458000  0.03326000  1.0
  Pt  Pt4  1  0.74998000  0.50000000  0.91173000  1.0
  Pt  Pt5  1  0.50000000  0.25000000  0.97058000  1.0
  Pt  Pt6  1  0.50000000  0.75000000  0.97058000  1.0
  Pt  Pt7  1  0.75027000  0.99784000  0.02976000  1.0
  Pt  Pt8  1  0.50000000  0.74200000  0.08671000  1.0
  Pt  Pt9  1  0.50000000  0.22659000  0.08591000  1.0
  Pt  Pt10  1  0.25002000  0.50000000  0.91173000  1.0
  Pt  Pt11  1  0.00000000  0.25000000  0.97058000  1.0
  Pt  Pt12  1  0.00000000  0.75000000  0.97058000  1.0
  Pt  Pt13  1  0.24973000  0.99784000  0.02976000  1.0
  Pt  Pt14  1  0.00000000  0.75338000  0.08572000  1.0
  Pt  Pt15  1  0.00000000  0.22971000  0.08528000  1.0
  C  C16  1  0.50000000  0.71413000  0.16282000  1.0
  O  O17  1  0.50000000  0.70483000  0.21025000  1.0
