# generated using pymatgen
data_Li8Mg8In8Ge8CO
_symmetry_space_group_name_H-M   P1
_cell_length_a   8.40992000
_cell_length_b   8.75068000
_cell_length_c   26.31390000
_cell_angle_alpha   90.00000000
_cell_angle_beta   90.00000000
_cell_angle_gamma   90.00000000
_symmetry_Int_Tables_number   1
_chemical_formula_structural   Li8Mg8In8Ge8CO
_chemical_formula_sum   'Li8 Mg8 In8 Ge8 C1 O1'
_cell_volume   1936.50617902
_cell_formula_units_Z   1
loop_
 _symmetry_equiv_pos_site_id
 _symmetry_equiv_pos_as_xyz
  1  'x, y, z'
loop_
 _atom_site_type_symbol
 _atom_site_label
 _atom_site_symmetry_multiplicity
 _atom_site_fract_x
 _atom_site_fract_y
 _atom_site_fract_z
 _atom_site_occupancy
  Li  Li0  1  0.25000000  0.25000000  0.88003000  1.0
  Li  Li1  1  0.25000000  0.75000000  0.88003000  1.0
  Li  Li2  1  0.25105000  0.74974000  0.04197000  1.0
  Li  Li3  1  0.25214000  0.24950000  0.04150000  1.0
  Li  Li4  1  0.74777000  0.24951000  0.04145000  1.0
  Li  Li5  1  0.74900000  0.74984000  0.04189000  1.0
  Li  Li6  1  0.75000000  0.25000000  0.88003000  1.0
  Li  Li7  1  0.75000000  0.75000000  0.88003000  1.0
  Mg  Mg8  1  0.24856000  0.49963000  0.11953000  1.0
  Mg  Mg9  1  0.25000000  0.00000000  0.96001000  1.0
  Mg  Mg10  1  0.25000000  0.50000000  0.96001000  1.0
  Mg  Mg11  1  0.25058000  0.99831000  0.11965000  1.0
  Mg  Mg12  1  0.74943000  0.99897000  0.11962000  1.0
  Mg  Mg13  1  0.75000000  0.00000000  0.96001000  1.0
  Mg  Mg14  1  0.75000000  0.50000000  0.96001000  1.0
  Mg  Mg15  1  0.75150000  0.49903000  0.11959000  1.0
  In  In16  1  0.00000000  0.25000000  0.96001000  1.0
  In  In17  1  0.00000000  0.75000000  0.96001000  1.0
  In  In18  1  0.00014000  0.24788000  0.13115000  1.0
  In  In19  1  0.49976000  0.25003000  0.13576000  1.0
  In  In20  1  0.50000000  0.25000000  0.96001000  1.0
  In  In21  1  0.50000000  0.75000000  0.96001000  1.0
  In  In22  1  0.50029000  0.74832000  0.13614000  1.0
  In  In23  1  0.99969000  0.74997000  0.13363000  1.0
  Ge  Ge24  1  0.00000000  0.00000000  0.88003000  1.0
  Ge  Ge25  1  0.00000000  0.50000000  0.88003000  1.0
  Ge  Ge26  1  0.50000000  0.00000000  0.88003000  1.0
  Ge  Ge27  1  0.50000000  0.50000000  0.88003000  1.0
  Ge  Ge28  1  0.50016000  0.00032000  0.04554000  1.0
  Ge  Ge29  1  0.50017000  0.49934000  0.04580000  1.0
  Ge  Ge30  1  0.99987000  0.99731000  0.04451000  1.0
  Ge  Ge31  1  0.99996000  0.50135000  0.04452000  1.0
  C  C32  1  0.99885000  0.28828000  0.28109000  1.0
  O  O33  1  0.00217000  0.21876000  0.31750000  1.0
