# generated using pymatgen
data_Y8In8Sn8Pd8C
_symmetry_space_group_name_H-M   Pmm2
_cell_length_a   8.73372000
_cell_length_b   9.16402000
_cell_length_c   26.79800000
_cell_angle_alpha   90.00000000
_cell_angle_beta   90.00000000
_cell_angle_gamma   90.00000000
_symmetry_Int_Tables_number   25
_chemical_formula_structural   Y8In8Sn8Pd8C
_chemical_formula_sum   'Y8 In8 Sn8 Pd8 C1'
_cell_volume   2144.80431945
_cell_formula_units_Z   1
loop_
 _symmetry_equiv_pos_site_id
 _symmetry_equiv_pos_as_xyz
  1  'x, y, z'
  2  '-x, -y, z'
  3  '-x, y, z'
  4  'x, -y, z'
loop_
 _atom_site_type_symbol
 _atom_site_label
 _atom_site_symmetry_multiplicity
 _atom_site_fract_x
 _atom_site_fract_y
 _atom_site_fract_z
 _atom_site_occupancy
  Y  Y0  1  0.00000000  0.00000000  0.12684000  1.0
  Y  Y1  1  0.00000000  0.00000000  0.95726000  1.0
  Y  Y2  1  0.00000000  0.50000000  0.12684000  1.0
  Y  Y3  1  0.00000000  0.50000000  0.95761000  1.0
  Y  Y4  1  0.50000000  0.00000000  0.12684000  1.0
  Y  Y5  1  0.50000000  0.00000000  0.95644000  1.0
  Y  Y6  1  0.50000000  0.50000000  0.12684000  1.0
  Y  Y7  1  0.50000000  0.50000000  0.95817000  1.0
  In  In8  2  0.00000000  0.25000000  0.04228000  1.0
  In  In9  2  0.00000000  0.26101000  0.87372000  1.0
  In  In10  2  0.50000000  0.25000000  0.04228000  1.0
  In  In11  2  0.50000000  0.25968000  0.86860000  1.0
  Sn  Sn12  2  0.25000000  0.00000000  0.04228000  1.0
  Sn  Sn13  2  0.25000000  0.50000000  0.04228000  1.0
  Sn  Sn14  2  0.25430000  0.50000000  0.86503000  1.0
  Sn  Sn15  2  0.25794000  0.00000000  0.86649000  1.0
  Pd  Pd16  4  0.25000000  0.25000000  0.12684000  1.0
  Pd  Pd17  4  0.25126000  0.24775000  0.95486000  1.0
  C  C18  1  0.00000000  0.00000000  0.86799000  1.0
