# generated using pymatgen
data_ScAlGaPd
_symmetry_space_group_name_H-M   'P 1'
_cell_length_a   4.56184990
_cell_length_b   4.56184990
_cell_length_c   24.83860000
_cell_angle_alpha   90.00000000
_cell_angle_beta   90.00000000
_cell_angle_gamma   90.00000000
_symmetry_Int_Tables_number   1
_chemical_formula_structural   ScAlGaPd
_chemical_formula_sum   'Sc2 Al2 Ga2 Pd2'
_cell_volume   516.90305247
_cell_formula_units_Z   2
loop_
 _symmetry_equiv_pos_site_id
 _symmetry_equiv_pos_as_xyz
  1  'x, y, z'
loop_
 _atom_site_type_symbol
 _atom_site_label
 _atom_site_symmetry_multiplicity
 _atom_site_fract_x
 _atom_site_fract_y
 _atom_site_fract_z
 _atom_site_occupancy
  Sc  Sc0  1  0.50000000  0.50000000  0.90260000  1.0
  Sc  Sc1  1  0.00000000  0.00000000  0.03247000  1.0
  Al  Al2  1  0.00000000  0.00000000  0.90260000  1.0
  Al  Al3  1  0.50000000  0.50000000  0.03247000  1.0
  Ga  Ga4  1  0.00000000  0.50000000  0.96753000  1.0
  Ga  Ga5  1  0.50000000  0.00000000  0.09740000  1.0
  Pd  Pd6  1  0.50000000  0.00000000  0.96753000  1.0
  Pd  Pd7  1  0.00000000  0.50000000  0.09740000  1.0
