data_image0
_chemical_formula_structural       Hf8In8Au16
_chemical_formula_sum              "Hf8 In8 Au16"
_cell_length_a       6.82626
_cell_length_b       9.65379
_cell_length_c       27.2403
_cell_angle_alpha    90
_cell_angle_beta     90
_cell_angle_gamma    90

_space_group_name_H-M_alt    "P 1"
_space_group_IT_number       1

loop_
  _space_group_symop_operation_xyz
  'x, y, z'

loop_
  _atom_site_type_symbol
  _atom_site_label
  _atom_site_symmetry_multiplicity
  _atom_site_fract_x
  _atom_site_fract_y
  _atom_site_fract_z
  _atom_site_occupancy
  Hf  Hf1       1.0  0.00000  0.00000  0.86710  1.0000
  Hf  Hf2       1.0  0.50000  0.25000  0.95570  1.0000
  Hf  Hf3       1.0  0.50000  0.75000  0.95570  1.0000
  Hf  Hf4       1.0  0.00000  0.50000  0.86710  1.0000
  Hf  Hf5       1.0  0.00000  0.49997  0.04792  1.0000
  Hf  Hf6       1.0  0.50000  0.75000  0.12534  1.0000
  Hf  Hf7       1.0  0.50000  0.25000  0.12532  1.0000
  Hf  Hf8       1.0  0.00000  0.00003  0.04792  1.0000
  In  In1       1.0  0.00000  0.75000  0.95570  1.0000
  In  In2       1.0  0.50000  0.00000  0.86710  1.0000
  In  In3       1.0  0.00000  0.25000  0.95570  1.0000
  In  In4       1.0  0.50000  0.50000  0.86710  1.0000
  In  In5       1.0  1.00000  0.25000  0.14736  1.0000
  In  In6       1.0  0.50000  0.50006  0.04171  1.0000
  In  In7       1.0  1.00000  0.75000  0.14737  1.0000
  In  In8       1.0  0.50001  0.99994  0.04171  1.0000
  Au  Au1       1.0  0.25000  0.00000  0.95570  1.0000
  Au  Au2       1.0  0.75000  0.50000  0.95570  1.0000
  Au  Au3       1.0  0.75000  0.00000  0.95570  1.0000
  Au  Au4       1.0  0.25000  0.50000  0.95570  1.0000
  Au  Au5       1.0  0.75000  0.75000  0.86710  1.0000
  Au  Au6       1.0  0.25000  0.25000  0.86710  1.0000
  Au  Au7       1.0  0.25000  0.75000  0.86710  1.0000
  Au  Au8       1.0  0.75000  0.25000  0.86710  1.0000
  Au  Au9       1.0  0.27070  0.49999  0.13522  1.0000
  Au  Au10      1.0  0.72930  0.00001  0.13522  1.0000
  Au  Au11      1.0  0.72930  0.49999  0.13522  1.0000
  Au  Au12      1.0  0.27070  0.00001  0.13522  1.0000
  Au  Au13      1.0  0.76356  0.25000  0.04565  1.0000
  Au  Au14      1.0  0.23633  0.75000  0.04566  1.0000
  Au  Au15      1.0  0.23645  0.25000  0.04565  1.0000
  Au  Au16      1.0  0.76367  0.75000  0.04566  1.0000
