data_image0
_chemical_formula_structural       Sc8Sn8Pd16CO
_chemical_formula_sum              "Sc8 Sn8 Pd16 C1 O1"
_cell_length_a       6.62889
_cell_length_b       9.37466
_cell_length_c       27.031
_cell_angle_alpha    90
_cell_angle_beta     90
_cell_angle_gamma    90

_space_group_name_H-M_alt    "P 1"
_space_group_IT_number       1

loop_
  _space_group_symop_operation_xyz
  'x, y, z'

loop_
  _atom_site_type_symbol
  _atom_site_label
  _atom_site_symmetry_multiplicity
  _atom_site_fract_x
  _atom_site_fract_y
  _atom_site_fract_z
  _atom_site_occupancy
  Sc  Sc1       1.0  0.00000  0.00000  0.86995  1.0000
  Sc  Sc2       1.0  0.50000  0.25000  0.95665  1.0000
  Sc  Sc3       1.0  0.50000  0.75000  0.95665  1.0000
  Sc  Sc4       1.0  0.00000  0.50000  0.86995  1.0000
  Sc  Sc5       1.0  0.99962  0.50002  0.04395  1.0000
  Sc  Sc6       1.0  0.50323  0.74802  0.12920  1.0000
  Sc  Sc7       1.0  0.50318  0.25189  0.12921  1.0000
  Sc  Sc8       1.0  0.00440  0.00006  0.04566  1.0000
  Sn  Sn1       1.0  0.00000  0.75000  0.95665  1.0000
  Sn  Sn2       1.0  0.50000  0.00000  0.86995  1.0000
  Sn  Sn3       1.0  0.00000  0.25000  0.95665  1.0000
  Sn  Sn4       1.0  0.50000  0.50000  0.86995  1.0000
  Sn  Sn5       1.0  0.99763  0.25244  0.13352  1.0000
  Sn  Sn6       1.0  0.49894  0.50002  0.04279  1.0000
  Sn  Sn7       1.0  0.99764  0.74758  0.13351  1.0000
  Sn  Sn8       1.0  0.49580  0.00001  0.04434  1.0000
  Pd  Pd1       1.0  0.25000  0.00000  0.95665  1.0000
  Pd  Pd2       1.0  0.75000  0.50000  0.95665  1.0000
  Pd  Pd3       1.0  0.75000  0.00000  0.95665  1.0000
  Pd  Pd4       1.0  0.25000  0.50000  0.95665  1.0000
  Pd  Pd5       1.0  0.75000  0.75000  0.86995  1.0000
  Pd  Pd6       1.0  0.25000  0.25000  0.86995  1.0000
  Pd  Pd7       1.0  0.25000  0.75000  0.86995  1.0000
  Pd  Pd8       1.0  0.75000  0.25000  0.86995  1.0000
  Pd  Pd9       1.0  0.25031  0.49999  0.12523  1.0000
  Pd  Pd10      1.0  0.75707  1.00000  0.12434  1.0000
  Pd  Pd11      1.0  0.74783  0.49996  0.12571  1.0000
  Pd  Pd12      1.0  0.25884  0.99997  0.13943  1.0000
  Pd  Pd13      1.0  0.74647  0.24952  0.04430  1.0000
  Pd  Pd14      1.0  0.25315  0.75053  0.04635  1.0000
  Pd  Pd15      1.0  0.25331  0.24953  0.04635  1.0000
  Pd  Pd16      1.0  0.74663  0.75052  0.04430  1.0000
  C   C1        1.0  0.34447  0.99997  0.20848  1.0000
  O   O1        1.0  0.37177  0.99994  0.25069  1.0000
