# generated using pymatgen
data_Sc8Sn8Pd16CO
_symmetry_space_group_name_H-M   'P 1'
_cell_length_a   6.62889000
_cell_length_b   9.37466000
_cell_length_c   27.03100000
_cell_angle_alpha   90.00000000
_cell_angle_beta   90.00000000
_cell_angle_gamma   90.00000000
_symmetry_Int_Tables_number   1
_chemical_formula_structural   Sc8Sn8Pd16CO
_chemical_formula_sum   'Sc8 Sn8 Pd16 C1 O1'
_cell_volume   1679.80337933
_cell_formula_units_Z   1
loop_
 _symmetry_equiv_pos_site_id
 _symmetry_equiv_pos_as_xyz
  1  'x, y, z'
loop_
 _atom_site_type_symbol
 _atom_site_label
 _atom_site_symmetry_multiplicity
 _atom_site_fract_x
 _atom_site_fract_y
 _atom_site_fract_z
 _atom_site_occupancy
  Sc  Sc0  1  0.00000000  0.00000000  0.86995000  1.0
  Sc  Sc1  1  0.50000000  0.25000000  0.95665000  1.0
  Sc  Sc2  1  0.50000000  0.75000000  0.95665000  1.0
  Sc  Sc3  1  0.00000000  0.50000000  0.86995000  1.0
  Sc  Sc4  1  0.99962000  0.50002000  0.04395000  1.0
  Sc  Sc5  1  0.50323000  0.74802000  0.12920000  1.0
  Sc  Sc6  1  0.50318000  0.25189000  0.12921000  1.0
  Sc  Sc7  1  0.00440000  0.00006000  0.04566000  1.0
  Sn  Sn8  1  0.00000000  0.75000000  0.95665000  1.0
  Sn  Sn9  1  0.50000000  0.00000000  0.86995000  1.0
  Sn  Sn10  1  0.00000000  0.25000000  0.95665000  1.0
  Sn  Sn11  1  0.50000000  0.50000000  0.86995000  1.0
  Sn  Sn12  1  0.99763000  0.25244000  0.13352000  1.0
  Sn  Sn13  1  0.49894000  0.50002000  0.04279000  1.0
  Sn  Sn14  1  0.99764000  0.74758000  0.13351000  1.0
  Sn  Sn15  1  0.49580000  0.00001000  0.04434000  1.0
  Pd  Pd16  1  0.25000000  0.00000000  0.95665000  1.0
  Pd  Pd17  1  0.75000000  0.50000000  0.95665000  1.0
  Pd  Pd18  1  0.75000000  0.00000000  0.95665000  1.0
  Pd  Pd19  1  0.25000000  0.50000000  0.95665000  1.0
  Pd  Pd20  1  0.75000000  0.75000000  0.86995000  1.0
  Pd  Pd21  1  0.25000000  0.25000000  0.86995000  1.0
  Pd  Pd22  1  0.25000000  0.75000000  0.86995000  1.0
  Pd  Pd23  1  0.75000000  0.25000000  0.86995000  1.0
  Pd  Pd24  1  0.25031000  0.49999000  0.12523000  1.0
  Pd  Pd25  1  0.75707000  0.00000000  0.12434000  1.0
  Pd  Pd26  1  0.74783000  0.49996000  0.12571000  1.0
  Pd  Pd27  1  0.25884000  0.99997000  0.13943000  1.0
  Pd  Pd28  1  0.74647000  0.24952000  0.04430000  1.0
  Pd  Pd29  1  0.25315000  0.75053000  0.04635000  1.0
  Pd  Pd30  1  0.25331000  0.24953000  0.04635000  1.0
  Pd  Pd31  1  0.74663000  0.75052000  0.04430000  1.0
  C  C32  1  0.34447000  0.99997000  0.20848000  1.0
  O  O33  1  0.37177000  0.99994000  0.25069000  1.0
