# generated using pymatgen
data_LiYInCu
_symmetry_space_group_name_H-M   Cmm2
_cell_length_a   9.45281558
_cell_length_b   9.45281558
_cell_length_c   25.01310000
_cell_angle_alpha   90.00000000
_cell_angle_beta   90.00000000
_cell_angle_gamma   90.00000000
_symmetry_Int_Tables_number   35
_chemical_formula_structural   LiYInCu
_chemical_formula_sum   'Li8 Y8 In8 Cu8'
_cell_volume   2235.06362109
_cell_formula_units_Z   8
loop_
 _symmetry_equiv_pos_site_id
 _symmetry_equiv_pos_as_xyz
  1  'x, y, z'
  2  '-x, -y, z'
  3  '-x, y, z'
  4  'x, -y, z'
  5  'x+1/2, y+1/2, z'
  6  '-x+1/2, -y+1/2, z'
  7  '-x+1/2, y+1/2, z'
  8  'x+1/2, -y+1/2, z'
loop_
 _atom_site_type_symbol
 _atom_site_label
 _atom_site_symmetry_multiplicity
 _atom_site_fract_x
 _atom_site_fract_y
 _atom_site_fract_z
 _atom_site_occupancy
  Li  Li0  4  0.25000000  0.25000000  0.12448000  1.0
  Li  Li1  2  0.00000000  0.00000000  0.96660000  1.0
  Li  Li2  2  0.00000000  0.50000000  0.96660000  1.0
  Y  Y3  4  0.00000000  0.24999000  0.89979000  1.0
  Y  Y4  4  0.24990000  0.50000000  0.03413000  1.0
  In  In5  4  0.00000000  0.25011000  0.03938000  1.0
  In  In6  4  0.25000000  0.00000000  0.89979000  1.0
  Cu  Cu7  4  0.25000000  0.25000000  0.96660000  1.0
  Cu  Cu8  2  0.00000000  0.00000000  0.09684000  1.0
  Cu  Cu9  2  0.00000000  0.50000000  0.09662000  1.0
