# generated using pymatgen
data_LiYSnPb
_symmetry_space_group_name_H-M   Pm
_cell_length_a   6.45119000
_cell_length_b   4.82231000
_cell_length_c   24.83120000
_cell_angle_alpha   90.00000000
_cell_angle_beta   90.00000000
_cell_angle_gamma   90.00000000
_symmetry_Int_Tables_number   6
_chemical_formula_structural   LiYSnPb
_chemical_formula_sum   'Li2 Y2 Sn2 Pb2'
_cell_volume   772.48964432
_cell_formula_units_Z   2
loop_
 _symmetry_equiv_pos_site_id
 _symmetry_equiv_pos_as_xyz
  1  'x, y, z'
  2  'x, -y, z'
loop_
 _atom_site_type_symbol
 _atom_site_label
 _atom_site_symmetry_multiplicity
 _atom_site_fract_x
 _atom_site_fract_y
 _atom_site_fract_z
 _atom_site_occupancy
  Li  Li0  1  0.00000000  0.00000000  0.09728000  1.0
  Li  Li1  1  0.52398000  0.00000000  0.96951000  1.0
  Y  Y2  1  0.26360000  0.50000000  0.03243000  1.0
  Y  Y3  1  0.78888500  0.50000000  0.90493000  1.0
  Sn  Sn4  1  0.29007000  0.50000000  0.89626000  1.0
  Sn  Sn5  1  0.76360000  0.50000000  0.03243000  1.0
  Pb  Pb6  1  0.04602000  0.00000000  0.95780000  1.0
  Pb  Pb7  1  0.50000000  0.00000000  0.09728000  1.0
