# generated using pymatgen
data_Nb8Al8Ru16CO
_symmetry_space_group_name_H-M   'P 1'
_cell_length_a   8.76076000
_cell_length_b   6.19479000
_cell_length_c   26.57060000
_cell_angle_alpha   90.00000000
_cell_angle_beta   90.00000000
_cell_angle_gamma   90.00000000
_symmetry_Int_Tables_number   1
_chemical_formula_structural   Nb8Al8Ru16CO
_chemical_formula_sum   'Nb8 Al8 Ru16 C1 O1'
_cell_volume   1442.01485110
_cell_formula_units_Z   1
loop_
 _symmetry_equiv_pos_site_id
 _symmetry_equiv_pos_as_xyz
  1  'x, y, z'
loop_
 _atom_site_type_symbol
 _atom_site_label
 _atom_site_symmetry_multiplicity
 _atom_site_fract_x
 _atom_site_fract_y
 _atom_site_fract_z
 _atom_site_occupancy
  Nb  Nb0  1  0.00000000  0.00000000  0.12364000  1.0
  Nb  Nb1  1  0.25000000  0.50000000  0.04121000  1.0
  Nb  Nb2  1  0.75000000  0.50000000  0.04121000  1.0
  Nb  Nb3  1  0.50000000  0.00000000  0.12364000  1.0
  Nb  Nb4  1  0.50000000  0.00131000  0.95781000  1.0
  Nb  Nb5  1  0.74423000  0.50162000  0.87605000  1.0
  Nb  Nb6  1  0.25577000  0.50162000  0.87605000  1.0
  Nb  Nb7  1  0.00000000  0.99555000  0.95736000  1.0
  Al  Al8  1  0.75000000  0.00000000  0.04121000  1.0
  Al  Al9  1  0.00000000  0.50000000  0.12364000  1.0
  Al  Al10  1  0.25000000  0.00000000  0.04121000  1.0
  Al  Al11  1  0.50000000  0.50000000  0.12364000  1.0
  Al  Al12  1  0.24812000  0.00316000  0.87327000  1.0
  Al  Al13  1  0.50000000  0.49967000  0.95782000  1.0
  Al  Al14  1  0.75188000  0.00316000  0.87327000  1.0
  Al  Al15  1  0.00000000  0.50142000  0.95787000  1.0
  Ru  Ru16  1  0.00000000  0.25000000  0.04121000  1.0
  Ru  Ru17  1  0.50000000  0.75000000  0.04121000  1.0
  Ru  Ru18  1  0.00000000  0.75000000  0.04121000  1.0
  Ru  Ru19  1  0.50000000  0.25000000  0.04121000  1.0
  Ru  Ru20  1  0.75000000  0.75000000  0.12364000  1.0
  Ru  Ru21  1  0.25000000  0.25000000  0.12364000  1.0
  Ru  Ru22  1  0.75000000  0.25000000  0.12364000  1.0
  Ru  Ru23  1  0.25000000  0.75000000  0.12364000  1.0
  Ru  Ru24  1  0.50000000  0.24456000  0.88090000  1.0
  Ru  Ru25  1  0.00000000  0.75723000  0.88029000  1.0
  Ru  Ru26  1  0.50000000  0.76270000  0.87988000  1.0
  Ru  Ru27  1  0.00000000  0.26005000  0.87387000  1.0
  Ru  Ru28  1  0.25073000  0.74613000  0.95784000  1.0
  Ru  Ru29  1  0.75416000  0.25111000  0.95770000  1.0
  Ru  Ru30  1  0.24584000  0.25111000  0.95770000  1.0
  Ru  Ru31  1  0.74927000  0.74613000  0.95784000  1.0
  C  C32  1  0.00000000  0.25998000  0.80279000  1.0
  O  O33  1  0.00000000  0.25432000  0.75897000  1.0
