# generated using pymatgen
data_Nb8Al8Ru16CO
_symmetry_space_group_name_H-M   Pm
_cell_length_a   6.19479000
_cell_length_b   8.76076000
_cell_length_c   26.57060000
_cell_angle_alpha   90.00000000
_cell_angle_beta   90.00000000
_cell_angle_gamma   90.00000000
_symmetry_Int_Tables_number   6
_chemical_formula_structural   Nb8Al8Ru16CO
_chemical_formula_sum   'Nb8 Al8 Ru16 C1 O1'
_cell_volume   1442.01485110
_cell_formula_units_Z   1
loop_
 _symmetry_equiv_pos_site_id
 _symmetry_equiv_pos_as_xyz
  1  'x, y, z'
  2  'x, -y, z'
loop_
 _atom_site_type_symbol
 _atom_site_label
 _atom_site_symmetry_multiplicity
 _atom_site_fract_x
 _atom_site_fract_y
 _atom_site_fract_z
 _atom_site_occupancy
  Nb  Nb0  2  0.50000000  0.25000000  0.95879000  1.0
  Nb  Nb1  2  0.50162000  0.25577000  0.12395000  1.0
  Nb  Nb2  1  0.00000000  0.00000000  0.87636000  1.0
  Nb  Nb3  1  0.00000000  0.50000000  0.87636000  1.0
  Nb  Nb4  1  0.00131000  0.50000000  0.04219000  1.0
  Nb  Nb5  1  0.99555000  0.00000000  0.04264000  1.0
  Al  Al6  2  0.00000000  0.25000000  0.95879000  1.0
  Al  Al7  2  0.00316000  0.24812000  0.12673000  1.0
  Al  Al8  1  0.49967000  0.50000000  0.04218000  1.0
  Al  Al9  1  0.50000000  0.00000000  0.87636000  1.0
  Al  Al10  1  0.50000000  0.50000000  0.87636000  1.0
  Al  Al11  1  0.50142000  0.00000000  0.04213000  1.0
  Ru  Ru12  2  0.25000000  0.25000000  0.87636000  1.0
  Ru  Ru13  2  0.25111000  0.24584000  0.04230000  1.0
  Ru  Ru14  2  0.74613000  0.25073000  0.04216000  1.0
  Ru  Ru15  2  0.75000000  0.25000000  0.87636000  1.0
  Ru  Ru16  1  0.24456000  0.50000000  0.11910000  1.0
  Ru  Ru17  1  0.25000000  0.00000000  0.95879000  1.0
  Ru  Ru18  1  0.25000000  0.50000000  0.95879000  1.0
  Ru  Ru19  1  0.26005000  0.00000000  0.12613000  1.0
  Ru  Ru20  1  0.75000000  0.00000000  0.95879000  1.0
  Ru  Ru21  1  0.75000000  0.50000000  0.95879000  1.0
  Ru  Ru22  1  0.75723000  0.00000000  0.11971000  1.0
  Ru  Ru23  1  0.76270000  0.50000000  0.12012000  1.0
  C  C24  1  0.25998000  0.00000000  0.19721000  1.0
  O  O25  1  0.25432000  0.00000000  0.24103000  1.0
