# generated using pymatgen
data_Mn16Ni16C
_symmetry_space_group_name_H-M   Pmm2
_cell_length_a   6.69882000
_cell_length_b   7.93691000
_cell_length_c   25.95270000
_cell_angle_alpha   90.00000000
_cell_angle_beta   90.00000000
_cell_angle_gamma   90.00000000
_symmetry_Int_Tables_number   25
_chemical_formula_structural   Mn16Ni16C
_chemical_formula_sum   'Mn16 Ni16 C1'
_cell_volume   1379.85137444
_cell_formula_units_Z   1
loop_
 _symmetry_equiv_pos_site_id
 _symmetry_equiv_pos_as_xyz
  1  'x, y, z'
  2  '-x, -y, z'
  3  '-x, y, z'
  4  'x, -y, z'
loop_
 _atom_site_type_symbol
 _atom_site_label
 _atom_site_symmetry_multiplicity
 _atom_site_fract_x
 _atom_site_fract_y
 _atom_site_fract_z
 _atom_site_occupancy
  Mn  Mn0  2  0.00000000  0.25000000  0.03823000  1.0
  Mn  Mn1  2  0.00000000  0.25000000  0.88532000  1.0
  Mn  Mn2  2  0.50000000  0.25000000  0.03823000  1.0
  Mn  Mn3  2  0.50000000  0.25000000  0.88532000  1.0
  Mn  Mn4  1  0.00000000  0.00000000  0.11468000  1.0
  Mn  Mn5  1  0.00000000  0.00000000  0.96177000  1.0
  Mn  Mn6  1  0.00000000  0.50000000  0.11468000  1.0
  Mn  Mn7  1  0.00000000  0.50000000  0.96177000  1.0
  Mn  Mn8  1  0.50000000  0.00000000  0.11468000  1.0
  Mn  Mn9  1  0.50000000  0.00000000  0.96177000  1.0
  Mn  Mn10  1  0.50000000  0.50000000  0.11468000  1.0
  Mn  Mn11  1  0.50000000  0.50000000  0.96177000  1.0
  Ni  Ni12  4  0.25000000  0.25000000  0.11468000  1.0
  Ni  Ni13  4  0.25000000  0.25000000  0.96177000  1.0
  Ni  Ni14  2  0.25000000  0.00000000  0.03823000  1.0
  Ni  Ni15  2  0.25000000  0.00000000  0.88532000  1.0
  Ni  Ni16  2  0.25000000  0.50000000  0.03823000  1.0
  Ni  Ni17  2  0.25000000  0.50000000  0.88532000  1.0
  C  C18  1  0.00000000  0.00000000  0.85449000  1.0
