data_image0
_chemical_formula_structural       Sc8Sn8Pt16CO
_chemical_formula_sum              "Sc8 Sn8 Pt16 C1 O1"
_cell_length_a       6.65597
_cell_length_b       9.41296
_cell_length_c       27.0597
_cell_angle_alpha    90
_cell_angle_beta     90
_cell_angle_gamma    90

_space_group_name_H-M_alt    "P 1"
_space_group_IT_number       1

loop_
  _space_group_symop_operation_xyz
  'x, y, z'

loop_
  _atom_site_type_symbol
  _atom_site_label
  _atom_site_symmetry_multiplicity
  _atom_site_fract_x
  _atom_site_fract_y
  _atom_site_fract_z
  _atom_site_occupancy
  Sc  Sc1       1.0  0.00000  0.00000  0.86955  1.0000
  Sc  Sc2       1.0  0.50000  0.25000  0.95652  1.0000
  Sc  Sc3       1.0  0.50000  0.75000  0.95652  1.0000
  Sc  Sc4       1.0  0.00000  0.50000  0.86955  1.0000
  Sc  Sc5       1.0  0.00373  0.50000  0.04435  1.0000
  Sc  Sc6       1.0  0.50596  0.74699  0.12760  1.0000
  Sc  Sc7       1.0  0.50596  0.25301  0.12760  1.0000
  Sc  Sc8       1.0  0.99725  0.99999  0.04506  1.0000
  Sn  Sn1       1.0  0.00000  0.75000  0.95652  1.0000
  Sn  Sn2       1.0  0.50000  0.00000  0.86955  1.0000
  Sn  Sn3       1.0  0.00000  0.25000  0.95652  1.0000
  Sn  Sn4       1.0  0.50000  0.50000  0.86955  1.0000
  Sn  Sn5       1.0  0.99079  0.25516  0.13772  1.0000
  Sn  Sn6       1.0  0.49478  0.49999  0.04066  1.0000
  Sn  Sn7       1.0  0.99078  0.74484  0.13772  1.0000
  Sn  Sn8       1.0  0.49220  0.99999  0.04309  1.0000
  Pt  Pt1       1.0  0.25000  0.00000  0.95652  1.0000
  Pt  Pt2       1.0  0.75000  0.50000  0.95652  1.0000
  Pt  Pt3       1.0  0.75000  0.00000  0.95652  1.0000
  Pt  Pt4       1.0  0.25000  0.50000  0.95652  1.0000
  Pt  Pt5       1.0  0.75000  0.75000  0.86955  1.0000
  Pt  Pt6       1.0  0.25000  0.25000  0.86955  1.0000
  Pt  Pt7       1.0  0.25000  0.75000  0.86955  1.0000
  Pt  Pt8       1.0  0.75000  0.25000  0.86955  1.0000
  Pt  Pt9       1.0  0.26139  0.49999  0.12458  1.0000
  Pt  Pt10      1.0  0.74894  1.00000  0.12271  1.0000
  Pt  Pt11      1.0  0.73776  0.50000  0.12352  1.0000
  Pt  Pt12      1.0  0.27658  1.00000  0.13860  1.0000
  Pt  Pt13      1.0  0.75562  0.25498  0.04295  1.0000
  Pt  Pt14      1.0  0.23472  0.76058  0.05075  1.0000
  Pt  Pt15      1.0  0.23471  0.23941  0.05075  1.0000
  Pt  Pt16      1.0  0.75561  0.74501  0.04295  1.0000
  C   C1        1.0  0.28370  0.00001  0.20840  1.0000
  O   O1        1.0  0.28248  0.00001  0.25117  1.0000
