# generated using pymatgen
data_Ti8Ga8Ni16CO
_symmetry_space_group_name_H-M   P1
_cell_length_a   5.91339000
_cell_length_b   8.36280000
_cell_length_c   26.27210000
_cell_angle_alpha   90.00000000
_cell_angle_beta   90.00000000
_cell_angle_gamma   90.00000000
_symmetry_Int_Tables_number   1
_chemical_formula_structural   Ti8Ga8Ni16CO
_chemical_formula_sum   'Ti8 Ga8 Ni16 C1 O1'
_cell_volume   1299.22096987
_cell_formula_units_Z   1
loop_
 _symmetry_equiv_pos_site_id
 _symmetry_equiv_pos_as_xyz
  1  'x, y, z'
loop_
 _atom_site_type_symbol
 _atom_site_label
 _atom_site_symmetry_multiplicity
 _atom_site_fract_x
 _atom_site_fract_y
 _atom_site_fract_z
 _atom_site_occupancy
  Ti  Ti0  1  0.00000000  0.00000000  0.88063000  1.0
  Ti  Ti1  1  0.00000000  0.50000000  0.88063000  1.0
  Ti  Ti2  1  0.00213000  0.99991000  0.04069000  1.0
  Ti  Ti3  1  0.50000000  0.25000000  0.96021000  1.0
  Ti  Ti4  1  0.50000000  0.75000000  0.96021000  1.0
  Ti  Ti5  1  0.50026000  0.25008000  0.12024000  1.0
  Ti  Ti6  1  0.50027000  0.74986000  0.12028000  1.0
  Ti  Ti7  1  0.99883000  0.50015000  0.03934000  1.0
  Ga  Ga8  1  0.00000000  0.25000000  0.96021000  1.0
  Ga  Ga9  1  0.00000000  0.75000000  0.96021000  1.0
  Ga  Ga10  1  0.49365000  0.00003000  0.04139000  1.0
  Ga  Ga11  1  0.50000000  0.00000000  0.88063000  1.0
  Ga  Ga12  1  0.50000000  0.50000000  0.88063000  1.0
  Ga  Ga13  1  0.50034000  0.49982000  0.03872000  1.0
  Ga  Ga14  1  0.99634000  0.25412000  0.11982000  1.0
  Ga  Ga15  1  0.99645000  0.74594000  0.11976000  1.0
  Ni  Ni16  1  0.24055000  0.99993000  0.12651000  1.0
  Ni  Ni17  1  0.25000000  0.00000000  0.96021000  1.0
  Ni  Ni18  1  0.25000000  0.25000000  0.88063000  1.0
  Ni  Ni19  1  0.25000000  0.50000000  0.96021000  1.0
  Ni  Ni20  1  0.25000000  0.75000000  0.88063000  1.0
  Ni  Ni21  1  0.25009000  0.49997000  0.11407000  1.0
  Ni  Ni22  1  0.26028000  0.25036000  0.04157000  1.0
  Ni  Ni23  1  0.26097000  0.74978000  0.04165000  1.0
  Ni  Ni24  1  0.73836000  0.75103000  0.04094000  1.0
  Ni  Ni25  1  0.73894000  0.24915000  0.04086000  1.0
  Ni  Ni26  1  0.74709000  0.49989000  0.11472000  1.0
  Ni  Ni27  1  0.75000000  0.00000000  0.96021000  1.0
  Ni  Ni28  1  0.75000000  0.25000000  0.88063000  1.0
  Ni  Ni29  1  0.75000000  0.50000000  0.96021000  1.0
  Ni  Ni30  1  0.75000000  0.75000000  0.88063000  1.0
  Ni  Ni31  1  0.76115000  0.99986000  0.11363000  1.0
  C  C32  1  0.32966000  0.00008000  0.19065000  1.0
  O  O33  1  0.36641000  0.00000000  0.23412000  1.0
