# generated using pymatgen
data_LiAlAgPd
_symmetry_space_group_name_H-M   Pm
_cell_length_a   6.21941000
_cell_length_b   4.39779000
_cell_length_c   26.59670000
_cell_angle_alpha   90.00000000
_cell_angle_beta   90.00000000
_cell_angle_gamma   90.00000000
_symmetry_Int_Tables_number   6
_chemical_formula_structural   LiAlAgPd
_chemical_formula_sum   'Li4 Al4 Ag4 Pd4'
_cell_volume   727.46387169
_cell_formula_units_Z   4
loop_
 _symmetry_equiv_pos_site_id
 _symmetry_equiv_pos_as_xyz
  1  'x, y, z'
  2  'x, -y, z'
loop_
 _atom_site_type_symbol
 _atom_site_label
 _atom_site_symmetry_multiplicity
 _atom_site_fract_x
 _atom_site_fract_y
 _atom_site_fract_z
 _atom_site_occupancy
  Li  Li0  1  0.25000000  0.50000000  0.12401000  1.0
  Li  Li1  1  0.25322000  0.50000000  0.96058000  1.0
  Li  Li2  1  0.75000000  0.00000000  0.04134000  1.0
  Li  Li3  1  0.75726500  0.00000000  0.86937000  1.0
  Al  Al4  1  0.23814000  0.00000000  0.87786000  1.0
  Al  Al5  1  0.25000000  0.00000000  0.04134000  1.0
  Al  Al6  1  0.74630500  0.50000000  0.95738000  1.0
  Al  Al7  1  0.75000000  0.50000000  0.12401000  1.0
  Ag  Ag8  1  0.00000000  0.00000000  0.12401000  1.0
  Ag  Ag9  1  0.48897000  0.50000000  0.87521500  1.0
  Ag  Ag10  1  0.50000000  0.50000000  0.04134000  1.0
  Ag  Ag11  1  0.99491000  0.00000000  0.96051000  1.0
  Pd  Pd12  1  0.00000000  0.50000000  0.04134000  1.0
  Pd  Pd13  1  0.01381500  0.50000000  0.88270000  1.0
  Pd  Pd14  1  0.50000000  0.00000000  0.12401000  1.0
  Pd  Pd15  1  0.50123000  0.00000000  0.95875000  1.0
