data_image0
_chemical_formula_structural       Ni24Sn8CO
_chemical_formula_sum              "Ni24 Sn8 C1 O1"
_cell_length_a       5.96895
_cell_length_b       8.44136
_cell_length_c       26.331
_cell_angle_alpha    90
_cell_angle_beta     90
_cell_angle_gamma    90

_space_group_name_H-M_alt    "P 1"
_space_group_IT_number       1

loop_
  _space_group_symop_operation_xyz
  'x, y, z'

loop_
  _atom_site_type_symbol
  _atom_site_label
  _atom_site_symmetry_multiplicity
  _atom_site_fract_x
  _atom_site_fract_y
  _atom_site_fract_z
  _atom_site_occupancy
  Ni  Ni1       1.0  0.25000  0.00000  0.95993  1.0000
  Ni  Ni2       1.0  0.75000  0.50000  0.95993  1.0000
  Ni  Ni3       1.0  0.75000  0.00000  0.95993  1.0000
  Ni  Ni4       1.0  0.25000  0.50000  0.95993  1.0000
  Ni  Ni5       1.0  0.75000  0.75000  0.87978  1.0000
  Ni  Ni6       1.0  0.25000  0.25000  0.87978  1.0000
  Ni  Ni7       1.0  0.25000  0.75000  0.87978  1.0000
  Ni  Ni8       1.0  0.75000  0.25000  0.87978  1.0000
  Ni  Ni9       1.0  0.00000  0.75000  0.95993  1.0000
  Ni  Ni10      1.0  0.50000  0.00000  0.87978  1.0000
  Ni  Ni11      1.0  0.00000  0.25000  0.95993  1.0000
  Ni  Ni12      1.0  0.50000  0.50000  0.87978  1.0000
  Ni  Ni13      1.0  0.24613  0.50027  0.11671  1.0000
  Ni  Ni14      1.0  0.75390  0.99973  0.11671  1.0000
  Ni  Ni15      1.0  0.75387  0.50026  0.11671  1.0000
  Ni  Ni16      1.0  0.24610  0.99973  0.11671  1.0000
  Ni  Ni17      1.0  0.74523  0.24999  0.04153  1.0000
  Ni  Ni18      1.0  0.27113  0.75002  0.04368  1.0000
  Ni  Ni19      1.0  0.25477  0.24999  0.04153  1.0000
  Ni  Ni20      1.0  0.72887  0.75002  0.04368  1.0000
  Ni  Ni21      1.0  1.00000  0.24997  0.11620  1.0000
  Ni  Ni22      1.0  0.50000  0.49700  0.03972  1.0000
  Ni  Ni23      1.0  1.00000  0.75004  0.11602  1.0000
  Ni  Ni24      1.0  0.50000  0.00302  0.03973  1.0000
  Sn  Sn1       1.0  0.00000  0.00000  0.87978  1.0000
  Sn  Sn2       1.0  0.50000  0.25000  0.95993  1.0000
  Sn  Sn3       1.0  0.50000  0.75000  0.95993  1.0000
  Sn  Sn4       1.0  0.00000  0.50000  0.87978  1.0000
  Sn  Sn5       1.0  1.00000  0.50487  0.03796  1.0000
  Sn  Sn6       1.0  0.50000  0.75001  0.13131  1.0000
  Sn  Sn7       1.0  0.50000  0.24998  0.12732  1.0000
  Sn  Sn8       1.0  1.00000  0.99513  0.03796  1.0000
  C   C1        1.0  0.50004  0.25007  0.27790  1.0000
  O   O1        1.0  0.49999  0.25000  0.32100  1.0000
