# generated using pymatgen
data_Ni24Sn8CO
_symmetry_space_group_name_H-M   'P 1'
_cell_length_a   8.44136000
_cell_length_b   5.96895000
_cell_length_c   26.33100000
_cell_angle_alpha   90.00000000
_cell_angle_beta   90.00000000
_cell_angle_gamma   90.00000000
_symmetry_Int_Tables_number   1
_chemical_formula_structural   Ni24Sn8CO
_chemical_formula_sum   'Ni24 Sn8 C1 O1'
_cell_volume   1326.71523453
_cell_formula_units_Z   1
loop_
 _symmetry_equiv_pos_site_id
 _symmetry_equiv_pos_as_xyz
  1  'x, y, z'
loop_
 _atom_site_type_symbol
 _atom_site_label
 _atom_site_symmetry_multiplicity
 _atom_site_fract_x
 _atom_site_fract_y
 _atom_site_fract_z
 _atom_site_occupancy
  Ni  Ni0  1  0.00000000  0.25004000  0.04007000  1.0
  Ni  Ni1  1  0.50000000  0.75004000  0.04007000  1.0
  Ni  Ni2  1  0.00000000  0.74996000  0.04007000  1.0
  Ni  Ni3  1  0.50000000  0.24996000  0.04007000  1.0
  Ni  Ni4  1  0.75000000  0.75004000  0.12022000  1.0
  Ni  Ni5  1  0.25000000  0.25004000  0.12022000  1.0
  Ni  Ni6  1  0.75000000  0.24996000  0.12022000  1.0
  Ni  Ni7  1  0.25000000  0.74996000  0.12022000  1.0
  Ni  Ni8  1  0.75000000  0.50000000  0.04007000  1.0
  Ni  Ni9  1  0.00000000  0.00000000  0.12022000  1.0
  Ni  Ni10  1  0.25000000  0.50000000  0.04007000  1.0
  Ni  Ni11  1  0.50000000  0.00000000  0.12022000  1.0
  Ni  Ni12  1  0.50027000  0.25391000  0.88329000  1.0
  Ni  Ni13  1  0.99973000  0.74614000  0.88329000  1.0
  Ni  Ni14  1  0.50027000  0.74609000  0.88329000  1.0
  Ni  Ni15  1  0.99973000  0.25386000  0.88329000  1.0
  Ni  Ni16  1  0.24999000  0.75481000  0.95847000  1.0
  Ni  Ni17  1  0.75002000  0.22891000  0.95632000  1.0
  Ni  Ni18  1  0.24999000  0.24519000  0.95847000  1.0
  Ni  Ni19  1  0.75002000  0.77109000  0.95632000  1.0
  Ni  Ni20  1  0.24997000  0.50000000  0.88380000  1.0
  Ni  Ni21  1  0.49700000  0.00000000  0.96028000  1.0
  Ni  Ni22  1  0.75004000  0.50000000  0.88398000  1.0
  Ni  Ni23  1  0.00302000  0.00000000  0.96027000  1.0
  Sn  Sn24  1  0.00000000  0.50000000  0.12022000  1.0
  Sn  Sn25  1  0.25000000  0.00000000  0.04007000  1.0
  Sn  Sn26  1  0.75000000  0.00000000  0.04007000  1.0
  Sn  Sn27  1  0.50000000  0.50000000  0.12022000  1.0
  Sn  Sn28  1  0.50487000  0.50000000  0.96204000  1.0
  Sn  Sn29  1  0.75001000  0.00000000  0.86869000  1.0
  Sn  Sn30  1  0.24998000  0.00000000  0.87268000  1.0
  Sn  Sn31  1  0.99513000  0.50000000  0.96204000  1.0
  C  C32  1  0.25007000  0.00000000  0.72210000  1.0
  O  O33  1  0.25000000  0.00000000  0.67900000  1.0
