# generated using pymatgen
data_Ni24Sn8CO
_symmetry_space_group_name_H-M   Pm
_cell_length_a   8.44136000
_cell_length_b   5.96895000
_cell_length_c   26.33100000
_cell_angle_alpha   90.00000000
_cell_angle_beta   90.00000000
_cell_angle_gamma   90.00000000
_symmetry_Int_Tables_number   6
_chemical_formula_structural   Ni24Sn8CO
_chemical_formula_sum   'Ni24 Sn8 C1 O1'
_cell_volume   1326.71523453
_cell_formula_units_Z   1
loop_
 _symmetry_equiv_pos_site_id
 _symmetry_equiv_pos_as_xyz
  1  'x, y, z'
  2  'x, -y, z'
loop_
 _atom_site_type_symbol
 _atom_site_label
 _atom_site_symmetry_multiplicity
 _atom_site_fract_x
 _atom_site_fract_y
 _atom_site_fract_z
 _atom_site_occupancy
  Ni  Ni0  2  0.00000000  0.25004000  0.95993000  1.0
  Ni  Ni1  2  0.24999000  0.24519000  0.04153000  1.0
  Ni  Ni2  2  0.25000000  0.25004000  0.87978000  1.0
  Ni  Ni3  2  0.50000000  0.24996000  0.95993000  1.0
  Ni  Ni4  2  0.50027000  0.25391000  0.11671000  1.0
  Ni  Ni5  2  0.75000000  0.24996000  0.87978000  1.0
  Ni  Ni6  2  0.75002000  0.22891000  0.04368000  1.0
  Ni  Ni7  2  0.99973000  0.25386000  0.11671000  1.0
  Ni  Ni8  1  0.00000000  0.00000000  0.87978000  1.0
  Ni  Ni9  1  0.00302000  0.00000000  0.03973000  1.0
  Ni  Ni10  1  0.24997000  0.50000000  0.11620000  1.0
  Ni  Ni11  1  0.25000000  0.50000000  0.95993000  1.0
  Ni  Ni12  1  0.49700000  0.00000000  0.03972000  1.0
  Ni  Ni13  1  0.50000000  0.00000000  0.87978000  1.0
  Ni  Ni14  1  0.75000000  0.50000000  0.95993000  1.0
  Ni  Ni15  1  0.75004000  0.50000000  0.11602000  1.0
  Sn  Sn16  1  0.00000000  0.50000000  0.87978000  1.0
  Sn  Sn17  1  0.24998000  0.00000000  0.12732000  1.0
  Sn  Sn18  1  0.25000000  0.00000000  0.95993000  1.0
  Sn  Sn19  1  0.50000000  0.50000000  0.87978000  1.0
  Sn  Sn20  1  0.50487000  0.50000000  0.03796000  1.0
  Sn  Sn21  1  0.75000000  0.00000000  0.95993000  1.0
  Sn  Sn22  1  0.75001000  0.00000000  0.13131000  1.0
  Sn  Sn23  1  0.99513000  0.50000000  0.03796000  1.0
  C  C24  1  0.25007000  0.00000000  0.27790000  1.0
  O  O25  1  0.25000000  0.00000000  0.32100000  1.0
