data_image0
_chemical_formula_structural       Mn8Al8Co16CO
_chemical_formula_sum              "Mn8 Al8 Co16 C1 O1"
_cell_length_a       5.71239
_cell_length_b       8.07854
_cell_length_c       26.0589
_cell_angle_alpha    90
_cell_angle_beta     90
_cell_angle_gamma    90

_space_group_name_H-M_alt    "P 1"
_space_group_IT_number       1

loop_
  _space_group_symop_operation_xyz
  'x, y, z'

loop_
  _atom_site_type_symbol
  _atom_site_label
  _atom_site_symmetry_multiplicity
  _atom_site_fract_x
  _atom_site_fract_y
  _atom_site_fract_z
  _atom_site_occupancy
  Mn  Mn1       1.0  0.00000  0.00000  0.88375  1.0000
  Mn  Mn2       1.0  0.50000  0.25000  0.96125  1.0000
  Mn  Mn3       1.0  0.50000  0.75000  0.96125  1.0000
  Mn  Mn4       1.0  0.00000  0.50000  0.88375  1.0000
  Mn  Mn5       1.0  0.00000  0.50053  0.03968  1.0000
  Mn  Mn6       1.0  0.50000  0.75002  0.11656  1.0000
  Mn  Mn7       1.0  0.50000  0.24999  0.11718  1.0000
  Mn  Mn8       1.0  1.00000  0.99948  0.03968  1.0000
  Al  Al1       1.0  0.00000  0.75000  0.96125  1.0000
  Al  Al2       1.0  0.50000  0.00000  0.88375  1.0000
  Al  Al3       1.0  0.00000  0.25000  0.96125  1.0000
  Al  Al4       1.0  0.50000  0.50000  0.88375  1.0000
  Al  Al5       1.0  1.00000  0.25003  0.11444  1.0000
  Al  Al6       1.0  0.50000  0.50010  0.03906  1.0000
  Al  Al7       1.0  0.00000  0.74998  0.11636  1.0000
  Al  Al8       1.0  0.50000  0.99991  0.03906  1.0000
  Co  Co1       1.0  0.25000  0.00000  0.96125  1.0000
  Co  Co2       1.0  0.75000  0.50000  0.96125  1.0000
  Co  Co3       1.0  0.75000  0.00000  0.96125  1.0000
  Co  Co4       1.0  0.25000  0.50000  0.96125  1.0000
  Co  Co5       1.0  0.75000  0.75000  0.88375  1.0000
  Co  Co6       1.0  0.25000  0.25000  0.88375  1.0000
  Co  Co7       1.0  0.25000  0.75000  0.88375  1.0000
  Co  Co8       1.0  0.75000  0.25000  0.88375  1.0000
  Co  Co9       1.0  0.24618  0.50166  0.11646  1.0000
  Co  Co10      1.0  0.75387  0.99834  0.11647  1.0000
  Co  Co11      1.0  0.75382  0.50166  0.11646  1.0000
  Co  Co12      1.0  0.24612  0.99834  0.11647  1.0000
  Co  Co13      1.0  0.74906  0.24996  0.03887  1.0000
  Co  Co14      1.0  0.25057  0.75005  0.03850  1.0000
  Co  Co15      1.0  0.25093  0.24996  0.03887  1.0000
  Co  Co16      1.0  0.74943  0.75005  0.03850  1.0000
  C   C1        1.0  0.00000  0.25000  0.19082  1.0000
  O   O1        1.0  1.00000  0.24999  0.23518  1.0000
