# generated using pymatgen
data_Mn8Al8Co16CO
_symmetry_space_group_name_H-M   'P 1'
_cell_length_a   5.71239000
_cell_length_b   8.07854000
_cell_length_c   26.05890000
_cell_angle_alpha   90.00000000
_cell_angle_beta   90.00000000
_cell_angle_gamma   90.00000000
_symmetry_Int_Tables_number   1
_chemical_formula_structural   Mn8Al8Co16CO
_chemical_formula_sum   'Mn8 Al8 Co16 C1 O1'
_cell_volume   1202.56015259
_cell_formula_units_Z   1
loop_
 _symmetry_equiv_pos_site_id
 _symmetry_equiv_pos_as_xyz
  1  'x, y, z'
loop_
 _atom_site_type_symbol
 _atom_site_label
 _atom_site_symmetry_multiplicity
 _atom_site_fract_x
 _atom_site_fract_y
 _atom_site_fract_z
 _atom_site_occupancy
  Mn  Mn0  1  0.00000000  0.75000000  0.88375000  1.0
  Mn  Mn1  1  0.50000000  0.00000000  0.96125000  1.0
  Mn  Mn2  1  0.50000000  0.50000000  0.96125000  1.0
  Mn  Mn3  1  0.00000000  0.25000000  0.88375000  1.0
  Mn  Mn4  1  0.00000000  0.25053000  0.03968000  1.0
  Mn  Mn5  1  0.50000000  0.50000000  0.11656000  1.0
  Mn  Mn6  1  0.50000000  0.00000000  0.11718000  1.0
  Mn  Mn7  1  0.00000000  0.74947000  0.03968000  1.0
  Al  Al8  1  0.00000000  0.50000000  0.96125000  1.0
  Al  Al9  1  0.50000000  0.75000000  0.88375000  1.0
  Al  Al10  1  0.00000000  0.00000000  0.96125000  1.0
  Al  Al11  1  0.50000000  0.25000000  0.88375000  1.0
  Al  Al12  1  0.00000000  0.00000000  0.11444000  1.0
  Al  Al13  1  0.50000000  0.25010000  0.03906000  1.0
  Al  Al14  1  0.00000000  0.50000000  0.11636000  1.0
  Al  Al15  1  0.50000000  0.74990000  0.03906000  1.0
  Co  Co16  1  0.25000000  0.75000000  0.96125000  1.0
  Co  Co17  1  0.75000000  0.25000000  0.96125000  1.0
  Co  Co18  1  0.75000000  0.75000000  0.96125000  1.0
  Co  Co19  1  0.25000000  0.25000000  0.96125000  1.0
  Co  Co20  1  0.75000000  0.50000000  0.88375000  1.0
  Co  Co21  1  0.25000000  0.00000000  0.88375000  1.0
  Co  Co22  1  0.25000000  0.50000000  0.88375000  1.0
  Co  Co23  1  0.75000000  0.00000000  0.88375000  1.0
  Co  Co24  1  0.24618000  0.25166000  0.11646000  1.0
  Co  Co25  1  0.75382000  0.74834000  0.11646000  1.0
  Co  Co26  1  0.75382000  0.25166000  0.11646000  1.0
  Co  Co27  1  0.24618000  0.74834000  0.11646000  1.0
  Co  Co28  1  0.74906000  0.00000000  0.03887000  1.0
  Co  Co29  1  0.25057000  0.50000000  0.03850000  1.0
  Co  Co30  1  0.25094000  0.00000000  0.03887000  1.0
  Co  Co31  1  0.74943000  0.50000000  0.03850000  1.0
  C  C32  1  0.00000000  0.00000000  0.19082000  1.0
  O  O33  1  0.00000000  0.00000000  0.23518000  1.0
