# generated using pymatgen
data_Mn8Al8Co16CO
_symmetry_space_group_name_H-M   Pmm2
_cell_length_a   5.71239000
_cell_length_b   8.07854000
_cell_length_c   26.05890000
_cell_angle_alpha   90.00000000
_cell_angle_beta   90.00000000
_cell_angle_gamma   90.00000000
_symmetry_Int_Tables_number   25
_chemical_formula_structural   Mn8Al8Co16CO
_chemical_formula_sum   'Mn8 Al8 Co16 C1 O1'
_cell_volume   1202.56015259
_cell_formula_units_Z   1
loop_
 _symmetry_equiv_pos_site_id
 _symmetry_equiv_pos_as_xyz
  1  'x, y, z'
  2  '-x, -y, z'
  3  '-x, y, z'
  4  'x, -y, z'
loop_
 _atom_site_type_symbol
 _atom_site_label
 _atom_site_symmetry_multiplicity
 _atom_site_fract_x
 _atom_site_fract_y
 _atom_site_fract_z
 _atom_site_occupancy
  Mn  Mn0  2  0.00000000  0.25000000  0.88375000  1.0
  Mn  Mn1  2  0.00000000  0.25053000  0.03968000  1.0
  Mn  Mn2  1  0.50000000  0.00000000  0.11718000  1.0
  Mn  Mn3  1  0.50000000  0.00000000  0.96125000  1.0
  Mn  Mn4  1  0.50000000  0.50000000  0.11656000  1.0
  Mn  Mn5  1  0.50000000  0.50000000  0.96125000  1.0
  Al  Al6  2  0.50000000  0.25000000  0.88375000  1.0
  Al  Al7  2  0.50000000  0.25010000  0.03906000  1.0
  Al  Al8  1  0.00000000  0.00000000  0.11444000  1.0
  Al  Al9  1  0.00000000  0.00000000  0.96125000  1.0
  Al  Al10  1  0.00000000  0.50000000  0.11636000  1.0
  Al  Al11  1  0.00000000  0.50000000  0.96125000  1.0
  Co  Co12  4  0.24618000  0.25166000  0.11646000  1.0
  Co  Co13  4  0.25000000  0.25000000  0.96125000  1.0
  Co  Co14  2  0.25000000  0.00000000  0.88375000  1.0
  Co  Co15  2  0.25000000  0.50000000  0.88375000  1.0
  Co  Co16  2  0.25057000  0.50000000  0.03850000  1.0
  Co  Co17  2  0.25094000  0.00000000  0.03887000  1.0
  C  C18  1  0.00000000  0.00000000  0.19082000  1.0
  O  O19  1  0.00000000  0.00000000  0.23518000  1.0
