data_image0
_chemical_formula_structural       V4Pt12C
_chemical_formula_sum              "V4 Pt12 C1"
_cell_length_a       7.87849
_cell_length_b       5.57094
_cell_length_c       24.1782
_cell_angle_alpha    90
_cell_angle_beta     90
_cell_angle_gamma    90

_space_group_name_H-M_alt    "P 1"
_space_group_IT_number       1

loop_
  _space_group_symop_operation_xyz
  'x, y, z'

loop_
  _atom_site_type_symbol
  _atom_site_label
  _atom_site_symmetry_multiplicity
  _atom_site_fract_x
  _atom_site_fract_y
  _atom_site_fract_z
  _atom_site_occupancy
  V   V1        1.0  0.00505  0.99680  0.07853  1.0000
  V   V2        1.0  0.00000  0.50000  0.97120  1.0000
  V   V3        1.0  0.49496  0.99683  0.07851  1.0000
  V   V4        1.0  0.50000  0.50000  0.97120  1.0000
  Pt  Pt1       1.0  0.99808  0.49736  0.08022  1.0000
  Pt  Pt2       1.0  0.24998  0.74524  0.03169  1.0000
  Pt  Pt3       1.0  0.24997  0.24780  0.03110  1.0000
  Pt  Pt4       1.0  0.00000  0.00000  0.97120  1.0000
  Pt  Pt5       1.0  0.25000  0.25000  0.91360  1.0000
  Pt  Pt6       1.0  0.25000  0.75000  0.91360  1.0000
  Pt  Pt7       1.0  0.50191  0.49734  0.08021  1.0000
  Pt  Pt8       1.0  0.75001  0.75694  0.03635  1.0000
  Pt  Pt9       1.0  0.75002  0.23767  0.03613  1.0000
  Pt  Pt10      1.0  0.50000  0.00000  0.97120  1.0000
  Pt  Pt11      1.0  0.75000  0.25000  0.91360  1.0000
  Pt  Pt12      1.0  0.75000  0.75000  0.91360  1.0000
  C   C1        1.0  0.25001  0.99748  0.09766  1.0000
