# generated using pymatgen
data_V4Pt12C
_symmetry_space_group_name_H-M   Pm
_cell_length_a   5.57094000
_cell_length_b   7.87849000
_cell_length_c   24.17820000
_cell_angle_alpha   90.00000000
_cell_angle_beta   90.00000000
_cell_angle_gamma   90.00000000
_symmetry_Int_Tables_number   6
_chemical_formula_structural   V4Pt12C
_chemical_formula_sum   'V4 Pt12 C1'
_cell_volume   1061.19558598
_cell_formula_units_Z   1
loop_
 _symmetry_equiv_pos_site_id
 _symmetry_equiv_pos_as_xyz
  1  'x, y, z'
  2  'x, -y, z'
loop_
 _atom_site_type_symbol
 _atom_site_label
 _atom_site_symmetry_multiplicity
 _atom_site_fract_x
 _atom_site_fract_y
 _atom_site_fract_z
 _atom_site_occupancy
  V  V0  2  0.00320000  0.25504000  0.92147000  1.0
  V  V1  2  0.50000000  0.24999000  0.02880000  1.0
  Pt  Pt2  2  0.00000000  0.24999000  0.02880000  1.0
  Pt  Pt3  2  0.50264000  0.24807000  0.91978000  1.0
  Pt  Pt4  1  0.24306000  0.00000000  0.96365000  1.0
  Pt  Pt5  1  0.25000000  0.00000000  0.08640000  1.0
  Pt  Pt6  1  0.25000000  0.50000000  0.08640000  1.0
  Pt  Pt7  1  0.25476000  0.50000000  0.96831000  1.0
  Pt  Pt8  1  0.75000000  0.00000000  0.08640000  1.0
  Pt  Pt9  1  0.75000000  0.50000000  0.08640000  1.0
  Pt  Pt10  1  0.75220000  0.50000000  0.96890000  1.0
  Pt  Pt11  1  0.76233000  0.00000000  0.96387000  1.0
  C  C12  1  0.00252000  0.50000000  0.90234000  1.0
