# generated using pymatgen
data_Li16Ag8Pb8C
_symmetry_space_group_name_H-M   'P 1'
_cell_length_a   9.68063000
_cell_length_b   6.84524000
_cell_length_c   27.26050000
_cell_angle_alpha   90.00000000
_cell_angle_beta   90.00000000
_cell_angle_gamma   90.00000000
_symmetry_Int_Tables_number   1
_chemical_formula_structural   Li16Ag8Pb8C
_chemical_formula_sum   'Li16 Ag8 Pb8 C1'
_cell_volume   1806.45071833
_cell_formula_units_Z   1
loop_
 _symmetry_equiv_pos_site_id
 _symmetry_equiv_pos_as_xyz
  1  'x, y, z'
loop_
 _atom_site_type_symbol
 _atom_site_label
 _atom_site_symmetry_multiplicity
 _atom_site_fract_x
 _atom_site_fract_y
 _atom_site_fract_z
 _atom_site_occupancy
  Li  Li0  1  0.50000000  1.00000000  0.04439000  1.0
  Li  Li1  1  0.75001000  0.50000000  0.13317000  1.0
  Li  Li2  1  0.00000000  1.00000000  0.04439000  1.0
  Li  Li3  1  0.24999000  0.50000000  0.13317000  1.0
  Li  Li4  1  0.00000000  0.25000000  0.13317000  1.0
  Li  Li5  1  0.50000000  0.25000000  0.13317000  1.0
  Li  Li6  1  0.25001000  0.75000000  0.04439000  1.0
  Li  Li7  1  0.74999000  0.75000000  0.04439000  1.0
  Li  Li8  1  0.00000000  0.01052000  0.86910000  1.0
  Li  Li9  1  0.25707000  0.51057000  0.96153000  1.0
  Li  Li10  1  0.50000000  0.00051000  0.86974000  1.0
  Li  Li11  1  0.74293000  0.51057000  0.96153000  1.0
  Li  Li12  1  0.50000000  0.27754000  0.94914000  1.0
  Li  Li13  1  0.00000000  0.27635000  0.95262000  1.0
  Li  Li14  1  0.78231000  0.72119000  0.86656000  1.0
  Li  Li15  1  0.21769000  0.72119000  0.86656000  1.0
  Ag  Ag16  1  0.75001000  0.25000000  0.04439000  1.0
  Ag  Ag17  1  0.24999000  0.25000000  0.04439000  1.0
  Ag  Ag18  1  0.50000000  0.75000000  0.13317000  1.0
  Ag  Ag19  1  0.00000000  0.75000000  0.13317000  1.0
  Ag  Ag20  1  0.27859000  0.28501000  0.87736000  1.0
  Ag  Ag21  1  0.72141000  0.28501000  0.87736000  1.0
  Ag  Ag22  1  0.00000000  0.71299000  0.94871000  1.0
  Ag  Ag23  1  0.50000000  0.73768000  0.94971000  1.0
  Pb  Pb24  1  0.75001000  0.00000000  0.13317000  1.0
  Pb  Pb25  1  0.00000000  0.50000000  0.04439000  1.0
  Pb  Pb26  1  0.50000000  0.50000000  0.04439000  1.0
  Pb  Pb27  1  0.24999000  0.00000000  0.13317000  1.0
  Pb  Pb28  1  0.24327000  0.99773000  0.95577000  1.0
  Pb  Pb29  1  0.50000000  0.55114000  0.84854000  1.0
  Pb  Pb30  1  0.00000000  0.41959000  0.83718000  1.0
  Pb  Pb31  1  0.75673000  0.99773000  0.95577000  1.0
  C  C32  1  0.00000000  0.71712000  0.86593000  1.0
