# generated using pymatgen
data_Li16Ag8Pb8C
_symmetry_space_group_name_H-M   Pm
_cell_length_a   6.84524000
_cell_length_b   9.68063000
_cell_length_c   27.26050000
_cell_angle_alpha   90.00000000
_cell_angle_beta   90.00000000
_cell_angle_gamma   90.00000000
_symmetry_Int_Tables_number   6
_chemical_formula_structural   Li16Ag8Pb8C
_chemical_formula_sum   'Li16 Ag8 Pb8 C1'
_cell_volume   1806.45071833
_cell_formula_units_Z   1
loop_
 _symmetry_equiv_pos_site_id
 _symmetry_equiv_pos_as_xyz
  1  'x, y, z'
  2  'x, -y, z'
loop_
 _atom_site_type_symbol
 _atom_site_label
 _atom_site_symmetry_multiplicity
 _atom_site_fract_x
 _atom_site_fract_y
 _atom_site_fract_z
 _atom_site_occupancy
  Li  Li0  2  0.50000000  0.24999000  0.86683000  1.0
  Li  Li1  2  0.51057000  0.25707000  0.03847000  1.0
  Li  Li2  2  0.72119000  0.21769000  0.13344000  1.0
  Li  Li3  2  0.75000000  0.25001000  0.95561000  1.0
  Li  Li4  1  -0.00000000  0.50000000  0.95561000  1.0
  Li  Li5  1  -0.00000000  0.00000000  0.95561000  1.0
  Li  Li6  1  0.00051000  0.50000000  0.13026000  1.0
  Li  Li7  1  0.01052000  0.00000000  0.13090000  1.0
  Li  Li8  1  0.25000000  0.00000000  0.86683000  1.0
  Li  Li9  1  0.25000000  0.50000000  0.86683000  1.0
  Li  Li10  1  0.27635000  0.00000000  0.04738000  1.0
  Li  Li11  1  0.27754000  0.50000000  0.05086000  1.0
  Ag  Ag12  2  0.25000000  0.24999000  0.95561000  1.0
  Ag  Ag13  2  0.28501000  0.27859000  0.12264000  1.0
  Ag  Ag14  1  0.71299000  0.00000000  0.05129000  1.0
  Ag  Ag15  1  0.73768000  0.50000000  0.05029000  1.0
  Ag  Ag16  1  0.75000000  0.00000000  0.86683000  1.0
  Ag  Ag17  1  0.75000000  0.50000000  0.86683000  1.0
  Pb  Pb18  2  0.00000000  0.24999000  0.86683000  1.0
  Pb  Pb19  2  0.99773000  0.24327000  0.04423000  1.0
  Pb  Pb20  1  0.41959000  0.00000000  0.16282000  1.0
  Pb  Pb21  1  0.50000000  0.00000000  0.95561000  1.0
  Pb  Pb22  1  0.50000000  0.50000000  0.95561000  1.0
  Pb  Pb23  1  0.55114000  0.50000000  0.15146000  1.0
  C  C24  1  0.71712000  0.00000000  0.13407000  1.0
