# generated using pymatgen
data_Li8Y8In8Ge8CO
_symmetry_space_group_name_H-M   'P 1'
_cell_length_a   8.49364000
_cell_length_b   9.31878000
_cell_length_c   26.43230000
_cell_angle_alpha   90.00000000
_cell_angle_beta   90.00000000
_cell_angle_gamma   90.00000000
_symmetry_Int_Tables_number   1
_chemical_formula_structural   Li8Y8In8Ge8CO
_chemical_formula_sum   'Li8 Y8 In8 Ge8 C1 O1'
_cell_volume   2092.12612827
_cell_formula_units_Z   1
loop_
 _symmetry_equiv_pos_site_id
 _symmetry_equiv_pos_as_xyz
  1  'x, y, z'
loop_
 _atom_site_type_symbol
 _atom_site_label
 _atom_site_symmetry_multiplicity
 _atom_site_fract_x
 _atom_site_fract_y
 _atom_site_fract_z
 _atom_site_occupancy
  Li  Li0  1  0.75000000  0.00000000  0.95944000  1.0
  Li  Li1  1  0.75000000  0.00000000  0.12168000  1.0
  Li  Li2  1  0.25000000  0.00000000  0.95944000  1.0
  Li  Li3  1  0.25000000  0.00000000  0.12168000  1.0
  Li  Li4  1  0.75000000  0.50000000  0.95944000  1.0
  Li  Li5  1  0.75000000  0.50000000  0.12168000  1.0
  Li  Li6  1  0.25000000  0.50000000  0.95944000  1.0
  Li  Li7  1  0.25000000  0.50000000  0.12168000  1.0
  Y  Y8  1  0.00000000  0.75000000  0.95944000  1.0
  Y  Y9  1  0.00000000  0.75000000  0.12168000  1.0
  Y  Y10  1  0.50000000  0.75000000  0.95944000  1.0
  Y  Y11  1  0.50000000  0.75000000  0.12168000  1.0
  Y  Y12  1  0.00000000  0.25000000  0.95944000  1.0
  Y  Y13  1  0.00000000  0.25000000  0.12168000  1.0
  Y  Y14  1  0.50000000  0.25000000  0.95944000  1.0
  Y  Y15  1  0.50000000  0.25000000  0.12168000  1.0
  In  In16  1  0.00000000  0.00000000  0.87832000  1.0
  In  In17  1  0.00000000  0.00000000  0.04056000  1.0
  In  In18  1  0.50000000  0.00000000  0.87832000  1.0
  In  In19  1  0.50000000  0.00000000  0.04056000  1.0
  In  In20  1  0.00000000  0.50000000  0.87832000  1.0
  In  In21  1  0.00000000  0.50000000  0.04056000  1.0
  In  In22  1  0.50000000  0.50000000  0.87832000  1.0
  In  In23  1  0.50000000  0.50000000  0.04056000  1.0
  Ge  Ge24  1  0.75000000  0.75000000  0.87832000  1.0
  Ge  Ge25  1  0.75000000  0.75000000  0.04056000  1.0
  Ge  Ge26  1  0.25000000  0.75000000  0.87832000  1.0
  Ge  Ge27  1  0.25000000  0.75000000  0.04056000  1.0
  Ge  Ge28  1  0.75000000  0.25000000  0.87832000  1.0
  Ge  Ge29  1  0.75000000  0.25000000  0.04056000  1.0
  Ge  Ge30  1  0.25000000  0.25000000  0.87832000  1.0
  Ge  Ge31  1  0.25000000  0.25000000  0.04056000  1.0
  C  C32  1  0.00000000  0.00000000  0.80644000  1.0
  O  O33  1  0.00000000  0.00000000  0.76294000  1.0
