# generated using pymatgen
data_Li8Ni8Ge8Pd8C
_symmetry_space_group_name_H-M   'P 1'
_cell_length_a   8.39836000
_cell_length_b   5.93854000
_cell_length_c   26.29880000
_cell_angle_alpha   90.00000000
_cell_angle_beta   90.00000000
_cell_angle_gamma   90.00000000
_symmetry_Int_Tables_number   1
_chemical_formula_structural   Li8Ni8Ge8Pd8C
_chemical_formula_sum   'Li8 Ni8 Ge8 Pd8 C1'
_cell_volume   1311.62626690
_cell_formula_units_Z   1
loop_
 _symmetry_equiv_pos_site_id
 _symmetry_equiv_pos_as_xyz
  1  'x, y, z'
loop_
 _atom_site_type_symbol
 _atom_site_label
 _atom_site_symmetry_multiplicity
 _atom_site_fract_x
 _atom_site_fract_y
 _atom_site_fract_z
 _atom_site_occupancy
  Li  Li0  1  0.00000000  0.00000000  0.03992000  1.0
  Li  Li1  1  0.50000000  1.00000000  0.03992000  1.0
  Li  Li2  1  0.25000000  0.50000000  0.11975000  1.0
  Li  Li3  1  0.75000000  0.50000000  0.11975000  1.0
  Li  Li4  1  0.50000000  0.97101000  0.85852000  1.0
  Li  Li5  1  0.00000000  0.03468000  0.83491000  1.0
  Li  Li6  1  0.74873000  0.49878000  0.96036000  1.0
  Li  Li7  1  0.25127000  0.49878000  0.96036000  1.0
  Ni  Ni8  1  0.75000000  0.75000000  0.03992000  1.0
  Ni  Ni9  1  0.25000000  0.75000000  0.03992000  1.0
  Ni  Ni10  1  0.00000000  0.25000000  0.11975000  1.0
  Ni  Ni11  1  0.50000000  0.25000000  0.11975000  1.0
  Ni  Ni12  1  0.22416000  0.75676000  0.88541000  1.0
  Ni  Ni13  1  0.77584000  0.75676000  0.88541000  1.0
  Ni  Ni14  1  0.50000000  0.25037000  0.95948000  1.0
  Ni  Ni15  1  0.00000000  0.24257000  0.96258000  1.0
  Ge  Ge16  1  0.75000000  0.00000000  0.11975000  1.0
  Ge  Ge17  1  0.25000000  0.00000000  0.11975000  1.0
  Ge  Ge18  1  0.50000000  0.50000000  0.03992000  1.0
  Ge  Ge19  1  0.00000000  0.50000000  0.03992000  1.0
  Ge  Ge20  1  0.24909000  0.00242000  0.96012000  1.0
  Ge  Ge21  1  0.75091000  0.00242000  0.96012000  1.0
  Ge  Ge22  1  0.00000000  0.42349000  0.87813000  1.0
  Ge  Ge23  1  0.50000000  0.52322000  0.87814000  1.0
  Pd  Pd24  1  0.75000000  0.25000000  0.03992000  1.0
  Pd  Pd25  1  0.25000000  0.25000000  0.03992000  1.0
  Pd  Pd26  1  0.00000000  0.75000000  0.11975000  1.0
  Pd  Pd27  1  0.50000000  0.75000000  0.11975000  1.0
  Pd  Pd28  1  0.26964000  0.25147000  0.88235000  1.0
  Pd  Pd29  1  0.73036000  0.25147000  0.88235000  1.0
  Pd  Pd30  1  0.50000000  0.75856000  0.95796000  1.0
  Pd  Pd31  1  0.00000000  0.74344000  0.96122000  1.0
  C  C32  1  0.00000000  0.74529000  0.87374000  1.0
