# generated using pymatgen
data_Na16Bi16C
_symmetry_space_group_name_H-M   Pmm2
_cell_length_a   9.78514000
_cell_length_b   9.89650000
_cell_length_c   27.42240000
_cell_angle_alpha   90.00000000
_cell_angle_beta   90.00000000
_cell_angle_gamma   90.00000000
_symmetry_Int_Tables_number   25
_chemical_formula_structural   Na16Bi16C
_chemical_formula_sum   'Na16 Bi16 C1'
_cell_volume   2655.54786697
_cell_formula_units_Z   1
loop_
 _symmetry_equiv_pos_site_id
 _symmetry_equiv_pos_as_xyz
  1  'x, y, z'
  2  '-x, -y, z'
  3  '-x, y, z'
  4  'x, -y, z'
loop_
 _atom_site_type_symbol
 _atom_site_label
 _atom_site_symmetry_multiplicity
 _atom_site_fract_x
 _atom_site_fract_y
 _atom_site_fract_z
 _atom_site_occupancy
  Na  Na0  2  0.00000000  0.25000000  0.04511000  1.0
  Na  Na1  2  0.00000000  0.25000000  0.86467000  1.0
  Na  Na2  2  0.50000000  0.25000000  0.04511000  1.0
  Na  Na3  2  0.50000000  0.25000000  0.86467000  1.0
  Na  Na4  1  0.00000000  0.00000000  0.13533000  1.0
  Na  Na5  1  0.00000000  0.00000000  0.95489000  1.0
  Na  Na6  1  0.00000000  0.50000000  0.13533000  1.0
  Na  Na7  1  0.00000000  0.50000000  0.95489000  1.0
  Na  Na8  1  0.50000000  0.00000000  0.13533000  1.0
  Na  Na9  1  0.50000000  0.00000000  0.95489000  1.0
  Na  Na10  1  0.50000000  0.50000000  0.13533000  1.0
  Na  Na11  1  0.50000000  0.50000000  0.95489000  1.0
  Bi  Bi12  4  0.25000000  0.25000000  0.13533000  1.0
  Bi  Bi13  4  0.25000000  0.25000000  0.95489000  1.0
  Bi  Bi14  2  0.25000000  0.00000000  0.04511000  1.0
  Bi  Bi15  2  0.25000000  0.00000000  0.86467000  1.0
  Bi  Bi16  2  0.25000000  0.50000000  0.04511000  1.0
  Bi  Bi17  2  0.25000000  0.50000000  0.86467000  1.0
  C  C18  1  0.00000000  0.00000000  0.83549000  1.0
