# generated using pymatgen
data_Y8Cu8Ge8Pd8CO
_symmetry_space_group_name_H-M   'P 1'
_cell_length_a   9.30776000
_cell_length_b   6.58158000
_cell_length_c   26.98080000
_cell_angle_alpha   90.00000000
_cell_angle_beta   90.00000000
_cell_angle_gamma   90.00000000
_symmetry_Int_Tables_number   1
_chemical_formula_structural   Y8Cu8Ge8Pd8CO
_chemical_formula_sum   'Y8 Cu8 Ge8 Pd8 C1 O1'
_cell_volume   1652.83752311
_cell_formula_units_Z   1
loop_
 _symmetry_equiv_pos_site_id
 _symmetry_equiv_pos_as_xyz
  1  'x, y, z'
loop_
 _atom_site_type_symbol
 _atom_site_label
 _atom_site_symmetry_multiplicity
 _atom_site_fract_x
 _atom_site_fract_y
 _atom_site_fract_z
 _atom_site_occupancy
  Y  Y0  1  0.75001000  0.75000000  0.04312000  1.0
  Y  Y1  1  0.24999000  0.75000000  0.04312000  1.0
  Y  Y2  1  0.00000000  0.25000000  0.12937000  1.0
  Y  Y3  1  0.50000000  0.25000000  0.12937000  1.0
  Y  Y4  1  0.26279000  0.63833000  0.85931000  1.0
  Y  Y5  1  0.73721000  0.63833000  0.85931000  1.0
  Y  Y6  1  0.50000000  0.22656000  0.95430000  1.0
  Y  Y7  1  0.00000000  0.22738000  0.95380000  1.0
  Cu  Cu8  1  0.75001000  0.00000000  0.12937000  1.0
  Cu  Cu9  1  0.24999000  0.00000000  0.12937000  1.0
  Cu  Cu10  1  0.50000000  0.50000000  0.04312000  1.0
  Cu  Cu11  1  0.00000000  0.50000000  0.04312000  1.0
  Cu  Cu12  1  0.24236000  0.91809000  0.93783000  1.0
  Cu  Cu13  1  0.75764000  0.91809000  0.93783000  1.0
  Cu  Cu14  1  0.00000000  0.31284000  0.85008000  1.0
  Cu  Cu15  1  0.50000000  0.31700000  0.84596000  1.0
  Ge  Ge16  1  0.75001000  0.25000000  0.04312000  1.0
  Ge  Ge17  1  0.24999000  0.25000000  0.04312000  1.0
  Ge  Ge18  1  0.00000000  0.75000000  0.12937000  1.0
  Ge  Ge19  1  0.50000000  0.75000000  0.12937000  1.0
  Ge  Ge20  1  0.25107000  0.19647000  0.87488000  1.0
  Ge  Ge21  1  0.74893000  0.19647000  0.87488000  1.0
  Ge  Ge22  1  0.50000000  0.72845000  0.96020000  1.0
  Ge  Ge23  1  0.00000000  0.73260000  0.95977000  1.0
  Pd  Pd24  1  0.00000000  0.00000000  0.04312000  1.0
  Pd  Pd25  1  0.50000000  0.00000000  0.04312000  1.0
  Pd  Pd26  1  0.25001000  0.50000000  0.12937000  1.0
  Pd  Pd27  1  0.74999000  0.50000000  0.12937000  1.0
  Pd  Pd28  1  0.50000000  0.92144000  0.87456000  1.0
  Pd  Pd29  1  0.00000000  0.89857000  0.86609000  1.0
  Pd  Pd30  1  0.74944000  0.49135000  0.95761000  1.0
  Pd  Pd31  1  0.25056000  0.49135000  0.95761000  1.0
  C  C32  1  0.00000000  0.87256000  0.79448000  1.0
  O  O33  1  0.00000000  0.89419000  0.75175000  1.0
