# generated using pymatgen
data_Y8Cu8Ge8Pd8CO
_symmetry_space_group_name_H-M   Pm
_cell_length_a   6.58158000
_cell_length_b   9.30776000
_cell_length_c   26.98080000
_cell_angle_alpha   90.00000000
_cell_angle_beta   90.00000000
_cell_angle_gamma   90.00000000
_symmetry_Int_Tables_number   6
_chemical_formula_structural   Y8Cu8Ge8Pd8CO
_chemical_formula_sum   'Y8 Cu8 Ge8 Pd8 C1 O1'
_cell_volume   1652.83752311
_cell_formula_units_Z   1
loop_
 _symmetry_equiv_pos_site_id
 _symmetry_equiv_pos_as_xyz
  1  'x, y, z'
  2  'x, -y, z'
loop_
 _atom_site_type_symbol
 _atom_site_label
 _atom_site_symmetry_multiplicity
 _atom_site_fract_x
 _atom_site_fract_y
 _atom_site_fract_z
 _atom_site_occupancy
  Y  Y0  2  0.63833000  0.26279000  0.14069000  1.0
  Y  Y1  2  0.75000000  0.24999000  0.95688000  1.0
  Y  Y2  1  0.22656000  0.50000000  0.04570000  1.0
  Y  Y3  1  0.22738000  0.00000000  0.04620000  1.0
  Y  Y4  1  0.25000000  0.00000000  0.87063000  1.0
  Y  Y5  1  0.25000000  0.50000000  0.87063000  1.0
  Cu  Cu6  2  0.00000000  0.24999000  0.87063000  1.0
  Cu  Cu7  2  0.91809000  0.24236000  0.06217000  1.0
  Cu  Cu8  1  0.31284000  0.00000000  0.14992000  1.0
  Cu  Cu9  1  0.31700000  0.50000000  0.15404000  1.0
  Cu  Cu10  1  0.50000000  0.00000000  0.95688000  1.0
  Cu  Cu11  1  0.50000000  0.50000000  0.95688000  1.0
  Ge  Ge12  2  0.19647000  0.25107000  0.12512000  1.0
  Ge  Ge13  2  0.25000000  0.24999000  0.95688000  1.0
  Ge  Ge14  1  0.72845000  0.50000000  0.03980000  1.0
  Ge  Ge15  1  0.73260000  0.00000000  0.04023000  1.0
  Ge  Ge16  1  0.75000000  0.00000000  0.87063000  1.0
  Ge  Ge17  1  0.75000000  0.50000000  0.87063000  1.0
  Pd  Pd18  2  0.49135000  0.25056000  0.04239000  1.0
  Pd  Pd19  2  0.50000000  0.25001000  0.87063000  1.0
  Pd  Pd20  1  0.00000000  0.00000000  0.95688000  1.0
  Pd  Pd21  1  0.00000000  0.50000000  0.95688000  1.0
  Pd  Pd22  1  0.89857000  0.00000000  0.13391000  1.0
  Pd  Pd23  1  0.92144000  0.50000000  0.12544000  1.0
  C  C24  1  0.87256000  0.00000000  0.20552000  1.0
  O  O25  1  0.89419000  0.00000000  0.24825000  1.0
