# generated using pymatgen
data_Sc4Al4In4Pd4CO
_symmetry_space_group_name_H-M   'P 1'
_cell_length_a   5.99150000
_cell_length_b   8.30234000
_cell_length_c   24.49130000
_cell_angle_alpha   90.00000000
_cell_angle_beta   90.00000000
_cell_angle_gamma   90.00000000
_symmetry_Int_Tables_number   1
_chemical_formula_structural   Sc4Al4In4Pd4CO
_chemical_formula_sum   'Sc4 Al4 In4 Pd4 C1 O1'
_cell_volume   1218.28224951
_cell_formula_units_Z   1
loop_
 _symmetry_equiv_pos_site_id
 _symmetry_equiv_pos_as_xyz
  1  'x, y, z'
loop_
 _atom_site_type_symbol
 _atom_site_label
 _atom_site_symmetry_multiplicity
 _atom_site_fract_x
 _atom_site_fract_y
 _atom_site_fract_z
 _atom_site_occupancy
  Sc  Sc0  1  0.25745000  0.74858000  0.97011000  1.0
  Sc  Sc1  1  0.77393000  0.75000000  0.09169000  1.0
  Sc  Sc2  1  0.25756000  0.25138000  0.97002000  1.0
  Sc  Sc3  1  0.77393000  0.25000000  0.09169000  1.0
  Al  Al4  1  0.03516000  0.00006000  0.90925000  1.0
  Al  Al5  1  0.51595000  0.00000000  0.03056000  1.0
  Al  Al6  1  0.01132000  0.50010000  0.91251000  1.0
  Al  Al7  1  0.51595000  0.50000000  0.03056000  1.0
  In  In8  1  0.76398000  0.75674000  0.96101000  1.0
  In  In9  1  0.27393000  0.75000000  0.09169000  1.0
  In  In10  1  0.76417000  0.24326000  0.96102000  1.0
  In  In11  1  0.27393000  0.25000000  0.09169000  1.0
  Pd  Pd12  1  0.46044000  0.00000000  0.91954000  1.0
  Pd  Pd13  1  0.01595000  0.00000000  0.03056000  1.0
  Pd  Pd14  1  0.46707000  0.50023000  0.92110000  1.0
  Pd  Pd15  1  0.01595000  0.50000000  0.03056000  1.0
  C  C16  1  0.87942000  0.99972000  0.83717000  1.0
  O  O17  1  0.80582000  0.99948000  0.79362000  1.0
