# generated using pymatgen
data_Mn8Ni16Sb8CO
_symmetry_space_group_name_H-M   'P 1'
_cell_length_a   8.63046000
_cell_length_b   6.10266000
_cell_length_c   26.47280000
_cell_angle_alpha   90.00000000
_cell_angle_beta   90.00000000
_cell_angle_gamma   90.00000000
_symmetry_Int_Tables_number   1
_chemical_formula_structural   Mn8Ni16Sb8CO
_chemical_formula_sum   'Mn8 Ni16 Sb8 C1 O1'
_cell_volume   1394.28962977
_cell_formula_units_Z   1
loop_
 _symmetry_equiv_pos_site_id
 _symmetry_equiv_pos_as_xyz
  1  'x, y, z'
loop_
 _atom_site_type_symbol
 _atom_site_label
 _atom_site_symmetry_multiplicity
 _atom_site_fract_x
 _atom_site_fract_y
 _atom_site_fract_z
 _atom_site_occupancy
  Mn  Mn0  1  0.00000000  0.00000000  0.12225000  1.0
  Mn  Mn1  1  0.25000000  0.50000000  0.04075000  1.0
  Mn  Mn2  1  0.75000000  0.50000000  0.04075000  1.0
  Mn  Mn3  1  0.50000000  1.00000000  0.12225000  1.0
  Mn  Mn4  1  0.50000000  0.99541000  0.95958000  1.0
  Mn  Mn5  1  0.74656000  0.49717000  0.87638000  1.0
  Mn  Mn6  1  0.25344000  0.49717000  0.87638000  1.0
  Mn  Mn7  1  0.00000000  0.00403000  0.95898000  1.0
  Ni  Ni8  1  0.00000000  0.25000000  0.04075000  1.0
  Ni  Ni9  1  0.50000000  0.75000000  0.04075000  1.0
  Ni  Ni10  1  0.00000000  0.75000000  0.04075000  1.0
  Ni  Ni11  1  0.50000000  0.25000000  0.04075000  1.0
  Ni  Ni12  1  0.75000000  0.75000000  0.12225000  1.0
  Ni  Ni13  1  0.25000000  0.25000000  0.12225000  1.0
  Ni  Ni14  1  0.75000000  0.25000000  0.12225000  1.0
  Ni  Ni15  1  0.25000000  0.75000000  0.12225000  1.0
  Ni  Ni16  1  0.50000000  0.24568000  0.88411000  1.0
  Ni  Ni17  1  0.00000000  0.75914000  0.88636000  1.0
  Ni  Ni18  1  0.50000000  0.73515000  0.88480000  1.0
  Ni  Ni19  1  0.00000000  0.25014000  0.87459000  1.0
  Ni  Ni20  1  0.24820000  0.76074000  0.95676000  1.0
  Ni  Ni21  1  0.75143000  0.22862000  0.95316000  1.0
  Ni  Ni22  1  0.24857000  0.22862000  0.95316000  1.0
  Ni  Ni23  1  0.75180000  0.76074000  0.95676000  1.0
  Sb  Sb24  1  0.75000000  1.00000000  0.04075000  1.0
  Sb  Sb25  1  0.00000000  0.50000000  0.12225000  1.0
  Sb  Sb26  1  0.25000000  1.00000000  0.04075000  1.0
  Sb  Sb27  1  0.50000000  0.50000000  0.12225000  1.0
  Sb  Sb28  1  0.25636000  0.98379000  0.86795000  1.0
  Sb  Sb29  1  0.50000000  0.49411000  0.96157000  1.0
  Sb  Sb30  1  0.74364000  0.98379000  0.86795000  1.0
  Sb  Sb31  1  0.00000000  0.49226000  0.95972000  1.0
  C  C32  1  0.00000000  0.33255000  0.81035000  1.0
  O  O33  1  0.00000000  0.36415000  0.76721000  1.0
