# generated using pymatgen
data_Mn8Ni16Sb8CO
_symmetry_space_group_name_H-M   Pm
_cell_length_a   6.10266000
_cell_length_b   8.63046000
_cell_length_c   26.47280000
_cell_angle_alpha   90.00000000
_cell_angle_beta   90.00000000
_cell_angle_gamma   90.00000000
_symmetry_Int_Tables_number   6
_chemical_formula_structural   Mn8Ni16Sb8CO
_chemical_formula_sum   'Mn8 Ni16 Sb8 C1 O1'
_cell_volume   1394.28962977
_cell_formula_units_Z   1
loop_
 _symmetry_equiv_pos_site_id
 _symmetry_equiv_pos_as_xyz
  1  'x, y, z'
  2  'x, -y, z'
loop_
 _atom_site_type_symbol
 _atom_site_label
 _atom_site_symmetry_multiplicity
 _atom_site_fract_x
 _atom_site_fract_y
 _atom_site_fract_z
 _atom_site_occupancy
  Mn  Mn0  2  0.49717000  0.25344000  0.12362000  1.0
  Mn  Mn1  2  0.50000000  0.25000000  0.95925000  1.0
  Mn  Mn2  1  -0.00000000  0.50000000  0.87775000  1.0
  Mn  Mn3  1  0.00000000  0.00000000  0.87775000  1.0
  Mn  Mn4  1  0.00403000  0.00000000  0.04102000  1.0
  Mn  Mn5  1  0.99541000  0.50000000  0.04042000  1.0
  Ni  Ni6  2  0.22862000  0.24857000  0.04684000  1.0
  Ni  Ni7  2  0.25000000  0.25000000  0.87775000  1.0
  Ni  Ni8  2  0.75000000  0.25000000  0.87775000  1.0
  Ni  Ni9  2  0.76074000  0.24820000  0.04324000  1.0
  Ni  Ni10  1  0.24568000  0.50000000  0.11589000  1.0
  Ni  Ni11  1  0.25000000  0.00000000  0.95925000  1.0
  Ni  Ni12  1  0.25000000  0.50000000  0.95925000  1.0
  Ni  Ni13  1  0.25014000  0.00000000  0.12541000  1.0
  Ni  Ni14  1  0.73515000  0.50000000  0.11520000  1.0
  Ni  Ni15  1  0.75000000  0.00000000  0.95925000  1.0
  Ni  Ni16  1  0.75000000  0.50000000  0.95925000  1.0
  Ni  Ni17  1  0.75914000  0.00000000  0.11364000  1.0
  Sb  Sb18  2  -0.00000000  0.25000000  0.95925000  1.0
  Sb  Sb19  2  0.98379000  0.25636000  0.13205000  1.0
  Sb  Sb20  1  0.49226000  0.00000000  0.04028000  1.0
  Sb  Sb21  1  0.49411000  0.50000000  0.03843000  1.0
  Sb  Sb22  1  0.50000000  0.00000000  0.87775000  1.0
  Sb  Sb23  1  0.50000000  0.50000000  0.87775000  1.0
  C  C24  1  0.33255000  0.00000000  0.18965000  1.0
  O  O25  1  0.36415000  0.00000000  0.23279000  1.0
