# generated using pymatgen
data_Ni3Sn
_symmetry_space_group_name_H-M   P1
_cell_length_a   7.51544000
_cell_length_b   7.51544000
_cell_length_c   25.63660000
_cell_angle_alpha   90.00000000
_cell_angle_beta   90.00000000
_cell_angle_gamma   90.00000000
_symmetry_Int_Tables_number   1
_chemical_formula_structural   Ni3Sn
_chemical_formula_sum   'Ni24 Sn8'
_cell_volume   1448.00229816
_cell_formula_units_Z   8
loop_
 _symmetry_equiv_pos_site_id
 _symmetry_equiv_pos_as_xyz
  1  'x, y, z'
loop_
 _atom_site_type_symbol
 _atom_site_label
 _atom_site_symmetry_multiplicity
 _atom_site_fract_x
 _atom_site_fract_y
 _atom_site_fract_z
 _atom_site_occupancy
  Ni  Ni0  1  0.00000000  0.75000000  0.96336000  1.0
  Ni  Ni1  1  0.00000000  0.25000000  0.96336000  1.0
  Ni  Ni2  1  0.24991000  0.49992000  0.10686000  1.0
  Ni  Ni3  1  0.24991000  0.99993000  0.10687000  1.0
  Ni  Ni4  1  0.24998000  0.75014000  0.03588000  1.0
  Ni  Ni5  1  0.25000000  0.00000000  0.96336000  1.0
  Ni  Ni6  1  0.25000000  0.25000000  0.89007000  1.0
  Ni  Ni7  1  0.25000000  0.50000000  0.96336000  1.0
  Ni  Ni8  1  0.25000000  0.75000000  0.89007000  1.0
  Ni  Ni9  1  0.25007000  0.24984000  0.03598000  1.0
  Ni  Ni10  1  0.50000000  0.25000000  0.96336000  1.0
  Ni  Ni11  1  0.50000000  0.75000000  0.96336000  1.0
  Ni  Ni12  1  0.50033000  0.25007000  0.10683000  1.0
  Ni  Ni13  1  0.50038000  0.74990000  0.10689000  1.0
  Ni  Ni14  1  0.74995000  0.24989000  0.03605000  1.0
  Ni  Ni15  1  0.75000000  0.00000000  0.96336000  1.0
  Ni  Ni16  1  0.75000000  0.25000000  0.89007000  1.0
  Ni  Ni17  1  0.75000000  0.50000000  0.96336000  1.0
  Ni  Ni18  1  0.75000000  0.75000000  0.89007000  1.0
  Ni  Ni19  1  0.75004000  0.75009000  0.03597000  1.0
  Ni  Ni20  1  0.75007000  0.49990000  0.10686000  1.0
  Ni  Ni21  1  0.75009000  0.00005000  0.10681000  1.0
  Ni  Ni22  1  0.99964000  0.74990000  0.10687000  1.0
  Ni  Ni23  1  0.99966000  0.25005000  0.10685000  1.0
  Sn  Sn24  1  -0.00000000  0.50000000  0.89007000  1.0
  Sn  Sn25  1  0.00000000  0.00000000  0.89007000  1.0
  Sn  Sn26  1  0.50000000  0.00000000  0.89007000  1.0
  Sn  Sn27  1  0.50000000  0.50000000  0.89007000  1.0
  Sn  Sn28  1  0.50001000  0.99999000  0.03736000  1.0
  Sn  Sn29  1  0.50005000  0.50003000  0.03734000  1.0
  Sn  Sn30  1  0.99996000  0.49997000  0.03735000  1.0
  Sn  Sn31  1  0.99999000  0.00003000  0.03735000  1.0
