# generated using pymatgen
data_Zr8In8Ni16CO
_symmetry_space_group_name_H-M   'P 1'
_cell_length_a   6.34973000
_cell_length_b   8.97987000
_cell_length_c   26.73490000
_cell_angle_alpha   90.00000000
_cell_angle_beta   90.00000000
_cell_angle_gamma   90.00000000
_symmetry_Int_Tables_number   1
_chemical_formula_structural   Zr8In8Ni16CO
_chemical_formula_sum   'Zr8 In8 Ni16 C1 O1'
_cell_volume   1524.41731254
_cell_formula_units_Z   1
loop_
 _symmetry_equiv_pos_site_id
 _symmetry_equiv_pos_as_xyz
  1  'x, y, z'
loop_
 _atom_site_type_symbol
 _atom_site_label
 _atom_site_symmetry_multiplicity
 _atom_site_fract_x
 _atom_site_fract_y
 _atom_site_fract_z
 _atom_site_occupancy
  Zr  Zr0  1  0.00000000  0.00000000  0.87404000  1.0
  Zr  Zr1  1  0.50000000  0.25000000  0.95801000  1.0
  Zr  Zr2  1  0.50000000  0.75000000  0.95801000  1.0
  Zr  Zr3  1  0.00000000  0.50000000  0.87404000  1.0
  Zr  Zr4  1  0.99783000  0.49999000  0.04226000  1.0
  Zr  Zr5  1  0.49922000  0.74904000  0.12492000  1.0
  Zr  Zr6  1  0.49921000  0.25095000  0.12492000  1.0
  Zr  Zr7  1  0.99923000  0.00000000  0.04298000  1.0
  In  In8  1  0.00000000  0.75000000  0.95801000  1.0
  In  In9  1  0.50000000  0.00000000  0.87404000  1.0
  In  In10  1  0.00000000  0.25000000  0.95801000  1.0
  In  In11  1  0.50000000  0.50000000  0.87404000  1.0
  In  In12  1  0.99649000  0.25319000  0.13037000  1.0
  In  In13  1  0.49944000  0.50002000  0.03999000  1.0
  In  In14  1  0.99650000  0.74681000  0.13035000  1.0
  In  In15  1  0.49206000  0.99998000  0.04183000  1.0
  Ni  Ni16  1  0.25000000  0.00000000  0.95801000  1.0
  Ni  Ni17  1  0.75000000  0.50000000  0.95801000  1.0
  Ni  Ni18  1  0.75000000  0.00000000  0.95801000  1.0
  Ni  Ni19  1  0.25000000  0.50000000  0.95801000  1.0
  Ni  Ni20  1  0.75000000  0.75000000  0.87404000  1.0
  Ni  Ni21  1  0.25000000  0.25000000  0.87404000  1.0
  Ni  Ni22  1  0.25000000  0.75000000  0.87404000  1.0
  Ni  Ni23  1  0.75000000  0.25000000  0.87404000  1.0
  Ni  Ni24  1  0.25385000  0.50003000  0.11966000  1.0
  Ni  Ni25  1  0.75718000  0.99994000  0.11861000  1.0
  Ni  Ni26  1  0.74117000  0.50004000  0.12049000  1.0
  Ni  Ni27  1  0.25099000  0.99997000  0.13111000  1.0
  Ni  Ni28  1  0.74126000  0.24887000  0.04450000  1.0
  Ni  Ni29  1  0.25528000  0.74890000  0.04477000  1.0
  Ni  Ni30  1  0.25525000  0.25110000  0.04479000  1.0
  Ni  Ni31  1  0.74123000  0.75112000  0.04448000  1.0
  C  C32  1  0.34757000  0.00000000  0.19277000  1.0
  O  O33  1  0.39450000  0.00000000  0.23502000  1.0
