# generated using pymatgen
data_Be16Cu16C
_symmetry_space_group_name_H-M   'P 1'
_cell_length_a   5.39777000
_cell_length_b   7.63360000
_cell_length_c   25.72520000
_cell_angle_alpha   90.00000000
_cell_angle_beta   90.00000000
_cell_angle_gamma   90.00000000
_symmetry_Int_Tables_number   1
_chemical_formula_structural   Be16Cu16C
_chemical_formula_sum   'Be16 Cu16 C1'
_cell_volume   1059.99187006
_cell_formula_units_Z   1
loop_
 _symmetry_equiv_pos_site_id
 _symmetry_equiv_pos_as_xyz
  1  'x, y, z'
loop_
 _atom_site_type_symbol
 _atom_site_label
 _atom_site_symmetry_multiplicity
 _atom_site_fract_x
 _atom_site_fract_y
 _atom_site_fract_z
 _atom_site_occupancy
  Be  Be0  1  0.75000000  0.75000000  0.88872000  1.0
  Be  Be1  1  0.75000000  0.00000000  0.96291000  1.0
  Be  Be2  1  0.75154000  0.74793000  0.03681000  1.0
  Be  Be3  1  0.70433000  0.00000000  0.11515000  1.0
  Be  Be4  1  0.75000000  0.25000000  0.88872000  1.0
  Be  Be5  1  0.75000000  0.50000000  0.96291000  1.0
  Be  Be6  1  0.75154000  0.25207000  0.03681000  1.0
  Be  Be7  1  0.77518000  0.50000000  0.10740000  1.0
  Be  Be8  1  0.25000000  0.75000000  0.88872000  1.0
  Be  Be9  1  0.25000000  0.00000000  0.96291000  1.0
  Be  Be10  1  0.24846000  0.74793000  0.03681000  1.0
  Be  Be11  1  0.29567000  0.00000000  0.11515000  1.0
  Be  Be12  1  0.25000000  0.25000000  0.88872000  1.0
  Be  Be13  1  0.25000000  0.50000000  0.96291000  1.0
  Be  Be14  1  0.24846000  0.25207000  0.03681000  1.0
  Be  Be15  1  0.22482000  0.50000000  0.10740000  1.0
  Cu  Cu16  1  0.00000000  0.00000000  0.88872000  1.0
  Cu  Cu17  1  0.00000000  0.75000000  0.96291000  1.0
  Cu  Cu18  1  0.00000000  0.00000000  0.03820000  1.0
  Cu  Cu19  1  0.00000000  0.75153000  0.11254000  1.0
  Cu  Cu20  1  0.00000000  0.50000000  0.88872000  1.0
  Cu  Cu21  1  0.00000000  0.25000000  0.96291000  1.0
  Cu  Cu22  1  0.00000000  0.50000000  0.03423000  1.0
  Cu  Cu23  1  0.00000000  0.24847000  0.11254000  1.0
  Cu  Cu24  1  0.50000000  0.00000000  0.88872000  1.0
  Cu  Cu25  1  0.50000000  0.75000000  0.96291000  1.0
  Cu  Cu26  1  0.50000000  0.00000000  0.03605000  1.0
  Cu  Cu27  1  0.50000000  0.72998000  0.11055000  1.0
  Cu  Cu28  1  0.50000000  0.50000000  0.88872000  1.0
  Cu  Cu29  1  0.50000000  0.25000000  0.96291000  1.0
  Cu  Cu30  1  0.50000000  0.50000000  0.03575000  1.0
  Cu  Cu31  1  0.50000000  0.27002000  0.11055000  1.0
  C  C32  1  0.00000000  0.00000000  0.12901000  1.0
