# generated using pymatgen
data_Li4Al4Ge4Pd4CO
_symmetry_space_group_name_H-M   Pm
_cell_length_a   5.49423000
_cell_length_b   8.01128000
_cell_length_c   24.10550000
_cell_angle_alpha   90.00000000
_cell_angle_beta   90.00000000
_cell_angle_gamma   90.00000000
_symmetry_Int_Tables_number   6
_chemical_formula_structural   Li4Al4Ge4Pd4CO
_chemical_formula_sum   'Li4 Al4 Ge4 Pd4 C1 O1'
_cell_volume   1061.02322642
_cell_formula_units_Z   1
loop_
 _symmetry_equiv_pos_site_id
 _symmetry_equiv_pos_as_xyz
  1  'x, y, z'
  2  'x, -y, z'
loop_
 _atom_site_type_symbol
 _atom_site_label
 _atom_site_symmetry_multiplicity
 _atom_site_fract_x
 _atom_site_fract_y
 _atom_site_fract_z
 _atom_site_occupancy
  Li  Li0  2  0.18570000  0.25000000  0.91484000  1.0
  Li  Li1  2  0.73284000  0.24839000  0.02622000  1.0
  Al  Al2  1  0.45713000  0.00000000  0.97161000  1.0
  Al  Al3  1  0.45713000  0.50000000  0.97161000  1.0
  Al  Al4  1  0.99128000  0.50000000  0.08044000  1.0
  Al  Al5  1  0.99334000  0.00000000  0.08415000  1.0
  Ge  Ge6  1  0.49187000  0.50000000  0.08347000  1.0
  Ge  Ge7  1  0.49614000  0.00000000  0.08217000  1.0
  Ge  Ge8  1  0.95713000  0.00000000  0.97161000  1.0
  Ge  Ge9  1  0.95713000  0.50000000  0.97161000  1.0
  Pd  Pd10  2  0.23544000  0.24839000  0.04252000  1.0
  Pd  Pd11  2  0.68570000  0.25000000  0.91484000  1.0
  C  C12  1  0.00175000  0.00000000  0.16807000  1.0
  O  O13  1  0.00297000  0.00000000  0.21577000  1.0
