data_image0
_chemical_formula_structural       Ca24In8
_chemical_formula_sum              "Ca24 In8"
_cell_length_a       8.11767
_cell_length_b       11.4801
_cell_length_c       28.6101
_cell_angle_alpha    90
_cell_angle_beta     90
_cell_angle_gamma    90

_space_group_name_H-M_alt    "P 1"
_space_group_IT_number       1

loop_
  _space_group_symop_operation_xyz
  'x, y, z'

loop_
  _atom_site_type_symbol
  _atom_site_label
  _atom_site_symmetry_multiplicity
  _atom_site_fract_x
  _atom_site_fract_y
  _atom_site_fract_z
  _atom_site_occupancy
  Ca  Ca1       1.0  0.25000  0.00000  0.94984  1.0000
  Ca  Ca2       1.0  0.75000  0.50000  0.94984  1.0000
  Ca  Ca3       1.0  0.75000  0.00000  0.94984  1.0000
  Ca  Ca4       1.0  0.25000  0.50000  0.94984  1.0000
  Ca  Ca5       1.0  0.75000  0.75000  0.84953  1.0000
  Ca  Ca6       1.0  0.25000  0.25000  0.84953  1.0000
  Ca  Ca7       1.0  0.25000  0.75000  0.84953  1.0000
  Ca  Ca8       1.0  0.75000  0.25000  0.84953  1.0000
  Ca  Ca9       1.0  0.00000  0.75000  0.94984  1.0000
  Ca  Ca10      1.0  0.50000  0.00000  0.84953  1.0000
  Ca  Ca11      1.0  0.00000  0.25000  0.94984  1.0000
  Ca  Ca12      1.0  0.50000  0.50000  0.84953  1.0000
  Ca  Ca13      1.0  0.25000  0.50000  0.15047  1.0000
  Ca  Ca14      1.0  0.75000  0.00000  0.15047  1.0000
  Ca  Ca15      1.0  0.75000  0.50000  0.15047  1.0000
  Ca  Ca16      1.0  0.25000  0.00000  0.15047  1.0000
  Ca  Ca17      1.0  0.75000  0.25000  0.05016  1.0000
  Ca  Ca18      1.0  0.25000  0.75000  0.05016  1.0000
  Ca  Ca19      1.0  0.25000  0.25000  0.05016  1.0000
  Ca  Ca20      1.0  0.75000  0.75000  0.05016  1.0000
  Ca  Ca21      1.0  0.00000  0.25000  0.15047  1.0000
  Ca  Ca22      1.0  0.50000  0.50000  0.05016  1.0000
  Ca  Ca23      1.0  0.00000  0.75000  0.15047  1.0000
  Ca  Ca24      1.0  0.50000  0.00000  0.05016  1.0000
  In  In1       1.0  0.00000  0.00000  0.84953  1.0000
  In  In2       1.0  0.50000  0.25000  0.94984  1.0000
  In  In3       1.0  0.50000  0.75000  0.94984  1.0000
  In  In4       1.0  0.00000  0.50000  0.84953  1.0000
  In  In5       1.0  0.00000  0.50000  0.05016  1.0000
  In  In6       1.0  0.50000  0.75000  0.15047  1.0000
  In  In7       1.0  0.50000  0.25000  0.15047  1.0000
  In  In8       1.0  0.00000  0.00000  0.05016  1.0000
