# generated using pymatgen
data_Ca3In
_symmetry_space_group_name_H-M   P1
_cell_length_a   8.11767000
_cell_length_b   11.48010000
_cell_length_c   28.61010000
_cell_angle_alpha   90.00000000
_cell_angle_beta   90.00000000
_cell_angle_gamma   90.00000000
_symmetry_Int_Tables_number   1
_chemical_formula_structural   Ca3In
_chemical_formula_sum   'Ca24 In8'
_cell_volume   2666.22280810
_cell_formula_units_Z   8
loop_
 _symmetry_equiv_pos_site_id
 _symmetry_equiv_pos_as_xyz
  1  'x, y, z'
loop_
 _atom_site_type_symbol
 _atom_site_label
 _atom_site_symmetry_multiplicity
 _atom_site_fract_x
 _atom_site_fract_y
 _atom_site_fract_z
 _atom_site_occupancy
  Ca  Ca0  1  0.00000000  0.25000000  0.94984000  1.0
  Ca  Ca1  1  0.00000000  0.75000000  0.94984000  1.0
  Ca  Ca2  1  0.23685000  0.75001000  0.05669000  1.0
  Ca  Ca3  1  0.23688000  0.25003000  0.05663000  1.0
  Ca  Ca4  1  0.25000000  0.00000000  0.94984000  1.0
  Ca  Ca5  1  0.25000000  0.25000000  0.84953000  1.0
  Ca  Ca6  1  0.25000000  0.50000000  0.94984000  1.0
  Ca  Ca7  1  0.25000000  0.75000000  0.84953000  1.0
  Ca  Ca8  1  0.25738000  0.49994000  0.15032000  1.0
  Ca  Ca9  1  0.25738000  0.99996000  0.15037000  1.0
  Ca  Ca10  1  0.50000000  0.00000000  0.84953000  1.0
  Ca  Ca11  1  0.50000000  0.50000000  0.84953000  1.0
  Ca  Ca12  1  0.50001000  0.99998000  0.04905000  1.0
  Ca  Ca13  1  0.50004000  0.50018000  0.04899000  1.0
  Ca  Ca14  1  0.74240000  0.00007000  0.15040000  1.0
  Ca  Ca15  1  0.74246000  0.50001000  0.15036000  1.0
  Ca  Ca16  1  0.75000000  0.00000000  0.94984000  1.0
  Ca  Ca17  1  0.75000000  0.25000000  0.84953000  1.0
  Ca  Ca18  1  0.75000000  0.50000000  0.94984000  1.0
  Ca  Ca19  1  0.75000000  0.75000000  0.84953000  1.0
  Ca  Ca20  1  0.76305000  0.75003000  0.05670000  1.0
  Ca  Ca21  1  0.76308000  0.25006000  0.05664000  1.0
  Ca  Ca22  1  0.99986000  0.74996000  0.17653000  1.0
  Ca  Ca23  1  0.99995000  0.25002000  0.17648000  1.0
  In  In24  1  0.00000000  0.00000000  0.84953000  1.0
  In  In25  1  0.00000000  0.50000000  0.84953000  1.0
  In  In26  1  0.49995000  0.74980000  0.14431000  1.0
  In  In27  1  0.49996000  0.25013000  0.14427000  1.0
  In  In28  1  0.50000000  0.25000000  0.94984000  1.0
  In  In29  1  0.50000000  0.75000000  0.94984000  1.0
  In  In30  1  0.99987000  0.50030000  0.04629000  1.0
  In  In31  1  0.99987000  0.99968000  0.04654000  1.0
