# generated using pymatgen
data_LiMgGeAu
_symmetry_space_group_name_H-M   'P 1'
_cell_length_a   9.20584000
_cell_length_b   6.50951000
_cell_length_c   26.90440000
_cell_angle_alpha   90.00000000
_cell_angle_beta   90.00000000
_cell_angle_gamma   90.00000000
_symmetry_Int_Tables_number   1
_chemical_formula_structural   LiMgGeAu
_chemical_formula_sum   'Li8 Mg8 Ge8 Au8'
_cell_volume   1612.25982502
_cell_formula_units_Z   8
loop_
 _symmetry_equiv_pos_site_id
 _symmetry_equiv_pos_as_xyz
  1  'x, y, z'
loop_
 _atom_site_type_symbol
 _atom_site_label
 _atom_site_symmetry_multiplicity
 _atom_site_fract_x
 _atom_site_fract_y
 _atom_site_fract_z
 _atom_site_occupancy
  Li  Li0  1  0.75000000  0.75000000  0.04277000  1.0
  Li  Li1  1  0.25000000  0.75000000  0.04277000  1.0
  Li  Li2  1  0.00000000  0.25000000  0.12831000  1.0
  Li  Li3  1  0.50000000  0.25000000  0.12831000  1.0
  Li  Li4  1  0.24998000  0.74958000  0.86583000  1.0
  Li  Li5  1  0.75002000  0.74958000  0.86583000  1.0
  Li  Li6  1  0.50000000  0.24273000  0.95994000  1.0
  Li  Li7  1  0.00000000  0.24276000  0.95996000  1.0
  Mg  Mg8  1  0.75000000  0.25000000  0.04277000  1.0
  Mg  Mg9  1  0.25000000  0.25000000  0.04277000  1.0
  Mg  Mg10  1  0.00000000  0.75000000  0.12831000  1.0
  Mg  Mg11  1  0.50000000  0.75000000  0.12831000  1.0
  Mg  Mg12  1  0.25004000  0.23975000  0.86106000  1.0
  Mg  Mg13  1  0.74996000  0.23975000  0.86106000  1.0
  Mg  Mg14  1  0.50000000  0.75519000  0.95660000  1.0
  Mg  Mg15  1  0.00000000  0.75528000  0.95659000  1.0
  Ge  Ge16  1  0.00000000  1.00000000  0.04277000  1.0
  Ge  Ge17  1  0.50000000  0.00000000  0.04277000  1.0
  Ge  Ge18  1  0.25000000  0.50000000  0.12831000  1.0
  Ge  Ge19  1  0.75000000  0.50000000  0.12831000  1.0
  Ge  Ge20  1  0.50000000  0.99719000  0.86801000  1.0
  Ge  Ge21  1  0.00000000  0.99731000  0.86802000  1.0
  Ge  Ge22  1  0.75007000  0.49186000  0.94844000  1.0
  Ge  Ge23  1  0.24993000  0.49186000  0.94844000  1.0
  Au  Au24  1  0.75000000  0.00000000  0.12831000  1.0
  Au  Au25  1  0.25000000  0.00000000  0.12831000  1.0
  Au  Au26  1  0.50000000  0.50000000  0.04277000  1.0
  Au  Au27  1  0.00000000  0.50000000  0.04277000  1.0
  Au  Au28  1  0.25000000  0.01166000  0.95171000  1.0
  Au  Au29  1  0.75000000  0.01166000  0.95171000  1.0
  Au  Au30  1  0.00000000  0.47499000  0.87784000  1.0
  Au  Au31  1  0.50000000  0.47508000  0.87782000  1.0
