# generated using pymatgen
data_LiMgGeAu
_symmetry_space_group_name_H-M   Pm
_cell_length_a   6.50951000
_cell_length_b   9.20584000
_cell_length_c   26.90440000
_cell_angle_alpha   90.00000000
_cell_angle_beta   90.00000000
_cell_angle_gamma   90.00000000
_symmetry_Int_Tables_number   6
_chemical_formula_structural   LiMgGeAu
_chemical_formula_sum   'Li8 Mg8 Ge8 Au8'
_cell_volume   1612.25982502
_cell_formula_units_Z   8
loop_
 _symmetry_equiv_pos_site_id
 _symmetry_equiv_pos_as_xyz
  1  'x, y, z'
  2  'x, -y, z'
loop_
 _atom_site_type_symbol
 _atom_site_label
 _atom_site_symmetry_multiplicity
 _atom_site_fract_x
 _atom_site_fract_y
 _atom_site_fract_z
 _atom_site_occupancy
  Li  Li0  2  0.74958000  0.24998000  0.13417000  1.0
  Li  Li1  2  0.75000000  0.25000000  0.95723000  1.0
  Li  Li2  1  0.24273000  0.50000000  0.04006000  1.0
  Li  Li3  1  0.24276000  0.00000000  0.04004000  1.0
  Li  Li4  1  0.25000000  0.00000000  0.87169000  1.0
  Li  Li5  1  0.25000000  0.50000000  0.87169000  1.0
  Mg  Mg6  2  0.23975000  0.25004000  0.13894000  1.0
  Mg  Mg7  2  0.25000000  0.25000000  0.95723000  1.0
  Mg  Mg8  1  0.75000000  0.00000000  0.87169000  1.0
  Mg  Mg9  1  0.75000000  0.50000000  0.87169000  1.0
  Mg  Mg10  1  0.75519000  0.50000000  0.04340000  1.0
  Mg  Mg11  1  0.75528000  0.00000000  0.04341000  1.0
  Ge  Ge12  2  0.49186000  0.24993000  0.05156000  1.0
  Ge  Ge13  2  0.50000000  0.25000000  0.87169000  1.0
  Ge  Ge14  1  -0.00000000  0.00000000  0.95723000  1.0
  Ge  Ge15  1  0.00000000  0.50000000  0.95723000  1.0
  Ge  Ge16  1  0.99719000  0.50000000  0.13199000  1.0
  Ge  Ge17  1  0.99731000  0.00000000  0.13198000  1.0
  Au  Au18  2  0.00000000  0.25000000  0.87169000  1.0
  Au  Au19  2  0.01166000  0.25000000  0.04829000  1.0
  Au  Au20  1  0.47499000  0.00000000  0.12216000  1.0
  Au  Au21  1  0.47508000  0.50000000  0.12218000  1.0
  Au  Au22  1  0.50000000  0.00000000  0.95723000  1.0
  Au  Au23  1  0.50000000  0.50000000  0.95723000  1.0
