# generated using pymatgen
data_Sc4In4Ge4Pd4CO
_symmetry_space_group_name_H-M   'P 1'
_cell_length_a   5.71274000
_cell_length_b   9.28368000
_cell_length_c   24.27220000
_cell_angle_alpha   90.00000000
_cell_angle_beta   90.00000000
_cell_angle_gamma   90.00000000
_symmetry_Int_Tables_number   1
_chemical_formula_structural   Sc4In4Ge4Pd4CO
_chemical_formula_sum   'Sc4 In4 Ge4 Pd4 C1 O1'
_cell_volume   1287.28219707
_cell_formula_units_Z   1
loop_
 _symmetry_equiv_pos_site_id
 _symmetry_equiv_pos_as_xyz
  1  'x, y, z'
loop_
 _atom_site_type_symbol
 _atom_site_label
 _atom_site_symmetry_multiplicity
 _atom_site_fract_x
 _atom_site_fract_y
 _atom_site_fract_z
 _atom_site_occupancy
  Sc  Sc0  1  0.50000000  0.00000000  0.91199000  1.0
  Sc  Sc1  1  0.12727000  0.00380000  0.02948000  1.0
  Sc  Sc2  1  0.50000000  0.50000000  0.91199000  1.0
  Sc  Sc3  1  0.12723000  0.49617000  0.02947000  1.0
  In  In4  1  0.76901000  0.75000000  0.97066000  1.0
  In  In5  1  0.39864000  0.74995000  0.08605000  1.0
  In  In6  1  0.76901000  0.25000000  0.97066000  1.0
  In  In7  1  0.40602000  0.25005000  0.09683000  1.0
  Ge  Ge8  1  0.00000000  0.00000000  0.91199000  1.0
  Ge  Ge9  1  0.63412000  0.00279000  0.05078000  1.0
  Ge  Ge10  1  0.00000000  0.50000000  0.91199000  1.0
  Ge  Ge11  1  0.63432000  0.49732000  0.05081000  1.0
  Pd  Pd12  1  0.26901000  0.75000000  0.97066000  1.0
  Pd  Pd13  1  0.90293000  0.74993000  0.08458000  1.0
  Pd  Pd14  1  0.26901000  0.25000000  0.97066000  1.0
  Pd  Pd15  1  0.91626000  0.24995000  0.07764000  1.0
  C  C16  1  0.89929000  0.74999000  0.16615000  1.0
  O  O17  1  0.88339000  0.75001000  0.21346000  1.0
