# generated using pymatgen
data_Sc4In4Ge4Pd4CO
_symmetry_space_group_name_H-M   P1
_cell_length_a   5.71274000
_cell_length_b   9.28368000
_cell_length_c   24.27220000
_cell_angle_alpha   90.00000000
_cell_angle_beta   90.00000000
_cell_angle_gamma   90.00000000
_symmetry_Int_Tables_number   1
_chemical_formula_structural   Sc4In4Ge4Pd4CO
_chemical_formula_sum   'Sc4 In4 Ge4 Pd4 C1 O1'
_cell_volume   1287.28219707
_cell_formula_units_Z   1
loop_
 _symmetry_equiv_pos_site_id
 _symmetry_equiv_pos_as_xyz
  1  'x, y, z'
loop_
 _atom_site_type_symbol
 _atom_site_label
 _atom_site_symmetry_multiplicity
 _atom_site_fract_x
 _atom_site_fract_y
 _atom_site_fract_z
 _atom_site_occupancy
  Sc  Sc0  1  0.50000000  0.00000000  0.91199000  1.0
  Sc  Sc1  1  0.50000000  0.50000000  0.91199000  1.0
  Sc  Sc2  1  0.87273000  0.99620000  0.02948000  1.0
  Sc  Sc3  1  0.87277000  0.50383000  0.02947000  1.0
  In  In4  1  0.23099000  0.25000000  0.97066000  1.0
  In  In5  1  0.23099000  0.75000000  0.97066000  1.0
  In  In6  1  0.59398000  0.74995000  0.09683000  1.0
  In  In7  1  0.60136000  0.25005000  0.08605000  1.0
  Ge  Ge8  1  0.00000000  0.00000000  0.91199000  1.0
  Ge  Ge9  1  0.00000000  0.50000000  0.91199000  1.0
  Ge  Ge10  1  0.36568000  0.50268000  0.05081000  1.0
  Ge  Ge11  1  0.36588000  0.99721000  0.05078000  1.0
  Pd  Pd12  1  0.08374000  0.75005000  0.07764000  1.0
  Pd  Pd13  1  0.09707000  0.25007000  0.08458000  1.0
  Pd  Pd14  1  0.73099000  0.25000000  0.97066000  1.0
  Pd  Pd15  1  0.73099000  0.75000000  0.97066000  1.0
  C  C16  1  0.10071000  0.25001000  0.16615000  1.0
  O  O17  1  0.11661000  0.24999000  0.21346000  1.0
