# generated using pymatgen
data_Li4Y4Sn4Pb4C
_symmetry_space_group_name_H-M   'P 1'
_cell_length_a   8.87168000
_cell_length_b   6.72279000
_cell_length_c   25.04000000
_cell_angle_alpha   90.00000000
_cell_angle_beta   90.00000000
_cell_angle_gamma   90.00000000
_symmetry_Int_Tables_number   1
_chemical_formula_structural   Li4Y4Sn4Pb4C
_chemical_formula_sum   'Li4 Y4 Sn4 Pb4 C1'
_cell_volume   1493.44673734
_cell_formula_units_Z   1
loop_
 _symmetry_equiv_pos_site_id
 _symmetry_equiv_pos_as_xyz
  1  'x, y, z'
loop_
 _atom_site_type_symbol
 _atom_site_label
 _atom_site_symmetry_multiplicity
 _atom_site_fract_x
 _atom_site_fract_y
 _atom_site_fract_z
 _atom_site_occupancy
  Li  Li0  1  0.65831000  0.96259000  0.10218000  1.0
  Li  Li1  1  0.75000000  0.51453000  0.96645000  1.0
  Li  Li2  1  0.34169000  0.96259000  0.10218000  1.0
  Li  Li3  1  0.25000000  0.51453000  0.96645000  1.0
  Y  Y4  1  0.70986000  0.51978000  0.09800000  1.0
  Y  Y5  1  0.75000000  0.01453000  0.96645000  1.0
  Y  Y6  1  0.29014000  0.51978000  0.09800000  1.0
  Y  Y7  1  0.25000000  0.01453000  0.96645000  1.0
  Sn  Sn8  1  0.50000000  0.24418000  0.03081000  1.0
  Sn  Sn9  1  0.50000000  0.77180000  0.89936000  1.0
  Sn  Sn10  1  0.00000000  0.29901000  0.02836000  1.0
  Sn  Sn11  1  0.00000000  0.77180000  0.89936000  1.0
  Pb  Pb12  1  0.50000000  0.73492000  0.01827000  1.0
  Pb  Pb13  1  0.50000000  0.27180000  0.89936000  1.0
  Pb  Pb14  1  0.00000000  0.81247000  0.05642000  1.0
  Pb  Pb15  1  0.00000000  0.27180000  0.89936000  1.0
  C  C16  1  0.50000000  0.70634000  0.11605000  1.0
