# generated using pymatgen
data_Li4Y4Sn4Pb4C
_symmetry_space_group_name_H-M   Pm
_cell_length_a   6.72279000
_cell_length_b   8.87168000
_cell_length_c   25.04000000
_cell_angle_alpha   90.00000000
_cell_angle_beta   90.00000000
_cell_angle_gamma   90.00000000
_symmetry_Int_Tables_number   6
_chemical_formula_structural   Li4Y4Sn4Pb4C
_chemical_formula_sum   'Li4 Y4 Sn4 Pb4 C1'
_cell_volume   1493.44673734
_cell_formula_units_Z   1
loop_
 _symmetry_equiv_pos_site_id
 _symmetry_equiv_pos_as_xyz
  1  'x, y, z'
  2  'x, -y, z'
loop_
 _atom_site_type_symbol
 _atom_site_label
 _atom_site_symmetry_multiplicity
 _atom_site_fract_x
 _atom_site_fract_y
 _atom_site_fract_z
 _atom_site_occupancy
  Li  Li0  2  0.51453000  0.25000000  0.03355000  1.0
  Li  Li1  2  0.96259000  0.34169000  0.89782000  1.0
  Y  Y2  2  0.01453000  0.25000000  0.03355000  1.0
  Y  Y3  2  0.51978000  0.29014000  0.90200000  1.0
  Sn  Sn4  1  0.24418000  0.50000000  0.96919000  1.0
  Sn  Sn5  1  0.29901000  0.00000000  0.97164000  1.0
  Sn  Sn6  1  0.77180000  0.00000000  0.10064000  1.0
  Sn  Sn7  1  0.77180000  0.50000000  0.10064000  1.0
  Pb  Pb8  1  0.27180000  0.00000000  0.10064000  1.0
  Pb  Pb9  1  0.27180000  0.50000000  0.10064000  1.0
  Pb  Pb10  1  0.73492000  0.50000000  0.98173000  1.0
  Pb  Pb11  1  0.81247000  0.00000000  0.94358000  1.0
  C  C12  1  0.70634000  0.50000000  0.88395000  1.0
