# generated using pymatgen
data_Li8Al8Fe8Pd8C
_symmetry_space_group_name_H-M   'P 1'
_cell_length_a   5.67696000
_cell_length_b   8.84236000
_cell_length_c   26.45530000
_cell_angle_alpha   90.00000000
_cell_angle_beta   90.00000000
_cell_angle_gamma   90.00000000
_symmetry_Int_Tables_number   1
_chemical_formula_structural   Li8Al8Fe8Pd8C
_chemical_formula_sum   'Li8 Al8 Fe8 Pd8 C1'
_cell_volume   1327.99584841
_cell_formula_units_Z   1
loop_
 _symmetry_equiv_pos_site_id
 _symmetry_equiv_pos_as_xyz
  1  'x, y, z'
loop_
 _atom_site_type_symbol
 _atom_site_label
 _atom_site_symmetry_multiplicity
 _atom_site_fract_x
 _atom_site_fract_y
 _atom_site_fract_z
 _atom_site_occupancy
  Li  Li0  1  0.75227000  0.24994000  0.96116000  1.0
  Li  Li1  1  0.75000000  0.25000000  0.12200000  1.0
  Li  Li2  1  0.24773000  0.24994000  0.96116000  1.0
  Li  Li3  1  0.25000000  0.25000000  0.12200000  1.0
  Li  Li4  1  0.75227000  0.75006000  0.96116000  1.0
  Li  Li5  1  0.75000000  0.75000000  0.12200000  1.0
  Li  Li6  1  0.24773000  0.75006000  0.96116000  1.0
  Li  Li7  1  0.25000000  0.75000000  0.12200000  1.0
  Al  Al8  1  0.72378000  0.00000000  0.89069000  1.0
  Al  Al9  1  0.75000000  0.00000000  0.04067000  1.0
  Al  Al10  1  0.27622000  0.00000000  0.89069000  1.0
  Al  Al11  1  0.25000000  0.00000000  0.04067000  1.0
  Al  Al12  1  0.75674000  0.50000000  0.88870000  1.0
  Al  Al13  1  0.75000000  0.50000000  0.04067000  1.0
  Al  Al14  1  0.24326000  0.50000000  0.88870000  1.0
  Al  Al15  1  0.25000000  0.50000000  0.04067000  1.0
  Fe  Fe16  1  0.00000000  0.00000000  0.96406000  1.0
  Fe  Fe17  1  0.00000000  0.00000000  0.12200000  1.0
  Fe  Fe18  1  0.50000000  0.00000000  0.96622000  1.0
  Fe  Fe19  1  0.50000000  0.00000000  0.12200000  1.0
  Fe  Fe20  1  0.00000000  0.50000000  0.96366000  1.0
  Fe  Fe21  1  0.00000000  0.50000000  0.12200000  1.0
  Fe  Fe22  1  0.50000000  0.50000000  0.96406000  1.0
  Fe  Fe23  1  0.50000000  0.50000000  0.12200000  1.0
  Pd  Pd24  1  0.00000000  0.24779000  0.88047000  1.0
  Pd  Pd25  1  0.00000000  0.25000000  0.04067000  1.0
  Pd  Pd26  1  0.50000000  0.26108000  0.88371000  1.0
  Pd  Pd27  1  0.50000000  0.25000000  0.04067000  1.0
  Pd  Pd28  1  0.00000000  0.75221000  0.88047000  1.0
  Pd  Pd29  1  0.00000000  0.75000000  0.04067000  1.0
  Pd  Pd30  1  0.50000000  0.73892000  0.88371000  1.0
  Pd  Pd31  1  0.50000000  0.75000000  0.04067000  1.0
  C  C32  1  0.00000000  0.00000000  0.85103000  1.0
