# generated using pymatgen
data_Li8Al8Fe8Pd8C
_symmetry_space_group_name_H-M   Pmm2
_cell_length_a   5.67696000
_cell_length_b   8.84236000
_cell_length_c   26.45530000
_cell_angle_alpha   90.00000000
_cell_angle_beta   90.00000000
_cell_angle_gamma   90.00000000
_symmetry_Int_Tables_number   25
_chemical_formula_structural   Li8Al8Fe8Pd8C
_chemical_formula_sum   'Li8 Al8 Fe8 Pd8 C1'
_cell_volume   1327.99584841
_cell_formula_units_Z   1
loop_
 _symmetry_equiv_pos_site_id
 _symmetry_equiv_pos_as_xyz
  1  'x, y, z'
  2  '-x, -y, z'
  3  '-x, y, z'
  4  'x, -y, z'
loop_
 _atom_site_type_symbol
 _atom_site_label
 _atom_site_symmetry_multiplicity
 _atom_site_fract_x
 _atom_site_fract_y
 _atom_site_fract_z
 _atom_site_occupancy
  Li  Li0  4  0.24773000  0.24994000  0.96116000  1.0
  Li  Li1  4  0.25000000  0.25000000  0.12200000  1.0
  Al  Al2  2  0.24326000  0.50000000  0.88870000  1.0
  Al  Al3  2  0.25000000  0.00000000  0.04067000  1.0
  Al  Al4  2  0.25000000  0.50000000  0.04067000  1.0
  Al  Al5  2  0.27622000  0.00000000  0.89069000  1.0
  Fe  Fe6  1  0.00000000  0.00000000  0.12200000  1.0
  Fe  Fe7  1  0.00000000  0.00000000  0.96406000  1.0
  Fe  Fe8  1  0.00000000  0.50000000  0.12200000  1.0
  Fe  Fe9  1  0.00000000  0.50000000  0.96366000  1.0
  Fe  Fe10  1  0.50000000  0.00000000  0.12200000  1.0
  Fe  Fe11  1  0.50000000  0.00000000  0.96622000  1.0
  Fe  Fe12  1  0.50000000  0.50000000  0.12200000  1.0
  Fe  Fe13  1  0.50000000  0.50000000  0.96406000  1.0
  Pd  Pd14  2  0.00000000  0.24779000  0.88047000  1.0
  Pd  Pd15  2  0.00000000  0.25000000  0.04067000  1.0
  Pd  Pd16  2  0.50000000  0.25000000  0.04067000  1.0
  Pd  Pd17  2  0.50000000  0.26108000  0.88371000  1.0
  C  C18  1  0.00000000  0.00000000  0.85103000  1.0
