# generated using pymatgen
data_Mn24Pt8C
_symmetry_space_group_name_H-M   Pm
_cell_length_a   8.81047000
_cell_length_b   8.81047000
_cell_length_c   26.60790000
_cell_angle_alpha   90.00000000
_cell_angle_beta   90.00000000
_cell_angle_gamma   90.00000000
_symmetry_Int_Tables_number   6
_chemical_formula_structural   Mn24Pt8C
_chemical_formula_sum   'Mn24 Pt8 C1'
_cell_volume   2065.42178373
_cell_formula_units_Z   1
loop_
 _symmetry_equiv_pos_site_id
 _symmetry_equiv_pos_as_xyz
  1  'x, y, z'
  2  'x, -y, z'
loop_
 _atom_site_type_symbol
 _atom_site_label
 _atom_site_symmetry_multiplicity
 _atom_site_fract_x
 _atom_site_fract_y
 _atom_site_fract_z
 _atom_site_occupancy
  Mn  Mn0  2  -0.00000000  0.24999000  0.95861000  1.0
  Mn  Mn1  2  0.24783000  0.25402000  0.02007000  1.0
  Mn  Mn2  2  0.25000000  0.24999000  0.87583000  1.0
  Mn  Mn3  2  0.50000000  0.24999000  0.95861000  1.0
  Mn  Mn4  2  0.50102000  0.24799000  0.07677000  1.0
  Mn  Mn5  2  0.75000000  0.24999000  0.87583000  1.0
  Mn  Mn6  2  0.75473000  0.24404000  0.02029000  1.0
  Mn  Mn7  2  0.99859000  0.27150000  0.08177000  1.0
  Mn  Mn8  1  0.22602000  0.50000000  0.08301000  1.0
  Mn  Mn9  1  0.25000000  0.00000000  0.95861000  1.0
  Mn  Mn10  1  0.25000000  0.50000000  0.95861000  1.0
  Mn  Mn11  1  0.25165000  0.00000000  0.07748000  1.0
  Mn  Mn12  1  0.75000000  0.00000000  0.95861000  1.0
  Mn  Mn13  1  0.75000000  0.50000000  0.95861000  1.0
  Mn  Mn14  1  0.75108000  0.00000000  0.07566000  1.0
  Mn  Mn15  1  0.76967000  0.50000000  0.07905000  1.0
  Pt  Pt16  1  -0.00000000  0.00000000  0.87583000  1.0
  Pt  Pt17  1  0.00000000  0.50000000  0.87583000  1.0
  Pt  Pt18  1  0.00064000  0.50000000  0.01170000  1.0
  Pt  Pt19  1  0.00659000  0.00000000  0.02420000  1.0
  Pt  Pt20  1  0.49651000  0.00000000  0.01945000  1.0
  Pt  Pt21  1  0.49709000  0.50000000  0.02420000  1.0
  Pt  Pt22  1  0.50000000  0.00000000  0.87583000  1.0
  Pt  Pt23  1  0.50000000  0.50000000  0.87583000  1.0
  C  C24  1  0.99641000  0.50000000  0.09306000  1.0
