# generated using pymatgen
data_Li8Mg8In8Pd8CO
_symmetry_space_group_name_H-M   'P 1'
_cell_length_a   9.22454000
_cell_length_b   6.52273000
_cell_length_c   26.91840000
_cell_angle_alpha   90.00000000
_cell_angle_beta   90.00000000
_cell_angle_gamma   90.00000000
_symmetry_Int_Tables_number   1
_chemical_formula_structural   Li8Mg8In8Pd8CO
_chemical_formula_sum   'Li8 Mg8 In8 Pd8 C1 O1'
_cell_volume   1619.65815705
_cell_formula_units_Z   1
loop_
 _symmetry_equiv_pos_site_id
 _symmetry_equiv_pos_as_xyz
  1  'x, y, z'
loop_
 _atom_site_type_symbol
 _atom_site_label
 _atom_site_symmetry_multiplicity
 _atom_site_fract_x
 _atom_site_fract_y
 _atom_site_fract_z
 _atom_site_occupancy
  Li  Li0  1  0.00000000  0.25000000  0.04284000  1.0
  Li  Li1  1  0.50000000  0.25000000  0.04284000  1.0
  Li  Li2  1  0.25000000  0.75000000  0.12851000  1.0
  Li  Li3  1  0.75000000  0.75000000  0.12851000  1.0
  Li  Li4  1  0.50000000  0.26553000  0.85942000  1.0
  Li  Li5  1  0.00000000  0.23705000  0.85929000  1.0
  Li  Li6  1  0.74958000  0.74428000  0.95623000  1.0
  Li  Li7  1  0.25042000  0.74428000  0.95623000  1.0
  Mg  Mg8  1  0.25000000  1.00000000  0.04284000  1.0
  Mg  Mg9  1  0.75000000  1.00000000  0.04284000  1.0
  Mg  Mg10  1  0.50000000  0.50000000  0.12851000  1.0
  Mg  Mg11  1  0.00000000  0.50000000  0.12851000  1.0
  Mg  Mg12  1  0.74005000  0.98276000  0.86984000  1.0
  Mg  Mg13  1  0.25995000  0.98276000  0.86984000  1.0
  Mg  Mg14  1  0.00000000  0.49470000  0.95233000  1.0
  Mg  Mg15  1  0.50000000  0.49077000  0.95707000  1.0
  In  In16  1  0.00000000  0.00000000  0.12851000  1.0
  In  In17  1  0.50000000  1.00000000  0.12851000  1.0
  In  In18  1  0.75000000  0.50000000  0.04284000  1.0
  In  In19  1  0.25000000  0.50000000  0.04284000  1.0
  In  In20  1  0.50000000  0.00184000  0.95575000  1.0
  In  In21  1  0.00000000  0.99786000  0.95487000  1.0
  In  In22  1  0.24927000  0.49447000  0.86612000  1.0
  In  In23  1  0.75073000  0.49447000  0.86612000  1.0
  Pd  Pd24  1  0.00000000  0.75000000  0.04284000  1.0
  Pd  Pd25  1  0.50000000  0.75000000  0.04284000  1.0
  Pd  Pd26  1  0.25000000  0.25000000  0.12851000  1.0
  Pd  Pd27  1  0.75000000  0.25000000  0.12851000  1.0
  Pd  Pd28  1  0.50000000  0.73179000  0.87712000  1.0
  Pd  Pd29  1  0.00000000  0.76226000  0.86671000  1.0
  Pd  Pd30  1  0.75094000  0.24701000  0.95798000  1.0
  Pd  Pd31  1  0.24906000  0.24701000  0.95798000  1.0
  C  C32  1  0.00000000  0.80855000  0.79461000  1.0
  O  O33  1  0.00000000  0.81361000  0.75169000  1.0
