# generated using pymatgen
data_Li16Pb16C
_symmetry_space_group_name_H-M   Pmm2
_cell_length_a   7.21597000
_cell_length_b   10.20490000
_cell_length_c   27.65370000
_cell_angle_alpha   90.00000000
_cell_angle_beta   90.00000000
_cell_angle_gamma   90.00000000
_symmetry_Int_Tables_number   25
_chemical_formula_structural   Li16Pb16C
_chemical_formula_sum   'Li16 Pb16 C1'
_cell_volume   2036.37013633
_cell_formula_units_Z   1
loop_
 _symmetry_equiv_pos_site_id
 _symmetry_equiv_pos_as_xyz
  1  'x, y, z'
  2  '-x, -y, z'
  3  '-x, y, z'
  4  'x, -y, z'
loop_
 _atom_site_type_symbol
 _atom_site_label
 _atom_site_symmetry_multiplicity
 _atom_site_fract_x
 _atom_site_fract_y
 _atom_site_fract_z
 _atom_site_occupancy
  Li  Li0  2  0.00000000  0.21201000  0.15576000  1.0
  Li  Li1  2  0.00000000  0.25000000  0.95387000  1.0
  Li  Li2  2  0.50000000  0.25000000  0.95387000  1.0
  Li  Li3  2  0.50000000  0.26361000  0.13574000  1.0
  Li  Li4  1  0.00000000  0.00000000  0.04882000  1.0
  Li  Li5  1  0.00000000  0.00000000  0.86162000  1.0
  Li  Li6  1  0.00000000  0.50000000  0.04196000  1.0
  Li  Li7  1  0.00000000  0.50000000  0.86162000  1.0
  Li  Li8  1  0.50000000  0.00000000  0.04150000  1.0
  Li  Li9  1  0.50000000  0.00000000  0.86162000  1.0
  Li  Li10  1  0.50000000  0.50000000  0.04706000  1.0
  Li  Li11  1  0.50000000  0.50000000  0.86162000  1.0
  Pb  Pb12  4  0.23423000  0.25464000  0.05153000  1.0
  Pb  Pb13  4  0.25000000  0.25000000  0.86162000  1.0
  Pb  Pb14  2  0.23692000  0.50000000  0.13805000  1.0
  Pb  Pb15  2  0.25000000  0.00000000  0.95387000  1.0
  Pb  Pb16  2  0.25000000  0.50000000  0.95387000  1.0
  Pb  Pb17  2  0.27255000  0.00000000  0.13711000  1.0
  C  C18  1  0.00000000  0.00000000  0.17233000  1.0
