# generated using pymatgen
data_Li8Mg8Ga8Pd8C
_symmetry_space_group_name_H-M   P1
_cell_length_a   6.27706000
_cell_length_b   8.87710000
_cell_length_c   26.65780000
_cell_angle_alpha   90.00000000
_cell_angle_beta   90.00000000
_cell_angle_gamma   90.00000000
_symmetry_Int_Tables_number   1
_chemical_formula_structural   Li8Mg8Ga8Pd8C
_chemical_formula_sum   'Li8 Mg8 Ga8 Pd8 C1'
_cell_volume   1485.42831283
_cell_formula_units_Z   1
loop_
 _symmetry_equiv_pos_site_id
 _symmetry_equiv_pos_as_xyz
  1  'x, y, z'
loop_
 _atom_site_type_symbol
 _atom_site_label
 _atom_site_symmetry_multiplicity
 _atom_site_fract_x
 _atom_site_fract_y
 _atom_site_fract_z
 _atom_site_occupancy
  Li  Li0  1  0.25000000  0.00000000  0.95837000  1.0
  Li  Li1  1  0.25000000  0.50000000  0.95837000  1.0
  Li  Li2  1  0.29137000  0.97517000  0.14074000  1.0
  Li  Li3  1  0.29139000  0.52484000  0.14069000  1.0
  Li  Li4  1  0.75000000  0.25000000  0.87512000  1.0
  Li  Li5  1  0.75000000  0.75000000  0.87512000  1.0
  Li  Li6  1  0.75295000  0.24999000  0.05247000  1.0
  Li  Li7  1  0.75508000  0.75001000  0.03916000  1.0
  Mg  Mg8  1  -0.00000000  0.25000000  0.95837000  1.0
  Mg  Mg9  1  -0.00000000  0.75000000  0.95837000  1.0
  Mg  Mg10  1  0.06069000  0.24999000  0.12750000  1.0
  Mg  Mg11  1  0.49438000  0.99902000  0.04227000  1.0
  Mg  Mg12  1  0.49443000  0.50099000  0.04226000  1.0
  Mg  Mg13  1  0.50000000  0.00000000  0.87512000  1.0
  Mg  Mg14  1  0.50000000  0.50000000  0.87512000  1.0
  Mg  Mg15  1  0.97687000  0.74998000  0.12600000  1.0
  Ga  Ga16  1  0.00000000  0.00000000  0.87512000  1.0
  Ga  Ga17  1  0.00000000  0.50000000  0.87512000  1.0
  Ga  Ga18  1  0.00762000  0.49942000  0.04517000  1.0
  Ga  Ga19  1  0.00763000  0.00059000  0.04518000  1.0
  Ga  Ga20  1  0.45010000  0.25001000  0.15690000  1.0
  Ga  Ga21  1  0.50000000  0.25000000  0.95837000  1.0
  Ga  Ga22  1  0.50000000  0.75000000  0.95837000  1.0
  Ga  Ga23  1  0.53785000  0.75000000  0.12376000  1.0
  Pd  Pd24  1  0.24765000  0.74999000  0.04310000  1.0
  Pd  Pd25  1  0.24842000  0.25001000  0.03592000  1.0
  Pd  Pd26  1  0.25000000  0.25000000  0.87512000  1.0
  Pd  Pd27  1  0.25000000  0.75000000  0.87512000  1.0
  Pd  Pd28  1  0.73987000  0.01579000  0.12176000  1.0
  Pd  Pd29  1  0.73987000  0.48417000  0.12176000  1.0
  Pd  Pd30  1  0.75000000  0.00000000  0.95837000  1.0
  Pd  Pd31  1  0.75000000  0.50000000  0.95837000  1.0
  C  C32  1  0.73766000  0.24998000  0.13807000  1.0
