# generated using pymatgen
data_Al8V8Co16CO
_symmetry_space_group_name_H-M   Pmm2
_cell_length_a   5.76795000
_cell_length_b   8.15711000
_cell_length_c   26.11780000
_cell_angle_alpha   90.00000000
_cell_angle_beta   90.00000000
_cell_angle_gamma   90.00000000
_symmetry_Int_Tables_number   25
_chemical_formula_structural   Al8V8Co16CO
_chemical_formula_sum   'Al8 V8 Co16 C1 O1'
_cell_volume   1228.83733499
_cell_formula_units_Z   1
loop_
 _symmetry_equiv_pos_site_id
 _symmetry_equiv_pos_as_xyz
  1  'x, y, z'
  2  '-x, -y, z'
  3  '-x, y, z'
  4  'x, -y, z'
loop_
 _atom_site_type_symbol
 _atom_site_label
 _atom_site_symmetry_multiplicity
 _atom_site_fract_x
 _atom_site_fract_y
 _atom_site_fract_z
 _atom_site_occupancy
  Al  Al0  2  0.00000000  0.24965000  0.03995000  1.0
  Al  Al1  2  0.00000000  0.25000000  0.88288000  1.0
  Al  Al2  1  0.50000000  0.00000000  0.11896000  1.0
  Al  Al3  1  0.50000000  0.00000000  0.96096000  1.0
  Al  Al4  1  0.50000000  0.50000000  0.11945000  1.0
  Al  Al5  1  0.50000000  0.50000000  0.96096000  1.0
  V  V6  2  0.50000000  0.24942000  0.04205000  1.0
  V  V7  2  0.50000000  0.25000000  0.88288000  1.0
  V  V8  1  0.00000000  0.00000000  0.11509000  1.0
  V  V9  1  0.00000000  0.00000000  0.96096000  1.0
  V  V10  1  0.00000000  0.50000000  0.11732000  1.0
  V  V11  1  0.00000000  0.50000000  0.96096000  1.0
  Co  Co12  4  0.24734000  0.25079000  0.11398000  1.0
  Co  Co13  4  0.25000000  0.25000000  0.96096000  1.0
  Co  Co14  2  0.24800000  0.50000000  0.03904000  1.0
  Co  Co15  2  0.25000000  0.00000000  0.88288000  1.0
  Co  Co16  2  0.25000000  0.50000000  0.88288000  1.0
  Co  Co17  2  0.25163000  0.00000000  0.03778000  1.0
  C  C18  1  0.00000000  0.00000000  0.19154000  1.0
  O  O19  1  0.00000000  0.00000000  0.23596000  1.0
