data_image0
_chemical_formula_structural       NaBiNaBiNaBiNaBiNaBiNaBiNaBiNaBiNaBiNaBiNaBiNaBiNaBiNaBiNaBiNaBi
_chemical_formula_sum              "Na16 Bi16"
_cell_length_a       9.8965
_cell_length_b       9.78514
_cell_length_c       27.4224
_cell_angle_alpha    90
_cell_angle_beta     90
_cell_angle_gamma    90

_space_group_name_H-M_alt    "P 1"
_space_group_IT_number       1

loop_
  _space_group_symop_operation_xyz
  'x, y, z'

loop_
  _atom_site_type_symbol
  _atom_site_label
  _atom_site_symmetry_multiplicity
  _atom_site_fract_x
  _atom_site_fract_y
  _atom_site_fract_z
  _atom_site_occupancy
  Na  Na1       1.0  0.25000  0.25000  0.86467  1.0000
  Bi  Bi1       1.0  0.00000  0.00000  0.86467  1.0000
  Na  Na2       1.0  0.50000  0.25000  0.95489  1.0000
  Bi  Bi2       1.0  0.25000  0.00000  0.95489  1.0000
  Na  Na3       1.0  0.25000  0.25000  0.04511  1.0000
  Bi  Bi3       1.0  0.50000  0.00000  0.04511  1.0000
  Na  Na4       1.0  0.50000  0.25000  0.13533  1.0000
  Bi  Bi4       1.0  0.25000  0.00000  0.13533  1.0000
  Na  Na5       1.0  0.25000  0.75000  0.86467  1.0000
  Bi  Bi5       1.0  0.00000  0.50000  0.86467  1.0000
  Na  Na6       1.0  0.50000  0.75000  0.95489  1.0000
  Bi  Bi6       1.0  0.25000  0.50000  0.95489  1.0000
  Na  Na7       1.0  0.25000  0.75000  0.04511  1.0000
  Bi  Bi7       1.0  0.50000  0.50000  0.04511  1.0000
  Na  Na8       1.0  0.50000  0.75000  0.13533  1.0000
  Bi  Bi8       1.0  0.25000  0.50000  0.13533  1.0000
  Na  Na9       1.0  0.75000  0.25000  0.86467  1.0000
  Bi  Bi9       1.0  0.50000  0.00000  0.86467  1.0000
  Na  Na10      1.0  0.00000  0.25000  0.95489  1.0000
  Bi  Bi10      1.0  0.75000  0.00000  0.95489  1.0000
  Na  Na11      1.0  0.75000  0.25000  0.04511  1.0000
  Bi  Bi11      1.0  0.00000  0.00000  0.04511  1.0000
  Na  Na12      1.0  0.00000  0.25000  0.13533  1.0000
  Bi  Bi12      1.0  0.75000  0.00000  0.13533  1.0000
  Na  Na13      1.0  0.75000  0.75000  0.86467  1.0000
  Bi  Bi13      1.0  0.50000  0.50000  0.86467  1.0000
  Na  Na14      1.0  0.00000  0.75000  0.95489  1.0000
  Bi  Bi14      1.0  0.75000  0.50000  0.95489  1.0000
  Na  Na15      1.0  0.75000  0.75000  0.04511  1.0000
  Bi  Bi15      1.0  0.00000  0.50000  0.04511  1.0000
  Na  Na16      1.0  0.00000  0.75000  0.13533  1.0000
  Bi  Bi16      1.0  0.75000  0.50000  0.13533  1.0000
