# generated using pymatgen
data_NaBi
_symmetry_space_group_name_H-M   Pmma
_cell_length_a   4.94825000
_cell_length_b   4.89257000
_cell_length_c   27.42240000
_cell_angle_alpha   90.00000000
_cell_angle_beta   90.00000000
_cell_angle_gamma   90.00000000
_symmetry_Int_Tables_number   51
_chemical_formula_structural   NaBi
_chemical_formula_sum   'Na4 Bi4'
_cell_volume   663.88696674
_cell_formula_units_Z   4
loop_
 _symmetry_equiv_pos_site_id
 _symmetry_equiv_pos_as_xyz
  1  'x, y, z'
  2  '-x, -y, -z'
  3  '-x+1/2, -y, z'
  4  'x+1/2, y, -z'
  5  'x+1/2, -y, -z'
  6  '-x+1/2, y, z'
  7  '-x, y, -z'
  8  'x, -y, z'
loop_
 _atom_site_type_symbol
 _atom_site_label
 _atom_site_symmetry_multiplicity
 _atom_site_fract_x
 _atom_site_fract_y
 _atom_site_fract_z
 _atom_site_occupancy
  Na  Na0  2  0.25000000  0.50000000  0.04511000  1.0
  Na  Na1  2  0.25000000  0.50000000  0.86467000  1.0
  Bi  Bi2  2  0.25000000  0.00000000  0.13533000  1.0
  Bi  Bi3  2  0.25000000  0.00000000  0.95489000  1.0
