# generated using pymatgen
data_Li8Ni16Sn8CO
_symmetry_space_group_name_H-M   Pmm2
_cell_length_a   6.05884000
_cell_length_b   8.56849000
_cell_length_c   26.42640000
_cell_angle_alpha   90.00000000
_cell_angle_beta   90.00000000
_cell_angle_gamma   90.00000000
_symmetry_Int_Tables_number   25
_chemical_formula_structural   Li8Ni16Sn8CO
_chemical_formula_sum   'Li8 Ni16 Sn8 C1 O1'
_cell_volume   1371.92946162
_cell_formula_units_Z   1
loop_
 _symmetry_equiv_pos_site_id
 _symmetry_equiv_pos_as_xyz
  1  'x, y, z'
  2  '-x, -y, z'
  3  '-x, y, z'
  4  'x, -y, z'
loop_
 _atom_site_type_symbol
 _atom_site_label
 _atom_site_symmetry_multiplicity
 _atom_site_fract_x
 _atom_site_fract_y
 _atom_site_fract_z
 _atom_site_occupancy
  Li  Li0  2  0.00000000  0.24780000  0.03447000  1.0
  Li  Li1  2  0.00000000  0.25001000  0.87841000  1.0
  Li  Li2  1  0.50000000  0.00000000  0.13129000  1.0
  Li  Li3  1  0.50000000  0.00000000  0.95947000  1.0
  Li  Li4  1  0.50000000  0.50000000  0.12796000  1.0
  Li  Li5  1  0.50000000  0.50000000  0.95947000  1.0
  Ni  Ni6  4  0.21475000  0.25133000  0.11107000  1.0
  Ni  Ni7  4  0.25000000  0.25001000  0.95947000  1.0
  Ni  Ni8  2  0.23881000  0.50000000  0.04379000  1.0
  Ni  Ni9  2  0.24481000  0.00000000  0.04332000  1.0
  Ni  Ni10  2  0.25000000  0.00000000  0.87841000  1.0
  Ni  Ni11  2  0.25000000  0.50000000  0.87841000  1.0
  Sn  Sn12  2  0.50000000  0.25001000  0.87841000  1.0
  Sn  Sn13  2  0.50000000  0.25092000  0.04009000  1.0
  Sn  Sn14  1  0.00000000  0.00000000  0.12864000  1.0
  Sn  Sn15  1  0.00000000  0.00000000  0.95947000  1.0
  Sn  Sn16  1  0.00000000  0.50000000  0.13171000  1.0
  Sn  Sn17  1  0.00000000  0.50000000  0.95947000  1.0
  C  C18  1  0.50000000  0.00000000  0.21224000  1.0
  O  O19  1  0.50000000  0.00000000  0.25533000  1.0
