# generated using pymatgen
data_LiInPdPt
_symmetry_space_group_name_H-M   'P 1'
_cell_length_a   6.39502000
_cell_length_b   4.52196000
_cell_length_c   26.78290000
_cell_angle_alpha   90.00000000
_cell_angle_beta   90.00000000
_cell_angle_gamma   90.00000000
_symmetry_Int_Tables_number   1
_chemical_formula_structural   LiInPdPt
_chemical_formula_sum   'Li4 In4 Pd4 Pt4'
_cell_volume   774.50856211
_cell_formula_units_Z   4
loop_
 _symmetry_equiv_pos_site_id
 _symmetry_equiv_pos_as_xyz
  1  'x, y, z'
loop_
 _atom_site_type_symbol
 _atom_site_label
 _atom_site_symmetry_multiplicity
 _atom_site_fract_x
 _atom_site_fract_y
 _atom_site_fract_z
 _atom_site_occupancy
  Li  Li0  1  0.00000000  0.50000000  0.95779000  1.0
  Li  Li1  1  0.50000000  0.00000000  0.87337000  1.0
  Li  Li2  1  0.99458500  0.50000000  0.13176000  1.0
  Li  Li3  1  0.50125000  0.00000000  0.04067000  1.0
  In  In4  1  0.00000000  0.00000000  0.87337000  1.0
  In  In5  1  0.50000000  0.50000000  0.95779000  1.0
  In  In6  1  0.00196000  0.00000000  0.04103000  1.0
  In  In7  1  0.50328000  0.50000000  0.13572000  1.0
  Pd  Pd8  1  0.25000000  0.00000000  0.95779000  1.0
  Pd  Pd9  1  0.75000000  0.50000000  0.87337000  1.0
  Pd  Pd10  1  0.26344000  0.00000000  0.12104000  1.0
  Pd  Pd11  1  0.74752000  0.50000000  0.04340000  1.0
  Pt  Pt12  1  0.75000000  0.00000000  0.95779000  1.0
  Pt  Pt13  1  0.25000000  0.50000000  0.87337000  1.0
  Pt  Pt14  1  0.73625000  0.00000000  0.11991000  1.0
  Pt  Pt15  1  0.25597500  0.50000000  0.04474000  1.0
