# generated using pymatgen
data_Ti16Pt16CO
_symmetry_space_group_name_H-M   Pmm2
_cell_length_a   6.37073000
_cell_length_b   9.00957000
_cell_length_c   26.75720000
_cell_angle_alpha   90.00000000
_cell_angle_beta   90.00000000
_cell_angle_gamma   90.00000000
_symmetry_Int_Tables_number   25
_chemical_formula_structural   Ti16Pt16CO
_chemical_formula_sum   'Ti16 Pt16 C1 O1'
_cell_volume   1535.79740073
_cell_formula_units_Z   1
loop_
 _symmetry_equiv_pos_site_id
 _symmetry_equiv_pos_as_xyz
  1  'x, y, z'
  2  '-x, -y, z'
  3  '-x, y, z'
  4  'x, -y, z'
loop_
 _atom_site_type_symbol
 _atom_site_label
 _atom_site_symmetry_multiplicity
 _atom_site_fract_x
 _atom_site_fract_y
 _atom_site_fract_z
 _atom_site_occupancy
  Ti  Ti0  2  0.00000000  0.23583000  0.03998000  1.0
  Ti  Ti1  2  0.00000000  0.25000000  0.87373000  1.0
  Ti  Ti2  2  0.50000000  0.25000000  0.87373000  1.0
  Ti  Ti3  2  0.50000000  0.26346000  0.03968000  1.0
  Ti  Ti4  1  0.00000000  0.00000000  0.12864000  1.0
  Ti  Ti5  1  0.00000000  0.00000000  0.95791000  1.0
  Ti  Ti6  1  0.00000000  0.50000000  0.13118000  1.0
  Ti  Ti7  1  0.00000000  0.50000000  0.95791000  1.0
  Ti  Ti8  1  0.50000000  0.00000000  0.13128000  1.0
  Ti  Ti9  1  0.50000000  0.00000000  0.95791000  1.0
  Ti  Ti10  1  0.50000000  0.50000000  0.12349000  1.0
  Ti  Ti11  1  0.50000000  0.50000000  0.95791000  1.0
  Pt  Pt12  4  0.24937000  0.25029000  0.11872000  1.0
  Pt  Pt13  4  0.25000000  0.25000000  0.95791000  1.0
  Pt  Pt14  2  0.21733000  0.50000000  0.04645000  1.0
  Pt  Pt15  2  0.25000000  0.00000000  0.87373000  1.0
  Pt  Pt16  2  0.25000000  0.50000000  0.87373000  1.0
  Pt  Pt17  2  0.28055000  0.00000000  0.04647000  1.0
  C  C18  1  0.00000000  0.00000000  0.20741000  1.0
  O  O19  1  0.00000000  0.00000000  0.25056000  1.0
