# generated using pymatgen
data_Na8Li16Sb8C
_symmetry_space_group_name_H-M   P1
_cell_length_a   6.84524000
_cell_length_b   9.68063000
_cell_length_c   27.26050000
_cell_angle_alpha   90.00000000
_cell_angle_beta   90.00000000
_cell_angle_gamma   90.00000000
_symmetry_Int_Tables_number   1
_chemical_formula_structural   Na8Li16Sb8C
_chemical_formula_sum   'Na8 Li16 Sb8 C1'
_cell_volume   1806.45071833
_cell_formula_units_Z   1
loop_
 _symmetry_equiv_pos_site_id
 _symmetry_equiv_pos_as_xyz
  1  'x, y, z'
loop_
 _atom_site_type_symbol
 _atom_site_label
 _atom_site_symmetry_multiplicity
 _atom_site_fract_x
 _atom_site_fract_y
 _atom_site_fract_z
 _atom_site_occupancy
  Na  Na0  1  0.00000000  0.00000000  0.86683000  1.0
  Na  Na1  1  0.00000000  0.50000000  0.86683000  1.0
  Na  Na2  1  0.00988000  0.49753000  0.04220000  1.0
  Na  Na3  1  0.00996000  0.00238000  0.04220000  1.0
  Na  Na4  1  0.48447000  0.75004000  0.14172000  1.0
  Na  Na5  1  0.50000000  0.25000000  0.95561000  1.0
  Na  Na6  1  0.50000000  0.75000000  0.95561000  1.0
  Na  Na7  1  0.54339000  0.25000000  0.19906000  1.0
  Li  Li8  1  0.17977000  0.02873000  0.15296000  1.0
  Li  Li9  1  0.17980000  0.47124000  0.15295000  1.0
  Li  Li10  1  0.25000000  0.00000000  0.95561000  1.0
  Li  Li11  1  0.25000000  0.25000000  0.86683000  1.0
  Li  Li12  1  0.25000000  0.50000000  0.95561000  1.0
  Li  Li13  1  0.25000000  0.75000000  0.86683000  1.0
  Li  Li14  1  0.25631000  0.74998000  0.04856000  1.0
  Li  Li15  1  0.29923000  0.24999000  0.07181000  1.0
  Li  Li16  1  0.71512000  0.25001000  0.04371000  1.0
  Li  Li17  1  0.73759000  0.75000000  0.04574000  1.0
  Li  Li18  1  0.75000000  0.00000000  0.95561000  1.0
  Li  Li19  1  0.75000000  0.25000000  0.86683000  1.0
  Li  Li20  1  0.75000000  0.50000000  0.95561000  1.0
  Li  Li21  1  0.75000000  0.75000000  0.86683000  1.0
  Li  Li22  1  0.75706000  0.51811000  0.12570000  1.0
  Li  Li23  1  0.75711000  0.98202000  0.12570000  1.0
  Sb  Sb24  1  0.00000000  0.25000000  0.95561000  1.0
  Sb  Sb25  1  0.00000000  0.75000000  0.95561000  1.0
  Sb  Sb26  1  0.49580000  0.50945000  0.04501000  1.0
  Sb  Sb27  1  0.49582000  0.99055000  0.04503000  1.0
  Sb  Sb28  1  0.50000000  0.00000000  0.86683000  1.0
  Sb  Sb29  1  0.50000000  0.50000000  0.86683000  1.0
  Sb  Sb30  1  0.92403000  0.25003000  0.13792000  1.0
  Sb  Sb31  1  0.99688000  0.75001000  0.13653000  1.0
  C  C32  1  0.22501000  0.24997000  0.15842000  1.0
