data_image0
_chemical_formula_structural       CrPt3CrPt3CrPt3CrPt3CO
_chemical_formula_sum              "Cr4 Pt12 C1 O1"
_cell_length_a       7.90097
_cell_length_b       5.58683
_cell_length_c       24.1901
_cell_angle_alpha    90
_cell_angle_beta     90
_cell_angle_gamma    90

_space_group_name_H-M_alt    "P 1"
_space_group_IT_number       1

loop_
  _space_group_symop_operation_xyz
  'x, y, z'

loop_
  _atom_site_type_symbol
  _atom_site_label
  _atom_site_symmetry_multiplicity
  _atom_site_fract_x
  _atom_site_fract_y
  _atom_site_fract_z
  _atom_site_occupancy
  Cr  Cr1       1.0  0.00000  0.00000  0.91339  1.0000
  Pt  Pt1       1.0  0.00000  0.50000  0.91339  1.0000
  Pt  Pt2       1.0  0.25000  0.75000  0.97113  1.0000
  Pt  Pt3       1.0  0.25000  0.25000  0.97113  1.0000
  Cr  Cr2       1.0  0.00000  0.50000  0.02887  1.0000
  Pt  Pt4       1.0  0.00000  0.00000  0.02887  1.0000
  Pt  Pt5       1.0  0.25000  0.25000  0.08661  1.0000
  Pt  Pt6       1.0  0.25000  0.75000  0.08661  1.0000
  Cr  Cr3       1.0  0.50000  0.00000  0.91339  1.0000
  Pt  Pt7       1.0  0.50000  0.50000  0.91339  1.0000
  Pt  Pt8       1.0  0.75000  0.75000  0.97113  1.0000
  Pt  Pt9       1.0  0.75000  0.25000  0.97113  1.0000
  Cr  Cr4       1.0  0.50000  0.50000  0.02887  1.0000
  Pt  Pt10      1.0  0.50000  0.00000  0.02887  1.0000
  Pt  Pt11      1.0  0.75000  0.25000  0.08661  1.0000
  Pt  Pt12      1.0  0.75000  0.75000  0.08661  1.0000
  C   C1        1.0  0.25000  0.25000  0.16515  1.0000
  O   O1        1.0  0.25000  0.25000  0.21269  1.0000
