# generated using pymatgen
data_VGaCo2
_symmetry_space_group_name_H-M   'P 1'
_cell_length_a   4.08685000
_cell_length_b   5.77968000
_cell_length_c   26.13030000
_cell_angle_alpha   90.00000000
_cell_angle_beta   90.00000000
_cell_angle_gamma   90.00000000
_symmetry_Int_Tables_number   1
_chemical_formula_structural   VGaCo2
_chemical_formula_sum   'V4 Ga4 Co8'
_cell_volume   617.21559069
_cell_formula_units_Z   4
loop_
 _symmetry_equiv_pos_site_id
 _symmetry_equiv_pos_as_xyz
  1  'x, y, z'
loop_
 _atom_site_type_symbol
 _atom_site_label
 _atom_site_symmetry_multiplicity
 _atom_site_fract_x
 _atom_site_fract_y
 _atom_site_fract_z
 _atom_site_occupancy
  V  V0  1  0.00000000  0.00000000  0.11730000  1.0
  V  V1  1  0.50000000  0.50000000  0.03910000  1.0
  V  V2  1  0.00000000  0.00000000  0.95813000  1.0
  V  V3  1  0.50000000  0.50000000  0.88475000  1.0
  Ga  Ga4  1  0.50000000  0.00000000  0.03910000  1.0
  Ga  Ga5  1  0.00000000  0.50000000  0.11730000  1.0
  Ga  Ga6  1  0.50000000  0.00000000  0.87486000  1.0
  Ga  Ga7  1  0.00000000  0.50000000  0.96254000  1.0
  Co  Co8  1  0.00000000  0.75000000  0.03910000  1.0
  Co  Co9  1  0.00000000  0.25000000  0.03910000  1.0
  Co  Co10  1  0.50000000  0.25000000  0.11730000  1.0
  Co  Co11  1  0.50000000  0.75000000  0.11730000  1.0
  Co  Co12  1  0.00000000  0.74910500  0.88804000  1.0
  Co  Co13  1  0.00000000  0.25089500  0.88804000  1.0
  Co  Co14  1  0.50000000  0.24874000  0.96027000  1.0
  Co  Co15  1  0.50000000  0.75126000  0.96027000  1.0
