# generated using pymatgen
data_Li2AgPb
_symmetry_space_group_name_H-M   'P 1'
_cell_length_a   6.84524000
_cell_length_b   6.84524000
_cell_length_c   25.13390000
_cell_angle_alpha   90.00000000
_cell_angle_beta   90.00000000
_cell_angle_gamma   90.00000000
_symmetry_Int_Tables_number   1
_chemical_formula_structural   Li2AgPb
_chemical_formula_sum   'Li8 Ag4 Pb4'
_cell_volume   1177.70696034
_cell_formula_units_Z   4
loop_
 _symmetry_equiv_pos_site_id
 _symmetry_equiv_pos_as_xyz
  1  'x, y, z'
loop_
 _atom_site_type_symbol
 _atom_site_label
 _atom_site_symmetry_multiplicity
 _atom_site_fract_x
 _atom_site_fract_y
 _atom_site_fract_z
 _atom_site_occupancy
  Li  Li0  1  0.00001000  0.99999000  0.03136000  1.0
  Li  Li1  1  0.50000000  0.00000000  0.89787000  1.0
  Li  Li2  1  0.00000000  0.50000000  0.89787000  1.0
  Li  Li3  1  0.49998000  0.50000000  0.03136000  1.0
  Li  Li4  1  0.24993000  0.25012000  0.11062000  1.0
  Li  Li5  1  0.25000000  0.75000000  0.96596000  1.0
  Li  Li6  1  0.75006000  0.74988000  0.11062000  1.0
  Li  Li7  1  0.75000000  0.25000000  0.96596000  1.0
  Ag  Ag8  1  0.25000000  0.25000000  0.96596000  1.0
  Ag  Ag9  1  0.24996000  0.74988000  0.10260000  1.0
  Ag  Ag10  1  0.75000000  0.75000000  0.96596000  1.0
  Ag  Ag11  1  0.75002000  0.25013000  0.10263000  1.0
  Pb  Pb12  1  0.00000000  0.00000000  0.89787000  1.0
  Pb  Pb13  1  0.50000000  0.50000000  0.89787000  1.0
  Pb  Pb14  1  0.50030000  0.00018000  0.03922000  1.0
  Pb  Pb15  1  0.99977000  0.49985000  0.03916000  1.0
