data_image0
_chemical_formula_structural       Ca8Pb8CO
_chemical_formula_sum              "Ca8 Pb8 C1 O1"
_cell_length_a       7.36738
_cell_length_b       7.36738
_cell_length_c       26.8904
_cell_angle_alpha    90
_cell_angle_beta     90
_cell_angle_gamma    90

_space_group_name_H-M_alt    "P 1"
_space_group_IT_number       1

loop_
  _space_group_symop_operation_xyz
  'x, y, z'

loop_
  _atom_site_type_symbol
  _atom_site_label
  _atom_site_symmetry_multiplicity
  _atom_site_fract_x
  _atom_site_fract_y
  _atom_site_fract_z
  _atom_site_occupancy
  Ca  Ca1       1.0  0.25000  0.25000  0.92843  1.0000
  Ca  Ca2       1.0  0.25012  0.24989  0.08335  1.0000
  Ca  Ca3       1.0  0.25000  0.75000  0.92843  1.0000
  Ca  Ca4       1.0  0.24996  0.74999  0.08995  1.0000
  Ca  Ca5       1.0  0.75000  0.25000  0.92843  1.0000
  Ca  Ca6       1.0  0.75018  0.24991  0.09058  1.0000
  Ca  Ca7       1.0  0.75000  0.75000  0.92843  1.0000
  Ca  Ca8       1.0  0.75011  0.74994  0.08954  1.0000
  Pb  Pb1       1.0  0.00000  0.00000  0.84302  1.0000
  Pb  Pb2       1.0  0.99524  0.99521  0.01293  1.0000
  Pb  Pb3       1.0  0.00000  0.50000  0.84302  1.0000
  Pb  Pb4       1.0  0.99510  0.50442  0.01297  1.0000
  Pb  Pb5       1.0  0.50000  0.00000  0.84302  1.0000
  Pb  Pb6       1.0  0.50514  0.99532  0.01294  1.0000
  Pb  Pb7       1.0  0.50000  0.50000  0.84302  1.0000
  Pb  Pb8       1.0  0.50487  0.50478  0.01294  1.0000
  C   C1        1.0  0.24990  0.24989  0.17716  1.0000
  O   O1        1.0  0.24981  0.24962  0.22019  1.0000
