# generated using pymatgen
data_Ca8Pb8CO
_symmetry_space_group_name_H-M   'P 1'
_cell_length_a   7.36738000
_cell_length_b   7.36738000
_cell_length_c   26.89040000
_cell_angle_alpha   90.00000000
_cell_angle_beta   90.00000000
_cell_angle_gamma   90.00000000
_symmetry_Int_Tables_number   1
_chemical_formula_structural   Ca8Pb8CO
_chemical_formula_sum   'Ca8 Pb8 C1 O1'
_cell_volume   1459.56487737
_cell_formula_units_Z   1
loop_
 _symmetry_equiv_pos_site_id
 _symmetry_equiv_pos_as_xyz
  1  'x, y, z'
loop_
 _atom_site_type_symbol
 _atom_site_label
 _atom_site_symmetry_multiplicity
 _atom_site_fract_x
 _atom_site_fract_y
 _atom_site_fract_z
 _atom_site_occupancy
  Ca  Ca0  1  0.25000000  0.25000000  0.92843000  1.0
  Ca  Ca1  1  0.25012000  0.24989000  0.08335000  1.0
  Ca  Ca2  1  0.25000000  0.75000000  0.92843000  1.0
  Ca  Ca3  1  0.24996000  0.74999000  0.08995000  1.0
  Ca  Ca4  1  0.75000000  0.25000000  0.92843000  1.0
  Ca  Ca5  1  0.75018000  0.24991000  0.09058000  1.0
  Ca  Ca6  1  0.75000000  0.75000000  0.92843000  1.0
  Ca  Ca7  1  0.75011000  0.74994000  0.08954000  1.0
  Pb  Pb8  1  0.00000000  0.00000000  0.84302000  1.0
  Pb  Pb9  1  0.99524000  0.99521000  0.01293000  1.0
  Pb  Pb10  1  0.00000000  0.50000000  0.84302000  1.0
  Pb  Pb11  1  0.99510000  0.50442000  0.01297000  1.0
  Pb  Pb12  1  0.50000000  0.00000000  0.84302000  1.0
  Pb  Pb13  1  0.50514000  0.99532000  0.01294000  1.0
  Pb  Pb14  1  0.50000000  0.50000000  0.84302000  1.0
  Pb  Pb15  1  0.50487000  0.50478000  0.01294000  1.0
  C  C16  1  0.24990000  0.24989000  0.17716000  1.0
  O  O17  1  0.24981000  0.24962000  0.22019000  1.0
