# generated using pymatgen
data_LiCo2Ge
_symmetry_space_group_name_H-M   'P 1'
_cell_length_a   7.97982000
_cell_length_b   5.64259000
_cell_length_c   25.98490000
_cell_angle_alpha   90.00000000
_cell_angle_beta   90.00000000
_cell_angle_gamma   90.00000000
_symmetry_Int_Tables_number   1
_chemical_formula_structural   LiCo2Ge
_chemical_formula_sum   'Li8 Co16 Ge8'
_cell_volume   1170.01826041
_cell_formula_units_Z   8
loop_
 _symmetry_equiv_pos_site_id
 _symmetry_equiv_pos_as_xyz
  1  'x, y, z'
loop_
 _atom_site_type_symbol
 _atom_site_label
 _atom_site_symmetry_multiplicity
 _atom_site_fract_x
 _atom_site_fract_y
 _atom_site_fract_z
 _atom_site_occupancy
  Li  Li0  1  0.00000000  0.00000000  0.11516000  1.0
  Li  Li1  1  0.25000000  0.50000000  0.03839000  1.0
  Li  Li2  1  0.75000000  0.50000000  0.03839000  1.0
  Li  Li3  1  0.50000000  0.00000000  0.11516000  1.0
  Li  Li4  1  0.50002000  0.00000000  0.96664000  1.0
  Li  Li5  1  0.75016000  0.50000000  0.86131000  1.0
  Li  Li6  1  0.24985000  0.50000000  0.86123000  1.0
  Li  Li7  1  0.99998000  0.00000000  0.96668000  1.0
  Co  Co8  1  0.00000000  0.75000000  0.03839000  1.0
  Co  Co9  1  0.50000000  0.25000000  0.03839000  1.0
  Co  Co10  1  0.00000000  0.25000000  0.03839000  1.0
  Co  Co11  1  0.50000000  0.75000000  0.03839000  1.0
  Co  Co12  1  0.75000000  0.25000000  0.11516000  1.0
  Co  Co13  1  0.25000000  0.75000000  0.11516000  1.0
  Co  Co14  1  0.75000000  0.75000000  0.11516000  1.0
  Co  Co15  1  0.25000000  0.25000000  0.11516000  1.0
  Co  Co16  1  0.49994000  0.76688000  0.89184000  1.0
  Co  Co17  1  0.00006000  0.23258000  0.89186000  1.0
  Co  Co18  1  0.49994000  0.23312000  0.89184000  1.0
  Co  Co19  1  0.00006000  0.76742000  0.89186000  1.0
  Co  Co20  1  0.24999000  0.25463000  0.95831000  1.0
  Co  Co21  1  0.75000000  0.74537000  0.95836000  1.0
  Co  Co22  1  0.24999000  0.74537000  0.95831000  1.0
  Co  Co23  1  0.75000000  0.25463000  0.95836000  1.0
  Ge  Ge24  1  0.75000000  0.00000000  0.03839000  1.0
  Ge  Ge25  1  0.00000000  0.50000000  0.11516000  1.0
  Ge  Ge26  1  0.25000000  0.00000000  0.03839000  1.0
  Ge  Ge27  1  0.50000000  0.50000000  0.11516000  1.0
  Ge  Ge28  1  0.25016000  0.00000000  0.88091000  1.0
  Ge  Ge29  1  0.50000000  0.50000000  0.96386000  1.0
  Ge  Ge30  1  0.74984000  0.00000000  0.88099000  1.0
  Ge  Ge31  1  0.00000000  0.50000000  0.96381000  1.0
