# generated using pymatgen
data_LiCo2Ge
_symmetry_space_group_name_H-M   Pm
_cell_length_a   7.97982000
_cell_length_b   5.64259000
_cell_length_c   25.98490000
_cell_angle_alpha   90.00000000
_cell_angle_beta   90.00000000
_cell_angle_gamma   90.00000000
_symmetry_Int_Tables_number   6
_chemical_formula_structural   LiCo2Ge
_chemical_formula_sum   'Li8 Co16 Ge8'
_cell_volume   1170.01826041
_cell_formula_units_Z   8
loop_
 _symmetry_equiv_pos_site_id
 _symmetry_equiv_pos_as_xyz
  1  'x, y, z'
  2  'x, -y, z'
loop_
 _atom_site_type_symbol
 _atom_site_label
 _atom_site_symmetry_multiplicity
 _atom_site_fract_x
 _atom_site_fract_y
 _atom_site_fract_z
 _atom_site_occupancy
  Li  Li0  1  0.00000000  0.00000000  0.88484000  1.0
  Li  Li1  1  0.24985000  0.50000000  0.13877000  1.0
  Li  Li2  1  0.25000000  0.50000000  0.96161000  1.0
  Li  Li3  1  0.50000000  0.00000000  0.88484000  1.0
  Li  Li4  1  0.50002000  0.00000000  0.03336000  1.0
  Li  Li5  1  0.75000000  0.50000000  0.96161000  1.0
  Li  Li6  1  0.75016000  0.50000000  0.13869000  1.0
  Li  Li7  1  0.99998000  0.00000000  0.03332000  1.0
  Co  Co8  2  0.00000000  0.25000000  0.96161000  1.0
  Co  Co9  2  0.00006000  0.23258000  0.10814000  1.0
  Co  Co10  2  0.24999000  0.25463000  0.04169000  1.0
  Co  Co11  2  0.25000000  0.25000000  0.88484000  1.0
  Co  Co12  2  0.49994000  0.23312000  0.10816000  1.0
  Co  Co13  2  0.50000000  0.25000000  0.96161000  1.0
  Co  Co14  2  0.75000000  0.25000000  0.88484000  1.0
  Co  Co15  2  0.75000000  0.25463000  0.04164000  1.0
  Ge  Ge16  1  0.00000000  0.50000000  0.03619000  1.0
  Ge  Ge17  1  0.00000000  0.50000000  0.88484000  1.0
  Ge  Ge18  1  0.25000000  0.00000000  0.96161000  1.0
  Ge  Ge19  1  0.25016000  0.00000000  0.11909000  1.0
  Ge  Ge20  1  0.50000000  0.50000000  0.03614000  1.0
  Ge  Ge21  1  0.50000000  0.50000000  0.88484000  1.0
  Ge  Ge22  1  0.74984000  0.00000000  0.11901000  1.0
  Ge  Ge23  1  0.75000000  0.00000000  0.96161000  1.0
