# generated using pymatgen
data_Li4Ge4Pd4Pb4CO
_symmetry_space_group_name_H-M   'P 1'
_cell_length_a   6.74945000
_cell_length_b   6.74945000
_cell_length_c   25.06210000
_cell_angle_alpha   90.00000000
_cell_angle_beta   90.00000000
_cell_angle_gamma   90.00000000
_symmetry_Int_Tables_number   1
_chemical_formula_structural   Li4Ge4Pd4Pb4CO
_chemical_formula_sum   'Li4 Ge4 Pd4 Pb4 C1 O1'
_cell_volume   1141.70585274
_cell_formula_units_Z   1
loop_
 _symmetry_equiv_pos_site_id
 _symmetry_equiv_pos_as_xyz
  1  'x, y, z'
loop_
 _atom_site_type_symbol
 _atom_site_label
 _atom_site_symmetry_multiplicity
 _atom_site_fract_x
 _atom_site_fract_y
 _atom_site_fract_z
 _atom_site_occupancy
  Li  Li0  1  0.27274000  0.22763000  0.96546000  1.0
  Li  Li1  1  0.24997000  0.75000000  0.10099000  1.0
  Li  Li2  1  0.75003000  0.25000000  0.10099000  1.0
  Li  Li3  1  0.72726000  0.77237000  0.96546000  1.0
  Ge  Ge4  1  0.00000000  0.00000000  0.91136000  1.0
  Ge  Ge5  1  0.00000000  0.50000000  0.03366000  1.0
  Ge  Ge6  1  0.50000000  0.00000000  0.03366000  1.0
  Ge  Ge7  1  0.50000000  0.50000000  0.91095000  1.0
  Pd  Pd8  1  0.71979000  0.21960000  0.96711000  1.0
  Pd  Pd9  1  0.74997000  0.75000000  0.10099000  1.0
  Pd  Pd10  1  0.25003000  0.25000000  0.10099000  1.0
  Pd  Pd11  1  0.28021000  0.78040000  0.96711000  1.0
  Pb  Pb12  1  0.00000000  0.50000000  0.89865000  1.0
  Pb  Pb13  1  0.00000000  0.00000000  0.03366000  1.0
  Pb  Pb14  1  0.50000000  0.50000000  0.03366000  1.0
  Pb  Pb15  1  0.50000000  0.00000000  0.88018000  1.0
  C  C16  1  0.00000000  0.50000000  0.74632000  1.0
  O  O17  1  0.00000000  0.50000000  0.70103000  1.0
