# generated using pymatgen
data_Li8Y8In8Pd8CO
_symmetry_space_group_name_H-M   'P 1'
_cell_length_a   9.63982000
_cell_length_b   6.81638000
_cell_length_c   27.22990000
_cell_angle_alpha   90.00000000
_cell_angle_beta   90.00000000
_cell_angle_gamma   90.00000000
_symmetry_Int_Tables_number   1
_chemical_formula_structural   Li8Y8In8Pd8CO
_chemical_formula_sum   'Li8 Y8 In8 Pd8 C1 O1'
_cell_volume   1789.24068346
_cell_formula_units_Z   1
loop_
 _symmetry_equiv_pos_site_id
 _symmetry_equiv_pos_as_xyz
  1  'x, y, z'
loop_
 _atom_site_type_symbol
 _atom_site_label
 _atom_site_symmetry_multiplicity
 _atom_site_fract_x
 _atom_site_fract_y
 _atom_site_fract_z
 _atom_site_occupancy
  Li  Li0  1  0.00000000  0.75000000  0.04425000  1.0
  Li  Li1  1  0.50000000  0.75000000  0.04425000  1.0
  Li  Li2  1  0.24996000  0.25000000  0.13276000  1.0
  Li  Li3  1  0.75004000  0.25000000  0.13276000  1.0
  Li  Li4  1  0.50000000  0.53869000  0.81565000  1.0
  Li  Li5  1  0.00000000  0.53295000  0.81109000  1.0
  Li  Li6  1  0.74972000  0.23385000  0.95231000  1.0
  Li  Li7  1  0.25028000  0.23385000  0.95231000  1.0
  Y  Y8  1  0.24996000  0.00000000  0.04425000  1.0
  Y  Y9  1  0.75004000  0.00000000  0.04425000  1.0
  Y  Y10  1  0.50000000  0.50000000  0.13276000  1.0
  Y  Y11  1  0.00000000  0.50000000  0.13276000  1.0
  Y  Y12  1  0.74719000  0.93742000  0.86885000  1.0
  Y  Y13  1  0.25281000  0.93742000  0.86885000  1.0
  Y  Y14  1  0.00000000  0.50456000  0.94752000  1.0
  Y  Y15  1  0.50000000  0.50993000  0.94705000  1.0
  In  In16  1  0.00000000  0.00000000  0.13276000  1.0
  In  In17  1  0.50000000  0.00000000  0.13276000  1.0
  In  In18  1  0.74996000  0.50000000  0.04425000  1.0
  In  In19  1  0.25004000  0.50000000  0.04425000  1.0
  In  In20  1  0.50000000  0.99339000  0.95834000  1.0
  In  In21  1  0.00000000  0.99861000  0.95666000  1.0
  In  In22  1  0.24818000  0.45435000  0.86444000  1.0
  In  In23  1  0.75182000  0.45435000  0.86444000  1.0
  Pd  Pd24  1  0.00000000  0.25000000  0.04425000  1.0
  Pd  Pd25  1  0.50000000  0.25000000  0.04425000  1.0
  Pd  Pd26  1  0.24996000  0.75000000  0.13276000  1.0
  Pd  Pd27  1  0.75004000  0.75000000  0.13276000  1.0
  Pd  Pd28  1  0.50000000  0.21598000  0.87377000  1.0
  Pd  Pd29  1  0.00000000  0.19908000  0.86342000  1.0
  Pd  Pd30  1  0.75162000  0.74402000  0.95868000  1.0
  Pd  Pd31  1  0.24838000  0.74402000  0.95868000  1.0
  C  C32  1  0.00000000  0.06611000  0.80054000  1.0
  O  O33  1  0.00000000  0.01234000  0.75952000  1.0
