# generated using pymatgen
data_Li8Y8In8Pd8CO
_symmetry_space_group_name_H-M   Pm
_cell_length_a   6.81638000
_cell_length_b   9.63982000
_cell_length_c   27.22990000
_cell_angle_alpha   90.00000000
_cell_angle_beta   90.00000000
_cell_angle_gamma   90.00000000
_symmetry_Int_Tables_number   6
_chemical_formula_structural   Li8Y8In8Pd8CO
_chemical_formula_sum   'Li8 Y8 In8 Pd8 C1 O1'
_cell_volume   1789.24068346
_cell_formula_units_Z   1
loop_
 _symmetry_equiv_pos_site_id
 _symmetry_equiv_pos_as_xyz
  1  'x, y, z'
  2  'x, -y, z'
loop_
 _atom_site_type_symbol
 _atom_site_label
 _atom_site_symmetry_multiplicity
 _atom_site_fract_x
 _atom_site_fract_y
 _atom_site_fract_z
 _atom_site_occupancy
  Li  Li0  2  0.23385000  0.25028000  0.04769000  1.0
  Li  Li1  2  0.25000000  0.24996000  0.86724000  1.0
  Li  Li2  1  0.53295000  0.00000000  0.18891000  1.0
  Li  Li3  1  0.53869000  0.50000000  0.18435000  1.0
  Li  Li4  1  0.75000000  0.00000000  0.95575000  1.0
  Li  Li5  1  0.75000000  0.50000000  0.95575000  1.0
  Y  Y6  2  0.00000000  0.24996000  0.95575000  1.0
  Y  Y7  2  0.93742000  0.25281000  0.13115000  1.0
  Y  Y8  1  0.50000000  0.00000000  0.86724000  1.0
  Y  Y9  1  0.50000000  0.50000000  0.86724000  1.0
  Y  Y10  1  0.50456000  0.00000000  0.05248000  1.0
  Y  Y11  1  0.50993000  0.50000000  0.05295000  1.0
  In  In12  2  0.45435000  0.24818000  0.13556000  1.0
  In  In13  2  0.50000000  0.25004000  0.95575000  1.0
  In  In14  1  0.00000000  0.00000000  0.86724000  1.0
  In  In15  1  0.00000000  0.50000000  0.86724000  1.0
  In  In16  1  0.99339000  0.50000000  0.04166000  1.0
  In  In17  1  0.99861000  0.00000000  0.04334000  1.0
  Pd  Pd18  2  0.74402000  0.24838000  0.04132000  1.0
  Pd  Pd19  2  0.75000000  0.24996000  0.86724000  1.0
  Pd  Pd20  1  0.19908000  0.00000000  0.13658000  1.0
  Pd  Pd21  1  0.21598000  0.50000000  0.12623000  1.0
  Pd  Pd22  1  0.25000000  0.00000000  0.95575000  1.0
  Pd  Pd23  1  0.25000000  0.50000000  0.95575000  1.0
  C  C24  1  0.06611000  0.00000000  0.19946000  1.0
  O  O25  1  0.01234000  0.00000000  0.24048000  1.0
