# generated using pymatgen
data_Zn16Cu16CO
_symmetry_space_group_name_H-M   'P 1'
_cell_length_a   5.98486000
_cell_length_b   8.46387000
_cell_length_c   26.34790000
_cell_angle_alpha   90.00000000
_cell_angle_beta   90.00000000
_cell_angle_gamma   90.00000000
_symmetry_Int_Tables_number   1
_chemical_formula_structural   Zn16Cu16CO
_chemical_formula_sum   'Zn16 Cu16 C1 O1'
_cell_volume   1334.65490350
_cell_formula_units_Z   1
loop_
 _symmetry_equiv_pos_site_id
 _symmetry_equiv_pos_as_xyz
  1  'x, y, z'
loop_
 _atom_site_type_symbol
 _atom_site_label
 _atom_site_symmetry_multiplicity
 _atom_site_fract_x
 _atom_site_fract_y
 _atom_site_fract_z
 _atom_site_occupancy
  Zn  Zn0  1  0.25000000  0.00000000  0.87954000  1.0
  Zn  Zn1  1  0.25000000  0.75000000  0.95985000  1.0
  Zn  Zn2  1  0.24058000  0.00000000  0.04066000  1.0
  Zn  Zn3  1  0.26148000  0.74528000  0.12258000  1.0
  Zn  Zn4  1  0.25000000  0.50000000  0.87954000  1.0
  Zn  Zn5  1  0.25000000  0.25000000  0.95985000  1.0
  Zn  Zn6  1  0.25272000  0.50000000  0.03895000  1.0
  Zn  Zn7  1  0.26148000  0.25472000  0.12258000  1.0
  Zn  Zn8  1  0.75000000  0.00000000  0.87954000  1.0
  Zn  Zn9  1  0.75000000  0.75000000  0.95985000  1.0
  Zn  Zn10  1  0.75942000  0.00000000  0.04066000  1.0
  Zn  Zn11  1  0.73852000  0.74528000  0.12258000  1.0
  Zn  Zn12  1  0.75000000  0.50000000  0.87954000  1.0
  Zn  Zn13  1  0.75000000  0.25000000  0.95985000  1.0
  Zn  Zn14  1  0.74728000  0.50000000  0.03895000  1.0
  Zn  Zn15  1  0.73852000  0.25472000  0.12258000  1.0
  Cu  Cu16  1  0.00000000  0.75000000  0.87954000  1.0
  Cu  Cu17  1  0.00000000  0.00000000  0.95985000  1.0
  Cu  Cu18  1  0.00000000  0.74872000  0.04233000  1.0
  Cu  Cu19  1  0.00000000  0.00000000  0.12382000  1.0
  Cu  Cu20  1  0.00000000  0.25000000  0.87954000  1.0
  Cu  Cu21  1  0.00000000  0.50000000  0.95985000  1.0
  Cu  Cu22  1  0.00000000  0.25128000  0.04233000  1.0
  Cu  Cu23  1  0.00000000  0.50000000  0.11709000  1.0
  Cu  Cu24  1  0.50000000  0.75000000  0.87954000  1.0
  Cu  Cu25  1  0.50000000  0.00000000  0.95985000  1.0
  Cu  Cu26  1  0.50000000  0.75350000  0.03777000  1.0
  Cu  Cu27  1  0.50000000  0.00000000  0.11562000  1.0
  Cu  Cu28  1  0.50000000  0.25000000  0.87954000  1.0
  Cu  Cu29  1  0.50000000  0.50000000  0.95985000  1.0
  Cu  Cu30  1  0.50000000  0.24650000  0.03777000  1.0
  Cu  Cu31  1  0.50000000  0.50000000  0.11877000  1.0
  C  C32  1  0.00000000  0.00000000  0.19523000  1.0
  O  O33  1  0.00000000  0.00000000  0.23883000  1.0
