# generated using pymatgen
data_Y4Sc4Ga4Pd4CO
_symmetry_space_group_name_H-M   'P 1'
_cell_length_a   9.85606000
_cell_length_b   5.91305000
_cell_length_c   24.24990000
_cell_angle_alpha   90.00000000
_cell_angle_beta   90.00000000
_cell_angle_gamma   90.00000000
_symmetry_Int_Tables_number   1
_chemical_formula_structural   Y4Sc4Ga4Pd4CO
_chemical_formula_sum   'Y4 Sc4 Ga4 Pd4 C1 O1'
_cell_volume   1413.26902995
_cell_formula_units_Z   1
loop_
 _symmetry_equiv_pos_site_id
 _symmetry_equiv_pos_as_xyz
  1  'x, y, z'
loop_
 _atom_site_type_symbol
 _atom_site_label
 _atom_site_symmetry_multiplicity
 _atom_site_fract_x
 _atom_site_fract_y
 _atom_site_fract_z
 _atom_site_occupancy
  Y  Y0  1  0.00000000  0.17857000  0.02921000  1.0
  Y  Y1  1  0.00000000  0.49950000  0.90914000  1.0
  Y  Y2  1  0.50000000  0.17857000  0.02921000  1.0
  Y  Y3  1  0.50000000  0.50960000  0.91172000  1.0
  Sc  Sc4  1  0.74999000  0.50000000  0.08763000  1.0
  Sc  Sc5  1  0.75204000  0.81997000  0.97251000  1.0
  Sc  Sc6  1  0.25001000  0.50000000  0.08763000  1.0
  Sc  Sc7  1  0.24796000  0.81997000  0.97251000  1.0
  Ga  Ga8  1  0.74999000  0.00000000  0.08763000  1.0
  Ga  Ga9  1  0.74948000  0.32002000  0.96291000  1.0
  Ga  Ga10  1  0.25001000  0.00000000  0.08763000  1.0
  Ga  Ga11  1  0.25052000  0.32002000  0.96291000  1.0
  Pd  Pd12  1  0.00000000  0.67857000  0.02921000  1.0
  Pd  Pd13  1  0.00000000  0.98679000  0.92673000  1.0
  Pd  Pd14  1  0.50000000  0.67857000  0.02921000  1.0
  Pd  Pd15  1  0.50000000  0.99166000  0.92755000  1.0
  C  C16  1  0.00000000  0.53468000  0.80432000  1.0
  O  O17  1  0.00000000  0.54962000  0.75711000  1.0
