# generated using pymatgen
data_Y4Sc4Ga4Pd4CO
_symmetry_space_group_name_H-M   Pm
_cell_length_a   5.91305000
_cell_length_b   9.85606000
_cell_length_c   24.24990000
_cell_angle_alpha   90.00000000
_cell_angle_beta   90.00000000
_cell_angle_gamma   90.00000000
_symmetry_Int_Tables_number   6
_chemical_formula_structural   Y4Sc4Ga4Pd4CO
_chemical_formula_sum   'Y4 Sc4 Ga4 Pd4 C1 O1'
_cell_volume   1413.26902995
_cell_formula_units_Z   1
loop_
 _symmetry_equiv_pos_site_id
 _symmetry_equiv_pos_as_xyz
  1  'x, y, z'
  2  'x, -y, z'
loop_
 _atom_site_type_symbol
 _atom_site_label
 _atom_site_symmetry_multiplicity
 _atom_site_fract_x
 _atom_site_fract_y
 _atom_site_fract_z
 _atom_site_occupancy
  Y  Y0  1  0.17857000  0.00000000  0.97079000  1.0
  Y  Y1  1  0.17857000  0.50000000  0.97079000  1.0
  Y  Y2  1  0.49950000  0.00000000  0.09086000  1.0
  Y  Y3  1  0.50960000  0.50000000  0.08828000  1.0
  Sc  Sc4  2  0.50000000  0.25001000  0.91237000  1.0
  Sc  Sc5  2  0.81997000  0.24796000  0.02749000  1.0
  Ga  Ga6  2  0.00000000  0.25001000  0.91237000  1.0
  Ga  Ga7  2  0.32002000  0.25052000  0.03709000  1.0
  Pd  Pd8  1  0.67857000  0.00000000  0.97079000  1.0
  Pd  Pd9  1  0.67857000  0.50000000  0.97079000  1.0
  Pd  Pd10  1  0.98679000  0.00000000  0.07327000  1.0
  Pd  Pd11  1  0.99166000  0.50000000  0.07245000  1.0
  C  C12  1  0.53468000  0.00000000  0.19568000  1.0
  O  O13  1  0.54962000  0.00000000  0.24289000  1.0
