# generated using pymatgen
data_Mg8In24C
_symmetry_space_group_name_H-M   'P 1'
_cell_length_a   9.42262000
_cell_length_b   9.42262000
_cell_length_c   27.06700000
_cell_angle_alpha   90.00000000
_cell_angle_beta   90.00000000
_cell_angle_gamma   90.00000000
_symmetry_Int_Tables_number   1
_chemical_formula_structural   Mg8In24C
_chemical_formula_sum   'Mg8 In24 C1'
_cell_volume   2403.16437337
_cell_formula_units_Z   1
loop_
 _symmetry_equiv_pos_site_id
 _symmetry_equiv_pos_as_xyz
  1  'x, y, z'
loop_
 _atom_site_type_symbol
 _atom_site_label
 _atom_site_symmetry_multiplicity
 _atom_site_fract_x
 _atom_site_fract_y
 _atom_site_fract_z
 _atom_site_occupancy
  Mg  Mg0  1  0.75000000  0.00000000  0.13055000  1.0
  Mg  Mg1  1  0.75000000  0.00000000  0.95648000  1.0
  Mg  Mg2  1  0.75000000  0.50000000  0.13055000  1.0
  Mg  Mg3  1  0.75000000  0.50000000  0.95648000  1.0
  Mg  Mg4  1  0.25000000  0.00000000  0.13055000  1.0
  Mg  Mg5  1  0.25000000  0.00000000  0.95648000  1.0
  Mg  Mg6  1  0.25000000  0.50000000  0.13055000  1.0
  Mg  Mg7  1  0.25000000  0.50000000  0.95648000  1.0
  In  In8  1  0.75000000  0.25000000  0.04352000  1.0
  In  In9  1  0.00000000  0.00000000  0.04352000  1.0
  In  In10  1  0.00000000  0.25000000  0.13055000  1.0
  In  In11  1  0.75000000  0.25000000  0.86945000  1.0
  In  In12  1  0.00000000  0.00000000  0.86945000  1.0
  In  In13  1  0.00000000  0.25000000  0.95648000  1.0
  In  In14  1  0.75000000  0.75000000  0.04352000  1.0
  In  In15  1  0.00000000  0.50000000  0.04352000  1.0
  In  In16  1  0.00000000  0.75000000  0.13055000  1.0
  In  In17  1  0.75000000  0.75000000  0.86945000  1.0
  In  In18  1  0.00000000  0.50000000  0.86945000  1.0
  In  In19  1  0.00000000  0.75000000  0.95648000  1.0
  In  In20  1  0.25000000  0.25000000  0.04352000  1.0
  In  In21  1  0.50000000  0.00000000  0.04352000  1.0
  In  In22  1  0.50000000  0.25000000  0.13055000  1.0
  In  In23  1  0.25000000  0.25000000  0.86945000  1.0
  In  In24  1  0.50000000  0.00000000  0.86945000  1.0
  In  In25  1  0.50000000  0.25000000  0.95648000  1.0
  In  In26  1  0.25000000  0.75000000  0.04352000  1.0
  In  In27  1  0.50000000  0.50000000  0.04352000  1.0
  In  In28  1  0.50000000  0.75000000  0.13055000  1.0
  In  In29  1  0.25000000  0.75000000  0.86945000  1.0
  In  In30  1  0.50000000  0.50000000  0.86945000  1.0
  In  In31  1  0.50000000  0.75000000  0.95648000  1.0
  C  C32  1  0.00000000  0.00000000  0.16010000  1.0
