# generated using pymatgen
data_Mg8In24C
_symmetry_space_group_name_H-M   Pmm2
_cell_length_a   9.42262000
_cell_length_b   9.42262000
_cell_length_c   27.06700000
_cell_angle_alpha   90.00000000
_cell_angle_beta   90.00000000
_cell_angle_gamma   90.00000000
_symmetry_Int_Tables_number   25
_chemical_formula_structural   Mg8In24C
_chemical_formula_sum   'Mg8 In24 C1'
_cell_volume   2403.16437337
_cell_formula_units_Z   1
loop_
 _symmetry_equiv_pos_site_id
 _symmetry_equiv_pos_as_xyz
  1  'x, y, z'
  2  '-x, -y, z'
  3  '-x, y, z'
  4  'x, -y, z'
loop_
 _atom_site_type_symbol
 _atom_site_label
 _atom_site_symmetry_multiplicity
 _atom_site_fract_x
 _atom_site_fract_y
 _atom_site_fract_z
 _atom_site_occupancy
  Mg  Mg0  2  0.25000000  0.00000000  0.13055000  1.0
  Mg  Mg1  2  0.25000000  0.00000000  0.95648000  1.0
  Mg  Mg2  2  0.25000000  0.50000000  0.13055000  1.0
  Mg  Mg3  2  0.25000000  0.50000000  0.95648000  1.0
  In  In4  4  0.25000000  0.25000000  0.04352000  1.0
  In  In5  4  0.25000000  0.25000000  0.86945000  1.0
  In  In6  2  0.00000000  0.25000000  0.13055000  1.0
  In  In7  2  0.00000000  0.25000000  0.95648000  1.0
  In  In8  2  0.50000000  0.25000000  0.13055000  1.0
  In  In9  2  0.50000000  0.25000000  0.95648000  1.0
  In  In10  1  0.00000000  0.00000000  0.04352000  1.0
  In  In11  1  0.00000000  0.00000000  0.86945000  1.0
  In  In12  1  0.00000000  0.50000000  0.04352000  1.0
  In  In13  1  0.00000000  0.50000000  0.86945000  1.0
  In  In14  1  0.50000000  0.00000000  0.04352000  1.0
  In  In15  1  0.50000000  0.00000000  0.86945000  1.0
  In  In16  1  0.50000000  0.50000000  0.04352000  1.0
  In  In17  1  0.50000000  0.50000000  0.86945000  1.0
  C  C18  1  0.00000000  0.00000000  0.16010000  1.0
