# generated using pymatgen
data_Fe12Sn4CO
_symmetry_space_group_name_H-M   P1
_cell_length_a   5.40730000
_cell_length_b   7.64708000
_cell_length_c   24.05550000
_cell_angle_alpha   90.00000000
_cell_angle_beta   90.00000000
_cell_angle_gamma   90.00000000
_symmetry_Int_Tables_number   1
_chemical_formula_structural   Fe12Sn4CO
_chemical_formula_sum   'Fe12 Sn4 C1 O1'
_cell_volume   994.69626451
_cell_formula_units_Z   1
loop_
 _symmetry_equiv_pos_site_id
 _symmetry_equiv_pos_as_xyz
  1  'x, y, z'
loop_
 _atom_site_type_symbol
 _atom_site_label
 _atom_site_symmetry_multiplicity
 _atom_site_fract_x
 _atom_site_fract_y
 _atom_site_fract_z
 _atom_site_occupancy
  Fe  Fe0  1  0.01080000  0.50409000  0.97100000  1.0
  Fe  Fe1  1  0.01081000  0.99581000  0.97098000  1.0
  Fe  Fe2  1  0.22086000  0.74985000  0.91935000  1.0
  Fe  Fe3  1  0.22888000  0.25005000  0.92620000  1.0
  Fe  Fe4  1  0.25000000  0.25000000  0.02810000  1.0
  Fe  Fe5  1  0.25000000  0.75000000  0.02810000  1.0
  Fe  Fe6  1  0.50000000  0.00000000  0.08429000  1.0
  Fe  Fe7  1  0.50000000  0.50000000  0.08429000  1.0
  Fe  Fe8  1  0.75000000  0.25000000  0.02810000  1.0
  Fe  Fe9  1  0.75000000  0.75000000  0.02810000  1.0
  Fe  Fe10  1  0.79887000  0.25007000  0.92639000  1.0
  Fe  Fe11  1  0.79985000  0.74984000  0.92499000  1.0
  Sn  Sn12  1  0.00000000  0.00000000  0.08429000  1.0
  Sn  Sn13  1  0.00000000  0.50000000  0.08429000  1.0
  Sn  Sn14  1  0.50928000  0.50402000  0.96487000  1.0
  Sn  Sn15  1  0.50932000  0.99590000  0.96480000  1.0
  C  C16  1  0.80651000  0.74994000  0.85064000  1.0
  O  O17  1  0.80727000  0.74999000  0.80226000  1.0
