# generated using pymatgen
data_Li8Y8Cu8Pd8CO
_symmetry_space_group_name_H-M   'P 1'
_cell_length_a   9.43388000
_cell_length_b   6.67076000
_cell_length_c   27.07540000
_cell_angle_alpha   90.00000000
_cell_angle_beta   90.00000000
_cell_angle_gamma   90.00000000
_symmetry_Int_Tables_number   1
_chemical_formula_structural   Li8Y8Cu8Pd8CO
_chemical_formula_sum   'Li8 Y8 Cu8 Pd8 C1 O1'
_cell_volume   1703.88604108
_cell_formula_units_Z   1
loop_
 _symmetry_equiv_pos_site_id
 _symmetry_equiv_pos_as_xyz
  1  'x, y, z'
loop_
 _atom_site_type_symbol
 _atom_site_label
 _atom_site_symmetry_multiplicity
 _atom_site_fract_x
 _atom_site_fract_y
 _atom_site_fract_z
 _atom_site_occupancy
  Li  Li0  1  0.00000000  0.25000000  0.04355000  1.0
  Li  Li1  1  0.50000000  0.25000000  0.04355000  1.0
  Li  Li2  1  0.25000000  0.75000000  0.13066000  1.0
  Li  Li3  1  0.75000000  0.75000000  0.13066000  1.0
  Li  Li4  1  0.50000000  0.24848000  0.87128000  1.0
  Li  Li5  1  0.00000000  0.25156000  0.86705000  1.0
  Li  Li6  1  0.74950000  0.75394000  0.95238000  1.0
  Li  Li7  1  0.25050000  0.75394000  0.95238000  1.0
  Y  Y8  1  0.00000000  0.75000000  0.04355000  1.0
  Y  Y9  1  0.50000000  0.75000000  0.04355000  1.0
  Y  Y10  1  0.25000000  0.25000000  0.13066000  1.0
  Y  Y11  1  0.75000000  0.25000000  0.13066000  1.0
  Y  Y12  1  0.50000000  0.75290000  0.86266000  1.0
  Y  Y13  1  0.00000000  0.75690000  0.85971000  1.0
  Y  Y14  1  0.75337000  0.25276000  0.95849000  1.0
  Y  Y15  1  0.24663000  0.25276000  0.95849000  1.0
  Cu  Cu16  1  0.00000000  0.00000000  0.13066000  1.0
  Cu  Cu17  1  0.50000000  0.00000000  0.13066000  1.0
  Cu  Cu18  1  0.75000000  0.50000000  0.04355000  1.0
  Cu  Cu19  1  0.25000000  0.50000000  0.04355000  1.0
  Cu  Cu20  1  0.50000000  0.98507000  0.95103000  1.0
  Cu  Cu21  1  0.00000000  0.97608000  0.94967000  1.0
  Cu  Cu22  1  0.25028000  0.49009000  0.87262000  1.0
  Cu  Cu23  1  0.74972000  0.49009000  0.87262000  1.0
  Pd  Pd24  1  0.25000000  1.00000000  0.04355000  1.0
  Pd  Pd25  1  0.75000000  1.00000000  0.04355000  1.0
  Pd  Pd26  1  0.50000000  0.50000000  0.13066000  1.0
  Pd  Pd27  1  0.00000000  0.50000000  0.13066000  1.0
  Pd  Pd28  1  0.74715000  0.00556000  0.87458000  1.0
  Pd  Pd29  1  0.25285000  0.00556000  0.87458000  1.0
  Pd  Pd30  1  0.00000000  0.52868000  0.94765000  1.0
  Pd  Pd31  1  0.50000000  0.51890000  0.95030000  1.0
  C  C32  1  0.00000000  0.25440000  0.79080000  1.0
  O  O33  1  0.00000000  0.25038000  0.74835000  1.0
