# generated using pymatgen
data_Li8Y8Cu8Pd8CO
_symmetry_space_group_name_H-M   Pm
_cell_length_a   6.67076000
_cell_length_b   9.43388000
_cell_length_c   27.07540000
_cell_angle_alpha   90.00000000
_cell_angle_beta   90.00000000
_cell_angle_gamma   90.00000000
_symmetry_Int_Tables_number   6
_chemical_formula_structural   Li8Y8Cu8Pd8CO
_chemical_formula_sum   'Li8 Y8 Cu8 Pd8 C1 O1'
_cell_volume   1703.88604108
_cell_formula_units_Z   1
loop_
 _symmetry_equiv_pos_site_id
 _symmetry_equiv_pos_as_xyz
  1  'x, y, z'
  2  'x, -y, z'
loop_
 _atom_site_type_symbol
 _atom_site_label
 _atom_site_symmetry_multiplicity
 _atom_site_fract_x
 _atom_site_fract_y
 _atom_site_fract_z
 _atom_site_occupancy
  Li  Li0  2  0.75000000  0.25000000  0.86934000  1.0
  Li  Li1  2  0.75394000  0.25050000  0.04762000  1.0
  Li  Li2  1  0.24848000  0.50000000  0.12872000  1.0
  Li  Li3  1  0.25000000  0.00000000  0.95645000  1.0
  Li  Li4  1  0.25000000  0.50000000  0.95645000  1.0
  Li  Li5  1  0.25156000  0.00000000  0.13295000  1.0
  Y  Y6  2  0.25000000  0.25000000  0.86934000  1.0
  Y  Y7  2  0.25276000  0.24663000  0.04151000  1.0
  Y  Y8  1  0.75000000  0.00000000  0.95645000  1.0
  Y  Y9  1  0.75000000  0.50000000  0.95645000  1.0
  Y  Y10  1  0.75290000  0.50000000  0.13734000  1.0
  Y  Y11  1  0.75690000  0.00000000  0.14029000  1.0
  Cu  Cu12  2  0.49009000  0.25028000  0.12738000  1.0
  Cu  Cu13  2  0.50000000  0.25000000  0.95645000  1.0
  Cu  Cu14  1  0.00000000  0.00000000  0.86934000  1.0
  Cu  Cu15  1  0.00000000  0.50000000  0.86934000  1.0
  Cu  Cu16  1  0.97608000  0.00000000  0.05033000  1.0
  Cu  Cu17  1  0.98507000  0.50000000  0.04897000  1.0
  Pd  Pd18  2  -0.00000000  0.25000000  0.95645000  1.0
  Pd  Pd19  2  0.00556000  0.25285000  0.12542000  1.0
  Pd  Pd20  1  0.50000000  0.00000000  0.86934000  1.0
  Pd  Pd21  1  0.50000000  0.50000000  0.86934000  1.0
  Pd  Pd22  1  0.51890000  0.50000000  0.04970000  1.0
  Pd  Pd23  1  0.52868000  0.00000000  0.05235000  1.0
  C  C24  1  0.25440000  0.00000000  0.20920000  1.0
  O  O25  1  0.25038000  0.00000000  0.25165000  1.0
