# generated using pymatgen
data_Li8Y8Cu8Ge8CO
_symmetry_space_group_name_H-M   'P 1'
_cell_length_a   9.41914000
_cell_length_b   6.66034000
_cell_length_c   27.06440000
_cell_angle_alpha   90.00000000
_cell_angle_beta   90.00000000
_cell_angle_gamma   90.00000000
_symmetry_Int_Tables_number   1
_chemical_formula_structural   Li8Y8Cu8Ge8CO
_chemical_formula_sum   'Li8 Y8 Cu8 Ge8 C1 O1'
_cell_volume   1697.87633557
_cell_formula_units_Z   1
loop_
 _symmetry_equiv_pos_site_id
 _symmetry_equiv_pos_as_xyz
  1  'x, y, z'
loop_
 _atom_site_type_symbol
 _atom_site_label
 _atom_site_symmetry_multiplicity
 _atom_site_fract_x
 _atom_site_fract_y
 _atom_site_fract_z
 _atom_site_occupancy
  Li  Li0  1  0.50000000  0.75000000  0.04350000  1.0
  Li  Li1  1  0.00000000  0.75000000  0.04350000  1.0
  Li  Li2  1  0.75001000  0.25000000  0.13051000  1.0
  Li  Li3  1  0.24999000  0.25000000  0.13051000  1.0
  Li  Li4  1  0.00000000  0.75031000  0.86934000  1.0
  Li  Li5  1  0.50000000  0.74713000  0.86894000  1.0
  Li  Li6  1  0.25483000  0.24425000  0.95604000  1.0
  Li  Li7  1  0.74517000  0.24425000  0.95604000  1.0
  Y  Y8  1  0.50000000  0.25000000  0.04350000  1.0
  Y  Y9  1  0.00000000  0.25000000  0.04350000  1.0
  Y  Y10  1  0.75001000  0.75000000  0.13051000  1.0
  Y  Y11  1  0.24999000  0.75000000  0.13051000  1.0
  Y  Y12  1  0.00000000  0.23666000  0.85408000  1.0
  Y  Y13  1  0.50000000  0.23543000  0.87033000  1.0
  Y  Y14  1  0.23475000  0.74706000  0.95679000  1.0
  Y  Y15  1  0.76525000  0.74706000  0.95679000  1.0
  Cu  Cu16  1  0.50000000  0.00000000  0.13051000  1.0
  Cu  Cu17  1  0.00000000  0.00000000  0.13051000  1.0
  Cu  Cu18  1  0.25001000  0.50000000  0.04350000  1.0
  Cu  Cu19  1  0.74999000  0.50000000  0.04350000  1.0
  Cu  Cu20  1  0.00000000  0.04861000  0.94595000  1.0
  Cu  Cu21  1  0.50000000  0.96559000  0.95774000  1.0
  Cu  Cu22  1  0.75396000  0.50403000  0.87398000  1.0
  Cu  Cu23  1  0.24604000  0.50403000  0.87398000  1.0
  Ge  Ge24  1  0.75001000  0.00000000  0.04350000  1.0
  Ge  Ge25  1  0.24999000  0.00000000  0.04350000  1.0
  Ge  Ge26  1  0.00000000  0.50000000  0.13051000  1.0
  Ge  Ge27  1  0.50000000  0.50000000  0.13051000  1.0
  Ge  Ge28  1  0.24855000  0.97608000  0.86498000  1.0
  Ge  Ge29  1  0.75145000  0.97608000  0.86498000  1.0
  Ge  Ge30  1  0.50000000  0.51561000  0.95340000  1.0
  Ge  Ge31  1  0.00000000  0.45682000  0.94491000  1.0
  C  C32  1  0.50000000  0.24537000  0.77860000  1.0
  O  O33  1  0.50000000  0.24710000  0.73620000  1.0
