# generated using pymatgen
data_Li8Y8Cu8Ge8CO
_symmetry_space_group_name_H-M   Pm
_cell_length_a   6.66034000
_cell_length_b   9.41914000
_cell_length_c   27.06440000
_cell_angle_alpha   90.00000000
_cell_angle_beta   90.00000000
_cell_angle_gamma   90.00000000
_symmetry_Int_Tables_number   6
_chemical_formula_structural   Li8Y8Cu8Ge8CO
_chemical_formula_sum   'Li8 Y8 Cu8 Ge8 C1 O1'
_cell_volume   1697.87633557
_cell_formula_units_Z   1
loop_
 _symmetry_equiv_pos_site_id
 _symmetry_equiv_pos_as_xyz
  1  'x, y, z'
  2  'x, -y, z'
loop_
 _atom_site_type_symbol
 _atom_site_label
 _atom_site_symmetry_multiplicity
 _atom_site_fract_x
 _atom_site_fract_y
 _atom_site_fract_z
 _atom_site_occupancy
  Li  Li0  2  0.24425000  0.25483000  0.04396000  1.0
  Li  Li1  2  0.25000000  0.24999000  0.86949000  1.0
  Li  Li2  1  0.74713000  0.50000000  0.13106000  1.0
  Li  Li3  1  0.75000000  0.00000000  0.95650000  1.0
  Li  Li4  1  0.75000000  0.50000000  0.95650000  1.0
  Li  Li5  1  0.75031000  0.00000000  0.13066000  1.0
  Y  Y6  2  0.74706000  0.23475000  0.04321000  1.0
  Y  Y7  2  0.75000000  0.24999000  0.86949000  1.0
  Y  Y8  1  0.23543000  0.50000000  0.12967000  1.0
  Y  Y9  1  0.23666000  0.00000000  0.14592000  1.0
  Y  Y10  1  0.25000000  0.00000000  0.95650000  1.0
  Y  Y11  1  0.25000000  0.50000000  0.95650000  1.0
  Cu  Cu12  2  0.50000000  0.25001000  0.95650000  1.0
  Cu  Cu13  2  0.50403000  0.24604000  0.12602000  1.0
  Cu  Cu14  1  0.00000000  0.50000000  0.86949000  1.0
  Cu  Cu15  1  0.00000000  0.00000000  0.86949000  1.0
  Cu  Cu16  1  0.04861000  0.00000000  0.05405000  1.0
  Cu  Cu17  1  0.96559000  0.50000000  0.04226000  1.0
  Ge  Ge18  2  0.00000000  0.24999000  0.95650000  1.0
  Ge  Ge19  2  0.97608000  0.24855000  0.13502000  1.0
  Ge  Ge20  1  0.45682000  0.00000000  0.05509000  1.0
  Ge  Ge21  1  0.50000000  0.00000000  0.86949000  1.0
  Ge  Ge22  1  0.50000000  0.50000000  0.86949000  1.0
  Ge  Ge23  1  0.51561000  0.50000000  0.04660000  1.0
  C  C24  1  0.24537000  0.50000000  0.22140000  1.0
  O  O25  1  0.24710000  0.50000000  0.26380000  1.0
