# generated using pymatgen
data_Li8V8Ge8Pd8C
_symmetry_space_group_name_H-M   'P 1'
_cell_length_a   5.68832000
_cell_length_b   9.40562000
_cell_length_c   26.48090000
_cell_angle_alpha   90.00000000
_cell_angle_beta   90.00000000
_cell_angle_gamma   90.00000000
_symmetry_Int_Tables_number   1
_chemical_formula_structural   Li8V8Ge8Pd8C
_chemical_formula_sum   'Li8 V8 Ge8 Pd8 C1'
_cell_volume   1416.78578193
_cell_formula_units_Z   1
loop_
 _symmetry_equiv_pos_site_id
 _symmetry_equiv_pos_as_xyz
  1  'x, y, z'
loop_
 _atom_site_type_symbol
 _atom_site_label
 _atom_site_symmetry_multiplicity
 _atom_site_fract_x
 _atom_site_fract_y
 _atom_site_fract_z
 _atom_site_occupancy
  Li  Li0  1  0.24998000  0.25000000  0.12237000  1.0
  Li  Li1  1  0.24337000  0.25054000  0.95615000  1.0
  Li  Li2  1  0.75002000  0.25000000  0.12237000  1.0
  Li  Li3  1  0.75663000  0.25054000  0.95615000  1.0
  Li  Li4  1  0.24998000  0.75000000  0.12237000  1.0
  Li  Li5  1  0.24337000  0.74946000  0.95615000  1.0
  Li  Li6  1  0.75002000  0.75000000  0.12237000  1.0
  Li  Li7  1  0.75663000  0.74946000  0.95615000  1.0
  V  V8  1  0.24998000  0.00000000  0.04079000  1.0
  V  V9  1  0.25725000  0.00000000  0.87729000  1.0
  V  V10  1  0.75002000  0.00000000  0.04079000  1.0
  V  V11  1  0.74275000  0.00000000  0.87729000  1.0
  V  V12  1  0.24998000  0.50000000  0.04079000  1.0
  V  V13  1  0.19296000  0.50000000  0.87495000  1.0
  V  V14  1  0.75002000  0.50000000  0.04079000  1.0
  V  V15  1  0.80704000  0.50000000  0.87495000  1.0
  Ge  Ge16  1  0.00000000  0.00000000  0.12237000  1.0
  Ge  Ge17  1  0.00000000  0.00000000  0.95868000  1.0
  Ge  Ge18  1  0.50000000  0.00000000  0.12237000  1.0
  Ge  Ge19  1  0.50000000  0.00000000  0.96093000  1.0
  Ge  Ge20  1  0.00000000  0.50000000  0.12237000  1.0
  Ge  Ge21  1  0.00000000  0.50000000  0.96168000  1.0
  Ge  Ge22  1  0.50000000  0.50000000  0.12237000  1.0
  Ge  Ge23  1  0.50000000  0.50000000  0.95211000  1.0
  Pd  Pd24  1  0.00000000  0.25000000  0.04079000  1.0
  Pd  Pd25  1  0.00000000  0.24241000  0.86673000  1.0
  Pd  Pd26  1  0.50000000  0.25000000  0.04079000  1.0
  Pd  Pd27  1  0.50000000  0.25697000  0.87834000  1.0
  Pd  Pd28  1  0.00000000  0.75000000  0.04079000  1.0
  Pd  Pd29  1  0.00000000  0.75759000  0.86673000  1.0
  Pd  Pd30  1  0.50000000  0.75000000  0.04079000  1.0
  Pd  Pd31  1  0.50000000  0.74303000  0.87834000  1.0
  C  C32  1  0.00000000  0.00000000  0.83568000  1.0
