# generated using pymatgen
data_Li8V8Ge8Pd8C
_symmetry_space_group_name_H-M   Pmm2
_cell_length_a   5.68832000
_cell_length_b   9.40562000
_cell_length_c   26.48090000
_cell_angle_alpha   90.00000000
_cell_angle_beta   90.00000000
_cell_angle_gamma   90.00000000
_symmetry_Int_Tables_number   25
_chemical_formula_structural   Li8V8Ge8Pd8C
_chemical_formula_sum   'Li8 V8 Ge8 Pd8 C1'
_cell_volume   1416.78578193
_cell_formula_units_Z   1
loop_
 _symmetry_equiv_pos_site_id
 _symmetry_equiv_pos_as_xyz
  1  'x, y, z'
  2  '-x, -y, z'
  3  '-x, y, z'
  4  'x, -y, z'
loop_
 _atom_site_type_symbol
 _atom_site_label
 _atom_site_symmetry_multiplicity
 _atom_site_fract_x
 _atom_site_fract_y
 _atom_site_fract_z
 _atom_site_occupancy
  Li  Li0  4  0.24337000  0.25054000  0.95615000  1.0
  Li  Li1  4  0.24998000  0.25000000  0.12237000  1.0
  V  V2  2  0.19296000  0.50000000  0.87495000  1.0
  V  V3  2  0.24998000  0.00000000  0.04079000  1.0
  V  V4  2  0.24998000  0.50000000  0.04079000  1.0
  V  V5  2  0.25725000  0.00000000  0.87729000  1.0
  Ge  Ge6  1  0.00000000  0.00000000  0.12237000  1.0
  Ge  Ge7  1  0.00000000  0.00000000  0.95868000  1.0
  Ge  Ge8  1  0.00000000  0.50000000  0.12237000  1.0
  Ge  Ge9  1  0.00000000  0.50000000  0.96168000  1.0
  Ge  Ge10  1  0.50000000  0.00000000  0.12237000  1.0
  Ge  Ge11  1  0.50000000  0.00000000  0.96093000  1.0
  Ge  Ge12  1  0.50000000  0.50000000  0.12237000  1.0
  Ge  Ge13  1  0.50000000  0.50000000  0.95211000  1.0
  Pd  Pd14  2  0.00000000  0.24241000  0.86673000  1.0
  Pd  Pd15  2  0.00000000  0.25000000  0.04079000  1.0
  Pd  Pd16  2  0.50000000  0.25000000  0.04079000  1.0
  Pd  Pd17  2  0.50000000  0.25697000  0.87834000  1.0
  C  C18  1  0.00000000  0.00000000  0.83568000  1.0
