# generated using pymatgen
data_Li4In4Pd4Au4C
_symmetry_space_group_name_H-M   'P 1'
_cell_length_a   5.83117000
_cell_length_b   8.29976000
_cell_length_c   24.31400000
_cell_angle_alpha   90.00000000
_cell_angle_beta   90.00000000
_cell_angle_gamma   90.00000000
_symmetry_Int_Tables_number   1
_chemical_formula_structural   Li4In4Pd4Au4C
_chemical_formula_sum   'Li4 In4 Pd4 Au4 C1'
_cell_volume   1176.73223228
_cell_formula_units_Z   1
loop_
 _symmetry_equiv_pos_site_id
 _symmetry_equiv_pos_as_xyz
  1  'x, y, z'
loop_
 _atom_site_type_symbol
 _atom_site_label
 _atom_site_symmetry_multiplicity
 _atom_site_fract_x
 _atom_site_fract_y
 _atom_site_fract_z
 _atom_site_occupancy
  Li  Li0  1  0.77446000  0.75001000  0.01083000  1.0
  Li  Li1  1  0.37315000  0.75000000  0.91129000  1.0
  Li  Li2  1  0.79062000  0.24999000  0.03467000  1.0
  Li  Li3  1  0.37315000  0.25000000  0.91129000  1.0
  In  In4  1  0.44643000  0.99204000  0.10460000  1.0
  In  In5  1  0.08210000  0.00000000  0.97043000  1.0
  In  In6  1  0.44614000  0.50781000  0.10458000  1.0
  In  In7  1  0.08210000  0.50000000  0.97043000  1.0
  Pd  Pd8  1  0.32298000  0.75001000  0.02413000  1.0
  Pd  Pd9  1  0.87315000  0.75000000  0.91129000  1.0
  Pd  Pd10  1  0.28760000  0.24998000  0.03671000  1.0
  Pd  Pd11  1  0.87315000  0.25000000  0.91129000  1.0
  Au  Au12  1  0.94320000  0.94241000  0.08278000  1.0
  Au  Au13  1  0.58210000  0.00000000  0.97043000  1.0
  Au  Au14  1  0.94313000  0.55755000  0.08279000  1.0
  Au  Au15  1  0.58210000  0.50000000  0.97043000  1.0
  C  C16  1  0.66199000  0.74954000  0.09411000  1.0
