# generated using pymatgen
data_Mn16Al16C
_symmetry_space_group_name_H-M   Pmm2
_cell_length_a   7.08360000
_cell_length_b   7.76697000
_cell_length_c   25.82520000
_cell_angle_alpha   90.00000000
_cell_angle_beta   90.00000000
_cell_angle_gamma   90.00000000
_symmetry_Int_Tables_number   25
_chemical_formula_structural   Mn16Al16C
_chemical_formula_sum   'Mn16 Al16 C1'
_cell_volume   1420.85366059
_cell_formula_units_Z   1
loop_
 _symmetry_equiv_pos_site_id
 _symmetry_equiv_pos_as_xyz
  1  'x, y, z'
  2  '-x, -y, z'
  3  '-x, y, z'
  4  'x, -y, z'
loop_
 _atom_site_type_symbol
 _atom_site_label
 _atom_site_symmetry_multiplicity
 _atom_site_fract_x
 _atom_site_fract_y
 _atom_site_fract_z
 _atom_site_occupancy
  Mn  Mn0  4  0.25000000  0.25000000  0.11278000  1.0
  Mn  Mn1  4  0.25000000  0.25000000  0.96241000  1.0
  Mn  Mn2  2  0.25000000  0.00000000  0.03759000  1.0
  Mn  Mn3  2  0.25000000  0.00000000  0.88722000  1.0
  Mn  Mn4  2  0.25000000  0.50000000  0.03759000  1.0
  Mn  Mn5  2  0.25000000  0.50000000  0.88722000  1.0
  Al  Al6  2  0.00000000  0.25000000  0.03759000  1.0
  Al  Al7  2  0.00000000  0.25000000  0.88722000  1.0
  Al  Al8  2  0.50000000  0.25000000  0.03759000  1.0
  Al  Al9  2  0.50000000  0.25000000  0.88722000  1.0
  Al  Al10  1  0.00000000  0.00000000  0.11278000  1.0
  Al  Al11  1  0.00000000  0.00000000  0.96241000  1.0
  Al  Al12  1  0.00000000  0.50000000  0.11278000  1.0
  Al  Al13  1  0.00000000  0.50000000  0.96241000  1.0
  Al  Al14  1  0.50000000  0.00000000  0.11278000  1.0
  Al  Al15  1  0.50000000  0.00000000  0.96241000  1.0
  Al  Al16  1  0.50000000  0.50000000  0.11278000  1.0
  Al  Al17  1  0.50000000  0.50000000  0.96241000  1.0
  C  C18  1  0.00000000  0.00000000  0.85624000  1.0
