# generated using pymatgen
data_Li8Y8In8Ge8C
_symmetry_space_group_name_H-M   'P 1'
_cell_length_a   8.57642000
_cell_length_b   9.31878000
_cell_length_c   26.37020000
_cell_angle_alpha   90.00000000
_cell_angle_beta   90.00000000
_cell_angle_gamma   90.00000000
_symmetry_Int_Tables_number   1
_chemical_formula_structural   Li8Y8In8Ge8C
_chemical_formula_sum   'Li8 Y8 In8 Ge8 C1'
_cell_volume   2107.55309004
_cell_formula_units_Z   1
loop_
 _symmetry_equiv_pos_site_id
 _symmetry_equiv_pos_as_xyz
  1  'x, y, z'
loop_
 _atom_site_type_symbol
 _atom_site_label
 _atom_site_symmetry_multiplicity
 _atom_site_fract_x
 _atom_site_fract_y
 _atom_site_fract_z
 _atom_site_occupancy
  Li  Li0  1  0.75596000  0.00000000  0.13890000  1.0
  Li  Li1  1  0.75001000  0.00000000  0.95974000  1.0
  Li  Li2  1  0.78719000  0.50000000  0.13877000  1.0
  Li  Li3  1  0.75001000  0.50000000  0.95974000  1.0
  Li  Li4  1  0.24404000  0.00000000  0.13890000  1.0
  Li  Li5  1  0.24999000  0.00000000  0.95974000  1.0
  Li  Li6  1  0.21281000  0.50000000  0.13877000  1.0
  Li  Li7  1  0.24999000  0.50000000  0.95974000  1.0
  Y  Y8  1  0.75105000  0.74975000  0.04200000  1.0
  Y  Y9  1  0.75001000  0.75000000  0.87922000  1.0
  Y  Y10  1  0.75105000  0.25025000  0.04200000  1.0
  Y  Y11  1  0.75001000  0.25000000  0.87922000  1.0
  Y  Y12  1  0.24895000  0.74975000  0.04200000  1.0
  Y  Y13  1  0.24999000  0.75000000  0.87922000  1.0
  Y  Y14  1  0.24895000  0.25025000  0.04200000  1.0
  Y  Y15  1  0.24999000  0.25000000  0.87922000  1.0
  In  In16  1  0.50000000  0.00000000  0.04038000  1.0
  In  In17  1  0.50000000  0.00000000  0.87922000  1.0
  In  In18  1  0.50000000  0.50000000  0.03784000  1.0
  In  In19  1  0.50000000  0.50000000  0.87922000  1.0
  In  In20  1  0.00000000  0.00000000  0.05493000  1.0
  In  In21  1  0.00000000  0.00000000  0.87922000  1.0
  In  In22  1  0.00000000  0.50000000  0.05120000  1.0
  In  In23  1  0.00000000  0.50000000  0.87922000  1.0
  Ge  Ge24  1  0.50000000  0.79578000  0.13133000  1.0
  Ge  Ge25  1  0.50000000  0.75000000  0.95974000  1.0
  Ge  Ge26  1  0.50000000  0.20422000  0.13133000  1.0
  Ge  Ge27  1  0.50000000  0.25000000  0.95974000  1.0
  Ge  Ge28  1  0.00000000  0.74314000  0.12329000  1.0
  Ge  Ge29  1  0.00000000  0.75000000  0.95974000  1.0
  Ge  Ge30  1  0.00000000  0.25686000  0.12329000  1.0
  Ge  Ge31  1  0.00000000  0.25000000  0.95974000  1.0
  C  C32  1  0.50000000  0.00000000  0.13647000  1.0
