# generated using pymatgen
data_Li8Nb8Al8Pd8CO
_symmetry_space_group_name_H-M   'P 1'
_cell_length_a   8.86350000
_cell_length_b   6.26744000
_cell_length_c   26.64760000
_cell_angle_alpha   90.00000000
_cell_angle_beta   90.00000000
_cell_angle_gamma   90.00000000
_symmetry_Int_Tables_number   1
_chemical_formula_structural   Li8Nb8Al8Pd8CO
_chemical_formula_sum   'Li8 Nb8 Al8 Pd8 C1 O1'
_cell_volume   1480.31293734
_cell_formula_units_Z   1
loop_
 _symmetry_equiv_pos_site_id
 _symmetry_equiv_pos_as_xyz
  1  'x, y, z'
loop_
 _atom_site_type_symbol
 _atom_site_label
 _atom_site_symmetry_multiplicity
 _atom_site_fract_x
 _atom_site_fract_y
 _atom_site_fract_z
 _atom_site_occupancy
  Li  Li0  1  0.75001000  0.25000000  0.04158000  1.0
  Li  Li1  1  0.24999000  0.25000000  0.04158000  1.0
  Li  Li2  1  0.00000000  0.75000000  0.12473000  1.0
  Li  Li3  1  0.50000000  0.75000000  0.12473000  1.0
  Li  Li4  1  0.24286000  0.29354000  0.82868000  1.0
  Li  Li5  1  0.75714000  0.29354000  0.82868000  1.0
  Li  Li6  1  0.50000000  0.74324000  0.95783000  1.0
  Li  Li7  1  0.00000000  0.75358000  0.95912000  1.0
  Nb  Nb8  1  0.00000000  1.00000000  0.04158000  1.0
  Nb  Nb9  1  0.50000000  1.00000000  0.04158000  1.0
  Nb  Nb10  1  0.25001000  0.50000000  0.12473000  1.0
  Nb  Nb11  1  0.74999000  0.50000000  0.12473000  1.0
  Nb  Nb12  1  0.50000000  0.01971000  0.88038000  1.0
  Nb  Nb13  1  0.00000000  0.02722000  0.87591000  1.0
  Nb  Nb14  1  0.75153000  0.49151000  0.95336000  1.0
  Nb  Nb15  1  0.24847000  0.49151000  0.95336000  1.0
  Al  Al16  1  0.75001000  0.00000000  0.12473000  1.0
  Al  Al17  1  0.24999000  0.00000000  0.12473000  1.0
  Al  Al18  1  0.50000000  0.50000000  0.04158000  1.0
  Al  Al19  1  0.00000000  0.50000000  0.04158000  1.0
  Al  Al20  1  0.25046000  0.00680000  0.95723000  1.0
  Al  Al21  1  0.74954000  0.00680000  0.95723000  1.0
  Al  Al22  1  0.00000000  0.50041000  0.87944000  1.0
  Al  Al23  1  0.50000000  0.49049000  0.87462000  1.0
  Pd  Pd24  1  0.75001000  0.75000000  0.04158000  1.0
  Pd  Pd25  1  0.24999000  0.75000000  0.04158000  1.0
  Pd  Pd26  1  0.00000000  0.25000000  0.12473000  1.0
  Pd  Pd27  1  0.50000000  0.25000000  0.12473000  1.0
  Pd  Pd28  1  0.25118000  0.76412000  0.88071000  1.0
  Pd  Pd29  1  0.74882000  0.76412000  0.88071000  1.0
  Pd  Pd30  1  0.50000000  0.24960000  0.96170000  1.0
  Pd  Pd31  1  0.00000000  0.25280000  0.96382000  1.0
  C  C32  1  0.00000000  0.15260000  0.80625000  1.0
  O  O33  1  0.00000000  0.21469000  0.76362000  1.0
