data_image0
_chemical_formula_structural       Sc8In8Ni16C
_chemical_formula_sum              "Sc8 In8 Ni16 C1"
_cell_length_a       6.31539
_cell_length_b       8.93131
_cell_length_c       26.6985
_cell_angle_alpha    90
_cell_angle_beta     90
_cell_angle_gamma    90

_space_group_name_H-M_alt    "P 1"
_space_group_IT_number       1

loop_
  _space_group_symop_operation_xyz
  'x, y, z'

loop_
  _atom_site_type_symbol
  _atom_site_label
  _atom_site_symmetry_multiplicity
  _atom_site_fract_x
  _atom_site_fract_y
  _atom_site_fract_z
  _atom_site_occupancy
  Sc  Sc1       1.0  0.00000  0.00000  0.87455  1.0000
  Sc  Sc2       1.0  0.50000  0.25000  0.95818  1.0000
  Sc  Sc3       1.0  0.50000  0.75000  0.95818  1.0000
  Sc  Sc4       1.0  0.00000  0.50000  0.87455  1.0000
  Sc  Sc5       1.0  1.00000  0.49999  0.03978  1.0000
  Sc  Sc6       1.0  0.50000  0.74778  0.12642  1.0000
  Sc  Sc7       1.0  0.50000  0.25221  0.12642  1.0000
  Sc  Sc8       1.0  1.00000  0.00001  0.04255  1.0000
  In  In1       1.0  0.00000  0.75000  0.95818  1.0000
  In  In2       1.0  0.50000  0.00000  0.87455  1.0000
  In  In3       1.0  0.00000  0.25000  0.95818  1.0000
  In  In4       1.0  0.50000  0.50000  0.87455  1.0000
  In  In5       1.0  0.00000  0.25280  0.13080  1.0000
  In  In6       1.0  0.50000  0.50001  0.04180  1.0000
  In  In7       1.0  0.00000  0.74720  0.13080  1.0000
  In  In8       1.0  0.50000  0.00001  0.04263  1.0000
  Ni  Ni1       1.0  0.25000  0.00000  0.95818  1.0000
  Ni  Ni2       1.0  0.75000  0.50000  0.95818  1.0000
  Ni  Ni3       1.0  0.75000  0.00000  0.95818  1.0000
  Ni  Ni4       1.0  0.25000  0.50000  0.95818  1.0000
  Ni  Ni5       1.0  0.75000  0.75000  0.87455  1.0000
  Ni  Ni6       1.0  0.25000  0.25000  0.87455  1.0000
  Ni  Ni7       1.0  0.25000  0.75000  0.87455  1.0000
  Ni  Ni8       1.0  0.75000  0.25000  0.87455  1.0000
  Ni  Ni9       1.0  0.22717  0.50002  0.11741  1.0000
  Ni  Ni10      1.0  0.78481  0.99998  0.12646  1.0000
  Ni  Ni11      1.0  0.77283  0.50002  0.11741  1.0000
  Ni  Ni12      1.0  0.21519  0.99999  0.12646  1.0000
  Ni  Ni13      1.0  0.74844  0.25195  0.04371  1.0000
  Ni  Ni14      1.0  0.25155  0.74805  0.04371  1.0000
  Ni  Ni15      1.0  0.25156  0.25195  0.04371  1.0000
  Ni  Ni16      1.0  0.74846  0.74805  0.04371  1.0000
  C   C1        1.0  0.50000  1.00000  0.13787  1.0000
