# generated using pymatgen
data_Sc8In8Ni16C
_symmetry_space_group_name_H-M   'P 1'
_cell_length_a   6.31539000
_cell_length_b   8.93131000
_cell_length_c   26.69850000
_cell_angle_alpha   90.00000000
_cell_angle_beta   90.00000000
_cell_angle_gamma   90.00000000
_symmetry_Int_Tables_number   1
_chemical_formula_structural   Sc8In8Ni16C
_chemical_formula_sum   'Sc8 In8 Ni16 C1'
_cell_volume   1505.92103943
_cell_formula_units_Z   1
loop_
 _symmetry_equiv_pos_site_id
 _symmetry_equiv_pos_as_xyz
  1  'x, y, z'
loop_
 _atom_site_type_symbol
 _atom_site_label
 _atom_site_symmetry_multiplicity
 _atom_site_fract_x
 _atom_site_fract_y
 _atom_site_fract_z
 _atom_site_occupancy
  Sc  Sc0  1  0.00000000  0.00000000  0.87455000  1.0
  Sc  Sc1  1  0.50000000  0.25000000  0.95818000  1.0
  Sc  Sc2  1  0.50000000  0.75000000  0.95818000  1.0
  Sc  Sc3  1  0.00000000  0.50000000  0.87455000  1.0
  Sc  Sc4  1  0.00000000  0.50000000  0.03978000  1.0
  Sc  Sc5  1  0.50000000  0.74778000  0.12642000  1.0
  Sc  Sc6  1  0.50000000  0.25222000  0.12642000  1.0
  Sc  Sc7  1  0.00000000  0.00000000  0.04255000  1.0
  In  In8  1  0.00000000  0.75000000  0.95818000  1.0
  In  In9  1  0.50000000  0.00000000  0.87455000  1.0
  In  In10  1  0.00000000  0.25000000  0.95818000  1.0
  In  In11  1  0.50000000  0.50000000  0.87455000  1.0
  In  In12  1  0.00000000  0.25280000  0.13080000  1.0
  In  In13  1  0.50000000  0.50000000  0.04180000  1.0
  In  In14  1  0.00000000  0.74720000  0.13080000  1.0
  In  In15  1  0.50000000  0.00000000  0.04263000  1.0
  Ni  Ni16  1  0.25000000  0.00000000  0.95818000  1.0
  Ni  Ni17  1  0.75000000  0.50000000  0.95818000  1.0
  Ni  Ni18  1  0.75000000  0.00000000  0.95818000  1.0
  Ni  Ni19  1  0.25000000  0.50000000  0.95818000  1.0
  Ni  Ni20  1  0.75000000  0.75000000  0.87455000  1.0
  Ni  Ni21  1  0.25000000  0.25000000  0.87455000  1.0
  Ni  Ni22  1  0.25000000  0.75000000  0.87455000  1.0
  Ni  Ni23  1  0.75000000  0.25000000  0.87455000  1.0
  Ni  Ni24  1  0.22717000  0.50000000  0.11741000  1.0
  Ni  Ni25  1  0.78481000  0.00000000  0.12646000  1.0
  Ni  Ni26  1  0.77283000  0.50000000  0.11741000  1.0
  Ni  Ni27  1  0.21519000  0.00000000  0.12646000  1.0
  Ni  Ni28  1  0.74844000  0.25195000  0.04371000  1.0
  Ni  Ni29  1  0.25156000  0.74805000  0.04371000  1.0
  Ni  Ni30  1  0.25156000  0.25195000  0.04371000  1.0
  Ni  Ni31  1  0.74844000  0.74805000  0.04371000  1.0
  C  C32  1  0.50000000  0.00000000  0.13787000  1.0
