# generated using pymatgen
data_Mg8In8Ag16CO
_symmetry_space_group_name_H-M   'P 1'
_cell_length_a   9.68893000
_cell_length_b   6.85111000
_cell_length_c   27.26670000
_cell_angle_alpha   90.00000000
_cell_angle_beta   90.00000000
_cell_angle_gamma   90.00000000
_symmetry_Int_Tables_number   1
_chemical_formula_structural   Mg8In8Ag16CO
_chemical_formula_sum   'Mg8 In8 Ag16 C1 O1'
_cell_volume   1809.96150679
_cell_formula_units_Z   1
loop_
 _symmetry_equiv_pos_site_id
 _symmetry_equiv_pos_as_xyz
  1  'x, y, z'
loop_
 _atom_site_type_symbol
 _atom_site_label
 _atom_site_symmetry_multiplicity
 _atom_site_fract_x
 _atom_site_fract_y
 _atom_site_fract_z
 _atom_site_occupancy
  Mg  Mg0  1  0.00000000  0.00000000  0.13325000  1.0
  Mg  Mg1  1  0.25000000  0.50000000  0.04442000  1.0
  Mg  Mg2  1  0.75000000  0.50000000  0.04442000  1.0
  Mg  Mg3  1  0.50000000  0.00000000  0.13325000  1.0
  Mg  Mg4  1  0.49670000  0.00000000  0.95187000  1.0
  Mg  Mg5  1  0.74997000  0.50000000  0.86379000  1.0
  Mg  Mg6  1  0.24998000  0.50000000  0.86335000  1.0
  Mg  Mg7  1  0.00329000  0.00000000  0.95187000  1.0
  In  In8  1  0.75000000  0.00000000  0.04442000  1.0
  In  In9  1  0.00000000  0.50000000  0.13325000  1.0
  In  In10  1  0.25000000  0.00000000  0.04442000  1.0
  In  In11  1  0.50000000  0.50000000  0.13325000  1.0
  In  In12  1  0.24998000  0.00000000  0.85418000  1.0
  In  In13  1  0.50231000  0.50000000  0.95385000  1.0
  In  In14  1  0.74999000  0.00000000  0.85239000  1.0
  In  In15  1  0.99768000  0.50000000  0.95385000  1.0
  Ag  Ag16  1  0.00000000  0.74997000  0.04442000  1.0
  Ag  Ag17  1  0.50000000  0.24997000  0.04442000  1.0
  Ag  Ag18  1  0.00000000  0.25003000  0.04442000  1.0
  Ag  Ag19  1  0.50000000  0.75003000  0.04442000  1.0
  Ag  Ag20  1  0.75000000  0.24997000  0.13325000  1.0
  Ag  Ag21  1  0.25000000  0.74997000  0.13325000  1.0
  Ag  Ag22  1  0.75000000  0.75003000  0.13325000  1.0
  Ag  Ag23  1  0.25000000  0.25003000  0.13325000  1.0
  Ag  Ag24  1  0.50001000  0.74494000  0.86359000  1.0
  Ag  Ag25  1  0.99996000  0.25501000  0.86359000  1.0
  Ag  Ag26  1  0.50001000  0.25506000  0.86359000  1.0
  Ag  Ag27  1  0.99996000  0.74499000  0.86359000  1.0
  Ag  Ag28  1  0.25000000  0.24389000  0.95274000  1.0
  Ag  Ag29  1  0.74999000  0.76490000  0.95219000  1.0
  Ag  Ag30  1  0.25000000  0.75611000  0.95274000  1.0
  Ag  Ag31  1  0.74999000  0.23510000  0.95219000  1.0
  C  C32  1  0.25039000  0.00000000  0.70509000  1.0
  O  O33  1  0.24994000  0.00000000  0.66348000  1.0
