data_image0
_chemical_formula_structural       Y8Sn24CO
_chemical_formula_sum              "Y8 Sn24 C1 O1"
_cell_length_a       9.50155
_cell_length_b       9.50155
_cell_length_c       27.1262
_cell_angle_alpha    90
_cell_angle_beta     90
_cell_angle_gamma    90

_space_group_name_H-M_alt    "P 1"
_space_group_IT_number       1

loop_
  _space_group_symop_operation_xyz
  'x, y, z'

loop_
  _atom_site_type_symbol
  _atom_site_label
  _atom_site_symmetry_multiplicity
  _atom_site_fract_x
  _atom_site_fract_y
  _atom_site_fract_z
  _atom_site_occupancy
  Y   Y1        1.0  0.00000  0.00000  0.86865  1.0000
  Y   Y2        1.0  0.99444  1.00000  0.03799  1.0000
  Y   Y3        1.0  0.00000  0.50000  0.86865  1.0000
  Y   Y4        1.0  0.99620  0.50000  0.03838  1.0000
  Y   Y5        1.0  0.50000  0.00000  0.86865  1.0000
  Y   Y6        1.0  0.50556  0.00000  0.03799  1.0000
  Y   Y7        1.0  0.50000  0.50000  0.86865  1.0000
  Y   Y8        1.0  0.50380  0.50000  0.03838  1.0000
  Sn  Sn1       1.0  0.00000  0.25000  0.95622  1.0000
  Sn  Sn2       1.0  0.25000  0.00000  0.95622  1.0000
  Sn  Sn3       1.0  0.25000  0.25000  0.86865  1.0000
  Sn  Sn4       1.0  0.00085  0.25038  0.13446  1.0000
  Sn  Sn5       1.0  0.25000  0.00000  0.13088  1.0000
  Sn  Sn6       1.0  0.25000  0.24899  0.04948  1.0000
  Sn  Sn7       1.0  0.00000  0.75000  0.95622  1.0000
  Sn  Sn8       1.0  0.25000  0.50000  0.95622  1.0000
  Sn  Sn9       1.0  0.25000  0.75000  0.86865  1.0000
  Sn  Sn10      1.0  0.00084  0.74962  0.13446  1.0000
  Sn  Sn11      1.0  0.25000  0.50000  0.13122  1.0000
  Sn  Sn12      1.0  0.25000  0.75101  0.04948  1.0000
  Sn  Sn13      1.0  0.50000  0.25000  0.95622  1.0000
  Sn  Sn14      1.0  0.75000  0.00000  0.95622  1.0000
  Sn  Sn15      1.0  0.75000  0.25000  0.86865  1.0000
  Sn  Sn16      1.0  0.49915  0.25038  0.13446  1.0000
  Sn  Sn17      1.0  0.75000  1.00000  0.13699  1.0000
  Sn  Sn18      1.0  0.75000  0.25030  0.05383  1.0000
  Sn  Sn19      1.0  0.50000  0.75000  0.95622  1.0000
  Sn  Sn20      1.0  0.75000  0.50000  0.95622  1.0000
  Sn  Sn21      1.0  0.75000  0.75000  0.86865  1.0000
  Sn  Sn22      1.0  0.49916  0.74962  0.13446  1.0000
  Sn  Sn23      1.0  0.75000  0.50000  0.13710  1.0000
  Sn  Sn24      1.0  0.75000  0.74970  0.05383  1.0000
  C   C1        1.0  0.25000  0.99998  0.27903  1.0000
  O   O1        1.0  0.25000  0.00001  0.32086  1.0000
