# generated using pymatgen
data_Ti8In8Ni16CO
_symmetry_space_group_name_H-M   P1
_cell_length_a   6.16408000
_cell_length_b   8.71733000
_cell_length_c   26.53800000
_cell_angle_alpha   90.00000000
_cell_angle_beta   90.00000000
_cell_angle_gamma   90.00000000
_symmetry_Int_Tables_number   1
_chemical_formula_structural   Ti8In8Ni16CO
_chemical_formula_sum   'Ti8 In8 Ni16 C1 O1'
_cell_volume   1426.00137106
_cell_formula_units_Z   1
loop_
 _symmetry_equiv_pos_site_id
 _symmetry_equiv_pos_as_xyz
  1  'x, y, z'
loop_
 _atom_site_type_symbol
 _atom_site_label
 _atom_site_symmetry_multiplicity
 _atom_site_fract_x
 _atom_site_fract_y
 _atom_site_fract_z
 _atom_site_occupancy
  Ti  Ti0  1  0.00000000  0.00000000  0.87682000  1.0
  Ti  Ti1  1  0.00000000  0.50000000  0.87682000  1.0
  Ti  Ti2  1  0.50000000  0.25000000  0.95894000  1.0
  Ti  Ti3  1  0.50000000  0.75000000  0.95894000  1.0
  Ti  Ti4  1  0.50047000  0.25248000  0.11937000  1.0
  Ti  Ti5  1  0.50047000  0.74750000  0.11936000  1.0
  Ti  Ti6  1  0.99704000  0.50001000  0.04358000  1.0
  Ti  Ti7  1  0.99795000  0.00001000  0.04386000  1.0
  In  In8  1  0.00000000  0.25000000  0.95894000  1.0
  In  In9  1  0.00000000  0.75000000  0.95894000  1.0
  In  In10  1  0.49030000  0.99999000  0.03976000  1.0
  In  In11  1  0.49885000  0.50003000  0.03767000  1.0
  In  In12  1  0.50000000  0.00000000  0.87682000  1.0
  In  In13  1  0.50000000  0.50000000  0.87682000  1.0
  In  In14  1  0.99626000  0.74715000  0.13234000  1.0
  In  In15  1  0.99628000  0.25284000  0.13233000  1.0
  Ni  Ni16  1  0.24088000  0.74864000  0.04544000  1.0
  Ni  Ni17  1  0.24093000  0.25138000  0.04543000  1.0
  Ni  Ni18  1  0.25000000  0.00000000  0.95894000  1.0
  Ni  Ni19  1  0.25000000  0.25000000  0.87682000  1.0
  Ni  Ni20  1  0.25000000  0.50000000  0.95894000  1.0
  Ni  Ni21  1  0.25000000  0.75000000  0.87682000  1.0
  Ni  Ni22  1  0.25869000  0.49994000  0.11746000  1.0
  Ni  Ni23  1  0.26508000  0.00004000  0.12764000  1.0
  Ni  Ni24  1  0.73499000  0.49993000  0.11828000  1.0
  Ni  Ni25  1  0.75000000  0.00000000  0.95894000  1.0
  Ni  Ni26  1  0.75000000  0.25000000  0.87682000  1.0
  Ni  Ni27  1  0.75000000  0.50000000  0.95894000  1.0
  Ni  Ni28  1  0.75000000  0.75000000  0.87682000  1.0
  Ni  Ni29  1  0.75198000  0.00005000  0.11611000  1.0
  Ni  Ni30  1  0.75354000  0.24885000  0.04423000  1.0
  Ni  Ni31  1  0.75359000  0.75117000  0.04424000  1.0
  C  C32  1  0.37009000  0.00001000  0.18943000  1.0
  O  O33  1  0.42305000  0.99998000  0.23158000  1.0
