# generated using pymatgen
data_Ti16Ni16CO
_symmetry_space_group_name_H-M   'P 1'
_cell_length_a   6.03636000
_cell_length_b   8.53670000
_cell_length_c   26.40250000
_cell_angle_alpha   90.00000000
_cell_angle_beta   90.00000000
_cell_angle_gamma   90.00000000
_symmetry_Int_Tables_number   1
_chemical_formula_structural   Ti16Ni16CO
_chemical_formula_sum   'Ti16 Ni16 C1 O1'
_cell_volume   1360.53651896
_cell_formula_units_Z   1
loop_
 _symmetry_equiv_pos_site_id
 _symmetry_equiv_pos_as_xyz
  1  'x, y, z'
loop_
 _atom_site_type_symbol
 _atom_site_label
 _atom_site_symmetry_multiplicity
 _atom_site_fract_x
 _atom_site_fract_y
 _atom_site_fract_z
 _atom_site_occupancy
  Ti  Ti0  1  0.25000000  0.00000000  0.87875000  1.0
  Ti  Ti1  1  0.25000000  0.74998000  0.95958000  1.0
  Ti  Ti2  1  0.24801000  0.00000000  0.03975000  1.0
  Ti  Ti3  1  0.25406000  0.74759000  0.12282000  1.0
  Ti  Ti4  1  0.25000000  0.50000000  0.87875000  1.0
  Ti  Ti5  1  0.25000000  0.25002000  0.95958000  1.0
  Ti  Ti6  1  0.24884000  0.50000000  0.03982000  1.0
  Ti  Ti7  1  0.25406000  0.25241000  0.12282000  1.0
  Ti  Ti8  1  0.75000000  0.00000000  0.87875000  1.0
  Ti  Ti9  1  0.75000000  0.74998000  0.95958000  1.0
  Ti  Ti10  1  0.75199000  0.00000000  0.03975000  1.0
  Ti  Ti11  1  0.74594000  0.74759000  0.12282000  1.0
  Ti  Ti12  1  0.75000000  0.50000000  0.87875000  1.0
  Ti  Ti13  1  0.75000000  0.25002000  0.95958000  1.0
  Ti  Ti14  1  0.75116000  0.50000000  0.03982000  1.0
  Ti  Ti15  1  0.74594000  0.25241000  0.12282000  1.0
  Ni  Ni16  1  0.00000000  0.74998000  0.87875000  1.0
  Ni  Ni17  1  0.00000000  0.00000000  0.95958000  1.0
  Ni  Ni18  1  0.00000000  0.75273000  0.04580000  1.0
  Ni  Ni19  1  0.00000000  0.00000000  0.12409000  1.0
  Ni  Ni20  1  0.00000000  0.25002000  0.87875000  1.0
  Ni  Ni21  1  0.00000000  0.50000000  0.95958000  1.0
  Ni  Ni22  1  0.00000000  0.24727000  0.04580000  1.0
  Ni  Ni23  1  0.00000000  0.50000000  0.11237000  1.0
  Ni  Ni24  1  0.50000000  0.74998000  0.87875000  1.0
  Ni  Ni25  1  0.50000000  0.00000000  0.95958000  1.0
  Ni  Ni26  1  0.50000000  0.74749000  0.04425000  1.0
  Ni  Ni27  1  0.50000000  0.00000000  0.11062000  1.0
  Ni  Ni28  1  0.50000000  0.25002000  0.87875000  1.0
  Ni  Ni29  1  0.50000000  0.50000000  0.95958000  1.0
  Ni  Ni30  1  0.50000000  0.25251000  0.04425000  1.0
  Ni  Ni31  1  0.50000000  0.50000000  0.11269000  1.0
  C  C32  1  0.00000000  0.00000000  0.19176000  1.0
  O  O33  1  0.00000000  0.00000000  0.23620000  1.0
