# generated using pymatgen
data_Ti16Ni16CO
_symmetry_space_group_name_H-M   Pmm2
_cell_length_a   6.03636000
_cell_length_b   8.53670000
_cell_length_c   26.40250000
_cell_angle_alpha   90.00000000
_cell_angle_beta   90.00000000
_cell_angle_gamma   90.00000000
_symmetry_Int_Tables_number   25
_chemical_formula_structural   Ti16Ni16CO
_chemical_formula_sum   'Ti16 Ni16 C1 O1'
_cell_volume   1360.53651896
_cell_formula_units_Z   1
loop_
 _symmetry_equiv_pos_site_id
 _symmetry_equiv_pos_as_xyz
  1  'x, y, z'
  2  '-x, -y, z'
  3  '-x, y, z'
  4  'x, -y, z'
loop_
 _atom_site_type_symbol
 _atom_site_label
 _atom_site_symmetry_multiplicity
 _atom_site_fract_x
 _atom_site_fract_y
 _atom_site_fract_z
 _atom_site_occupancy
  Ti  Ti0  4  0.25000000  0.25002000  0.95958000  1.0
  Ti  Ti1  4  0.25406000  0.25241000  0.12282000  1.0
  Ti  Ti2  2  0.24801000  0.00000000  0.03975000  1.0
  Ti  Ti3  2  0.24884000  0.50000000  0.03982000  1.0
  Ti  Ti4  2  0.25000000  0.00000000  0.87875000  1.0
  Ti  Ti5  2  0.25000000  0.50000000  0.87875000  1.0
  Ni  Ni6  2  0.00000000  0.24727000  0.04580000  1.0
  Ni  Ni7  2  0.00000000  0.25002000  0.87875000  1.0
  Ni  Ni8  2  0.50000000  0.25002000  0.87875000  1.0
  Ni  Ni9  2  0.50000000  0.25251000  0.04425000  1.0
  Ni  Ni10  1  0.00000000  0.00000000  0.12409000  1.0
  Ni  Ni11  1  0.00000000  0.00000000  0.95958000  1.0
  Ni  Ni12  1  0.00000000  0.50000000  0.11237000  1.0
  Ni  Ni13  1  0.00000000  0.50000000  0.95958000  1.0
  Ni  Ni14  1  0.50000000  0.00000000  0.11062000  1.0
  Ni  Ni15  1  0.50000000  0.00000000  0.95958000  1.0
  Ni  Ni16  1  0.50000000  0.50000000  0.11269000  1.0
  Ni  Ni17  1  0.50000000  0.50000000  0.95958000  1.0
  C  C18  1  0.00000000  0.00000000  0.19176000  1.0
  O  O19  1  0.00000000  0.00000000  0.23620000  1.0
