# generated using pymatgen
data_Mn16Au16C
_symmetry_space_group_name_H-M   'P 1'
_cell_length_a   6.51708000
_cell_length_b   9.21654000
_cell_length_c   26.91240000
_cell_angle_alpha   90.00000000
_cell_angle_beta   90.00000000
_cell_angle_gamma   90.00000000
_symmetry_Int_Tables_number   1
_chemical_formula_structural   Mn16Au16C
_chemical_formula_sum   'Mn16 Au16 C1'
_cell_volume   1616.49138185
_cell_formula_units_Z   1
loop_
 _symmetry_equiv_pos_site_id
 _symmetry_equiv_pos_as_xyz
  1  'x, y, z'
loop_
 _atom_site_type_symbol
 _atom_site_label
 _atom_site_symmetry_multiplicity
 _atom_site_fract_x
 _atom_site_fract_y
 _atom_site_fract_z
 _atom_site_occupancy
  Mn  Mn0  1  0.25000000  0.25000000  0.87158000  1.0
  Mn  Mn1  1  0.25000000  0.00000000  0.95719000  1.0
  Mn  Mn2  1  0.24615000  0.24975000  0.04440000  1.0
  Mn  Mn3  1  0.26650000  0.00000000  0.12916000  1.0
  Mn  Mn4  1  0.25000000  0.75000000  0.87158000  1.0
  Mn  Mn5  1  0.25000000  0.50000000  0.95719000  1.0
  Mn  Mn6  1  0.24615000  0.75025000  0.04440000  1.0
  Mn  Mn7  1  0.23824000  0.50000000  0.12737000  1.0
  Mn  Mn8  1  0.75000000  0.25000000  0.87158000  1.0
  Mn  Mn9  1  0.75000000  0.00000000  0.95719000  1.0
  Mn  Mn10  1  0.75385000  0.24975000  0.04440000  1.0
  Mn  Mn11  1  0.73350000  0.00000000  0.12916000  1.0
  Mn  Mn12  1  0.75000000  0.75000000  0.87158000  1.0
  Mn  Mn13  1  0.75000000  0.50000000  0.95719000  1.0
  Mn  Mn14  1  0.75385000  0.75025000  0.04440000  1.0
  Mn  Mn15  1  0.76176000  0.50000000  0.12737000  1.0
  Au  Au16  1  0.00000000  0.00000000  0.87158000  1.0
  Au  Au17  1  0.00000000  0.25000000  0.95719000  1.0
  Au  Au18  1  0.00000000  0.00000000  0.03899000  1.0
  Au  Au19  1  0.00000000  0.25039000  0.13293000  1.0
  Au  Au20  1  0.00000000  0.50000000  0.87158000  1.0
  Au  Au21  1  0.00000000  0.75000000  0.95719000  1.0
  Au  Au22  1  0.00000000  0.50000000  0.03937000  1.0
  Au  Au23  1  0.00000000  0.74961000  0.13293000  1.0
  Au  Au24  1  0.50000000  0.00000000  0.87158000  1.0
  Au  Au25  1  0.50000000  0.25000000  0.95719000  1.0
  Au  Au26  1  0.50000000  0.00000000  0.04138000  1.0
  Au  Au27  1  0.50000000  0.25405000  0.12616000  1.0
  Au  Au28  1  0.50000000  0.50000000  0.87158000  1.0
  Au  Au29  1  0.50000000  0.75000000  0.95719000  1.0
  Au  Au30  1  0.50000000  0.50000000  0.04259000  1.0
  Au  Au31  1  0.50000000  0.74595000  0.12616000  1.0
  C  C32  1  0.00000000  0.00000000  0.15255000  1.0
