# generated using pymatgen
data_Mn16Au16C
_symmetry_space_group_name_H-M   Pmm2
_cell_length_a   6.51708000
_cell_length_b   9.21654000
_cell_length_c   26.91240000
_cell_angle_alpha   90.00000000
_cell_angle_beta   90.00000000
_cell_angle_gamma   90.00000000
_symmetry_Int_Tables_number   25
_chemical_formula_structural   Mn16Au16C
_chemical_formula_sum   'Mn16 Au16 C1'
_cell_volume   1616.49138185
_cell_formula_units_Z   1
loop_
 _symmetry_equiv_pos_site_id
 _symmetry_equiv_pos_as_xyz
  1  'x, y, z'
  2  '-x, -y, z'
  3  '-x, y, z'
  4  'x, -y, z'
loop_
 _atom_site_type_symbol
 _atom_site_label
 _atom_site_symmetry_multiplicity
 _atom_site_fract_x
 _atom_site_fract_y
 _atom_site_fract_z
 _atom_site_occupancy
  Mn  Mn0  4  0.24615000  0.24975000  0.04440000  1.0
  Mn  Mn1  4  0.25000000  0.25000000  0.87158000  1.0
  Mn  Mn2  2  0.23824000  0.50000000  0.12737000  1.0
  Mn  Mn3  2  0.25000000  0.00000000  0.95719000  1.0
  Mn  Mn4  2  0.25000000  0.50000000  0.95719000  1.0
  Mn  Mn5  2  0.26650000  0.00000000  0.12916000  1.0
  Au  Au6  2  0.00000000  0.25000000  0.95719000  1.0
  Au  Au7  2  0.00000000  0.25039000  0.13293000  1.0
  Au  Au8  2  0.50000000  0.25000000  0.95719000  1.0
  Au  Au9  2  0.50000000  0.25405000  0.12616000  1.0
  Au  Au10  1  0.00000000  0.00000000  0.03899000  1.0
  Au  Au11  1  0.00000000  0.00000000  0.87158000  1.0
  Au  Au12  1  0.00000000  0.50000000  0.03937000  1.0
  Au  Au13  1  0.00000000  0.50000000  0.87158000  1.0
  Au  Au14  1  0.50000000  0.00000000  0.04138000  1.0
  Au  Au15  1  0.50000000  0.00000000  0.87158000  1.0
  Au  Au16  1  0.50000000  0.50000000  0.04259000  1.0
  Au  Au17  1  0.50000000  0.50000000  0.87158000  1.0
  C  C18  1  0.00000000  0.00000000  0.15255000  1.0
