# generated using pymatgen
data_Li8Al8Ga8Pd8C
_symmetry_space_group_name_H-M   'P 1'
_cell_length_a   8.69058000
_cell_length_b   6.14517000
_cell_length_c   26.51790000
_cell_angle_alpha   90.00000000
_cell_angle_beta   90.00000000
_cell_angle_gamma   90.00000000
_symmetry_Int_Tables_number   1
_chemical_formula_structural   Li8Al8Ga8Pd8C
_chemical_formula_sum   'Li8 Al8 Ga8 Pd8 C1'
_cell_volume   1416.19087585
_cell_formula_units_Z   1
loop_
 _symmetry_equiv_pos_site_id
 _symmetry_equiv_pos_as_xyz
  1  'x, y, z'
loop_
 _atom_site_type_symbol
 _atom_site_label
 _atom_site_symmetry_multiplicity
 _atom_site_fract_x
 _atom_site_fract_y
 _atom_site_fract_z
 _atom_site_occupancy
  Li  Li0  1  0.00000000  0.75000000  0.04097000  1.0
  Li  Li1  1  0.50000000  0.75000000  0.04097000  1.0
  Li  Li2  1  0.25000000  0.25000000  0.12290000  1.0
  Li  Li3  1  0.75000000  0.25000000  0.12290000  1.0
  Li  Li4  1  0.50000000  0.79364000  0.84680000  1.0
  Li  Li5  1  0.00000000  0.70895000  0.82639000  1.0
  Li  Li6  1  0.75406000  0.24153000  0.95531000  1.0
  Li  Li7  1  0.24594000  0.24153000  0.95531000  1.0
  Al  Al8  1  0.00000000  0.00000000  0.12290000  1.0
  Al  Al9  1  0.50000000  0.00000000  0.12290000  1.0
  Al  Al10  1  0.75000000  0.50000000  0.04097000  1.0
  Al  Al11  1  0.25000000  0.50000000  0.04097000  1.0
  Al  Al12  1  0.50000000  0.98895000  0.95654000  1.0
  Al  Al13  1  0.00000000  0.95733000  0.94659000  1.0
  Al  Al14  1  0.25969000  0.51579000  0.87415000  1.0
  Al  Al15  1  0.74031000  0.51579000  0.87415000  1.0
  Ga  Ga16  1  0.25000000  0.00000000  0.04097000  1.0
  Ga  Ga17  1  0.75000000  0.00000000  0.04097000  1.0
  Ga  Ga18  1  0.50000000  0.50000000  0.12290000  1.0
  Ga  Ga19  1  0.00000000  0.50000000  0.12290000  1.0
  Ga  Ga20  1  0.76685000  0.98426000  0.86274000  1.0
  Ga  Ga21  1  0.23315000  0.98426000  0.86274000  1.0
  Ga  Ga22  1  0.00000000  0.50840000  0.95908000  1.0
  Ga  Ga23  1  0.50000000  0.50717000  0.95523000  1.0
  Pd  Pd24  1  0.00000000  0.25000000  0.04097000  1.0
  Pd  Pd25  1  0.50000000  0.25000000  0.04097000  1.0
  Pd  Pd26  1  0.25000000  0.75000000  0.12290000  1.0
  Pd  Pd27  1  0.75000000  0.75000000  0.12290000  1.0
  Pd  Pd28  1  0.50000000  0.24691000  0.88006000  1.0
  Pd  Pd29  1  0.00000000  0.32984000  0.87415000  1.0
  Pd  Pd30  1  0.74548000  0.74926000  0.96239000  1.0
  Pd  Pd31  1  0.25452000  0.74926000  0.96239000  1.0
  C  C32  1  0.00000000  0.99020000  0.87078000  1.0
