# generated using pymatgen
data_Li8Al8Ga8Pd8C
_symmetry_space_group_name_H-M   Pm
_cell_length_a   6.14517000
_cell_length_b   8.69058000
_cell_length_c   26.51790000
_cell_angle_alpha   90.00000000
_cell_angle_beta   90.00000000
_cell_angle_gamma   90.00000000
_symmetry_Int_Tables_number   6
_chemical_formula_structural   Li8Al8Ga8Pd8C
_chemical_formula_sum   'Li8 Al8 Ga8 Pd8 C1'
_cell_volume   1416.19087585
_cell_formula_units_Z   1
loop_
 _symmetry_equiv_pos_site_id
 _symmetry_equiv_pos_as_xyz
  1  'x, y, z'
  2  'x, -y, z'
loop_
 _atom_site_type_symbol
 _atom_site_label
 _atom_site_symmetry_multiplicity
 _atom_site_fract_x
 _atom_site_fract_y
 _atom_site_fract_z
 _atom_site_occupancy
  Li  Li0  2  0.24153000  0.24594000  0.04469000  1.0
  Li  Li1  2  0.25000000  0.25000000  0.87710000  1.0
  Li  Li2  1  0.70895000  0.00000000  0.17361000  1.0
  Li  Li3  1  0.75000000  0.00000000  0.95903000  1.0
  Li  Li4  1  0.75000000  0.50000000  0.95903000  1.0
  Li  Li5  1  0.79364000  0.50000000  0.15320000  1.0
  Al  Al6  2  0.50000000  0.25000000  0.95903000  1.0
  Al  Al7  2  0.51579000  0.25969000  0.12585000  1.0
  Al  Al8  1  0.00000000  0.00000000  0.87710000  1.0
  Al  Al9  1  0.00000000  0.50000000  0.87710000  1.0
  Al  Al10  1  0.95733000  0.00000000  0.05341000  1.0
  Al  Al11  1  0.98895000  0.50000000  0.04346000  1.0
  Ga  Ga12  2  0.00000000  0.25000000  0.95903000  1.0
  Ga  Ga13  2  0.98426000  0.23315000  0.13726000  1.0
  Ga  Ga14  1  0.50000000  0.00000000  0.87710000  1.0
  Ga  Ga15  1  0.50000000  0.50000000  0.87710000  1.0
  Ga  Ga16  1  0.50717000  0.50000000  0.04477000  1.0
  Ga  Ga17  1  0.50840000  0.00000000  0.04092000  1.0
  Pd  Pd18  2  0.74926000  0.25452000  0.03761000  1.0
  Pd  Pd19  2  0.75000000  0.25000000  0.87710000  1.0
  Pd  Pd20  1  0.24691000  0.50000000  0.11994000  1.0
  Pd  Pd21  1  0.25000000  0.00000000  0.95903000  1.0
  Pd  Pd22  1  0.25000000  0.50000000  0.95903000  1.0
  Pd  Pd23  1  0.32984000  0.00000000  0.12585000  1.0
  C  C24  1  0.99020000  0.00000000  0.12922000  1.0
