# generated using pymatgen
data_Al8V8Ni16C
_symmetry_space_group_name_H-M   'P 1'
_cell_length_a   5.81764000
_cell_length_b   8.22738000
_cell_length_c   26.17050000
_cell_angle_alpha   90.00000000
_cell_angle_beta   90.00000000
_cell_angle_gamma   90.00000000
_symmetry_Int_Tables_number   1
_chemical_formula_structural   Al8V8Ni16C
_chemical_formula_sum   'Al8 V8 Ni16 C1'
_cell_volume   1252.62311048
_cell_formula_units_Z   1
loop_
 _symmetry_equiv_pos_site_id
 _symmetry_equiv_pos_as_xyz
  1  'x, y, z'
loop_
 _atom_site_type_symbol
 _atom_site_label
 _atom_site_symmetry_multiplicity
 _atom_site_fract_x
 _atom_site_fract_y
 _atom_site_fract_z
 _atom_site_occupancy
  Al  Al0  1  0.00000000  0.00000000  0.88211000  1.0
  Al  Al1  1  0.50000000  0.24997000  0.96070000  1.0
  Al  Al2  1  0.50000000  0.75003000  0.96070000  1.0
  Al  Al3  1  0.00000000  0.50000000  0.88211000  1.0
  Al  Al4  1  0.00000000  0.50000000  0.03811000  1.0
  Al  Al5  1  0.50000000  0.73949000  0.11794000  1.0
  Al  Al6  1  0.50000000  0.26051000  0.11794000  1.0
  Al  Al7  1  0.00000000  0.00000000  0.04029000  1.0
  V  V8  1  0.00000000  0.74997000  0.96070000  1.0
  V  V9  1  0.50000000  0.00000000  0.88211000  1.0
  V  V10  1  0.00000000  0.25003000  0.96070000  1.0
  V  V11  1  0.50000000  0.50000000  0.88211000  1.0
  V  V12  1  0.00000000  0.23329000  0.12066000  1.0
  V  V13  1  0.50000000  0.50000000  0.04016000  1.0
  V  V14  1  0.00000000  0.76671000  0.12066000  1.0
  V  V15  1  0.50000000  0.00000000  0.03711000  1.0
  Ni  Ni16  1  0.25000000  0.00000000  0.96070000  1.0
  Ni  Ni17  1  0.75000000  0.50000000  0.96070000  1.0
  Ni  Ni18  1  0.75000000  0.00000000  0.96070000  1.0
  Ni  Ni19  1  0.25000000  0.50000000  0.96070000  1.0
  Ni  Ni20  1  0.75000000  0.74997000  0.88211000  1.0
  Ni  Ni21  1  0.25000000  0.25003000  0.88211000  1.0
  Ni  Ni22  1  0.25000000  0.74997000  0.88211000  1.0
  Ni  Ni23  1  0.75000000  0.25003000  0.88211000  1.0
  Ni  Ni24  1  0.23815000  0.50000000  0.11346000  1.0
  Ni  Ni25  1  0.70662000  0.00000000  0.11376000  1.0
  Ni  Ni26  1  0.76185000  0.50000000  0.11346000  1.0
  Ni  Ni27  1  0.29338000  0.00000000  0.11376000  1.0
  Ni  Ni28  1  0.76176000  0.25090000  0.04009000  1.0
  Ni  Ni29  1  0.23824000  0.74910000  0.04009000  1.0
  Ni  Ni30  1  0.23824000  0.25090000  0.04009000  1.0
  Ni  Ni31  1  0.76176000  0.74910000  0.04009000  1.0
  C  C32  1  0.00000000  0.00000000  0.14144000  1.0
