# generated using pymatgen
data_Li4Zn4Ge4Pd4C
_symmetry_space_group_name_H-M   'P 1'
_cell_length_a   6.18512000
_cell_length_b   6.18512000
_cell_length_c   24.63880000
_cell_angle_alpha   90.00000000
_cell_angle_beta   90.00000000
_cell_angle_gamma   90.00000000
_symmetry_Int_Tables_number   1
_chemical_formula_structural   Li4Zn4Ge4Pd4C
_chemical_formula_sum   'Li4 Zn4 Ge4 Pd4 C1'
_cell_volume   942.57477312
_cell_formula_units_Z   1
loop_
 _symmetry_equiv_pos_site_id
 _symmetry_equiv_pos_as_xyz
  1  'x, y, z'
loop_
 _atom_site_type_symbol
 _atom_site_label
 _atom_site_symmetry_multiplicity
 _atom_site_fract_x
 _atom_site_fract_y
 _atom_site_fract_z
 _atom_site_occupancy
  Li  Li0  1  0.75000000  0.25000000  0.03138000  1.0
  Li  Li1  1  0.75343000  0.74638000  0.88632000  1.0
  Li  Li2  1  0.24657000  0.25362000  0.88632000  1.0
  Li  Li3  1  0.25000000  0.75000000  0.03138000  1.0
  Zn  Zn4  1  0.00000000  0.50000000  0.09414000  1.0
  Zn  Zn5  1  0.00000000  0.00000000  0.96856000  1.0
  Zn  Zn6  1  0.50000000  0.50000000  0.96858000  1.0
  Zn  Zn7  1  0.50000000  0.00000000  0.09414000  1.0
  Ge  Ge8  1  0.00000000  0.00000000  0.09414000  1.0
  Ge  Ge9  1  0.00000000  0.50000000  0.97302000  1.0
  Ge  Ge10  1  0.50000000  0.00000000  0.95594000  1.0
  Ge  Ge11  1  0.50000000  0.50000000  0.09414000  1.0
  Pd  Pd12  1  0.25000000  0.25000000  0.03138000  1.0
  Pd  Pd13  1  0.23729000  0.73722000  0.91017000  1.0
  Pd  Pd14  1  0.76271000  0.26278000  0.91017000  1.0
  Pd  Pd15  1  0.75000000  0.75000000  0.03138000  1.0
  C  C16  1  0.00000000  0.50000000  0.89236000  1.0
