# generated using pymatgen
data_Li8Mg8In8Sn8CO
_symmetry_space_group_name_H-M   Pm
_cell_length_a   7.01918000
_cell_length_b   9.92662000
_cell_length_c   27.44500000
_cell_angle_alpha   90.00000000
_cell_angle_beta   90.00000000
_cell_angle_gamma   90.00000000
_symmetry_Int_Tables_number   6
_chemical_formula_structural   Li8Mg8In8Sn8CO
_chemical_formula_sum   'Li8 Mg8 In8 Sn8 C1 O1'
_cell_volume   1912.27792543
_cell_formula_units_Z   1
loop_
 _symmetry_equiv_pos_site_id
 _symmetry_equiv_pos_as_xyz
  1  'x, y, z'
  2  'x, -y, z'
loop_
 _atom_site_type_symbol
 _atom_site_label
 _atom_site_symmetry_multiplicity
 _atom_site_fract_x
 _atom_site_fract_y
 _atom_site_fract_z
 _atom_site_occupancy
  Li  Li0  2  0.25000000  0.25000000  0.86437000  1.0
  Li  Li1  2  0.25109000  0.24906000  0.04742000  1.0
  Li  Li2  1  0.75000000  0.00000000  0.95479000  1.0
  Li  Li3  1  0.75000000  0.50000000  0.95479000  1.0
  Li  Li4  1  0.75035000  0.00000000  0.14507000  1.0
  Li  Li5  1  0.75362000  0.50000000  0.14186000  1.0
  Mg  Mg6  2  0.74533000  0.25082000  0.04939000  1.0
  Mg  Mg7  2  0.75000000  0.25000000  0.86437000  1.0
  Mg  Mg8  1  0.23677000  0.50000000  0.14758000  1.0
  Mg  Mg9  1  0.23928000  0.00000000  0.14504000  1.0
  Mg  Mg10  1  0.25000000  0.00000000  0.95479000  1.0
  Mg  Mg11  1  0.25000000  0.50000000  0.95479000  1.0
  In  In12  2  0.50000000  0.25000000  0.95479000  1.0
  In  In13  2  0.50001000  0.25371000  0.14907000  1.0
  In  In14  1  0.00000000  0.00000000  0.86437000  1.0
  In  In15  1  0.00000000  0.50000000  0.86437000  1.0
  In  In16  1  0.00173000  0.00000000  0.05015000  1.0
  In  In17  1  0.00528000  0.50000000  0.05018000  1.0
  Sn  Sn18  2  0.00000000  0.25000000  0.95479000  1.0
  Sn  Sn19  2  0.99371000  0.25138000  0.14183000  1.0
  Sn  Sn20  1  0.49237000  0.50000000  0.05172000  1.0
  Sn  Sn21  1  0.49402000  0.00000000  0.05188000  1.0
  Sn  Sn22  1  0.50000000  0.00000000  0.86437000  1.0
  Sn  Sn23  1  0.50000000  0.50000000  0.86437000  1.0
  C  C24  1  0.74879000  0.00000000  0.22153000  1.0
  O  O25  1  0.75230000  0.00000000  0.26319000  1.0
