# generated using pymatgen
data_YInSnPd
_symmetry_space_group_name_H-M   'P 1'
_cell_length_a   8.73372000
_cell_length_b   6.44465000
_cell_length_c   24.83320000
_cell_angle_alpha   90.00000000
_cell_angle_beta   90.00000000
_cell_angle_gamma   90.00000000
_symmetry_Int_Tables_number   1
_chemical_formula_structural   YInSnPd
_chemical_formula_sum   'Y4 In4 Sn4 Pd4'
_cell_volume   1397.75574875
_cell_formula_units_Z   4
loop_
 _symmetry_equiv_pos_site_id
 _symmetry_equiv_pos_as_xyz
  1  'x, y, z'
loop_
 _atom_site_type_symbol
 _atom_site_label
 _atom_site_symmetry_multiplicity
 _atom_site_fract_x
 _atom_site_fract_y
 _atom_site_fract_z
 _atom_site_occupancy
  Y  Y0  1  0.00000000  0.50000000  0.90269000  1.0
  Y  Y1  1  0.00000000  0.01457000  0.03837000  1.0
  Y  Y2  1  0.50000000  0.50000000  0.90269000  1.0
  Y  Y3  1  0.50000000  0.01477000  0.03832000  1.0
  In  In4  1  0.00000000  0.00000000  0.90269000  1.0
  In  In5  1  0.00000000  0.52701000  0.03420000  1.0
  In  In6  1  0.50000000  0.00000000  0.90269000  1.0
  In  In7  1  0.50000000  0.52691000  0.03414000  1.0
  Sn  Sn8  1  0.75000000  0.25275000  0.96756000  1.0
  Sn  Sn9  1  0.74955000  0.72932000  0.09962000  1.0
  Sn  Sn10  1  0.25000000  0.25275000  0.96756000  1.0
  Sn  Sn11  1  0.25045000  0.72932000  0.09962000  1.0
  Pd  Pd12  1  0.75000000  0.75275000  0.96756000  1.0
  Pd  Pd13  1  0.74999000  0.27962000  0.08021000  1.0
  Pd  Pd14  1  0.25000000  0.75275000  0.96756000  1.0
  Pd  Pd15  1  0.25001000  0.27962000  0.08021000  1.0
