# generated using pymatgen
data_Fe4Ir12CO
_symmetry_space_group_name_H-M   Pm
_cell_length_a   5.48398000
_cell_length_b   7.75552000
_cell_length_c   24.11300000
_cell_angle_alpha   90.00000000
_cell_angle_beta   90.00000000
_cell_angle_gamma   90.00000000
_symmetry_Int_Tables_number   6
_chemical_formula_structural   Fe4Ir12CO
_chemical_formula_sum   'Fe4 Ir12 C1 O1'
_cell_volume   1025.55281384
_cell_formula_units_Z   1
loop_
 _symmetry_equiv_pos_site_id
 _symmetry_equiv_pos_as_xyz
  1  'x, y, z'
  2  'x, -y, z'
loop_
 _atom_site_type_symbol
 _atom_site_label
 _atom_site_symmetry_multiplicity
 _atom_site_fract_x
 _atom_site_fract_y
 _atom_site_fract_z
 _atom_site_occupancy
  Fe  Fe0  2  0.00000000  0.25000000  0.08529000  1.0
  Fe  Fe1  2  0.50000000  0.25000000  0.97157000  1.0
  Ir  Ir2  2  0.00000000  0.25000000  0.97157000  1.0
  Ir  Ir3  2  0.50000000  0.25000000  0.08529000  1.0
  Ir  Ir4  1  0.25000000  0.00000000  0.02843000  1.0
  Ir  Ir5  1  0.25000000  0.00000000  0.91471000  1.0
  Ir  Ir6  1  0.25000000  0.50000000  0.02843000  1.0
  Ir  Ir7  1  0.25000000  0.50000000  0.91471000  1.0
  Ir  Ir8  1  0.75000000  0.00000000  0.02843000  1.0
  Ir  Ir9  1  0.75000000  0.00000000  0.91471000  1.0
  Ir  Ir10  1  0.75000000  0.50000000  0.02843000  1.0
  Ir  Ir11  1  0.75000000  0.50000000  0.91471000  1.0
  C  C12  1  0.75000000  0.50000000  0.83592000  1.0
  O  O13  1  0.75000000  0.50000000  0.78823000  1.0
