# generated using pymatgen
data_Li8Ga4Ir4CO
_symmetry_space_group_name_H-M   'P 1'
_cell_length_a   5.92875000
_cell_length_b   5.92875000
_cell_length_c   24.44660000
_cell_angle_alpha   90.00000000
_cell_angle_beta   90.00000000
_cell_angle_gamma   90.00000000
_symmetry_Int_Tables_number   1
_chemical_formula_structural   Li8Ga4Ir4CO
_chemical_formula_sum   'Li8 Ga4 Ir4 C1 O1'
_cell_volume   859.29986169
_cell_formula_units_Z   1
loop_
 _symmetry_equiv_pos_site_id
 _symmetry_equiv_pos_as_xyz
  1  'x, y, z'
loop_
 _atom_site_type_symbol
 _atom_site_label
 _atom_site_symmetry_multiplicity
 _atom_site_fract_x
 _atom_site_fract_y
 _atom_site_fract_z
 _atom_site_occupancy
  Li  Li0  1  0.50000000  0.50000000  0.96969000  1
  Li  Li1  1  0.00000000  0.00000000  0.09094000  1
  Li  Li2  1  0.50000000  0.00000000  0.96969000  1
  Li  Li3  1  0.00000000  0.50000000  0.09094000  1
  Li  Li4  1  0.00000000  0.00000000  0.96969000  1
  Li  Li5  1  0.50000000  0.50000000  0.09094000  1
  Li  Li6  1  0.00000000  0.50000000  0.96969000  1
  Li  Li7  1  0.50000000  0.00000000  0.09094000  1
  Ga  Ga8  1  0.75000000  0.25000000  0.90906000  1
  Ga  Ga9  1  0.25000000  0.75000000  0.90906000  1
  Ga  Ga10  1  0.75000000  0.75000000  0.03031000  1
  Ga  Ga11  1  0.25000000  0.25000000  0.03031000  1
  Ir  Ir12  1  0.75000000  0.25000000  0.03031000  1
  Ir  Ir13  1  0.75000000  0.75000000  0.90906000  1
  Ir  Ir14  1  0.25000000  0.25000000  0.90906000  1
  Ir  Ir15  1  0.25000000  0.75000000  0.03031000  1
  C  C16  1  0.50000000  0.50000000  0.16867000  1
  O  O17  1  0.50000000  0.50000000  0.21571000  1
