# generated using pymatgen
data_Sc4Ga4Cu4Pd4CO
_symmetry_space_group_name_H-M   'P 1'
_cell_length_a   6.33027000
_cell_length_b   6.33027000
_cell_length_c   24.74770000
_cell_angle_alpha   90.00000000
_cell_angle_beta   90.00000000
_cell_angle_gamma   90.00000000
_symmetry_Int_Tables_number   1
_chemical_formula_structural   Sc4Ga4Cu4Pd4CO
_chemical_formula_sum   'Sc4 Ga4 Cu4 Pd4 C1 O1'
_cell_volume   991.69771092
_cell_formula_units_Z   1
loop_
 _symmetry_equiv_pos_site_id
 _symmetry_equiv_pos_as_xyz
  1  'x, y, z'
loop_
 _atom_site_type_symbol
 _atom_site_label
 _atom_site_symmetry_multiplicity
 _atom_site_fract_x
 _atom_site_fract_y
 _atom_site_fract_z
 _atom_site_occupancy
  Sc  Sc0  1  0.50000000  0.50000000  0.96803000  1
  Sc  Sc1  1  1.00000000  0.50000000  0.09592000  1
  Sc  Sc2  1  0.50000000  0.00000000  0.09592000  1
  Sc  Sc3  1  0.00000000  0.00000000  0.96803000  1
  Ga  Ga4  1  0.50000000  0.00000000  0.96803000  1
  Ga  Ga5  1  0.00000000  0.00000000  0.09592000  1
  Ga  Ga6  1  0.50000000  0.50000000  0.09592000  1
  Ga  Ga7  1  1.00000000  0.50000000  0.96803000  1
  Cu  Cu8  1  0.75000000  0.75000000  0.90408000  1
  Cu  Cu9  1  0.25000000  0.75000000  0.03197000  1
  Cu  Cu10  1  0.75000000  0.25000000  0.03197000  1
  Cu  Cu11  1  0.25000000  0.25000000  0.90408000  1
  Pd  Pd12  1  0.25000000  0.75000000  0.90408000  1
  Pd  Pd13  1  0.75000000  0.75000000  0.03197000  1
  Pd  Pd14  1  0.25000000  0.25000000  0.03197000  1
  Pd  Pd15  1  0.75000000  0.25000000  0.90408000  1
  C  C16  1  0.50000000  0.50000000  0.17270000  1
  O  O17  1  0.50000000  0.50000000  0.21917000  1
