data_image0
_chemical_formula_structural       Li8Al4Pt4C
_chemical_formula_sum              "Li8 Al4 Pt4 C1"
_cell_length_a       6.07419
_cell_length_b       6.07419
_cell_length_c       24.5556
_cell_angle_alpha    90
_cell_angle_beta     90
_cell_angle_gamma    90

_space_group_name_H-M_alt    "P 1"
_space_group_IT_number       1

loop_
  _space_group_symop_operation_xyz
  'x, y, z'

loop_
  _atom_site_type_symbol
  _atom_site_label
  _atom_site_symmetry_multiplicity
  _atom_site_fract_x
  _atom_site_fract_y
  _atom_site_fract_z
  _atom_site_occupancy
  Li  Li1       1.0  0.00000  0.00000  0.96908  1.0000
  Li  Li2       1.0  0.49573  0.00326  0.10491  1.0000
  Li  Li3       1.0  0.00326  0.49573  0.10491  1.0000
  Li  Li4       1.0  0.50000  0.50000  0.96908  1.0000
  Li  Li5       1.0  0.24979  0.24979  0.02292  1.0000
  Li  Li6       1.0  0.25000  0.75000  0.90724  1.0000
  Li  Li7       1.0  0.75062  0.75062  0.03648  1.0000
  Li  Li8       1.0  0.75000  0.25000  0.90724  1.0000
  Al  Al1       1.0  0.03248  0.03248  0.09185  1.0000
  Al  Al2       1.0  0.46715  0.46715  0.09187  1.0000
  Al  Al3       1.0  0.50000  0.00000  0.96908  1.0000
  Al  Al4       1.0  0.00000  0.50000  0.96908  1.0000
  Pt  Pt1       1.0  0.25000  0.25000  0.90724  1.0000
  Pt  Pt2       1.0  0.25002  0.74997  0.02917  1.0000
  Pt  Pt3       1.0  0.75000  0.75000  0.90724  1.0000
  Pt  Pt4       1.0  0.74997  0.25002  0.02917  1.0000
  C   C1        1.0  0.24972  0.24972  0.10819  1.0000
