# generated using pymatgen
data_Li8Al4Pt4C
_symmetry_space_group_name_H-M   'P 1'
_cell_length_a   6.07419000
_cell_length_b   6.07419000
_cell_length_c   24.55560000
_cell_angle_alpha   90.00000000
_cell_angle_beta   90.00000000
_cell_angle_gamma   90.00000000
_symmetry_Int_Tables_number   1
_chemical_formula_structural   Li8Al4Pt4C
_chemical_formula_sum   'Li8 Al4 Pt4 C1'
_cell_volume   905.99811742
_cell_formula_units_Z   1
loop_
 _symmetry_equiv_pos_site_id
 _symmetry_equiv_pos_as_xyz
  1  'x, y, z'
loop_
 _atom_site_type_symbol
 _atom_site_label
 _atom_site_symmetry_multiplicity
 _atom_site_fract_x
 _atom_site_fract_y
 _atom_site_fract_z
 _atom_site_occupancy
  Li  Li0  1  0.00000000  0.00000000  0.03092000  1
  Li  Li1  1  0.00322000  0.50426000  0.89507000  1
  Li  Li2  1  0.49574000  0.99678000  0.89507000  1
  Li  Li3  1  0.50000000  0.50000000  0.03092000  1
  Li  Li4  1  0.24977000  0.75023000  0.97710000  1
  Li  Li5  1  0.75000000  0.75000000  0.09276000  1
  Li  Li6  1  0.75061000  0.24939000  0.96351000  1
  Li  Li7  1  0.25000000  0.25000000  0.09276000  1
  Al  Al8  1  0.03239500  0.96760500  0.90815000  1
  Al  Al9  1  0.46721500  0.53278500  0.90813000  1
  Al  Al10  1  1.00000000  0.50000000  0.03092000  1
  Al  Al11  1  0.50000000  0.00000000  0.03092000  1
  Pt  Pt12  1  0.25000000  0.75000000  0.09276000  1
  Pt  Pt13  1  0.74997000  0.74998000  0.97083000  1
  Pt  Pt14  1  0.75000000  0.25000000  0.09276000  1
  Pt  Pt15  1  0.25002000  0.25003000  0.97083000  1
  C  C16  1  0.24975000  0.75025000  0.89180000  1
