# generated using pymatgen
data_Li8Al4Pt4C
_symmetry_space_group_name_H-M   Cm
_cell_length_a   8.59020188
_cell_length_b   8.59020188
_cell_length_c   24.55560000
_cell_angle_alpha   90.00000000
_cell_angle_beta   90.00000000
_cell_angle_gamma   90.00000000
_symmetry_Int_Tables_number   8
_chemical_formula_structural   Li8Al4Pt4C
_chemical_formula_sum   'Li16 Al8 Pt8 C2'
_cell_volume   1811.99623485
_cell_formula_units_Z   2
loop_
 _symmetry_equiv_pos_site_id
 _symmetry_equiv_pos_as_xyz
  1  'x, y, z'
  2  'x, -y, z'
  3  'x+1/2, y+1/2, z'
  4  'x+1/2, -y+1/2, z'
loop_
 _atom_site_type_symbol
 _atom_site_label
 _atom_site_symmetry_multiplicity
 _atom_site_fract_x
 _atom_site_fract_y
 _atom_site_fract_z
 _atom_site_occupancy
  Li  Li0  4  0.00000000  0.25000000  0.90724000  1.0
  Li  Li1  4  0.24948000  0.24626000  0.10493000  1.0
  Li  Li2  2  0.00000000  0.00000000  0.96908000  1.0
  Li  Li3  2  0.00000000  0.50000000  0.96908000  1.0
  Li  Li4  2  0.24977000  0.00000000  0.02290000  1.0
  Li  Li5  2  0.25061000  0.50000000  0.03649000  1.0
  Al  Al6  4  0.25000000  0.25000000  0.96908000  1.0
  Al  Al7  2  0.03239500  0.00000000  0.09185000  1.0
  Al  Al8  2  0.46721500  0.00000000  0.09187000  1.0
  Pt  Pt9  4  0.49999500  0.24997500  0.02917000  1.0
  Pt  Pt10  2  0.25000000  0.00000000  0.90724000  1.0
  Pt  Pt11  2  0.25000000  0.50000000  0.90724000  1.0
  C  C12  2  0.24975000  0.00000000  0.10820000  1.0
