data_image0
_chemical_formula_structural       Li8Al8Ag16CO
_chemical_formula_sum              "Li8 Al8 Ag16 C1 O1"
_cell_length_a       6.40528
_cell_length_b       9.05843
_cell_length_c       26.7938
_cell_angle_alpha    90
_cell_angle_beta     90
_cell_angle_gamma    90

_space_group_name_H-M_alt    "P 1"
_space_group_IT_number       1

loop_
  _space_group_symop_operation_xyz
  'x, y, z'

loop_
  _atom_site_type_symbol
  _atom_site_label
  _atom_site_symmetry_multiplicity
  _atom_site_fract_x
  _atom_site_fract_y
  _atom_site_fract_z
  _atom_site_occupancy
  Li  Li1       1.0  0.00000  0.00000  0.87322  1.0000
  Li  Li2       1.0  0.50000  0.25000  0.95774  1.0000
  Li  Li3       1.0  0.50000  0.75000  0.95774  1.0000
  Li  Li4       1.0  0.00000  0.50000  0.87322  1.0000
  Li  Li5       1.0  1.00000  0.49836  0.03892  1.0000
  Li  Li6       1.0  0.49997  0.75001  0.12905  1.0000
  Li  Li7       1.0  0.50001  0.25000  0.13029  1.0000
  Li  Li8       1.0  0.00000  0.00162  0.03892  1.0000
  Al  Al1       1.0  0.00000  0.75000  0.95774  1.0000
  Al  Al2       1.0  0.50000  0.00000  0.87322  1.0000
  Al  Al3       1.0  0.00000  0.25000  0.95774  1.0000
  Al  Al4       1.0  0.50000  0.50000  0.87322  1.0000
  Al  Al5       1.0  0.00000  0.25000  0.12454  1.0000
  Al  Al6       1.0  0.50000  0.50454  0.04206  1.0000
  Al  Al7       1.0  0.00000  0.75000  0.12864  1.0000
  Al  Al8       1.0  0.50000  0.99545  0.04206  1.0000
  Ag  Ag1       1.0  0.25000  0.00000  0.95774  1.0000
  Ag  Ag2       1.0  0.75000  0.50000  0.95774  1.0000
  Ag  Ag3       1.0  0.75000  0.00000  0.95774  1.0000
  Ag  Ag4       1.0  0.25000  0.50000  0.95774  1.0000
  Ag  Ag5       1.0  0.75000  0.75000  0.87322  1.0000
  Ag  Ag6       1.0  0.25000  0.25000  0.87322  1.0000
  Ag  Ag7       1.0  0.25000  0.75000  0.87322  1.0000
  Ag  Ag8       1.0  0.75000  0.25000  0.87322  1.0000
  Ag  Ag9       1.0  0.23824  0.50436  0.12253  1.0000
  Ag  Ag10      1.0  0.76176  0.99564  0.12253  1.0000
  Ag  Ag11      1.0  0.76175  0.50437  0.12253  1.0000
  Ag  Ag12      1.0  0.23825  0.99564  0.12253  1.0000
  Ag  Ag13      1.0  0.74269  0.25000  0.04255  1.0000
  Ag  Ag14      1.0  0.24665  0.75000  0.04141  1.0000
  Ag  Ag15      1.0  0.25731  0.25000  0.04255  1.0000
  Ag  Ag16      1.0  0.75335  0.75000  0.04141  1.0000
  C   C1        1.0  0.00000  0.25000  0.19827  1.0000
  O   O1        1.0  1.00000  0.25000  0.24146  1.0000
