# generated using pymatgen
data_Li4Mg4In4Ge4C
_symmetry_space_group_name_H-M   Pm
_cell_length_a   6.06838000
_cell_length_b   8.41850000
_cell_length_c   24.54770000
_cell_angle_alpha   90.00000000
_cell_angle_beta   90.00000000
_cell_angle_gamma   90.00000000
_symmetry_Int_Tables_number   6
_chemical_formula_structural   Li4Mg4In4Ge4C
_chemical_formula_sum   'Li4 Mg4 In4 Ge4 C1'
_cell_volume   1254.05993078
_cell_formula_units_Z   1
loop_
 _symmetry_equiv_pos_site_id
 _symmetry_equiv_pos_as_xyz
  1  'x, y, z'
  2  'x, -y, z'
loop_
 _atom_site_type_symbol
 _atom_site_label
 _atom_site_symmetry_multiplicity
 _atom_site_fract_x
 _atom_site_fract_y
 _atom_site_fract_z
 _atom_site_occupancy
  Li  Li0  1  0.01993000  0.50000000  0.96318000  1.0
  Li  Li1  1  0.03044000  0.00000000  0.97384000  1.0
  Li  Li2  1  0.50000000  0.00000000  0.09263000  1.0
  Li  Li3  1  0.50000000  0.50000000  0.09263000  1.0
  Mg  Mg4  2  0.28300000  0.21711000  0.89749000  1.0
  Mg  Mg5  2  0.75992000  0.25000000  0.03088000  1.0
  In  In6  2  0.25992000  0.25000000  0.03088000  1.0
  In  In7  2  0.77771000  0.22356000  0.88153000  1.0
  Ge  Ge8  1  0.00000000  0.00000000  0.09263000  1.0
  Ge  Ge9  1  0.00000000  0.50000000  0.09263000  1.0
  Ge  Ge10  1  0.52696000  0.50000000  0.93627000  1.0
  Ge  Ge11  1  0.58870000  0.00000000  0.96931000  1.0
  C  C12  1  0.48193000  0.00000000  0.89438000  1.0
