# generated using pymatgen
data_Cu8Ni16Sb8C
_symmetry_space_group_name_H-M   'P 1'
_cell_length_a   6.01864000
_cell_length_b   8.51164000
_cell_length_c   26.38370000
_cell_angle_alpha   90.00000000
_cell_angle_beta   90.00000000
_cell_angle_gamma   90.00000000
_symmetry_Int_Tables_number   1
_chemical_formula_structural   Cu8Ni16Sb8C
_chemical_formula_sum   'Cu8 Ni16 Sb8 C1'
_cell_volume   1351.59729550
_cell_formula_units_Z   1
loop_
 _symmetry_equiv_pos_site_id
 _symmetry_equiv_pos_as_xyz
  1  'x, y, z'
loop_
 _atom_site_type_symbol
 _atom_site_label
 _atom_site_symmetry_multiplicity
 _atom_site_fract_x
 _atom_site_fract_y
 _atom_site_fract_z
 _atom_site_occupancy
  Cu  Cu0  1  0.00000000  0.00000000  0.87902000  1.0
  Cu  Cu1  1  0.50000000  0.25000000  0.95967000  1.0
  Cu  Cu2  1  0.50000000  0.75000000  0.95967000  1.0
  Cu  Cu3  1  0.00000000  0.50000000  0.87902000  1.0
  Cu  Cu4  1  0.00000000  0.50001000  0.03860000  1.0
  Cu  Cu5  1  0.49998000  0.74268000  0.12514000  1.0
  Cu  Cu6  1  0.50006000  0.25727000  0.12515000  1.0
  Cu  Cu7  1  0.00000000  0.99995000  0.04313000  1.0
  Ni  Ni8  1  0.25000000  0.00000000  0.95967000  1.0
  Ni  Ni9  1  0.75000000  0.50000000  0.95967000  1.0
  Ni  Ni10  1  0.75000000  0.00000000  0.95967000  1.0
  Ni  Ni11  1  0.25000000  0.50000000  0.95967000  1.0
  Ni  Ni12  1  0.75000000  0.75000000  0.87902000  1.0
  Ni  Ni13  1  0.25000000  0.25000000  0.87902000  1.0
  Ni  Ni14  1  0.25000000  0.75000000  0.87902000  1.0
  Ni  Ni15  1  0.75000000  0.25000000  0.87902000  1.0
  Ni  Ni16  1  0.26233000  0.49996000  0.11306000  1.0
  Ni  Ni17  1  0.71342000  0.99998000  0.11516000  1.0
  Ni  Ni18  1  0.73767000  0.49999000  0.11305000  1.0
  Ni  Ni19  1  0.28665000  0.00001000  0.11515000  1.0
  Ni  Ni20  1  0.76965000  0.25125000  0.04865000  1.0
  Ni  Ni21  1  0.23040000  0.74871000  0.04869000  1.0
  Ni  Ni22  1  0.23034000  0.25124000  0.04868000  1.0
  Ni  Ni23  1  0.76956000  0.74871000  0.04869000  1.0
  Sb  Sb24  1  0.00000000  0.75000000  0.95967000  1.0
  Sb  Sb25  1  0.50000000  0.00000000  0.87902000  1.0
  Sb  Sb26  1  0.00000000  0.25000000  0.95967000  1.0
  Sb  Sb27  1  0.50000000  0.50000000  0.87902000  1.0
  Sb  Sb28  1  0.99995000  0.26948000  0.13946000  1.0
  Sb  Sb29  1  0.49998000  0.49995000  0.03592000  1.0
  Sb  Sb30  1  0.00000000  0.73049000  0.13947000  1.0
  Sb  Sb31  1  0.50001000  0.00001000  0.03484000  1.0
  C  C32  1  0.00006000  0.99999000  0.13267000  1.0
