# generated using pymatgen
data_Li4Hf4Sn4Pd4CO
_symmetry_space_group_name_H-M   'P 1'
_cell_length_a   6.67688000
_cell_length_b   6.67688000
_cell_length_c   25.00770000
_cell_angle_alpha   90.00000000
_cell_angle_beta   90.00000000
_cell_angle_gamma   90.00000000
_symmetry_Int_Tables_number   1
_chemical_formula_structural   Li4Hf4Sn4Pd4CO
_chemical_formula_sum   'Li4 Hf4 Sn4 Pd4 C1 O1'
_cell_volume   1114.86143495
_cell_formula_units_Z   1
loop_
 _symmetry_equiv_pos_site_id
 _symmetry_equiv_pos_as_xyz
  1  'x, y, z'
loop_
 _atom_site_type_symbol
 _atom_site_label
 _atom_site_symmetry_multiplicity
 _atom_site_fract_x
 _atom_site_fract_y
 _atom_site_fract_z
 _atom_site_occupancy
  Li  Li0  1  0.00000000  0.50000000  0.90280000  1.0
  Li  Li1  1  0.00000000  0.00000000  0.03337000  1.0
  Li  Li2  1  0.50000000  0.50000000  0.03337000  1.0
  Li  Li3  1  0.50000000  0.00000000  0.89975000  1.0
  Hf  Hf4  1  0.00000000  0.00000000  0.90453000  1.0
  Hf  Hf5  1  0.00000000  0.50000000  0.03337000  1.0
  Hf  Hf6  1  0.50000000  0.00000000  0.03337000  1.0
  Hf  Hf7  1  0.50000000  0.50000000  0.90482000  1.0
  Sn  Sn8  1  0.25081000  0.24852000  0.96454000  1.0
  Sn  Sn9  1  0.25000000  0.75000000  0.10012000  1.0
  Sn  Sn10  1  0.75000000  0.25000000  0.10012000  1.0
  Sn  Sn11  1  0.74919000  0.75148000  0.96454000  1.0
  Pd  Pd12  1  0.75052000  0.25032000  0.96445000  1.0
  Pd  Pd13  1  0.75000000  0.75000000  0.10012000  1.0
  Pd  Pd14  1  0.25000000  0.25000000  0.10012000  1.0
  Pd  Pd15  1  0.24948000  0.74968000  0.96445000  1.0
  C  C16  1  0.00000000  0.50000000  0.82181000  1.0
  O  O17  1  0.00000000  0.50000000  0.77579000  1.0
