# generated using pymatgen
data_Li4Hf4Sn4Pd4CO
_symmetry_space_group_name_H-M   P2
_cell_length_a   6.67688000
_cell_length_b   25.00770000
_cell_length_c   6.67688000
_cell_angle_alpha   90.00000000
_cell_angle_beta   90.00000000
_cell_angle_gamma   90.00000000
_symmetry_Int_Tables_number   3
_chemical_formula_structural   Li4Hf4Sn4Pd4CO
_chemical_formula_sum   'Li4 Hf4 Sn4 Pd4 C1 O1'
_cell_volume   1114.86143495
_cell_formula_units_Z   1
loop_
 _symmetry_equiv_pos_site_id
 _symmetry_equiv_pos_as_xyz
  1  'x, y, z'
  2  '-x, y, -z'
loop_
 _atom_site_type_symbol
 _atom_site_label
 _atom_site_symmetry_multiplicity
 _atom_site_fract_x
 _atom_site_fract_y
 _atom_site_fract_z
 _atom_site_occupancy
  Li  Li0  1  0.00000000  0.10025000  0.50000000  1.0
  Li  Li1  1  0.00000000  0.96663000  0.00000000  1.0
  Li  Li2  1  0.50000000  0.09720000  0.00000000  1.0
  Li  Li3  1  0.50000000  0.96663000  0.50000000  1.0
  Hf  Hf4  1  0.00000000  0.09547000  0.00000000  1.0
  Hf  Hf5  1  0.00000000  0.96663000  0.50000000  1.0
  Hf  Hf6  1  0.50000000  0.09518000  0.50000000  1.0
  Hf  Hf7  1  0.50000000  0.96663000  0.00000000  1.0
  Sn  Sn8  2  0.24852000  0.03546000  0.25081000  1.0
  Sn  Sn9  2  0.25000000  0.89988000  0.75000000  1.0
  Pd  Pd10  2  0.25000000  0.89988000  0.25000000  1.0
  Pd  Pd11  2  0.25032000  0.03555000  0.75052000  1.0
  C  C12  1  0.50000000  0.17819000  0.00000000  1.0
  O  O13  1  0.50000000  0.22421000  0.00000000  1.0
