# generated using pymatgen
data_Li8Ga4Pd4C
_symmetry_space_group_name_H-M   'P 1'
_cell_length_a   6.14873000
_cell_length_b   6.14873000
_cell_length_c   24.61150000
_cell_angle_alpha   90.00000000
_cell_angle_beta   90.00000000
_cell_angle_gamma   90.00000000
_symmetry_Int_Tables_number   1
_chemical_formula_structural   Li8Ga4Pd4C
_chemical_formula_sum   'Li8 Ga4 Pd4 C1'
_cell_volume   930.48404220
_cell_formula_units_Z   1
loop_
 _symmetry_equiv_pos_site_id
 _symmetry_equiv_pos_as_xyz
  1  'x, y, z'
loop_
 _atom_site_type_symbol
 _atom_site_label
 _atom_site_symmetry_multiplicity
 _atom_site_fract_x
 _atom_site_fract_y
 _atom_site_fract_z
 _atom_site_occupancy
  Li  Li0  1  0.99999500  0.99999500  0.03123000  1
  Li  Li1  1  0.49987000  0.00040000  0.88482000  1
  Li  Li2  1  0.00040000  0.49987000  0.88482000  1
  Li  Li3  1  0.49999500  0.49999500  0.03123000  1
  Li  Li4  1  0.25000000  0.74999000  0.09369000  1
  Li  Li5  1  0.24939500  0.24939500  0.96277000  1
  Li  Li6  1  0.74999000  0.25000000  0.09369000  1
  Li  Li7  1  0.75088500  0.75088500  0.97321000  1
  Ga  Ga8  1  0.25023000  0.74991000  0.96553000  1
  Ga  Ga9  1  0.24999500  0.24999500  0.09369000  1
  Ga  Ga10  1  0.74991000  0.25023000  0.96553000  1
  Ga  Ga11  1  0.74999500  0.74999500  0.09369000  1
  Pd  Pd12  1  0.96559500  0.96559500  0.90818000  1
  Pd  Pd13  1  0.53565500  0.53565500  0.90810000  1
  Pd  Pd14  1  0.50000000  0.99999000  0.03123000  1
  Pd  Pd15  1  0.99999000  0.50000000  0.03123000  1
  C  C16  1  0.75087000  0.75087000  0.88381000  1
