# generated using pymatgen
data_Li8Al4Pt4CO
_symmetry_space_group_name_H-M   P1
_cell_length_a   6.07419000
_cell_length_b   6.07419000
_cell_length_c   24.55560000
_cell_angle_alpha   90.00000000
_cell_angle_beta   90.00000000
_cell_angle_gamma   90.00000000
_symmetry_Int_Tables_number   1
_chemical_formula_structural   Li8Al4Pt4CO
_chemical_formula_sum   'Li8 Al4 Pt4 C1 O1'
_cell_volume   905.99811742
_cell_formula_units_Z   1
loop_
 _symmetry_equiv_pos_site_id
 _symmetry_equiv_pos_as_xyz
  1  'x, y, z'
loop_
 _atom_site_type_symbol
 _atom_site_label
 _atom_site_symmetry_multiplicity
 _atom_site_fract_x
 _atom_site_fract_y
 _atom_site_fract_z
 _atom_site_occupancy
  Li  Li0  1  0.00000000  0.50000000  0.90724000  1.0
  Li  Li1  1  0.00205000  0.00174000  0.03251000  1.0
  Li  Li2  1  0.25000000  0.25000000  0.96908000  1.0
  Li  Li3  1  0.25129000  0.74919000  0.11144000  1.0
  Li  Li4  1  0.49802000  0.49828000  0.03312000  1.0
  Li  Li5  1  0.50000000  0.00000000  0.90724000  1.0
  Li  Li6  1  0.74918000  0.25129000  0.11141000  1.0
  Li  Li7  1  0.75000000  0.75000000  0.96908000  1.0
  Al  Al8  1  0.00000000  0.00000000  0.90724000  1.0
  Al  Al9  1  0.00347000  0.49676000  0.03184000  1.0
  Al  Al10  1  0.49659000  0.00330000  0.03184000  1.0
  Al  Al11  1  0.50000000  0.50000000  0.90724000  1.0
  Pt  Pt12  1  0.24943000  0.24944000  0.09200000  1.0
  Pt  Pt13  1  0.25000000  0.75000000  0.96908000  1.0
  Pt  Pt14  1  0.75000000  0.25000000  0.96908000  1.0
  Pt  Pt15  1  0.75022000  0.75022000  0.08418000  1.0
  C  C16  1  0.24890000  0.24892000  0.17035000  1.0
  O  O17  1  0.24953000  0.24954000  0.21776000  1.0
