# generated using pymatgen
data_Li8V8Ge8Pd8CO
_symmetry_space_group_name_H-M   P1
_cell_length_a   5.68832000
_cell_length_b   8.64114000
_cell_length_c   27.05420000
_cell_angle_alpha   90.00000000
_cell_angle_beta   90.00000000
_cell_angle_gamma   90.00000000
_symmetry_Int_Tables_number   1
_chemical_formula_structural   Li8V8Ge8Pd8CO
_chemical_formula_sum   'Li8 V8 Ge8 Pd8 C1 O1'
_cell_volume   1329.81049956
_cell_formula_units_Z   1
loop_
 _symmetry_equiv_pos_site_id
 _symmetry_equiv_pos_as_xyz
  1  'x, y, z'
loop_
 _atom_site_type_symbol
 _atom_site_label
 _atom_site_symmetry_multiplicity
 _atom_site_fract_x
 _atom_site_fract_y
 _atom_site_fract_z
 _atom_site_occupancy
  Li  Li0  1  0.24858000  0.49997000  0.04754000  1.0
  Li  Li1  1  0.25000000  0.00000000  0.86963000  1.0
  Li  Li2  1  0.25000000  0.50000000  0.86963000  1.0
  Li  Li3  1  0.25214000  0.99999000  0.04756000  1.0
  Li  Li4  1  0.74798000  0.99999000  0.04757000  1.0
  Li  Li5  1  0.75000000  0.00000000  0.86963000  1.0
  Li  Li6  1  0.75000000  0.50000000  0.86963000  1.0
  Li  Li7  1  0.75152000  0.49998000  0.04755000  1.0
  V  V8  1  0.25000000  0.25000000  0.95654000  1.0
  V  V9  1  0.25000000  0.75000000  0.95654000  1.0
  V  V10  1  0.25094000  0.74986000  0.12667000  1.0
  V  V11  1  0.25108000  0.25009000  0.12666000  1.0
  V  V12  1  0.74905000  0.25004000  0.12666000  1.0
  V  V13  1  0.74916000  0.74991000  0.12668000  1.0
  V  V14  1  0.75000000  0.25000000  0.95654000  1.0
  V  V15  1  0.75000000  0.75000000  0.95654000  1.0
  Ge  Ge16  1  0.00000000  0.00000000  0.95654000  1.0
  Ge  Ge17  1  0.00000000  0.50000000  0.95654000  1.0
  Ge  Ge18  1  0.00003000  0.99999000  0.13926000  1.0
  Ge  Ge19  1  0.50000000  0.00000000  0.95654000  1.0
  Ge  Ge20  1  0.50000000  0.50000000  0.95654000  1.0
  Ge  Ge21  1  0.50010000  0.99997000  0.14107000  1.0
  Ge  Ge22  1  0.50014000  0.50001000  0.14045000  1.0
  Ge  Ge23  1  0.99997000  0.49996000  0.14081000  1.0
  Pd  Pd24  1  0.00000000  0.25000000  0.86963000  1.0
  Pd  Pd25  1  0.00000000  0.75000000  0.86963000  1.0
  Pd  Pd26  1  0.00006000  0.24912000  0.04319000  1.0
  Pd  Pd27  1  0.00006000  0.75084000  0.04315000  1.0
  Pd  Pd28  1  0.50000000  0.25000000  0.86963000  1.0
  Pd  Pd29  1  0.50000000  0.75000000  0.86963000  1.0
  Pd  Pd30  1  0.50005000  0.25098000  0.04250000  1.0
  Pd  Pd31  1  0.50007000  0.74898000  0.04253000  1.0
  C  C32  1  0.99734000  0.00107000  0.28631000  1.0
  O  O33  1  0.00052000  0.99982000  0.32826000  1.0
