data_image0
_chemical_formula_structural       Li8Zn8Ag8Ge8CO
_chemical_formula_sum              "Li8 Zn8 Ag8 Ge8 C1 O1"
_cell_length_a       6.35563
_cell_length_b       8.98822
_cell_length_c       26.7412
_cell_angle_alpha    90
_cell_angle_beta     90
_cell_angle_gamma    90

_space_group_name_H-M_alt    "P 1"
_space_group_IT_number       1

loop_
  _space_group_symop_operation_xyz
  'x, y, z'

loop_
  _atom_site_type_symbol
  _atom_site_label
  _atom_site_symmetry_multiplicity
  _atom_site_fract_x
  _atom_site_fract_y
  _atom_site_fract_z
  _atom_site_occupancy
  Li  Li1       1.0  0.75000  0.00000  0.95799  1.0000
  Li  Li2       1.0  0.75000  0.50000  0.95799  1.0000
  Li  Li3       1.0  0.25000  0.25000  0.87396  1.0000
  Li  Li4       1.0  0.25000  0.75000  0.87396  1.0000
  Li  Li5       1.0  0.79664  0.47518  0.14000  1.0000
  Li  Li6       1.0  0.79671  0.02486  0.14001  1.0000
  Li  Li7       1.0  0.27784  0.75002  0.04811  1.0000
  Li  Li8       1.0  0.24240  0.24999  0.04185  1.0000
  Zn  Zn1       1.0  0.25000  0.00000  0.95799  1.0000
  Zn  Zn2       1.0  0.25000  0.50000  0.95799  1.0000
  Zn  Zn3       1.0  0.75000  0.25000  0.87396  1.0000
  Zn  Zn4       1.0  0.75000  0.75000  0.87396  1.0000
  Zn  Zn5       1.0  0.25072  0.51458  0.13226  1.0000
  Zn  Zn6       1.0  0.25072  0.98545  0.13226  1.0000
  Zn  Zn7       1.0  0.73976  0.75001  0.04336  1.0000
  Zn  Zn8       1.0  0.76327  0.25001  0.04624  1.0000
  Ag  Ag1       1.0  0.00000  0.00000  0.87396  1.0000
  Ag  Ag2       1.0  0.00000  0.50000  0.87396  1.0000
  Ag  Ag3       1.0  0.50000  0.75000  0.95799  1.0000
  Ag  Ag4       1.0  0.50000  0.25000  0.95799  1.0000
  Ag  Ag5       1.0  0.00369  0.50712  0.04510  1.0000
  Ag  Ag6       1.0  0.00368  0.99295  0.04510  1.0000
  Ag  Ag7       1.0  0.47459  0.25001  0.12952  1.0000
  Ag  Ag8       1.0  0.54247  0.75001  0.13768  1.0000
  Ge  Ge1       1.0  0.00000  0.25000  0.95799  1.0000
  Ge  Ge2       1.0  0.00000  0.75000  0.95799  1.0000
  Ge  Ge3       1.0  0.50000  0.50000  0.87396  1.0000
  Ge  Ge4       1.0  0.50000  0.00000  0.87396  1.0000
  Ge  Ge5       1.0  0.99619  0.75001  0.13013  1.0000
  Ge  Ge6       1.0  0.07016  0.24999  0.16505  1.0000
  Ge  Ge7       1.0  0.51809  0.00776  0.05252  1.0000
  Ge  Ge8       1.0  0.51805  0.49226  0.05252  1.0000
  C   C1        1.0  0.14198  0.24994  0.23664  1.0000
  O   O1        1.0  0.17244  0.24979  0.27933  1.0000
