# generated using pymatgen
data_Ni12Ge4CO
_symmetry_space_group_name_H-M   'P 1'
_cell_length_a   5.09807000
_cell_length_b   7.20976000
_cell_length_c   23.82360000
_cell_angle_alpha   90.00000000
_cell_angle_beta   90.00000000
_cell_angle_gamma   90.00000000
_symmetry_Int_Tables_number   1
_chemical_formula_structural   Ni12Ge4CO
_chemical_formula_sum   'Ni12 Ge4 C1 O1'
_cell_volume   875.65693401
_cell_formula_units_Z   1
loop_
 _symmetry_equiv_pos_site_id
 _symmetry_equiv_pos_as_xyz
  1  'x, y, z'
loop_
 _atom_site_type_symbol
 _atom_site_label
 _atom_site_symmetry_multiplicity
 _atom_site_fract_x
 _atom_site_fract_y
 _atom_site_fract_z
 _atom_site_occupancy
  Ni  Ni0  1  0.49995000  0.00003000  0.91380000  1.0
  Ni  Ni1  1  0.24898000  0.75121000  0.97198000  1.0
  Ni  Ni2  1  0.75103000  0.75116000  0.97199000  1.0
  Ni  Ni3  1  0.00000000  0.00000000  0.02675000  1.0
  Ni  Ni4  1  0.75000000  0.75000000  0.08025000  1.0
  Ni  Ni5  1  0.25000000  0.75000000  0.08025000  1.0
  Ni  Ni6  1  0.50001000  0.50014000  0.92345000  1.0
  Ni  Ni7  1  0.24848000  0.24916000  0.97194000  1.0
  Ni  Ni8  1  0.75162000  0.24903000  0.97188000  1.0
  Ni  Ni9  1  0.00000000  0.50000000  0.02675000  1.0
  Ni  Ni10  1  0.75000000  0.25000000  0.08025000  1.0
  Ni  Ni11  1  0.25000000  0.25000000  0.08025000  1.0
  Ge  Ge12  1  0.99998000  0.99982000  0.92474000  1.0
  Ge  Ge13  1  0.50000000  0.00000000  0.02675000  1.0
  Ge  Ge14  1  0.00017000  0.49998000  0.92204000  1.0
  Ge  Ge15  1  0.50000000  0.50000000  0.02675000  1.0
  C  C16  1  0.49996000  0.99997000  0.83889000  1.0
  O  O17  1  0.49998000  0.99989000  0.79047000  1.0
