# generated using pymatgen
data_Li8Al16Ir8C
_symmetry_space_group_name_H-M   'P 1'
_cell_length_a   6.04348000
_cell_length_b   8.54677000
_cell_length_c   26.41010000
_cell_angle_alpha   90.00000000
_cell_angle_beta   90.00000000
_cell_angle_gamma   90.00000000
_symmetry_Int_Tables_number   1
_chemical_formula_structural   Li8Al16Ir8C
_chemical_formula_sum   'Li8 Al16 Ir8 C1'
_cell_volume   1364.14065353
_cell_formula_units_Z   1
loop_
 _symmetry_equiv_pos_site_id
 _symmetry_equiv_pos_as_xyz
  1  'x, y, z'
loop_
 _atom_site_type_symbol
 _atom_site_label
 _atom_site_symmetry_multiplicity
 _atom_site_fract_x
 _atom_site_fract_y
 _atom_site_fract_z
 _atom_site_occupancy
  Li  Li0  1  0.00000000  0.00000000  0.87864000  1.0
  Li  Li1  1  0.50000000  0.25000000  0.95955000  1.0
  Li  Li2  1  0.50000000  0.75000000  0.95955000  1.0
  Li  Li3  1  0.00000000  0.50000000  0.87864000  1.0
  Li  Li4  1  0.00000000  0.50000000  0.03517000  1.0
  Li  Li5  1  0.50000000  0.72591000  0.14732000  1.0
  Li  Li6  1  0.50000000  0.27409000  0.14732000  1.0
  Li  Li7  1  0.00000000  0.00000000  0.04246000  1.0
  Al  Al8  1  0.25000000  0.00000000  0.95955000  1.0
  Al  Al9  1  0.75000000  0.50000000  0.95955000  1.0
  Al  Al10  1  0.75000000  0.00000000  0.95955000  1.0
  Al  Al11  1  0.25000000  0.50000000  0.95955000  1.0
  Al  Al12  1  0.75000000  0.75000000  0.87864000  1.0
  Al  Al13  1  0.25000000  0.25000000  0.87864000  1.0
  Al  Al14  1  0.25000000  0.75000000  0.87864000  1.0
  Al  Al15  1  0.75000000  0.25000000  0.87864000  1.0
  Al  Al16  1  0.21637000  0.50000000  0.11677000  1.0
  Al  Al17  1  0.70502000  0.00000000  0.11881000  1.0
  Al  Al18  1  0.78363000  0.50000000  0.11677000  1.0
  Al  Al19  1  0.29498000  0.00000000  0.11881000  1.0
  Al  Al20  1  0.74729000  0.25201000  0.04333000  1.0
  Al  Al21  1  0.25271000  0.74799000  0.04333000  1.0
  Al  Al22  1  0.25271000  0.25201000  0.04333000  1.0
  Al  Al23  1  0.74729000  0.74799000  0.04333000  1.0
  Ir  Ir24  1  0.00000000  0.75000000  0.95955000  1.0
  Ir  Ir25  1  0.50000000  0.00000000  0.87864000  1.0
  Ir  Ir26  1  0.00000000  0.25000000  0.95955000  1.0
  Ir  Ir27  1  0.50000000  0.50000000  0.87864000  1.0
  Ir  Ir28  1  0.00000000  0.23206000  0.12001000  1.0
  Ir  Ir29  1  0.50000000  0.50000000  0.03989000  1.0
  Ir  Ir30  1  0.00000000  0.76794000  0.12001000  1.0
  Ir  Ir31  1  0.50000000  0.00000000  0.03520000  1.0
  C  C32  1  0.00000000  0.00000000  0.14541000  1.0
