# generated using pymatgen
data_Li8Al16Ir8C
_symmetry_space_group_name_H-M   Pmm2
_cell_length_a   6.04348000
_cell_length_b   8.54677000
_cell_length_c   26.41010000
_cell_angle_alpha   90.00000000
_cell_angle_beta   90.00000000
_cell_angle_gamma   90.00000000
_symmetry_Int_Tables_number   25
_chemical_formula_structural   Li8Al16Ir8C
_chemical_formula_sum   'Li8 Al16 Ir8 C1'
_cell_volume   1364.14065353
_cell_formula_units_Z   1
loop_
 _symmetry_equiv_pos_site_id
 _symmetry_equiv_pos_as_xyz
  1  'x, y, z'
  2  '-x, -y, z'
  3  '-x, y, z'
  4  'x, -y, z'
loop_
 _atom_site_type_symbol
 _atom_site_label
 _atom_site_symmetry_multiplicity
 _atom_site_fract_x
 _atom_site_fract_y
 _atom_site_fract_z
 _atom_site_occupancy
  Li  Li0  2  0.50000000  0.25000000  0.95955000  1.0
  Li  Li1  2  0.50000000  0.27409000  0.14732000  1.0
  Li  Li2  1  0.00000000  0.00000000  0.04246000  1.0
  Li  Li3  1  0.00000000  0.00000000  0.87864000  1.0
  Li  Li4  1  0.00000000  0.50000000  0.03517000  1.0
  Li  Li5  1  0.00000000  0.50000000  0.87864000  1.0
  Al  Al6  4  0.25000000  0.25000000  0.87864000  1.0
  Al  Al7  4  0.25271000  0.25201000  0.04333000  1.0
  Al  Al8  2  0.21637000  0.50000000  0.11677000  1.0
  Al  Al9  2  0.25000000  0.00000000  0.95955000  1.0
  Al  Al10  2  0.25000000  0.50000000  0.95955000  1.0
  Al  Al11  2  0.29498000  0.00000000  0.11881000  1.0
  Ir  Ir12  2  0.00000000  0.23206000  0.12001000  1.0
  Ir  Ir13  2  0.00000000  0.25000000  0.95955000  1.0
  Ir  Ir14  1  0.50000000  0.00000000  0.03520000  1.0
  Ir  Ir15  1  0.50000000  0.00000000  0.87864000  1.0
  Ir  Ir16  1  0.50000000  0.50000000  0.03989000  1.0
  Ir  Ir17  1  0.50000000  0.50000000  0.87864000  1.0
  C  C18  1  0.00000000  0.00000000  0.14541000  1.0
