data_image0
_chemical_formula_structural       V8Fe8
_chemical_formula_sum              "V8 Fe8"
_cell_length_a       5.79956
_cell_length_b       5.79956
_cell_length_c       24.3497
_cell_angle_alpha    90
_cell_angle_beta     90
_cell_angle_gamma    90

_space_group_name_H-M_alt    "P 1"
_space_group_IT_number       1

loop_
  _space_group_symop_operation_xyz
  'x, y, z'

loop_
  _atom_site_type_symbol
  _atom_site_label
  _atom_site_symmetry_multiplicity
  _atom_site_fract_x
  _atom_site_fract_y
  _atom_site_fract_z
  _atom_site_occupancy
  V   V1        1.0  0.25000  0.25000  0.97159  1.0000
  V   V2        1.0  0.24976  0.25007  0.09060  1.0000
  V   V3        1.0  0.25000  0.75000  0.97159  1.0000
  V   V4        1.0  0.24976  0.74994  0.09045  1.0000
  V   V5        1.0  0.75000  0.25000  0.97159  1.0000
  V   V6        1.0  0.75022  0.25006  0.09041  1.0000
  V   V7        1.0  0.75000  0.75000  0.97159  1.0000
  V   V8        1.0  0.75024  0.74993  0.09027  1.0000
  Fe  Fe1       1.0  0.00000  0.00000  0.91205  1.0000
  Fe  Fe2       1.0  0.99998  0.99999  0.03655  1.0000
  Fe  Fe3       1.0  0.00000  0.50000  0.91205  1.0000
  Fe  Fe4       1.0  0.99998  0.50000  0.03652  1.0000
  Fe  Fe5       1.0  0.50000  0.00000  0.91205  1.0000
  Fe  Fe6       1.0  0.50002  0.99999  0.03661  1.0000
  Fe  Fe7       1.0  0.50000  0.50000  0.91205  1.0000
  Fe  Fe8       1.0  0.50002  0.50001  0.03659  1.0000
