# generated using pymatgen
data_VFe
_symmetry_space_group_name_H-M   Pm
_cell_length_a   5.79956000
_cell_length_b   5.79956000
_cell_length_c   24.34970000
_cell_angle_alpha   90.00000000
_cell_angle_beta   90.00000000
_cell_angle_gamma   90.00000000
_symmetry_Int_Tables_number   6
_chemical_formula_structural   VFe
_chemical_formula_sum   'V8 Fe8'
_cell_volume   818.99963185
_cell_formula_units_Z   8
loop_
 _symmetry_equiv_pos_site_id
 _symmetry_equiv_pos_as_xyz
  1  'x, y, z'
  2  'x, -y, z'
loop_
 _atom_site_type_symbol
 _atom_site_label
 _atom_site_symmetry_multiplicity
 _atom_site_fract_x
 _atom_site_fract_y
 _atom_site_fract_z
 _atom_site_occupancy
  V  V0  1  0.24976000  0.00000000  0.09060000  1.0
  V  V1  1  0.24976000  0.50000000  0.09045000  1.0
  V  V2  1  0.25000000  0.00000000  0.97159000  1.0
  V  V3  1  0.25000000  0.50000000  0.97159000  1.0
  V  V4  1  0.75000000  0.00000000  0.97159000  1.0
  V  V5  1  0.75000000  0.50000000  0.97159000  1.0
  V  V6  1  0.75022000  0.00000000  0.09041000  1.0
  V  V7  1  0.75024000  0.50000000  0.09027000  1.0
  Fe  Fe8  2  0.00000000  0.25000000  0.91205000  1.0
  Fe  Fe9  2  0.50000000  0.25000000  0.91205000  1.0
  Fe  Fe10  2  0.50002000  0.25001000  0.03661000  1.0
  Fe  Fe11  2  0.99998000  0.25001000  0.03655000  1.0
