data_image0
_chemical_formula_structural       Fe16Rh16CO
_chemical_formula_sum              "Fe16 Rh16 C1 O1"
_cell_length_a       6.04788
_cell_length_b       8.55299
_cell_length_c       26.4147
_cell_angle_alpha    90
_cell_angle_beta     90
_cell_angle_gamma    90

_space_group_name_H-M_alt    "P 1"
_space_group_IT_number       1

loop_
  _space_group_symop_operation_xyz
  'x, y, z'

loop_
  _atom_site_type_symbol
  _atom_site_label
  _atom_site_symmetry_multiplicity
  _atom_site_fract_x
  _atom_site_fract_y
  _atom_site_fract_z
  _atom_site_occupancy
  Fe  Fe1       1.0  0.00000  0.00000  0.87858  1.0000
  Fe  Fe2       1.0  0.00000  0.25000  0.95953  1.0000
  Fe  Fe3       1.0  1.00000  0.00097  0.04126  1.0000
  Fe  Fe4       1.0  1.00000  0.25000  0.12412  1.0000
  Fe  Fe5       1.0  0.00000  0.50000  0.87858  1.0000
  Fe  Fe6       1.0  0.00000  0.75000  0.95953  1.0000
  Fe  Fe7       1.0  0.00000  0.49903  0.04126  1.0000
  Fe  Fe8       1.0  0.00000  0.75000  0.12465  1.0000
  Fe  Fe9       1.0  0.50000  0.00000  0.87858  1.0000
  Fe  Fe10      1.0  0.50000  0.25000  0.95953  1.0000
  Fe  Fe11      1.0  0.50000  0.99973  0.04157  1.0000
  Fe  Fe12      1.0  0.50000  0.25000  0.12181  1.0000
  Fe  Fe13      1.0  0.50000  0.50000  0.87858  1.0000
  Fe  Fe14      1.0  0.50000  0.75000  0.95953  1.0000
  Fe  Fe15      1.0  0.50000  0.50027  0.04157  1.0000
  Fe  Fe16      1.0  0.50000  0.75000  0.12493  1.0000
  Rh  Rh1       1.0  0.25000  0.25000  0.87858  1.0000
  Rh  Rh2       1.0  0.25000  0.00000  0.95953  1.0000
  Rh  Rh3       1.0  0.25016  0.25000  0.04074  1.0000
  Rh  Rh4       1.0  0.24900  0.50263  0.11797  1.0000
  Rh  Rh5       1.0  0.25000  0.75000  0.87858  1.0000
  Rh  Rh6       1.0  0.25000  0.50000  0.95953  1.0000
  Rh  Rh7       1.0  0.24992  0.75000  0.04175  1.0000
  Rh  Rh8       1.0  0.24900  0.99737  0.11797  1.0000
  Rh  Rh9       1.0  0.75000  0.25000  0.87858  1.0000
  Rh  Rh10      1.0  0.75000  0.00000  0.95953  1.0000
  Rh  Rh11      1.0  0.74984  0.25000  0.04074  1.0000
  Rh  Rh12      1.0  0.75100  0.50263  0.11797  1.0000
  Rh  Rh13      1.0  0.75000  0.75000  0.87858  1.0000
  Rh  Rh14      1.0  0.75000  0.50000  0.95953  1.0000
  Rh  Rh15      1.0  0.75008  0.75000  0.04175  1.0000
  Rh  Rh16      1.0  0.75100  0.99737  0.11797  1.0000
  C   C1        1.0  1.00000  0.25000  0.19331  1.0000
  O   O1        1.0  1.00000  0.25000  0.23718  1.0000
