# generated using pymatgen
data_Fe16Rh16CO
_symmetry_space_group_name_H-M   'P 1'
_cell_length_a   6.04788000
_cell_length_b   8.55299000
_cell_length_c   26.41470000
_cell_angle_alpha   90.00000000
_cell_angle_beta   90.00000000
_cell_angle_gamma   90.00000000
_symmetry_Int_Tables_number   1
_chemical_formula_structural   Fe16Rh16CO
_chemical_formula_sum   'Fe16 Rh16 C1 O1'
_cell_volume   1366.36526268
_cell_formula_units_Z   1
loop_
 _symmetry_equiv_pos_site_id
 _symmetry_equiv_pos_as_xyz
  1  'x, y, z'
loop_
 _atom_site_type_symbol
 _atom_site_label
 _atom_site_symmetry_multiplicity
 _atom_site_fract_x
 _atom_site_fract_y
 _atom_site_fract_z
 _atom_site_occupancy
  Fe  Fe0  1  0.00000000  0.75000000  0.87858000  1.0
  Fe  Fe1  1  0.00000000  0.00000000  0.95953000  1.0
  Fe  Fe2  1  0.00000000  0.75097000  0.04126000  1.0
  Fe  Fe3  1  0.00000000  0.00000000  0.12412000  1.0
  Fe  Fe4  1  0.00000000  0.25000000  0.87858000  1.0
  Fe  Fe5  1  0.00000000  0.50000000  0.95953000  1.0
  Fe  Fe6  1  0.00000000  0.24903000  0.04126000  1.0
  Fe  Fe7  1  0.00000000  0.50000000  0.12465000  1.0
  Fe  Fe8  1  0.50000000  0.75000000  0.87858000  1.0
  Fe  Fe9  1  0.50000000  0.00000000  0.95953000  1.0
  Fe  Fe10  1  0.50000000  0.74973000  0.04157000  1.0
  Fe  Fe11  1  0.50000000  0.00000000  0.12181000  1.0
  Fe  Fe12  1  0.50000000  0.25000000  0.87858000  1.0
  Fe  Fe13  1  0.50000000  0.50000000  0.95953000  1.0
  Fe  Fe14  1  0.50000000  0.25027000  0.04157000  1.0
  Fe  Fe15  1  0.50000000  0.50000000  0.12493000  1.0
  Rh  Rh16  1  0.25000000  0.00000000  0.87858000  1.0
  Rh  Rh17  1  0.25000000  0.75000000  0.95953000  1.0
  Rh  Rh18  1  0.25016000  0.00000000  0.04074000  1.0
  Rh  Rh19  1  0.24900000  0.25263000  0.11797000  1.0
  Rh  Rh20  1  0.25000000  0.50000000  0.87858000  1.0
  Rh  Rh21  1  0.25000000  0.25000000  0.95953000  1.0
  Rh  Rh22  1  0.24992000  0.50000000  0.04175000  1.0
  Rh  Rh23  1  0.24900000  0.74737000  0.11797000  1.0
  Rh  Rh24  1  0.75000000  0.00000000  0.87858000  1.0
  Rh  Rh25  1  0.75000000  0.75000000  0.95953000  1.0
  Rh  Rh26  1  0.74984000  0.00000000  0.04074000  1.0
  Rh  Rh27  1  0.75100000  0.25263000  0.11797000  1.0
  Rh  Rh28  1  0.75000000  0.50000000  0.87858000  1.0
  Rh  Rh29  1  0.75000000  0.25000000  0.95953000  1.0
  Rh  Rh30  1  0.75008000  0.50000000  0.04175000  1.0
  Rh  Rh31  1  0.75100000  0.74737000  0.11797000  1.0
  C  C32  1  0.00000000  0.00000000  0.19331000  1.0
  O  O33  1  0.00000000  0.00000000  0.23718000  1.0
