data_image0
_chemical_formula_structural       Mn8Ni8CO
_chemical_formula_sum              "Mn8 Ni8 C1 O1"
_cell_length_a       5.87849
_cell_length_b       5.87849
_cell_length_c       24.4089
_cell_angle_alpha    90
_cell_angle_beta     90
_cell_angle_gamma    90

_space_group_name_H-M_alt    "P 1"
_space_group_IT_number       1

loop_
  _space_group_symop_operation_xyz
  'x, y, z'

loop_
  _atom_site_type_symbol
  _atom_site_label
  _atom_site_symmetry_multiplicity
  _atom_site_fract_x
  _atom_site_fract_y
  _atom_site_fract_z
  _atom_site_occupancy
  Mn  Mn1       1.0  0.25000  0.25000  0.96890  1.0000
  Mn  Mn2       1.0  0.25000  0.25000  0.08932  1.0000
  Mn  Mn3       1.0  0.25000  0.75000  0.96890  1.0000
  Mn  Mn4       1.0  0.25000  0.75000  0.08932  1.0000
  Mn  Mn5       1.0  0.75000  0.25000  0.96890  1.0000
  Mn  Mn6       1.0  0.75000  0.25000  0.08932  1.0000
  Mn  Mn7       1.0  0.75000  0.75000  0.96890  1.0000
  Mn  Mn8       1.0  0.75000  0.75000  0.08932  1.0000
  Ni  Ni1       1.0  0.00000  0.00000  0.90869  1.0000
  Ni  Ni2       1.0  0.00000  0.00000  0.02911  1.0000
  Ni  Ni3       1.0  0.00000  0.50000  0.90869  1.0000
  Ni  Ni4       1.0  0.00000  0.50000  0.02911  1.0000
  Ni  Ni5       1.0  0.50000  0.00000  0.90869  1.0000
  Ni  Ni6       1.0  0.50000  0.00000  0.02911  1.0000
  Ni  Ni7       1.0  0.50000  0.50000  0.90869  1.0000
  Ni  Ni8       1.0  0.50000  0.50000  0.02911  1.0000
  C   C1        1.0  0.25000  0.25000  0.16716  1.0000
  O   O1        1.0  0.25000  0.25000  0.21427  1.0000
