# generated using pymatgen
data_Ni12Ge4C
_symmetry_space_group_name_H-M   Pm
_cell_length_a   7.20976000
_cell_length_b   5.09807000
_cell_length_c   23.82360000
_cell_angle_alpha   90.00000000
_cell_angle_beta   90.00000000
_cell_angle_gamma   90.00000000
_symmetry_Int_Tables_number   6
_chemical_formula_structural   Ni12Ge4C
_chemical_formula_sum   'Ni12 Ge4 C1'
_cell_volume   875.65693401
_cell_formula_units_Z   1
loop_
 _symmetry_equiv_pos_site_id
 _symmetry_equiv_pos_as_xyz
  1  'x, y, z'
  2  'x, -y, z'
loop_
 _atom_site_type_symbol
 _atom_site_label
 _atom_site_symmetry_multiplicity
 _atom_site_fract_x
 _atom_site_fract_y
 _atom_site_fract_z
 _atom_site_occupancy
  Ni  Ni0  2  0.19949000  0.24178000  0.08186000  1.0
  Ni  Ni1  2  0.25000000  0.25001000  0.97325000  1.0
  Ni  Ni2  2  0.75000000  0.25001000  0.97325000  1.0
  Ni  Ni3  2  0.80045000  0.24167000  0.08184000  1.0
  Ni  Ni4  1  0.00000000  0.50000000  0.91975000  1.0
  Ni  Ni5  1  0.00008000  0.00000000  0.01903000  1.0
  Ni  Ni6  1  0.49993000  0.00000000  0.03538000  1.0
  Ni  Ni7  1  0.50000000  0.50000000  0.91975000  1.0
  Ge  Ge8  1  0.00000000  0.00000000  0.91975000  1.0
  Ge  Ge9  1  0.50000000  0.00000000  0.91975000  1.0
  Ge  Ge10  1  0.50017000  0.50000000  0.03813000  1.0
  Ge  Ge11  1  0.99996000  0.50000000  0.02038000  1.0
  C  C12  1  0.00003000  0.00000000  0.09888000  1.0
