# generated using pymatgen
data_Be16Ni16C
_symmetry_space_group_name_H-M   'P 1'
_cell_length_a   5.22839000
_cell_length_b   7.39406000
_cell_length_c   25.54550000
_cell_angle_alpha   90.00000000
_cell_angle_beta   90.00000000
_cell_angle_gamma   90.00000000
_symmetry_Int_Tables_number   1
_chemical_formula_structural   Be16Ni16C
_chemical_formula_sum   'Be16 Ni16 C1'
_cell_volume   987.56423460
_cell_formula_units_Z   1
loop_
 _symmetry_equiv_pos_site_id
 _symmetry_equiv_pos_as_xyz
  1  'x, y, z'
loop_
 _atom_site_type_symbol
 _atom_site_label
 _atom_site_symmetry_multiplicity
 _atom_site_fract_x
 _atom_site_fract_y
 _atom_site_fract_z
 _atom_site_occupancy
  Be  Be0  1  0.75000000  0.75000000  0.89146000  1.0
  Be  Be1  1  0.75000000  0.00000000  0.96382000  1.0
  Be  Be2  1  0.75103000  0.75067000  0.03646000  1.0
  Be  Be3  1  0.70534000  0.00000000  0.11105000  1.0
  Be  Be4  1  0.75000000  0.25000000  0.89146000  1.0
  Be  Be5  1  0.75000000  0.50000000  0.96382000  1.0
  Be  Be6  1  0.75103000  0.24933000  0.03646000  1.0
  Be  Be7  1  0.76711000  0.50000000  0.10937000  1.0
  Be  Be8  1  0.25000000  0.75000000  0.89146000  1.0
  Be  Be9  1  0.25000000  0.00000000  0.96382000  1.0
  Be  Be10  1  0.24897000  0.75067000  0.03646000  1.0
  Be  Be11  1  0.29466000  0.00000000  0.11105000  1.0
  Be  Be12  1  0.25000000  0.25000000  0.89146000  1.0
  Be  Be13  1  0.25000000  0.50000000  0.96382000  1.0
  Be  Be14  1  0.24897000  0.24933000  0.03646000  1.0
  Be  Be15  1  0.23289000  0.50000000  0.10937000  1.0
  Ni  Ni16  1  0.00000000  0.00000000  0.89146000  1.0
  Ni  Ni17  1  0.00000000  0.75000000  0.96382000  1.0
  Ni  Ni18  1  0.00000000  0.00000000  0.03596000  1.0
  Ni  Ni19  1  0.00000000  0.75777000  0.10831000  1.0
  Ni  Ni20  1  0.00000000  0.50000000  0.89146000  1.0
  Ni  Ni21  1  0.00000000  0.25000000  0.96382000  1.0
  Ni  Ni22  1  0.00000000  0.50000000  0.03679000  1.0
  Ni  Ni23  1  0.00000000  0.24223000  0.10831000  1.0
  Ni  Ni24  1  0.50000000  0.00000000  0.89146000  1.0
  Ni  Ni25  1  0.50000000  0.75000000  0.96382000  1.0
  Ni  Ni26  1  0.50000000  0.00000000  0.03534000  1.0
  Ni  Ni27  1  0.50000000  0.73375000  0.10606000  1.0
  Ni  Ni28  1  0.50000000  0.50000000  0.89146000  1.0
  Ni  Ni29  1  0.50000000  0.25000000  0.96382000  1.0
  Ni  Ni30  1  0.50000000  0.50000000  0.03557000  1.0
  Ni  Ni31  1  0.50000000  0.26625000  0.10606000  1.0
  C  C32  1  0.00000000  0.00000000  0.13318000  1.0
