# generated using pymatgen
data_Li8Ga16Ir8CO
_symmetry_space_group_name_H-M   'P 1'
_cell_length_a   6.11439000
_cell_length_b   8.64705000
_cell_length_c   26.48530000
_cell_angle_alpha   90.00000000
_cell_angle_beta   90.00000000
_cell_angle_gamma   90.00000000
_symmetry_Int_Tables_number   1
_chemical_formula_structural   Li8Ga16Ir8CO
_chemical_formula_sum   'Li8 Ga16 Ir8 C1 O1'
_cell_volume   1400.31584520
_cell_formula_units_Z   1
loop_
 _symmetry_equiv_pos_site_id
 _symmetry_equiv_pos_as_xyz
  1  'x, y, z'
loop_
 _atom_site_type_symbol
 _atom_site_label
 _atom_site_symmetry_multiplicity
 _atom_site_fract_x
 _atom_site_fract_y
 _atom_site_fract_z
 _atom_site_occupancy
  Li  Li0  1  0.00000000  0.75000000  0.87757000  1.0
  Li  Li1  1  0.50000000  0.00000000  0.95919000  1.0
  Li  Li2  1  0.50000000  0.50000000  0.95919000  1.0
  Li  Li3  1  0.00000000  0.25000000  0.87757000  1.0
  Li  Li4  1  0.00000000  0.25279000  0.03979000  1.0
  Li  Li5  1  0.50000000  0.50000000  0.14039000  1.0
  Li  Li6  1  0.50000000  0.00000000  0.13391000  1.0
  Li  Li7  1  0.00000000  0.74721000  0.03979000  1.0
  Ga  Ga8  1  0.25000000  0.75000000  0.95919000  1.0
  Ga  Ga9  1  0.75000000  0.25000000  0.95919000  1.0
  Ga  Ga10  1  0.75000000  0.75000000  0.95919000  1.0
  Ga  Ga11  1  0.25000000  0.25000000  0.95919000  1.0
  Ga  Ga12  1  0.75000000  0.50000000  0.87757000  1.0
  Ga  Ga13  1  0.25000000  0.00000000  0.87757000  1.0
  Ga  Ga14  1  0.25000000  0.50000000  0.87757000  1.0
  Ga  Ga15  1  0.75000000  0.00000000  0.87757000  1.0
  Ga  Ga16  1  0.24020000  0.25597000  0.12522000  1.0
  Ga  Ga17  1  0.75980000  0.74403000  0.12522000  1.0
  Ga  Ga18  1  0.75980000  0.25597000  0.12522000  1.0
  Ga  Ga19  1  0.24020000  0.74403000  0.12522000  1.0
  Ga  Ga20  1  0.75220000  0.00000000  0.04549000  1.0
  Ga  Ga21  1  0.26134000  0.50000000  0.04122000  1.0
  Ga  Ga22  1  0.24780000  0.00000000  0.04549000  1.0
  Ga  Ga23  1  0.73866000  0.50000000  0.04122000  1.0
  Ir  Ir24  1  0.00000000  0.50000000  0.95919000  1.0
  Ir  Ir25  1  0.50000000  0.75000000  0.87757000  1.0
  Ir  Ir26  1  0.00000000  0.00000000  0.95919000  1.0
  Ir  Ir27  1  0.50000000  0.25000000  0.87757000  1.0
  Ir  Ir28  1  0.00000000  0.00000000  0.13027000  1.0
  Ir  Ir29  1  0.50000000  0.24534000  0.03694000  1.0
  Ir  Ir30  1  0.00000000  0.50000000  0.11501000  1.0
  Ir  Ir31  1  0.50000000  0.75466000  0.03694000  1.0
  C  C32  1  0.00000000  0.00000000  0.20165000  1.0
  O  O33  1  0.00000000  0.00000000  0.24546000  1.0
