# generated using pymatgen
data_LiIn2Pt
_symmetry_space_group_name_H-M   'P 1'
_cell_length_a   4.73076357
_cell_length_b   4.73076357
_cell_length_c   25.01770000
_cell_angle_alpha   90.00000000
_cell_angle_beta   90.00000000
_cell_angle_gamma   90.00000000
_symmetry_Int_Tables_number   1
_chemical_formula_structural   LiIn2Pt
_chemical_formula_sum   'Li2 In4 Pt2'
_cell_volume   559.89922690
_cell_formula_units_Z   2
loop_
 _symmetry_equiv_pos_site_id
 _symmetry_equiv_pos_as_xyz
  1  'x, y, z'
loop_
 _atom_site_type_symbol
 _atom_site_label
 _atom_site_symmetry_multiplicity
 _atom_site_fract_x
 _atom_site_fract_y
 _atom_site_fract_z
 _atom_site_occupancy
  Li  Li0  1  0.00000000  0.00000000  0.89972000  1.0
  Li  Li1  1  0.50000000  0.50000000  0.03343000  1.0
  In  In2  1  0.50000000  0.00000000  0.96657000  1.0
  In  In3  1  0.50000000  0.00000000  0.10028000  1.0
  In  In4  1  0.00000000  0.50000000  0.96657000  1.0
  In  In5  1  0.00000000  0.50000000  0.10028000  1.0
  Pt  Pt6  1  0.00000000  0.00000000  0.03343000  1.0
  Pt  Pt7  1  0.50000000  0.50000000  0.89972000  1.0
