# generated using pymatgen
data_Li16Ag8Sn8C
_symmetry_space_group_name_H-M   Pm
_cell_length_a   6.65960000
_cell_length_b   9.41809000
_cell_length_c   27.06360000
_cell_angle_alpha   90.00000000
_cell_angle_beta   90.00000000
_cell_angle_gamma   90.00000000
_symmetry_Int_Tables_number   6
_chemical_formula_structural   Li16Ag8Sn8C
_chemical_formula_sum   'Li16 Ag8 Sn8 C1'
_cell_volume   1697.44826572
_cell_formula_units_Z   1
loop_
 _symmetry_equiv_pos_site_id
 _symmetry_equiv_pos_as_xyz
  1  'x, y, z'
  2  'x, -y, z'
loop_
 _atom_site_type_symbol
 _atom_site_label
 _atom_site_symmetry_multiplicity
 _atom_site_fract_x
 _atom_site_fract_y
 _atom_site_fract_z
 _atom_site_occupancy
  Li  Li0  2  0.25000000  0.25001000  0.95650000  1.0
  Li  Li1  2  0.27606000  0.22378000  0.13496000  1.0
  Li  Li2  2  0.48695000  0.25847000  0.03855000  1.0
  Li  Li3  2  0.50000000  0.25001000  0.86950000  1.0
  Li  Li4  1  0.00000000  0.00000000  0.95650000  1.0
  Li  Li5  1  0.00000000  0.50000000  0.95650000  1.0
  Li  Li6  1  0.00746000  0.50000000  0.12901000  1.0
  Li  Li7  1  0.72881000  0.00000000  0.04614000  1.0
  Li  Li8  1  0.73486000  0.50000000  0.04810000  1.0
  Li  Li9  1  0.75000000  0.00000000  0.86950000  1.0
  Li  Li10  1  0.75000000  0.50000000  0.86950000  1.0
  Li  Li11  1  0.99260000  0.00000000  0.12784000  1.0
  Ag  Ag12  2  0.72418000  0.27301000  0.12275000  1.0
  Ag  Ag13  2  0.75000000  0.24999000  0.95650000  1.0
  Ag  Ag14  1  0.24894000  0.50000000  0.04481000  1.0
  Ag  Ag15  1  0.25000000  0.00000000  0.86950000  1.0
  Ag  Ag16  1  0.25000000  0.50000000  0.86950000  1.0
  Ag  Ag17  1  0.27331000  0.00000000  0.04697000  1.0
  Sn  Sn18  2  0.00000000  0.25001000  0.86950000  1.0
  Sn  Sn19  2  0.99853000  0.24443000  0.04437000  1.0
  Sn  Sn20  1  0.45791000  0.50000000  0.14136000  1.0
  Sn  Sn21  1  0.50000000  0.00000000  0.95650000  1.0
  Sn  Sn22  1  0.50000000  0.50000000  0.95650000  1.0
  Sn  Sn23  1  0.58253000  0.00000000  0.15946000  1.0
  C  C24  1  0.29371000  0.00000000  0.13196000  1.0
