# generated using pymatgen
data_Li4Au12CO
_symmetry_space_group_name_H-M   'P 1'
_cell_length_a   8.24301000
_cell_length_b   5.82869000
_cell_length_c   24.37150000
_cell_angle_alpha   90.00000000
_cell_angle_beta   90.00000000
_cell_angle_gamma   90.00000000
_symmetry_Int_Tables_number   1
_chemical_formula_structural   Li4Au12CO
_chemical_formula_sum   'Li4 Au12 C1 O1'
_cell_volume   1170.95186937
_cell_formula_units_Z   1
loop_
 _symmetry_equiv_pos_site_id
 _symmetry_equiv_pos_as_xyz
  1  'x, y, z'
loop_
 _atom_site_type_symbol
 _atom_site_label
 _atom_site_symmetry_multiplicity
 _atom_site_fract_x
 _atom_site_fract_y
 _atom_site_fract_z
 _atom_site_occupancy
  Li  Li0  1  0.75001000  0.00000000  0.91032000  1.0
  Li  Li1  1  0.75420000  0.49918000  0.03412000  1.0
  Li  Li2  1  0.24999000  0.00000000  0.91032000  1.0
  Li  Li3  1  0.24580000  0.49918000  0.03412000  1.0
  Au  Au4  1  0.75001000  0.50000000  0.91032000  1.0
  Au  Au5  1  0.50000000  0.25000000  0.97011000  1.0
  Au  Au6  1  0.50000000  0.75000000  0.97011000  1.0
  Au  Au7  1  0.75277000  0.99570000  0.03170000  1.0
  Au  Au8  1  0.50000000  0.75389000  0.09133000  1.0
  Au  Au9  1  0.50000000  0.27092000  0.08642000  1.0
  Au  Au10  1  0.24999000  0.50000000  0.91032000  1.0
  Au  Au11  1  0.00000000  0.25000000  0.97011000  1.0
  Au  Au12  1  0.00000000  0.75000000  0.97011000  1.0
  Au  Au13  1  0.24723000  0.99570000  0.03170000  1.0
  Au  Au14  1  0.00000000  0.73531000  0.09106000  1.0
  Au  Au15  1  0.00000000  0.25562000  0.09153000  1.0
  C  C16  1  0.50000000  0.75860000  0.17614000  1.0
  O  O17  1  0.50000000  0.72412000  0.22232000  1.0
