# generated using pymatgen
data_Li16In8Ir8CO
_symmetry_space_group_name_H-M   'P 1'
_cell_length_a   8.73904000
_cell_length_b   6.17944000
_cell_length_c   26.55430000
_cell_angle_alpha   90.00000000
_cell_angle_beta   90.00000000
_cell_angle_gamma   90.00000000
_symmetry_Int_Tables_number   1
_chemical_formula_structural   Li16In8Ir8CO
_chemical_formula_sum   'Li16 In8 Ir8 C1 O1'
_cell_volume   1433.99522232
_cell_formula_units_Z   1
loop_
 _symmetry_equiv_pos_site_id
 _symmetry_equiv_pos_as_xyz
  1  'x, y, z'
loop_
 _atom_site_type_symbol
 _atom_site_label
 _atom_site_symmetry_multiplicity
 _atom_site_fract_x
 _atom_site_fract_y
 _atom_site_fract_z
 _atom_site_occupancy
  Li  Li0  1  0.00000000  0.25000000  0.04114000  1.0
  Li  Li1  1  0.50000000  0.75000000  0.04114000  1.0
  Li  Li2  1  0.00000000  0.75000000  0.04114000  1.0
  Li  Li3  1  0.50000000  0.25000000  0.04114000  1.0
  Li  Li4  1  0.75000000  0.75000000  0.12341000  1.0
  Li  Li5  1  0.25000000  0.25000000  0.12341000  1.0
  Li  Li6  1  0.75000000  0.25000000  0.12341000  1.0
  Li  Li7  1  0.25000000  0.75000000  0.12341000  1.0
  Li  Li8  1  0.50000000  0.23350000  0.85997000  1.0
  Li  Li9  1  0.00000000  0.77986000  0.85613000  1.0
  Li  Li10  1  0.50000000  0.78000000  0.85535000  1.0
  Li  Li11  1  0.00000000  0.23433000  0.85897000  1.0
  Li  Li12  1  0.25013000  0.75434000  0.96269000  1.0
  Li  Li13  1  0.75026000  0.24890000  0.96109000  1.0
  Li  Li14  1  0.24974000  0.24890000  0.96109000  1.0
  Li  Li15  1  0.74987000  0.75434000  0.96269000  1.0
  In  In16  1  0.00000000  0.00000000  0.12341000  1.0
  In  In17  1  0.25000000  0.50000000  0.04114000  1.0
  In  In18  1  0.75000000  0.50000000  0.04114000  1.0
  In  In19  1  0.50000000  0.00000000  0.12341000  1.0
  In  In20  1  0.50000000  0.99882000  0.95243000  1.0
  In  In21  1  0.74956000  0.51224000  0.88192000  1.0
  In  In22  1  0.25044000  0.51224000  0.88192000  1.0
  In  In23  1  0.00000000  0.99890000  0.95196000  1.0
  Ir  Ir24  1  0.75000000  0.00000000  0.04114000  1.0
  Ir  Ir25  1  0.00000000  0.50000000  0.12341000  1.0
  Ir  Ir26  1  0.25000000  0.00000000  0.04114000  1.0
  Ir  Ir27  1  0.50000000  0.50000000  0.12341000  1.0
  Ir  Ir28  1  0.25212000  0.99558000  0.88314000  1.0
  Ir  Ir29  1  0.50000000  0.50025000  0.95132000  1.0
  Ir  Ir30  1  0.74788000  0.99558000  0.88314000  1.0
  Ir  Ir31  1  0.00000000  0.50137000  0.95032000  1.0
  C  C32  1  0.00000000  0.24354000  0.78047000  1.0
  O  O33  1  0.00000000  0.22418000  0.73769000  1.0
