data_image0
_chemical_formula_structural       Mg4Sc4Ga4Pd4
_chemical_formula_sum              "Mg4 Sc4 Ga4 Pd4"
_cell_length_a       6.56469
_cell_length_b       6.56469
_cell_length_c       24.9235
_cell_angle_alpha    90
_cell_angle_beta     90
_cell_angle_gamma    90

_space_group_name_H-M_alt    "P 1"
_space_group_IT_number       1

loop_
  _space_group_symop_operation_xyz
  'x, y, z'

loop_
  _atom_site_type_symbol
  _atom_site_label
  _atom_site_symmetry_multiplicity
  _atom_site_fract_x
  _atom_site_fract_y
  _atom_site_fract_z
  _atom_site_occupancy
  Mg  Mg1       1.0  0.25000  0.25000  0.96708  1.0000
  Mg  Mg2       1.0  0.25000  0.75000  0.09877  1.0000
  Mg  Mg3       1.0  0.75000  0.25000  0.09877  1.0000
  Mg  Mg4       1.0  0.75000  0.75000  0.96708  1.0000
  Sc  Sc1       1.0  0.75000  0.25000  0.96708  1.0000
  Sc  Sc2       1.0  0.75000  0.75000  0.09877  1.0000
  Sc  Sc3       1.0  0.25000  0.25000  0.09877  1.0000
  Sc  Sc4       1.0  0.25000  0.75000  0.96708  1.0000
  Ga  Ga1       1.0  0.00000  0.00000  0.90123  1.0000
  Ga  Ga2       1.0  0.00000  0.50000  0.03292  1.0000
  Ga  Ga3       1.0  0.50000  0.00000  0.03292  1.0000
  Ga  Ga4       1.0  0.50000  0.50000  0.90123  1.0000
  Pd  Pd1       1.0  0.00000  0.50000  0.90123  1.0000
  Pd  Pd2       1.0  0.00000  0.00000  0.03292  1.0000
  Pd  Pd3       1.0  0.50000  0.50000  0.03292  1.0000
  Pd  Pd4       1.0  0.50000  0.00000  0.90123  1.0000
