data_image0
_chemical_formula_structural       Li16Ga8Ir8C
_chemical_formula_sum              "Li16 Ga8 Ir8 C1"
_cell_length_a       6.01864
_cell_length_b       8.51164
_cell_length_c       26.3837
_cell_angle_alpha    90
_cell_angle_beta     90
_cell_angle_gamma    90

_space_group_name_H-M_alt    "P 1"
_space_group_IT_number       1

loop_
  _space_group_symop_operation_xyz
  'x, y, z'

loop_
  _atom_site_type_symbol
  _atom_site_label
  _atom_site_symmetry_multiplicity
  _atom_site_fract_x
  _atom_site_fract_y
  _atom_site_fract_z
  _atom_site_occupancy
  Li  Li1       1.0  0.00000  0.75000  0.95967  1.0000
  Li  Li2       1.0  0.50000  0.00000  0.87902  1.0000
  Li  Li3       1.0  0.00000  0.25000  0.95967  1.0000
  Li  Li4       1.0  0.50000  0.50000  0.87902  1.0000
  Li  Li5       1.0  0.25000  0.00000  0.95967  1.0000
  Li  Li6       1.0  0.25000  0.50000  0.95967  1.0000
  Li  Li7       1.0  0.75000  0.75000  0.87902  1.0000
  Li  Li8       1.0  0.75000  0.25000  0.87902  1.0000
  Li  Li9       1.0  0.99487  0.26878  0.12711  1.0000
  Li  Li10      1.0  0.48886  0.50000  0.03653  1.0000
  Li  Li11      1.0  0.99487  0.73122  0.12711  1.0000
  Li  Li12      1.0  0.49694  0.00000  0.04236  1.0000
  Li  Li13      1.0  0.28303  0.50000  0.13111  1.0000
  Li  Li14      1.0  0.20102  0.00000  0.12078  1.0000
  Li  Li15      1.0  0.74713  0.25021  0.04183  1.0000
  Li  Li16      1.0  0.74713  0.74979  0.04183  1.0000
  Ga  Ga1       1.0  0.25000  0.25000  0.87902  1.0000
  Ga  Ga2       1.0  0.25000  0.75000  0.87902  1.0000
  Ga  Ga3       1.0  0.75000  0.50000  0.95967  1.0000
  Ga  Ga4       1.0  0.75000  0.00000  0.95967  1.0000
  Ga  Ga5       1.0  0.25276  0.74834  0.04254  1.0000
  Ga  Ga6       1.0  0.25276  0.25166  0.04254  1.0000
  Ga  Ga7       1.0  0.80625  0.00000  0.11577  1.0000
  Ga  Ga8       1.0  0.70798  0.50000  0.11727  1.0000
  Ir  Ir1       1.0  0.00000  0.00000  0.87902  1.0000
  Ir  Ir2       1.0  0.50000  0.25000  0.95967  1.0000
  Ir  Ir3       1.0  0.50000  0.75000  0.95967  1.0000
  Ir  Ir4       1.0  0.00000  0.50000  0.87902  1.0000
  Ir  Ir5       1.0  0.00246  0.50000  0.04729  1.0000
  Ir  Ir6       1.0  0.50362  0.78249  0.12278  1.0000
  Ir  Ir7       1.0  0.50362  0.21751  0.12278  1.0000
  Ir  Ir8       1.0  0.00787  1.00000  0.03600  1.0000
  C   C1        1.0  0.49607  1.00000  0.14524  1.0000
