# generated using pymatgen
data_Al16Au16C
_symmetry_space_group_name_H-M   Pmm2
_cell_length_a   6.49845000
_cell_length_b   9.19019000
_cell_length_c   26.89260000
_cell_angle_alpha   90.00000000
_cell_angle_beta   90.00000000
_cell_angle_gamma   90.00000000
_symmetry_Int_Tables_number   25
_chemical_formula_structural   Al16Au16C
_chemical_formula_sum   'Al16 Au16 C1'
_cell_volume   1606.07959380
_cell_formula_units_Z   1
loop_
 _symmetry_equiv_pos_site_id
 _symmetry_equiv_pos_as_xyz
  1  'x, y, z'
  2  '-x, -y, z'
  3  '-x, y, z'
  4  'x, -y, z'
loop_
 _atom_site_type_symbol
 _atom_site_label
 _atom_site_symmetry_multiplicity
 _atom_site_fract_x
 _atom_site_fract_y
 _atom_site_fract_z
 _atom_site_occupancy
  Al  Al0  4  0.25000000  0.25000000  0.87185000  1.0
  Al  Al1  4  0.25472000  0.25222000  0.04765000  1.0
  Al  Al2  2  0.25000000  0.00000000  0.95728000  1.0
  Al  Al3  2  0.25000000  0.50000000  0.95728000  1.0
  Al  Al4  2  0.26287000  0.50000000  0.13238000  1.0
  Al  Al5  2  0.29173000  0.00000000  0.13511000  1.0
  Au  Au6  2  0.00000000  0.25000000  0.95728000  1.0
  Au  Au7  2  0.00000000  0.27969000  0.13136000  1.0
  Au  Au8  2  0.50000000  0.24792000  0.13620000  1.0
  Au  Au9  2  0.50000000  0.25000000  0.95728000  1.0
  Au  Au10  1  0.00000000  0.00000000  0.04241000  1.0
  Au  Au11  1  0.00000000  0.00000000  0.87185000  1.0
  Au  Au12  1  0.00000000  0.50000000  0.03726000  1.0
  Au  Au13  1  0.00000000  0.50000000  0.87185000  1.0
  Au  Au14  1  0.50000000  0.00000000  0.04157000  1.0
  Au  Au15  1  0.50000000  0.00000000  0.87185000  1.0
  Au  Au16  1  0.50000000  0.50000000  0.04243000  1.0
  Au  Au17  1  0.50000000  0.50000000  0.87185000  1.0
  C  C18  1  0.00000000  0.00000000  0.13081000  1.0
