# generated using pymatgen
data_Li8Al8Ga8Pd8CO
_symmetry_space_group_name_H-M   'P 1'
_cell_length_a   8.69058000
_cell_length_b   6.14517000
_cell_length_c   26.51790000
_cell_angle_alpha   90.00000000
_cell_angle_beta   90.00000000
_cell_angle_gamma   90.00000000
_symmetry_Int_Tables_number   1
_chemical_formula_structural   Li8Al8Ga8Pd8CO
_chemical_formula_sum   'Li8 Al8 Ga8 Pd8 C1 O1'
_cell_volume   1416.19087585
_cell_formula_units_Z   1
loop_
 _symmetry_equiv_pos_site_id
 _symmetry_equiv_pos_as_xyz
  1  'x, y, z'
loop_
 _atom_site_type_symbol
 _atom_site_label
 _atom_site_symmetry_multiplicity
 _atom_site_fract_x
 _atom_site_fract_y
 _atom_site_fract_z
 _atom_site_occupancy
  Li  Li0  1  0.00000000  0.75000000  0.04097000  1.0
  Li  Li1  1  0.50000000  0.75000000  0.04097000  1.0
  Li  Li2  1  0.25000000  0.25000000  0.12290000  1.0
  Li  Li3  1  0.75000000  0.25000000  0.12290000  1.0
  Li  Li4  1  0.50000000  0.76088000  0.82935000  1.0
  Li  Li5  1  0.00000000  0.75451000  0.84485000  1.0
  Li  Li6  1  0.74881000  0.24210000  0.95655000  1.0
  Li  Li7  1  0.25119000  0.24210000  0.95655000  1.0
  Al  Al8  1  0.00000000  0.00000000  0.12290000  1.0
  Al  Al9  1  0.50000000  0.00000000  0.12290000  1.0
  Al  Al10  1  0.75000000  0.50000000  0.04097000  1.0
  Al  Al11  1  0.25000000  0.50000000  0.04097000  1.0
  Al  Al12  1  0.50000000  0.97434000  0.95060000  1.0
  Al  Al13  1  0.00000000  0.98522000  0.94612000  1.0
  Al  Al14  1  0.26168000  0.51714000  0.87704000  1.0
  Al  Al15  1  0.73832000  0.51714000  0.87704000  1.0
  Ga  Ga16  1  0.25000000  0.00000000  0.04097000  1.0
  Ga  Ga17  1  0.75000000  0.00000000  0.04097000  1.0
  Ga  Ga18  1  0.50000000  0.50000000  0.12290000  1.0
  Ga  Ga19  1  0.00000000  0.50000000  0.12290000  1.0
  Ga  Ga20  1  0.73999000  0.97811000  0.87129000  1.0
  Ga  Ga21  1  0.26001000  0.97811000  0.87129000  1.0
  Ga  Ga22  1  0.00000000  0.49980000  0.95042000  1.0
  Ga  Ga23  1  0.50000000  0.50876000  0.95650000  1.0
  Pd  Pd24  1  0.00000000  0.25000000  0.04097000  1.0
  Pd  Pd25  1  0.50000000  0.25000000  0.04097000  1.0
  Pd  Pd26  1  0.25000000  0.75000000  0.12290000  1.0
  Pd  Pd27  1  0.75000000  0.75000000  0.12290000  1.0
  Pd  Pd28  1  0.50000000  0.25380000  0.87891000  1.0
  Pd  Pd29  1  0.00000000  0.26293000  0.86715000  1.0
  Pd  Pd30  1  0.75409000  0.74911000  0.96309000  1.0
  Pd  Pd31  1  0.24591000  0.74911000  0.96309000  1.0
  C  C32  1  0.00000000  0.25821000  0.79265000  1.0
  O  O33  1  0.00000000  0.25076000  0.74915000  1.0
