# generated using pymatgen
data_Li8Al8Ga8Pd8CO
_symmetry_space_group_name_H-M   Pm
_cell_length_a   6.14517000
_cell_length_b   8.69058000
_cell_length_c   26.51790000
_cell_angle_alpha   90.00000000
_cell_angle_beta   90.00000000
_cell_angle_gamma   90.00000000
_symmetry_Int_Tables_number   6
_chemical_formula_structural   Li8Al8Ga8Pd8CO
_chemical_formula_sum   'Li8 Al8 Ga8 Pd8 C1 O1'
_cell_volume   1416.19087585
_cell_formula_units_Z   1
loop_
 _symmetry_equiv_pos_site_id
 _symmetry_equiv_pos_as_xyz
  1  'x, y, z'
  2  'x, -y, z'
loop_
 _atom_site_type_symbol
 _atom_site_label
 _atom_site_symmetry_multiplicity
 _atom_site_fract_x
 _atom_site_fract_y
 _atom_site_fract_z
 _atom_site_occupancy
  Li  Li0  2  0.24210000  0.25119000  0.04345000  1.0
  Li  Li1  2  0.25000000  0.25000000  0.87710000  1.0
  Li  Li2  1  0.75000000  0.00000000  0.95903000  1.0
  Li  Li3  1  0.75000000  0.50000000  0.95903000  1.0
  Li  Li4  1  0.75451000  0.00000000  0.15515000  1.0
  Li  Li5  1  0.76088000  0.50000000  0.17065000  1.0
  Al  Al6  2  0.50000000  0.25000000  0.95903000  1.0
  Al  Al7  2  0.51714000  0.26168000  0.12296000  1.0
  Al  Al8  1  0.00000000  0.00000000  0.87710000  1.0
  Al  Al9  1  0.00000000  0.50000000  0.87710000  1.0
  Al  Al10  1  0.97434000  0.50000000  0.04940000  1.0
  Al  Al11  1  0.98522000  0.00000000  0.05388000  1.0
  Ga  Ga12  2  0.00000000  0.25000000  0.95903000  1.0
  Ga  Ga13  2  0.97811000  0.26001000  0.12871000  1.0
  Ga  Ga14  1  0.49980000  0.00000000  0.04958000  1.0
  Ga  Ga15  1  0.50000000  0.00000000  0.87710000  1.0
  Ga  Ga16  1  0.50000000  0.50000000  0.87710000  1.0
  Ga  Ga17  1  0.50876000  0.50000000  0.04350000  1.0
  Pd  Pd18  2  0.74911000  0.24591000  0.03691000  1.0
  Pd  Pd19  2  0.75000000  0.25000000  0.87710000  1.0
  Pd  Pd20  1  0.25000000  0.00000000  0.95903000  1.0
  Pd  Pd21  1  0.25000000  0.50000000  0.95903000  1.0
  Pd  Pd22  1  0.25380000  0.50000000  0.12109000  1.0
  Pd  Pd23  1  0.26293000  0.00000000  0.13285000  1.0
  C  C24  1  0.25821000  0.00000000  0.20735000  1.0
  O  O25  1  0.25076000  0.00000000  0.25085000  1.0
