data_image0
_chemical_formula_structural       Y8Cu8Ge8Pd8CO
_chemical_formula_sum              "Y8 Cu8 Ge8 Pd8 C1 O1"
_cell_length_a       6.58158
_cell_length_b       9.30776
_cell_length_c       26.9808
_cell_angle_alpha    90
_cell_angle_beta     90
_cell_angle_gamma    90

_space_group_name_H-M_alt    "P 1"
_space_group_IT_number       1

loop_
  _space_group_symop_operation_xyz
  'x, y, z'

loop_
  _atom_site_type_symbol
  _atom_site_label
  _atom_site_symmetry_multiplicity
  _atom_site_fract_x
  _atom_site_fract_y
  _atom_site_fract_z
  _atom_site_occupancy
  Y   Y1        1.0  0.75000  0.00000  0.95688  1.0000
  Y   Y2        1.0  0.75000  0.50000  0.95688  1.0000
  Y   Y3        1.0  0.25000  0.25000  0.87063  1.0000
  Y   Y4        1.0  0.25000  0.75000  0.87063  1.0000
  Y   Y5        1.0  0.64700  0.50340  0.14085  1.0000
  Y   Y6        1.0  0.64699  0.99661  0.14085  1.0000
  Y   Y7        1.0  0.23173  0.75000  0.04655  1.0000
  Y   Y8        1.0  0.22866  0.25000  0.04497  1.0000
  Cu  Cu1       1.0  0.00000  0.00000  0.87063  1.0000
  Cu  Cu2       1.0  0.00000  0.50000  0.87063  1.0000
  Cu  Cu3       1.0  0.50000  0.75000  0.95688  1.0000
  Cu  Cu4       1.0  0.50000  0.25000  0.95688  1.0000
  Cu  Cu5       1.0  0.91887  0.50350  0.05937  1.0000
  Cu  Cu6       1.0  0.91886  0.99650  0.05937  1.0000
  Cu  Cu7       1.0  0.30730  0.24999  0.15651  1.0000
  Cu  Cu8       1.0  0.33235  0.75000  0.15295  1.0000
  Ge  Ge1       1.0  0.25000  0.00000  0.95688  1.0000
  Ge  Ge2       1.0  0.25000  0.50000  0.95688  1.0000
  Ge  Ge3       1.0  0.75000  0.25000  0.87063  1.0000
  Ge  Ge4       1.0  0.75000  0.75000  0.87063  1.0000
  Ge  Ge5       1.0  0.19408  0.49902  0.12480  1.0000
  Ge  Ge6       1.0  0.19408  0.00099  0.12480  1.0000
  Ge  Ge7       1.0  0.73161  0.75000  0.03979  1.0000
  Ge  Ge8       1.0  0.72803  0.24999  0.04109  1.0000
  Pd  Pd1       1.0  0.00000  0.25000  0.95688  1.0000
  Pd  Pd2       1.0  0.00000  0.75000  0.95688  1.0000
  Pd  Pd3       1.0  0.50000  0.50000  0.87063  1.0000
  Pd  Pd4       1.0  0.50000  0.00000  0.87063  1.0000
  Pd  Pd5       1.0  0.92508  0.75000  0.12532  1.0000
  Pd  Pd6       1.0  0.92716  0.25000  0.12334  1.0000
  Pd  Pd7       1.0  0.49552  0.00188  0.04351  1.0000
  Pd  Pd8       1.0  0.49554  0.49812  0.04350  1.0000
  C   C1        1.0  0.53227  0.25000  0.20043  1.0000
  O   O1        1.0  0.59025  0.24999  0.24185  1.0000
