# generated using pymatgen
data_Y8Cu8Ge8Pd8CO
_symmetry_space_group_name_H-M   'P 1'
_cell_length_a   6.58158000
_cell_length_b   9.30776000
_cell_length_c   26.98080000
_cell_angle_alpha   90.00000000
_cell_angle_beta   90.00000000
_cell_angle_gamma   90.00000000
_symmetry_Int_Tables_number   1
_chemical_formula_structural   Y8Cu8Ge8Pd8CO
_chemical_formula_sum   'Y8 Cu8 Ge8 Pd8 C1 O1'
_cell_volume   1652.83752311
_cell_formula_units_Z   1
loop_
 _symmetry_equiv_pos_site_id
 _symmetry_equiv_pos_as_xyz
  1  'x, y, z'
loop_
 _atom_site_type_symbol
 _atom_site_label
 _atom_site_symmetry_multiplicity
 _atom_site_fract_x
 _atom_site_fract_y
 _atom_site_fract_z
 _atom_site_occupancy
  Y  Y0  1  0.25000000  0.00000000  0.95688000  1.0
  Y  Y1  1  0.25000000  0.50000000  0.95688000  1.0
  Y  Y2  1  0.75000000  0.75000000  0.87063000  1.0
  Y  Y3  1  0.75000000  0.25000000  0.87063000  1.0
  Y  Y4  1  0.35408000  0.47615000  0.14094000  1.0
  Y  Y5  1  0.35294000  0.01761000  0.14399000  1.0
  Y  Y6  1  0.76016000  0.24968000  0.04679000  1.0
  Y  Y7  1  0.76886000  0.75048000  0.04436000  1.0
  Cu  Cu8  1  0.00000000  0.00000000  0.87063000  1.0
  Cu  Cu9  1  0.00000000  0.50000000  0.87063000  1.0
  Cu  Cu10  1  0.50000000  0.25000000  0.95688000  1.0
  Cu  Cu11  1  0.50000000  0.75000000  0.95688000  1.0
  Cu  Cu12  1  0.08038000  0.50171000  0.06065000  1.0
  Cu  Cu13  1  0.08207000  0.99687000  0.06246000  1.0
  Cu  Cu14  1  0.64869000  0.74601000  0.15267000  1.0
  Cu  Cu15  1  0.67631000  0.24835000  0.15601000  1.0
  Ge  Ge16  1  0.75000000  0.00000000  0.95688000  1.0
  Ge  Ge17  1  0.75000000  0.50000000  0.95688000  1.0
  Ge  Ge18  1  0.25000000  0.75000000  0.87063000  1.0
  Ge  Ge19  1  0.25000000  0.25000000  0.87063000  1.0
  Ge  Ge20  1  0.80742000  0.50366000  0.12476000  1.0
  Ge  Ge21  1  0.80099000  0.99103000  0.12515000  1.0
  Ge  Ge22  1  0.26562000  0.24947000  0.04005000  1.0
  Ge  Ge23  1  0.27360000  0.75074000  0.03832000  1.0
  Pd  Pd24  1  0.00000000  0.75000000  0.95688000  1.0
  Pd  Pd25  1  0.00000000  0.25000000  0.95688000  1.0
  Pd  Pd26  1  0.50000000  0.50000000  0.87063000  1.0
  Pd  Pd27  1  0.50000000  0.00000000  0.87063000  1.0
  Pd  Pd28  1  0.05771000  0.24816000  0.12366000  1.0
  Pd  Pd29  1  0.08072000  0.75106000  0.12788000  1.0
  Pd  Pd30  1  0.50277000  0.99671000  0.04436000  1.0
  Pd  Pd31  1  0.50405000  0.50672000  0.04397000  1.0
  C  C32  1  0.36080000  0.73458000  0.17377000  1.0
  O  O33  1  0.30718000  0.78499000  0.21458000  1.0
