# generated using pymatgen
data_Y8Cu8Ge8Pd8CO
_symmetry_space_group_name_H-M   P1
_cell_length_a   6.58158000
_cell_length_b   9.30776000
_cell_length_c   26.98080000
_cell_angle_alpha   90.00000000
_cell_angle_beta   90.00000000
_cell_angle_gamma   90.00000000
_symmetry_Int_Tables_number   1
_chemical_formula_structural   Y8Cu8Ge8Pd8CO
_chemical_formula_sum   'Y8 Cu8 Ge8 Pd8 C1 O1'
_cell_volume   1652.83752311
_cell_formula_units_Z   1
loop_
 _symmetry_equiv_pos_site_id
 _symmetry_equiv_pos_as_xyz
  1  'x, y, z'
loop_
 _atom_site_type_symbol
 _atom_site_label
 _atom_site_symmetry_multiplicity
 _atom_site_fract_x
 _atom_site_fract_y
 _atom_site_fract_z
 _atom_site_occupancy
  Y  Y0  1  0.23114000  0.24952000  0.04436000  1.0
  Y  Y1  1  0.23984000  0.75032000  0.04679000  1.0
  Y  Y2  1  0.25000000  0.25000000  0.87063000  1.0
  Y  Y3  1  0.25000000  0.75000000  0.87063000  1.0
  Y  Y4  1  0.64592000  0.52385000  0.14094000  1.0
  Y  Y5  1  0.64706000  0.98239000  0.14399000  1.0
  Y  Y6  1  0.75000000  0.00000000  0.95688000  1.0
  Y  Y7  1  0.75000000  0.50000000  0.95688000  1.0
  Cu  Cu8  1  0.00000000  0.00000000  0.87063000  1.0
  Cu  Cu9  1  0.00000000  0.50000000  0.87063000  1.0
  Cu  Cu10  1  0.32369000  0.75165000  0.15601000  1.0
  Cu  Cu11  1  0.35131000  0.25399000  0.15267000  1.0
  Cu  Cu12  1  0.50000000  0.25000000  0.95688000  1.0
  Cu  Cu13  1  0.50000000  0.75000000  0.95688000  1.0
  Cu  Cu14  1  0.91793000  0.00313000  0.06246000  1.0
  Cu  Cu15  1  0.91962000  0.49829000  0.06065000  1.0
  Ge  Ge16  1  0.19258000  0.49634000  0.12476000  1.0
  Ge  Ge17  1  0.19901000  0.00897000  0.12515000  1.0
  Ge  Ge18  1  0.25000000  0.00000000  0.95688000  1.0
  Ge  Ge19  1  0.25000000  0.50000000  0.95688000  1.0
  Ge  Ge20  1  0.72640000  0.24926000  0.03832000  1.0
  Ge  Ge21  1  0.73438000  0.75053000  0.04005000  1.0
  Ge  Ge22  1  0.75000000  0.25000000  0.87063000  1.0
  Ge  Ge23  1  0.75000000  0.75000000  0.87063000  1.0
  Pd  Pd24  1  -0.00000000  0.25000000  0.95688000  1.0
  Pd  Pd25  1  -0.00000000  0.75000000  0.95688000  1.0
  Pd  Pd26  1  0.49595000  0.49328000  0.04397000  1.0
  Pd  Pd27  1  0.49723000  0.00329000  0.04436000  1.0
  Pd  Pd28  1  0.50000000  0.00000000  0.87063000  1.0
  Pd  Pd29  1  0.50000000  0.50000000  0.87063000  1.0
  Pd  Pd30  1  0.91928000  0.24894000  0.12788000  1.0
  Pd  Pd31  1  0.94229000  0.75184000  0.12366000  1.0
  C  C32  1  0.63920000  0.26542000  0.17377000  1.0
  O  O33  1  0.69282000  0.21501000  0.21458000  1.0
