# generated using pymatgen
data_Li16Ag8Bi8C
_symmetry_space_group_name_H-M   'P 1'
_cell_length_a   9.79433000
_cell_length_b   6.92564000
_cell_length_c   27.34580000
_cell_angle_alpha   90.00000000
_cell_angle_beta   90.00000000
_cell_angle_gamma   90.00000000
_symmetry_Int_Tables_number   1
_chemical_formula_structural   Li16Ag8Bi8C
_chemical_formula_sum   'Li16 Ag8 Bi8 C1'
_cell_volume   1854.92040462
_cell_formula_units_Z   1
loop_
 _symmetry_equiv_pos_site_id
 _symmetry_equiv_pos_as_xyz
  1  'x, y, z'
loop_
 _atom_site_type_symbol
 _atom_site_label
 _atom_site_symmetry_multiplicity
 _atom_site_fract_x
 _atom_site_fract_y
 _atom_site_fract_z
 _atom_site_occupancy
  Li  Li0  1  0.74998000  1.00000000  0.04477000  1.0
  Li  Li1  1  0.00000000  0.50000000  0.13431000  1.0
  Li  Li2  1  0.25002000  1.00000000  0.04477000  1.0
  Li  Li3  1  0.50000000  0.50000000  0.13431000  1.0
  Li  Li4  1  0.00000000  0.25000000  0.04477000  1.0
  Li  Li5  1  0.50000000  0.25000000  0.04477000  1.0
  Li  Li6  1  0.74998000  0.75000000  0.13431000  1.0
  Li  Li7  1  0.25002000  0.75000000  0.13431000  1.0
  Li  Li8  1  0.26088000  0.99358000  0.87681000  1.0
  Li  Li9  1  0.50000000  0.51094000  0.96415000  1.0
  Li  Li10  1  0.73912000  0.99358000  0.87681000  1.0
  Li  Li11  1  0.00000000  0.44049000  0.92207000  1.0
  Li  Li12  1  0.50000000  0.28202000  0.87942000  1.0
  Li  Li13  1  0.00000000  0.21244000  0.83364000  1.0
  Li  Li14  1  0.23752000  0.72334000  0.95294000  1.0
  Li  Li15  1  0.76248000  0.72334000  0.95294000  1.0
  Ag  Ag16  1  0.24998000  0.25000000  0.13431000  1.0
  Ag  Ag17  1  0.75002000  0.25000000  0.13431000  1.0
  Ag  Ag18  1  0.50000000  0.75000000  0.04477000  1.0
  Ag  Ag19  1  0.00000000  0.75000000  0.04477000  1.0
  Ag  Ag20  1  0.74086000  0.27852000  0.95133000  1.0
  Ag  Ag21  1  0.25914000  0.27852000  0.95133000  1.0
  Ag  Ag22  1  0.00000000  0.79141000  0.86493000  1.0
  Ag  Ag23  1  0.50000000  0.71361000  0.87693000  1.0
  Bi  Bi24  1  0.00000000  0.00000000  0.13431000  1.0
  Bi  Bi25  1  0.24998000  0.50000000  0.04477000  1.0
  Bi  Bi26  1  0.75002000  0.50000000  0.04477000  1.0
  Bi  Bi27  1  0.50000000  1.00000000  0.13431000  1.0
  Bi  Bi28  1  0.50000000  0.99771000  0.95543000  1.0
  Bi  Bi29  1  0.75644000  0.48410000  0.85448000  1.0
  Bi  Bi30  1  0.24356000  0.48410000  0.85448000  1.0
  Bi  Bi31  1  0.00000000  0.01862000  0.95085000  1.0
  C  C32  1  0.00000000  0.50642000  0.83392000  1.0
