# generated using pymatgen
data_Li16Ag8Bi8C
_symmetry_space_group_name_H-M   Pm
_cell_length_a   6.92564000
_cell_length_b   9.79433000
_cell_length_c   27.34580000
_cell_angle_alpha   90.00000000
_cell_angle_beta   90.00000000
_cell_angle_gamma   90.00000000
_symmetry_Int_Tables_number   6
_chemical_formula_structural   Li16Ag8Bi8C
_chemical_formula_sum   'Li16 Ag8 Bi8 C1'
_cell_volume   1854.92040462
_cell_formula_units_Z   1
loop_
 _symmetry_equiv_pos_site_id
 _symmetry_equiv_pos_as_xyz
  1  'x, y, z'
  2  'x, -y, z'
loop_
 _atom_site_type_symbol
 _atom_site_label
 _atom_site_symmetry_multiplicity
 _atom_site_fract_x
 _atom_site_fract_y
 _atom_site_fract_z
 _atom_site_occupancy
  Li  Li0  2  -0.00000000  0.25002000  0.95523000  1.0
  Li  Li1  2  0.72334000  0.23752000  0.04706000  1.0
  Li  Li2  2  0.75000000  0.25002000  0.86569000  1.0
  Li  Li3  2  0.99358000  0.26088000  0.12319000  1.0
  Li  Li4  1  0.21244000  0.00000000  0.16636000  1.0
  Li  Li5  1  0.25000000  0.00000000  0.95523000  1.0
  Li  Li6  1  0.25000000  0.50000000  0.95523000  1.0
  Li  Li7  1  0.28202000  0.50000000  0.12058000  1.0
  Li  Li8  1  0.44049000  0.00000000  0.07793000  1.0
  Li  Li9  1  0.50000000  0.00000000  0.86569000  1.0
  Li  Li10  1  0.50000000  0.50000000  0.86569000  1.0
  Li  Li11  1  0.51094000  0.50000000  0.03585000  1.0
  Ag  Ag12  2  0.25000000  0.24998000  0.86569000  1.0
  Ag  Ag13  2  0.27852000  0.25914000  0.04867000  1.0
  Ag  Ag14  1  0.71361000  0.50000000  0.12307000  1.0
  Ag  Ag15  1  0.75000000  0.00000000  0.95523000  1.0
  Ag  Ag16  1  0.75000000  0.50000000  0.95523000  1.0
  Ag  Ag17  1  0.79141000  0.00000000  0.13507000  1.0
  Bi  Bi18  2  0.48410000  0.24356000  0.14552000  1.0
  Bi  Bi19  2  0.50000000  0.24998000  0.95523000  1.0
  Bi  Bi20  1  -0.00000000  0.50000000  0.86569000  1.0
  Bi  Bi21  1  0.00000000  0.00000000  0.86569000  1.0
  Bi  Bi22  1  0.01862000  0.00000000  0.04915000  1.0
  Bi  Bi23  1  0.99771000  0.50000000  0.04457000  1.0
  C  C24  1  0.50642000  0.00000000  0.16608000  1.0
