data_image0
_chemical_formula_structural       Li4Ni8Sn4CO
_chemical_formula_sum              "Li4 Ni8 Sn4 C1 O1"
_cell_length_a       6.05884
_cell_length_b       6.05884
_cell_length_c       24.5441
_cell_angle_alpha    90
_cell_angle_beta     90
_cell_angle_gamma    90

_space_group_name_H-M_alt    "P 1"
_space_group_IT_number       1

loop_
  _space_group_symop_operation_xyz
  'x, y, z'

loop_
  _atom_site_type_symbol
  _atom_site_label
  _atom_site_symmetry_multiplicity
  _atom_site_fract_x
  _atom_site_fract_y
  _atom_site_fract_z
  _atom_site_occupancy
  Li  Li1       1.0  0.00000  0.00000  0.90743  1.0000
  Li  Li2       1.0  0.50000  0.50000  0.90743  1.0000
  Li  Li3       1.0  0.50053  0.99958  0.03266  1.0000
  Li  Li4       1.0  0.99957  0.50058  0.03267  1.0000
  Ni  Ni1       1.0  0.25000  0.25000  0.96914  1.0000
  Ni  Ni2       1.0  0.74892  0.74883  0.08948  1.0000
  Ni  Ni3       1.0  0.75000  0.25000  0.96914  1.0000
  Ni  Ni4       1.0  0.25142  0.74927  0.09002  1.0000
  Ni  Ni5       1.0  0.75000  0.75000  0.96914  1.0000
  Ni  Ni6       1.0  0.25177  0.25190  0.09396  1.0000
  Ni  Ni7       1.0  0.25000  0.75000  0.96914  1.0000
  Ni  Ni8       1.0  0.74885  0.25131  0.08994  1.0000
  Sn  Sn1       1.0  0.99994  0.99988  0.03208  1.0000
  Sn  Sn2       1.0  0.50000  0.00000  0.90743  1.0000
  Sn  Sn3       1.0  0.00000  0.50000  0.90743  1.0000
  Sn  Sn4       1.0  0.49989  0.50012  0.03139  1.0000
  C   C1        1.0  0.24972  0.24982  0.16602  1.0000
  O   O1        1.0  0.24907  0.24903  0.21304  1.0000
