# generated using pymatgen
data_Li4Ni8Sn4CO
_symmetry_space_group_name_H-M   P1
_cell_length_a   6.05884000
_cell_length_b   6.05884000
_cell_length_c   24.54410000
_cell_angle_alpha   90.00000000
_cell_angle_beta   90.00000000
_cell_angle_gamma   90.00000000
_symmetry_Int_Tables_number   1
_chemical_formula_structural   Li4Ni8Sn4CO
_chemical_formula_sum   'Li4 Ni8 Sn4 C1 O1'
_cell_volume   901.00267338
_cell_formula_units_Z   1
loop_
 _symmetry_equiv_pos_site_id
 _symmetry_equiv_pos_as_xyz
  1  'x, y, z'
loop_
 _atom_site_type_symbol
 _atom_site_label
 _atom_site_symmetry_multiplicity
 _atom_site_fract_x
 _atom_site_fract_y
 _atom_site_fract_z
 _atom_site_occupancy
  Li  Li0  1  0.00000000  0.00000000  0.90743000  1.0
  Li  Li1  1  0.50000000  0.50000000  0.90743000  1.0
  Li  Li2  1  0.50053000  0.99958000  0.03266000  1.0
  Li  Li3  1  0.99957000  0.50058000  0.03267000  1.0
  Ni  Ni4  1  0.25000000  0.25000000  0.96914000  1.0
  Ni  Ni5  1  0.25000000  0.75000000  0.96914000  1.0
  Ni  Ni6  1  0.25142000  0.74927000  0.09002000  1.0
  Ni  Ni7  1  0.25177000  0.25190000  0.09396000  1.0
  Ni  Ni8  1  0.74885000  0.25131000  0.08994000  1.0
  Ni  Ni9  1  0.74892000  0.74883000  0.08948000  1.0
  Ni  Ni10  1  0.75000000  0.25000000  0.96914000  1.0
  Ni  Ni11  1  0.75000000  0.75000000  0.96914000  1.0
  Sn  Sn12  1  -0.00000000  0.50000000  0.90743000  1.0
  Sn  Sn13  1  0.49989000  0.50012000  0.03139000  1.0
  Sn  Sn14  1  0.50000000  0.00000000  0.90743000  1.0
  Sn  Sn15  1  0.99994000  0.99988000  0.03208000  1.0
  C  C16  1  0.24972000  0.24982000  0.16602000  1.0
  O  O17  1  0.24907000  0.24903000  0.21304000  1.0
