# generated using pymatgen
data_ZrGaNi2
_symmetry_space_group_name_H-M   'P 1'
_cell_length_a   4.34791474
_cell_length_b   4.34791474
_cell_length_c   24.61170000
_cell_angle_alpha   90.00000000
_cell_angle_beta   90.00000000
_cell_angle_gamma   90.00000000
_symmetry_Int_Tables_number   1
_chemical_formula_structural   ZrGaNi2
_chemical_formula_sum   'Zr2 Ga2 Ni4'
_cell_volume   465.26850167
_cell_formula_units_Z   2
loop_
 _symmetry_equiv_pos_site_id
 _symmetry_equiv_pos_as_xyz
  1  'x, y, z'
loop_
 _atom_site_type_symbol
 _atom_site_label
 _atom_site_symmetry_multiplicity
 _atom_site_fract_x
 _atom_site_fract_y
 _atom_site_fract_z
 _atom_site_occupancy
  Zr  Zr0  1  0.00000000  0.00000000  0.90631000  1.0
  Zr  Zr1  1  0.50000000  0.50000000  0.03123000  1.0
  Ga  Ga2  1  0.00000000  0.00000000  0.03123000  1.0
  Ga  Ga3  1  0.50000000  0.50000000  0.90631000  1.0
  Ni  Ni4  1  0.50000000  0.00000000  0.96877000  1.0
  Ni  Ni5  1  0.50000000  0.00000000  0.09369000  1.0
  Ni  Ni6  1  0.00000000  0.50000000  0.96877000  1.0
  Ni  Ni7  1  0.00000000  0.50000000  0.09369000  1.0
