# generated using pymatgen
data_Li8Y8Ge8Pb8CO
_symmetry_space_group_name_H-M   Pmm2
_cell_length_a   8.55406000
_cell_length_b   8.65500000
_cell_length_c   27.39600000
_cell_angle_alpha   90.00000000
_cell_angle_beta   90.00000000
_cell_angle_gamma   90.00000000
_symmetry_Int_Tables_number   25
_chemical_formula_structural   Li8Y8Ge8Pb8CO
_chemical_formula_sum   'Li8 Y8 Ge8 Pb8 C1 O1'
_cell_volume   2028.27352526
_cell_formula_units_Z   1
loop_
 _symmetry_equiv_pos_site_id
 _symmetry_equiv_pos_as_xyz
  1  'x, y, z'
  2  '-x, -y, z'
  3  '-x, y, z'
  4  'x, -y, z'
loop_
 _atom_site_type_symbol
 _atom_site_label
 _atom_site_symmetry_multiplicity
 _atom_site_fract_x
 _atom_site_fract_y
 _atom_site_fract_z
 _atom_site_occupancy
  Li  Li0  2  0.00000000  0.24811000  0.04946000  1.0
  Li  Li1  2  0.00000000  0.25000000  0.86502000  1.0
  Li  Li2  2  0.50000000  0.24902000  0.04931000  1.0
  Li  Li3  2  0.50000000  0.25000000  0.86502000  1.0
  Y  Y4  1  0.00000000  0.00000000  0.13824000  1.0
  Y  Y5  1  0.00000000  0.00000000  0.95501000  1.0
  Y  Y6  1  0.00000000  0.50000000  0.13605000  1.0
  Y  Y7  1  0.00000000  0.50000000  0.95501000  1.0
  Y  Y8  1  0.50000000  0.00000000  0.13657000  1.0
  Y  Y9  1  0.50000000  0.00000000  0.95501000  1.0
  Y  Y10  1  0.50000000  0.50000000  0.13635000  1.0
  Y  Y11  1  0.50000000  0.50000000  0.95501000  1.0
  Ge  Ge12  4  0.25000000  0.25000000  0.95501000  1.0
  Ge  Ge13  4  0.25061000  0.25112000  0.13125000  1.0
  Pb  Pb14  2  0.24869000  0.00000000  0.04691000  1.0
  Pb  Pb15  2  0.24933000  0.50000000  0.04640000  1.0
  Pb  Pb16  2  0.25000000  0.00000000  0.86502000  1.0
  Pb  Pb17  2  0.25000000  0.50000000  0.86502000  1.0
  C  C18  1  0.00000000  0.00000000  0.22922000  1.0
  O  O19  1  0.00000000  0.00000000  0.27118000  1.0
