# generated using pymatgen
data_Y16Mg16CO
_symmetry_space_group_name_H-M   'P 1'
_cell_length_a   10.72040000
_cell_length_b   7.58049000
_cell_length_c   28.04030000
_cell_angle_alpha   90.00000000
_cell_angle_beta   90.00000000
_cell_angle_gamma   90.00000000
_symmetry_Int_Tables_number   1
_chemical_formula_structural   Y16Mg16CO
_chemical_formula_sum   'Y16 Mg16 C1 O1'
_cell_volume   2278.71979505
_cell_formula_units_Z   1
loop_
 _symmetry_equiv_pos_site_id
 _symmetry_equiv_pos_as_xyz
  1  'x, y, z'
loop_
 _atom_site_type_symbol
 _atom_site_label
 _atom_site_symmetry_multiplicity
 _atom_site_fract_x
 _atom_site_fract_y
 _atom_site_fract_z
 _atom_site_occupancy
  Y  Y0  1  0.00000000  0.00000000  0.14337000  1.0
  Y  Y1  1  0.25000000  0.00000000  0.04779000  1.0
  Y  Y2  1  0.50168000  0.00000000  0.95163000  1.0
  Y  Y3  1  0.25041000  0.00000000  0.86515000  1.0
  Y  Y4  1  0.50000000  0.00000000  0.14337000  1.0
  Y  Y5  1  0.75000000  0.00000000  0.04779000  1.0
  Y  Y6  1  0.99846000  0.00000000  0.95164000  1.0
  Y  Y7  1  0.75044000  0.00000000  0.86315000  1.0
  Y  Y8  1  0.00000000  0.50000000  0.14337000  1.0
  Y  Y9  1  0.25000000  0.50000000  0.04779000  1.0
  Y  Y10  1  0.50043000  0.50000000  0.94990000  1.0
  Y  Y11  1  0.25046000  0.50000000  0.86029000  1.0
  Y  Y12  1  0.50000000  0.50000000  0.14337000  1.0
  Y  Y13  1  0.75000000  0.50000000  0.04779000  1.0
  Y  Y14  1  0.99959000  0.50000000  0.94991000  1.0
  Y  Y15  1  0.75041000  0.50000000  0.86269000  1.0
  Mg  Mg16  1  0.25000000  0.75000000  0.14337000  1.0
  Mg  Mg17  1  0.00000000  0.75000000  0.04779000  1.0
  Mg  Mg18  1  0.24958000  0.74473000  0.95562000  1.0
  Mg  Mg19  1  0.49864000  0.75360000  0.85365000  1.0
  Mg  Mg20  1  0.75000000  0.75000000  0.14337000  1.0
  Mg  Mg21  1  0.50000000  0.75000000  0.04779000  1.0
  Mg  Mg22  1  0.75029000  0.74871000  0.95463000  1.0
  Mg  Mg23  1  0.00260000  0.75357000  0.85368000  1.0
  Mg  Mg24  1  0.25000000  0.25000000  0.14337000  1.0
  Mg  Mg25  1  0.00000000  0.25000000  0.04779000  1.0
  Mg  Mg26  1  0.24958000  0.25527000  0.95562000  1.0
  Mg  Mg27  1  0.49864000  0.24640000  0.85365000  1.0
  Mg  Mg28  1  0.75000000  0.25000000  0.14337000  1.0
  Mg  Mg29  1  0.50000000  0.25000000  0.04779000  1.0
  Mg  Mg30  1  0.75029000  0.25129000  0.95463000  1.0
  Mg  Mg31  1  0.00260000  0.24643000  0.85368000  1.0
  C  C32  1  0.24927000  0.00000000  0.77872000  1.0
  O  O33  1  0.24907000  0.00000000  0.73741000  1.0
