# generated using pymatgen
data_Y16Mg16CO
_symmetry_space_group_name_H-M   Pm
_cell_length_a   10.72040000
_cell_length_b   7.58049000
_cell_length_c   28.04030000
_cell_angle_alpha   90.00000000
_cell_angle_beta   90.00000000
_cell_angle_gamma   90.00000000
_symmetry_Int_Tables_number   6
_chemical_formula_structural   Y16Mg16CO
_chemical_formula_sum   'Y16 Mg16 C1 O1'
_cell_volume   2278.71979505
_cell_formula_units_Z   1
loop_
 _symmetry_equiv_pos_site_id
 _symmetry_equiv_pos_as_xyz
  1  'x, y, z'
  2  'x, -y, z'
loop_
 _atom_site_type_symbol
 _atom_site_label
 _atom_site_symmetry_multiplicity
 _atom_site_fract_x
 _atom_site_fract_y
 _atom_site_fract_z
 _atom_site_occupancy
  Y  Y0  1  0.00000000  0.00000000  0.85663000  1.0
  Y  Y1  1  0.00000000  0.50000000  0.85663000  1.0
  Y  Y2  1  0.25000000  0.00000000  0.95221000  1.0
  Y  Y3  1  0.25000000  0.50000000  0.95221000  1.0
  Y  Y4  1  0.25041000  0.00000000  0.13485000  1.0
  Y  Y5  1  0.25046000  0.50000000  0.13971000  1.0
  Y  Y6  1  0.50000000  0.00000000  0.85663000  1.0
  Y  Y7  1  0.50000000  0.50000000  0.85663000  1.0
  Y  Y8  1  0.50043000  0.50000000  0.05010000  1.0
  Y  Y9  1  0.50168000  0.00000000  0.04837000  1.0
  Y  Y10  1  0.75000000  0.00000000  0.95221000  1.0
  Y  Y11  1  0.75000000  0.50000000  0.95221000  1.0
  Y  Y12  1  0.75041000  0.50000000  0.13731000  1.0
  Y  Y13  1  0.75044000  0.00000000  0.13685000  1.0
  Y  Y14  1  0.99846000  0.00000000  0.04836000  1.0
  Y  Y15  1  0.99959000  0.50000000  0.05009000  1.0
  Mg  Mg16  2  0.00000000  0.25000000  0.95221000  1.0
  Mg  Mg17  2  0.00260000  0.24643000  0.14632000  1.0
  Mg  Mg18  2  0.24958000  0.25527000  0.04438000  1.0
  Mg  Mg19  2  0.25000000  0.25000000  0.85663000  1.0
  Mg  Mg20  2  0.49864000  0.24640000  0.14635000  1.0
  Mg  Mg21  2  0.50000000  0.25000000  0.95221000  1.0
  Mg  Mg22  2  0.75000000  0.25000000  0.85663000  1.0
  Mg  Mg23  2  0.75029000  0.25129000  0.04537000  1.0
  C  C24  1  0.24927000  0.00000000  0.22128000  1.0
  O  O25  1  0.24907000  0.00000000  0.26259000  1.0
