# generated using pymatgen
data_Li16Sb8Pd8C
_symmetry_space_group_name_H-M   'P 1'
_cell_length_a   9.09870000
_cell_length_b   6.43375000
_cell_length_c   26.82400000
_cell_angle_alpha   90.00000000
_cell_angle_beta   90.00000000
_cell_angle_gamma   90.00000000
_symmetry_Int_Tables_number   1
_chemical_formula_structural   Li16Sb8Pd8C
_chemical_formula_sum   'Li16 Sb8 Pd8 C1'
_cell_volume   1570.24372842
_cell_formula_units_Z   1
loop_
 _symmetry_equiv_pos_site_id
 _symmetry_equiv_pos_as_xyz
  1  'x, y, z'
loop_
 _atom_site_type_symbol
 _atom_site_label
 _atom_site_symmetry_multiplicity
 _atom_site_fract_x
 _atom_site_fract_y
 _atom_site_fract_z
 _atom_site_occupancy
  Li  Li0  1  0.50000000  1.00000000  0.04240000  1.0
  Li  Li1  1  0.75000000  0.50000000  0.12720000  1.0
  Li  Li2  1  0.00000000  0.00000000  0.04240000  1.0
  Li  Li3  1  0.25000000  0.50000000  0.12720000  1.0
  Li  Li4  1  0.00000000  0.25000000  0.12720000  1.0
  Li  Li5  1  0.50000000  0.25000000  0.12720000  1.0
  Li  Li6  1  0.25000000  0.75000000  0.04240000  1.0
  Li  Li7  1  0.75000000  0.75000000  0.04240000  1.0
  Li  Li8  1  0.00000000  0.97722000  0.88066000  1.0
  Li  Li9  1  0.26241000  0.50952000  0.96198000  1.0
  Li  Li10  1  0.50000000  0.04344000  0.87630000  1.0
  Li  Li11  1  0.73759000  0.50952000  0.96198000  1.0
  Li  Li12  1  0.50000000  0.25322000  0.96023000  1.0
  Li  Li13  1  0.00000000  0.28970000  0.94926000  1.0
  Li  Li14  1  0.72594000  0.73277000  0.87434000  1.0
  Li  Li15  1  0.27406000  0.73277000  0.87434000  1.0
  Sb  Sb16  1  0.75000000  0.00000000  0.12720000  1.0
  Sb  Sb17  1  0.00000000  0.50000000  0.04240000  1.0
  Sb  Sb18  1  0.50000000  0.50000000  0.04240000  1.0
  Sb  Sb19  1  0.25000000  0.00000000  0.12720000  1.0
  Sb  Sb20  1  0.24520000  0.00224000  0.95587000  1.0
  Sb  Sb21  1  0.50000000  0.46755000  0.86921000  1.0
  Sb  Sb22  1  0.00000000  0.58199000  0.84570000  1.0
  Sb  Sb23  1  0.75480000  0.00224000  0.95587000  1.0
  Pd  Pd24  1  0.75000000  0.25000000  0.04240000  1.0
  Pd  Pd25  1  0.25000000  0.25000000  0.04240000  1.0
  Pd  Pd26  1  0.50000000  0.75000000  0.12720000  1.0
  Pd  Pd27  1  0.00000000  0.75000000  0.12720000  1.0
  Pd  Pd28  1  0.22279000  0.28497000  0.88028000  1.0
  Pd  Pd29  1  0.77721000  0.28497000  0.88028000  1.0
  Pd  Pd30  1  0.00000000  0.74465000  0.96018000  1.0
  Pd  Pd31  1  0.50000000  0.76319000  0.95157000  1.0
  C  C32  1  0.00000000  0.27064000  0.86444000  1.0
