data_image0
_chemical_formula_structural       RuTaRuTaRuTaRuTaRuTaRuTaRuTaRuTaCO
_chemical_formula_sum              "Ru8 Ta8 C1 O1"
_cell_length_a       6.15974
_cell_length_b       6.15974
_cell_length_c       25.0442
_cell_angle_alpha    90
_cell_angle_beta     90
_cell_angle_gamma    90

_space_group_name_H-M_alt    "P 1"
_space_group_IT_number       1

loop_
  _space_group_symop_operation_xyz
  'x, y, z'

loop_
  _atom_site_type_symbol
  _atom_site_label
  _atom_site_symmetry_multiplicity
  _atom_site_fract_x
  _atom_site_fract_y
  _atom_site_fract_z
  _atom_site_occupancy
  Ru  Ru1       1.0  0.25000  0.25000  0.95692  1.0000
  Ta  Ta1       1.0  0.00000  0.00000  0.88979  1.0000
  Ru  Ru2       1.0  0.25000  0.25000  0.09120  1.0000
  Ta  Ta2       1.0  0.00000  0.00000  0.02406  1.0000
  Ru  Ru3       1.0  0.25000  0.75000  0.95692  1.0000
  Ta  Ta3       1.0  0.00000  0.50000  0.88979  1.0000
  Ru  Ru4       1.0  0.25000  0.75000  0.09120  1.0000
  Ta  Ta4       1.0  0.00000  0.50000  0.02406  1.0000
  Ru  Ru5       1.0  0.75000  0.25000  0.95692  1.0000
  Ta  Ta5       1.0  0.50000  0.00000  0.88979  1.0000
  Ru  Ru6       1.0  0.75000  0.25000  0.09120  1.0000
  Ta  Ta6       1.0  0.50000  0.00000  0.02406  1.0000
  Ru  Ru7       1.0  0.75000  0.75000  0.95692  1.0000
  Ta  Ta7       1.0  0.50000  0.50000  0.88979  1.0000
  Ru  Ru8       1.0  0.75000  0.75000  0.09120  1.0000
  Ta  Ta8       1.0  0.50000  0.50000  0.02406  1.0000
  C   C1        1.0  0.25000  0.25000  0.16706  1.0000
  O   O1        1.0  0.25000  0.25000  0.21298  1.0000
