data_image0
_chemical_formula_structural       Li16In8Ag8
_chemical_formula_sum              "Li16 In8 Ag8"
_cell_length_a       6.67495
_cell_length_b       9.43981
_cell_length_c       27.0799
_cell_angle_alpha    90
_cell_angle_beta     90
_cell_angle_gamma    90

_space_group_name_H-M_alt    "P 1"
_space_group_IT_number       1

loop_
  _space_group_symop_operation_xyz
  'x, y, z'

loop_
  _atom_site_type_symbol
  _atom_site_label
  _atom_site_symmetry_multiplicity
  _atom_site_fract_x
  _atom_site_fract_y
  _atom_site_fract_z
  _atom_site_occupancy
  Li  Li1       1.0  0.00000  0.75000  0.95643  1.0000
  Li  Li2       1.0  0.50000  0.00000  0.86928  1.0000
  Li  Li3       1.0  0.00000  0.25000  0.95643  1.0000
  Li  Li4       1.0  0.50000  0.50000  0.86928  1.0000
  Li  Li5       1.0  0.25000  0.00000  0.95643  1.0000
  Li  Li6       1.0  0.25000  0.50000  0.95643  1.0000
  Li  Li7       1.0  0.75000  0.75000  0.86928  1.0000
  Li  Li8       1.0  0.75000  0.25000  0.86928  1.0000
  Li  Li9       1.0  0.98298  0.25000  0.12769  1.0000
  Li  Li10      1.0  0.49402  0.50000  0.03798  1.0000
  Li  Li11      1.0  0.98298  0.75000  0.12769  1.0000
  Li  Li12      1.0  0.49401  0.00000  0.03798  1.0000
  Li  Li13      1.0  0.26684  0.50000  0.12786  1.0000
  Li  Li14      1.0  0.26684  0.00000  0.12786  1.0000
  Li  Li15      1.0  0.74014  0.25000  0.04448  1.0000
  Li  Li16      1.0  0.74014  0.75000  0.04448  1.0000
  In  In1       1.0  0.00000  0.00000  0.86928  1.0000
  In  In2       1.0  0.50000  0.25000  0.95643  1.0000
  In  In3       1.0  0.50000  0.75000  0.95643  1.0000
  In  In4       1.0  0.00000  0.50000  0.86928  1.0000
  In  In5       1.0  0.00568  0.50000  0.04216  1.0000
  In  In6       1.0  0.50194  0.75000  0.13979  1.0000
  In  In7       1.0  0.50194  0.25000  0.13979  1.0000
  In  In8       1.0  0.00568  0.00000  0.04216  1.0000
  Ag  Ag1       1.0  0.25000  0.25000  0.86928  1.0000
  Ag  Ag2       1.0  0.25000  0.75000  0.86928  1.0000
  Ag  Ag3       1.0  0.75000  0.50000  0.95643  1.0000
  Ag  Ag4       1.0  0.75000  0.00000  0.95643  1.0000
  Ag  Ag5       1.0  0.25960  0.75000  0.04719  1.0000
  Ag  Ag6       1.0  0.25960  0.25000  0.04719  1.0000
  Ag  Ag7       1.0  0.72814  0.00000  0.12196  1.0000
  Ag  Ag8       1.0  0.72814  0.50000  0.12196  1.0000
