# generated using pymatgen
data_Li2InAg
_symmetry_space_group_name_H-M   'P 1'
_cell_length_a   6.67495000
_cell_length_b   4.71990500
_cell_length_c   27.07990000
_cell_angle_alpha   90.00000000
_cell_angle_beta   90.00000000
_cell_angle_gamma   90.00000000
_symmetry_Int_Tables_number   1
_chemical_formula_structural   Li2InAg
_chemical_formula_sum   'Li8 In4 Ag4'
_cell_volume   853.15576663
_cell_formula_units_Z   4
loop_
 _symmetry_equiv_pos_site_id
 _symmetry_equiv_pos_as_xyz
  1  'x, y, z'
loop_
 _atom_site_type_symbol
 _atom_site_label
 _atom_site_symmetry_multiplicity
 _atom_site_fract_x
 _atom_site_fract_y
 _atom_site_fract_z
 _atom_site_occupancy
  Li  Li0  1  1.00000000  0.50000000  0.95643000  1.0
  Li  Li1  1  0.50000000  0.00000000  0.86928000  1.0
  Li  Li2  1  0.75000000  0.00000000  0.95643000  1.0
  Li  Li3  1  0.25000000  0.50000000  0.86928000  1.0
  Li  Li4  1  0.01704000  0.50000000  0.12770000  1.0
  Li  Li5  1  0.50594500  0.00000000  0.03796000  1.0
  Li  Li6  1  0.73323000  0.00000000  0.12780000  1.0
  Li  Li7  1  0.25987000  0.50000000  0.04443000  1.0
  In  In8  1  1.00000000  0.00000000  0.86928000  1.0
  In  In9  1  0.50000000  0.50000000  0.95643000  1.0
  In  In10  1  0.99422000  0.00000000  0.04214000  1.0
  In  In11  1  0.49811500  0.50000000  0.13979000  1.0
  Ag  Ag12  1  0.75000000  0.50000000  0.86928000  1.0
  Ag  Ag13  1  0.25000000  0.00000000  0.95643000  1.0
  Ag  Ag14  1  0.74039000  0.50000000  0.04719000  1.0
  Ag  Ag15  1  0.27196000  0.00000000  0.12196000  1.0
