# generated using pymatgen
data_Li4Sc4Ga4Ge4CO
_symmetry_space_group_name_H-M   'P 1'
_cell_length_a   5.66960000
_cell_length_b   8.37322000
_cell_length_c   24.25170000
_cell_angle_alpha   90.00000000
_cell_angle_beta   90.00000000
_cell_angle_gamma   90.00000000
_symmetry_Int_Tables_number   1
_chemical_formula_structural   Li4Sc4Ga4Ge4CO
_chemical_formula_sum   'Li4 Sc4 Ga4 Ge4 C1 O1'
_cell_volume   1151.29630049
_cell_formula_units_Z   1
loop_
 _symmetry_equiv_pos_site_id
 _symmetry_equiv_pos_as_xyz
  1  'x, y, z'
loop_
 _atom_site_type_symbol
 _atom_site_label
 _atom_site_symmetry_multiplicity
 _atom_site_fract_x
 _atom_site_fract_y
 _atom_site_fract_z
 _atom_site_occupancy
  Li  Li0  1  0.50000000  0.00000000  0.91234000  1.0
  Li  Li1  1  0.93385000  0.99932000  0.02712000  1.0
  Li  Li2  1  0.50000000  0.50000000  0.91234000  1.0
  Li  Li3  1  0.93395000  0.50072000  0.02715000  1.0
  Sc  Sc4  1  0.24630000  0.25000000  0.97078000  1.0
  Sc  Sc5  1  0.67378000  0.24983000  0.09157000  1.0
  Sc  Sc6  1  0.24630000  0.75000000  0.97078000  1.0
  Sc  Sc7  1  0.67936000  0.75006000  0.08993000  1.0
  Ga  Ga8  1  0.00000000  0.00000000  0.91234000  1.0
  Ga  Ga9  1  0.41046000  0.99896000  0.04425000  1.0
  Ga  Ga10  1  0.00000000  0.50000000  0.91234000  1.0
  Ga  Ga11  1  0.41065000  0.50110000  0.04422000  1.0
  Ge  Ge12  1  0.74630000  0.25000000  0.97078000  1.0
  Ge  Ge13  1  0.18442000  0.25001000  0.09090000  1.0
  Ge  Ge14  1  0.74630000  0.75000000  0.97078000  1.0
  Ge  Ge15  1  0.19336000  0.74995000  0.09328000  1.0
  C  C16  1  0.52099000  0.24998000  0.17908000  1.0
  O  O17  1  0.44481000  0.24998000  0.22315000  1.0
