# generated using pymatgen
data_LiAlAg2
_symmetry_space_group_name_H-M   Pmm2
_cell_length_a   4.52921500
_cell_length_b   6.40528000
_cell_length_c   26.79380000
_cell_angle_alpha   90.00000000
_cell_angle_beta   90.00000000
_cell_angle_gamma   90.00000000
_symmetry_Int_Tables_number   25
_chemical_formula_structural   LiAlAg2
_chemical_formula_sum   'Li4 Al4 Ag8'
_cell_volume   777.31199132
_cell_formula_units_Z   4
loop_
 _symmetry_equiv_pos_site_id
 _symmetry_equiv_pos_as_xyz
  1  'x, y, z'
  2  '-x, -y, z'
  3  '-x, y, z'
  4  'x, -y, z'
loop_
 _atom_site_type_symbol
 _atom_site_label
 _atom_site_symmetry_multiplicity
 _atom_site_fract_x
 _atom_site_fract_y
 _atom_site_fract_z
 _atom_site_occupancy
  Li  Li0  1  0.00000000  0.00000000  0.12678000  1.0
  Li  Li1  1  0.00000000  0.00000000  0.96092000  1.0
  Li  Li2  1  0.50000000  0.50000000  0.04226000  1.0
  Li  Li3  1  0.50000000  0.50000000  0.87092000  1.0
  Al  Al4  1  0.00000000  0.50000000  0.12678000  1.0
  Al  Al5  1  0.00000000  0.50000000  0.95591000  1.0
  Al  Al6  1  0.50000000  0.00000000  0.04226000  1.0
  Al  Al7  1  0.50000000  0.00000000  0.87254000  1.0
  Ag  Ag8  2  0.00000000  0.23388000  0.87532000  1.0
  Ag  Ag9  2  0.00000000  0.25000000  0.04226000  1.0
  Ag  Ag10  2  0.50000000  0.25000000  0.12678000  1.0
  Ag  Ag11  2  0.50000000  0.25152000  0.95816000  1.0
