data_image0
_chemical_formula_structural       K12Pd4CO
_chemical_formula_sum              "K12 Pd4 C1 O1"
_cell_length_a       11.0758
_cell_length_b       7.83179
_cell_length_c       25.8738
_cell_angle_alpha    90
_cell_angle_beta     90
_cell_angle_gamma    90

_space_group_name_H-M_alt    "P 1"
_space_group_IT_number       1

loop_
  _space_group_symop_operation_xyz
  'x, y, z'

loop_
  _atom_site_type_symbol
  _atom_site_label
  _atom_site_symmetry_multiplicity
  _atom_site_fract_x
  _atom_site_fract_y
  _atom_site_fract_z
  _atom_site_occupancy
  K   K1        1.0  0.00000  0.50000  0.88649  1.0000
  K   K2        1.0  0.25000  0.75000  0.96216  1.0000
  K   K3        1.0  0.25000  0.25000  0.96216  1.0000
  K   K4        1.0  0.00943  0.99920  0.02864  1.0000
  K   K5        1.0  0.24941  0.45372  0.10308  1.0000
  K   K6        1.0  0.24880  0.91731  0.16684  1.0000
  K   K7        1.0  0.50000  0.50000  0.88649  1.0000
  K   K8        1.0  0.75000  0.75000  0.96216  1.0000
  K   K9        1.0  0.75000  0.25000  0.96216  1.0000
  K   K10       1.0  0.49063  0.99934  0.02906  1.0000
  K   K11       1.0  0.75115  0.26771  0.10812  1.0000
  K   K12       1.0  0.75073  0.72812  0.11287  1.0000
  Pd  Pd1       1.0  0.00000  0.00000  0.88649  1.0000
  Pd  Pd2       1.0  0.98491  0.48577  0.02092  1.0000
  Pd  Pd3       1.0  0.50000  0.00000  0.88649  1.0000
  Pd  Pd4       1.0  0.51526  0.48575  0.02079  1.0000
  C   C1        1.0  0.24744  0.28915  0.23040  1.0000
  O   O1        1.0  0.24668  0.26722  0.27438  1.0000
