# generated using pymatgen
data_K12Pd4CO
_symmetry_space_group_name_H-M   P1
_cell_length_a   7.83179000
_cell_length_b   11.07580000
_cell_length_c   25.87380000
_cell_angle_alpha   90.00000000
_cell_angle_beta   90.00000000
_cell_angle_gamma   90.00000000
_symmetry_Int_Tables_number   1
_chemical_formula_structural   K12Pd4CO
_chemical_formula_sum   'K12 Pd4 C1 O1'
_cell_volume   2244.37982226
_cell_formula_units_Z   1
loop_
 _symmetry_equiv_pos_site_id
 _symmetry_equiv_pos_as_xyz
  1  'x, y, z'
loop_
 _atom_site_type_symbol
 _atom_site_label
 _atom_site_symmetry_multiplicity
 _atom_site_fract_x
 _atom_site_fract_y
 _atom_site_fract_z
 _atom_site_occupancy
  K  K0  1  0.00803000  0.50744000  0.96938000  1.0
  K  K1  1  0.00825000  0.99246000  0.96991000  1.0
  K  K2  1  0.03318000  0.75182000  0.82512000  1.0
  K  K3  1  0.25000000  0.25000000  0.03784000  1.0
  K  K4  1  0.25000000  0.75000000  0.03784000  1.0
  K  K5  1  0.27583000  0.24896000  0.88176000  1.0
  K  K6  1  0.50000000  0.00000000  0.11351000  1.0
  K  K7  1  0.50000000  0.50000000  0.11351000  1.0
  K  K8  1  0.52341000  0.75022000  0.90556000  1.0
  K  K9  1  0.73442000  0.24798000  0.88181000  1.0
  K  K10  1  0.75000000  0.25000000  0.03784000  1.0
  K  K11  1  0.75000000  0.75000000  0.03784000  1.0
  Pd  Pd12  1  0.00000000  0.00000000  0.11351000  1.0
  Pd  Pd13  1  0.00000000  0.50000000  0.11351000  1.0
  Pd  Pd14  1  0.50011000  0.48925000  0.98148000  1.0
  Pd  Pd15  1  0.50021000  0.01130000  0.98128000  1.0
  C  C16  1  0.60178000  0.75193000  0.79067000  1.0
  O  O17  1  0.61085000  0.75233000  0.74599000  1.0
