# generated using pymatgen
data_Li8Mg8Al8Pd8C
_symmetry_space_group_name_H-M   'P 1'
_cell_length_a   8.88310000
_cell_length_b   6.28130000
_cell_length_c   26.66230000
_cell_angle_alpha   90.00000000
_cell_angle_beta   90.00000000
_cell_angle_gamma   90.00000000
_symmetry_Int_Tables_number   1
_chemical_formula_structural   Li8Mg8Al8Pd8C
_chemical_formula_sum   'Li8 Mg8 Al8 Pd8 C1'
_cell_volume   1487.68744542
_cell_formula_units_Z   1
loop_
 _symmetry_equiv_pos_site_id
 _symmetry_equiv_pos_as_xyz
  1  'x, y, z'
loop_
 _atom_site_type_symbol
 _atom_site_label
 _atom_site_symmetry_multiplicity
 _atom_site_fract_x
 _atom_site_fract_y
 _atom_site_fract_z
 _atom_site_occupancy
  Li  Li0  1  0.75000000  0.25000000  0.04165000  1.0
  Li  Li1  1  0.25000000  0.25000000  0.04165000  1.0
  Li  Li2  1  0.00000000  0.75000000  0.12494000  1.0
  Li  Li3  1  0.50000000  0.75000000  0.12494000  1.0
  Li  Li4  1  0.23140000  0.27835000  0.85587000  1.0
  Li  Li5  1  0.76860000  0.27835000  0.85587000  1.0
  Li  Li6  1  0.50000000  0.75453000  0.95886000  1.0
  Li  Li7  1  0.00000000  0.76569000  0.95939000  1.0
  Mg  Mg8  1  0.00000000  0.00000000  0.04165000  1.0
  Mg  Mg9  1  0.50000000  0.00000000  0.04165000  1.0
  Mg  Mg10  1  0.25000000  0.50000000  0.12494000  1.0
  Mg  Mg11  1  0.75000000  0.50000000  0.12494000  1.0
  Mg  Mg12  1  0.50000000  0.00488000  0.87080000  1.0
  Mg  Mg13  1  0.00000000  0.95906000  0.86261000  1.0
  Mg  Mg14  1  0.75157000  0.48907000  0.95935000  1.0
  Mg  Mg15  1  0.24843000  0.48907000  0.95935000  1.0
  Al  Al16  1  0.75000000  0.00000000  0.12494000  1.0
  Al  Al17  1  0.25000000  0.00000000  0.12494000  1.0
  Al  Al18  1  0.50000000  0.50000000  0.04165000  1.0
  Al  Al19  1  0.00000000  0.50000000  0.04165000  1.0
  Al  Al20  1  0.24970000  0.00614000  0.95663000  1.0
  Al  Al21  1  0.75030000  0.00614000  0.95663000  1.0
  Al  Al22  1  0.00000000  0.53889000  0.87878000  1.0
  Al  Al23  1  0.50000000  0.50655000  0.87728000  1.0
  Pd  Pd24  1  0.75000000  0.75000000  0.04165000  1.0
  Pd  Pd25  1  0.25000000  0.75000000  0.04165000  1.0
  Pd  Pd26  1  0.00000000  0.25000000  0.12494000  1.0
  Pd  Pd27  1  0.50000000  0.25000000  0.12494000  1.0
  Pd  Pd28  1  0.26056000  0.74258000  0.88285000  1.0
  Pd  Pd29  1  0.73944000  0.74258000  0.88285000  1.0
  Pd  Pd30  1  0.50000000  0.24550000  0.95805000  1.0
  Pd  Pd31  1  0.00000000  0.24032000  0.95644000  1.0
  C  C32  1  0.00000000  0.27348000  0.84954000  1.0
