data_image0
_chemical_formula_structural       Y4Mg4In4Pd4CO
_chemical_formula_sum              "Y4 Mg4 In4 Pd4 C1 O1"
_cell_length_a       6.99626
_cell_length_b       6.99626
_cell_length_c       25.2472
_cell_angle_alpha    90
_cell_angle_beta     90
_cell_angle_gamma    90

_space_group_name_H-M_alt    "P 1"
_space_group_IT_number       1

loop_
  _space_group_symop_operation_xyz
  'x, y, z'

loop_
  _atom_site_type_symbol
  _atom_site_label
  _atom_site_symmetry_multiplicity
  _atom_site_fract_x
  _atom_site_fract_y
  _atom_site_fract_z
  _atom_site_occupancy
  Y   Y1        1.0  0.75000  0.25000  0.96536  1.0000
  Y   Y2        1.0  0.75000  0.75000  0.11663  1.0000
  Y   Y3        1.0  0.25000  0.25000  0.10026  1.0000
  Y   Y4        1.0  0.25000  0.75000  0.96536  1.0000
  Mg  Mg1       1.0  0.25000  0.25000  0.96536  1.0000
  Mg  Mg2       1.0  0.25000  0.75000  0.10501  1.0000
  Mg  Mg3       1.0  0.75000  0.25000  0.10502  1.0000
  Mg  Mg4       1.0  0.75000  0.75000  0.96536  1.0000
  In  In1       1.0  0.00000  0.00000  0.89608  1.0000
  In  In2       1.0  0.98460  0.51540  0.04084  1.0000
  In  In3       1.0  0.51541  0.98460  0.04084  1.0000
  In  In4       1.0  0.50000  0.50000  0.89608  1.0000
  Pd  Pd1       1.0  0.00000  0.50000  0.89608  1.0000
  Pd  Pd2       1.0  0.97510  0.97510  0.04127  1.0000
  Pd  Pd3       1.0  0.52490  0.52490  0.04127  1.0000
  Pd  Pd4       1.0  0.50000  0.00000  0.89608  1.0000
  C   C1        1.0  0.25000  0.25000  0.19808  1.0000
  O   O1        1.0  0.25000  0.25000  0.24377  1.0000
