data_image0
_chemical_formula_structural       Li4Y4In4Pb4CO
_chemical_formula_sum              "Li4 Y4 In4 Pb4 C1 O1"
_cell_length_a       6.51578
_cell_length_b       9.32892
_cell_length_c       24.8817
_cell_angle_alpha    90
_cell_angle_beta     90
_cell_angle_gamma    90

_space_group_name_H-M_alt    "P 1"
_space_group_IT_number       1

loop_
  _space_group_symop_operation_xyz
  'x, y, z'

loop_
  _atom_site_type_symbol
  _atom_site_label
  _atom_site_symmetry_multiplicity
  _atom_site_fract_x
  _atom_site_fract_y
  _atom_site_fract_z
  _atom_site_occupancy
  Li  Li1       1.0  0.23855  0.25000  0.96730  1.0000
  Li  Li2       1.0  0.64227  0.25000  0.10353  1.0000
  Li  Li3       1.0  0.23855  0.75000  0.96730  1.0000
  Li  Li4       1.0  0.64214  0.75000  0.09959  1.0000
  Y   Y1        1.0  0.50000  0.00000  0.90190  1.0000
  Y   Y2        1.0  0.93811  0.99977  0.03623  1.0000
  Y   Y3        1.0  0.50000  0.50000  0.90190  1.0000
  Y   Y4        1.0  0.93810  0.50023  0.03623  1.0000
  In  In1       1.0  0.00000  0.00000  0.90190  1.0000
  In  In2       1.0  0.42955  0.00075  0.04093  1.0000
  In  In3       1.0  0.00000  0.50000  0.90190  1.0000
  In  In4       1.0  0.42954  0.49925  0.04093  1.0000
  Pb  Pb1       1.0  0.73855  0.25000  0.96730  1.0000
  Pb  Pb2       1.0  0.17913  0.25000  0.09874  1.0000
  Pb  Pb3       1.0  0.73855  0.75000  0.96730  1.0000
  Pb  Pb4       1.0  0.17884  0.75000  0.09979  1.0000
  C   C1        1.0  0.69243  0.25000  0.18729  1.0000
  O   O1        1.0  0.71816  0.25001  0.23259  1.0000
