# generated using pymatgen
data_Li4Y4In4Pb4CO
_symmetry_space_group_name_H-M   'P 1'
_cell_length_a   9.32892000
_cell_length_b   6.51578000
_cell_length_c   24.88170000
_cell_angle_alpha   90.00000000
_cell_angle_beta   90.00000000
_cell_angle_gamma   90.00000000
_symmetry_Int_Tables_number   1
_chemical_formula_structural   Li4Y4In4Pb4CO
_chemical_formula_sum   'Li4 Y4 In4 Pb4 C1 O1'
_cell_volume   1512.43887092
_cell_formula_units_Z   1
loop_
 _symmetry_equiv_pos_site_id
 _symmetry_equiv_pos_as_xyz
  1  'x, y, z'
loop_
 _atom_site_type_symbol
 _atom_site_label
 _atom_site_symmetry_multiplicity
 _atom_site_fract_x
 _atom_site_fract_y
 _atom_site_fract_z
 _atom_site_occupancy
  Li  Li0  1  0.00000000  0.23855000  0.03270000  1.0
  Li  Li1  1  0.00000000  0.64227000  0.89647000  1.0
  Li  Li2  1  0.50000000  0.23855000  0.03270000  1.0
  Li  Li3  1  0.50000000  0.64214000  0.90041000  1.0
  Y  Y4  1  0.75000000  0.50000000  0.09810000  1.0
  Y  Y5  1  0.74977000  0.93811000  0.96377000  1.0
  Y  Y6  1  0.25000000  0.50000000  0.09810000  1.0
  Y  Y7  1  0.25023000  0.93811000  0.96377000  1.0
  In  In8  1  0.75000000  0.00000000  0.09810000  1.0
  In  In9  1  0.75075000  0.42955000  0.95907000  1.0
  In  In10  1  0.25000000  0.00000000  0.09810000  1.0
  In  In11  1  0.24925000  0.42955000  0.95907000  1.0
  Pb  Pb12  1  0.00000000  0.73855000  0.03270000  1.0
  Pb  Pb13  1  0.00000000  0.17913000  0.90126000  1.0
  Pb  Pb14  1  0.50000000  0.73855000  0.03270000  1.0
  Pb  Pb15  1  0.50000000  0.17884000  0.90021000  1.0
  C  C16  1  0.00000000  0.69243000  0.81271000  1.0
  O  O17  1  0.00000000  0.71816000  0.76741000  1.0
