# generated using pymatgen
data_Li4Y4In4Pb4CO
_symmetry_space_group_name_H-M   Pm
_cell_length_a   6.51578000
_cell_length_b   9.32892000
_cell_length_c   24.88170000
_cell_angle_alpha   90.00000000
_cell_angle_beta   90.00000000
_cell_angle_gamma   90.00000000
_symmetry_Int_Tables_number   6
_chemical_formula_structural   Li4Y4In4Pb4CO
_chemical_formula_sum   'Li4 Y4 In4 Pb4 C1 O1'
_cell_volume   1512.43887092
_cell_formula_units_Z   1
loop_
 _symmetry_equiv_pos_site_id
 _symmetry_equiv_pos_as_xyz
  1  'x, y, z'
  2  'x, -y, z'
loop_
 _atom_site_type_symbol
 _atom_site_label
 _atom_site_symmetry_multiplicity
 _atom_site_fract_x
 _atom_site_fract_y
 _atom_site_fract_z
 _atom_site_occupancy
  Li  Li0  1  0.23855000  0.00000000  0.96730000  1.0
  Li  Li1  1  0.23855000  0.50000000  0.96730000  1.0
  Li  Li2  1  0.64214000  0.50000000  0.09959000  1.0
  Li  Li3  1  0.64227000  0.00000000  0.10353000  1.0
  Y  Y4  2  0.50000000  0.25000000  0.90190000  1.0
  Y  Y5  2  0.93811000  0.25023000  0.03623000  1.0
  In  In6  2  0.00000000  0.25000000  0.90190000  1.0
  In  In7  2  0.42955000  0.24925000  0.04093000  1.0
  Pb  Pb8  1  0.17884000  0.50000000  0.09979000  1.0
  Pb  Pb9  1  0.17913000  0.00000000  0.09874000  1.0
  Pb  Pb10  1  0.73855000  0.00000000  0.96730000  1.0
  Pb  Pb11  1  0.73855000  0.50000000  0.96730000  1.0
  C  C12  1  0.69243000  0.00000000  0.18729000  1.0
  O  O13  1  0.71816000  0.00000000  0.23259000  1.0
