# generated using pymatgen
data_Y8In8Cu16C
_symmetry_space_group_name_H-M   'P 1'
_cell_length_a   6.69979000
_cell_length_b   9.47494000
_cell_length_c   27.10620000
_cell_angle_alpha   90.00000000
_cell_angle_beta   90.00000000
_cell_angle_gamma   90.00000000
_symmetry_Int_Tables_number   1
_chemical_formula_structural   Y8In8Cu16C
_chemical_formula_sum   'Y8 In8 Cu16 C1'
_cell_volume   1720.70451059
_cell_formula_units_Z   1
loop_
 _symmetry_equiv_pos_site_id
 _symmetry_equiv_pos_as_xyz
  1  'x, y, z'
loop_
 _atom_site_type_symbol
 _atom_site_label
 _atom_site_symmetry_multiplicity
 _atom_site_fract_x
 _atom_site_fract_y
 _atom_site_fract_z
 _atom_site_occupancy
  Y  Y0  1  0.00000000  0.00000000  0.86892000  1.0
  Y  Y1  1  0.50000000  0.25000000  0.95631000  1.0
  Y  Y2  1  0.50000000  0.75000000  0.95631000  1.0
  Y  Y3  1  0.00000000  0.50000000  0.86892000  1.0
  Y  Y4  1  0.00000000  0.50000000  0.04188000  1.0
  Y  Y5  1  0.50000000  0.75569000  0.13487000  1.0
  Y  Y6  1  0.50000000  0.24431000  0.13487000  1.0
  Y  Y7  1  0.00000000  0.00000000  0.04405000  1.0
  In  In8  1  0.00000000  0.75000000  0.95631000  1.0
  In  In9  1  0.50000000  0.00000000  0.86892000  1.0
  In  In10  1  0.00000000  0.25000000  0.95631000  1.0
  In  In11  1  0.50000000  0.50000000  0.86892000  1.0
  In  In12  1  0.00000000  0.25219000  0.12935000  1.0
  In  In13  1  0.50000000  0.50000000  0.04388000  1.0
  In  In14  1  0.00000000  0.74781000  0.12935000  1.0
  In  In15  1  0.50000000  0.00000000  0.04628000  1.0
  Cu  Cu16  1  0.25000000  0.00000000  0.95631000  1.0
  Cu  Cu17  1  0.75000000  0.50000000  0.95631000  1.0
  Cu  Cu18  1  0.75000000  0.00000000  0.95631000  1.0
  Cu  Cu19  1  0.25000000  0.50000000  0.95631000  1.0
  Cu  Cu20  1  0.75000000  0.75000000  0.86892000  1.0
  Cu  Cu21  1  0.25000000  0.25000000  0.86892000  1.0
  Cu  Cu22  1  0.25000000  0.75000000  0.86892000  1.0
  Cu  Cu23  1  0.75000000  0.25000000  0.86892000  1.0
  Cu  Cu24  1  0.23105000  0.50000000  0.12928000  1.0
  Cu  Cu25  1  0.79481000  0.00000000  0.13847000  1.0
  Cu  Cu26  1  0.76895000  0.50000000  0.12928000  1.0
  Cu  Cu27  1  0.20519000  0.00000000  0.13847000  1.0
  Cu  Cu28  1  0.73928000  0.25236000  0.04448000  1.0
  Cu  Cu29  1  0.26072000  0.74764000  0.04448000  1.0
  Cu  Cu30  1  0.26072000  0.25236000  0.04448000  1.0
  Cu  Cu31  1  0.73928000  0.74764000  0.04448000  1.0
  C  C32  1  0.50000000  0.00000000  0.14047000  1.0
