data_image0
_chemical_formula_structural       Y4In4Cu8Y4In4Cu8C
_chemical_formula_sum              "Y8 In8 Cu16 C1"
_cell_length_a       6.69979
_cell_length_b       9.47494
_cell_length_c       27.1062
_cell_angle_alpha    90
_cell_angle_beta     90
_cell_angle_gamma    90

_space_group_name_H-M_alt    "P 1"
_space_group_IT_number       1

loop_
  _space_group_symop_operation_xyz
  'x, y, z'

loop_
  _atom_site_type_symbol
  _atom_site_label
  _atom_site_symmetry_multiplicity
  _atom_site_fract_x
  _atom_site_fract_y
  _atom_site_fract_z
  _atom_site_occupancy
  Y   Y1        1.0  0.00000  0.00000  0.86892  1.0000
  Y   Y2        1.0  0.50000  0.25000  0.95631  1.0000
  Y   Y3        1.0  0.50000  0.75000  0.95631  1.0000
  Y   Y4        1.0  0.00000  0.50000  0.86892  1.0000
  In  In1       1.0  0.00000  0.75000  0.95631  1.0000
  In  In2       1.0  0.50000  0.00000  0.86892  1.0000
  In  In3       1.0  0.00000  0.25000  0.95631  1.0000
  In  In4       1.0  0.50000  0.50000  0.86892  1.0000
  Cu  Cu1       1.0  0.25000  0.00000  0.95631  1.0000
  Cu  Cu2       1.0  0.75000  0.50000  0.95631  1.0000
  Cu  Cu3       1.0  0.75000  0.00000  0.95631  1.0000
  Cu  Cu4       1.0  0.25000  0.50000  0.95631  1.0000
  Cu  Cu5       1.0  0.75000  0.75000  0.86892  1.0000
  Cu  Cu6       1.0  0.25000  0.25000  0.86892  1.0000
  Cu  Cu7       1.0  0.25000  0.75000  0.86892  1.0000
  Cu  Cu8       1.0  0.75000  0.25000  0.86892  1.0000
  Y   Y5        1.0  0.00000  0.50000  0.04369  1.0000
  Y   Y6        1.0  0.50000  0.75000  0.13108  1.0000
  Y   Y7        1.0  0.50000  0.25000  0.13108  1.0000
  Y   Y8        1.0  0.00000  0.00000  0.04369  1.0000
  In  In5       1.0  0.00000  0.25000  0.13108  1.0000
  In  In6       1.0  0.50000  0.50000  0.04369  1.0000
  In  In7       1.0  0.00000  0.75000  0.13108  1.0000
  In  In8       1.0  0.50000  0.00000  0.04369  1.0000
  Cu  Cu9       1.0  0.25000  0.50000  0.13108  1.0000
  Cu  Cu10      1.0  0.75000  0.00000  0.13108  1.0000
  Cu  Cu11      1.0  0.75000  0.50000  0.13108  1.0000
  Cu  Cu12      1.0  0.25000  0.00000  0.13108  1.0000
  Cu  Cu13      1.0  0.75000  0.25000  0.04369  1.0000
  Cu  Cu14      1.0  0.25000  0.75000  0.04369  1.0000
  Cu  Cu15      1.0  0.25000  0.25000  0.04369  1.0000
  Cu  Cu16      1.0  0.75000  0.75000  0.04369  1.0000
  C   C1        1.0  0.50000  0.00000  0.16059  1.0000
