# generated using pymatgen
data_LiMgInGe
_symmetry_space_group_name_H-M   'P 1'
_cell_length_a   6.07136000
_cell_length_b   4.20496000
_cell_length_c   24.55010000
_cell_angle_alpha   90.00000000
_cell_angle_beta   90.00000000
_cell_angle_gamma   90.00000000
_symmetry_Int_Tables_number   1
_chemical_formula_structural   LiMgInGe
_chemical_formula_sum   'Li2 Mg2 In2 Ge2'
_cell_volume   626.75977995
_cell_formula_units_Z   2
loop_
 _symmetry_equiv_pos_site_id
 _symmetry_equiv_pos_as_xyz
  1  'x, y, z'
loop_
 _atom_site_type_symbol
 _atom_site_label
 _atom_site_symmetry_multiplicity
 _atom_site_fract_x
 _atom_site_fract_y
 _atom_site_fract_z
 _atom_site_occupancy
  Li  Li0  1  0.25967000  0.50000000  0.96911000  1.0
  Li  Li1  1  0.78661000  0.50000000  0.08995500  1.0
  Mg  Mg2  1  0.75967000  0.50000000  0.96911000  1.0
  Mg  Mg3  1  0.31198500  0.50000000  0.08794500  1.0
  In  In4  1  0.50000000  0.00000000  0.90733000  1.0
  In  In5  1  0.03105500  0.00000000  0.03035000  1.0
  Ge  Ge6  1  0.00000000  0.00000000  0.90733000  1.0
  Ge  Ge7  1  0.54615500  0.00000000  0.04156500  1.0
