# generated using pymatgen
data_Li8Sc8Al8In8C
_symmetry_space_group_name_H-M   Pmm2
_cell_length_a   8.37392000
_cell_length_b   8.71362000
_cell_length_c   26.36940000
_cell_angle_alpha   90.00000000
_cell_angle_beta   90.00000000
_cell_angle_gamma   90.00000000
_symmetry_Int_Tables_number   25
_chemical_formula_structural   Li8Sc8Al8In8C
_chemical_formula_sum   'Li8 Sc8 Al8 In8 C1'
_cell_volume   1924.10014427
_cell_formula_units_Z   1
loop_
 _symmetry_equiv_pos_site_id
 _symmetry_equiv_pos_as_xyz
  1  'x, y, z'
  2  '-x, -y, z'
  3  '-x, y, z'
  4  'x, -y, z'
loop_
 _atom_site_type_symbol
 _atom_site_label
 _atom_site_symmetry_multiplicity
 _atom_site_fract_x
 _atom_site_fract_y
 _atom_site_fract_z
 _atom_site_occupancy
  Li  Li0  2  0.00000000  0.25000000  0.04026000  1.0
  Li  Li1  2  0.00000000  0.25000000  0.87923000  1.0
  Li  Li2  2  0.50000000  0.25000000  0.04026000  1.0
  Li  Li3  2  0.50000000  0.25000000  0.87923000  1.0
  Sc  Sc4  2  0.25000000  0.00000000  0.04026000  1.0
  Sc  Sc5  2  0.25000000  0.00000000  0.87923000  1.0
  Sc  Sc6  2  0.25000000  0.50000000  0.04026000  1.0
  Sc  Sc7  2  0.25000000  0.50000000  0.87923000  1.0
  Al  Al8  1  0.00000000  0.00000000  0.12077000  1.0
  Al  Al9  1  0.00000000  0.00000000  0.95974000  1.0
  Al  Al10  1  0.00000000  0.50000000  0.12077000  1.0
  Al  Al11  1  0.00000000  0.50000000  0.95974000  1.0
  Al  Al12  1  0.50000000  0.00000000  0.12077000  1.0
  Al  Al13  1  0.50000000  0.00000000  0.95974000  1.0
  Al  Al14  1  0.50000000  0.50000000  0.12077000  1.0
  Al  Al15  1  0.50000000  0.50000000  0.95974000  1.0
  In  In16  4  0.25000000  0.25000000  0.12077000  1.0
  In  In17  4  0.25000000  0.25000000  0.95974000  1.0
  C  C18  1  0.00000000  0.00000000  0.84889000  1.0
