# generated using pymatgen
data_Cu16Ni8Sn8C
_symmetry_space_group_name_H-M   Pm
_cell_length_a   8.69561000
_cell_length_b   6.14873000
_cell_length_c   26.52170000
_cell_angle_alpha   90.00000000
_cell_angle_beta   90.00000000
_cell_angle_gamma   90.00000000
_symmetry_Int_Tables_number   6
_chemical_formula_structural   Cu16Ni8Sn8C
_chemical_formula_sum   'Cu16 Ni8 Sn8 C1'
_cell_volume   1418.03462199
_cell_formula_units_Z   1
loop_
 _symmetry_equiv_pos_site_id
 _symmetry_equiv_pos_as_xyz
  1  'x, y, z'
  2  'x, -y, z'
loop_
 _atom_site_type_symbol
 _atom_site_label
 _atom_site_symmetry_multiplicity
 _atom_site_fract_x
 _atom_site_fract_y
 _atom_site_fract_z
 _atom_site_occupancy
  Cu  Cu0  2  0.00000000  0.25000000  0.95902000  1.0
  Cu  Cu1  2  0.00005000  0.30607000  0.13121000  1.0
  Cu  Cu2  2  0.25000000  0.25000000  0.87705000  1.0
  Cu  Cu3  2  0.25210000  0.22092000  0.04524000  1.0
  Cu  Cu4  2  0.50000000  0.25000000  0.95902000  1.0
  Cu  Cu5  2  0.50013000  0.27581000  0.12165000  1.0
  Cu  Cu6  2  0.74790000  0.22092000  0.04524000  1.0
  Cu  Cu7  2  0.75000000  0.25000000  0.87705000  1.0
  Ni  Ni8  1  0.00000000  0.00000000  0.87705000  1.0
  Ni  Ni9  1  0.00001000  0.00000000  0.05213000  1.0
  Ni  Ni10  1  0.25000000  0.50000000  0.95902000  1.0
  Ni  Ni11  1  0.25525000  0.50000000  0.11333000  1.0
  Ni  Ni12  1  0.50000000  0.00000000  0.87705000  1.0
  Ni  Ni13  1  0.50001000  0.00000000  0.03933000  1.0
  Ni  Ni14  1  0.74482000  0.50000000  0.11329000  1.0
  Ni  Ni15  1  0.75000000  0.50000000  0.95902000  1.0
  Sn  Sn16  1  0.00000000  0.50000000  0.87705000  1.0
  Sn  Sn17  1  0.00001000  0.50000000  0.04015000  1.0
  Sn  Sn18  1  0.25000000  0.00000000  0.95902000  1.0
  Sn  Sn19  1  0.25932000  0.00000000  0.14120000  1.0
  Sn  Sn20  1  0.49996000  0.50000000  0.03795000  1.0
  Sn  Sn21  1  0.50000000  0.50000000  0.87705000  1.0
  Sn  Sn22  1  0.74076000  0.00000000  0.14121000  1.0
  Sn  Sn23  1  0.75000000  0.00000000  0.95902000  1.0
  C  C24  1  0.00003000  0.00000000  0.12281000  1.0
