# generated using pymatgen
data_Li4Mg4In4Ge4CO
_symmetry_space_group_name_H-M   Pm
_cell_length_a   5.94975000
_cell_length_b   8.75068000
_cell_length_c   24.46230000
_cell_angle_alpha   90.00000000
_cell_angle_beta   90.00000000
_cell_angle_gamma   90.00000000
_symmetry_Int_Tables_number   6
_chemical_formula_structural   Li4Mg4In4Ge4CO
_chemical_formula_sum   'Li4 Mg4 In4 Ge4 C1 O1'
_cell_volume   1273.61395278
_cell_formula_units_Z   1
loop_
 _symmetry_equiv_pos_site_id
 _symmetry_equiv_pos_as_xyz
  1  'x, y, z'
  2  'x, -y, z'
loop_
 _atom_site_type_symbol
 _atom_site_label
 _atom_site_symmetry_multiplicity
 _atom_site_fract_x
 _atom_site_fract_y
 _atom_site_fract_z
 _atom_site_occupancy
  Li  Li0  1  0.27200000  0.00000000  0.09655000  1.0
  Li  Li1  1  0.27392000  0.50000000  0.09514000  1.0
  Li  Li2  1  0.75025000  0.00000000  0.96960000  1.0
  Li  Li3  1  0.75025000  0.50000000  0.96960000  1.0
  Mg  Mg4  2  0.00198000  0.25304000  0.02955000  1.0
  Mg  Mg5  2  0.50000000  0.25000000  0.90879000  1.0
  In  In6  1  0.25025000  0.00000000  0.96960000  1.0
  In  In7  1  0.25025000  0.50000000  0.96960000  1.0
  In  In8  1  0.75542000  0.00000000  0.09802000  1.0
  In  In9  1  0.76460000  0.50000000  0.10320000  1.0
  Ge  Ge10  2  0.00000000  0.25000000  0.90879000  1.0
  Ge  Ge11  2  0.50836000  0.25554000  0.04710000  1.0
  C  C12  1  0.25627000  0.00000000  0.18173000  1.0
  O  O13  1  0.25003000  0.00000000  0.22838000  1.0
