# generated using pymatgen
data_Li16Bi8Au8C
_symmetry_space_group_name_H-M   Pm
_cell_length_a   6.87958000
_cell_length_b   9.72919000
_cell_length_c   27.29690000
_cell_angle_alpha   90.00000000
_cell_angle_beta   90.00000000
_cell_angle_gamma   90.00000000
_symmetry_Int_Tables_number   6
_chemical_formula_structural   Li16Bi8Au8C
_chemical_formula_sum   'Li16 Bi8 Au8 C1'
_cell_volume   1827.05633617
_cell_formula_units_Z   1
loop_
 _symmetry_equiv_pos_site_id
 _symmetry_equiv_pos_as_xyz
  1  'x, y, z'
  2  'x, -y, z'
loop_
 _atom_site_type_symbol
 _atom_site_label
 _atom_site_symmetry_multiplicity
 _atom_site_fract_x
 _atom_site_fract_y
 _atom_site_fract_z
 _atom_site_occupancy
  Li  Li0  2  -0.00000000  0.25001000  0.95545000  1.0
  Li  Li1  2  0.00570000  0.24487000  0.12403000  1.0
  Li  Li2  2  0.25000000  0.24999000  0.86634000  1.0
  Li  Li3  2  0.29570000  0.26431000  0.05255000  1.0
  Li  Li4  1  0.48847000  0.00000000  0.03463000  1.0
  Li  Li5  1  0.50000000  0.00000000  0.86634000  1.0
  Li  Li6  1  0.50000000  0.50000000  0.86634000  1.0
  Li  Li7  1  0.57150000  0.50000000  0.08021000  1.0
  Li  Li8  1  0.70837000  0.00000000  0.11682000  1.0
  Li  Li9  1  0.75000000  0.00000000  0.95545000  1.0
  Li  Li10  1  0.75000000  0.50000000  0.95545000  1.0
  Li  Li11  1  0.78607000  0.50000000  0.17540000  1.0
  Bi  Bi12  2  0.50000000  0.24999000  0.95545000  1.0
  Bi  Bi13  2  0.53638000  0.25724000  0.15071000  1.0
  Bi  Bi14  1  -0.00000000  0.00000000  0.86634000  1.0
  Bi  Bi15  1  0.00000000  0.50000000  0.86634000  1.0
  Bi  Bi16  1  0.00228000  0.00000000  0.04377000  1.0
  Bi  Bi17  1  0.98069000  0.50000000  0.04699000  1.0
  Au  Au18  2  0.71284000  0.23725000  0.05040000  1.0
  Au  Au19  2  0.75000000  0.25001000  0.86634000  1.0
  Au  Au20  1  0.21404000  0.50000000  0.13226000  1.0
  Au  Au21  1  0.25000000  0.00000000  0.95545000  1.0
  Au  Au22  1  0.25000000  0.50000000  0.95545000  1.0
  Au  Au23  1  0.29682000  0.00000000  0.12002000  1.0
  C  C24  1  0.48417000  0.50000000  0.16686000  1.0
