# generated using pymatgen
data_Li24Sb8CO
_symmetry_space_group_name_H-M   Pm
_cell_length_a   6.56971000
_cell_length_b   9.29097000
_cell_length_c   26.96820000
_cell_angle_alpha   90.00000000
_cell_angle_beta   90.00000000
_cell_angle_gamma   90.00000000
_symmetry_Int_Tables_number   6
_chemical_formula_structural   Li24Sb8CO
_chemical_formula_sum   'Li24 Sb8 C1 O1'
_cell_volume   1646.11138049
_cell_formula_units_Z   1
loop_
 _symmetry_equiv_pos_site_id
 _symmetry_equiv_pos_as_xyz
  1  'x, y, z'
  2  'x, -y, z'
loop_
 _atom_site_type_symbol
 _atom_site_label
 _atom_site_symmetry_multiplicity
 _atom_site_fract_x
 _atom_site_fract_y
 _atom_site_fract_z
 _atom_site_occupancy
  Li  Li0  2  0.00000000  0.25000000  0.95694000  1.0
  Li  Li1  2  0.25000000  0.25000000  0.87081000  1.0
  Li  Li2  2  0.25659000  0.25086000  0.04189000  1.0
  Li  Li3  2  0.74350000  0.24860000  0.04132000  1.0
  Li  Li4  2  0.75000000  0.25000000  0.87081000  1.0
  Li  Li5  2  0.99402000  0.25009000  0.11771000  1.0
  Li  Li6  1  0.25000000  0.00000000  0.95694000  1.0
  Li  Li7  1  0.25000000  0.50000000  0.95694000  1.0
  Li  Li8  1  0.27340000  0.00000000  0.13501000  1.0
  Li  Li9  1  0.28275000  0.50000000  0.13041000  1.0
  Li  Li10  1  0.48882000  0.00000000  0.04718000  1.0
  Li  Li11  1  0.50000000  0.00000000  0.87081000  1.0
  Li  Li12  1  0.50000000  0.50000000  0.87081000  1.0
  Li  Li13  1  0.50495000  0.50000000  0.04433000  1.0
  Li  Li14  1  0.71879000  0.00000000  0.13007000  1.0
  Li  Li15  1  0.71970000  0.50000000  0.13066000  1.0
  Li  Li16  1  0.75000000  0.00000000  0.95694000  1.0
  Li  Li17  1  0.75000000  0.50000000  0.95694000  1.0
  Sb  Sb18  2  0.50000000  0.25000000  0.95694000  1.0
  Sb  Sb19  2  0.50333000  0.25058000  0.12747000  1.0
  Sb  Sb20  1  0.00000000  0.00000000  0.87081000  1.0
  Sb  Sb21  1  0.00000000  0.50000000  0.87081000  1.0
  Sb  Sb22  1  0.00007000  0.50000000  0.04796000  1.0
  Sb  Sb23  1  0.00321000  0.00000000  0.04768000  1.0
  C  C24  1  0.21465000  0.00000000  0.21217000  1.0
  O  O25  1  0.22392000  0.00000000  0.25437000  1.0
