# generated using pymatgen
data_Sc4Al4In4Pd4C
_symmetry_space_group_name_H-M   'P 1'
_cell_length_a   8.33700000
_cell_length_b   5.97945000
_cell_length_c   24.48170000
_cell_angle_alpha   90.00000000
_cell_angle_beta   90.00000000
_cell_angle_gamma   90.00000000
_symmetry_Int_Tables_number   1
_chemical_formula_structural   Sc4Al4In4Pd4C
_chemical_formula_sum   'Sc4 Al4 In4 Pd4 C1'
_cell_volume   1220.42926158
_cell_formula_units_Z   1
loop_
 _symmetry_equiv_pos_site_id
 _symmetry_equiv_pos_as_xyz
  1  'x, y, z'
loop_
 _atom_site_type_symbol
 _atom_site_label
 _atom_site_symmetry_multiplicity
 _atom_site_fract_x
 _atom_site_fract_y
 _atom_site_fract_z
 _atom_site_occupancy
  Sc  Sc0  1  0.50000000  0.50000000  0.09153000  1.0
  Sc  Sc1  1  0.50000000  0.98434000  0.95955000  1.0
  Sc  Sc2  1  0.00000000  0.50000000  0.09153000  1.0
  Sc  Sc3  1  0.00000000  0.98609000  0.96190000  1.0
  Al  Al4  1  0.50000000  0.00000000  0.09153000  1.0
  Al  Al5  1  0.50000000  0.49188000  0.96864000  1.0
  Al  Al6  1  0.00000000  0.00000000  0.09153000  1.0
  Al  Al7  1  0.00000000  0.49143000  0.96529000  1.0
  In  In8  1  0.75001000  0.24098000  0.03051000  1.0
  In  In9  1  0.76235000  0.74295000  0.89102000  1.0
  In  In10  1  0.24999000  0.24098000  0.03051000  1.0
  In  In11  1  0.23765000  0.74295000  0.89102000  1.0
  Pd  Pd12  1  0.75001000  0.74098000  0.03051000  1.0
  Pd  Pd13  1  0.76381000  0.25622000  0.91775000  1.0
  Pd  Pd14  1  0.24999000  0.74098000  0.03051000  1.0
  Pd  Pd15  1  0.23619000  0.25622000  0.91775000  1.0
  C  C16  1  0.50000000  0.70367000  0.90805000  1.0
