# generated using pymatgen
data_Sc8Ga8Ge8Pd8CO
_symmetry_space_group_name_H-M   P1
_cell_length_a   7.83718000
_cell_length_b   8.08666000
_cell_length_c   26.43810000
_cell_angle_alpha   90.00000000
_cell_angle_beta   90.00000000
_cell_angle_gamma   90.00000000
_symmetry_Int_Tables_number   1
_chemical_formula_structural   Sc8Ga8Ge8Pd8CO
_chemical_formula_sum   'Sc8 Ga8 Ge8 Pd8 C1 O1'
_cell_volume   1675.55715334
_cell_formula_units_Z   1
loop_
 _symmetry_equiv_pos_site_id
 _symmetry_equiv_pos_as_xyz
  1  'x, y, z'
loop_
 _atom_site_type_symbol
 _atom_site_label
 _atom_site_symmetry_multiplicity
 _atom_site_fract_x
 _atom_site_fract_y
 _atom_site_fract_z
 _atom_site_occupancy
  Sc  Sc0  1  0.00000000  0.25000000  0.87824000  1.0
  Sc  Sc1  1  0.00000000  0.75000000  0.87824000  1.0
  Sc  Sc2  1  0.00005000  0.25034000  0.04474000  1.0
  Sc  Sc3  1  0.00008000  0.74962000  0.04474000  1.0
  Sc  Sc4  1  0.50000000  0.25000000  0.87824000  1.0
  Sc  Sc5  1  0.50000000  0.75000000  0.87824000  1.0
  Sc  Sc6  1  0.50005000  0.75036000  0.04468000  1.0
  Sc  Sc7  1  0.50007000  0.24960000  0.04468000  1.0
  Ga  Ga8  1  0.00000000  0.00000000  0.95941000  1.0
  Ga  Ga9  1  0.00000000  0.50000000  0.95941000  1.0
  Ga  Ga10  1  0.00004000  0.99998000  0.12695000  1.0
  Ga  Ga11  1  0.00009000  0.49998000  0.12865000  1.0
  Ga  Ga12  1  0.50000000  0.00000000  0.95941000  1.0
  Ga  Ga13  1  0.50000000  0.50000000  0.95941000  1.0
  Ga  Ga14  1  0.50003000  0.49998000  0.12854000  1.0
  Ga  Ga15  1  0.50010000  0.99998000  0.12857000  1.0
  Ge  Ge16  1  0.24953000  0.49998000  0.04314000  1.0
  Ge  Ge17  1  0.25000000  0.00000000  0.87824000  1.0
  Ge  Ge18  1  0.25000000  0.50000000  0.87824000  1.0
  Ge  Ge19  1  0.25041000  0.99999000  0.04148000  1.0
  Ge  Ge20  1  0.74972000  0.99997000  0.04150000  1.0
  Ge  Ge21  1  0.75000000  0.00000000  0.87824000  1.0
  Ge  Ge22  1  0.75000000  0.50000000  0.87824000  1.0
  Ge  Ge23  1  0.75058000  0.49997000  0.04311000  1.0
  Pd  Pd24  1  0.25000000  0.25000000  0.95941000  1.0
  Pd  Pd25  1  0.25000000  0.75000000  0.95941000  1.0
  Pd  Pd26  1  0.25170000  0.75018000  0.12342000  1.0
  Pd  Pd27  1  0.25174000  0.24978000  0.12342000  1.0
  Pd  Pd28  1  0.74841000  0.75008000  0.12341000  1.0
  Pd  Pd29  1  0.74842000  0.24989000  0.12341000  1.0
  Pd  Pd30  1  0.75000000  0.25000000  0.95941000  1.0
  Pd  Pd31  1  0.75000000  0.75000000  0.95941000  1.0
  C  C32  1  0.99723000  0.00079000  0.26989000  1.0
  O  O33  1  0.00034000  0.99992000  0.31288000  1.0
