# generated using pymatgen
data_LiYSnPb
_symmetry_space_group_name_H-M   'P 1'
_cell_length_a   6.72279000
_cell_length_b   4.43584000
_cell_length_c   25.04000000
_cell_angle_alpha   90.00000000
_cell_angle_beta   90.00000000
_cell_angle_gamma   90.00000000
_symmetry_Int_Tables_number   1
_chemical_formula_structural   LiYSnPb
_chemical_formula_sum   'Li2 Y2 Sn2 Pb2'
_cell_volume   746.72336867
_cell_formula_units_Z   2
loop_
 _symmetry_equiv_pos_site_id
 _symmetry_equiv_pos_as_xyz
  1  'x, y, z'
loop_
 _atom_site_type_symbol
 _atom_site_label
 _atom_site_symmetry_multiplicity
 _atom_site_fract_x
 _atom_site_fract_y
 _atom_site_fract_z
 _atom_site_occupancy
  Li  Li0  1  0.00000000  0.00000000  0.10064000  1.0
  Li  Li1  1  0.48144000  0.00000000  0.95996000  1.0
  Y  Y2  1  0.50000000  0.00000000  0.10064000  1.0
  Y  Y3  1  0.98354000  0.00000000  0.96704000  1.0
  Sn  Sn4  1  0.74273000  0.50000000  0.03355000  1.0
  Sn  Sn5  1  0.24777500  0.50000000  0.90763500  1.0
  Pb  Pb6  1  0.24273000  0.50000000  0.03355000  1.0
  Pb  Pb7  1  0.71231000  0.50000000  0.90174000  1.0
