data_image0
_chemical_formula_structural       Li8In16Pd8CO
_chemical_formula_sum              "Li8 In16 Pd8 C1 O1"
_cell_length_a       6.70566
_cell_length_b       9.48324
_cell_length_c       27.1124
_cell_angle_alpha    90
_cell_angle_beta     90
_cell_angle_gamma    90

_space_group_name_H-M_alt    "P 1"
_space_group_IT_number       1

loop_
  _space_group_symop_operation_xyz
  'x, y, z'

loop_
  _atom_site_type_symbol
  _atom_site_label
  _atom_site_symmetry_multiplicity
  _atom_site_fract_x
  _atom_site_fract_y
  _atom_site_fract_z
  _atom_site_occupancy
  Li  Li1       1.0  0.00000  0.00000  0.86883  1.0000
  Li  Li2       1.0  0.50000  0.25000  0.95628  1.0000
  Li  Li3       1.0  0.50000  0.75000  0.95628  1.0000
  Li  Li4       1.0  0.00000  0.50000  0.86883  1.0000
  Li  Li5       1.0  0.00000  0.50343  0.04702  1.0000
  Li  Li6       1.0  0.50000  0.75000  0.14839  1.0000
  Li  Li7       1.0  0.50000  0.25000  0.14147  1.0000
  Li  Li8       1.0  1.00000  0.99657  0.04702  1.0000
  In  In1       1.0  0.25000  0.00000  0.95628  1.0000
  In  In2       1.0  0.75000  0.50000  0.95628  1.0000
  In  In3       1.0  0.75000  0.00000  0.95628  1.0000
  In  In4       1.0  0.25000  0.50000  0.95628  1.0000
  In  In5       1.0  0.75000  0.75000  0.86883  1.0000
  In  In6       1.0  0.25000  0.25000  0.86883  1.0000
  In  In7       1.0  0.25000  0.75000  0.86883  1.0000
  In  In8       1.0  0.75000  0.25000  0.86883  1.0000
  In  In9       1.0  0.25520  0.50771  0.13856  1.0000
  In  In10      1.0  0.74480  0.99229  0.13856  1.0000
  In  In11      1.0  0.74481  0.50771  0.13857  1.0000
  In  In12      1.0  0.25519  0.99229  0.13856  1.0000
  In  In13      1.0  0.74801  0.25000  0.04996  1.0000
  In  In14      1.0  0.26268  0.75000  0.04576  1.0000
  In  In15      1.0  0.25200  0.25000  0.04996  1.0000
  In  In16      1.0  0.73732  0.75000  0.04576  1.0000
  Pd  Pd1       1.0  0.00000  0.75000  0.95628  1.0000
  Pd  Pd2       1.0  0.50000  0.00000  0.86883  1.0000
  Pd  Pd3       1.0  0.00000  0.25000  0.95628  1.0000
  Pd  Pd4       1.0  0.50000  0.50000  0.86883  1.0000
  Pd  Pd5       1.0  0.00000  0.25000  0.13754  1.0000
  Pd  Pd6       1.0  0.50000  0.49671  0.03992  1.0000
  Pd  Pd7       1.0  0.00000  0.75000  0.12363  1.0000
  Pd  Pd8       1.0  0.50000  0.00329  0.03992  1.0000
  C   C1        1.0  1.00000  0.25000  0.20983  1.0000
  O   O1        1.0  1.00000  0.25001  0.25235  1.0000
