# generated using pymatgen
data_Li8In16Pd8CO
_symmetry_space_group_name_H-M   'P 1'
_cell_length_a   6.70566000
_cell_length_b   9.48324000
_cell_length_c   27.11240000
_cell_angle_alpha   90.00000000
_cell_angle_beta   90.00000000
_cell_angle_gamma   90.00000000
_symmetry_Int_Tables_number   1
_chemical_formula_structural   Li8In16Pd8CO
_chemical_formula_sum   'Li8 In16 Pd8 C1 O1'
_cell_volume   1724.11501620
_cell_formula_units_Z   1
loop_
 _symmetry_equiv_pos_site_id
 _symmetry_equiv_pos_as_xyz
  1  'x, y, z'
loop_
 _atom_site_type_symbol
 _atom_site_label
 _atom_site_symmetry_multiplicity
 _atom_site_fract_x
 _atom_site_fract_y
 _atom_site_fract_z
 _atom_site_occupancy
  Li  Li0  1  0.00000000  0.75000000  0.86883000  1.0
  Li  Li1  1  0.50000000  0.00000000  0.95628000  1.0
  Li  Li2  1  0.50000000  0.50000000  0.95628000  1.0
  Li  Li3  1  0.00000000  0.25000000  0.86883000  1.0
  Li  Li4  1  0.00000000  0.25343000  0.04702000  1.0
  Li  Li5  1  0.50000000  0.50000000  0.14839000  1.0
  Li  Li6  1  0.50000000  0.00000000  0.14147000  1.0
  Li  Li7  1  0.00000000  0.74657000  0.04702000  1.0
  In  In8  1  0.25000000  0.75000000  0.95628000  1.0
  In  In9  1  0.75000000  0.25000000  0.95628000  1.0
  In  In10  1  0.75000000  0.75000000  0.95628000  1.0
  In  In11  1  0.25000000  0.25000000  0.95628000  1.0
  In  In12  1  0.75000000  0.50000000  0.86883000  1.0
  In  In13  1  0.25000000  0.00000000  0.86883000  1.0
  In  In14  1  0.25000000  0.50000000  0.86883000  1.0
  In  In15  1  0.75000000  0.00000000  0.86883000  1.0
  In  In16  1  0.25520000  0.25771000  0.13856000  1.0
  In  In17  1  0.74480000  0.74229000  0.13856000  1.0
  In  In18  1  0.74480000  0.25771000  0.13856000  1.0
  In  In19  1  0.25520000  0.74229000  0.13856000  1.0
  In  In20  1  0.74801000  0.00000000  0.04996000  1.0
  In  In21  1  0.26268000  0.50000000  0.04576000  1.0
  In  In22  1  0.25199000  0.00000000  0.04996000  1.0
  In  In23  1  0.73732000  0.50000000  0.04576000  1.0
  Pd  Pd24  1  0.00000000  0.50000000  0.95628000  1.0
  Pd  Pd25  1  0.50000000  0.75000000  0.86883000  1.0
  Pd  Pd26  1  0.00000000  0.00000000  0.95628000  1.0
  Pd  Pd27  1  0.50000000  0.25000000  0.86883000  1.0
  Pd  Pd28  1  0.00000000  0.00000000  0.13754000  1.0
  Pd  Pd29  1  0.50000000  0.24671000  0.03992000  1.0
  Pd  Pd30  1  0.00000000  0.50000000  0.12363000  1.0
  Pd  Pd31  1  0.50000000  0.75329000  0.03992000  1.0
  C  C32  1  0.00000000  0.00000000  0.20983000  1.0
  O  O33  1  0.00000000  0.00000000  0.25235000  1.0
