# generated using pymatgen
data_Mg4Pd12CO
_symmetry_space_group_name_H-M   Pm
_cell_length_a   8.03636000
_cell_length_b   5.68257000
_cell_length_c   24.26190000
_cell_angle_alpha   90.00000000
_cell_angle_beta   90.00000000
_cell_angle_gamma   90.00000000
_symmetry_Int_Tables_number   6
_chemical_formula_structural   Mg4Pd12CO
_chemical_formula_sum   'Mg4 Pd12 C1 O1'
_cell_volume   1107.97251187
_cell_formula_units_Z   1
loop_
 _symmetry_equiv_pos_site_id
 _symmetry_equiv_pos_as_xyz
  1  'x, y, z'
  2  'x, -y, z'
loop_
 _atom_site_type_symbol
 _atom_site_label
 _atom_site_symmetry_multiplicity
 _atom_site_fract_x
 _atom_site_fract_y
 _atom_site_fract_z
 _atom_site_occupancy
  Mg  Mg0  1  0.00000000  0.50000000  0.97072000  1.0
  Mg  Mg1  1  0.00001000  0.00000000  0.08229000  1.0
  Mg  Mg2  1  0.50000000  0.00000000  0.07964000  1.0
  Mg  Mg3  1  0.50000000  0.50000000  0.97072000  1.0
  Pd  Pd4  2  0.24534000  0.25083000  0.02978000  1.0
  Pd  Pd5  2  0.25000000  0.25000000  0.91217000  1.0
  Pd  Pd6  2  0.75000000  0.25000000  0.91217000  1.0
  Pd  Pd7  2  0.75465000  0.25083000  0.02979000  1.0
  Pd  Pd8  1  0.00000000  0.00000000  0.97072000  1.0
  Pd  Pd9  1  0.00007000  0.50000000  0.09659000  1.0
  Pd  Pd10  1  0.49999000  0.50000000  0.08333000  1.0
  Pd  Pd11  1  0.50000000  0.00000000  0.97072000  1.0
  C  C12  1  0.99991000  0.50000000  0.17616000  1.0
  O  O13  1  0.00001000  0.50000000  0.22372000  1.0
