# generated using pymatgen
data_Nb8Al8Ni16CO
_symmetry_space_group_name_H-M   P1
_cell_length_a   6.00915000
_cell_length_b   8.49821000
_cell_length_c   26.37370000
_cell_angle_alpha   90.00000000
_cell_angle_beta   90.00000000
_cell_angle_gamma   90.00000000
_symmetry_Int_Tables_number   1
_chemical_formula_structural   Nb8Al8Ni16CO
_chemical_formula_sum   'Nb8 Al8 Ni16 C1 O1'
_cell_volume   1346.82622902
_cell_formula_units_Z   1
loop_
 _symmetry_equiv_pos_site_id
 _symmetry_equiv_pos_as_xyz
  1  'x, y, z'
loop_
 _atom_site_type_symbol
 _atom_site_label
 _atom_site_symmetry_multiplicity
 _atom_site_fract_x
 _atom_site_fract_y
 _atom_site_fract_z
 _atom_site_occupancy
  Nb  Nb0  1  0.00000000  0.00000000  0.87917000  1.0
  Nb  Nb1  1  0.00000000  0.50000000  0.87917000  1.0
  Nb  Nb2  1  0.00614000  0.99996000  0.04019000  1.0
  Nb  Nb3  1  0.49693000  0.75369000  0.12168000  1.0
  Nb  Nb4  1  0.49694000  0.24637000  0.12163000  1.0
  Nb  Nb5  1  0.50000000  0.25000000  0.95972000  1.0
  Nb  Nb6  1  0.50000000  0.75000000  0.95972000  1.0
  Nb  Nb7  1  0.99776000  0.50009000  0.03963000  1.0
  Al  Al8  1  0.00000000  0.25000000  0.95972000  1.0
  Al  Al9  1  0.00000000  0.75000000  0.95972000  1.0
  Al  Al10  1  0.49648000  0.00014000  0.04145000  1.0
  Al  Al11  1  0.50000000  0.00000000  0.87917000  1.0
  Al  Al12  1  0.50000000  0.50000000  0.87917000  1.0
  Al  Al13  1  0.50066000  0.49989000  0.03855000  1.0
  Al  Al14  1  0.99652000  0.25597000  0.11998000  1.0
  Al  Al15  1  0.99652000  0.74409000  0.11991000  1.0
  Ni  Ni16  1  0.22838000  0.00000000  0.12854000  1.0
  Ni  Ni17  1  0.25000000  0.00000000  0.95972000  1.0
  Ni  Ni18  1  0.25000000  0.25000000  0.87917000  1.0
  Ni  Ni19  1  0.25000000  0.50000000  0.95972000  1.0
  Ni  Ni20  1  0.25000000  0.75000000  0.87917000  1.0
  Ni  Ni21  1  0.26080000  0.25310000  0.04234000  1.0
  Ni  Ni22  1  0.26145000  0.74693000  0.04233000  1.0
  Ni  Ni23  1  0.26490000  0.50007000  0.11432000  1.0
  Ni  Ni24  1  0.73259000  0.50004000  0.11524000  1.0
  Ni  Ni25  1  0.73902000  0.75158000  0.04223000  1.0
  Ni  Ni26  1  0.73981000  0.24847000  0.04225000  1.0
  Ni  Ni27  1  0.75000000  0.00000000  0.95972000  1.0
  Ni  Ni28  1  0.75000000  0.25000000  0.87917000  1.0
  Ni  Ni29  1  0.75000000  0.50000000  0.95972000  1.0
  Ni  Ni30  1  0.75000000  0.75000000  0.87917000  1.0
  Ni  Ni31  1  0.76034000  0.00001000  0.11457000  1.0
  C  C32  1  0.33556000  0.99996000  0.19101000  1.0
  O  O33  1  0.38188000  0.99992000  0.23393000  1.0
