# generated using pymatgen
data_Li4Y4In4Ge4CO
_symmetry_space_group_name_H-M   Pm
_cell_length_a   6.03525000
_cell_length_b   9.31878000
_cell_length_c   24.52620000
_cell_angle_alpha   90.00000000
_cell_angle_beta   90.00000000
_cell_angle_gamma   90.00000000
_symmetry_Int_Tables_number   6
_chemical_formula_structural   Li4Y4In4Ge4CO
_chemical_formula_sum   'Li4 Y4 In4 Ge4 C1 O1'
_cell_volume   1379.38210995
_cell_formula_units_Z   1
loop_
 _symmetry_equiv_pos_site_id
 _symmetry_equiv_pos_as_xyz
  1  'x, y, z'
  2  'x, -y, z'
loop_
 _atom_site_type_symbol
 _atom_site_label
 _atom_site_symmetry_multiplicity
 _atom_site_fract_x
 _atom_site_fract_y
 _atom_site_fract_z
 _atom_site_occupancy
  Li  Li0  2  0.24273000  0.25000000  0.90773000  1.0
  Li  Li1  2  0.67974000  0.25019000  0.02462000  1.0
  Y  Y2  1  0.46030000  0.00000000  0.09356000  1.0
  Y  Y3  1  0.46364000  0.50000000  0.09310000  1.0
  Y  Y4  1  0.99515000  0.00000000  0.96924000  1.0
  Y  Y5  1  0.99515000  0.50000000  0.96924000  1.0
  In  In6  2  0.16395000  0.25055000  0.04849000  1.0
  In  In7  2  0.74273000  0.25000000  0.90773000  1.0
  Ge  Ge8  1  0.49515000  0.00000000  0.96924000  1.0
  Ge  Ge9  1  0.49515000  0.50000000  0.96924000  1.0
  Ge  Ge10  1  0.96068000  0.00000000  0.09581000  1.0
  Ge  Ge11  1  0.96284000  0.50000000  0.09512000  1.0
  C  C12  1  0.48662000  0.00000000  0.19713000  1.0
  O  O13  1  0.49768000  0.00000000  0.24366000  1.0
