# generated using pymatgen
data_Li8Mg8Ga8Pd8C
_symmetry_space_group_name_H-M   'P 1'
_cell_length_a   8.87710000
_cell_length_b   6.27706000
_cell_length_c   26.65780000
_cell_angle_alpha   90.00000000
_cell_angle_beta   90.00000000
_cell_angle_gamma   90.00000000
_symmetry_Int_Tables_number   1
_chemical_formula_structural   Li8Mg8Ga8Pd8C
_chemical_formula_sum   'Li8 Mg8 Ga8 Pd8 C1'
_cell_volume   1485.42831283
_cell_formula_units_Z   1
loop_
 _symmetry_equiv_pos_site_id
 _symmetry_equiv_pos_as_xyz
  1  'x, y, z'
loop_
 _atom_site_type_symbol
 _atom_site_label
 _atom_site_symmetry_multiplicity
 _atom_site_fract_x
 _atom_site_fract_y
 _atom_site_fract_z
 _atom_site_occupancy
  Li  Li0  1  0.00000000  0.25000000  0.04163000  1.0
  Li  Li1  1  0.50000000  0.25000000  0.04163000  1.0
  Li  Li2  1  0.25000000  0.75000000  0.12488000  1.0
  Li  Li3  1  0.75000000  0.75000000  0.12488000  1.0
  Li  Li4  1  0.50000000  0.26210000  0.86819000  1.0
  Li  Li5  1  0.00000000  0.28330000  0.84376000  1.0
  Li  Li6  1  0.75511000  0.75168000  0.95672000  1.0
  Li  Li7  1  0.24489000  0.75168000  0.95672000  1.0
  Mg  Mg8  1  0.25000000  0.00000000  0.04163000  1.0
  Mg  Mg9  1  0.75000000  0.00000000  0.04163000  1.0
  Mg  Mg10  1  0.50000000  0.50000000  0.12488000  1.0
  Mg  Mg11  1  0.00000000  0.50000000  0.12488000  1.0
  Mg  Mg12  1  0.75589000  0.99421000  0.86873000  1.0
  Mg  Mg13  1  0.24411000  0.99421000  0.86873000  1.0
  Mg  Mg14  1  0.00000000  0.48168000  0.95588000  1.0
  Mg  Mg15  1  0.50000000  0.50313000  0.95864000  1.0
  Ga  Ga16  1  0.00000000  0.00000000  0.12488000  1.0
  Ga  Ga17  1  0.50000000  0.00000000  0.12488000  1.0
  Ga  Ga18  1  0.75000000  0.50000000  0.04163000  1.0
  Ga  Ga19  1  0.25000000  0.50000000  0.04163000  1.0
  Ga  Ga20  1  0.50000000  0.99960000  0.95537000  1.0
  Ga  Ga21  1  0.00000000  0.02075000  0.95844000  1.0
  Ga  Ga22  1  0.25833000  0.50314000  0.87101000  1.0
  Ga  Ga23  1  0.74167000  0.50314000  0.87101000  1.0
  Pd  Pd24  1  0.00000000  0.75000000  0.04163000  1.0
  Pd  Pd25  1  0.50000000  0.75000000  0.04163000  1.0
  Pd  Pd26  1  0.25000000  0.25000000  0.12488000  1.0
  Pd  Pd27  1  0.75000000  0.25000000  0.12488000  1.0
  Pd  Pd28  1  0.50000000  0.74680000  0.87861000  1.0
  Pd  Pd29  1  0.00000000  0.68401000  0.87103000  1.0
  Pd  Pd30  1  0.74015000  0.24946000  0.95924000  1.0
  Pd  Pd31  1  0.25985000  0.24946000  0.95924000  1.0
  C  C32  1  0.00000000  0.00380000  0.88330000  1.0
