# generated using pymatgen
data_Li8Mg8Ga8Pd8C
_symmetry_space_group_name_H-M   Pm
_cell_length_a   6.27706000
_cell_length_b   8.87710000
_cell_length_c   26.65780000
_cell_angle_alpha   90.00000000
_cell_angle_beta   90.00000000
_cell_angle_gamma   90.00000000
_symmetry_Int_Tables_number   6
_chemical_formula_structural   Li8Mg8Ga8Pd8C
_chemical_formula_sum   'Li8 Mg8 Ga8 Pd8 C1'
_cell_volume   1485.42831283
_cell_formula_units_Z   1
loop_
 _symmetry_equiv_pos_site_id
 _symmetry_equiv_pos_as_xyz
  1  'x, y, z'
  2  'x, -y, z'
loop_
 _atom_site_type_symbol
 _atom_site_label
 _atom_site_symmetry_multiplicity
 _atom_site_fract_x
 _atom_site_fract_y
 _atom_site_fract_z
 _atom_site_occupancy
  Li  Li0  2  0.75000000  0.25000000  0.87512000  1.0
  Li  Li1  2  0.75168000  0.24489000  0.04328000  1.0
  Li  Li2  1  0.25000000  0.00000000  0.95837000  1.0
  Li  Li3  1  0.25000000  0.50000000  0.95837000  1.0
  Li  Li4  1  0.26210000  0.50000000  0.13181000  1.0
  Li  Li5  1  0.28330000  0.00000000  0.15624000  1.0
  Mg  Mg6  2  0.00000000  0.25000000  0.95837000  1.0
  Mg  Mg7  2  0.99421000  0.24411000  0.13127000  1.0
  Mg  Mg8  1  0.48168000  0.00000000  0.04412000  1.0
  Mg  Mg9  1  0.50000000  0.00000000  0.87512000  1.0
  Mg  Mg10  1  0.50000000  0.50000000  0.87512000  1.0
  Mg  Mg11  1  0.50313000  0.50000000  0.04136000  1.0
  Ga  Ga12  2  0.50000000  0.25000000  0.95837000  1.0
  Ga  Ga13  2  0.50314000  0.25833000  0.12899000  1.0
  Ga  Ga14  1  0.00000000  0.00000000  0.87512000  1.0
  Ga  Ga15  1  0.00000000  0.50000000  0.87512000  1.0
  Ga  Ga16  1  0.02075000  0.00000000  0.04156000  1.0
  Ga  Ga17  1  0.99960000  0.50000000  0.04463000  1.0
  Pd  Pd18  2  0.24946000  0.25985000  0.04076000  1.0
  Pd  Pd19  2  0.25000000  0.25000000  0.87512000  1.0
  Pd  Pd20  1  0.68401000  0.00000000  0.12897000  1.0
  Pd  Pd21  1  0.74680000  0.50000000  0.12139000  1.0
  Pd  Pd22  1  0.75000000  0.00000000  0.95837000  1.0
  Pd  Pd23  1  0.75000000  0.50000000  0.95837000  1.0
  C  C24  1  0.00380000  0.00000000  0.11670000  1.0
