data_image0
_chemical_formula_structural       Li8Al8In8Pd8C
_chemical_formula_sum              "Li8 Al8 In8 Pd8 C1"
_cell_length_a       6.39489
_cell_length_b       9.04374
_cell_length_c       26.7828
_cell_angle_alpha    90
_cell_angle_beta     90
_cell_angle_gamma    90

_space_group_name_H-M_alt    "P 1"
_space_group_IT_number       1

loop_
  _space_group_symop_operation_xyz
  'x, y, z'

loop_
  _atom_site_type_symbol
  _atom_site_label
  _atom_site_symmetry_multiplicity
  _atom_site_fract_x
  _atom_site_fract_y
  _atom_site_fract_z
  _atom_site_occupancy
  Li  Li1       1.0  0.75000  0.00000  0.95779  1.0000
  Li  Li2       1.0  0.75000  0.50000  0.95779  1.0000
  Li  Li3       1.0  0.25000  0.25000  0.87337  1.0000
  Li  Li4       1.0  0.25000  0.75000  0.87337  1.0000
  Li  Li5       1.0  0.73796  0.52587  0.14027  1.0000
  Li  Li6       1.0  0.73796  0.97413  0.14028  1.0000
  Li  Li7       1.0  0.21553  0.75000  0.04416  1.0000
  Li  Li8       1.0  0.20890  0.25000  0.05573  1.0000
  Al  Al1       1.0  0.00000  0.00000  0.87337  1.0000
  Al  Al2       1.0  0.00000  0.50000  0.87337  1.0000
  Al  Al3       1.0  0.50000  0.75000  0.95779  1.0000
  Al  Al4       1.0  0.50000  0.25000  0.95779  1.0000
  Al  Al5       1.0  0.97761  0.50348  0.04710  1.0000
  Al  Al6       1.0  0.97761  0.99651  0.04710  1.0000
  Al  Al7       1.0  0.54664  0.25000  0.12178  1.0000
  Al  Al8       1.0  0.46318  0.75000  0.12236  1.0000
  In  In1       1.0  0.00000  0.25000  0.95779  1.0000
  In  In2       1.0  0.00000  0.75000  0.95779  1.0000
  In  In3       1.0  0.50000  0.50000  0.87337  1.0000
  In  In4       1.0  0.50000  0.00000  0.87337  1.0000
  In  In5       1.0  0.02145  0.75000  0.14920  1.0000
  In  In6       1.0  0.94372  0.25000  0.16757  1.0000
  In  In7       1.0  0.49835  0.99761  0.04347  1.0000
  In  In8       1.0  0.49835  0.50239  0.04347  1.0000
  Pd  Pd1       1.0  0.25000  0.00000  0.95779  1.0000
  Pd  Pd2       1.0  0.25000  0.50000  0.95779  1.0000
  Pd  Pd3       1.0  0.75000  0.25000  0.87337  1.0000
  Pd  Pd4       1.0  0.75000  0.75000  0.87337  1.0000
  Pd  Pd5       1.0  0.22834  0.48479  0.12172  1.0000
  Pd  Pd6       1.0  0.22834  0.01521  0.12172  1.0000
  Pd  Pd7       1.0  0.75410  0.75000  0.04281  1.0000
  Pd  Pd8       1.0  0.74958  0.25000  0.03956  1.0000
  C   C1        1.0  0.26009  0.25000  0.14023  1.0000
