# generated using pymatgen
data_Li8Al8In8Pd8C
_symmetry_space_group_name_H-M   'P 1'
_cell_length_a   9.04374000
_cell_length_b   6.39489000
_cell_length_c   26.78280000
_cell_angle_alpha   90.00000000
_cell_angle_beta   90.00000000
_cell_angle_gamma   90.00000000
_symmetry_Int_Tables_number   1
_chemical_formula_structural   Li8Al8In8Pd8C
_chemical_formula_sum   'Li8 Al8 In8 Pd8 C1'
_cell_volume   1548.94902267
_cell_formula_units_Z   1
loop_
 _symmetry_equiv_pos_site_id
 _symmetry_equiv_pos_as_xyz
  1  'x, y, z'
loop_
 _atom_site_type_symbol
 _atom_site_label
 _atom_site_symmetry_multiplicity
 _atom_site_fract_x
 _atom_site_fract_y
 _atom_site_fract_z
 _atom_site_occupancy
  Li  Li0  1  0.75000000  0.75000000  0.04221000  1.0
  Li  Li1  1  0.25000000  0.75000000  0.04221000  1.0
  Li  Li2  1  0.00000000  0.25000000  0.12663000  1.0
  Li  Li3  1  0.50000000  0.25000000  0.12663000  1.0
  Li  Li4  1  0.27587000  0.73796000  0.85973000  1.0
  Li  Li5  1  0.72413000  0.73796000  0.85973000  1.0
  Li  Li6  1  0.50000000  0.21553000  0.95584000  1.0
  Li  Li7  1  0.00000000  0.20890000  0.94427000  1.0
  Al  Al8  1  0.75000000  0.00000000  0.12663000  1.0
  Al  Al9  1  0.25000000  0.00000000  0.12663000  1.0
  Al  Al10  1  0.50000000  0.50000000  0.04221000  1.0
  Al  Al11  1  0.00000000  0.50000000  0.04221000  1.0
  Al  Al12  1  0.25348000  0.97761000  0.95290000  1.0
  Al  Al13  1  0.74652000  0.97761000  0.95290000  1.0
  Al  Al14  1  0.00000000  0.54664000  0.87822000  1.0
  Al  Al15  1  0.50000000  0.46318000  0.87764000  1.0
  In  In16  1  0.00000000  0.00000000  0.04221000  1.0
  In  In17  1  0.50000000  0.00000000  0.04221000  1.0
  In  In18  1  0.25000000  0.50000000  0.12663000  1.0
  In  In19  1  0.75000000  0.50000000  0.12663000  1.0
  In  In20  1  0.50000000  0.02145000  0.85080000  1.0
  In  In21  1  0.00000000  0.94372000  0.83243000  1.0
  In  In22  1  0.74761000  0.49835000  0.95653000  1.0
  In  In23  1  0.25239000  0.49835000  0.95653000  1.0
  Pd  Pd24  1  0.75000000  0.25000000  0.04221000  1.0
  Pd  Pd25  1  0.25000000  0.25000000  0.04221000  1.0
  Pd  Pd26  1  0.00000000  0.75000000  0.12663000  1.0
  Pd  Pd27  1  0.50000000  0.75000000  0.12663000  1.0
  Pd  Pd28  1  0.23479000  0.22834000  0.87828000  1.0
  Pd  Pd29  1  0.76521000  0.22834000  0.87828000  1.0
  Pd  Pd30  1  0.50000000  0.75410000  0.95719000  1.0
  Pd  Pd31  1  0.00000000  0.74958000  0.96044000  1.0
  C  C32  1  0.00000000  0.26009000  0.85977000  1.0
