data_image0
_chemical_formula_structural       Sc4Sn4Pt8CO
_chemical_formula_sum              "Sc4 Sn4 Pt8 C1 O1"
_cell_length_a       6.65597
_cell_length_b       6.65597
_cell_length_c       24.992
_cell_angle_alpha    90
_cell_angle_beta     90
_cell_angle_gamma    90

_space_group_name_H-M_alt    "P 1"
_space_group_IT_number       1

loop_
  _space_group_symop_operation_xyz
  'x, y, z'

loop_
  _atom_site_type_symbol
  _atom_site_label
  _atom_site_symmetry_multiplicity
  _atom_site_fract_x
  _atom_site_fract_y
  _atom_site_fract_z
  _atom_site_occupancy
  Sc  Sc1       1.0  1.00000  1.00000  0.09559  1.0000
  Sc  Sc2       1.0  0.49999  0.50001  0.09563  1.0000
  Sc  Sc3       1.0  0.50000  0.00000  0.96671  1.0000
  Sc  Sc4       1.0  0.00000  0.50000  0.96671  1.0000
  Sn  Sn1       1.0  0.00000  0.00000  0.96671  1.0000
  Sn  Sn2       1.0  0.49999  0.99999  0.10549  1.0000
  Sn  Sn3       1.0  1.00000  0.50001  0.10580  1.0000
  Sn  Sn4       1.0  0.50000  0.50000  0.96671  1.0000
  Pt  Pt1       1.0  0.24895  0.25111  0.04055  1.0000
  Pt  Pt2       1.0  0.75000  0.75000  0.90013  1.0000
  Pt  Pt3       1.0  0.75102  0.25111  0.04056  1.0000
  Pt  Pt4       1.0  0.25000  0.75000  0.90013  1.0000
  Pt  Pt5       1.0  0.75104  0.74888  0.04054  1.0000
  Pt  Pt6       1.0  0.25000  0.25000  0.90013  1.0000
  Pt  Pt7       1.0  0.24896  0.74888  0.04055  1.0000
  Pt  Pt8       1.0  0.75000  0.25000  0.90013  1.0000
  C   C1        1.0  0.00006  0.49996  0.28304  1.0000
  O   O1        1.0  0.99996  0.50017  0.32838  1.0000
