# generated using pymatgen
data_Sc4Sn4Pt8CO
_symmetry_space_group_name_H-M   P1
_cell_length_a   6.65597000
_cell_length_b   6.65597000
_cell_length_c   24.99200000
_cell_angle_alpha   90.00000000
_cell_angle_beta   90.00000000
_cell_angle_gamma   90.00000000
_symmetry_Int_Tables_number   1
_chemical_formula_structural   Sc4Sn4Pt8CO
_chemical_formula_sum   'Sc4 Sn4 Pt8 C1 O1'
_cell_volume   1107.19400053
_cell_formula_units_Z   1
loop_
 _symmetry_equiv_pos_site_id
 _symmetry_equiv_pos_as_xyz
  1  'x, y, z'
loop_
 _atom_site_type_symbol
 _atom_site_label
 _atom_site_symmetry_multiplicity
 _atom_site_fract_x
 _atom_site_fract_y
 _atom_site_fract_z
 _atom_site_occupancy
  Sc  Sc0  1  0.00000000  0.00000000  0.09559000  1.0
  Sc  Sc1  1  0.00000000  0.50000000  0.96671000  1.0
  Sc  Sc2  1  0.49999000  0.50001000  0.09563000  1.0
  Sc  Sc3  1  0.50000000  0.00000000  0.96671000  1.0
  Sn  Sn4  1  0.00000000  0.00000000  0.96671000  1.0
  Sn  Sn5  1  0.00000000  0.50001000  0.10580000  1.0
  Sn  Sn6  1  0.49999000  0.99999000  0.10549000  1.0
  Sn  Sn7  1  0.50000000  0.50000000  0.96671000  1.0
  Pt  Pt8  1  0.24895000  0.25111000  0.04055000  1.0
  Pt  Pt9  1  0.24896000  0.74888000  0.04055000  1.0
  Pt  Pt10  1  0.25000000  0.25000000  0.90013000  1.0
  Pt  Pt11  1  0.25000000  0.75000000  0.90013000  1.0
  Pt  Pt12  1  0.75000000  0.25000000  0.90013000  1.0
  Pt  Pt13  1  0.75000000  0.75000000  0.90013000  1.0
  Pt  Pt14  1  0.75102000  0.25111000  0.04056000  1.0
  Pt  Pt15  1  0.75104000  0.74888000  0.04054000  1.0
  C  C16  1  0.00006000  0.49996000  0.28304000  1.0
  O  O17  1  0.99996000  0.50017000  0.32838000  1.0
