# generated using pymatgen
data_Li8Y8In8Ag8CO
_symmetry_space_group_name_H-M   'P 1'
_cell_length_a   6.90709000
_cell_length_b   9.76810000
_cell_length_c   27.32610000
_cell_angle_alpha   90.00000000
_cell_angle_beta   90.00000000
_cell_angle_gamma   90.00000000
_symmetry_Int_Tables_number   1
_chemical_formula_structural   Li8Y8In8Ag8CO
_chemical_formula_sum   'Li8 Y8 In8 Ag8 C1 O1'
_cell_volume   1843.66862584
_cell_formula_units_Z   1
loop_
 _symmetry_equiv_pos_site_id
 _symmetry_equiv_pos_as_xyz
  1  'x, y, z'
loop_
 _atom_site_type_symbol
 _atom_site_label
 _atom_site_symmetry_multiplicity
 _atom_site_fract_x
 _atom_site_fract_y
 _atom_site_fract_z
 _atom_site_occupancy
  Li  Li0  1  0.00000000  0.25000000  0.95532000  1.0
  Li  Li1  1  0.00000000  0.75000000  0.95532000  1.0
  Li  Li2  1  0.50000000  0.50000000  0.86595000  1.0
  Li  Li3  1  0.50000000  0.00000000  0.86595000  1.0
  Li  Li4  1  0.13542000  0.74379000  0.17480000  1.0
  Li  Li5  1  0.13364000  0.24512000  0.18919000  1.0
  Li  Li6  1  0.51610000  0.00041000  0.05030000  1.0
  Li  Li7  1  0.52937000  0.50128000  0.05193000  1.0
  Y  Y8  1  0.75000000  0.00000000  0.95532000  1.0
  Y  Y9  1  0.75000000  0.50000000  0.95532000  1.0
  Y  Y10  1  0.25000000  0.25000000  0.86595000  1.0
  Y  Y11  1  0.25000000  0.75000000  0.86595000  1.0
  Y  Y12  1  0.79838000  0.46262000  0.14362000  1.0
  Y  Y13  1  0.79146000  0.02022000  0.13986000  1.0
  Y  Y14  1  0.24361000  0.74837000  0.05171000  1.0
  Y  Y15  1  0.24183000  0.25226000  0.05014000  1.0
  In  In16  1  0.25000000  0.00000000  0.95532000  1.0
  In  In17  1  0.25000000  0.50000000  0.95532000  1.0
  In  In18  1  0.75000000  0.25000000  0.86595000  1.0
  In  In19  1  0.75000000  0.75000000  0.86595000  1.0
  In  In20  1  0.27494000  0.49654000  0.13416000  1.0
  In  In21  1  0.26470000  0.99407000  0.13516000  1.0
  In  In22  1  0.75664000  0.75235000  0.04458000  1.0
  In  In23  1  0.74890000  0.24888000  0.04390000  1.0
  Ag  Ag24  1  0.00000000  0.00000000  0.86595000  1.0
  Ag  Ag25  1  0.00000000  0.50000000  0.86595000  1.0
  Ag  Ag26  1  0.50000000  0.75000000  0.95532000  1.0
  Ag  Ag27  1  0.50000000  0.25000000  0.95532000  1.0
  Ag  Ag28  1  0.99299000  0.50017000  0.04489000  1.0
  Ag  Ag29  1  0.99939000  0.99970000  0.04320000  1.0
  Ag  Ag30  1  0.49415000  0.24222000  0.13775000  1.0
  Ag  Ag31  1  0.53481000  0.73949000  0.13492000  1.0
  C  C32  1  0.82226000  0.21968000  0.18117000  1.0
  O  O33  1  0.87961000  0.32620000  0.20594000  1.0
