# generated using pymatgen
data_Li8Al8In8Cu8C
_symmetry_space_group_name_H-M   Pm
_cell_length_a   6.37467000
_cell_length_b   9.01514000
_cell_length_c   26.76140000
_cell_angle_alpha   90.00000000
_cell_angle_beta   90.00000000
_cell_angle_gamma   90.00000000
_symmetry_Int_Tables_number   6
_chemical_formula_structural   Li8Al8In8Cu8C
_chemical_formula_sum   'Li8 Al8 In8 Cu8 C1'
_cell_volume   1537.93865336
_cell_formula_units_Z   1
loop_
 _symmetry_equiv_pos_site_id
 _symmetry_equiv_pos_as_xyz
  1  'x, y, z'
  2  'x, -y, z'
loop_
 _atom_site_type_symbol
 _atom_site_label
 _atom_site_symmetry_multiplicity
 _atom_site_fract_x
 _atom_site_fract_y
 _atom_site_fract_z
 _atom_site_occupancy
  Li  Li0  2  0.72632000  0.27422000  0.15292000  1.0
  Li  Li1  2  0.75000000  0.25000000  0.95789000  1.0
  Li  Li2  1  0.20244000  0.00000000  0.05504000  1.0
  Li  Li3  1  0.22576000  0.50000000  0.04207000  1.0
  Li  Li4  1  0.25000000  0.00000000  0.87367000  1.0
  Li  Li5  1  0.25000000  0.50000000  0.87367000  1.0
  Al  Al6  2  0.00000000  0.25000000  0.87367000  1.0
  Al  Al7  2  0.96928000  0.25499000  0.04897000  1.0
  Al  Al8  1  0.47564000  0.50000000  0.12485000  1.0
  Al  Al9  1  0.50000000  0.00000000  0.95789000  1.0
  Al  Al10  1  0.50000000  0.50000000  0.95789000  1.0
  Al  Al11  1  0.56090000  0.00000000  0.11805000  1.0
  In  In12  2  0.49936000  0.25531000  0.04425000  1.0
  In  In13  2  0.50000000  0.25000000  0.87367000  1.0
  In  In14  1  -0.00000000  0.50000000  0.95789000  1.0
  In  In15  1  0.00000000  0.00000000  0.95789000  1.0
  In  In16  1  0.01527000  0.50000000  0.13874000  1.0
  In  In17  1  0.96533000  0.00000000  0.17048000  1.0
  Cu  Cu18  2  0.22921000  0.22375000  0.12194000  1.0
  Cu  Cu19  2  0.25000000  0.25000000  0.95789000  1.0
  Cu  Cu20  1  0.75000000  0.00000000  0.87367000  1.0
  Cu  Cu21  1  0.75000000  0.50000000  0.87367000  1.0
  Cu  Cu22  1  0.75325000  0.00000000  0.03735000  1.0
  Cu  Cu23  1  0.75628000  0.50000000  0.04021000  1.0
  C  C24  1  0.27195000  0.00000000  0.13489000  1.0
