data_image0
_chemical_formula_structural       Li8In4Pt4CO
_chemical_formula_sum              "Li8 In4 Pt4 C1 O1"
_cell_length_a       6.43375
_cell_length_b       6.43375
_cell_length_c       24.8253
_cell_angle_alpha    90
_cell_angle_beta     90
_cell_angle_gamma    90

_space_group_name_H-M_alt    "P 1"
_space_group_IT_number       1

loop_
  _space_group_symop_operation_xyz
  'x, y, z'

loop_
  _atom_site_type_symbol
  _atom_site_label
  _atom_site_symmetry_multiplicity
  _atom_site_fract_x
  _atom_site_fract_y
  _atom_site_fract_z
  _atom_site_occupancy
  Li  Li1       1.0  0.00430  0.99249  0.02824  1.0000
  Li  Li2       1.0  0.50000  0.00000  0.90281  1.0000
  Li  Li3       1.0  0.00000  0.50000  0.90281  1.0000
  Li  Li4       1.0  0.49615  0.50589  0.02920  1.0000
  Li  Li5       1.0  0.24811  0.24997  0.09677  1.0000
  Li  Li6       1.0  0.25000  0.75000  0.96760  1.0000
  Li  Li7       1.0  0.75055  0.75054  0.09819  1.0000
  Li  Li8       1.0  0.75000  0.25000  0.96760  1.0000
  In  In1       1.0  0.25000  0.25000  0.96760  1.0000
  In  In2       1.0  0.24931  0.75197  0.09879  1.0000
  In  In3       1.0  0.75000  0.75000  0.96760  1.0000
  In  In4       1.0  0.75277  0.24834  0.09424  1.0000
  Pt  Pt1       1.0  0.00000  0.00000  0.90281  1.0000
  Pt  Pt2       1.0  0.50000  0.50000  0.90281  1.0000
  Pt  Pt3       1.0  0.49703  0.99672  0.03325  1.0000
  Pt  Pt4       1.0  0.00409  0.50508  0.03325  1.0000
  C   C1        1.0  0.74980  0.25996  0.24821  1.0000
  O   O1        1.0  0.75040  0.24581  0.29381  1.0000
