# generated using pymatgen
data_Zn8Pt24CO
_symmetry_space_group_name_H-M   'P 1'
_cell_length_a   7.90864000
_cell_length_b   7.90864000
_cell_length_c   25.93150000
_cell_angle_alpha   90.00000000
_cell_angle_beta   90.00000000
_cell_angle_gamma   90.00000000
_symmetry_Int_Tables_number   1
_chemical_formula_structural   Zn8Pt24CO
_chemical_formula_sum   'Zn8 Pt24 C1 O1'
_cell_volume   1621.92681170
_cell_formula_units_Z   1
loop_
 _symmetry_equiv_pos_site_id
 _symmetry_equiv_pos_as_xyz
  1  'x, y, z'
loop_
 _atom_site_type_symbol
 _atom_site_label
 _atom_site_symmetry_multiplicity
 _atom_site_fract_x
 _atom_site_fract_y
 _atom_site_fract_z
 _atom_site_occupancy
  Zn  Zn0  1  0.75000000  0.00000000  0.88563000  1.0
  Zn  Zn1  1  0.75000000  0.00000000  0.03812000  1.0
  Zn  Zn2  1  0.75000000  0.50000000  0.88563000  1.0
  Zn  Zn3  1  0.75000000  0.50000000  0.03812000  1.0
  Zn  Zn4  1  0.25000000  0.00000000  0.88563000  1.0
  Zn  Zn5  1  0.25000000  0.00000000  0.03812000  1.0
  Zn  Zn6  1  0.25000000  0.50000000  0.88563000  1.0
  Zn  Zn7  1  0.25000000  0.50000000  0.03812000  1.0
  Pt  Pt8  1  0.75000000  0.25000000  0.96188000  1.0
  Pt  Pt9  1  0.00000000  0.00000000  0.96188000  1.0
  Pt  Pt10  1  0.00000000  0.25000000  0.88563000  1.0
  Pt  Pt11  1  0.75000000  0.25000000  0.11437000  1.0
  Pt  Pt12  1  0.00000000  0.00000000  0.11437000  1.0
  Pt  Pt13  1  0.00000000  0.25000000  0.03812000  1.0
  Pt  Pt14  1  0.75000000  0.75000000  0.96188000  1.0
  Pt  Pt15  1  0.00000000  0.50000000  0.96188000  1.0
  Pt  Pt16  1  0.00000000  0.75000000  0.88563000  1.0
  Pt  Pt17  1  0.75000000  0.75000000  0.11437000  1.0
  Pt  Pt18  1  0.00000000  0.50000000  0.11437000  1.0
  Pt  Pt19  1  0.00000000  0.75000000  0.03812000  1.0
  Pt  Pt20  1  0.25000000  0.25000000  0.96188000  1.0
  Pt  Pt21  1  0.50000000  0.00000000  0.96188000  1.0
  Pt  Pt22  1  0.50000000  0.25000000  0.88563000  1.0
  Pt  Pt23  1  0.25000000  0.25000000  0.11437000  1.0
  Pt  Pt24  1  0.50000000  0.00000000  0.11437000  1.0
  Pt  Pt25  1  0.50000000  0.25000000  0.03812000  1.0
  Pt  Pt26  1  0.25000000  0.75000000  0.96188000  1.0
  Pt  Pt27  1  0.50000000  0.50000000  0.96188000  1.0
  Pt  Pt28  1  0.50000000  0.75000000  0.88563000  1.0
  Pt  Pt29  1  0.25000000  0.75000000  0.11437000  1.0
  Pt  Pt30  1  0.50000000  0.50000000  0.11437000  1.0
  Pt  Pt31  1  0.50000000  0.75000000  0.03812000  1.0
  C  C32  1  0.00000000  0.00000000  0.18764000  1.0
  O  O33  1  0.00000000  0.00000000  0.23199000  1.0
