data_image0
_chemical_formula_structural       Ti16Ru16C
_chemical_formula_sum              "Ti16 Ru16 C1"
_cell_length_a       6.18271
_cell_length_b       8.74368
_cell_length_c       26.5578
_cell_angle_alpha    90
_cell_angle_beta     90
_cell_angle_gamma    90

_space_group_name_H-M_alt    "P 1"
_space_group_IT_number       1

loop_
  _space_group_symop_operation_xyz
  'x, y, z'

loop_
  _atom_site_type_symbol
  _atom_site_label
  _atom_site_symmetry_multiplicity
  _atom_site_fract_x
  _atom_site_fract_y
  _atom_site_fract_z
  _atom_site_occupancy
  Ti  Ti1       1.0  0.00000  0.00000  0.87654  1.0000
  Ti  Ti2       1.0  0.00000  0.25000  0.95885  1.0000
  Ti  Ti3       1.0  0.99944  0.99963  0.04304  1.0000
  Ti  Ti4       1.0  0.94619  0.25000  0.12742  1.0000
  Ti  Ti5       1.0  0.00000  0.50000  0.87654  1.0000
  Ti  Ti6       1.0  0.00000  0.75000  0.95885  1.0000
  Ti  Ti7       1.0  0.99944  0.50036  0.04305  1.0000
  Ti  Ti8       1.0  0.00295  0.75000  0.12489  1.0000
  Ti  Ti9       1.0  0.50000  0.00000  0.87654  1.0000
  Ti  Ti10      1.0  0.50000  0.25000  0.95885  1.0000
  Ti  Ti11      1.0  0.50038  0.99967  0.04304  1.0000
  Ti  Ti12      1.0  0.55327  0.25000  0.12738  1.0000
  Ti  Ti13      1.0  0.50000  0.50000  0.87654  1.0000
  Ti  Ti14      1.0  0.50000  0.75000  0.95885  1.0000
  Ti  Ti15      1.0  0.50038  0.50033  0.04304  1.0000
  Ti  Ti16      1.0  0.49634  0.75000  0.12488  1.0000
  Ru  Ru1       1.0  0.25000  0.25000  0.87654  1.0000
  Ru  Ru2       1.0  0.25000  0.00000  0.95885  1.0000
  Ru  Ru3       1.0  0.24992  0.25000  0.04137  1.0000
  Ru  Ru4       1.0  0.24979  0.00639  0.11793  1.0000
  Ru  Ru5       1.0  0.25000  0.75000  0.87654  1.0000
  Ru  Ru6       1.0  0.25000  0.50000  0.95885  1.0000
  Ru  Ru7       1.0  0.24974  0.75000  0.04195  1.0000
  Ru  Ru8       1.0  0.24978  0.49362  0.11793  1.0000
  Ru  Ru9       1.0  0.75000  0.25000  0.87654  1.0000
  Ru  Ru10      1.0  0.75000  0.00000  0.95885  1.0000
  Ru  Ru11      1.0  0.74982  0.25000  0.03896  1.0000
  Ru  Ru12      1.0  0.74975  0.98493  0.11887  1.0000
  Ru  Ru13      1.0  0.75000  0.75000  0.87654  1.0000
  Ru  Ru14      1.0  0.75000  0.50000  0.95885  1.0000
  Ru  Ru15      1.0  0.75000  0.75000  0.03979  1.0000
  Ru  Ru16      1.0  0.74975  0.51507  0.11887  1.0000
  C   C1        1.0  0.24966  0.25000  0.13423  1.0000
