# generated using pymatgen
data_Li8Sc8Al8Pd8C
_symmetry_space_group_name_H-M   Pm
_cell_length_a   6.37868000
_cell_length_b   9.02082000
_cell_length_c   26.76560000
_cell_angle_alpha   90.00000000
_cell_angle_beta   90.00000000
_cell_angle_gamma   90.00000000
_symmetry_Int_Tables_number   6
_chemical_formula_structural   Li8Sc8Al8Pd8C
_chemical_formula_sum   'Li8 Sc8 Al8 Pd8 C1'
_cell_volume   1540.11735856
_cell_formula_units_Z   1
loop_
 _symmetry_equiv_pos_site_id
 _symmetry_equiv_pos_as_xyz
  1  'x, y, z'
  2  'x, -y, z'
loop_
 _atom_site_type_symbol
 _atom_site_label
 _atom_site_symmetry_multiplicity
 _atom_site_fract_x
 _atom_site_fract_y
 _atom_site_fract_z
 _atom_site_occupancy
  Li  Li0  2  0.25000000  0.24999000  0.87361000  1.0
  Li  Li1  2  0.25680000  0.23983000  0.04263000  1.0
  Li  Li2  1  0.61949000  0.50000000  0.17239000  1.0
  Li  Li3  1  0.62423000  0.00000000  0.17324000  1.0
  Li  Li4  1  0.75000000  0.00000000  0.95787000  1.0
  Li  Li5  1  0.75000000  0.50000000  0.95787000  1.0
  Sc  Sc6  2  -0.00000000  0.24999000  0.95787000  1.0
  Sc  Sc7  2  0.92978000  0.23230000  0.12417000  1.0
  Sc  Sc8  1  0.50000000  0.00000000  0.87361000  1.0
  Sc  Sc9  1  0.50000000  0.50000000  0.87361000  1.0
  Sc  Sc10  1  0.50488000  0.50000000  0.05080000  1.0
  Sc  Sc11  1  0.57507000  0.00000000  0.06664000  1.0
  Al  Al12  2  0.43269000  0.25428000  0.13177000  1.0
  Al  Al13  2  0.50000000  0.25001000  0.95787000  1.0
  Al  Al14  1  0.00000000  0.00000000  0.87361000  1.0
  Al  Al15  1  0.00000000  0.50000000  0.87361000  1.0
  Al  Al16  1  0.00650000  0.00000000  0.04301000  1.0
  Al  Al17  1  0.99992000  0.50000000  0.04195000  1.0
  Pd  Pd18  2  0.74390000  0.26303000  0.03416000  1.0
  Pd  Pd19  2  0.75000000  0.24999000  0.87361000  1.0
  Pd  Pd20  1  0.21996000  0.50000000  0.12183000  1.0
  Pd  Pd21  1  0.23490000  0.00000000  0.12392000  1.0
  Pd  Pd22  1  0.25000000  0.00000000  0.95787000  1.0
  Pd  Pd23  1  0.25000000  0.50000000  0.95787000  1.0
  C  C24  1  0.86284000  0.00000000  0.11597000  1.0
