data_image0
_chemical_formula_structural       Y4In12C
_chemical_formula_sum              "Y4 In12 C1"
_cell_length_a       9.34369
_cell_length_b       6.60698
_cell_length_c       24.9552
_cell_angle_alpha    90
_cell_angle_beta     90
_cell_angle_gamma    90

_space_group_name_H-M_alt    "P 1"
_space_group_IT_number       1

loop_
  _space_group_symop_operation_xyz
  'x, y, z'

loop_
  _atom_site_type_symbol
  _atom_site_label
  _atom_site_symmetry_multiplicity
  _atom_site_fract_x
  _atom_site_fract_y
  _atom_site_fract_z
  _atom_site_occupancy
  Y   Y1        1.0  0.00000  0.00000  0.90072  1.0000
  Y   Y2        1.0  1.00000  0.50000  0.02349  1.0000
  Y   Y3        1.0  0.50000  0.00000  0.90072  1.0000
  Y   Y4        1.0  0.50000  0.50000  0.04499  1.0000
  In  In1       1.0  0.00000  0.50000  0.90072  1.0000
  In  In2       1.0  0.25000  0.75000  0.96691  1.0000
  In  In3       1.0  0.25000  0.25000  0.96691  1.0000
  In  In4       1.0  1.00000  1.00000  0.03285  1.0000
  In  In5       1.0  0.20892  0.26116  0.11387  1.0000
  In  In6       1.0  0.20893  0.73885  0.11387  1.0000
  In  In7       1.0  0.50000  0.50000  0.90072  1.0000
  In  In8       1.0  0.75000  0.75000  0.96691  1.0000
  In  In9       1.0  0.75000  0.25000  0.96691  1.0000
  In  In10      1.0  0.50000  1.00000  0.04200  1.0000
  In  In11      1.0  0.79108  0.26116  0.11387  1.0000
  In  In12      1.0  0.79108  0.73885  0.11387  1.0000
  C   C1        1.0  1.00000  0.49994  0.11261  1.0000
