# generated using pymatgen
data_Li8Cu8Si8Pd8C
_symmetry_space_group_name_H-M   'P 1'
_cell_length_a   8.34156000
_cell_length_b   5.89837000
_cell_length_c   26.25620000
_cell_angle_alpha   90.00000000
_cell_angle_beta   90.00000000
_cell_angle_gamma   90.00000000
_symmetry_Int_Tables_number   1
_chemical_formula_structural   Li8Cu8Si8Pd8C
_chemical_formula_sum   'Li8 Cu8 Si8 Pd8 C1'
_cell_volume   1291.84724047
_cell_formula_units_Z   1
loop_
 _symmetry_equiv_pos_site_id
 _symmetry_equiv_pos_as_xyz
  1  'x, y, z'
loop_
 _atom_site_type_symbol
 _atom_site_label
 _atom_site_symmetry_multiplicity
 _atom_site_fract_x
 _atom_site_fract_y
 _atom_site_fract_z
 _atom_site_occupancy
  Li  Li0  1  0.75000000  0.25000000  0.03971000  1.0
  Li  Li1  1  0.25000000  0.25000000  0.03971000  1.0
  Li  Li2  1  0.00000000  0.75000000  0.11914000  1.0
  Li  Li3  1  0.50000000  0.75000000  0.11914000  1.0
  Li  Li4  1  0.26676000  0.24387000  0.86284000  1.0
  Li  Li5  1  0.73324000  0.24387000  0.86284000  1.0
  Li  Li6  1  0.50000000  0.75015000  0.96500000  1.0
  Li  Li7  1  0.00000000  0.74760000  0.96121000  1.0
  Cu  Cu8  1  0.75000000  0.00000000  0.11914000  1.0
  Cu  Cu9  1  0.25000000  0.00000000  0.11914000  1.0
  Cu  Cu10  1  0.50000000  0.50000000  0.03971000  1.0
  Cu  Cu11  1  0.00000000  0.50000000  0.03971000  1.0
  Cu  Cu12  1  0.25491000  0.00111000  0.95865000  1.0
  Cu  Cu13  1  0.74509000  0.00111000  0.95865000  1.0
  Cu  Cu14  1  0.00000000  0.46224000  0.89098000  1.0
  Cu  Cu15  1  0.50000000  0.51548000  0.88453000  1.0
  Si  Si16  1  0.75000000  0.75000000  0.03971000  1.0
  Si  Si17  1  0.25000000  0.75000000  0.03971000  1.0
  Si  Si18  1  0.00000000  0.25000000  0.11914000  1.0
  Si  Si19  1  0.50000000  0.25000000  0.11914000  1.0
  Si  Si20  1  0.22363000  0.74954000  0.87602000  1.0
  Si  Si21  1  0.77637000  0.74954000  0.87602000  1.0
  Si  Si22  1  0.50000000  0.23965000  0.95588000  1.0
  Si  Si23  1  0.00000000  0.25924000  0.96852000  1.0
  Pd  Pd24  1  0.00000000  0.00000000  0.03971000  1.0
  Pd  Pd25  1  0.50000000  0.00000000  0.03971000  1.0
  Pd  Pd26  1  0.25000000  0.50000000  0.11914000  1.0
  Pd  Pd27  1  0.75000000  0.50000000  0.11914000  1.0
  Pd  Pd28  1  0.50000000  0.95788000  0.88273000  1.0
  Pd  Pd29  1  0.00000000  0.04724000  0.89221000  1.0
  Pd  Pd30  1  0.74250000  0.49804000  0.95675000  1.0
  Pd  Pd31  1  0.25750000  0.49804000  0.95675000  1.0
  C  C32  1  0.00000000  0.74081000  0.85563000  1.0
