# generated using pymatgen
data_Li8Cu8Si8Pd8C
_symmetry_space_group_name_H-M   Pm
_cell_length_a   5.89837000
_cell_length_b   8.34156000
_cell_length_c   26.25620000
_cell_angle_alpha   90.00000000
_cell_angle_beta   90.00000000
_cell_angle_gamma   90.00000000
_symmetry_Int_Tables_number   6
_chemical_formula_structural   Li8Cu8Si8Pd8C
_chemical_formula_sum   'Li8 Cu8 Si8 Pd8 C1'
_cell_volume   1291.84724047
_cell_formula_units_Z   1
loop_
 _symmetry_equiv_pos_site_id
 _symmetry_equiv_pos_as_xyz
  1  'x, y, z'
  2  'x, -y, z'
loop_
 _atom_site_type_symbol
 _atom_site_label
 _atom_site_symmetry_multiplicity
 _atom_site_fract_x
 _atom_site_fract_y
 _atom_site_fract_z
 _atom_site_occupancy
  Li  Li0  2  0.24387000  0.26676000  0.13716000  1.0
  Li  Li1  2  0.25000000  0.25000000  0.96029000  1.0
  Li  Li2  1  0.74760000  0.00000000  0.03879000  1.0
  Li  Li3  1  0.75000000  0.00000000  0.88086000  1.0
  Li  Li4  1  0.75000000  0.50000000  0.88086000  1.0
  Li  Li5  1  0.75015000  0.50000000  0.03500000  1.0
  Cu  Cu6  2  0.00000000  0.25000000  0.88086000  1.0
  Cu  Cu7  2  0.00111000  0.25491000  0.04135000  1.0
  Si  Si8  2  0.74954000  0.22363000  0.12398000  1.0
  Si  Si9  2  0.75000000  0.25000000  0.96029000  1.0
  Si  Si10  1  0.23965000  0.50000000  0.04412000  1.0
  Si  Si11  1  0.25000000  0.00000000  0.88086000  1.0
  Si  Si12  1  0.25000000  0.50000000  0.88086000  1.0
  Si  Si13  1  0.25924000  0.00000000  0.03148000  1.0
  Cu  Cu14  1  0.46224000  0.00000000  0.10902000  1.0
  Cu  Cu15  1  0.50000000  0.00000000  0.96029000  1.0
  Cu  Cu16  1  0.50000000  0.50000000  0.96029000  1.0
  Cu  Cu17  1  0.51548000  0.50000000  0.11547000  1.0
  Pd  Pd18  2  0.49804000  0.25750000  0.04325000  1.0
  Pd  Pd19  2  0.50000000  0.25000000  0.88086000  1.0
  Pd  Pd20  1  0.00000000  0.00000000  0.96029000  1.0
  Pd  Pd21  1  0.00000000  0.50000000  0.96029000  1.0
  Pd  Pd22  1  0.04724000  0.00000000  0.10779000  1.0
  Pd  Pd23  1  0.95788000  0.50000000  0.11727000  1.0
  C  C24  1  0.74081000  0.00000000  0.14437000  1.0
