data_image0
_chemical_formula_structural       YScGaPdYScGaPdYScGaPdYScGaPdYScGaPdYScGaPdYScGaPdYScGaPdC
_chemical_formula_sum              "Y8 Sc8 Ga8 Pd8 C1"
_cell_length_a       7.06732
_cell_length_b       9.48206
_cell_length_c       27.392
_cell_angle_alpha    90
_cell_angle_beta     90
_cell_angle_gamma    90

_space_group_name_H-M_alt    "P 1"
_space_group_IT_number       1

loop_
  _space_group_symop_operation_xyz
  'x, y, z'

loop_
  _atom_site_type_symbol
  _atom_site_label
  _atom_site_symmetry_multiplicity
  _atom_site_fract_x
  _atom_site_fract_y
  _atom_site_fract_z
  _atom_site_occupancy
  Y   Y1        1.0  0.25000  0.00000  0.04498  1.0000
  Sc  Sc1       1.0  0.25000  0.25000  0.13493  1.0000
  Ga  Ga1       1.0  0.00000  0.00000  0.13493  1.0000
  Pd  Pd1       1.0  0.00000  0.25000  0.04498  1.0000
  Y   Y2        1.0  0.25000  0.00000  0.86507  1.0000
  Sc  Sc2       1.0  0.25000  0.25000  0.95502  1.0000
  Ga  Ga2       1.0  0.00000  0.00000  0.95502  1.0000
  Pd  Pd2       1.0  0.00000  0.25000  0.86507  1.0000
  Y   Y3        1.0  0.25000  0.50000  0.04498  1.0000
  Sc  Sc3       1.0  0.25000  0.75000  0.13493  1.0000
  Ga  Ga3       1.0  0.00000  0.50000  0.13493  1.0000
  Pd  Pd3       1.0  0.00000  0.75000  0.04498  1.0000
  Y   Y4        1.0  0.25000  0.50000  0.86507  1.0000
  Sc  Sc4       1.0  0.25000  0.75000  0.95502  1.0000
  Ga  Ga4       1.0  0.00000  0.50000  0.95502  1.0000
  Pd  Pd4       1.0  0.00000  0.75000  0.86507  1.0000
  Y   Y5        1.0  0.75000  0.00000  0.04498  1.0000
  Sc  Sc5       1.0  0.75000  0.25000  0.13493  1.0000
  Ga  Ga5       1.0  0.50000  0.00000  0.13493  1.0000
  Pd  Pd5       1.0  0.50000  0.25000  0.04498  1.0000
  Y   Y6        1.0  0.75000  0.00000  0.86507  1.0000
  Sc  Sc6       1.0  0.75000  0.25000  0.95502  1.0000
  Ga  Ga6       1.0  0.50000  0.00000  0.95502  1.0000
  Pd  Pd6       1.0  0.50000  0.25000  0.86507  1.0000
  Y   Y7        1.0  0.75000  0.50000  0.04498  1.0000
  Sc  Sc7       1.0  0.75000  0.75000  0.13493  1.0000
  Ga  Ga7       1.0  0.50000  0.50000  0.13493  1.0000
  Pd  Pd7       1.0  0.50000  0.75000  0.04498  1.0000
  Y   Y8        1.0  0.75000  0.50000  0.86507  1.0000
  Sc  Sc8       1.0  0.75000  0.75000  0.95502  1.0000
  Ga  Ga8       1.0  0.50000  0.50000  0.95502  1.0000
  Pd  Pd8       1.0  0.50000  0.75000  0.86507  1.0000
  C   C1        1.0  0.25000  0.00000  0.16414  1.0000
