# generated using pymatgen
data_Hf4Ni8Sn4CO
_symmetry_space_group_name_H-M   'P 1'
_cell_length_a   6.29417000
_cell_length_b   6.29417000
_cell_length_c   24.72060000
_cell_angle_alpha   90.00000000
_cell_angle_beta   90.00000000
_cell_angle_gamma   90.00000000
_symmetry_Int_Tables_number   1
_chemical_formula_structural   Hf4Ni8Sn4CO
_chemical_formula_sum   'Hf4 Ni8 Sn4 C1 O1'
_cell_volume   979.34552839
_cell_formula_units_Z   1
loop_
 _symmetry_equiv_pos_site_id
 _symmetry_equiv_pos_as_xyz
  1  'x, y, z'
loop_
 _atom_site_type_symbol
 _atom_site_label
 _atom_site_symmetry_multiplicity
 _atom_site_fract_x
 _atom_site_fract_y
 _atom_site_fract_z
 _atom_site_occupancy
  Hf  Hf0  1  0.50000000  0.99995000  0.90778000  1.0
  Hf  Hf1  1  0.00000000  0.49998000  0.90772000  1.0
  Hf  Hf2  1  0.50000000  0.50000000  0.03183000  1.0
  Hf  Hf3  1  0.00000000  0.00000000  0.03183000  1.0
  Ni  Ni4  1  0.73850000  0.26193000  0.96487000  1.0
  Ni  Ni5  1  0.25001000  0.75000000  0.09548000  1.0
  Ni  Ni6  1  0.73850000  0.73802000  0.96487000  1.0
  Ni  Ni7  1  0.25001000  0.25000000  0.09548000  1.0
  Ni  Ni8  1  0.26150000  0.73802000  0.96487000  1.0
  Ni  Ni9  1  0.74999000  0.25000000  0.09548000  1.0
  Ni  Ni10  1  0.26150000  0.26193000  0.96487000  1.0
  Ni  Ni11  1  0.74999000  0.75000000  0.09548000  1.0
  Sn  Sn12  1  0.50000000  0.00000000  0.03183000  1.0
  Sn  Sn13  1  0.50000000  0.49996000  0.89233000  1.0
  Sn  Sn14  1  0.00000000  0.00001000  0.90173000  1.0
  Sn  Sn15  1  0.00000000  0.50000000  0.03183000  1.0
  C  C16  1  0.00000000  0.00110000  0.72297000  1.0
  O  O17  1  0.00000000  0.99972000  0.67706000  1.0
