# generated using pymatgen
data_Hf4Ni8Sn4CO
_symmetry_space_group_name_H-M   Pm
_cell_length_a   6.29417000
_cell_length_b   6.29417000
_cell_length_c   24.72060000
_cell_angle_alpha   90.00000000
_cell_angle_beta   90.00000000
_cell_angle_gamma   90.00000000
_symmetry_Int_Tables_number   6
_chemical_formula_structural   Hf4Ni8Sn4CO
_chemical_formula_sum   'Hf4 Ni8 Sn4 C1 O1'
_cell_volume   979.34552839
_cell_formula_units_Z   1
loop_
 _symmetry_equiv_pos_site_id
 _symmetry_equiv_pos_as_xyz
  1  'x, y, z'
  2  'x, -y, z'
loop_
 _atom_site_type_symbol
 _atom_site_label
 _atom_site_symmetry_multiplicity
 _atom_site_fract_x
 _atom_site_fract_y
 _atom_site_fract_z
 _atom_site_occupancy
  Hf  Hf0  1  0.00000000  0.00000000  0.96817000  1.0
  Hf  Hf1  1  0.49998000  0.00000000  0.09228000  1.0
  Hf  Hf2  1  0.50000000  0.50000000  0.96817000  1.0
  Hf  Hf3  1  0.99995000  0.50000000  0.09222000  1.0
  Ni  Ni4  2  0.25000000  0.25001000  0.90452000  1.0
  Ni  Ni5  2  0.26193000  0.26150000  0.03513000  1.0
  Ni  Ni6  2  0.73802000  0.26150000  0.03513000  1.0
  Ni  Ni7  2  0.75000000  0.25001000  0.90452000  1.0
  Sn  Sn8  1  0.00000000  0.50000000  0.96817000  1.0
  Sn  Sn9  1  0.00001000  0.00000000  0.09827000  1.0
  Sn  Sn10  1  0.49996000  0.50000000  0.10767000  1.0
  Sn  Sn11  1  0.50000000  0.00000000  0.96817000  1.0
  C  C12  1  0.00110000  0.00000000  0.27703000  1.0
  O  O13  1  0.99972000  0.00000000  0.32294000  1.0
