# generated using pymatgen
data_Sc8In8Ni16C
_symmetry_space_group_name_H-M   'P 1'
_cell_length_a   8.98620000
_cell_length_b   6.35421000
_cell_length_c   26.73970000
_cell_angle_alpha   90.00000000
_cell_angle_beta   90.00000000
_cell_angle_gamma   90.00000000
_symmetry_Int_Tables_number   1
_chemical_formula_structural   Sc8In8Ni16C
_chemical_formula_sum   'Sc8 In8 Ni16 C1'
_cell_volume   1526.84226880
_cell_formula_units_Z   1
loop_
 _symmetry_equiv_pos_site_id
 _symmetry_equiv_pos_as_xyz
  1  'x, y, z'
loop_
 _atom_site_type_symbol
 _atom_site_label
 _atom_site_symmetry_multiplicity
 _atom_site_fract_x
 _atom_site_fract_y
 _atom_site_fract_z
 _atom_site_occupancy
  Sc  Sc0  1  0.00000000  0.50000000  0.12602000  1.0
  Sc  Sc1  1  0.25000000  0.00000000  0.04201000  1.0
  Sc  Sc2  1  0.75000000  0.00000000  0.04201000  1.0
  Sc  Sc3  1  0.50000000  0.50000000  0.12602000  1.0
  Sc  Sc4  1  0.50001000  0.50000000  0.96019000  1.0
  Sc  Sc5  1  0.74928000  0.00000000  0.87408000  1.0
  Sc  Sc6  1  0.25074000  0.00000000  0.87410000  1.0
  Sc  Sc7  1  0.00004000  0.50000000  0.95781000  1.0
  In  In8  1  0.75000000  0.50000000  0.04201000  1.0
  In  In9  1  0.00000000  0.00000000  0.12602000  1.0
  In  In10  1  0.25000000  0.50000000  0.04201000  1.0
  In  In11  1  0.50000000  0.00000000  0.12602000  1.0
  In  In12  1  0.25270000  0.50000000  0.87023000  1.0
  In  In13  1  0.49998000  0.00000000  0.95842000  1.0
  In  In14  1  0.74733000  0.50000000  0.87020000  1.0
  In  In15  1  0.00005000  0.00000000  0.95780000  1.0
  Ni  Ni16  1  0.00000000  0.25003000  0.04201000  1.0
  Ni  Ni17  1  0.50000000  0.75003000  0.04201000  1.0
  Ni  Ni18  1  0.00000000  0.74997000  0.04201000  1.0
  Ni  Ni19  1  0.50000000  0.24997000  0.04201000  1.0
  Ni  Ni20  1  0.75000000  0.75003000  0.12602000  1.0
  Ni  Ni21  1  0.25000000  0.25003000  0.12602000  1.0
  Ni  Ni22  1  0.75000000  0.24997000  0.12602000  1.0
  Ni  Ni23  1  0.25000000  0.74997000  0.12602000  1.0
  Ni  Ni24  1  0.50003000  0.27219000  0.88275000  1.0
  Ni  Ni25  1  0.00003000  0.71533000  0.87369000  1.0
  Ni  Ni26  1  0.50003000  0.72781000  0.88275000  1.0
  Ni  Ni27  1  0.00003000  0.28467000  0.87369000  1.0
  Ni  Ni28  1  0.25161000  0.75175000  0.95693000  1.0
  Ni  Ni29  1  0.74836000  0.24833000  0.95692000  1.0
  Ni  Ni30  1  0.25161000  0.24825000  0.95693000  1.0
  Ni  Ni31  1  0.74836000  0.75167000  0.95692000  1.0
  C  C32  1  0.00001000  0.00000000  0.86278000  1.0
