# generated using pymatgen
data_Hf8In8Au16C
_symmetry_space_group_name_H-M   'P 1'
_cell_length_a   6.82626000
_cell_length_b   9.65379000
_cell_length_c   27.24030000
_cell_angle_alpha   90.00000000
_cell_angle_beta   90.00000000
_cell_angle_gamma   90.00000000
_symmetry_Int_Tables_number   1
_chemical_formula_structural   Hf8In8Au16C
_chemical_formula_sum   'Hf8 In8 Au16 C1'
_cell_volume   1795.11617130
_cell_formula_units_Z   1
loop_
 _symmetry_equiv_pos_site_id
 _symmetry_equiv_pos_as_xyz
  1  'x, y, z'
loop_
 _atom_site_type_symbol
 _atom_site_label
 _atom_site_symmetry_multiplicity
 _atom_site_fract_x
 _atom_site_fract_y
 _atom_site_fract_z
 _atom_site_occupancy
  Hf  Hf0  1  0.00000000  0.50000000  0.86710000  1.0
  Hf  Hf1  1  0.50000000  0.75004000  0.95570000  1.0
  Hf  Hf2  1  0.50000000  0.24996000  0.95570000  1.0
  Hf  Hf3  1  0.00000000  0.00000000  0.86710000  1.0
  Hf  Hf4  1  0.00000000  0.00000000  0.04734000  1.0
  Hf  Hf5  1  0.50000000  0.25709000  0.12436000  1.0
  Hf  Hf6  1  0.50000000  0.74291000  0.12436000  1.0
  Hf  Hf7  1  0.00000000  0.50000000  0.05715000  1.0
  In  In8  1  0.00000000  0.25004000  0.95570000  1.0
  In  In9  1  0.50000000  0.50000000  0.86710000  1.0
  In  In10  1  0.00000000  0.74996000  0.95570000  1.0
  In  In11  1  0.50000000  0.00000000  0.86710000  1.0
  In  In12  1  0.00000000  0.76138000  0.14714000  1.0
  In  In13  1  0.50000000  0.00000000  0.04179000  1.0
  In  In14  1  0.00000000  0.23862000  0.14714000  1.0
  In  In15  1  0.50000000  0.50000000  0.04415000  1.0
  Au  Au16  1  0.25000000  0.50000000  0.95570000  1.0
  Au  Au17  1  0.75000000  0.00000000  0.95570000  1.0
  Au  Au18  1  0.75000000  0.50000000  0.95570000  1.0
  Au  Au19  1  0.25000000  0.00000000  0.95570000  1.0
  Au  Au20  1  0.75000000  0.25004000  0.86710000  1.0
  Au  Au21  1  0.25000000  0.74996000  0.86710000  1.0
  Au  Au22  1  0.25000000  0.25004000  0.86710000  1.0
  Au  Au23  1  0.75000000  0.74996000  0.86710000  1.0
  Au  Au24  1  0.28335000  0.00000000  0.13786000  1.0
  Au  Au25  1  0.70259000  0.50000000  0.15749000  1.0
  Au  Au26  1  0.71665000  0.00000000  0.13786000  1.0
  Au  Au27  1  0.29741000  0.50000000  0.15749000  1.0
  Au  Au28  1  0.76370000  0.75194000  0.04512000  1.0
  Au  Au29  1  0.23630000  0.24806000  0.04512000  1.0
  Au  Au30  1  0.23630000  0.75194000  0.04512000  1.0
  Au  Au31  1  0.76370000  0.24806000  0.04512000  1.0
  C  C32  1  0.00000000  0.50000000  0.13356000  1.0
