# generated using pymatgen
data_V8Ga8Fe16C
_symmetry_space_group_name_H-M   'P 1'
_cell_length_a   8.10855000
_cell_length_b   5.73361000
_cell_length_c   26.08140000
_cell_angle_alpha   90.00000000
_cell_angle_beta   90.00000000
_cell_angle_gamma   90.00000000
_symmetry_Int_Tables_number   1
_chemical_formula_structural   V8Ga8Fe16C
_chemical_formula_sum   'V8 Ga8 Fe16 C1'
_cell_volume   1212.55723634
_cell_formula_units_Z   1
loop_
 _symmetry_equiv_pos_site_id
 _symmetry_equiv_pos_as_xyz
  1  'x, y, z'
loop_
 _atom_site_type_symbol
 _atom_site_label
 _atom_site_symmetry_multiplicity
 _atom_site_fract_x
 _atom_site_fract_y
 _atom_site_fract_z
 _atom_site_occupancy
  V  V0  1  0.75000000  0.00000000  0.11659000  1.0
  V  V1  1  0.00000000  0.50000000  0.03886000  1.0
  V  V2  1  0.50000000  0.50000000  0.03886000  1.0
  V  V3  1  0.25000000  0.00000000  0.11659000  1.0
  V  V4  1  0.25238000  0.99585000  0.96193000  1.0
  V  V5  1  0.50000000  0.50845000  0.88563000  1.0
  V  V6  1  0.00000000  0.56655000  0.88673000  1.0
  V  V7  1  0.74762000  0.99585000  0.96193000  1.0
  Ga  Ga8  1  0.50000000  0.00000000  0.03886000  1.0
  Ga  Ga9  1  0.75000000  0.50000000  0.11659000  1.0
  Ga  Ga10  1  0.00000000  0.00000000  0.03886000  1.0
  Ga  Ga11  1  0.25000000  0.50000000  0.11659000  1.0
  Ga  Ga12  1  0.00000000  0.93701000  0.83825000  1.0
  Ga  Ga13  1  0.24713000  0.49561000  0.95945000  1.0
  Ga  Ga14  1  0.50000000  0.01434000  0.87446000  1.0
  Ga  Ga15  1  0.75287000  0.49561000  0.95945000  1.0
  Fe  Fe16  1  0.75000000  0.25000000  0.03886000  1.0
  Fe  Fe17  1  0.25000000  0.75000000  0.03886000  1.0
  Fe  Fe18  1  0.75000000  0.75000000  0.03886000  1.0
  Fe  Fe19  1  0.25000000  0.25000000  0.03886000  1.0
  Fe  Fe20  1  0.50000000  0.75000000  0.11659000  1.0
  Fe  Fe21  1  0.00000000  0.25000000  0.11659000  1.0
  Fe  Fe22  1  0.50000000  0.25000000  0.11659000  1.0
  Fe  Fe23  1  0.00000000  0.75000000  0.11659000  1.0
  Fe  Fe24  1  0.22851000  0.20972000  0.88262000  1.0
  Fe  Fe25  1  0.74623000  0.77086000  0.88330000  1.0
  Fe  Fe26  1  0.25377000  0.77086000  0.88330000  1.0
  Fe  Fe27  1  0.77149000  0.20972000  0.88262000  1.0
  Fe  Fe28  1  0.00000000  0.75576000  0.96151000  1.0
  Fe  Fe29  1  0.50000000  0.24797000  0.95937000  1.0
  Fe  Fe30  1  0.00000000  0.23559000  0.95378000  1.0
  Fe  Fe31  1  0.50000000  0.74962000  0.95892000  1.0
  C  C32  1  0.00000000  0.24557000  0.87217000  1.0
