# generated using pymatgen
data_Ti4Co8Si4CO
_symmetry_space_group_name_H-M   Cmm2
_cell_length_a   8.14881168
_cell_length_b   8.14881168
_cell_length_c   24.32160000
_cell_angle_alpha   90.00000000
_cell_angle_beta   90.00000000
_cell_angle_gamma   90.00000000
_symmetry_Int_Tables_number   35
_chemical_formula_structural   Ti4Co8Si4CO
_chemical_formula_sum   'Ti8 Co16 Si8 C2 O2'
_cell_volume   1615.03041167
_cell_formula_units_Z   2
loop_
 _symmetry_equiv_pos_site_id
 _symmetry_equiv_pos_as_xyz
  1  'x, y, z'
  2  '-x, -y, z'
  3  '-x, y, z'
  4  'x, -y, z'
  5  'x+1/2, y+1/2, z'
  6  '-x+1/2, -y+1/2, z'
  7  '-x+1/2, y+1/2, z'
  8  'x+1/2, -y+1/2, z'
loop_
 _atom_site_type_symbol
 _atom_site_label
 _atom_site_symmetry_multiplicity
 _atom_site_fract_x
 _atom_site_fract_y
 _atom_site_fract_z
 _atom_site_occupancy
  Ti  Ti0  4  0.00000000  0.25000000  0.91116000  1.0
  Ti  Ti1  4  0.25000000  0.00000000  0.02961000  1.0
  Co  Co2  4  0.25000000  0.25000000  0.08884000  1.0
  Co  Co3  4  0.25000000  0.25000000  0.97039000  1.0
  Co  Co4  2  0.00000000  0.00000000  0.08884000  1.0
  Co  Co5  2  0.00000000  0.00000000  0.97039000  1.0
  Co  Co6  2  0.00000000  0.50000000  0.08884000  1.0
  Co  Co7  2  0.00000000  0.50000000  0.97039000  1.0
  Si  Si8  4  0.00000000  0.25000000  0.02961000  1.0
  Si  Si9  4  0.25000000  0.00000000  0.91116000  1.0
  C  C10  2  0.00000000  0.50000000  0.16696000  1.0
  O  O11  2  0.00000000  0.50000000  0.21425000  1.0
