data_image0
_chemical_formula_structural       Li8In4Au4
_chemical_formula_sum              "Li8 In4 Au4"
_cell_length_a       6.60991
_cell_length_b       6.60991
_cell_length_c       24.9574
_cell_angle_alpha    90
_cell_angle_beta     90
_cell_angle_gamma    90

_space_group_name_H-M_alt    "P 1"
_space_group_IT_number       1

loop_
  _space_group_symop_operation_xyz
  'x, y, z'

loop_
  _atom_site_type_symbol
  _atom_site_label
  _atom_site_symmetry_multiplicity
  _atom_site_fract_x
  _atom_site_fract_y
  _atom_site_fract_z
  _atom_site_occupancy
  Li  Li1       1.0  0.99998  0.00062  0.03423  1.0000
  Li  Li2       1.0  0.50000  0.00000  0.90068  1.0000
  Li  Li3       1.0  0.00000  0.50000  0.90068  1.0000
  Li  Li4       1.0  0.50012  0.49968  0.03455  1.0000
  Li  Li5       1.0  0.24927  0.24918  0.11074  1.0000
  Li  Li6       1.0  0.25000  0.75000  0.96689  1.0000
  Li  Li7       1.0  0.75126  0.75113  0.11084  1.0000
  Li  Li8       1.0  0.75000  0.25000  0.96689  1.0000
  In  In1       1.0  0.00000  0.00000  0.90068  1.0000
  In  In2       1.0  0.50000  0.50000  0.90068  1.0000
  In  In3       1.0  0.49984  0.99966  0.03331  1.0000
  In  In4       1.0  0.99952  0.49965  0.03316  1.0000
  Au  Au1       1.0  0.25000  0.25000  0.96689  1.0000
  Au  Au2       1.0  0.24901  0.74987  0.09304  1.0000
  Au  Au3       1.0  0.75000  0.75000  0.96689  1.0000
  Au  Au4       1.0  0.75013  0.24943  0.09319  1.0000
