# generated using pymatgen
data_Li2InAu
_symmetry_space_group_name_H-M   P1
_cell_length_a   6.60991000
_cell_length_b   6.60991000
_cell_length_c   24.95740000
_cell_angle_alpha   90.00000000
_cell_angle_beta   90.00000000
_cell_angle_gamma   90.00000000
_symmetry_Int_Tables_number   1
_chemical_formula_structural   Li2InAu
_chemical_formula_sum   'Li8 In4 Au4'
_cell_volume   1090.41152243
_cell_formula_units_Z   4
loop_
 _symmetry_equiv_pos_site_id
 _symmetry_equiv_pos_as_xyz
  1  'x, y, z'
loop_
 _atom_site_type_symbol
 _atom_site_label
 _atom_site_symmetry_multiplicity
 _atom_site_fract_x
 _atom_site_fract_y
 _atom_site_fract_z
 _atom_site_occupancy
  Li  Li0  1  0.00000000  0.50000000  0.90068000  1.0
  Li  Li1  1  0.24927000  0.24918000  0.11074000  1.0
  Li  Li2  1  0.25000000  0.75000000  0.96689000  1.0
  Li  Li3  1  0.50000000  0.00000000  0.90068000  1.0
  Li  Li4  1  0.50012000  0.49968000  0.03455000  1.0
  Li  Li5  1  0.75000000  0.25000000  0.96689000  1.0
  Li  Li6  1  0.75126000  0.75113000  0.11084000  1.0
  Li  Li7  1  0.99998000  0.00062000  0.03423000  1.0
  In  In8  1  0.00000000  0.00000000  0.90068000  1.0
  In  In9  1  0.49984000  0.99966000  0.03331000  1.0
  In  In10  1  0.50000000  0.50000000  0.90068000  1.0
  In  In11  1  0.99952000  0.49965000  0.03316000  1.0
  Au  Au12  1  0.24901000  0.74987000  0.09304000  1.0
  Au  Au13  1  0.25000000  0.25000000  0.96689000  1.0
  Au  Au14  1  0.75000000  0.75000000  0.96689000  1.0
  Au  Au15  1  0.75013000  0.24943000  0.09319000  1.0
