# generated using pymatgen
data_Zn16Rh16C
_symmetry_space_group_name_H-M   Pmm2
_cell_length_a   6.06651000
_cell_length_b   8.57934000
_cell_length_c   26.43450000
_cell_angle_alpha   90.00000000
_cell_angle_beta   90.00000000
_cell_angle_gamma   90.00000000
_symmetry_Int_Tables_number   25
_chemical_formula_structural   Zn16Rh16C
_chemical_formula_sum   'Zn16 Rh16 C1'
_cell_volume   1375.82721974
_cell_formula_units_Z   1
loop_
 _symmetry_equiv_pos_site_id
 _symmetry_equiv_pos_as_xyz
  1  'x, y, z'
  2  '-x, -y, z'
  3  '-x, y, z'
  4  'x, -y, z'
loop_
 _atom_site_type_symbol
 _atom_site_label
 _atom_site_symmetry_multiplicity
 _atom_site_fract_x
 _atom_site_fract_y
 _atom_site_fract_z
 _atom_site_occupancy
  Zn  Zn0  4  0.24716000  0.25109000  0.04062000  1.0
  Zn  Zn1  4  0.25000000  0.25000000  0.87829000  1.0
  Zn  Zn2  2  0.22992000  0.50000000  0.12571000  1.0
  Zn  Zn3  2  0.25000000  0.00000000  0.95943000  1.0
  Zn  Zn4  2  0.25000000  0.50000000  0.95943000  1.0
  Zn  Zn5  2  0.30797000  0.00000000  0.12341000  1.0
  Rh  Rh6  2  0.00000000  0.21392000  0.12489000  1.0
  Rh  Rh7  2  0.00000000  0.25000000  0.95943000  1.0
  Rh  Rh8  2  0.50000000  0.25000000  0.95943000  1.0
  Rh  Rh9  2  0.50000000  0.27037000  0.11893000  1.0
  Rh  Rh10  1  0.00000000  0.00000000  0.04069000  1.0
  Rh  Rh11  1  0.00000000  0.00000000  0.87829000  1.0
  Rh  Rh12  1  0.00000000  0.50000000  0.04292000  1.0
  Rh  Rh13  1  0.00000000  0.50000000  0.87829000  1.0
  Rh  Rh14  1  0.50000000  0.00000000  0.03752000  1.0
  Rh  Rh15  1  0.50000000  0.00000000  0.87829000  1.0
  Rh  Rh16  1  0.50000000  0.50000000  0.04020000  1.0
  Rh  Rh17  1  0.50000000  0.50000000  0.87829000  1.0
  C  C18  1  0.00000000  0.00000000  0.14501000  1.0
