data_image0
_chemical_formula_structural       Sc8Al8Ga8Pd8C
_chemical_formula_sum              "Sc8 Al8 Ga8 Pd8 C1"
_cell_length_a       6.45143
_cell_length_b       9.1237
_cell_length_c       26.8428
_cell_angle_alpha    90
_cell_angle_beta     90
_cell_angle_gamma    90

_space_group_name_H-M_alt    "P 1"
_space_group_IT_number       1

loop_
  _space_group_symop_operation_xyz
  'x, y, z'

loop_
  _atom_site_type_symbol
  _atom_site_label
  _atom_site_symmetry_multiplicity
  _atom_site_fract_x
  _atom_site_fract_y
  _atom_site_fract_z
  _atom_site_occupancy
  Sc  Sc1       1.0  0.00000  0.25000  0.95751  1.0000
  Sc  Sc2       1.0  0.00000  0.75000  0.95751  1.0000
  Sc  Sc3       1.0  0.50000  0.50000  0.87254  1.0000
  Sc  Sc4       1.0  0.50000  0.00000  0.87254  1.0000
  Sc  Sc5       1.0  0.98161  0.72364  0.12767  1.0000
  Sc  Sc6       1.0  0.98160  0.27638  0.12767  1.0000
  Sc  Sc7       1.0  0.50035  0.00000  0.04847  1.0000
  Sc  Sc8       1.0  0.51645  0.50000  0.04572  1.0000
  Al  Al1       1.0  0.00000  0.00000  0.87254  1.0000
  Al  Al2       1.0  0.00000  0.50000  0.87254  1.0000
  Al  Al3       1.0  0.50000  0.75000  0.95751  1.0000
  Al  Al4       1.0  0.50000  0.25000  0.95751  1.0000
  Al  Al5       1.0  0.00011  0.50000  0.04384  1.0000
  Al  Al6       1.0  0.98975  1.00000  0.04485  1.0000
  Al  Al7       1.0  0.50746  0.22785  0.12635  1.0000
  Al  Al8       1.0  0.50746  0.77216  0.12635  1.0000
  Ga  Ga1       1.0  0.75000  0.00000  0.95751  1.0000
  Ga  Ga2       1.0  0.75000  0.50000  0.95751  1.0000
  Ga  Ga3       1.0  0.25000  0.25000  0.87254  1.0000
  Ga  Ga4       1.0  0.25000  0.75000  0.87254  1.0000
  Ga  Ga5       1.0  0.68330  0.50000  0.15712  1.0000
  Ga  Ga6       1.0  0.78030  0.00000  0.15748  1.0000
  Ga  Ga7       1.0  0.24729  0.74724  0.04229  1.0000
  Ga  Ga8       1.0  0.24728  0.25276  0.04229  1.0000
  Pd  Pd1       1.0  0.25000  0.00000  0.95751  1.0000
  Pd  Pd2       1.0  0.25000  0.50000  0.95751  1.0000
  Pd  Pd3       1.0  0.75000  0.25000  0.87254  1.0000
  Pd  Pd4       1.0  0.75000  0.75000  0.87254  1.0000
  Pd  Pd5       1.0  0.28405  0.50000  0.12400  1.0000
  Pd  Pd6       1.0  0.16477  0.00001  0.13165  1.0000
  Pd  Pd7       1.0  0.75202  0.74951  0.04035  1.0000
  Pd  Pd8       1.0  0.75204  0.25049  0.04035  1.0000
  C   C1        1.0  0.48918  0.00000  0.13151  1.0000
