# generated using pymatgen
data_Sc8Al8Ga8Pd8C
_symmetry_space_group_name_H-M   Pm
_cell_length_a   6.45143000
_cell_length_b   9.12370000
_cell_length_c   26.84280000
_cell_angle_alpha   90.00000000
_cell_angle_beta   90.00000000
_cell_angle_gamma   90.00000000
_symmetry_Int_Tables_number   6
_chemical_formula_structural   Sc8Al8Ga8Pd8C
_chemical_formula_sum   'Sc8 Al8 Ga8 Pd8 C1'
_cell_volume   1579.99168571
_cell_formula_units_Z   1
loop_
 _symmetry_equiv_pos_site_id
 _symmetry_equiv_pos_as_xyz
  1  'x, y, z'
  2  'x, -y, z'
loop_
 _atom_site_type_symbol
 _atom_site_label
 _atom_site_symmetry_multiplicity
 _atom_site_fract_x
 _atom_site_fract_y
 _atom_site_fract_z
 _atom_site_occupancy
  Sc  Sc0  2  0.00000000  0.25000000  0.95751000  1.0
  Sc  Sc1  2  0.98161000  0.27636000  0.12767000  1.0
  Sc  Sc2  1  0.50000000  0.00000000  0.87254000  1.0
  Sc  Sc3  1  0.50000000  0.50000000  0.87254000  1.0
  Sc  Sc4  1  0.50035000  0.00000000  0.04847000  1.0
  Sc  Sc5  1  0.51645000  0.50000000  0.04572000  1.0
  Al  Al6  2  0.50000000  0.25000000  0.95751000  1.0
  Al  Al7  2  0.50746000  0.22785000  0.12635000  1.0
  Al  Al8  1  0.00000000  0.00000000  0.87254000  1.0
  Al  Al9  1  0.00000000  0.50000000  0.87254000  1.0
  Al  Al10  1  0.00011000  0.50000000  0.04384000  1.0
  Al  Al11  1  0.98975000  0.00000000  0.04485000  1.0
  Ga  Ga12  2  0.24729000  0.25276000  0.04229000  1.0
  Ga  Ga13  2  0.25000000  0.25000000  0.87254000  1.0
  Ga  Ga14  1  0.68330000  0.50000000  0.15712000  1.0
  Ga  Ga15  1  0.75000000  0.00000000  0.95751000  1.0
  Ga  Ga16  1  0.75000000  0.50000000  0.95751000  1.0
  Ga  Ga17  1  0.78030000  0.00000000  0.15748000  1.0
  Pd  Pd18  2  0.75000000  0.25000000  0.87254000  1.0
  Pd  Pd19  2  0.75202000  0.25049000  0.04035000  1.0
  Pd  Pd20  1  0.16477000  0.00000000  0.13165000  1.0
  Pd  Pd21  1  0.25000000  0.00000000  0.95751000  1.0
  Pd  Pd22  1  0.25000000  0.50000000  0.95751000  1.0
  Pd  Pd23  1  0.28405000  0.50000000  0.12400000  1.0
  C  C24  1  0.48918000  0.00000000  0.13151000  1.0
