# generated using pymatgen
data_Y4In4Cu4Pd4CO
_symmetry_space_group_name_H-M   'P 1'
_cell_length_a   6.76944000
_cell_length_b   6.76944000
_cell_length_c   25.07710000
_cell_angle_alpha   90.00000000
_cell_angle_beta   90.00000000
_cell_angle_gamma   90.00000000
_symmetry_Int_Tables_number   1
_chemical_formula_structural   Y4In4Cu4Pd4CO
_chemical_formula_sum   'Y4 In4 Cu4 Pd4 C1 O1'
_cell_volume   1149.16607985
_cell_formula_units_Z   1
loop_
 _symmetry_equiv_pos_site_id
 _symmetry_equiv_pos_as_xyz
  1  'x, y, z'
loop_
 _atom_site_type_symbol
 _atom_site_label
 _atom_site_symmetry_multiplicity
 _atom_site_fract_x
 _atom_site_fract_y
 _atom_site_fract_z
 _atom_site_occupancy
  Y  Y0  1  0.75049500  0.24950500  0.03550000  1
  Y  Y1  1  0.25000000  0.25000000  0.89877000  1
  Y  Y2  1  0.75000000  0.75000000  0.89877000  1
  Y  Y3  1  0.24950500  0.75049500  0.03550000  1
  In  In4  1  0.74805000  0.74805000  0.03734000  1
  In  In5  1  0.25000000  0.75000000  0.89877000  1
  In  In6  1  0.75000000  0.25000000  0.89877000  1
  In  In7  1  0.25195000  0.25195000  0.03734000  1
  Cu  Cu8  1  1.00000000  0.50000000  0.09895000  1
  Cu  Cu9  1  0.50000000  0.50000000  0.96626000  1
  Cu  Cu10  1  1.00000000  0.00000000  0.96626000  1
  Cu  Cu11  1  0.50000000  0.00000000  0.09895000  1
  Pd  Pd12  1  0.50000000  0.50000000  0.10390000  1
  Pd  Pd13  1  1.00000000  0.50000000  0.96626000  1
  Pd  Pd14  1  0.50000000  0.00000000  0.96626000  1
  Pd  Pd15  1  1.00000000  0.00000000  0.09689000  1
  C  C16  1  0.50000000  0.50000000  0.18371000  1
  O  O17  1  0.50000000  0.50000000  0.22944000  1
