# generated using pymatgen
data_Li8Y8Mg8In8CO
_symmetry_space_group_name_H-M   P1
_cell_length_a   7.08651000
_cell_length_b   10.02180000
_cell_length_c   27.51640000
_cell_angle_alpha   90.00000000
_cell_angle_beta   90.00000000
_cell_angle_gamma   90.00000000
_symmetry_Int_Tables_number   1
_chemical_formula_structural   Li8Y8Mg8In8CO
_chemical_formula_sum   'Li8 Y8 Mg8 In8 C1 O1'
_cell_volume   1954.20333395
_cell_formula_units_Z   1
loop_
 _symmetry_equiv_pos_site_id
 _symmetry_equiv_pos_as_xyz
  1  'x, y, z'
loop_
 _atom_site_type_symbol
 _atom_site_label
 _atom_site_symmetry_multiplicity
 _atom_site_fract_x
 _atom_site_fract_y
 _atom_site_fract_z
 _atom_site_occupancy
  Li  Li0  1  -0.00000000  0.25000000  0.95447000  1.0
  Li  Li1  1  -0.00000000  0.75000000  0.95447000  1.0
  Li  Li2  1  0.48144000  0.00104000  0.05316000  1.0
  Li  Li3  1  0.48351000  0.49705000  0.05298000  1.0
  Li  Li4  1  0.50000000  0.00000000  0.86342000  1.0
  Li  Li5  1  0.50000000  0.50000000  0.86342000  1.0
  Li  Li6  1  0.91231000  0.25105000  0.15530000  1.0
  Li  Li7  1  0.99972000  0.75145000  0.15457000  1.0
  Y  Y8  1  0.22871000  0.03101000  0.14811000  1.0
  Y  Y9  1  0.22895000  0.47133000  0.14794000  1.0
  Y  Y10  1  0.25000000  0.00000000  0.95447000  1.0
  Y  Y11  1  0.25000000  0.50000000  0.95447000  1.0
  Y  Y12  1  0.74169000  0.74979000  0.05146000  1.0
  Y  Y13  1  0.75000000  0.25000000  0.86342000  1.0
  Y  Y14  1  0.75000000  0.75000000  0.86342000  1.0
  Y  Y15  1  0.75948000  0.24918000  0.04498000  1.0
  Mg  Mg16  1  0.24731000  0.74887000  0.04882000  1.0
  Mg  Mg17  1  0.24948000  0.25018000  0.04731000  1.0
  Mg  Mg18  1  0.25000000  0.25000000  0.86342000  1.0
  Mg  Mg19  1  0.25000000  0.75000000  0.86342000  1.0
  Mg  Mg20  1  0.73800000  0.99248000  0.14013000  1.0
  Mg  Mg21  1  0.73910000  0.50896000  0.14037000  1.0
  Mg  Mg22  1  0.75000000  0.00000000  0.95447000  1.0
  Mg  Mg23  1  0.75000000  0.50000000  0.95447000  1.0
  In  In24  1  0.00000000  0.00000000  0.86342000  1.0
  In  In25  1  0.00000000  0.50000000  0.86342000  1.0
  In  In26  1  0.00522000  0.50163000  0.04865000  1.0
  In  In27  1  0.00633000  0.99715000  0.04880000  1.0
  In  In28  1  0.46232000  0.75074000  0.14567000  1.0
  In  In29  1  0.50000000  0.25000000  0.95447000  1.0
  In  In30  1  0.50000000  0.75000000  0.95447000  1.0
  In  In31  1  0.52001000  0.25100000  0.13655000  1.0
  C  C32  1  0.12833000  0.25050000  0.20263000  1.0
  O  O33  1  0.17828000  0.25137000  0.24386000  1.0
