# generated using pymatgen
data_Mg12In4CO
_symmetry_space_group_name_H-M   'P 1'
_cell_length_a   6.39187000
_cell_length_b   9.03947000
_cell_length_c   24.79390000
_cell_angle_alpha   90.00000000
_cell_angle_beta   90.00000000
_cell_angle_gamma   90.00000000
_symmetry_Int_Tables_number   1
_chemical_formula_structural   Mg12In4CO
_chemical_formula_sum   'Mg12 In4 C1 O1'
_cell_volume   1432.56965169
_cell_formula_units_Z   1
loop_
 _symmetry_equiv_pos_site_id
 _symmetry_equiv_pos_as_xyz
  1  'x, y, z'
loop_
 _atom_site_type_symbol
 _atom_site_label
 _atom_site_symmetry_multiplicity
 _atom_site_fract_x
 _atom_site_fract_y
 _atom_site_fract_z
 _atom_site_occupancy
  Mg  Mg0  1  0.50000000  0.00000000  0.90166000  1.0
  Mg  Mg1  1  0.74941000  0.25146000  0.96216000  1.0
  Mg  Mg2  1  0.25059000  0.25146000  0.96216000  1.0
  Mg  Mg3  1  0.00000000  0.00000000  0.03223000  1.0
  Mg  Mg4  1  0.25000000  0.25000000  0.09668000  1.0
  Mg  Mg5  1  0.75000000  0.25000000  0.09668000  1.0
  Mg  Mg6  1  0.50000000  0.50000000  0.89847000  1.0
  Mg  Mg7  1  0.74941000  0.74854000  0.96216000  1.0
  Mg  Mg8  1  0.25059000  0.74854000  0.96216000  1.0
  Mg  Mg9  1  0.00000000  0.50000000  0.03223000  1.0
  Mg  Mg10  1  0.25000000  0.75000000  0.09668000  1.0
  Mg  Mg11  1  0.75000000  0.75000000  0.09668000  1.0
  In  In12  1  0.00000000  0.00000000  0.90348000  1.0
  In  In13  1  0.50000000  0.00000000  0.03223000  1.0
  In  In14  1  0.00000000  0.50000000  0.89977000  1.0
  In  In15  1  0.50000000  0.50000000  0.03223000  1.0
  C  C16  1  0.50000000  0.00000000  0.81121000  1.0
  O  O17  1  0.50000000  0.00000000  0.76503000  1.0
