data_image0
_chemical_formula_structural       Al8V8Fe16C
_chemical_formula_sum              "Al8 V8 Fe16 C1"
_cell_length_a       5.71239
_cell_length_b       8.07854
_cell_length_c       26.0589
_cell_angle_alpha    90
_cell_angle_beta     90
_cell_angle_gamma    90

_space_group_name_H-M_alt    "P 1"
_space_group_IT_number       1

loop_
  _space_group_symop_operation_xyz
  'x, y, z'

loop_
  _atom_site_type_symbol
  _atom_site_label
  _atom_site_symmetry_multiplicity
  _atom_site_fract_x
  _atom_site_fract_y
  _atom_site_fract_z
  _atom_site_occupancy
  Al  Al1       1.0  0.00000  0.00000  0.88375  1.0000
  Al  Al2       1.0  0.50000  0.25000  0.96125  1.0000
  Al  Al3       1.0  0.50000  0.75000  0.96125  1.0000
  Al  Al4       1.0  0.00000  0.50000  0.88375  1.0000
  Al  Al5       1.0  1.00000  0.50000  0.03885  1.0000
  Al  Al6       1.0  0.50000  0.75108  0.12582  1.0000
  Al  Al7       1.0  0.50000  0.24892  0.12581  1.0000
  Al  Al8       1.0  1.00000  0.00000  0.03749  1.0000
  V   V1        1.0  0.00000  0.75000  0.96125  1.0000
  V   V2        1.0  0.50000  0.00000  0.88375  1.0000
  V   V3        1.0  0.00000  0.25000  0.96125  1.0000
  V   V4        1.0  0.50000  0.50000  0.88375  1.0000
  V   V5        1.0  1.00000  0.25081  0.11369  1.0000
  V   V6        1.0  0.50000  0.49999  0.04060  1.0000
  V   V7        1.0  0.00000  0.74919  0.11370  1.0000
  V   V8        1.0  0.50000  0.00001  0.03778  1.0000
  Fe  Fe1       1.0  0.25000  0.00000  0.96125  1.0000
  Fe  Fe2       1.0  0.75000  0.50000  0.96125  1.0000
  Fe  Fe3       1.0  0.75000  0.00000  0.96125  1.0000
  Fe  Fe4       1.0  0.25000  0.50000  0.96125  1.0000
  Fe  Fe5       1.0  0.75000  0.75000  0.88375  1.0000
  Fe  Fe6       1.0  0.25000  0.25000  0.88375  1.0000
  Fe  Fe7       1.0  0.25000  0.75000  0.88375  1.0000
  Fe  Fe8       1.0  0.75000  0.25000  0.88375  1.0000
  Fe  Fe9       1.0  0.25541  0.50001  0.11663  1.0000
  Fe  Fe10      1.0  0.75095  0.99999  0.11604  1.0000
  Fe  Fe11      1.0  0.74459  0.50001  0.11663  1.0000
  Fe  Fe12      1.0  0.24906  0.99999  0.11604  1.0000
  Fe  Fe13      1.0  0.74784  0.24831  0.04072  1.0000
  Fe  Fe14      1.0  0.25215  0.75169  0.04072  1.0000
  Fe  Fe15      1.0  0.25216  0.24831  0.04072  1.0000
  Fe  Fe16      1.0  0.74785  0.75169  0.04072  1.0000
  C   C1        1.0  0.50000  0.00000  0.15588  1.0000
