# generated using pymatgen
data_Y4Sc4In4Pd4CO
_symmetry_space_group_name_H-M   P1
_cell_length_a   6.06590000
_cell_length_b   10.11530000
_cell_length_c   24.38870000
_cell_angle_alpha   90.00000000
_cell_angle_beta   90.00000000
_cell_angle_gamma   90.00000000
_symmetry_Int_Tables_number   1
_chemical_formula_structural   Y4Sc4In4Pd4CO
_chemical_formula_sum   'Y4 Sc4 In4 Pd4 C1 O1'
_cell_volume   1496.45156789
_cell_formula_units_Z   1
loop_
 _symmetry_equiv_pos_site_id
 _symmetry_equiv_pos_as_xyz
  1  'x, y, z'
loop_
 _atom_site_type_symbol
 _atom_site_label
 _atom_site_symmetry_multiplicity
 _atom_site_fract_x
 _atom_site_fract_y
 _atom_site_fract_z
 _atom_site_occupancy
  Y  Y0  1  0.14807000  0.24716000  0.03036000  1.0
  Y  Y1  1  0.14849000  0.75300000  0.03029000  1.0
  Y  Y2  1  0.55242000  0.25000000  0.91003000  1.0
  Y  Y3  1  0.55242000  0.75000000  0.91003000  1.0
  Sc  Sc4  1  0.61061000  0.49981000  0.08092000  1.0
  Sc  Sc5  1  0.64031000  0.00070000  0.08253000  1.0
  Sc  Sc6  1  0.86828000  0.00000000  0.97001000  1.0
  Sc  Sc7  1  0.86828000  0.50000000  0.97001000  1.0
  In  In8  1  0.11000000  0.50025000  0.10493000  1.0
  In  In9  1  0.13733000  0.00008000  0.11083000  1.0
  In  In10  1  0.36828000  0.00000000  0.97001000  1.0
  In  In11  1  0.36828000  0.50000000  0.97001000  1.0
  Pd  Pd12  1  0.05242000  0.25000000  0.91003000  1.0
  Pd  Pd13  1  0.05242000  0.75000000  0.91003000  1.0
  Pd  Pd14  1  0.64732000  0.25459000  0.01847000  1.0
  Pd  Pd15  1  0.64757000  0.74533000  0.01845000  1.0
  C  C16  1  0.67907000  0.00016000  0.17554000  1.0
  O  O17  1  0.69766000  0.99984000  0.22261000  1.0
