# generated using pymatgen
data_Ta8Co24C
_symmetry_space_group_name_H-M   P4mm
_cell_length_a   7.30495000
_cell_length_b   7.30495000
_cell_length_c   25.47870000
_cell_angle_alpha   90.00000000
_cell_angle_beta   90.00000000
_cell_angle_gamma   90.00000000
_symmetry_Int_Tables_number   99
_chemical_formula_structural   Ta8Co24C
_chemical_formula_sum   'Ta8 Co24 C1'
_cell_volume   1359.60189294
_cell_formula_units_Z   1
loop_
 _symmetry_equiv_pos_site_id
 _symmetry_equiv_pos_as_xyz
  1  'x, y, z'
  2  '-y, x, z'
  3  '-x, -y, z'
  4  'y, -x, z'
  5  '-x, y, z'
  6  'y, x, z'
  7  'x, -y, z'
  8  '-y, -x, z'
loop_
 _atom_site_type_symbol
 _atom_site_label
 _atom_site_symmetry_multiplicity
 _atom_site_fract_x
 _atom_site_fract_y
 _atom_site_fract_z
 _atom_site_occupancy
  Ta  Ta0  2  0.00000000  0.50000000  0.03584000  1.0
  Ta  Ta1  2  0.00000000  0.50000000  0.89248000  1.0
  Ta  Ta2  1  0.00000000  0.00000000  0.03584000  1.0
  Ta  Ta3  1  0.00000000  0.00000000  0.89248000  1.0
  Ta  Ta4  1  0.50000000  0.50000000  0.03584000  1.0
  Ta  Ta5  1  0.50000000  0.50000000  0.89248000  1.0
  Co  Co6  4  0.00000000  0.25000000  0.10752000  1.0
  Co  Co7  4  0.00000000  0.25000000  0.96416000  1.0
  Co  Co8  4  0.25000000  0.25000000  0.03584000  1.0
  Co  Co9  4  0.25000000  0.25000000  0.89248000  1.0
  Co  Co10  4  0.25000000  0.50000000  0.10752000  1.0
  Co  Co11  4  0.25000000  0.50000000  0.96416000  1.0
  C  C12  1  0.00000000  0.00000000  0.13891000  1.0
