# generated using pymatgen
data_Li16Al8Rh8C
_symmetry_space_group_name_H-M   'P 1'
_cell_length_a   8.51164000
_cell_length_b   6.01864000
_cell_length_c   26.38370000
_cell_angle_alpha   90.00000000
_cell_angle_beta   90.00000000
_cell_angle_gamma   90.00000000
_symmetry_Int_Tables_number   1
_chemical_formula_structural   Li16Al8Rh8C
_chemical_formula_sum   'Li16 Al8 Rh8 C1'
_cell_volume   1351.59729550
_cell_formula_units_Z   1
loop_
 _symmetry_equiv_pos_site_id
 _symmetry_equiv_pos_as_xyz
  1  'x, y, z'
loop_
 _atom_site_type_symbol
 _atom_site_label
 _atom_site_symmetry_multiplicity
 _atom_site_fract_x
 _atom_site_fract_y
 _atom_site_fract_z
 _atom_site_occupancy
  Li  Li0  1  0.75000000  0.00000000  0.04033000  1.0
  Li  Li1  1  0.00000000  0.50000000  0.12098000  1.0
  Li  Li2  1  0.25000000  0.00000000  0.04033000  1.0
  Li  Li3  1  0.50000000  0.50000000  0.12098000  1.0
  Li  Li4  1  0.25000000  0.25000000  0.12098000  1.0
  Li  Li5  1  0.75000000  0.25000000  0.12098000  1.0
  Li  Li6  1  0.50000000  0.75000000  0.04033000  1.0
  Li  Li7  1  0.00000000  0.75000000  0.04033000  1.0
  Li  Li8  1  0.24796000  0.01342000  0.85774000  1.0
  Li  Li9  1  0.50000000  0.49749000  0.96109000  1.0
  Li  Li10  1  0.75204000  0.01342000  0.85774000  1.0
  Li  Li11  1  0.00000000  0.51460000  0.96483000  1.0
  Li  Li12  1  0.75263000  0.23269000  0.96114000  1.0
  Li  Li13  1  0.24737000  0.23269000  0.96114000  1.0
  Li  Li14  1  0.00000000  0.72200000  0.86650000  1.0
  Li  Li15  1  0.50000000  0.75109000  0.87658000  1.0
  Al  Al16  1  0.00000000  0.00000000  0.12098000  1.0
  Al  Al17  1  0.25000000  0.50000000  0.04033000  1.0
  Al  Al18  1  0.75000000  0.50000000  0.04033000  1.0
  Al  Al19  1  0.50000000  0.00000000  0.12098000  1.0
  Al  Al20  1  0.50000000  0.99195000  0.96158000  1.0
  Al  Al21  1  0.73901000  0.47701000  0.88288000  1.0
  Al  Al22  1  0.26099000  0.47701000  0.88288000  1.0
  Al  Al23  1  0.00000000  0.98518000  0.95965000  1.0
  Rh  Rh24  1  0.00000000  0.25000000  0.04033000  1.0
  Rh  Rh25  1  0.50000000  0.25000000  0.04033000  1.0
  Rh  Rh26  1  0.75000000  0.75000000  0.12098000  1.0
  Rh  Rh27  1  0.25000000  0.75000000  0.12098000  1.0
  Rh  Rh28  1  0.50000000  0.24186000  0.88706000  1.0
  Rh  Rh29  1  0.00000000  0.26749000  0.88511000  1.0
  Rh  Rh30  1  0.25120000  0.75061000  0.95488000  1.0
  Rh  Rh31  1  0.74880000  0.75061000  0.95488000  1.0
  C  C32  1  0.00000000  0.04491000  0.84220000  1.0
