# generated using pymatgen
data_Li8Y8Mg8In8C
_symmetry_space_group_name_H-M   'P 1'
_cell_length_a   7.08651000
_cell_length_b   10.02180000
_cell_length_c   27.51640000
_cell_angle_alpha   90.00000000
_cell_angle_beta   90.00000000
_cell_angle_gamma   90.00000000
_symmetry_Int_Tables_number   1
_chemical_formula_structural   Li8Y8Mg8In8C
_chemical_formula_sum   'Li8 Y8 Mg8 In8 C1'
_cell_volume   1954.20333395
_cell_formula_units_Z   1
loop_
 _symmetry_equiv_pos_site_id
 _symmetry_equiv_pos_as_xyz
  1  'x, y, z'
loop_
 _atom_site_type_symbol
 _atom_site_label
 _atom_site_symmetry_multiplicity
 _atom_site_fract_x
 _atom_site_fract_y
 _atom_site_fract_z
 _atom_site_occupancy
  Li  Li0  1  0.00000000  0.75000000  0.95447000  1.0
  Li  Li1  1  0.00000000  0.25000000  0.95447000  1.0
  Li  Li2  1  0.50000000  0.50000000  0.86342000  1.0
  Li  Li3  1  0.50000000  0.00000000  0.86342000  1.0
  Li  Li4  1  0.02230000  0.24971000  0.16168000  1.0
  Li  Li5  1  0.06217000  0.74999000  0.17155000  1.0
  Li  Li6  1  0.50561000  0.00112000  0.04799000  1.0
  Li  Li7  1  0.50481000  0.49816000  0.04800000  1.0
  Y  Y8  1  0.75000000  0.00000000  0.95447000  1.0
  Y  Y9  1  0.75000000  0.50000000  0.95447000  1.0
  Y  Y10  1  0.25000000  0.75000000  0.86342000  1.0
  Y  Y11  1  0.25000000  0.25000000  0.86342000  1.0
  Y  Y12  1  0.77025000  0.52285000  0.14028000  1.0
  Y  Y13  1  0.77019000  0.97696000  0.14022000  1.0
  Y  Y14  1  0.25488000  0.24993000  0.05177000  1.0
  Y  Y15  1  0.24080000  0.75016000  0.04947000  1.0
  Mg  Mg16  1  0.25000000  0.00000000  0.95447000  1.0
  Mg  Mg17  1  0.25000000  0.50000000  0.95447000  1.0
  Mg  Mg18  1  0.75000000  0.75000000  0.86342000  1.0
  Mg  Mg19  1  0.75000000  0.25000000  0.86342000  1.0
  Mg  Mg20  1  0.26410000  0.48991000  0.13818000  1.0
  Mg  Mg21  1  0.26420000  0.01051000  0.13819000  1.0
  Mg  Mg22  1  0.75183000  0.25048000  0.04816000  1.0
  Mg  Mg23  1  0.75079000  0.74957000  0.05472000  1.0
  In  In24  1  0.00000000  0.00000000  0.86342000  1.0
  In  In25  1  1.00000000  0.50000000  0.86342000  1.0
  In  In26  1  0.50000000  0.25000000  0.95447000  1.0
  In  In27  1  0.50000000  0.75000000  0.95447000  1.0
  In  In28  1  0.00127000  0.49612000  0.04412000  1.0
  In  In29  1  0.00089000  0.00415000  0.04412000  1.0
  In  In30  1  0.46278000  0.74992000  0.14662000  1.0
  In  In31  1  0.52765000  0.24999000  0.14592000  1.0
  C  C32  1  0.78764000  0.74986000  0.14365000  1.0
