# generated using pymatgen
data_Li8Y8Mg8In8C
_symmetry_space_group_name_H-M   P1
_cell_length_a   7.08651000
_cell_length_b   10.02180000
_cell_length_c   27.51640000
_cell_angle_alpha   90.00000000
_cell_angle_beta   90.00000000
_cell_angle_gamma   90.00000000
_symmetry_Int_Tables_number   1
_chemical_formula_structural   Li8Y8Mg8In8C
_chemical_formula_sum   'Li8 Y8 Mg8 In8 C1'
_cell_volume   1954.20333395
_cell_formula_units_Z   1
loop_
 _symmetry_equiv_pos_site_id
 _symmetry_equiv_pos_as_xyz
  1  'x, y, z'
loop_
 _atom_site_type_symbol
 _atom_site_label
 _atom_site_symmetry_multiplicity
 _atom_site_fract_x
 _atom_site_fract_y
 _atom_site_fract_z
 _atom_site_occupancy
  Li  Li0  1  -0.00000000  0.25000000  0.95447000  1.0
  Li  Li1  1  -0.00000000  0.75000000  0.95447000  1.0
  Li  Li2  1  0.49439000  0.99888000  0.04799000  1.0
  Li  Li3  1  0.49519000  0.50184000  0.04800000  1.0
  Li  Li4  1  0.50000000  0.00000000  0.86342000  1.0
  Li  Li5  1  0.50000000  0.50000000  0.86342000  1.0
  Li  Li6  1  0.93783000  0.25001000  0.17155000  1.0
  Li  Li7  1  0.97770000  0.75029000  0.16168000  1.0
  Y  Y8  1  0.22975000  0.47715000  0.14028000  1.0
  Y  Y9  1  0.22981000  0.02304000  0.14022000  1.0
  Y  Y10  1  0.25000000  0.00000000  0.95447000  1.0
  Y  Y11  1  0.25000000  0.50000000  0.95447000  1.0
  Y  Y12  1  0.74512000  0.75007000  0.05177000  1.0
  Y  Y13  1  0.75000000  0.25000000  0.86342000  1.0
  Y  Y14  1  0.75000000  0.75000000  0.86342000  1.0
  Y  Y15  1  0.75920000  0.24984000  0.04947000  1.0
  Mg  Mg16  1  0.24817000  0.74952000  0.04816000  1.0
  Mg  Mg17  1  0.24921000  0.25043000  0.05472000  1.0
  Mg  Mg18  1  0.25000000  0.25000000  0.86342000  1.0
  Mg  Mg19  1  0.25000000  0.75000000  0.86342000  1.0
  Mg  Mg20  1  0.73580000  0.98949000  0.13819000  1.0
  Mg  Mg21  1  0.73590000  0.51009000  0.13818000  1.0
  Mg  Mg22  1  0.75000000  0.00000000  0.95447000  1.0
  Mg  Mg23  1  0.75000000  0.50000000  0.95447000  1.0
  In  In24  1  0.00000000  0.00000000  0.86342000  1.0
  In  In25  1  0.00000000  0.50000000  0.86342000  1.0
  In  In26  1  0.47235000  0.75001000  0.14592000  1.0
  In  In27  1  0.50000000  0.25000000  0.95447000  1.0
  In  In28  1  0.50000000  0.75000000  0.95447000  1.0
  In  In29  1  0.53722000  0.25008000  0.14662000  1.0
  In  In30  1  0.99873000  0.50388000  0.04412000  1.0
  In  In31  1  0.99911000  0.99585000  0.04412000  1.0
  C  C32  1  0.21236000  0.25014000  0.14365000  1.0
