# generated using pymatgen
data_Li16HCO
_symmetry_space_group_name_H-M   Pm
_cell_length_a   6.78403000
_cell_length_b   6.78403000
_cell_length_c   25.08800000
_cell_angle_alpha   90.00000000
_cell_angle_beta   90.00000000
_cell_angle_gamma   90.00000000
_symmetry_Int_Tables_number   6
_chemical_formula_structural   Li16HCO
_chemical_formula_sum   'Li16 H1 C1 O1'
_cell_volume   1154.62660557
_cell_formula_units_Z   1
loop_
 _symmetry_equiv_pos_site_id
 _symmetry_equiv_pos_as_xyz
  1  'x, y, z'
  2  'x, -y, z'
loop_
 _atom_site_type_symbol
 _atom_site_label
 _atom_site_symmetry_multiplicity
 _atom_site_fract_x
 _atom_site_fract_y
 _atom_site_fract_z
 _atom_site_occupancy
  Li  Li0  2  0.25000000  0.25000000  0.96620000  1.0
  Li  Li1  2  0.25068000  0.21519000  0.10434000  1.0
  Li  Li2  2  0.75000000  0.25000000  0.96620000  1.0
  Li  Li3  2  0.81082000  0.21887000  0.11604000  1.0
  Li  Li4  1  -0.00000000  0.50000000  0.89860000  1.0
  Li  Li5  1  0.00000000  0.00000000  0.89860000  1.0
  Li  Li6  1  0.00166000  0.50000000  0.03461000  1.0
  Li  Li7  1  0.00273000  0.00000000  0.03591000  1.0
  Li  Li8  1  0.50000000  0.00000000  0.89860000  1.0
  Li  Li9  1  0.50000000  0.50000000  0.89860000  1.0
  Li  Li10  1  0.51403000  0.50000000  0.03872000  1.0
  Li  Li11  1  0.52064000  0.00000000  0.02958000  1.0
  H  H12  1  0.95081000  0.00000000  0.19483000  1.0
  C  C13  1  0.03190000  0.00000000  0.11449000  1.0
  O  O14  1  0.88005000  0.00000000  0.16160000  1.0
