# generated using pymatgen
data_Pd12Pb4CO
_symmetry_space_group_name_H-M   Pmm2
_cell_length_a   5.88450000
_cell_length_b   8.32195000
_cell_length_c   24.41340000
_cell_angle_alpha   90.00000000
_cell_angle_beta   90.00000000
_cell_angle_gamma   90.00000000
_symmetry_Int_Tables_number   25
_chemical_formula_structural   Pd12Pb4CO
_chemical_formula_sum   'Pd12 Pb4 C1 O1'
_cell_volume   1195.53676541
_cell_formula_units_Z   1
loop_
 _symmetry_equiv_pos_site_id
 _symmetry_equiv_pos_as_xyz
  1  'x, y, z'
  2  '-x, -y, z'
  3  '-x, y, z'
  4  'x, -y, z'
loop_
 _atom_site_type_symbol
 _atom_site_label
 _atom_site_symmetry_multiplicity
 _atom_site_fract_x
 _atom_site_fract_y
 _atom_site_fract_z
 _atom_site_occupancy
  Pd  Pd0  4  0.24519000  0.25012000  0.96968000  1.0
  Pd  Pd1  4  0.25000000  0.25000000  0.09039000  1.0
  Pd  Pd2  1  0.00000000  0.00000000  0.03013000  1.0
  Pd  Pd3  1  0.00000000  0.50000000  0.03013000  1.0
  Pd  Pd4  1  0.50000000  0.00000000  0.91481000  1.0
  Pd  Pd5  1  0.50000000  0.50000000  0.91480000  1.0
  Pb  Pb6  1  0.00000000  0.00000000  0.90988000  1.0
  Pb  Pb7  1  0.00000000  0.50000000  0.90959000  1.0
  Pb  Pb8  1  0.50000000  0.00000000  0.03013000  1.0
  Pb  Pb9  1  0.50000000  0.50000000  0.03013000  1.0
  C  C10  1  0.00000000  0.00000000  0.74941000  1.0
  O  O11  1  0.00000000  0.00000000  0.70294000  1.0
