# generated using pymatgen
data_Li16Mg8In8CO
_symmetry_space_group_name_H-M   'P 1'
_cell_length_a   9.55351000
_cell_length_b   6.75535000
_cell_length_c   27.16510000
_cell_angle_alpha   90.00000000
_cell_angle_beta   90.00000000
_cell_angle_gamma   90.00000000
_symmetry_Int_Tables_number   1
_chemical_formula_structural   Li16Mg8In8CO
_chemical_formula_sum   'Li16 Mg8 In8 C1 O1'
_cell_volume   1753.16231087
_cell_formula_units_Z   1
loop_
 _symmetry_equiv_pos_site_id
 _symmetry_equiv_pos_as_xyz
  1  'x, y, z'
loop_
 _atom_site_type_symbol
 _atom_site_label
 _atom_site_symmetry_multiplicity
 _atom_site_fract_x
 _atom_site_fract_y
 _atom_site_fract_z
 _atom_site_occupancy
  Li  Li0  1  0.00000000  0.25000000  0.04396000  1.0
  Li  Li1  1  0.50000000  0.75000000  0.04396000  1.0
  Li  Li2  1  0.00000000  0.75000000  0.04396000  1.0
  Li  Li3  1  0.50000000  0.25000000  0.04396000  1.0
  Li  Li4  1  0.75000000  0.75000000  0.13188000  1.0
  Li  Li5  1  0.25000000  0.25000000  0.13188000  1.0
  Li  Li6  1  0.75000000  0.25000000  0.13188000  1.0
  Li  Li7  1  0.25000000  0.75000000  0.13188000  1.0
  Li  Li8  1  0.50000000  0.23708000  0.85857000  1.0
  Li  Li9  1  0.00000000  0.76174000  0.86063000  1.0
  Li  Li10  1  0.50000000  0.76164000  0.85788000  1.0
  Li  Li11  1  0.00000000  0.23872000  0.85995000  1.0
  Li  Li12  1  0.24985000  0.74913000  0.95878000  1.0
  Li  Li13  1  0.75002000  0.24917000  0.95813000  1.0
  Li  Li14  1  0.24998000  0.24917000  0.95813000  1.0
  Li  Li15  1  0.75015000  0.74913000  0.95878000  1.0
  Mg  Mg16  1  0.00000000  0.00000000  0.13188000  1.0
  Mg  Mg17  1  0.25000000  0.50000000  0.04396000  1.0
  Mg  Mg18  1  0.75000000  0.50000000  0.04396000  1.0
  Mg  Mg19  1  0.50000000  0.00000000  0.13188000  1.0
  Mg  Mg20  1  0.50000000  0.99715000  0.95159000  1.0
  Mg  Mg21  1  0.74789000  0.50043000  0.87187000  1.0
  Mg  Mg22  1  0.25211000  0.50043000  0.87187000  1.0
  Mg  Mg23  1  0.00000000  0.99857000  0.95215000  1.0
  In  In24  1  0.75000000  0.00000000  0.04396000  1.0
  In  In25  1  0.00000000  0.50000000  0.13188000  1.0
  In  In26  1  0.25000000  0.00000000  0.04396000  1.0
  In  In27  1  0.50000000  0.50000000  0.13188000  1.0
  In  In28  1  0.25120000  0.99580000  0.87032000  1.0
  In  In29  1  0.50000000  0.50143000  0.95113000  1.0
  In  In30  1  0.74880000  0.99580000  0.87032000  1.0
  In  In31  1  0.00000000  0.50124000  0.95091000  1.0
  C  C32  1  0.00000000  0.26766000  0.78492000  1.0
  O  O33  1  0.00000000  0.27246000  0.74275000  1.0
