# generated using pymatgen
data_LiYInCu
_symmetry_space_group_name_H-M   'P 1'
_cell_length_a   6.68415000
_cell_length_b   4.72641000
_cell_length_c   27.08960000
_cell_angle_alpha   90.00000000
_cell_angle_beta   90.00000000
_cell_angle_gamma   90.00000000
_symmetry_Int_Tables_number   1
_chemical_formula_structural   LiYInCu
_chemical_formula_sum   'Li4 Y4 In4 Cu4'
_cell_volume   855.81554803
_cell_formula_units_Z   4
loop_
 _symmetry_equiv_pos_site_id
 _symmetry_equiv_pos_as_xyz
  1  'x, y, z'
loop_
 _atom_site_type_symbol
 _atom_site_label
 _atom_site_symmetry_multiplicity
 _atom_site_fract_x
 _atom_site_fract_y
 _atom_site_fract_z
 _atom_site_occupancy
  Li  Li0  1  0.00000000  0.50000000  0.95638000  1.0
  Li  Li1  1  0.50000000  0.00000000  0.86915000  1.0
  Li  Li2  1  0.81915500  0.50000000  0.18162000  1.0
  Li  Li3  1  0.49507000  0.00000000  0.04707000  1.0
  Y  Y4  1  0.25000000  0.00000000  0.95638000  1.0
  Y  Y5  1  0.75000000  0.50000000  0.86915000  1.0
  Y  Y6  1  0.20389500  0.00000000  0.13126000  1.0
  Y  Y7  1  0.76281000  0.50000000  0.04956000  1.0
  In  In8  1  0.75000000  0.00000000  0.95638000  1.0
  In  In9  1  0.25000000  0.50000000  0.86915000  1.0
  In  In10  1  0.71778500  0.00000000  0.13508000  1.0
  In  In11  1  0.24865000  0.50000000  0.04296000  1.0
  Cu  Cu12  1  0.00000000  0.00000000  0.86915000  1.0
  Cu  Cu13  1  0.50000000  0.50000000  0.95638000  1.0
  Cu  Cu14  1  0.99927000  0.00000000  0.04081000  1.0
  Cu  Cu15  1  0.47816000  0.50000000  0.12648000  1.0
