# generated using pymatgen
data_Ti8In8Cu16CO
_symmetry_space_group_name_H-M   'P 1'
_cell_length_a   6.30953000
_cell_length_b   8.92302000
_cell_length_c   26.69230000
_cell_angle_alpha   90.00000000
_cell_angle_beta   90.00000000
_cell_angle_gamma   90.00000000
_symmetry_Int_Tables_number   1
_chemical_formula_structural   Ti8In8Cu16CO
_chemical_formula_sum   'Ti8 In8 Cu16 C1 O1'
_cell_volume   1502.77815508
_cell_formula_units_Z   1
loop_
 _symmetry_equiv_pos_site_id
 _symmetry_equiv_pos_as_xyz
  1  'x, y, z'
loop_
 _atom_site_type_symbol
 _atom_site_label
 _atom_site_symmetry_multiplicity
 _atom_site_fract_x
 _atom_site_fract_y
 _atom_site_fract_z
 _atom_site_occupancy
  Ti  Ti0  1  0.00000000  0.00000000  0.87464000  1.0
  Ti  Ti1  1  0.50000000  0.25000000  0.95821000  1.0
  Ti  Ti2  1  0.50000000  0.75000000  0.95821000  1.0
  Ti  Ti3  1  0.00000000  0.50000000  0.87464000  1.0
  Ti  Ti4  1  0.00001000  0.49432000  0.04312000  1.0
  Ti  Ti5  1  0.50003000  0.74999000  0.12235000  1.0
  Ti  Ti6  1  0.50003000  0.24998000  0.11883000  1.0
  Ti  Ti7  1  0.00003000  0.00568000  0.04313000  1.0
  In  In8  1  0.00000000  0.75000000  0.95821000  1.0
  In  In9  1  0.50000000  0.00000000  0.87464000  1.0
  In  In10  1  0.00000000  0.25000000  0.95821000  1.0
  In  In11  1  0.50000000  0.50000000  0.87464000  1.0
  In  In12  1  0.00008000  0.25001000  0.13093000  1.0
  In  In13  1  0.50001000  0.50810000  0.03954000  1.0
  In  In14  1  0.00005000  0.74998000  0.14091000  1.0
  In  In15  1  0.50002000  0.99182000  0.03954000  1.0
  Cu  Cu16  1  0.25000000  0.00000000  0.95821000  1.0
  Cu  Cu17  1  0.75000000  0.50000000  0.95821000  1.0
  Cu  Cu18  1  0.75000000  0.00000000  0.95821000  1.0
  Cu  Cu19  1  0.25000000  0.50000000  0.95821000  1.0
  Cu  Cu20  1  0.75000000  0.75000000  0.87464000  1.0
  Cu  Cu21  1  0.25000000  0.25000000  0.87464000  1.0
  Cu  Cu22  1  0.25000000  0.75000000  0.87464000  1.0
  Cu  Cu23  1  0.75000000  0.25000000  0.87464000  1.0
  Cu  Cu24  1  0.27372000  0.50163000  0.12567000  1.0
  Cu  Cu25  1  0.72632000  0.99832000  0.12567000  1.0
  Cu  Cu26  1  0.72634000  0.50164000  0.12566000  1.0
  Cu  Cu27  1  0.27377000  0.99833000  0.12568000  1.0
  Cu  Cu28  1  0.74509000  0.24995000  0.04104000  1.0
  Cu  Cu29  1  0.22436000  0.75000000  0.04702000  1.0
  Cu  Cu30  1  0.25496000  0.24995000  0.04104000  1.0
  Cu  Cu31  1  0.77570000  0.75000000  0.04702000  1.0
  C  C32  1  0.99820000  0.25029000  0.27756000  1.0
  O  O33  1  0.99992000  0.24981000  0.32007000  1.0
