# generated using pymatgen
data_Li8Y8In8Sn8CO
_symmetry_space_group_name_H-M   'P 1'
_cell_length_a   8.86856000
_cell_length_b   9.04200000
_cell_length_c   27.02490000
_cell_angle_alpha   90.00000000
_cell_angle_beta   90.00000000
_cell_angle_gamma   90.00000000
_symmetry_Int_Tables_number   1
_chemical_formula_structural   Li8Y8In8Sn8CO
_chemical_formula_sum   'Li8 Y8 In8 Sn8 C1 O1'
_cell_volume   2167.11374608
_cell_formula_units_Z   1
loop_
 _symmetry_equiv_pos_site_id
 _symmetry_equiv_pos_as_xyz
  1  'x, y, z'
loop_
 _atom_site_type_symbol
 _atom_site_label
 _atom_site_symmetry_multiplicity
 _atom_site_fract_x
 _atom_site_fract_y
 _atom_site_fract_z
 _atom_site_occupancy
  Li  Li0  1  0.24796000  0.24990000  0.13875000  1.0
  Li  Li1  1  0.25000000  0.25000000  0.95668000  1.0
  Li  Li2  1  0.24797000  0.75009000  0.13874000  1.0
  Li  Li3  1  0.25000000  0.75000000  0.95668000  1.0
  Li  Li4  1  0.75192000  0.24986000  0.13874000  1.0
  Li  Li5  1  0.75000000  0.25000000  0.95668000  1.0
  Li  Li6  1  0.75191000  0.75012000  0.13874000  1.0
  Li  Li7  1  0.75000000  0.75000000  0.95668000  1.0
  Y  Y8  1  0.25141000  0.00001000  0.04505000  1.0
  Y  Y9  1  0.25000000  0.00000000  0.87003000  1.0
  Y  Y10  1  0.25157000  0.49998000  0.04509000  1.0
  Y  Y11  1  0.25000000  0.50000000  0.87003000  1.0
  Y  Y12  1  0.74850000  0.99998000  0.04506000  1.0
  Y  Y13  1  0.75000000  0.00000000  0.87003000  1.0
  Y  Y14  1  0.74836000  0.50000000  0.04510000  1.0
  Y  Y15  1  0.75000000  0.50000000  0.87003000  1.0
  In  In16  1  0.00023000  0.99990000  0.13597000  1.0
  In  In17  1  0.00000000  0.00000000  0.95668000  1.0
  In  In18  1  0.99996000  0.49996000  0.13662000  1.0
  In  In19  1  0.00000000  0.50000000  0.95668000  1.0
  In  In20  1  0.49980000  0.99999000  0.14215000  1.0
  In  In21  1  0.50000000  0.00000000  0.95668000  1.0
  In  In22  1  0.49996000  0.50004000  0.14201000  1.0
  In  In23  1  0.50000000  0.50000000  0.95668000  1.0
  Sn  Sn24  1  0.99994000  0.25018000  0.05182000  1.0
  Sn  Sn25  1  0.00000000  0.25000000  0.87003000  1.0
  Sn  Sn26  1  0.99995000  0.74978000  0.05178000  1.0
  Sn  Sn27  1  0.00000000  0.75000000  0.87003000  1.0
  Sn  Sn28  1  0.49998000  0.24978000  0.05722000  1.0
  Sn  Sn29  1  0.50000000  0.25000000  0.87003000  1.0
  Sn  Sn30  1  0.49997000  0.75024000  0.05722000  1.0
  Sn  Sn31  1  0.50000000  0.75000000  0.87003000  1.0
  C  C32  1  0.01003000  0.00177000  0.29070000  1.0
  O  O33  1  0.99698000  0.99920000  0.33244000  1.0
