# generated using pymatgen
data_Be16Ni16CO
_symmetry_space_group_name_H-M   Pmm2
_cell_length_a   5.22839000
_cell_length_b   7.39406000
_cell_length_c   25.54550000
_cell_angle_alpha   90.00000000
_cell_angle_beta   90.00000000
_cell_angle_gamma   90.00000000
_symmetry_Int_Tables_number   25
_chemical_formula_structural   Be16Ni16CO
_chemical_formula_sum   'Be16 Ni16 C1 O1'
_cell_volume   987.56423460
_cell_formula_units_Z   1
loop_
 _symmetry_equiv_pos_site_id
 _symmetry_equiv_pos_as_xyz
  1  'x, y, z'
  2  '-x, -y, z'
  3  '-x, y, z'
  4  'x, -y, z'
loop_
 _atom_site_type_symbol
 _atom_site_label
 _atom_site_symmetry_multiplicity
 _atom_site_fract_x
 _atom_site_fract_y
 _atom_site_fract_z
 _atom_site_occupancy
  Be  Be0  2  0.00000000  0.25000000  0.89146000  1.0
  Be  Be1  2  0.00000000  0.25043000  0.03666000  1.0
  Be  Be2  2  0.50000000  0.24867000  0.03680000  1.0
  Be  Be3  2  0.50000000  0.25000000  0.89146000  1.0
  Be  Be4  1  0.00000000  0.00000000  0.11078000  1.0
  Be  Be5  1  0.00000000  0.00000000  0.96382000  1.0
  Be  Be6  1  0.00000000  0.50000000  0.10759000  1.0
  Be  Be7  1  0.00000000  0.50000000  0.96382000  1.0
  Be  Be8  1  0.50000000  0.00000000  0.10557000  1.0
  Be  Be9  1  0.50000000  0.00000000  0.96382000  1.0
  Be  Be10  1  0.50000000  0.50000000  0.10881000  1.0
  Be  Be11  1  0.50000000  0.50000000  0.96382000  1.0
  Ni  Ni12  4  0.25000000  0.25000000  0.96382000  1.0
  Ni  Ni13  4  0.25023000  0.25329000  0.10705000  1.0
  Ni  Ni14  2  0.24719000  0.00000000  0.03594000  1.0
  Ni  Ni15  2  0.25000000  0.00000000  0.89146000  1.0
  Ni  Ni16  2  0.25000000  0.50000000  0.89146000  1.0
  Ni  Ni17  2  0.25078000  0.50000000  0.03547000  1.0
  C  C18  1  0.00000000  0.00000000  0.17624000  1.0
  O  O19  1  0.00000000  0.00000000  0.22154000  1.0
