# generated using pymatgen
data_Li8Mg8In8Pd8CO
_symmetry_space_group_name_H-M   Pm
_cell_length_a   6.52273000
_cell_length_b   9.22454000
_cell_length_c   26.91840000
_cell_angle_alpha   90.00000000
_cell_angle_beta   90.00000000
_cell_angle_gamma   90.00000000
_symmetry_Int_Tables_number   6
_chemical_formula_structural   Li8Mg8In8Pd8CO
_chemical_formula_sum   'Li8 Mg8 In8 Pd8 C1 O1'
_cell_volume   1619.65815705
_cell_formula_units_Z   1
loop_
 _symmetry_equiv_pos_site_id
 _symmetry_equiv_pos_as_xyz
  1  'x, y, z'
  2  'x, -y, z'
loop_
 _atom_site_type_symbol
 _atom_site_label
 _atom_site_symmetry_multiplicity
 _atom_site_fract_x
 _atom_site_fract_y
 _atom_site_fract_z
 _atom_site_occupancy
  Li  Li0  2  0.25000000  0.25000000  0.95716000  1.0
  Li  Li1  2  0.26230000  0.25044000  0.13439000  1.0
  Li  Li2  1  0.74246000  0.50000000  0.04536000  1.0
  Li  Li3  1  0.74534000  0.00000000  0.04374000  1.0
  Li  Li4  1  0.75000000  0.00000000  0.87149000  1.0
  Li  Li5  1  0.75000000  0.50000000  0.87149000  1.0
  Mg  Mg6  2  0.49420000  0.25012000  0.04226000  1.0
  Mg  Mg7  2  0.50000000  0.25000000  0.87149000  1.0
  Mg  Mg8  1  -0.00000000  0.50000000  0.95716000  1.0
  Mg  Mg9  1  -0.00000000  0.00000000  0.95716000  1.0
  Mg  Mg10  1  0.98100000  0.00000000  0.13063000  1.0
  Mg  Mg11  1  0.98379000  0.50000000  0.13197000  1.0
  In  In12  2  0.00000000  0.25000000  0.87149000  1.0
  In  In13  2  0.00434000  0.24986000  0.04399000  1.0
  In  In14  1  0.49958000  0.50000000  0.13802000  1.0
  In  In15  1  0.50000000  0.00000000  0.95716000  1.0
  In  In16  1  0.50000000  0.50000000  0.95716000  1.0
  In  In17  1  0.50706000  0.00000000  0.13551000  1.0
  Pd  Pd18  2  0.73679000  0.25342000  0.12269000  1.0
  Pd  Pd19  2  0.75000000  0.25000000  0.95716000  1.0
  Pd  Pd20  1  0.25000000  0.00000000  0.87149000  1.0
  Pd  Pd21  1  0.25000000  0.50000000  0.87149000  1.0
  Pd  Pd22  1  0.25107000  0.00000000  0.04652000  1.0
  Pd  Pd23  1  0.25185000  0.50000000  0.04422000  1.0
  C  C24  1  0.01163000  0.00000000  0.21361000  1.0
  O  O25  1  0.01345000  0.00000000  0.25618000  1.0
