# generated using pymatgen
data_Ta8Al8Ni16CO
_symmetry_space_group_name_H-M   'P 1'
_cell_length_a   6.00328000
_cell_length_b   8.48992000
_cell_length_c   26.36740000
_cell_angle_alpha   90.00000000
_cell_angle_beta   90.00000000
_cell_angle_gamma   90.00000000
_symmetry_Int_Tables_number   1
_chemical_formula_structural   Ta8Al8Ni16CO
_chemical_formula_sum   'Ta8 Al8 Ni16 C1 O1'
_cell_volume   1343.87695099
_cell_formula_units_Z   1
loop_
 _symmetry_equiv_pos_site_id
 _symmetry_equiv_pos_as_xyz
  1  'x, y, z'
loop_
 _atom_site_type_symbol
 _atom_site_label
 _atom_site_symmetry_multiplicity
 _atom_site_fract_x
 _atom_site_fract_y
 _atom_site_fract_z
 _atom_site_occupancy
  Ta  Ta0  1  0.00000000  0.75000000  0.87926000  1.0
  Ta  Ta1  1  0.50000000  0.00000000  0.95975000  1.0
  Ta  Ta2  1  0.50000000  0.50000000  0.95975000  1.0
  Ta  Ta3  1  0.00000000  0.25000000  0.87926000  1.0
  Ta  Ta4  1  0.00000000  0.25313000  0.04029000  1.0
  Ta  Ta5  1  0.50000000  0.50000000  0.12214000  1.0
  Ta  Ta6  1  0.50000000  0.00000000  0.12155000  1.0
  Ta  Ta7  1  0.00000000  0.74687000  0.04029000  1.0
  Al  Al8  1  0.00000000  0.50000000  0.95975000  1.0
  Al  Al9  1  0.50000000  0.75000000  0.87926000  1.0
  Al  Al10  1  0.00000000  0.00000000  0.95975000  1.0
  Al  Al11  1  0.50000000  0.25000000  0.87926000  1.0
  Al  Al12  1  0.00000000  0.00000000  0.12129000  1.0
  Al  Al13  1  0.50000000  0.24656000  0.03983000  1.0
  Al  Al14  1  0.00000000  0.50000000  0.12023000  1.0
  Al  Al15  1  0.50000000  0.75344000  0.03983000  1.0
  Ni  Ni16  1  0.25000000  0.75000000  0.95975000  1.0
  Ni  Ni17  1  0.75000000  0.25000000  0.95975000  1.0
  Ni  Ni18  1  0.75000000  0.75000000  0.95975000  1.0
  Ni  Ni19  1  0.25000000  0.25000000  0.95975000  1.0
  Ni  Ni20  1  0.75000000  0.50000000  0.87926000  1.0
  Ni  Ni21  1  0.25000000  0.00000000  0.87926000  1.0
  Ni  Ni22  1  0.25000000  0.50000000  0.87926000  1.0
  Ni  Ni23  1  0.75000000  0.00000000  0.87926000  1.0
  Ni  Ni24  1  0.25328000  0.25085000  0.11583000  1.0
  Ni  Ni25  1  0.74672000  0.74915000  0.11583000  1.0
  Ni  Ni26  1  0.74672000  0.25085000  0.11583000  1.0
  Ni  Ni27  1  0.25328000  0.74915000  0.11583000  1.0
  Ni  Ni28  1  0.75859000  0.00000000  0.04007000  1.0
  Ni  Ni29  1  0.26825000  0.50000000  0.04300000  1.0
  Ni  Ni30  1  0.24141000  0.00000000  0.04007000  1.0
  Ni  Ni31  1  0.73175000  0.50000000  0.04300000  1.0
  C  C32  1  0.50000000  0.00000000  0.20169000  1.0
  O  O33  1  0.50000000  0.00000000  0.24557000  1.0
