# generated using pymatgen
data_Nb8Co16Sn8CO
_symmetry_space_group_name_H-M   Pmm2
_cell_length_a   6.19479000
_cell_length_b   8.76076000
_cell_length_c   26.57060000
_cell_angle_alpha   90.00000000
_cell_angle_beta   90.00000000
_cell_angle_gamma   90.00000000
_symmetry_Int_Tables_number   25
_chemical_formula_structural   Nb8Co16Sn8CO
_chemical_formula_sum   'Nb8 Co16 Sn8 C1 O1'
_cell_volume   1442.01485110
_cell_formula_units_Z   1
loop_
 _symmetry_equiv_pos_site_id
 _symmetry_equiv_pos_as_xyz
  1  'x, y, z'
  2  '-x, -y, z'
  3  '-x, y, z'
  4  'x, -y, z'
loop_
 _atom_site_type_symbol
 _atom_site_label
 _atom_site_symmetry_multiplicity
 _atom_site_fract_x
 _atom_site_fract_y
 _atom_site_fract_z
 _atom_site_occupancy
  Nb  Nb0  2  0.00000000  0.24958000  0.04376000  1.0
  Nb  Nb1  2  0.00000000  0.24998000  0.87636000  1.0
  Nb  Nb2  1  0.50000000  0.00000000  0.12098000  1.0
  Nb  Nb3  1  0.50000000  0.00000000  0.95879000  1.0
  Nb  Nb4  1  0.50000000  0.50000000  0.12116000  1.0
  Nb  Nb5  1  0.50000000  0.50000000  0.95879000  1.0
  Co  Co6  4  0.24955000  0.25056000  0.11762000  1.0
  Co  Co7  4  0.25000000  0.24998000  0.95879000  1.0
  Co  Co8  2  0.24176000  0.50000000  0.04424000  1.0
  Co  Co9  2  0.24847000  0.00000000  0.04290000  1.0
  Co  Co10  2  0.25000000  0.50000000  0.87636000  1.0
  Co  Co11  2  0.25000000  0.00000000  0.87636000  1.0
  Sn  Sn12  2  0.50000000  0.24998000  0.87636000  1.0
  Sn  Sn13  2  0.50000000  0.25089000  0.03937000  1.0
  Sn  Sn14  1  0.00000000  0.00000000  0.13781000  1.0
  Sn  Sn15  1  0.00000000  0.00000000  0.95879000  1.0
  Sn  Sn16  1  0.00000000  0.50000000  0.13954000  1.0
  Sn  Sn17  1  0.00000000  0.50000000  0.95879000  1.0
  C  C18  1  0.00000000  0.00000000  0.27453000  1.0
  O  O19  1  0.00000000  0.00000000  0.31728000  1.0
