# generated using pymatgen
data_Zr8Ga8Ni16C
_symmetry_space_group_name_H-M   P1
_cell_length_a   6.14888000
_cell_length_b   8.69583000
_cell_length_c   26.52190000
_cell_angle_alpha   90.00000000
_cell_angle_beta   90.00000000
_cell_angle_gamma   90.00000000
_symmetry_Int_Tables_number   1
_chemical_formula_structural   Zr8Ga8Ni16C
_chemical_formula_sum   'Zr8 Ga8 Ni16 C1'
_cell_volume   1418.11578659
_cell_formula_units_Z   1
loop_
 _symmetry_equiv_pos_site_id
 _symmetry_equiv_pos_as_xyz
  1  'x, y, z'
loop_
 _atom_site_type_symbol
 _atom_site_label
 _atom_site_symmetry_multiplicity
 _atom_site_fract_x
 _atom_site_fract_y
 _atom_site_fract_z
 _atom_site_occupancy
  Zr  Zr0  1  -0.00000000  0.50000000  0.87705000  1.0
  Zr  Zr1  1  0.00000000  0.00000000  0.87705000  1.0
  Zr  Zr2  1  0.00433000  0.50673000  0.04710000  1.0
  Zr  Zr3  1  0.00550000  0.99329000  0.04748000  1.0
  Zr  Zr4  1  0.42573000  0.75123000  0.12322000  1.0
  Zr  Zr5  1  0.45855000  0.24786000  0.11287000  1.0
  Zr  Zr6  1  0.50000000  0.25000000  0.95902000  1.0
  Zr  Zr7  1  0.50000000  0.75000000  0.95902000  1.0
  Ga  Ga8  1  -0.00000000  0.25000000  0.95902000  1.0
  Ga  Ga9  1  -0.00000000  0.75000000  0.95902000  1.0
  Ga  Ga10  1  0.49434000  0.49893000  0.03835000  1.0
  Ga  Ga11  1  0.49548000  0.99974000  0.03818000  1.0
  Ga  Ga12  1  0.50000000  0.00000000  0.87705000  1.0
  Ga  Ga13  1  0.50000000  0.50000000  0.87705000  1.0
  Ga  Ga14  1  0.89420000  0.25049000  0.13539000  1.0
  Ga  Ga15  1  0.96095000  0.74814000  0.12875000  1.0
  Ni  Ni16  1  0.15156000  0.02034000  0.14250000  1.0
  Ni  Ni17  1  0.15741000  0.47508000  0.14041000  1.0
  Ni  Ni18  1  0.23425000  0.25007000  0.03170000  1.0
  Ni  Ni19  1  0.25000000  0.00000000  0.95902000  1.0
  Ni  Ni20  1  0.25000000  0.25000000  0.87705000  1.0
  Ni  Ni21  1  0.25000000  0.50000000  0.95902000  1.0
  Ni  Ni22  1  0.25000000  0.75000000  0.87705000  1.0
  Ni  Ni23  1  0.25751000  0.75005000  0.03577000  1.0
  Ni  Ni24  1  0.71540000  0.74938000  0.04923000  1.0
  Ni  Ni25  1  0.71556000  0.50870000  0.11649000  1.0
  Ni  Ni26  1  0.71832000  0.99067000  0.11702000  1.0
  Ni  Ni27  1  0.75000000  0.00000000  0.95902000  1.0
  Ni  Ni28  1  0.75000000  0.25000000  0.87705000  1.0
  Ni  Ni29  1  0.75000000  0.50000000  0.95902000  1.0
  Ni  Ni30  1  0.75000000  0.75000000  0.87705000  1.0
  Ni  Ni31  1  0.76928000  0.25016000  0.03743000  1.0
  C  C32  1  0.19473000  0.24534000  0.16001000  1.0
