# generated using pymatgen
data_Li8In8Cu8Ge8C
_symmetry_space_group_name_H-M   Pm
_cell_length_a   6.49386000
_cell_length_b   9.18370000
_cell_length_c   26.88780000
_cell_angle_alpha   90.00000000
_cell_angle_beta   90.00000000
_cell_angle_gamma   90.00000000
_symmetry_Int_Tables_number   6
_chemical_formula_structural   Li8In8Cu8Ge8C
_chemical_formula_sum   'Li8 In8 Cu8 Ge8 C1'
_cell_volume   1603.52553053
_cell_formula_units_Z   1
loop_
 _symmetry_equiv_pos_site_id
 _symmetry_equiv_pos_as_xyz
  1  'x, y, z'
  2  'x, -y, z'
loop_
 _atom_site_type_symbol
 _atom_site_label
 _atom_site_symmetry_multiplicity
 _atom_site_fract_x
 _atom_site_fract_y
 _atom_site_fract_z
 _atom_site_occupancy
  Li  Li0  2  0.47927000  0.25144000  0.04939000  1.0
  Li  Li1  2  0.50000000  0.24999000  0.87192000  1.0
  Li  Li2  1  0.00000000  0.00000000  0.95731000  1.0
  Li  Li3  1  0.00000000  0.50000000  0.95731000  1.0
  Li  Li4  1  0.05897000  0.00000000  0.14092000  1.0
  Li  Li5  1  0.90368000  0.50000000  0.13946000  1.0
  In  In6  2  0.25000000  0.25001000  0.95731000  1.0
  In  In7  2  0.27105000  0.26878000  0.15225000  1.0
  In  In8  1  0.74878000  0.50000000  0.04092000  1.0
  In  In9  1  0.75000000  0.00000000  0.87192000  1.0
  In  In10  1  0.75000000  0.50000000  0.87192000  1.0
  In  In11  1  0.76428000  0.00000000  0.04647000  1.0
  Cu  Cu12  2  0.00000000  0.25001000  0.87192000  1.0
  Cu  Cu13  2  0.00952000  0.24832000  0.04295000  1.0
  Cu  Cu14  1  0.45490000  0.00000000  0.11723000  1.0
  Cu  Cu15  1  0.46718000  0.50000000  0.11285000  1.0
  Cu  Cu16  1  0.50000000  0.00000000  0.95731000  1.0
  Cu  Cu17  1  0.50000000  0.50000000  0.95731000  1.0
  Ge  Ge18  2  0.75000000  0.25001000  0.95731000  1.0
  Ge  Ge19  2  0.76339000  0.20894000  0.14217000  1.0
  Ge  Ge20  1  0.19520000  0.50000000  0.04984000  1.0
  Ge  Ge21  1  0.23333000  0.00000000  0.04351000  1.0
  Ge  Ge22  1  0.25000000  0.00000000  0.87192000  1.0
  Ge  Ge23  1  0.25000000  0.50000000  0.87192000  1.0
  C  C24  1  0.73684000  0.00000000  0.14700000  1.0
