data_image0
_chemical_formula_structural       K24Bi8C
_chemical_formula_sum              "K24 Bi8 C1"
_cell_length_a       8.83903
_cell_length_b       12.5003
_cell_length_c       29.3752
_cell_angle_alpha    90
_cell_angle_beta     90
_cell_angle_gamma    90

_space_group_name_H-M_alt    "P 1"
_space_group_IT_number       1

loop_
  _space_group_symop_operation_xyz
  'x, y, z'

loop_
  _atom_site_type_symbol
  _atom_site_label
  _atom_site_symmetry_multiplicity
  _atom_site_fract_x
  _atom_site_fract_y
  _atom_site_fract_z
  _atom_site_occupancy
  K   K1        1.0  0.25000  0.00000  0.94681  1.0000
  K   K2        1.0  0.75000  0.50000  0.94681  1.0000
  K   K3        1.0  0.75000  0.00000  0.94681  1.0000
  K   K4        1.0  0.25000  0.50000  0.94681  1.0000
  K   K5        1.0  0.75000  0.75000  0.84042  1.0000
  K   K6        1.0  0.25000  0.25000  0.84042  1.0000
  K   K7        1.0  0.25000  0.75000  0.84042  1.0000
  K   K8        1.0  0.75000  0.25000  0.84042  1.0000
  K   K9        1.0  0.00000  0.75000  0.94681  1.0000
  K   K10       1.0  0.50000  0.00000  0.84042  1.0000
  K   K11       1.0  0.00000  0.25000  0.94681  1.0000
  K   K12       1.0  0.50000  0.50000  0.84042  1.0000
  K   K13       1.0  0.26832  0.48259  0.17206  1.0000
  K   K14       1.0  0.72675  0.96832  0.17328  1.0000
  K   K15       1.0  0.72675  0.53168  0.17327  1.0000
  K   K16       1.0  0.26833  0.01741  0.17207  1.0000
  K   K17       1.0  0.75028  0.25000  0.04871  1.0000
  K   K18       1.0  0.23942  0.75000  0.04749  1.0000
  K   K19       1.0  0.24023  0.25000  0.05838  1.0000
  K   K20       1.0  0.75032  0.75000  0.05522  1.0000
  K   K21       1.0  0.97625  0.25000  0.15632  1.0000
  K   K22       1.0  0.49429  0.51124  0.05748  1.0000
  K   K23       1.0  0.05123  0.75000  0.15309  1.0000
  K   K24       1.0  0.49429  0.98877  0.05748  1.0000
  Bi  Bi1       1.0  0.00000  0.00000  0.84042  1.0000
  Bi  Bi2       1.0  0.50000  0.25000  0.94681  1.0000
  Bi  Bi3       1.0  0.50000  0.75000  0.94681  1.0000
  Bi  Bi4       1.0  0.00000  0.50000  0.84042  1.0000
  Bi  Bi5       1.0  0.99052  0.50081  0.06336  1.0000
  Bi  Bi6       1.0  0.47231  0.75000  0.14890  1.0000
  Bi  Bi7       1.0  0.54051  0.25000  0.15848  1.0000
  Bi  Bi8       1.0  0.99052  0.99919  0.06336  1.0000
  C   C1        1.0  0.29821  0.25000  0.15932  1.0000
