# generated using pymatgen
data_K24Bi8C
_symmetry_space_group_name_H-M   'P 1'
_cell_length_a   12.50030000
_cell_length_b   8.83903000
_cell_length_c   29.37520000
_cell_angle_alpha   90.00000000
_cell_angle_beta   90.00000000
_cell_angle_gamma   90.00000000
_symmetry_Int_Tables_number   1
_chemical_formula_structural   K24Bi8C
_chemical_formula_sum   'K24 Bi8 C1'
_cell_volume   3245.68132018
_cell_formula_units_Z   1
loop_
 _symmetry_equiv_pos_site_id
 _symmetry_equiv_pos_as_xyz
  1  'x, y, z'
loop_
 _atom_site_type_symbol
 _atom_site_label
 _atom_site_symmetry_multiplicity
 _atom_site_fract_x
 _atom_site_fract_y
 _atom_site_fract_z
 _atom_site_occupancy
  K  K0  1  0.75000000  0.25000000  0.05319000  1.0
  K  K1  1  0.25000000  0.75000000  0.05319000  1.0
  K  K2  1  0.75000000  0.75000000  0.05319000  1.0
  K  K3  1  0.25000000  0.25000000  0.05319000  1.0
  K  K4  1  0.50000000  0.75000000  0.15958000  1.0
  K  K5  1  0.00000000  0.25000000  0.15958000  1.0
  K  K6  1  0.50000000  0.25000000  0.15958000  1.0
  K  K7  1  0.00000000  0.75000000  0.15958000  1.0
  K  K8  1  0.50000000  0.00000000  0.05319000  1.0
  K  K9  1  0.75000000  0.50000000  0.15958000  1.0
  K  K10  1  0.00000000  0.00000000  0.05319000  1.0
  K  K11  1  0.25000000  0.50000000  0.15958000  1.0
  K  K12  1  0.23259000  0.26832000  0.82794000  1.0
  K  K13  1  0.71832000  0.72675000  0.82672000  1.0
  K  K14  1  0.28168000  0.72675000  0.82672000  1.0
  K  K15  1  0.76741000  0.26832000  0.82794000  1.0
  K  K16  1  0.00000000  0.75028000  0.95129000  1.0
  K  K17  1  0.50000000  0.23942000  0.95251000  1.0
  K  K18  1  0.00000000  0.24023000  0.94162000  1.0
  K  K19  1  0.50000000  0.75032000  0.94478000  1.0
  K  K20  1  0.00000000  0.97625000  0.84368000  1.0
  K  K21  1  0.26124000  0.49429000  0.94252000  1.0
  K  K22  1  0.50000000  0.05123000  0.84691000  1.0
  K  K23  1  0.73876000  0.49429000  0.94252000  1.0
  Bi  Bi24  1  0.75000000  0.00000000  0.15958000  1.0
  Bi  Bi25  1  0.00000000  0.50000000  0.05319000  1.0
  Bi  Bi26  1  0.50000000  0.50000000  0.05319000  1.0
  Bi  Bi27  1  0.25000000  0.00000000  0.15958000  1.0
  Bi  Bi28  1  0.25081000  0.99052000  0.93664000  1.0
  Bi  Bi29  1  0.50000000  0.47231000  0.85110000  1.0
  Bi  Bi30  1  0.00000000  0.54051000  0.84152000  1.0
  Bi  Bi31  1  0.74919000  0.99052000  0.93664000  1.0
  C  C32  1  0.00000000  0.29821000  0.84068000  1.0
