# generated using pymatgen
data_K24Bi8C
_symmetry_space_group_name_H-M   Pm
_cell_length_a   8.83903000
_cell_length_b   12.50030000
_cell_length_c   29.37520000
_cell_angle_alpha   90.00000000
_cell_angle_beta   90.00000000
_cell_angle_gamma   90.00000000
_symmetry_Int_Tables_number   6
_chemical_formula_structural   K24Bi8C
_chemical_formula_sum   'K24 Bi8 C1'
_cell_volume   3245.68132018
_cell_formula_units_Z   1
loop_
 _symmetry_equiv_pos_site_id
 _symmetry_equiv_pos_as_xyz
  1  'x, y, z'
  2  'x, -y, z'
loop_
 _atom_site_type_symbol
 _atom_site_label
 _atom_site_symmetry_multiplicity
 _atom_site_fract_x
 _atom_site_fract_y
 _atom_site_fract_z
 _atom_site_occupancy
  K  K0  2  0.25000000  0.25000000  0.94681000  1.0
  K  K1  2  0.26832000  0.23259000  0.17206000  1.0
  K  K2  2  0.49429000  0.26124000  0.05748000  1.0
  K  K3  2  0.50000000  0.25000000  0.84042000  1.0
  K  K4  2  0.72675000  0.28168000  0.17328000  1.0
  K  K5  2  0.75000000  0.25000000  0.94681000  1.0
  K  K6  1  0.00000000  0.00000000  0.94681000  1.0
  K  K7  1  0.00000000  0.50000000  0.94681000  1.0
  K  K8  1  0.05123000  0.50000000  0.15309000  1.0
  K  K9  1  0.23942000  0.50000000  0.04749000  1.0
  K  K10  1  0.24023000  0.00000000  0.05838000  1.0
  K  K11  1  0.25000000  0.00000000  0.84042000  1.0
  K  K12  1  0.25000000  0.50000000  0.84042000  1.0
  K  K13  1  0.75000000  0.00000000  0.84042000  1.0
  K  K14  1  0.75000000  0.50000000  0.84042000  1.0
  K  K15  1  0.75028000  0.00000000  0.04871000  1.0
  K  K16  1  0.75032000  0.50000000  0.05522000  1.0
  K  K17  1  0.97625000  0.00000000  0.15632000  1.0
  Bi  Bi18  2  0.00000000  0.25000000  0.84042000  1.0
  Bi  Bi19  2  0.99052000  0.25081000  0.06336000  1.0
  Bi  Bi20  1  0.47231000  0.50000000  0.14890000  1.0
  Bi  Bi21  1  0.50000000  0.00000000  0.94681000  1.0
  Bi  Bi22  1  0.50000000  0.50000000  0.94681000  1.0
  Bi  Bi23  1  0.54051000  0.00000000  0.15848000  1.0
  C  C24  1  0.29821000  0.00000000  0.15932000  1.0
