# generated using pymatgen
data_Cu12Pd4C
_symmetry_space_group_name_H-M   Pm
_cell_length_a   5.31318000
_cell_length_b   7.51398000
_cell_length_c   23.98490000
_cell_angle_alpha   90.00000000
_cell_angle_beta   90.00000000
_cell_angle_gamma   90.00000000
_symmetry_Int_Tables_number   6
_chemical_formula_structural   Cu12Pd4C
_chemical_formula_sum   'Cu12 Pd4 C1'
_cell_volume   957.55223892
_cell_formula_units_Z   1
loop_
 _symmetry_equiv_pos_site_id
 _symmetry_equiv_pos_as_xyz
  1  'x, y, z'
  2  'x, -y, z'
loop_
 _atom_site_type_symbol
 _atom_site_label
 _atom_site_symmetry_multiplicity
 _atom_site_fract_x
 _atom_site_fract_y
 _atom_site_fract_z
 _atom_site_occupancy
  Cu  Cu0  2  0.00000000  0.25000000  0.02769000  1.0
  Cu  Cu1  2  0.49490000  0.30633000  0.91491000  1.0
  Cu  Cu2  1  0.24323000  0.50000000  0.97919000  1.0
  Cu  Cu3  1  0.25000000  0.00000000  0.08307000  1.0
  Cu  Cu4  1  0.25000000  0.50000000  0.08307000  1.0
  Cu  Cu5  1  0.25788000  0.00000000  0.96426000  1.0
  Cu  Cu6  1  0.75000000  0.00000000  0.08307000  1.0
  Cu  Cu7  1  0.75000000  0.50000000  0.08307000  1.0
  Cu  Cu8  1  0.75408000  0.50000000  0.98156000  1.0
  Cu  Cu9  1  0.75934000  0.00000000  0.96705000  1.0
  Pd  Pd10  2  0.50000000  0.25000000  0.02769000  1.0
  Pd  Pd11  2  0.98976000  0.28502000  0.91445000  1.0
  C  C12  1  0.75425000  0.50000000  0.89933000  1.0
