data_image0
_chemical_formula_structural       YPd3YPd3YPd3YPd3
_chemical_formula_sum              "Y4 Pd12"
_cell_length_a       8.33346
_cell_length_b       5.89265
_cell_length_c       24.4195
_cell_angle_alpha    90
_cell_angle_beta     90
_cell_angle_gamma    90

_space_group_name_H-M_alt    "P 1"
_space_group_IT_number       1

loop_
  _space_group_symop_operation_xyz
  'x, y, z'

loop_
  _atom_site_type_symbol
  _atom_site_label
  _atom_site_symmetry_multiplicity
  _atom_site_fract_x
  _atom_site_fract_y
  _atom_site_fract_z
  _atom_site_occupancy
  Y   Y1        1.0  0.00000  0.00000  0.09049  1.0000
  Pd  Pd1       1.0  0.00000  0.50000  0.09049  1.0000
  Pd  Pd2       1.0  0.25000  0.75000  0.03016  1.0000
  Pd  Pd3       1.0  0.25000  0.25000  0.03016  1.0000
  Y   Y2        1.0  0.00000  0.50000  0.96984  1.0000
  Pd  Pd4       1.0  0.00000  0.00000  0.96984  1.0000
  Pd  Pd5       1.0  0.25000  0.25000  0.90951  1.0000
  Pd  Pd6       1.0  0.25000  0.75000  0.90951  1.0000
  Y   Y3        1.0  0.50000  0.00000  0.09049  1.0000
  Pd  Pd7       1.0  0.50000  0.50000  0.09049  1.0000
  Pd  Pd8       1.0  0.75000  0.75000  0.03016  1.0000
  Pd  Pd9       1.0  0.75000  0.25000  0.03016  1.0000
  Y   Y4        1.0  0.50000  0.50000  0.96984  1.0000
  Pd  Pd10      1.0  0.50000  0.00000  0.96984  1.0000
  Pd  Pd11      1.0  0.75000  0.25000  0.90951  1.0000
  Pd  Pd12      1.0  0.75000  0.75000  0.90951  1.0000
