# generated using pymatgen
data_Hf8Ga8Ni16C
_symmetry_space_group_name_H-M   P1
_cell_length_a   6.08368000
_cell_length_b   8.60362000
_cell_length_c   26.45270000
_cell_angle_alpha   90.00000000
_cell_angle_beta   90.00000000
_cell_angle_gamma   90.00000000
_symmetry_Int_Tables_number   1
_chemical_formula_structural   Hf8Ga8Ni16C
_chemical_formula_sum   'Hf8 Ga8 Ni16 C1'
_cell_volume   1384.57851839
_cell_formula_units_Z   1
loop_
 _symmetry_equiv_pos_site_id
 _symmetry_equiv_pos_as_xyz
  1  'x, y, z'
loop_
 _atom_site_type_symbol
 _atom_site_label
 _atom_site_symmetry_multiplicity
 _atom_site_fract_x
 _atom_site_fract_y
 _atom_site_fract_z
 _atom_site_occupancy
  Hf  Hf0  1  0.00000000  0.00000000  0.87803000  1.0
  Hf  Hf1  1  0.00000000  0.50000000  0.87803000  1.0
  Hf  Hf2  1  0.00285000  0.99707000  0.04952000  1.0
  Hf  Hf3  1  0.00291000  0.50295000  0.04947000  1.0
  Hf  Hf4  1  0.41441000  0.74991000  0.12037000  1.0
  Hf  Hf5  1  0.43415000  0.25028000  0.11430000  1.0
  Hf  Hf6  1  0.50000000  0.25000000  0.95934000  1.0
  Hf  Hf7  1  0.50000000  0.75000000  0.95934000  1.0
  Ga  Ga8  1  0.00000000  0.25000000  0.95934000  1.0
  Ga  Ga9  1  0.00000000  0.75000000  0.95934000  1.0
  Ga  Ga10  1  0.49612000  0.00114000  0.03904000  1.0
  Ga  Ga11  1  0.49612000  0.49897000  0.03903000  1.0
  Ga  Ga12  1  0.50000000  0.00000000  0.87803000  1.0
  Ga  Ga13  1  0.50000000  0.50000000  0.87803000  1.0
  Ga  Ga14  1  0.84985000  0.25008000  0.15060000  1.0
  Ga  Ga15  1  0.95035000  0.74998000  0.12996000  1.0
  Ni  Ni16  1  0.12767000  0.47698000  0.14229000  1.0
  Ni  Ni17  1  0.12873000  0.02297000  0.14218000  1.0
  Ni  Ni18  1  0.23708000  0.25007000  0.03112000  1.0
  Ni  Ni19  1  0.24811000  0.75002000  0.03501000  1.0
  Ni  Ni20  1  0.25000000  0.00000000  0.95934000  1.0
  Ni  Ni21  1  0.25000000  0.25000000  0.87803000  1.0
  Ni  Ni22  1  0.25000000  0.50000000  0.95934000  1.0
  Ni  Ni23  1  0.25000000  0.75000000  0.87803000  1.0
  Ni  Ni24  1  0.70244000  0.99230000  0.11882000  1.0
  Ni  Ni25  1  0.70247000  0.50775000  0.11881000  1.0
  Ni  Ni26  1  0.72128000  0.75003000  0.04822000  1.0
  Ni  Ni27  1  0.75000000  0.00000000  0.95934000  1.0
  Ni  Ni28  1  0.75000000  0.25000000  0.87803000  1.0
  Ni  Ni29  1  0.75000000  0.50000000  0.95934000  1.0
  Ni  Ni30  1  0.75000000  0.75000000  0.87803000  1.0
  Ni  Ni31  1  0.75670000  0.24994000  0.03979000  1.0
  C  C32  1  0.16339000  0.25011000  0.16088000  1.0
