# generated using pymatgen
data_LiScInGa
_symmetry_space_group_name_H-M   Pm
_cell_length_a   5.87074000
_cell_length_b   4.43358000
_cell_length_c   24.40240000
_cell_angle_alpha   90.00000000
_cell_angle_beta   90.00000000
_cell_angle_gamma   90.00000000
_symmetry_Int_Tables_number   6
_chemical_formula_structural   LiScInGa
_chemical_formula_sum   'Li2 Sc2 In2 Ga2'
_cell_volume   635.15531711
_cell_formula_units_Z   2
loop_
 _symmetry_equiv_pos_site_id
 _symmetry_equiv_pos_as_xyz
  1  'x, y, z'
  2  'x, -y, z'
loop_
 _atom_site_type_symbol
 _atom_site_label
 _atom_site_symmetry_multiplicity
 _atom_site_fract_x
 _atom_site_fract_y
 _atom_site_fract_z
 _atom_site_occupancy
  Li  Li0  1  0.25428000  0.50000000  0.03007000  1.0
  Li  Li1  1  0.65852500  0.50000000  0.90650000  1.0
  Sc  Sc2  1  0.50000000  0.00000000  0.09020000  1.0
  Sc  Sc3  1  0.96178500  0.00000000  0.96623500  1.0
  In  In4  1  0.16480500  0.50000000  0.90289500  1.0
  In  In5  1  0.75428000  0.50000000  0.03007000  1.0
  Ga  Ga6  1  -0.00000000  0.00000000  0.09020000  1.0
  Ga  Ga7  1  0.45381000  0.00000000  0.96548000  1.0
