# generated using pymatgen
data_LiYAgSn
_symmetry_space_group_name_H-M   Pmm2
_cell_length_a   5.02904242
_cell_length_b   5.02904242
_cell_length_c   25.33410000
_cell_angle_alpha   90.00000000
_cell_angle_beta   90.00000000
_cell_angle_gamma   90.00000000
_symmetry_Int_Tables_number   25
_chemical_formula_structural   LiYAgSn
_chemical_formula_sum   'Li2 Y2 Ag2 Sn2'
_cell_volume   640.73150478
_cell_formula_units_Z   2
loop_
 _symmetry_equiv_pos_site_id
 _symmetry_equiv_pos_as_xyz
  1  'x, y, z'
  2  '-x, -y, z'
  3  '-x, y, z'
  4  'x, -y, z'
loop_
 _atom_site_type_symbol
 _atom_site_label
 _atom_site_symmetry_multiplicity
 _atom_site_fract_x
 _atom_site_fract_y
 _atom_site_fract_z
 _atom_site_occupancy
  Li  Li0  1  0.00000000  0.50000000  0.90299000  1.0
  Li  Li1  1  0.50000000  0.00000000  0.03509000  1.0
  Y  Y2  1  0.00000000  0.50000000  0.03509000  1.0
  Y  Y3  1  0.50000000  0.00000000  0.89476000  1.0
  Ag  Ag4  1  0.00000000  0.00000000  0.10528000  1.0
  Ag  Ag5  1  0.50000000  0.50000000  0.96294000  1.0
  Sn  Sn6  1  0.00000000  0.00000000  0.95891000  1.0
  Sn  Sn7  1  0.50000000  0.50000000  0.10528000  1.0
