data_image0
_chemical_formula_structural       Li16Zn8Ge8CO
_chemical_formula_sum              "Li16 Zn8 Ge8 C1 O1"
_cell_length_a       6.18893
_cell_length_b       8.75246
_cell_length_c       26.5643
_cell_angle_alpha    90
_cell_angle_beta     90
_cell_angle_gamma    90

_space_group_name_H-M_alt    "P 1"
_space_group_IT_number       1

loop_
  _space_group_symop_operation_xyz
  'x, y, z'

loop_
  _atom_site_type_symbol
  _atom_site_label
  _atom_site_symmetry_multiplicity
  _atom_site_fract_x
  _atom_site_fract_y
  _atom_site_fract_z
  _atom_site_occupancy
  Li  Li1       1.0  0.00000  0.00000  0.87644  1.0000
  Li  Li2       1.0  0.50000  0.25000  0.95881  1.0000
  Li  Li3       1.0  0.50000  0.75000  0.95881  1.0000
  Li  Li4       1.0  0.00000  0.50000  0.87644  1.0000
  Li  Li5       1.0  0.25000  0.25000  0.87644  1.0000
  Li  Li6       1.0  0.25000  0.75000  0.87644  1.0000
  Li  Li7       1.0  0.75000  0.50000  0.95881  1.0000
  Li  Li8       1.0  0.75000  0.00000  0.95881  1.0000
  Li  Li9       1.0  0.98837  0.50000  0.04246  1.0000
  Li  Li10      1.0  0.48645  0.75002  0.12729  1.0000
  Li  Li11      1.0  0.48645  0.24998  0.12729  1.0000
  Li  Li12      1.0  0.98127  0.00000  0.04144  1.0000
  Li  Li13      1.0  0.24990  0.75047  0.04197  1.0000
  Li  Li14      1.0  0.24990  0.24952  0.04197  1.0000
  Li  Li15      1.0  0.77608  1.00000  0.13935  1.0000
  Li  Li16      1.0  0.78085  0.50000  0.13952  1.0000
  Zn  Zn1       1.0  0.25000  0.00000  0.95881  1.0000
  Zn  Zn2       1.0  0.25000  0.50000  0.95881  1.0000
  Zn  Zn3       1.0  0.75000  0.75000  0.87644  1.0000
  Zn  Zn4       1.0  0.75000  0.25000  0.87644  1.0000
  Zn  Zn5       1.0  0.23109  0.50000  0.12274  1.0000
  Zn  Zn6       1.0  0.21914  1.00000  0.12065  1.0000
  Zn  Zn7       1.0  0.75030  0.25076  0.04478  1.0000
  Zn  Zn8       1.0  0.75031  0.74924  0.04478  1.0000
  Ge  Ge1       1.0  0.00000  0.75000  0.95881  1.0000
  Ge  Ge2       1.0  0.50000  0.00000  0.87644  1.0000
  Ge  Ge3       1.0  0.00000  0.25000  0.95881  1.0000
  Ge  Ge4       1.0  0.50000  0.50000  0.87644  1.0000
  Ge  Ge5       1.0  0.00692  0.25213  0.12689  1.0000
  Ge  Ge6       1.0  0.51028  0.50000  0.04753  1.0000
  Ge  Ge7       1.0  0.00692  0.74787  0.12689  1.0000
  Ge  Ge8       1.0  0.51033  0.00000  0.04790  1.0000
  C   C1        1.0  0.70824  1.00000  0.21666  1.0000
  O   O1        1.0  0.69991  1.00000  0.25955  1.0000
