# generated using pymatgen
data_Li16Zn8Ge8CO
_symmetry_space_group_name_H-M   'P 1'
_cell_length_a   8.75246000
_cell_length_b   6.18893000
_cell_length_c   26.56430000
_cell_angle_alpha   90.00000000
_cell_angle_beta   90.00000000
_cell_angle_gamma   90.00000000
_symmetry_Int_Tables_number   1
_chemical_formula_structural   Li16Zn8Ge8CO
_chemical_formula_sum   'Li16 Zn8 Ge8 C1 O1'
_cell_volume   1438.94462579
_cell_formula_units_Z   1
loop_
 _symmetry_equiv_pos_site_id
 _symmetry_equiv_pos_as_xyz
  1  'x, y, z'
loop_
 _atom_site_type_symbol
 _atom_site_label
 _atom_site_symmetry_multiplicity
 _atom_site_fract_x
 _atom_site_fract_y
 _atom_site_fract_z
 _atom_site_occupancy
  Li  Li0  1  0.00000000  0.00000000  0.12356000  1.0
  Li  Li1  1  0.25000000  0.50000000  0.04119000  1.0
  Li  Li2  1  0.75000000  0.50000000  0.04119000  1.0
  Li  Li3  1  0.50000000  1.00000000  0.12356000  1.0
  Li  Li4  1  0.25000000  0.25000000  0.12356000  1.0
  Li  Li5  1  0.75000000  0.25000000  0.12356000  1.0
  Li  Li6  1  0.50000000  0.75000000  0.04119000  1.0
  Li  Li7  1  0.00000000  0.75000000  0.04119000  1.0
  Li  Li8  1  0.50000000  0.98837000  0.95754000  1.0
  Li  Li9  1  0.75002000  0.48645000  0.87271000  1.0
  Li  Li10  1  0.24998000  0.48645000  0.87271000  1.0
  Li  Li11  1  0.00000000  0.98127000  0.95856000  1.0
  Li  Li12  1  0.75047000  0.24990000  0.95803000  1.0
  Li  Li13  1  0.24953000  0.24990000  0.95803000  1.0
  Li  Li14  1  0.00000000  0.77608000  0.86065000  1.0
  Li  Li15  1  0.50000000  0.78085000  0.86048000  1.0
  Zn  Zn16  1  0.00000000  0.25000000  0.04119000  1.0
  Zn  Zn17  1  0.50000000  0.25000000  0.04119000  1.0
  Zn  Zn18  1  0.75000000  0.75000000  0.12356000  1.0
  Zn  Zn19  1  0.25000000  0.75000000  0.12356000  1.0
  Zn  Zn20  1  0.50000000  0.23109000  0.87726000  1.0
  Zn  Zn21  1  0.00000000  0.21914000  0.87935000  1.0
  Zn  Zn22  1  0.25076000  0.75030000  0.95522000  1.0
  Zn  Zn23  1  0.74924000  0.75030000  0.95522000  1.0
  Ge  Ge24  1  0.75000000  1.00000000  0.04119000  1.0
  Ge  Ge25  1  0.00000000  0.50000000  0.12356000  1.0
  Ge  Ge26  1  0.25000000  1.00000000  0.04119000  1.0
  Ge  Ge27  1  0.50000000  0.50000000  0.12356000  1.0
  Ge  Ge28  1  0.25213000  0.00692000  0.87311000  1.0
  Ge  Ge29  1  0.50000000  0.51028000  0.95247000  1.0
  Ge  Ge30  1  0.74787000  0.00692000  0.87311000  1.0
  Ge  Ge31  1  0.00000000  0.51033000  0.95210000  1.0
  C  C32  1  0.00000000  0.70824000  0.78334000  1.0
  O  O33  1  0.00000000  0.69991000  0.74045000  1.0
