# generated using pymatgen
data_Y8Bi8Pd16C
_symmetry_space_group_name_H-M   'P 1'
_cell_length_a   9.89462000
_cell_length_b   6.99655000
_cell_length_c   27.42100000
_cell_angle_alpha   90.00000000
_cell_angle_beta   90.00000000
_cell_angle_gamma   90.00000000
_symmetry_Int_Tables_number   1
_chemical_formula_structural   Y8Bi8Pd16C
_chemical_formula_sum   'Y8 Bi8 Pd16 C1'
_cell_volume   1898.30656985
_cell_formula_units_Z   1
loop_
 _symmetry_equiv_pos_site_id
 _symmetry_equiv_pos_as_xyz
  1  'x, y, z'
loop_
 _atom_site_type_symbol
 _atom_site_label
 _atom_site_symmetry_multiplicity
 _atom_site_fract_x
 _atom_site_fract_y
 _atom_site_fract_z
 _atom_site_occupancy
  Y  Y0  1  0.75001000  0.00000000  0.13532000  1.0
  Y  Y1  1  0.00000000  0.50000000  0.04511000  1.0
  Y  Y2  1  0.50000000  0.50000000  0.04511000  1.0
  Y  Y3  1  0.24999000  0.00000000  0.13532000  1.0
  Y  Y4  1  0.25450000  0.99235000  0.95606000  1.0
  Y  Y5  1  0.50000000  0.50266000  0.86629000  1.0
  Y  Y6  1  0.00000000  0.52529000  0.87112000  1.0
  Y  Y7  1  0.74550000  0.99235000  0.95606000  1.0
  Bi  Bi8  1  0.50000000  0.00000000  0.04511000  1.0
  Bi  Bi9  1  0.75001000  0.50000000  0.13532000  1.0
  Bi  Bi10  1  0.00000000  0.00000000  0.04511000  1.0
  Bi  Bi11  1  0.24999000  0.50000000  0.13532000  1.0
  Bi  Bi12  1  0.00000000  0.94192000  0.82046000  1.0
  Bi  Bi13  1  0.24680000  0.49307000  0.95357000  1.0
  Bi  Bi14  1  0.50000000  0.02064000  0.85914000  1.0
  Bi  Bi15  1  0.75320000  0.49307000  0.95357000  1.0
  Pd  Pd16  1  0.75001000  0.25000000  0.04511000  1.0
  Pd  Pd17  1  0.25001000  0.75000000  0.04511000  1.0
  Pd  Pd18  1  0.74999000  0.75000000  0.04511000  1.0
  Pd  Pd19  1  0.24999000  0.25000000  0.04511000  1.0
  Pd  Pd20  1  0.50000000  0.75000000  0.13532000  1.0
  Pd  Pd21  1  0.00000000  0.25000000  0.13532000  1.0
  Pd  Pd22  1  0.50000000  0.25000000  0.13532000  1.0
  Pd  Pd23  1  0.00000000  0.75000000  0.13532000  1.0
  Pd  Pd24  1  0.22455000  0.20507000  0.87104000  1.0
  Pd  Pd25  1  0.75043000  0.76335000  0.86951000  1.0
  Pd  Pd26  1  0.24957000  0.76335000  0.86951000  1.0
  Pd  Pd27  1  0.77545000  0.20507000  0.87104000  1.0
  Pd  Pd28  1  0.00000000  0.76029000  0.95821000  1.0
  Pd  Pd29  1  0.50000000  0.25495000  0.95210000  1.0
  Pd  Pd30  1  0.00000000  0.19891000  0.94515000  1.0
  Pd  Pd31  1  0.50000000  0.73824000  0.94908000  1.0
  C  C32  1  0.00000000  0.20435000  0.86559000  1.0
