# generated using pymatgen
data_Y8Bi8Pd16C
_symmetry_space_group_name_H-M   Pm
_cell_length_a   6.99655000
_cell_length_b   9.89462000
_cell_length_c   27.42100000
_cell_angle_alpha   90.00000000
_cell_angle_beta   90.00000000
_cell_angle_gamma   90.00000000
_symmetry_Int_Tables_number   6
_chemical_formula_structural   Y8Bi8Pd16C
_chemical_formula_sum   'Y8 Bi8 Pd16 C1'
_cell_volume   1898.30656985
_cell_formula_units_Z   1
loop_
 _symmetry_equiv_pos_site_id
 _symmetry_equiv_pos_as_xyz
  1  'x, y, z'
  2  'x, -y, z'
loop_
 _atom_site_type_symbol
 _atom_site_label
 _atom_site_symmetry_multiplicity
 _atom_site_fract_x
 _atom_site_fract_y
 _atom_site_fract_z
 _atom_site_occupancy
  Y  Y0  2  0.00000000  0.24999000  0.86468000  1.0
  Y  Y1  2  0.99235000  0.25450000  0.04394000  1.0
  Y  Y2  1  0.50000000  0.00000000  0.95489000  1.0
  Y  Y3  1  0.50000000  0.50000000  0.95489000  1.0
  Y  Y4  1  0.50266000  0.50000000  0.13371000  1.0
  Y  Y5  1  0.52529000  0.00000000  0.12888000  1.0
  Bi  Bi6  2  0.49307000  0.24680000  0.04643000  1.0
  Bi  Bi7  2  0.50000000  0.24999000  0.86468000  1.0
  Bi  Bi8  1  0.00000000  0.00000000  0.95489000  1.0
  Bi  Bi9  1  0.00000000  0.50000000  0.95489000  1.0
  Bi  Bi10  1  0.02064000  0.50000000  0.14086000  1.0
  Bi  Bi11  1  0.94192000  0.00000000  0.17954000  1.0
  Pd  Pd12  2  0.20507000  0.22455000  0.12896000  1.0
  Pd  Pd13  2  0.25000000  0.24999000  0.95489000  1.0
  Pd  Pd14  2  0.75000000  0.25001000  0.95489000  1.0
  Pd  Pd15  2  0.76335000  0.24957000  0.13049000  1.0
  Pd  Pd16  1  0.19891000  0.00000000  0.05485000  1.0
  Pd  Pd17  1  0.25000000  0.00000000  0.86468000  1.0
  Pd  Pd18  1  0.25000000  0.50000000  0.86468000  1.0
  Pd  Pd19  1  0.25495000  0.50000000  0.04790000  1.0
  Pd  Pd20  1  0.73824000  0.50000000  0.05092000  1.0
  Pd  Pd21  1  0.75000000  0.00000000  0.86468000  1.0
  Pd  Pd22  1  0.75000000  0.50000000  0.86468000  1.0
  Pd  Pd23  1  0.76029000  0.00000000  0.04179000  1.0
  C  C24  1  0.20435000  0.00000000  0.13441000  1.0
