data_image0
_chemical_formula_structural       Zr16Pd16C
_chemical_formula_sum              "Zr16 Pd16 C1"
_cell_length_a       6.75388
_cell_length_b       9.55143
_cell_length_c       27.1636
_cell_angle_alpha    90
_cell_angle_beta     90
_cell_angle_gamma    90

_space_group_name_H-M_alt    "P 1"
_space_group_IT_number       1

loop_
  _space_group_symop_operation_xyz
  'x, y, z'

loop_
  _atom_site_type_symbol
  _atom_site_label
  _atom_site_symmetry_multiplicity
  _atom_site_fract_x
  _atom_site_fract_y
  _atom_site_fract_z
  _atom_site_occupancy
  Zr  Zr1       1.0  0.00000  0.00000  0.86814  1.0000
  Zr  Zr2       1.0  0.00000  0.25000  0.95605  1.0000
  Zr  Zr3       1.0  0.00066  0.99936  0.04279  1.0000
  Zr  Zr4       1.0  0.00224  0.24956  0.13227  1.0000
  Zr  Zr5       1.0  0.00000  0.50000  0.86814  1.0000
  Zr  Zr6       1.0  0.00000  0.75000  0.95605  1.0000
  Zr  Zr7       1.0  0.00068  0.50046  0.04284  1.0000
  Zr  Zr8       1.0  0.00102  0.74988  0.13650  1.0000
  Zr  Zr9       1.0  0.50000  0.00000  0.86814  1.0000
  Zr  Zr10      1.0  0.50000  0.25000  0.95605  1.0000
  Zr  Zr11      1.0  0.49947  0.99235  0.04212  1.0000
  Zr  Zr12      1.0  0.49765  0.24957  0.13061  1.0000
  Zr  Zr13      1.0  0.50000  0.50000  0.86814  1.0000
  Zr  Zr14      1.0  0.50000  0.75000  0.95605  1.0000
  Zr  Zr15      1.0  0.49945  0.50747  0.04217  1.0000
  Zr  Zr16      1.0  0.49869  0.74987  0.13039  1.0000
  Pd  Pd1       1.0  0.25000  0.25000  0.86814  1.0000
  Pd  Pd2       1.0  0.25000  0.00000  0.95605  1.0000
  Pd  Pd3       1.0  0.25153  0.24995  0.04146  1.0000
  Pd  Pd4       1.0  0.24755  0.51363  0.12641  1.0000
  Pd  Pd5       1.0  0.25000  0.75000  0.86814  1.0000
  Pd  Pd6       1.0  0.25000  0.50000  0.95605  1.0000
  Pd  Pd7       1.0  0.22615  0.74965  0.05193  1.0000
  Pd  Pd8       1.0  0.24747  0.98568  0.12617  1.0000
  Pd  Pd9       1.0  0.75000  0.25000  0.86814  1.0000
  Pd  Pd10      1.0  0.75000  0.00000  0.95605  1.0000
  Pd  Pd11      1.0  0.74943  0.25004  0.03934  1.0000
  Pd  Pd12      1.0  0.75135  0.50534  0.12483  1.0000
  Pd  Pd13      1.0  0.75000  0.75000  0.86814  1.0000
  Pd  Pd14      1.0  0.75000  0.50000  0.95605  1.0000
  Pd  Pd15      1.0  0.77437  0.74996  0.05324  1.0000
  Pd  Pd16      1.0  0.75135  0.99440  0.12491  1.0000
  C   C1        1.0  0.25171  0.25256  0.17134  1.0000
