# generated using pymatgen
data_Zr16Pd16C
_symmetry_space_group_name_H-M   P1
_cell_length_a   6.75388000
_cell_length_b   9.55143000
_cell_length_c   27.16360000
_cell_angle_alpha   90.00000000
_cell_angle_beta   90.00000000
_cell_angle_gamma   90.00000000
_symmetry_Int_Tables_number   1
_chemical_formula_structural   Zr16Pd16C
_chemical_formula_sum   'Zr16 Pd16 C1'
_cell_volume   1752.30243240
_cell_formula_units_Z   1
loop_
 _symmetry_equiv_pos_site_id
 _symmetry_equiv_pos_as_xyz
  1  'x, y, z'
loop_
 _atom_site_type_symbol
 _atom_site_label
 _atom_site_symmetry_multiplicity
 _atom_site_fract_x
 _atom_site_fract_y
 _atom_site_fract_z
 _atom_site_occupancy
  Zr  Zr0  1  0.00000000  0.00000000  0.86814000  1.0
  Zr  Zr1  1  0.00000000  0.25000000  0.95605000  1.0
  Zr  Zr2  1  0.00000000  0.50000000  0.86814000  1.0
  Zr  Zr3  1  0.00000000  0.75000000  0.95605000  1.0
  Zr  Zr4  1  0.00183000  0.48084000  0.04275000  1.0
  Zr  Zr5  1  0.00642000  0.23655000  0.13411000  1.0
  Zr  Zr6  1  0.48728000  0.24420000  0.13438000  1.0
  Zr  Zr7  1  0.49865000  0.49803000  0.04193000  1.0
  Zr  Zr8  1  0.50000000  0.00000000  0.86814000  1.0
  Zr  Zr9  1  0.50000000  0.25000000  0.95605000  1.0
  Zr  Zr10  1  0.50000000  0.50000000  0.86814000  1.0
  Zr  Zr11  1  0.50000000  0.75000000  0.95605000  1.0
  Zr  Zr12  1  0.50029000  0.98289000  0.04057000  1.0
  Zr  Zr13  1  0.50250000  0.74098000  0.12569000  1.0
  Zr  Zr14  1  0.99458000  0.74786000  0.13393000  1.0
  Zr  Zr15  1  0.99783000  0.99484000  0.04216000  1.0
  Pd  Pd16  1  0.21882000  0.73156000  0.04828000  1.0
  Pd  Pd17  1  0.23870000  0.51567000  0.12642000  1.0
  Pd  Pd18  1  0.25000000  0.00000000  0.95605000  1.0
  Pd  Pd19  1  0.25000000  0.25000000  0.86814000  1.0
  Pd  Pd20  1  0.25000000  0.50000000  0.95605000  1.0
  Pd  Pd21  1  0.25000000  0.75000000  0.86814000  1.0
  Pd  Pd22  1  0.25200000  0.98064000  0.12168000  1.0
  Pd  Pd23  1  0.26856000  0.22931000  0.04213000  1.0
  Pd  Pd24  1  0.73465000  0.24022000  0.04312000  1.0
  Pd  Pd25  1  0.74263000  0.98871000  0.12409000  1.0
  Pd  Pd26  1  0.75000000  0.00000000  0.95605000  1.0
  Pd  Pd27  1  0.75000000  0.25000000  0.86814000  1.0
  Pd  Pd28  1  0.75000000  0.50000000  0.95605000  1.0
  Pd  Pd29  1  0.75000000  0.75000000  0.86814000  1.0
  Pd  Pd30  1  0.75334000  0.48937000  0.12207000  1.0
  Pd  Pd31  1  0.78411000  0.73300000  0.04732000  1.0
  C  C32  1  0.24230000  0.33113000  0.16698000  1.0
