# generated using pymatgen
data_Li16Mg8In8C
_symmetry_space_group_name_H-M   'P 1'
_cell_length_a   6.75535000
_cell_length_b   9.55351000
_cell_length_c   27.16510000
_cell_angle_alpha   90.00000000
_cell_angle_beta   90.00000000
_cell_angle_gamma   90.00000000
_symmetry_Int_Tables_number   1
_chemical_formula_structural   Li16Mg8In8C
_chemical_formula_sum   'Li16 Mg8 In8 C1'
_cell_volume   1753.16231087
_cell_formula_units_Z   1
loop_
 _symmetry_equiv_pos_site_id
 _symmetry_equiv_pos_as_xyz
  1  'x, y, z'
loop_
 _atom_site_type_symbol
 _atom_site_label
 _atom_site_symmetry_multiplicity
 _atom_site_fract_x
 _atom_site_fract_y
 _atom_site_fract_z
 _atom_site_occupancy
  Li  Li0  1  0.25000000  0.00000000  0.95604000  1.0
  Li  Li1  1  0.75000000  0.50000000  0.95604000  1.0
  Li  Li2  1  0.75000000  0.00000000  0.95604000  1.0
  Li  Li3  1  0.25000000  0.50000000  0.95604000  1.0
  Li  Li4  1  0.75000000  0.75000000  0.86812000  1.0
  Li  Li5  1  0.25000000  0.25000000  0.86812000  1.0
  Li  Li6  1  0.25000000  0.75000000  0.86812000  1.0
  Li  Li7  1  0.75000000  0.25000000  0.86812000  1.0
  Li  Li8  1  0.21392000  0.50000000  0.13597000  1.0
  Li  Li9  1  0.70822000  0.00000000  0.13605000  1.0
  Li  Li10  1  0.78608000  0.50000000  0.13597000  1.0
  Li  Li11  1  0.29178000  0.00000000  0.13605000  1.0
  Li  Li12  1  0.74699000  0.25041000  0.04460000  1.0
  Li  Li13  1  0.25301000  0.74959000  0.04460000  1.0
  Li  Li14  1  0.25301000  0.25041000  0.04460000  1.0
  Li  Li15  1  0.74699000  0.74959000  0.04460000  1.0
  Mg  Mg16  1  0.00000000  0.00000000  0.86812000  1.0
  Mg  Mg17  1  0.50000000  0.25000000  0.95604000  1.0
  Mg  Mg18  1  0.50000000  0.75000000  0.95604000  1.0
  Mg  Mg19  1  0.00000000  0.50000000  0.86812000  1.0
  Mg  Mg20  1  0.00000000  0.50000000  0.04001000  1.0
  Mg  Mg21  1  0.50000000  0.72919000  0.13496000  1.0
  Mg  Mg22  1  0.50000000  0.27081000  0.13496000  1.0
  Mg  Mg23  1  0.00000000  0.00000000  0.04395000  1.0
  In  In24  1  0.00000000  0.75000000  0.95604000  1.0
  In  In25  1  0.50000000  0.00000000  0.86812000  1.0
  In  In26  1  0.00000000  0.25000000  0.95604000  1.0
  In  In27  1  0.50000000  0.50000000  0.86812000  1.0
  In  In28  1  0.00000000  0.22793000  0.14278000  1.0
  In  In29  1  0.50000000  0.50000000  0.04982000  1.0
  In  In30  1  0.00000000  0.77207000  0.14278000  1.0
  In  In31  1  0.50000000  0.00000000  0.04045000  1.0
  C  C32  1  0.00000000  0.00000000  0.12399000  1.0
