# generated using pymatgen
data_Sc8Al8Cu8Pd8CO
_symmetry_space_group_name_H-M   'P 1'
_cell_length_a   6.32596000
_cell_length_b   8.94626000
_cell_length_c   26.70970000
_cell_angle_alpha   90.00000000
_cell_angle_beta   90.00000000
_cell_angle_gamma   90.00000000
_symmetry_Int_Tables_number   1
_chemical_formula_structural   Sc8Al8Cu8Pd8CO
_chemical_formula_sum   'Sc8 Al8 Cu8 Pd8 C1 O1'
_cell_volume   1511.60029241
_cell_formula_units_Z   1
loop_
 _symmetry_equiv_pos_site_id
 _symmetry_equiv_pos_as_xyz
  1  'x, y, z'
loop_
 _atom_site_type_symbol
 _atom_site_label
 _atom_site_symmetry_multiplicity
 _atom_site_fract_x
 _atom_site_fract_y
 _atom_site_fract_z
 _atom_site_occupancy
  Sc  Sc0  1  0.00000000  0.75000000  0.95813000  1.0
  Sc  Sc1  1  0.00000000  0.25000000  0.95813000  1.0
  Sc  Sc2  1  0.50000000  0.50000000  0.87440000  1.0
  Sc  Sc3  1  0.50000000  0.00000000  0.87440000  1.0
  Sc  Sc4  1  0.00375000  0.24842000  0.13184000  1.0
  Sc  Sc5  1  0.00371000  0.75154000  0.13186000  1.0
  Sc  Sc6  1  0.49892000  0.99999000  0.04098000  1.0
  Sc  Sc7  1  0.50437000  0.50000000  0.04061000  1.0
  Al  Al8  1  0.00000000  0.00000000  0.87440000  1.0
  Al  Al9  1  0.00000000  0.50000000  0.87440000  1.0
  Al  Al10  1  0.50000000  0.25000000  0.95813000  1.0
  Al  Al11  1  0.50000000  0.75000000  0.95813000  1.0
  Al  Al12  1  0.00049000  0.50000000  0.04508000  1.0
  Al  Al13  1  0.00163000  0.00000000  0.04465000  1.0
  Al  Al14  1  0.50554000  0.74745000  0.12140000  1.0
  Al  Al15  1  0.50553000  0.25253000  0.12140000  1.0
  Cu  Cu16  1  0.25000000  0.00000000  0.95813000  1.0
  Cu  Cu17  1  0.25000000  0.50000000  0.95813000  1.0
  Cu  Cu18  1  0.75000000  0.75000000  0.87440000  1.0
  Cu  Cu19  1  0.75000000  0.25000000  0.87440000  1.0
  Cu  Cu20  1  0.27021000  0.50000000  0.12285000  1.0
  Cu  Cu21  1  0.28983000  0.99998000  0.13029000  1.0
  Cu  Cu22  1  0.76856000  0.24878000  0.04476000  1.0
  Cu  Cu23  1  0.76856000  0.75121000  0.04477000  1.0
  Pd  Pd24  1  0.75000000  0.00000000  0.95813000  1.0
  Pd  Pd25  1  0.75000000  0.50000000  0.95813000  1.0
  Pd  Pd26  1  0.25000000  0.75000000  0.87440000  1.0
  Pd  Pd27  1  0.25000000  0.25000000  0.87440000  1.0
  Pd  Pd28  1  0.74115000  0.49999000  0.12301000  1.0
  Pd  Pd29  1  0.73362000  0.99999000  0.12157000  1.0
  Pd  Pd30  1  0.23323000  0.25025000  0.04478000  1.0
  Pd  Pd31  1  0.23319000  0.74976000  0.04480000  1.0
  C  C32  1  0.15292000  0.99989000  0.19196000  1.0
  O  O33  1  0.10705000  0.99994000  0.23443000  1.0
