# generated using pymatgen
data_Cu8Ni16Sn8C
_symmetry_space_group_name_H-M   'P 1'
_cell_length_a   8.51164000
_cell_length_b   6.01864000
_cell_length_c   26.38370000
_cell_angle_alpha   90.00000000
_cell_angle_beta   90.00000000
_cell_angle_gamma   90.00000000
_symmetry_Int_Tables_number   1
_chemical_formula_structural   Cu8Ni16Sn8C
_chemical_formula_sum   'Cu8 Ni16 Sn8 C1'
_cell_volume   1351.59729550
_cell_formula_units_Z   1
loop_
 _symmetry_equiv_pos_site_id
 _symmetry_equiv_pos_as_xyz
  1  'x, y, z'
loop_
 _atom_site_type_symbol
 _atom_site_label
 _atom_site_symmetry_multiplicity
 _atom_site_fract_x
 _atom_site_fract_y
 _atom_site_fract_z
 _atom_site_occupancy
  Cu  Cu0  1  0.00000000  0.00000000  0.12098000  1.0
  Cu  Cu1  1  0.25000000  0.50000000  0.04033000  1.0
  Cu  Cu2  1  0.75000000  0.50000000  0.04033000  1.0
  Cu  Cu3  1  0.50000000  0.00000000  0.12098000  1.0
  Cu  Cu4  1  0.49992000  0.00000000  0.95948000  1.0
  Cu  Cu5  1  0.76494000  0.50000000  0.87633000  1.0
  Cu  Cu6  1  0.23507000  0.50000000  0.87636000  1.0
  Cu  Cu7  1  0.00008000  0.00000000  0.96165000  1.0
  Ni  Ni8  1  0.00000000  0.75000000  0.04033000  1.0
  Ni  Ni9  1  0.50000000  0.25000000  0.04033000  1.0
  Ni  Ni10  1  0.00000000  0.25000000  0.04033000  1.0
  Ni  Ni11  1  0.50000000  0.75000000  0.04033000  1.0
  Ni  Ni12  1  0.75000000  0.25000000  0.12098000  1.0
  Ni  Ni13  1  0.25000000  0.75000000  0.12098000  1.0
  Ni  Ni14  1  0.75000000  0.75000000  0.12098000  1.0
  Ni  Ni15  1  0.25000000  0.25000000  0.12098000  1.0
  Ni  Ni16  1  0.49996000  0.73082000  0.88293000  1.0
  Ni  Ni17  1  0.00003000  0.21435000  0.87978000  1.0
  Ni  Ni18  1  0.49996000  0.26918000  0.88293000  1.0
  Ni  Ni19  1  0.00003000  0.78565000  0.87978000  1.0
  Ni  Ni20  1  0.24893000  0.23933000  0.95667000  1.0
  Ni  Ni21  1  0.75107000  0.76070000  0.95666000  1.0
  Ni  Ni22  1  0.24893000  0.76067000  0.95667000  1.0
  Ni  Ni23  1  0.75107000  0.23930000  0.95666000  1.0
  Sn  Sn24  1  0.75000000  0.00000000  0.04033000  1.0
  Sn  Sn25  1  0.00000000  0.50000000  0.12098000  1.0
  Sn  Sn26  1  0.25000000  0.00000000  0.04033000  1.0
  Sn  Sn27  1  0.50000000  0.50000000  0.12098000  1.0
  Sn  Sn28  1  0.26522000  0.00000000  0.86863000  1.0
  Sn  Sn29  1  0.50000000  0.50000000  0.96229000  1.0
  Sn  Sn30  1  0.73478000  0.00000000  0.86862000  1.0
  Sn  Sn31  1  0.00001000  0.50000000  0.96133000  1.0
  C  C32  1  0.00000000  0.50000000  0.86249000  1.0
