# generated using pymatgen
data_Cu8Ni16Sn8C
_symmetry_space_group_name_H-M   Pm
_cell_length_a   8.51164000
_cell_length_b   6.01864000
_cell_length_c   26.38370000
_cell_angle_alpha   90.00000000
_cell_angle_beta   90.00000000
_cell_angle_gamma   90.00000000
_symmetry_Int_Tables_number   6
_chemical_formula_structural   Cu8Ni16Sn8C
_chemical_formula_sum   'Cu8 Ni16 Sn8 C1'
_cell_volume   1351.59729550
_cell_formula_units_Z   1
loop_
 _symmetry_equiv_pos_site_id
 _symmetry_equiv_pos_as_xyz
  1  'x, y, z'
  2  'x, -y, z'
loop_
 _atom_site_type_symbol
 _atom_site_label
 _atom_site_symmetry_multiplicity
 _atom_site_fract_x
 _atom_site_fract_y
 _atom_site_fract_z
 _atom_site_occupancy
  Cu  Cu0  1  0.00000000  0.00000000  0.87902000  1.0
  Cu  Cu1  1  0.00008000  0.00000000  0.03835000  1.0
  Cu  Cu2  1  0.23507000  0.50000000  0.12364000  1.0
  Cu  Cu3  1  0.25000000  0.50000000  0.95967000  1.0
  Cu  Cu4  1  0.49992000  0.00000000  0.04052000  1.0
  Cu  Cu5  1  0.50000000  0.00000000  0.87902000  1.0
  Cu  Cu6  1  0.75000000  0.50000000  0.95967000  1.0
  Cu  Cu7  1  0.76494000  0.50000000  0.12367000  1.0
  Ni  Ni8  2  0.00000000  0.25000000  0.95967000  1.0
  Ni  Ni9  2  0.00003000  0.21435000  0.12022000  1.0
  Ni  Ni10  2  0.24893000  0.23933000  0.04333000  1.0
  Ni  Ni11  2  0.25000000  0.25000000  0.87902000  1.0
  Ni  Ni12  2  0.49996000  0.26918000  0.11707000  1.0
  Ni  Ni13  2  0.50000000  0.25000000  0.95967000  1.0
  Ni  Ni14  2  0.75000000  0.25000000  0.87902000  1.0
  Ni  Ni15  2  0.75107000  0.23930000  0.04334000  1.0
  Sn  Sn16  1  0.00000000  0.50000000  0.87902000  1.0
  Sn  Sn17  1  0.00001000  0.50000000  0.03867000  1.0
  Sn  Sn18  1  0.25000000  0.00000000  0.95967000  1.0
  Sn  Sn19  1  0.26522000  0.00000000  0.13137000  1.0
  Sn  Sn20  1  0.50000000  0.50000000  0.03771000  1.0
  Sn  Sn21  1  0.50000000  0.50000000  0.87902000  1.0
  Sn  Sn22  1  0.73478000  0.00000000  0.13138000  1.0
  Sn  Sn23  1  0.75000000  0.00000000  0.95967000  1.0
  C  C24  1  0.00000000  0.50000000  0.13751000  1.0
