# generated using pymatgen
data_Mn8Ga8Ni16CO
_symmetry_space_group_name_H-M   'P 1'
_cell_length_a   8.31574000
_cell_length_b   5.88011000
_cell_length_c   26.23680000
_cell_angle_alpha   90.00000000
_cell_angle_beta   90.00000000
_cell_angle_gamma   90.00000000
_symmetry_Int_Tables_number   1
_chemical_formula_structural   Mn8Ga8Ni16CO
_chemical_formula_sum   'Mn8 Ga8 Ni16 C1 O1'
_cell_volume   1282.91303415
_cell_formula_units_Z   1
loop_
 _symmetry_equiv_pos_site_id
 _symmetry_equiv_pos_as_xyz
  1  'x, y, z'
loop_
 _atom_site_type_symbol
 _atom_site_label
 _atom_site_symmetry_multiplicity
 _atom_site_fract_x
 _atom_site_fract_y
 _atom_site_fract_z
 _atom_site_occupancy
  Mn  Mn0  1  0.50000000  0.00000000  0.11886000  1.0
  Mn  Mn1  1  0.75001000  0.50000000  0.03962000  1.0
  Mn  Mn2  1  0.24999000  0.50000000  0.03962000  1.0
  Mn  Mn3  1  0.00000000  1.00000000  0.11886000  1.0
  Mn  Mn4  1  0.00000000  0.99830000  0.96356000  1.0
  Mn  Mn5  1  0.24383000  0.50244000  0.88074000  1.0
  Mn  Mn6  1  0.75617000  0.50244000  0.88074000  1.0
  Mn  Mn7  1  0.50000000  0.00326000  0.96193000  1.0
  Ga  Ga8  1  0.25001000  1.00000000  0.03962000  1.0
  Ga  Ga9  1  0.50000000  0.50000000  0.11886000  1.0
  Ga  Ga10  1  0.74999000  1.00000000  0.03962000  1.0
  Ga  Ga11  1  0.00000000  0.50000000  0.11886000  1.0
  Ga  Ga12  1  0.75060000  0.99393000  0.88114000  1.0
  Ga  Ga13  1  0.00000000  0.49933000  0.96134000  1.0
  Ga  Ga14  1  0.24940000  0.99393000  0.88114000  1.0
  Ga  Ga15  1  0.50000000  0.49535000  0.96143000  1.0
  Ni  Ni16  1  0.50000000  0.25000000  0.03962000  1.0
  Ni  Ni17  1  0.00000000  0.75000000  0.03962000  1.0
  Ni  Ni18  1  0.50000000  0.75000000  0.03962000  1.0
  Ni  Ni19  1  0.00000000  0.25000000  0.03962000  1.0
  Ni  Ni20  1  0.25001000  0.75000000  0.11886000  1.0
  Ni  Ni21  1  0.75001000  0.25000000  0.11886000  1.0
  Ni  Ni22  1  0.24999000  0.25000000  0.11886000  1.0
  Ni  Ni23  1  0.74999000  0.75000000  0.11886000  1.0
  Ni  Ni24  1  0.00000000  0.23353000  0.88787000  1.0
  Ni  Ni25  1  0.50000000  0.75888000  0.88891000  1.0
  Ni  Ni26  1  0.00000000  0.76235000  0.88772000  1.0
  Ni  Ni27  1  0.50000000  0.24472000  0.88083000  1.0
  Ni  Ni28  1  0.74839000  0.74774000  0.96142000  1.0
  Ni  Ni29  1  0.25119000  0.24926000  0.96031000  1.0
  Ni  Ni30  1  0.74881000  0.24926000  0.96031000  1.0
  Ni  Ni31  1  0.25161000  0.74774000  0.96142000  1.0
  C  C32  1  0.50000000  0.35685000  0.81808000  1.0
  O  O33  1  0.50000000  0.40676000  0.77525000  1.0
