# generated using pymatgen
data_Mn8Ga8Ni16CO
_symmetry_space_group_name_H-M   Pm
_cell_length_a   5.88011000
_cell_length_b   8.31574000
_cell_length_c   26.23680000
_cell_angle_alpha   90.00000000
_cell_angle_beta   90.00000000
_cell_angle_gamma   90.00000000
_symmetry_Int_Tables_number   6
_chemical_formula_structural   Mn8Ga8Ni16CO
_chemical_formula_sum   'Mn8 Ga8 Ni16 C1 O1'
_cell_volume   1282.91303415
_cell_formula_units_Z   1
loop_
 _symmetry_equiv_pos_site_id
 _symmetry_equiv_pos_as_xyz
  1  'x, y, z'
  2  'x, -y, z'
loop_
 _atom_site_type_symbol
 _atom_site_label
 _atom_site_symmetry_multiplicity
 _atom_site_fract_x
 _atom_site_fract_y
 _atom_site_fract_z
 _atom_site_occupancy
  Mn  Mn0  2  0.50000000  0.24999000  0.96038000  1.0
  Mn  Mn1  2  0.50244000  0.24383000  0.11926000  1.0
  Mn  Mn2  1  -0.00000000  0.00000000  0.88114000  1.0
  Mn  Mn3  1  0.00000000  0.50000000  0.88114000  1.0
  Mn  Mn4  1  0.00326000  0.50000000  0.03807000  1.0
  Mn  Mn5  1  0.99830000  0.00000000  0.03644000  1.0
  Ga  Ga6  2  -0.00000000  0.25001000  0.96038000  1.0
  Ga  Ga7  2  0.99393000  0.24940000  0.11886000  1.0
  Ga  Ga8  1  0.49535000  0.50000000  0.03857000  1.0
  Ga  Ga9  1  0.49933000  0.00000000  0.03866000  1.0
  Ga  Ga10  1  0.50000000  0.00000000  0.88114000  1.0
  Ga  Ga11  1  0.50000000  0.50000000  0.88114000  1.0
  Ni  Ni12  2  0.24926000  0.25119000  0.03969000  1.0
  Ni  Ni13  2  0.25000000  0.24999000  0.88114000  1.0
  Ni  Ni14  2  0.74774000  0.25161000  0.03858000  1.0
  Ni  Ni15  2  0.75000000  0.25001000  0.88114000  1.0
  Ni  Ni16  1  0.23353000  0.00000000  0.11213000  1.0
  Ni  Ni17  1  0.24472000  0.50000000  0.11917000  1.0
  Ni  Ni18  1  0.25000000  0.00000000  0.96038000  1.0
  Ni  Ni19  1  0.25000000  0.50000000  0.96038000  1.0
  Ni  Ni20  1  0.75000000  0.00000000  0.96038000  1.0
  Ni  Ni21  1  0.75000000  0.50000000  0.96038000  1.0
  Ni  Ni22  1  0.75888000  0.50000000  0.11109000  1.0
  Ni  Ni23  1  0.76235000  0.00000000  0.11228000  1.0
  C  C24  1  0.35685000  0.50000000  0.18192000  1.0
  O  O25  1  0.40676000  0.50000000  0.22475000  1.0
