# generated using pymatgen
data_Na8Li16Sb8C
_symmetry_space_group_name_H-M   'P 1'
_cell_length_a   6.84524000
_cell_length_b   9.68063000
_cell_length_c   27.26050000
_cell_angle_alpha   90.00000000
_cell_angle_beta   90.00000000
_cell_angle_gamma   90.00000000
_symmetry_Int_Tables_number   1
_chemical_formula_structural   Na8Li16Sb8C
_chemical_formula_sum   'Na8 Li16 Sb8 C1'
_cell_volume   1806.45071833
_cell_formula_units_Z   1
loop_
 _symmetry_equiv_pos_site_id
 _symmetry_equiv_pos_as_xyz
  1  'x, y, z'
loop_
 _atom_site_type_symbol
 _atom_site_label
 _atom_site_symmetry_multiplicity
 _atom_site_fract_x
 _atom_site_fract_y
 _atom_site_fract_z
 _atom_site_occupancy
  Na  Na0  1  0.00000000  0.00000000  0.86683000  1.0
  Na  Na1  1  0.50000000  0.24997000  0.95561000  1.0
  Na  Na2  1  0.50000000  0.75003000  0.95561000  1.0
  Na  Na3  1  0.00000000  0.50000000  0.86683000  1.0
  Na  Na4  1  0.00000000  0.50000000  0.03772000  1.0
  Na  Na5  1  0.50000000  0.73972000  0.15007000  1.0
  Na  Na6  1  0.50000000  0.26028000  0.15007000  1.0
  Na  Na7  1  0.00000000  0.00000000  0.04353000  1.0
  Li  Li8  1  0.25000000  0.00000000  0.95561000  1.0
  Li  Li9  1  0.75000000  0.50000000  0.95561000  1.0
  Li  Li10  1  0.75000000  0.00000000  0.95561000  1.0
  Li  Li11  1  0.25000000  0.50000000  0.95561000  1.0
  Li  Li12  1  0.75000000  0.74997000  0.86683000  1.0
  Li  Li13  1  0.25000000  0.25003000  0.86683000  1.0
  Li  Li14  1  0.25000000  0.74997000  0.86683000  1.0
  Li  Li15  1  0.75000000  0.25003000  0.86683000  1.0
  Li  Li16  1  0.21184000  0.50000000  0.12788000  1.0
  Li  Li17  1  0.74651000  0.00000000  0.13099000  1.0
  Li  Li18  1  0.78816000  0.50000000  0.12788000  1.0
  Li  Li19  1  0.25349000  0.00000000  0.13099000  1.0
  Li  Li20  1  0.73611000  0.25069000  0.04966000  1.0
  Li  Li21  1  0.26389000  0.74931000  0.04966000  1.0
  Li  Li22  1  0.26389000  0.25069000  0.04966000  1.0
  Li  Li23  1  0.73611000  0.74931000  0.04966000  1.0
  Sb  Sb24  1  0.00000000  0.74997000  0.95561000  1.0
  Sb  Sb25  1  0.50000000  0.00000000  0.86683000  1.0
  Sb  Sb26  1  0.00000000  0.25003000  0.95561000  1.0
  Sb  Sb27  1  0.50000000  0.50000000  0.86683000  1.0
  Sb  Sb28  1  0.00000000  0.23870000  0.13320000  1.0
  Sb  Sb29  1  0.50000000  0.50000000  0.05058000  1.0
  Sb  Sb30  1  0.00000000  0.76130000  0.13320000  1.0
  Sb  Sb31  1  0.50000000  0.00000000  0.04903000  1.0
  C  C32  1  0.00000000  0.00000000  0.17000000  1.0
