# generated using pymatgen
data_LiSiNi2
_symmetry_space_group_name_H-M   Pmm2
_cell_length_a   3.93386000
_cell_length_b   5.56332000
_cell_length_c   25.90080000
_cell_angle_alpha   90.00000000
_cell_angle_beta   90.00000000
_cell_angle_gamma   90.00000000
_symmetry_Int_Tables_number   25
_chemical_formula_structural   LiSiNi2
_chemical_formula_sum   'Li4 Si4 Ni8'
_cell_volume   566.84734845
_cell_formula_units_Z   4
loop_
 _symmetry_equiv_pos_site_id
 _symmetry_equiv_pos_as_xyz
  1  'x, y, z'
  2  '-x, -y, z'
  3  '-x, y, z'
  4  'x, -y, z'
loop_
 _atom_site_type_symbol
 _atom_site_label
 _atom_site_symmetry_multiplicity
 _atom_site_fract_x
 _atom_site_fract_y
 _atom_site_fract_z
 _atom_site_occupancy
  Li  Li0  1  0.00000000  0.00000000  0.11391000  1.0
  Li  Li1  1  0.00000000  0.00000000  0.96601500  1.0
  Li  Li2  1  0.50000000  0.50000000  0.03797000  1.0
  Li  Li3  1  0.50000000  0.50000000  0.86393000  1.0
  Si  Si4  1  0.00000000  0.50000000  0.11391000  1.0
  Si  Si5  1  0.00000000  0.50000000  0.96126000  1.0
  Si  Si6  1  0.50000000  0.00000000  0.03797000  1.0
  Si  Si7  1  0.50000000  0.00000000  0.88729500  1.0
  Ni  Ni8  2  0.00000000  0.23019000  0.89200500  1.0
  Ni  Ni9  2  0.00000000  0.25000000  0.03797000  1.0
  Ni  Ni10  2  0.50000000  0.25000000  0.11391000  1.0
  Ni  Ni11  2  0.50000000  0.25492000  0.96173500  1.0
