# generated using pymatgen
data_Li4Ti4Al4Pd4CO
_symmetry_space_group_name_H-M   Cm
_cell_length_a   8.73351828
_cell_length_b   8.73351828
_cell_length_c   24.63160000
_cell_angle_alpha   90.00000000
_cell_angle_beta   90.00000000
_cell_angle_gamma   90.00000000
_symmetry_Int_Tables_number   8
_chemical_formula_structural   Li4Ti4Al4Pd4CO
_chemical_formula_sum   'Li8 Ti8 Al8 Pd8 C2 O2'
_cell_volume   1878.75907161
_cell_formula_units_Z   2
loop_
 _symmetry_equiv_pos_site_id
 _symmetry_equiv_pos_as_xyz
  1  'x, y, z'
  2  'x, -y, z'
  3  'x+1/2, y+1/2, z'
  4  'x+1/2, -y+1/2, z'
loop_
 _atom_site_type_symbol
 _atom_site_label
 _atom_site_symmetry_multiplicity
 _atom_site_fract_x
 _atom_site_fract_y
 _atom_site_fract_z
 _atom_site_occupancy
  Li  Li0  4  0.49918000  0.25045000  0.11770000  1.0
  Li  Li1  2  0.25000000  0.00000000  0.96866000  1.0
  Li  Li2  2  0.25000000  0.50000000  0.96866000  1.0
  Ti  Ti3  4  0.25000000  0.25000000  0.90598000  1.0
  Ti  Ti4  2  0.00200000  0.50000000  0.03252000  1.0
  Ti  Ti5  2  0.49828000  0.50000000  0.03247000  1.0
  Al  Al6  4  0.24991000  0.25320000  0.03332000  1.0
  Al  Al7  2  0.00000000  0.00000000  0.90598000  1.0
  Al  Al8  2  0.00000000  0.50000000  0.90598000  1.0
  Pd  Pd9  4  0.00000000  0.25000000  0.96866000  1.0
  Pd  Pd10  2  0.24994000  0.50000000  0.09519000  1.0
  Pd  Pd11  2  0.25012000  0.00000000  0.08751000  1.0
  C  C12  2  0.25154000  0.50000000  0.17535000  1.0
  O  O13  2  0.25129500  0.50000000  0.22252000  1.0
