# generated using pymatgen
data_Ca8Sn24CO
_symmetry_space_group_name_H-M   Pmm2
_cell_length_a   9.62927000
_cell_length_b   9.62927000
_cell_length_c   27.22200000
_cell_angle_alpha   90.00000000
_cell_angle_beta   90.00000000
_cell_angle_gamma   90.00000000
_symmetry_Int_Tables_number   25
_chemical_formula_structural   Ca8Sn24CO
_chemical_formula_sum   'Ca8 Sn24 C1 O1'
_cell_volume   2524.10117043
_cell_formula_units_Z   1
loop_
 _symmetry_equiv_pos_site_id
 _symmetry_equiv_pos_as_xyz
  1  'x, y, z'
  2  '-x, -y, z'
  3  '-x, y, z'
  4  'x, -y, z'
loop_
 _atom_site_type_symbol
 _atom_site_label
 _atom_site_symmetry_multiplicity
 _atom_site_fract_x
 _atom_site_fract_y
 _atom_site_fract_z
 _atom_site_occupancy
  Ca  Ca0  2  0.25000000  0.00000000  0.04422000  1.0
  Ca  Ca1  2  0.25000000  0.00000000  0.86735000  1.0
  Ca  Ca2  2  0.25000000  0.50000000  0.04422000  1.0
  Ca  Ca3  2  0.25000000  0.50000000  0.86735000  1.0
  Sn  Sn4  4  0.25000000  0.25000000  0.13265000  1.0
  Sn  Sn5  4  0.25000000  0.25000000  0.95578000  1.0
  Sn  Sn6  2  0.00000000  0.25000000  0.04422000  1.0
  Sn  Sn7  2  0.00000000  0.25000000  0.86735000  1.0
  Sn  Sn8  2  0.50000000  0.25000000  0.04422000  1.0
  Sn  Sn9  2  0.50000000  0.25000000  0.86735000  1.0
  Sn  Sn10  1  0.00000000  0.00000000  0.13265000  1.0
  Sn  Sn11  1  0.00000000  0.00000000  0.95578000  1.0
  Sn  Sn12  1  0.00000000  0.50000000  0.13265000  1.0
  Sn  Sn13  1  0.00000000  0.50000000  0.95578000  1.0
  Sn  Sn14  1  0.50000000  0.00000000  0.13265000  1.0
  Sn  Sn15  1  0.50000000  0.00000000  0.95578000  1.0
  Sn  Sn16  1  0.50000000  0.50000000  0.13265000  1.0
  Sn  Sn17  1  0.50000000  0.50000000  0.95578000  1.0
  C  C18  1  0.00000000  0.00000000  0.20245000  1.0
  O  O19  1  0.00000000  0.00000000  0.24469000  1.0
