# generated using pymatgen
data_LiAlAgGe
_symmetry_space_group_name_H-M   'P 1'
_cell_length_a   5.56638000
_cell_length_b   8.55604000
_cell_length_c   24.17150000
_cell_angle_alpha   90.00000000
_cell_angle_beta   90.00000000
_cell_angle_gamma   90.00000000
_symmetry_Int_Tables_number   1
_chemical_formula_structural   LiAlAgGe
_chemical_formula_sum   'Li4 Al4 Ag4 Ge4'
_cell_volume   1151.19596659
_cell_formula_units_Z   4
loop_
 _symmetry_equiv_pos_site_id
 _symmetry_equiv_pos_as_xyz
  1  'x, y, z'
loop_
 _atom_site_type_symbol
 _atom_site_label
 _atom_site_symmetry_multiplicity
 _atom_site_fract_x
 _atom_site_fract_y
 _atom_site_fract_z
 _atom_site_occupancy
  Li  Li0  1  0.53240000  0.00010000  0.08468000  1.0
  Li  Li1  1  0.98008000  0.00000000  0.97124000  1.0
  Li  Li2  1  0.53235000  0.49991000  0.08469000  1.0
  Li  Li3  1  0.98008000  0.50000000  0.97124000  1.0
  Al  Al4  1  0.25156000  0.24997000  0.02698000  1.0
  Al  Al5  1  0.72012000  0.25000000  0.91371000  1.0
  Al  Al6  1  0.25383000  0.74997000  0.02664000  1.0
  Al  Al7  1  0.72012000  0.75000000  0.91371000  1.0
  Ag  Ag8  1  0.04379000  0.99856000  0.07615000  1.0
  Ag  Ag9  1  0.48008000  0.00000000  0.97124000  1.0
  Ag  Ag10  1  0.04375000  0.50133000  0.07614000  1.0
  Ag  Ag11  1  0.48008000  0.50000000  0.97124000  1.0
  Ge  Ge12  1  0.73763000  0.25009000  0.03156000  1.0
  Ge  Ge13  1  0.22012000  0.25000000  0.91371000  1.0
  Ge  Ge14  1  0.73865000  0.74998000  0.03151000  1.0
  Ge  Ge15  1  0.22012000  0.75000000  0.91371000  1.0
