# generated using pymatgen
data_VCo2Si
_symmetry_space_group_name_H-M   Pmm2
_cell_length_a   4.01906500
_cell_length_b   5.68381000
_cell_length_c   26.02860000
_cell_angle_alpha   90.00000000
_cell_angle_beta   90.00000000
_cell_angle_gamma   90.00000000
_symmetry_Int_Tables_number   25
_chemical_formula_structural   VCo2Si
_chemical_formula_sum   'V4 Co8 Si4'
_cell_volume   594.58697479
_cell_formula_units_Z   4
loop_
 _symmetry_equiv_pos_site_id
 _symmetry_equiv_pos_as_xyz
  1  'x, y, z'
  2  '-x, -y, z'
  3  '-x, y, z'
  4  'x, -y, z'
loop_
 _atom_site_type_symbol
 _atom_site_label
 _atom_site_symmetry_multiplicity
 _atom_site_fract_x
 _atom_site_fract_y
 _atom_site_fract_z
 _atom_site_occupancy
  V  V0  1  0.00000000  0.00000000  0.11581000  1.0
  V  V1  1  0.00000000  0.00000000  0.95919000  1.0
  V  V2  1  0.50000000  0.50000000  0.03860000  1.0
  V  V3  1  0.50000000  0.50000000  0.88146000  1.0
  Co  Co4  2  0.00000000  0.25000000  0.03860000  1.0
  Co  Co5  2  0.00000000  0.25026500  0.88823000  1.0
  Co  Co6  2  0.50000000  0.25000000  0.11581000  1.0
  Co  Co7  2  0.50000000  0.25225500  0.96140000  1.0
  Si  Si8  1  0.00000000  0.50000000  0.11581000  1.0
  Si  Si9  1  0.00000000  0.50000000  0.95994000  1.0
  Si  Si10  1  0.50000000  0.00000000  0.03860000  1.0
  Si  Si11  1  0.50000000  0.00000000  0.88332000  1.0
