# generated using pymatgen
data_Li4V4Ge4Pd4C
_symmetry_space_group_name_H-M   'P 1'
_cell_length_a   5.49597000
_cell_length_b   8.64114000
_cell_length_c   23.65060000
_cell_angle_alpha   90.00000000
_cell_angle_beta   90.00000000
_cell_angle_gamma   90.00000000
_symmetry_Int_Tables_number   1
_chemical_formula_structural   Li4V4Ge4Pd4C
_chemical_formula_sum   'Li4 V4 Ge4 Pd4 C1'
_cell_volume   1123.20119763
_cell_formula_units_Z   1
loop_
 _symmetry_equiv_pos_site_id
 _symmetry_equiv_pos_as_xyz
  1  'x, y, z'
loop_
 _atom_site_type_symbol
 _atom_site_label
 _atom_site_symmetry_multiplicity
 _atom_site_fract_x
 _atom_site_fract_y
 _atom_site_fract_z
 _atom_site_occupancy
  Li  Li0  1  0.51850000  0.95677000  0.10574000  1.0
  Li  Li1  1  0.76781000  0.00000000  0.97427000  1.0
  Li  Li2  1  0.51893000  0.54264000  0.10557000  1.0
  Li  Li3  1  0.76781000  0.50000000  0.97427000  1.0
  V  V4  1  0.18934000  0.25001000  0.02977000  1.0
  V  V5  1  0.40171000  0.25000000  0.92282000  1.0
  V  V6  1  0.11448000  0.74994000  0.01369000  1.0
  V  V7  1  0.40171000  0.75000000  0.92282000  1.0
  Ge  Ge8  1  0.08941000  0.97951000  0.06684000  1.0
  Ge  Ge9  1  0.26781000  0.00000000  0.97427000  1.0
  Ge  Ge10  1  0.08904000  0.52042000  0.06698000  1.0
  Ge  Ge11  1  0.26781000  0.50000000  0.97427000  1.0
  Pd  Pd12  1  0.78158000  0.25027000  0.04043000  1.0
  Pd  Pd13  1  0.90171000  0.25000000  0.92282000  1.0
  Pd  Pd14  1  0.61851000  0.74998000  0.01746000  1.0
  Pd  Pd15  1  0.90171000  0.75000000  0.92282000  1.0
  C  C16  1  0.47398000  0.24920000  0.08403000  1.0
