# generated using pymatgen
data_Li8Mg8Ag8Pb8C
_symmetry_space_group_name_H-M   'P 1'
_cell_length_a   6.87998000
_cell_length_b   9.72976000
_cell_length_c   27.29730000
_cell_angle_alpha   90.00000000
_cell_angle_beta   90.00000000
_cell_angle_gamma   90.00000000
_symmetry_Int_Tables_number   1
_chemical_formula_structural   Li8Mg8Ag8Pb8C
_chemical_formula_sum   'Li8 Mg8 Ag8 Pb8 C1'
_cell_volume   1827.29639029
_cell_formula_units_Z   1
loop_
 _symmetry_equiv_pos_site_id
 _symmetry_equiv_pos_as_xyz
  1  'x, y, z'
loop_
 _atom_site_type_symbol
 _atom_site_label
 _atom_site_symmetry_multiplicity
 _atom_site_fract_x
 _atom_site_fract_y
 _atom_site_fract_z
 _atom_site_occupancy
  Li  Li0  1  0.25000000  0.00000000  0.95545000  1.0
  Li  Li1  1  0.25000000  0.50000000  0.95545000  1.0
  Li  Li2  1  0.75000000  0.75000000  0.86634000  1.0
  Li  Li3  1  0.75000000  0.25000000  0.86634000  1.0
  Li  Li4  1  0.27348000  0.48562000  0.14020000  1.0
  Li  Li5  1  0.27351000  0.01440000  0.14019000  1.0
  Li  Li6  1  0.75802000  0.24998000  0.04504000  1.0
  Li  Li7  1  0.75198000  0.75002000  0.05467000  1.0
  Mg  Mg8  1  0.75000000  0.00000000  0.95545000  1.0
  Mg  Mg9  1  0.75000000  0.50000000  0.95545000  1.0
  Mg  Mg10  1  0.25000000  0.75000000  0.86634000  1.0
  Mg  Mg11  1  0.25000000  0.25000000  0.86634000  1.0
  Mg  Mg12  1  0.78792000  0.52839000  0.13130000  1.0
  Mg  Mg13  1  0.78785000  0.97168000  0.13130000  1.0
  Mg  Mg14  1  0.24732000  0.25002000  0.05351000  1.0
  Mg  Mg15  1  0.13504000  0.75001000  0.08543000  1.0
  Ag  Ag16  1  0.00000000  0.00000000  0.86634000  1.0
  Ag  Ag17  1  0.00000000  0.50000000  0.86634000  1.0
  Ag  Ag18  1  0.50000000  0.25000000  0.95545000  1.0
  Ag  Ag19  1  0.50000000  0.75000000  0.95545000  1.0
  Ag  Ag20  1  0.01222000  0.49100000  0.04060000  1.0
  Ag  Ag21  1  0.01227000  0.00900000  0.04060000  1.0
  Ag  Ag22  1  0.48594000  0.75001000  0.13930000  1.0
  Ag  Ag23  1  0.55178000  0.24999000  0.12721000  1.0
  Pb  Pb24  1  0.00000000  0.75000000  0.95545000  1.0
  Pb  Pb25  1  0.00000000  0.25000000  0.95545000  1.0
  Pb  Pb26  1  0.50000000  0.50000000  0.86634000  1.0
  Pb  Pb27  1  0.50000000  0.00000000  0.86634000  1.0
  Pb  Pb28  1  0.99882000  0.25003000  0.15224000  1.0
  Pb  Pb29  1  0.07951000  0.75004000  0.19898000  1.0
  Pb  Pb30  1  0.47711000  0.97810000  0.04754000  1.0
  Pb  Pb31  1  0.47713000  0.52191000  0.04755000  1.0
  C  C32  1  0.85958000  0.75005000  0.13073000  1.0
