# generated using pymatgen
data_Ga4Pt12CO
_symmetry_space_group_name_H-M   'P 1'
_cell_length_a   5.60543000
_cell_length_b   7.92728000
_cell_length_c   24.20410000
_cell_angle_alpha   90.00000000
_cell_angle_beta   90.00000000
_cell_angle_gamma   90.00000000
_symmetry_Int_Tables_number   1
_chemical_formula_structural   Ga4Pt12CO
_chemical_formula_sum   'Ga4 Pt12 C1 O1'
_cell_volume   1075.52886459
_cell_formula_units_Z   1
loop_
 _symmetry_equiv_pos_site_id
 _symmetry_equiv_pos_as_xyz
  1  'x, y, z'
loop_
 _atom_site_type_symbol
 _atom_site_label
 _atom_site_symmetry_multiplicity
 _atom_site_fract_x
 _atom_site_fract_y
 _atom_site_fract_z
 _atom_site_occupancy
  Ga  Ga0  1  0.00000000  0.00000000  0.91975000  1.0
  Ga  Ga1  1  0.50000000  0.00000000  0.02895000  1.0
  Ga  Ga2  1  0.00000000  0.50000000  0.91997000  1.0
  Ga  Ga3  1  0.50000000  0.50000000  0.02895000  1.0
  Pt  Pt4  1  0.50000000  0.00000000  0.90630000  1.0
  Pt  Pt5  1  0.75365000  0.24514000  0.96737000  1.0
  Pt  Pt6  1  0.24635000  0.24514000  0.96737000  1.0
  Pt  Pt7  1  0.00000000  0.00000000  0.02895000  1.0
  Pt  Pt8  1  0.25000000  0.24998000  0.08685000  1.0
  Pt  Pt9  1  0.75000000  0.24998000  0.08685000  1.0
  Pt  Pt10  1  0.50000000  0.50000000  0.92056000  1.0
  Pt  Pt11  1  0.75365000  0.75486000  0.96737000  1.0
  Pt  Pt12  1  0.24635000  0.75486000  0.96737000  1.0
  Pt  Pt13  1  0.00000000  0.50000000  0.02895000  1.0
  Pt  Pt14  1  0.25000000  0.75002000  0.08685000  1.0
  Pt  Pt15  1  0.75000000  0.75002000  0.08685000  1.0
  C  C16  1  0.50000000  0.00000000  0.82829000  1.0
  O  O17  1  0.50000000  0.00000000  0.78055000  1.0
