# generated using pymatgen
data_Li4Sc4In4Ag4CO
_symmetry_space_group_name_H-M   'P 1'
_cell_length_a   6.68683000
_cell_length_b   6.68683000
_cell_length_c   25.01510000
_cell_angle_alpha   90.00000000
_cell_angle_beta   90.00000000
_cell_angle_gamma   90.00000000
_symmetry_Int_Tables_number   1
_chemical_formula_structural   Li4Sc4In4Ag4CO
_chemical_formula_sum   'Li4 Sc4 In4 Ag4 C1 O1'
_cell_volume   1118.51756302
_cell_formula_units_Z   1
loop_
 _symmetry_equiv_pos_site_id
 _symmetry_equiv_pos_as_xyz
  1  'x, y, z'
loop_
 _atom_site_type_symbol
 _atom_site_label
 _atom_site_symmetry_multiplicity
 _atom_site_fract_x
 _atom_site_fract_y
 _atom_site_fract_z
 _atom_site_occupancy
  Li  Li0  1  0.00000000  0.50000000  0.87476000  1.0
  Li  Li1  1  0.00000000  0.00000000  0.03341000  1.0
  Li  Li2  1  0.50000000  0.50000000  0.03341000  1.0
  Li  Li3  1  0.50000000  0.00000000  0.87490000  1.0
  Sc  Sc4  1  0.75148000  0.25131000  0.96260000  1.0
  Sc  Sc5  1  0.74999000  0.75000000  0.10024000  1.0
  Sc  Sc6  1  0.25001000  0.25000000  0.10024000  1.0
  Sc  Sc7  1  0.24852000  0.74869000  0.96260000  1.0
  In  In8  1  0.25047000  0.24965000  0.96014000  1.0
  In  In9  1  0.24999000  0.75000000  0.10024000  1.0
  In  In10  1  0.75001000  0.25000000  0.10024000  1.0
  In  In11  1  0.74953000  0.75035000  0.96014000  1.0
  Ag  Ag12  1  0.00000000  0.00000000  0.89218000  1.0
  Ag  Ag13  1  0.00000000  0.50000000  0.03341000  1.0
  Ag  Ag14  1  0.50000000  0.00000000  0.03341000  1.0
  Ag  Ag15  1  0.50000000  0.50000000  0.89215000  1.0
  C  C16  1  0.00000000  0.50000000  0.79152000  1.0
  O  O17  1  0.00000000  0.50000000  0.74590000  1.0
