# generated using pymatgen
data_Li4Sc4In4Ag4CO
_symmetry_space_group_name_H-M   P2
_cell_length_a   6.68683000
_cell_length_b   25.01510000
_cell_length_c   6.68683000
_cell_angle_alpha   90.00000000
_cell_angle_beta   90.00000000
_cell_angle_gamma   90.00000000
_symmetry_Int_Tables_number   3
_chemical_formula_structural   Li4Sc4In4Ag4CO
_chemical_formula_sum   'Li4 Sc4 In4 Ag4 C1 O1'
_cell_volume   1118.51756302
_cell_formula_units_Z   1
loop_
 _symmetry_equiv_pos_site_id
 _symmetry_equiv_pos_as_xyz
  1  'x, y, z'
  2  '-x, y, -z'
loop_
 _atom_site_type_symbol
 _atom_site_label
 _atom_site_symmetry_multiplicity
 _atom_site_fract_x
 _atom_site_fract_y
 _atom_site_fract_z
 _atom_site_occupancy
  Li  Li0  1  0.00000000  0.12510000  0.50000000  1.0
  Li  Li1  1  0.00000000  0.96659000  0.00000000  1.0
  Li  Li2  1  0.50000000  0.12524000  0.00000000  1.0
  Li  Li3  1  0.50000000  0.96659000  0.50000000  1.0
  Sc  Sc4  2  0.25000000  0.89976000  0.25001000  1.0
  Sc  Sc5  2  0.25131000  0.03740000  0.75148000  1.0
  In  In6  2  0.24965000  0.03986000  0.25047000  1.0
  In  In7  2  0.25000000  0.89976000  0.75001000  1.0
  Ag  Ag8  1  0.00000000  0.10782000  0.00000000  1.0
  Ag  Ag9  1  0.00000000  0.96659000  0.50000000  1.0
  Ag  Ag10  1  0.50000000  0.10785000  0.50000000  1.0
  Ag  Ag11  1  0.50000000  0.96659000  0.00000000  1.0
  C  C12  1  0.50000000  0.20848000  0.00000000  1.0
  O  O13  1  0.50000000  0.25410000  0.00000000  1.0
