# generated using pymatgen
data_Li8Ga16Pd8CO
_symmetry_space_group_name_H-M   'P 1'
_cell_length_a   6.24448000
_cell_length_b   8.83103000
_cell_length_c   26.62330000
_cell_angle_alpha   90.00000000
_cell_angle_beta   90.00000000
_cell_angle_gamma   90.00000000
_symmetry_Int_Tables_number   1
_chemical_formula_structural   Li8Ga16Pd8CO
_chemical_formula_sum   'Li8 Ga16 Pd8 C1 O1'
_cell_volume   1468.14694264
_cell_formula_units_Z   1
loop_
 _symmetry_equiv_pos_site_id
 _symmetry_equiv_pos_as_xyz
  1  'x, y, z'
loop_
 _atom_site_type_symbol
 _atom_site_label
 _atom_site_symmetry_multiplicity
 _atom_site_fract_x
 _atom_site_fract_y
 _atom_site_fract_z
 _atom_site_occupancy
  Li  Li0  1  0.00000000  0.75001000  0.87561000  1.0
  Li  Li1  1  0.50000000  0.00000000  0.95854000  1.0
  Li  Li2  1  0.50000000  0.50000000  0.95854000  1.0
  Li  Li3  1  0.00000000  0.24999000  0.87561000  1.0
  Li  Li4  1  0.00000000  0.25398000  0.04337000  1.0
  Li  Li5  1  0.50000000  0.50000000  0.16658000  1.0
  Li  Li6  1  0.50000000  0.00000000  0.14648000  1.0
  Li  Li7  1  0.00000000  0.74602000  0.04337000  1.0
  Ga  Ga8  1  0.24999000  0.75001000  0.95854000  1.0
  Ga  Ga9  1  0.75001000  0.24999000  0.95854000  1.0
  Ga  Ga10  1  0.75001000  0.75001000  0.95854000  1.0
  Ga  Ga11  1  0.24999000  0.24999000  0.95854000  1.0
  Ga  Ga12  1  0.74999000  0.50000000  0.87561000  1.0
  Ga  Ga13  1  0.24999000  0.00000000  0.87561000  1.0
  Ga  Ga14  1  0.25001000  0.50000000  0.87561000  1.0
  Ga  Ga15  1  0.75001000  0.00000000  0.87561000  1.0
  Ga  Ga16  1  0.26555000  0.26161000  0.12846000  1.0
  Ga  Ga17  1  0.73445000  0.73839000  0.12846000  1.0
  Ga  Ga18  1  0.73445000  0.26161000  0.12846000  1.0
  Ga  Ga19  1  0.26555000  0.73839000  0.12846000  1.0
  Ga  Ga20  1  0.74226000  0.00000000  0.05167000  1.0
  Ga  Ga21  1  0.27183000  0.50000000  0.04575000  1.0
  Ga  Ga22  1  0.25774000  0.00000000  0.05167000  1.0
  Ga  Ga23  1  0.72817000  0.50000000  0.04575000  1.0
  Pd  Pd24  1  0.00000000  0.50000000  0.95854000  1.0
  Pd  Pd25  1  0.50000000  0.75001000  0.87561000  1.0
  Pd  Pd26  1  0.00000000  0.00000000  0.95854000  1.0
  Pd  Pd27  1  0.50000000  0.24999000  0.87561000  1.0
  Pd  Pd28  1  0.00000000  0.00000000  0.13241000  1.0
  Pd  Pd29  1  0.50000000  0.24396000  0.03639000  1.0
  Pd  Pd30  1  0.00000000  0.50000000  0.11893000  1.0
  Pd  Pd31  1  0.50000000  0.75604000  0.03639000  1.0
  C  C32  1  0.00000000  0.00000000  0.20637000  1.0
  O  O33  1  0.00000000  0.00000000  0.24970000  1.0
