# generated using pymatgen
data_Li8Sc8Al8Pd8CO
_symmetry_space_group_name_H-M   P1
_cell_length_a   6.37868000
_cell_length_b   9.02082000
_cell_length_c   26.76560000
_cell_angle_alpha   90.00000000
_cell_angle_beta   90.00000000
_cell_angle_gamma   90.00000000
_symmetry_Int_Tables_number   1
_chemical_formula_structural   Li8Sc8Al8Pd8CO
_chemical_formula_sum   'Li8 Sc8 Al8 Pd8 C1 O1'
_cell_volume   1540.11735856
_cell_formula_units_Z   1
loop_
 _symmetry_equiv_pos_site_id
 _symmetry_equiv_pos_as_xyz
  1  'x, y, z'
loop_
 _atom_site_type_symbol
 _atom_site_label
 _atom_site_symmetry_multiplicity
 _atom_site_fract_x
 _atom_site_fract_y
 _atom_site_fract_z
 _atom_site_occupancy
  Li  Li0  1  0.23243000  0.24997000  0.04313000  1.0
  Li  Li1  1  0.23928000  0.74985000  0.04295000  1.0
  Li  Li2  1  0.25000000  0.25000000  0.87361000  1.0
  Li  Li3  1  0.25000000  0.75000000  0.87361000  1.0
  Li  Li4  1  0.50330000  0.05360000  0.19930000  1.0
  Li  Li5  1  0.51182000  0.44953000  0.19865000  1.0
  Li  Li6  1  0.75000000  0.00000000  0.95787000  1.0
  Li  Li7  1  0.75000000  0.50000000  0.95787000  1.0
  Sc  Sc8  1  -0.00000000  0.25000000  0.95787000  1.0
  Sc  Sc9  1  -0.00000000  0.75000000  0.95787000  1.0
  Sc  Sc10  1  0.50000000  0.00000000  0.87361000  1.0
  Sc  Sc11  1  0.50000000  0.50000000  0.87361000  1.0
  Sc  Sc12  1  0.51264000  0.99667000  0.04712000  1.0
  Sc  Sc13  1  0.51314000  0.50315000  0.04723000  1.0
  Sc  Sc14  1  0.94818000  0.24979000  0.12893000  1.0
  Sc  Sc15  1  0.95593000  0.74993000  0.12534000  1.0
  Al  Al16  1  0.00000000  0.00000000  0.87361000  1.0
  Al  Al17  1  0.00000000  0.50000000  0.87361000  1.0
  Al  Al18  1  0.45381000  0.74993000  0.13105000  1.0
  Al  Al19  1  0.48633000  0.24989000  0.11922000  1.0
  Al  Al20  1  0.50000000  0.25000000  0.95787000  1.0
  Al  Al21  1  0.50000000  0.75000000  0.95787000  1.0
  Al  Al22  1  0.99440000  0.00065000  0.04234000  1.0
  Al  Al23  1  0.99473000  0.49916000  0.04242000  1.0
  Pd  Pd24  1  0.24124000  0.99803000  0.12060000  1.0
  Pd  Pd25  1  0.24153000  0.50148000  0.12067000  1.0
  Pd  Pd26  1  0.25000000  0.00000000  0.95787000  1.0
  Pd  Pd27  1  0.25000000  0.50000000  0.95787000  1.0
  Pd  Pd28  1  0.74676000  0.24992000  0.03722000  1.0
  Pd  Pd29  1  0.75000000  0.25000000  0.87361000  1.0
  Pd  Pd30  1  0.75000000  0.75000000  0.87361000  1.0
  Pd  Pd31  1  0.75294000  0.74996000  0.03908000  1.0
  C  C32  1  0.70021000  0.24973000  0.18190000  1.0
  O  O33  1  0.59733000  0.24994000  0.22369000  1.0
