# generated using pymatgen
data_Ni24Sn8CO
_symmetry_space_group_name_H-M   Pmm2
_cell_length_a   7.51544000
_cell_length_b   7.51544000
_cell_length_c   25.63660000
_cell_angle_alpha   90.00000000
_cell_angle_beta   90.00000000
_cell_angle_gamma   90.00000000
_symmetry_Int_Tables_number   25
_chemical_formula_structural   Ni24Sn8CO
_chemical_formula_sum   'Ni24 Sn8 C1 O1'
_cell_volume   1448.00229816
_cell_formula_units_Z   1
loop_
 _symmetry_equiv_pos_site_id
 _symmetry_equiv_pos_as_xyz
  1  'x, y, z'
  2  '-x, -y, z'
  3  '-x, y, z'
  4  'x, -y, z'
loop_
 _atom_site_type_symbol
 _atom_site_label
 _atom_site_symmetry_multiplicity
 _atom_site_fract_x
 _atom_site_fract_y
 _atom_site_fract_z
 _atom_site_occupancy
  Ni  Ni0  4  0.25000000  0.25000000  0.10993000  1.0
  Ni  Ni1  4  0.25000000  0.25000000  0.96336000  1.0
  Ni  Ni2  2  0.00000000  0.25000000  0.03664000  1.0
  Ni  Ni3  2  0.00000000  0.25000000  0.89007000  1.0
  Ni  Ni4  2  0.50000000  0.25000000  0.03664000  1.0
  Ni  Ni5  2  0.50000000  0.25000000  0.89007000  1.0
  Ni  Ni6  1  0.00000000  0.00000000  0.10993000  1.0
  Ni  Ni7  1  0.00000000  0.00000000  0.96336000  1.0
  Ni  Ni8  1  0.00000000  0.50000000  0.10993000  1.0
  Ni  Ni9  1  0.00000000  0.50000000  0.96336000  1.0
  Ni  Ni10  1  0.50000000  0.00000000  0.10993000  1.0
  Ni  Ni11  1  0.50000000  0.00000000  0.96336000  1.0
  Ni  Ni12  1  0.50000000  0.50000000  0.10993000  1.0
  Ni  Ni13  1  0.50000000  0.50000000  0.96336000  1.0
  Sn  Sn14  2  0.25000000  0.00000000  0.03664000  1.0
  Sn  Sn15  2  0.25000000  0.00000000  0.89007000  1.0
  Sn  Sn16  2  0.25000000  0.50000000  0.03664000  1.0
  Sn  Sn17  2  0.25000000  0.50000000  0.89007000  1.0
  C  C18  1  0.00000000  0.00000000  0.18405000  1.0
  O  O19  1  0.00000000  0.00000000  0.22890000  1.0
