data_image0
_chemical_formula_structural       MgPd3MgPd3MgPd3MgPd3MgPd3MgPd3MgPd3MgPd3C
_chemical_formula_sum              "Mg8 Pd24 C1"
_cell_length_a       8.03636
_cell_length_b       8.03636
_cell_length_c       26.0273
_cell_angle_alpha    90
_cell_angle_beta     90
_cell_angle_gamma    90

_space_group_name_H-M_alt    "P 1"
_space_group_IT_number       1

loop_
  _space_group_symop_operation_xyz
  'x, y, z'

loop_
  _atom_site_type_symbol
  _atom_site_label
  _atom_site_symmetry_multiplicity
  _atom_site_fract_x
  _atom_site_fract_y
  _atom_site_fract_z
  _atom_site_occupancy
  Mg  Mg1       1.0  0.00000  0.00000  0.88421  1.0000
  Pd  Pd1       1.0  0.00000  0.25000  0.96140  1.0000
  Pd  Pd2       1.0  0.25000  0.00000  0.96140  1.0000
  Pd  Pd3       1.0  0.25000  0.25000  0.88421  1.0000
  Mg  Mg2       1.0  0.00000  0.00000  0.03860  1.0000
  Pd  Pd4       1.0  0.00000  0.25000  0.11579  1.0000
  Pd  Pd5       1.0  0.25000  0.00000  0.11579  1.0000
  Pd  Pd6       1.0  0.25000  0.25000  0.03860  1.0000
  Mg  Mg3       1.0  0.00000  0.50000  0.88421  1.0000
  Pd  Pd7       1.0  0.00000  0.75000  0.96140  1.0000
  Pd  Pd8       1.0  0.25000  0.50000  0.96140  1.0000
  Pd  Pd9       1.0  0.25000  0.75000  0.88421  1.0000
  Mg  Mg4       1.0  0.00000  0.50000  0.03860  1.0000
  Pd  Pd10      1.0  0.00000  0.75000  0.11579  1.0000
  Pd  Pd11      1.0  0.25000  0.50000  0.11579  1.0000
  Pd  Pd12      1.0  0.25000  0.75000  0.03860  1.0000
  Mg  Mg5       1.0  0.50000  0.00000  0.88421  1.0000
  Pd  Pd13      1.0  0.50000  0.25000  0.96140  1.0000
  Pd  Pd14      1.0  0.75000  0.00000  0.96140  1.0000
  Pd  Pd15      1.0  0.75000  0.25000  0.88421  1.0000
  Mg  Mg6       1.0  0.50000  0.00000  0.03860  1.0000
  Pd  Pd16      1.0  0.50000  0.25000  0.11579  1.0000
  Pd  Pd17      1.0  0.75000  0.00000  0.11579  1.0000
  Pd  Pd18      1.0  0.75000  0.25000  0.03860  1.0000
  Mg  Mg7       1.0  0.50000  0.50000  0.88421  1.0000
  Pd  Pd19      1.0  0.50000  0.75000  0.96140  1.0000
  Pd  Pd20      1.0  0.75000  0.50000  0.96140  1.0000
  Pd  Pd21      1.0  0.75000  0.75000  0.88421  1.0000
  Mg  Mg8       1.0  0.50000  0.50000  0.03860  1.0000
  Pd  Pd22      1.0  0.50000  0.75000  0.11579  1.0000
  Pd  Pd23      1.0  0.75000  0.50000  0.11579  1.0000
  Pd  Pd24      1.0  0.75000  0.75000  0.03860  1.0000
  C   C1        1.0  0.00000  0.00000  0.14652  1.0000
