# generated using pymatgen
data_Ga8Co8C
_symmetry_space_group_name_H-M   'P 1'
_cell_length_a   5.76941000
_cell_length_b   5.76941000
_cell_length_c   24.32710000
_cell_angle_alpha   90.00000000
_cell_angle_beta   90.00000000
_cell_angle_gamma   90.00000000
_symmetry_Int_Tables_number   1
_chemical_formula_structural   Ga8Co8C
_chemical_formula_sum   'Ga8 Co8 C1'
_cell_volume   809.75408257
_cell_formula_units_Z   1
loop_
 _symmetry_equiv_pos_site_id
 _symmetry_equiv_pos_as_xyz
  1  'x, y, z'
loop_
 _atom_site_type_symbol
 _atom_site_label
 _atom_site_symmetry_multiplicity
 _atom_site_fract_x
 _atom_site_fract_y
 _atom_site_fract_z
 _atom_site_occupancy
  Ga  Ga0  1  0.25000000  0.25000000  0.96787000  1.0
  Ga  Ga1  1  0.24849500  0.24849500  0.08693000  1.0
  Ga  Ga2  1  0.25000000  0.75000000  0.96787000  1.0
  Ga  Ga3  1  0.24849500  0.75150500  0.08693000  1.0
  Ga  Ga4  1  0.75000000  0.25000000  0.96787000  1.0
  Ga  Ga5  1  0.75150500  0.24849500  0.08693000  1.0
  Ga  Ga6  1  0.75000000  0.75000000  0.96787000  1.0
  Ga  Ga7  1  0.75150500  0.75150500  0.08693000  1.0
  Co  Co8  1  0.00000000  0.00000000  0.90858000  1.0
  Co  Co9  1  0.00000000  0.00000000  0.02638000  1.0
  Co  Co10  1  0.00000000  0.50000000  0.90858000  1.0
  Co  Co11  1  0.00000000  0.50000000  0.02729000  1.0
  Co  Co12  1  0.50000000  0.00000000  0.90858000  1.0
  Co  Co13  1  0.50000000  0.00000000  0.02729000  1.0
  Co  Co14  1  0.50000000  0.50000000  0.90858000  1.0
  Co  Co15  1  0.50000000  0.50000000  0.02806000  1.0
  C  C16  1  0.00000000  0.00000000  0.11859000  1.0
