# generated using pymatgen
data_Li4Sc4In4Ge4C
_symmetry_space_group_name_H-M   Pm
_cell_length_a   6.08490000
_cell_length_b   8.12626000
_cell_length_c   24.54620000
_cell_angle_alpha   90.00000000
_cell_angle_beta   90.00000000
_cell_angle_gamma   90.00000000
_symmetry_Int_Tables_number   6
_chemical_formula_structural   Li4Sc4In4Ge4C
_chemical_formula_sum   'Li4 Sc4 In4 Ge4 C1'
_cell_volume   1213.74772066
_cell_formula_units_Z   1
loop_
 _symmetry_equiv_pos_site_id
 _symmetry_equiv_pos_as_xyz
  1  'x, y, z'
  2  'x, -y, z'
loop_
 _atom_site_type_symbol
 _atom_site_label
 _atom_site_symmetry_multiplicity
 _atom_site_fract_x
 _atom_site_fract_y
 _atom_site_fract_z
 _atom_site_occupancy
  Li  Li0  2  0.27186000  0.25000000  0.03087000  1.0
  Li  Li1  2  0.80104000  0.18407000  0.90019000  1.0
  Sc  Sc2  2  0.34836000  0.21602000  0.90808000  1.0
  Sc  Sc3  2  0.77186000  0.25000000  0.03087000  1.0
  In  In4  1  0.05523000  0.50000000  0.96286000  1.0
  In  In5  1  0.05906000  0.00000000  0.97501000  1.0
  In  In6  1  0.50000000  0.00000000  0.09260000  1.0
  In  In7  1  0.50000000  0.50000000  0.09260000  1.0
  Ge  Ge8  1  0.00000000  0.00000000  0.09260000  1.0
  Ge  Ge9  1  0.00000000  0.50000000  0.09260000  1.0
  Ge  Ge10  1  0.55693000  0.00000000  0.97450000  1.0
  Ge  Ge11  1  0.56766000  0.50000000  0.95155000  1.0
  C  C12  1  0.52998000  0.00000000  0.88976000  1.0
