# generated using pymatgen
data_V4Ir12CO
_symmetry_space_group_name_H-M   Pmm2
_cell_length_a   5.44613000
_cell_length_b   7.70199000
_cell_length_c   24.08460000
_cell_angle_alpha   90.00000000
_cell_angle_beta   90.00000000
_cell_angle_gamma   90.00000000
_symmetry_Int_Tables_number   25
_chemical_formula_structural   V4Ir12CO
_chemical_formula_sum   'V4 Ir12 C1 O1'
_cell_volume   1010.25356605
_cell_formula_units_Z   1
loop_
 _symmetry_equiv_pos_site_id
 _symmetry_equiv_pos_as_xyz
  1  'x, y, z'
  2  '-x, -y, z'
  3  '-x, y, z'
  4  'x, -y, z'
loop_
 _atom_site_type_symbol
 _atom_site_label
 _atom_site_symmetry_multiplicity
 _atom_site_fract_x
 _atom_site_fract_y
 _atom_site_fract_z
 _atom_site_occupancy
  V  V0  1  0.00000000  0.00000000  0.92313000  1.0
  V  V1  1  0.00000000  0.50000000  0.92740000  1.0
  V  V2  1  0.50000000  0.00000000  0.02827000  1.0
  V  V3  1  0.50000000  0.50000000  0.02827000  1.0
  Ir  Ir4  4  0.24864000  0.24765000  0.96818000  1.0
  Ir  Ir5  4  0.25000000  0.25000000  0.08480000  1.0
  Ir  Ir6  1  0.00000000  0.00000000  0.02827000  1.0
  Ir  Ir7  1  0.00000000  0.50000000  0.02827000  1.0
  Ir  Ir8  1  0.50000000  0.00000000  0.91881000  1.0
  Ir  Ir9  1  0.50000000  0.50000000  0.92094000  1.0
  C  C10  1  0.00000000  0.00000000  0.83718000  1.0
  O  O11  1  0.00000000  0.00000000  0.78945000  1.0
