# generated using pymatgen
data_Li8Ag4Sn4CO
_symmetry_space_group_name_H-M   'P 1'
_cell_length_a   6.65960000
_cell_length_b   6.65960000
_cell_length_c   24.99470000
_cell_angle_alpha   90.00000000
_cell_angle_beta   90.00000000
_cell_angle_gamma   90.00000000
_symmetry_Int_Tables_number   1
_chemical_formula_structural   Li8Ag4Sn4CO
_chemical_formula_sum   'Li8 Ag4 Sn4 C1 O1'
_cell_volume   1108.52174756
_cell_formula_units_Z   1
loop_
 _symmetry_equiv_pos_site_id
 _symmetry_equiv_pos_as_xyz
  1  'x, y, z'
loop_
 _atom_site_type_symbol
 _atom_site_label
 _atom_site_symmetry_multiplicity
 _atom_site_fract_x
 _atom_site_fract_y
 _atom_site_fract_z
 _atom_site_occupancy
  Li  Li0  1  0.00000000  0.00000000  0.03331000  1.0
  Li  Li1  1  0.50000000  0.00000000  0.89384000  1.0
  Li  Li2  1  0.00000000  0.50000000  0.89090000  1.0
  Li  Li3  1  0.50000000  0.50000000  0.03331000  1.0
  Li  Li4  1  0.25096000  0.24901000  0.96318000  1.0
  Li  Li5  1  0.25000000  0.75000000  0.09992000  1.0
  Li  Li6  1  0.74904000  0.75099000  0.96318000  1.0
  Li  Li7  1  0.75000000  0.25000000  0.09992000  1.0
  Ag  Ag8  1  0.25000000  0.25000000  0.09992000  1.0
  Ag  Ag9  1  0.24956000  0.74932000  0.96390000  1.0
  Ag  Ag10  1  0.75000000  0.75000000  0.09992000  1.0
  Ag  Ag11  1  0.75044000  0.25068000  0.96390000  1.0
  Sn  Sn12  1  0.00000000  0.00000000  0.89477000  1.0
  Sn  Sn13  1  0.50000000  0.50000000  0.89470000  1.0
  Sn  Sn14  1  0.50000000  0.00000000  0.03331000  1.0
  Sn  Sn15  1  0.00000000  0.50000000  0.03331000  1.0
  C  C16  1  0.00000000  0.50000000  0.80622000  1.0
  O  O17  1  0.00000000  0.50000000  0.76065000  1.0
