# generated using pymatgen
data_Li8Ag4Sn4CO
_symmetry_space_group_name_H-M   P2
_cell_length_a   6.65960000
_cell_length_b   24.99470000
_cell_length_c   6.65960000
_cell_angle_alpha   90.00000000
_cell_angle_beta   90.00000000
_cell_angle_gamma   90.00000000
_symmetry_Int_Tables_number   3
_chemical_formula_structural   Li8Ag4Sn4CO
_chemical_formula_sum   'Li8 Ag4 Sn4 C1 O1'
_cell_volume   1108.52174756
_cell_formula_units_Z   1
loop_
 _symmetry_equiv_pos_site_id
 _symmetry_equiv_pos_as_xyz
  1  'x, y, z'
  2  '-x, y, -z'
loop_
 _atom_site_type_symbol
 _atom_site_label
 _atom_site_symmetry_multiplicity
 _atom_site_fract_x
 _atom_site_fract_y
 _atom_site_fract_z
 _atom_site_occupancy
  Li  Li0  2  0.24901000  0.03682000  0.25096000  1.0
  Li  Li1  2  0.25000000  0.90008000  0.75000000  1.0
  Li  Li2  1  0.00000000  0.10616000  0.50000000  1.0
  Li  Li3  1  0.00000000  0.96669000  0.00000000  1.0
  Li  Li4  1  0.50000000  0.10910000  0.00000000  1.0
  Li  Li5  1  0.50000000  0.96669000  0.50000000  1.0
  Ag  Ag6  2  0.25000000  0.90008000  0.25000000  1.0
  Ag  Ag7  2  0.25068000  0.03610000  0.75044000  1.0
  Sn  Sn8  1  0.00000000  0.10523000  0.00000000  1.0
  Sn  Sn9  1  0.00000000  0.96669000  0.50000000  1.0
  Sn  Sn10  1  0.50000000  0.10530000  0.50000000  1.0
  Sn  Sn11  1  0.50000000  0.96669000  0.00000000  1.0
  C  C12  1  0.50000000  0.19378000  0.00000000  1.0
  O  O13  1  0.50000000  0.23935000  0.00000000  1.0
