# generated using pymatgen
data_Li4Mg4In4Pb4CO
_symmetry_space_group_name_H-M   P2
_cell_length_a   7.11424000
_cell_length_b   25.33570000
_cell_length_c   7.11424000
_cell_angle_alpha   90.00000000
_cell_angle_beta   90.00000000
_cell_angle_gamma   90.00000000
_symmetry_Int_Tables_number   3
_chemical_formula_structural   Li4Mg4In4Pb4CO
_chemical_formula_sum   'Li4 Mg4 In4 Pb4 C1 O1'
_cell_volume   1282.30085574
_cell_formula_units_Z   1
loop_
 _symmetry_equiv_pos_site_id
 _symmetry_equiv_pos_as_xyz
  1  'x, y, z'
  2  '-x, y, -z'
loop_
 _atom_site_type_symbol
 _atom_site_label
 _atom_site_symmetry_multiplicity
 _atom_site_fract_x
 _atom_site_fract_y
 _atom_site_fract_z
 _atom_site_occupancy
  Li  Li0  1  0.00000000  0.10617000  0.00000000  1.0
  Li  Li1  1  0.00000000  0.96490000  0.50000000  1.0
  Li  Li2  1  0.50000000  0.10654000  0.50000000  1.0
  Li  Li3  1  0.50000000  0.96490000  0.00000000  1.0
  Mg  Mg4  1  0.00000000  0.11147000  0.50000000  1.0
  Mg  Mg5  1  0.00000000  0.96490000  0.00000000  1.0
  Mg  Mg6  1  0.50000000  0.11141000  0.00000000  1.0
  Mg  Mg7  1  0.50000000  0.96490000  0.50000000  1.0
  In  In8  2  0.25000000  0.89470000  0.25000000  1.0
  In  In9  2  0.25047000  0.03659000  0.74947000  1.0
  Pb  Pb10  2  0.25000000  0.89470000  0.75000000  1.0
  Pb  Pb11  2  0.25173000  0.04221000  0.25173000  1.0
  C  C12  1  0.00000000  0.18815000  0.00000000  1.0
  O  O13  1  0.00000000  0.23334000  0.00000000  1.0
