# generated using pymatgen
data_Y8Mg8Sn8Pd8C
_symmetry_space_group_name_H-M   'P 1'
_cell_length_a   7.00634000
_cell_length_b   9.90846000
_cell_length_c   27.43130000
_cell_angle_alpha   90.00000000
_cell_angle_beta   90.00000000
_cell_angle_gamma   90.00000000
_symmetry_Int_Tables_number   1
_chemical_formula_structural   Y8Mg8Sn8Pd8C
_chemical_formula_sum   'Y8 Mg8 Sn8 Pd8 C1'
_cell_volume   1904.33679588
_cell_formula_units_Z   1
loop_
 _symmetry_equiv_pos_site_id
 _symmetry_equiv_pos_as_xyz
  1  'x, y, z'
loop_
 _atom_site_type_symbol
 _atom_site_label
 _atom_site_symmetry_multiplicity
 _atom_site_fract_x
 _atom_site_fract_y
 _atom_site_fract_z
 _atom_site_occupancy
  Y  Y0  1  0.00000000  0.75000000  0.95485000  1.0
  Y  Y1  1  0.00000000  0.25000000  0.95485000  1.0
  Y  Y2  1  0.50000000  0.50000000  0.86455000  1.0
  Y  Y3  1  0.50000000  0.00000000  0.86455000  1.0
  Y  Y4  1  0.95215000  0.32889000  0.14672000  1.0
  Y  Y5  1  0.98261000  0.75566000  0.13077000  1.0
  Y  Y6  1  0.48679000  0.00242000  0.05271000  1.0
  Y  Y7  1  0.54340000  0.47348000  0.05411000  1.0
  Mg  Mg8  1  0.00000000  0.00000000  0.86455000  1.0
  Mg  Mg9  1  0.00000000  0.50000000  0.86455000  1.0
  Mg  Mg10  1  0.50000000  0.25000000  0.95485000  1.0
  Mg  Mg11  1  0.50000000  0.75000000  0.95485000  1.0
  Mg  Mg12  1  0.00325000  0.50592000  0.04409000  1.0
  Mg  Mg13  1  0.00424000  0.97888000  0.04554000  1.0
  Mg  Mg14  1  0.48176000  0.78830000  0.14069000  1.0
  Mg  Mg15  1  0.45874000  0.25409000  0.14755000  1.0
  Sn  Sn16  1  0.75000000  0.00000000  0.95485000  1.0
  Sn  Sn17  1  0.75000000  0.50000000  0.95485000  1.0
  Sn  Sn18  1  0.25000000  0.75000000  0.86455000  1.0
  Sn  Sn19  1  0.25000000  0.25000000  0.86455000  1.0
  Sn  Sn20  1  0.63327000  0.53177000  0.17109000  1.0
  Sn  Sn21  1  0.76451000  0.04063000  0.14637000  1.0
  Sn  Sn22  1  0.21851000  0.25357000  0.05429000  1.0
  Sn  Sn23  1  0.28157000  0.72197000  0.04317000  1.0
  Pd  Pd24  1  0.25000000  0.00000000  0.95485000  1.0
  Pd  Pd25  1  0.25000000  0.50000000  0.95485000  1.0
  Pd  Pd26  1  0.75000000  0.75000000  0.86455000  1.0
  Pd  Pd27  1  0.75000000  0.25000000  0.86455000  1.0
  Pd  Pd28  1  0.26275000  0.51483000  0.12584000  1.0
  Pd  Pd29  1  0.15789000  0.07166000  0.13039000  1.0
  Pd  Pd30  1  0.79557000  0.23088000  0.05248000  1.0
  Pd  Pd31  1  0.73290000  0.74209000  0.04053000  1.0
  C  C32  1  0.24281000  0.87871000  0.10068000  1.0
