# generated using pymatgen
data_Y8Mg8Sn8Pd8C
_symmetry_space_group_name_H-M   P1
_cell_length_a   7.00634000
_cell_length_b   9.90846000
_cell_length_c   27.43130000
_cell_angle_alpha   90.00000000
_cell_angle_beta   90.00000000
_cell_angle_gamma   90.00000000
_symmetry_Int_Tables_number   1
_chemical_formula_structural   Y8Mg8Sn8Pd8C
_chemical_formula_sum   'Y8 Mg8 Sn8 Pd8 C1'
_cell_volume   1904.33679588
_cell_formula_units_Z   1
loop_
 _symmetry_equiv_pos_site_id
 _symmetry_equiv_pos_as_xyz
  1  'x, y, z'
loop_
 _atom_site_type_symbol
 _atom_site_label
 _atom_site_symmetry_multiplicity
 _atom_site_fract_x
 _atom_site_fract_y
 _atom_site_fract_z
 _atom_site_occupancy
  Y  Y0  1  0.00000000  0.25000000  0.95485000  1.0
  Y  Y1  1  0.00000000  0.75000000  0.95485000  1.0
  Y  Y2  1  0.01739000  0.24434000  0.13077000  1.0
  Y  Y3  1  0.04785000  0.67111000  0.14672000  1.0
  Y  Y4  1  0.45660000  0.52652000  0.05411000  1.0
  Y  Y5  1  0.50000000  0.00000000  0.86455000  1.0
  Y  Y6  1  0.50000000  0.50000000  0.86455000  1.0
  Y  Y7  1  0.51321000  0.99758000  0.05271000  1.0
  Mg  Mg8  1  0.00000000  0.00000000  0.86455000  1.0
  Mg  Mg9  1  0.00000000  0.50000000  0.86455000  1.0
  Mg  Mg10  1  0.50000000  0.25000000  0.95485000  1.0
  Mg  Mg11  1  0.50000000  0.75000000  0.95485000  1.0
  Mg  Mg12  1  0.51824000  0.21170000  0.14069000  1.0
  Mg  Mg13  1  0.54126000  0.74591000  0.14755000  1.0
  Mg  Mg14  1  0.99576000  0.02112000  0.04554000  1.0
  Mg  Mg15  1  0.99675000  0.49408000  0.04409000  1.0
  Sn  Sn16  1  0.23549000  0.95937000  0.14637000  1.0
  Sn  Sn17  1  0.25000000  0.00000000  0.95485000  1.0
  Sn  Sn18  1  0.25000000  0.50000000  0.95485000  1.0
  Sn  Sn19  1  0.36673000  0.46823000  0.17109000  1.0
  Sn  Sn20  1  0.71843000  0.27803000  0.04317000  1.0
  Sn  Sn21  1  0.75000000  0.25000000  0.86455000  1.0
  Sn  Sn22  1  0.75000000  0.75000000  0.86455000  1.0
  Sn  Sn23  1  0.78149000  0.74643000  0.05429000  1.0
  Pd  Pd24  1  0.20443000  0.76912000  0.05248000  1.0
  Pd  Pd25  1  0.25000000  0.25000000  0.86455000  1.0
  Pd  Pd26  1  0.25000000  0.75000000  0.86455000  1.0
  Pd  Pd27  1  0.26710000  0.25791000  0.04053000  1.0
  Pd  Pd28  1  0.73725000  0.48517000  0.12584000  1.0
  Pd  Pd29  1  0.75000000  0.00000000  0.95485000  1.0
  Pd  Pd30  1  0.75000000  0.50000000  0.95485000  1.0
  Pd  Pd31  1  0.84211000  0.92834000  0.13039000  1.0
  C  C32  1  0.75719000  0.12129000  0.10068000  1.0
