# generated using pymatgen
data_Li2AlAg
_symmetry_space_group_name_H-M   'P 1'
_cell_length_a   4.48895426
_cell_length_b   4.48895426
_cell_length_c   24.76130000
_cell_angle_alpha   90.00000000
_cell_angle_beta   90.00000000
_cell_angle_gamma   90.00000000
_symmetry_Int_Tables_number   1
_chemical_formula_structural   Li2AlAg
_chemical_formula_sum   'Li4 Al2 Ag2'
_cell_volume   498.95778488
_cell_formula_units_Z   2
loop_
 _symmetry_equiv_pos_site_id
 _symmetry_equiv_pos_as_xyz
  1  'x, y, z'
loop_
 _atom_site_type_symbol
 _atom_site_label
 _atom_site_symmetry_multiplicity
 _atom_site_fract_x
 _atom_site_fract_y
 _atom_site_fract_z
 _atom_site_occupancy
  Li  Li0  1  0.00000000  0.00000000  0.96874000  1.0
  Li  Li1  1  0.50000000  0.50000000  0.09614000  1.0
  Li  Li2  1  0.50000000  0.00000000  0.03205000  1.0
  Li  Li3  1  0.00000000  0.50000000  0.89496000  1.0
  Al  Al4  1  0.00000000  0.00000000  0.09614000  1.0
  Al  Al5  1  0.50000000  0.50000000  0.96837000  1.0
  Ag  Ag6  1  0.50000000  0.00000000  0.91047000  1.0
  Ag  Ag7  1  0.00000000  0.50000000  0.03205000  1.0
