# generated using pymatgen
data_Fe3Pd
_symmetry_space_group_name_H-M   P4mm
_cell_length_a   3.76393000
_cell_length_b   3.76393000
_cell_length_c   25.64590000
_cell_angle_alpha   90.00000000
_cell_angle_beta   90.00000000
_cell_angle_gamma   90.00000000
_symmetry_Int_Tables_number   99
_chemical_formula_structural   Fe3Pd
_chemical_formula_sum   'Fe6 Pd2'
_cell_volume   363.32980061
_cell_formula_units_Z   2
loop_
 _symmetry_equiv_pos_site_id
 _symmetry_equiv_pos_as_xyz
  1  'x, y, z'
  2  '-y, x, z'
  3  '-x, -y, z'
  4  'y, -x, z'
  5  '-x, y, z'
  6  'y, x, z'
  7  'x, -y, z'
  8  '-y, -x, z'
loop_
 _atom_site_type_symbol
 _atom_site_label
 _atom_site_symmetry_multiplicity
 _atom_site_fract_x
 _atom_site_fract_y
 _atom_site_fract_z
 _atom_site_occupancy
  Fe  Fe0  2  0.00000000  0.50000000  0.11007000  1.0
  Fe  Fe1  2  0.00000000  0.50000000  0.96331000  1.0
  Fe  Fe2  1  0.50000000  0.50000000  0.03669000  1.0
  Fe  Fe3  1  0.50000000  0.50000000  0.88993000  1.0
  Pd  Pd4  1  0.00000000  0.00000000  0.03669000  1.0
  Pd  Pd5  1  0.00000000  0.00000000  0.88993000  1.0
