data_image0
_chemical_formula_structural       Al8Cr8Ni16CO
_chemical_formula_sum              "Al8 Cr8 Ni16 C1 O1"
_cell_length_a       5.8235
_cell_length_b       8.23567
_cell_length_c       26.1768
_cell_angle_alpha    90
_cell_angle_beta     90
_cell_angle_gamma    90

_space_group_name_H-M_alt    "P 1"
_space_group_IT_number       1

loop_
  _space_group_symop_operation_xyz
  'x, y, z'

loop_
  _atom_site_type_symbol
  _atom_site_label
  _atom_site_symmetry_multiplicity
  _atom_site_fract_x
  _atom_site_fract_y
  _atom_site_fract_z
  _atom_site_occupancy
  Al  Al1       1.0  0.00000  0.00000  0.88202  1.0000
  Al  Al2       1.0  0.50000  0.25000  0.96067  1.0000
  Al  Al3       1.0  0.50000  0.75000  0.96067  1.0000
  Al  Al4       1.0  0.00000  0.50000  0.88202  1.0000
  Al  Al5       1.0  0.00009  0.50000  0.03963  1.0000
  Al  Al6       1.0  0.50127  0.75270  0.11755  1.0000
  Al  Al7       1.0  0.50130  0.24730  0.11753  1.0000
  Al  Al8       1.0  0.00201  0.00000  0.03822  1.0000
  Cr  Cr1       1.0  0.00000  0.75000  0.96067  1.0000
  Cr  Cr2       1.0  0.50000  0.00000  0.88202  1.0000
  Cr  Cr3       1.0  0.00000  0.25000  0.96067  1.0000
  Cr  Cr4       1.0  0.50000  0.50000  0.88202  1.0000
  Cr  Cr5       1.0  0.99721  0.25622  0.12272  1.0000
  Cr  Cr6       1.0  0.49950  0.50000  0.03823  1.0000
  Cr  Cr7       1.0  0.99722  0.74377  0.12272  1.0000
  Cr  Cr8       1.0  0.49944  0.00000  0.03988  1.0000
  Ni  Ni1       1.0  0.25000  0.00000  0.96067  1.0000
  Ni  Ni2       1.0  0.75000  0.50000  0.96067  1.0000
  Ni  Ni3       1.0  0.75000  0.00000  0.96067  1.0000
  Ni  Ni4       1.0  0.25000  0.50000  0.96067  1.0000
  Ni  Ni5       1.0  0.75000  0.75000  0.88202  1.0000
  Ni  Ni6       1.0  0.25000  0.25000  0.88202  1.0000
  Ni  Ni7       1.0  0.25000  0.75000  0.88202  1.0000
  Ni  Ni8       1.0  0.75000  0.25000  0.88202  1.0000
  Ni  Ni9       1.0  0.26769  0.49995  0.11318  1.0000
  Ni  Ni10      1.0  0.74626  0.00003  0.11285  1.0000
  Ni  Ni11      1.0  0.73252  0.49994  0.11337  1.0000
  Ni  Ni12      1.0  0.24953  0.00007  0.11791  1.0000
  Ni  Ni13      1.0  0.75086  0.24890  0.03894  1.0000
  Ni  Ni14      1.0  0.25018  0.75209  0.03953  1.0000
  Ni  Ni15      1.0  0.25014  0.24791  0.03951  1.0000
  Ni  Ni16      1.0  0.75081  0.75110  0.03896  1.0000
  C   C1        1.0  0.07905  0.99999  0.17560  1.0000
  O   O1        1.0  0.02521  0.99998  0.21882  1.0000
