# generated using pymatgen
data_Al8Cr8Ni16CO
_symmetry_space_group_name_H-M   P1
_cell_length_a   5.82350000
_cell_length_b   8.23567000
_cell_length_c   26.17680000
_cell_angle_alpha   90.00000000
_cell_angle_beta   90.00000000
_cell_angle_gamma   90.00000000
_symmetry_Int_Tables_number   1
_chemical_formula_structural   Al8Cr8Ni16CO
_chemical_formula_sum   'Al8 Cr8 Ni16 C1 O1'
_cell_volume   1255.45043338
_cell_formula_units_Z   1
loop_
 _symmetry_equiv_pos_site_id
 _symmetry_equiv_pos_as_xyz
  1  'x, y, z'
loop_
 _atom_site_type_symbol
 _atom_site_label
 _atom_site_symmetry_multiplicity
 _atom_site_fract_x
 _atom_site_fract_y
 _atom_site_fract_z
 _atom_site_occupancy
  Al  Al0  1  0.00000000  0.00000000  0.88202000  1.0
  Al  Al1  1  0.00000000  0.50000000  0.88202000  1.0
  Al  Al2  1  0.00388000  0.00039000  0.03761000  1.0
  Al  Al3  1  0.50000000  0.25000000  0.96067000  1.0
  Al  Al4  1  0.50000000  0.75000000  0.96067000  1.0
  Al  Al5  1  0.50205000  0.75564000  0.11731000  1.0
  Al  Al6  1  0.50220000  0.24369000  0.11760000  1.0
  Al  Al7  1  0.99978000  0.49962000  0.03996000  1.0
  Cr  Cr8  1  0.00000000  0.25000000  0.96067000  1.0
  Cr  Cr9  1  0.00000000  0.75000000  0.96067000  1.0
  Cr  Cr10  1  0.00132000  0.25731000  0.12303000  1.0
  Cr  Cr11  1  0.00157000  0.74280000  0.12326000  1.0
  Cr  Cr12  1  0.49953000  0.50047000  0.03710000  1.0
  Cr  Cr13  1  0.50000000  0.00000000  0.88202000  1.0
  Cr  Cr14  1  0.50000000  0.50000000  0.88202000  1.0
  Cr  Cr15  1  0.50316000  0.99948000  0.04034000  1.0
  Ni  Ni16  1  0.24429000  0.00064000  0.11565000  1.0
  Ni  Ni17  1  0.24816000  0.75149000  0.03981000  1.0
  Ni  Ni18  1  0.24921000  0.24861000  0.03976000  1.0
  Ni  Ni19  1  0.25000000  0.00000000  0.96067000  1.0
  Ni  Ni20  1  0.25000000  0.25000000  0.88202000  1.0
  Ni  Ni21  1  0.25000000  0.50000000  0.96067000  1.0
  Ni  Ni22  1  0.25000000  0.75000000  0.88202000  1.0
  Ni  Ni23  1  0.27053000  0.49922000  0.11340000  1.0
  Ni  Ni24  1  0.73174000  0.49903000  0.11315000  1.0
  Ni  Ni25  1  0.75000000  0.00000000  0.96067000  1.0
  Ni  Ni26  1  0.75000000  0.25000000  0.88202000  1.0
  Ni  Ni27  1  0.75000000  0.50000000  0.96067000  1.0
  Ni  Ni28  1  0.75000000  0.75000000  0.88202000  1.0
  Ni  Ni29  1  0.75181000  0.24944000  0.03950000  1.0
  Ni  Ni30  1  0.75257000  0.75066000  0.03961000  1.0
  Ni  Ni31  1  0.75893000  0.00092000  0.11475000  1.0
  C  C32  1  0.03386000  0.00018000  0.16991000  1.0
  O  O33  1  0.01327000  0.99990000  0.21496000  1.0
