# generated using pymatgen
data_Cu24Sb8C
_symmetry_space_group_name_H-M   Pmm2
_cell_length_a   6.30953000
_cell_length_b   8.92302000
_cell_length_c   26.69230000
_cell_angle_alpha   90.00000000
_cell_angle_beta   90.00000000
_cell_angle_gamma   90.00000000
_symmetry_Int_Tables_number   25
_chemical_formula_structural   Cu24Sb8C
_chemical_formula_sum   'Cu24 Sb8 C1'
_cell_volume   1502.77815508
_cell_formula_units_Z   1
loop_
 _symmetry_equiv_pos_site_id
 _symmetry_equiv_pos_as_xyz
  1  'x, y, z'
  2  '-x, -y, z'
  3  '-x, y, z'
  4  'x, -y, z'
loop_
 _atom_site_type_symbol
 _atom_site_label
 _atom_site_symmetry_multiplicity
 _atom_site_fract_x
 _atom_site_fract_y
 _atom_site_fract_z
 _atom_site_occupancy
  Cu  Cu0  4  0.25000000  0.25001000  0.87464000  1.0
  Cu  Cu1  4  0.27899000  0.24798000  0.04448000  1.0
  Cu  Cu2  2  0.00000000  0.24463000  0.11624000  1.0
  Cu  Cu3  2  0.00000000  0.25001000  0.95821000  1.0
  Cu  Cu4  2  0.19820000  0.50000000  0.13197000  1.0
  Cu  Cu5  2  0.20818000  0.00000000  0.12509000  1.0
  Cu  Cu6  2  0.25000000  0.00000000  0.95821000  1.0
  Cu  Cu7  2  0.25000000  0.50000000  0.95821000  1.0
  Cu  Cu8  1  0.50000000  0.00000000  0.04748000  1.0
  Cu  Cu9  1  0.50000000  0.00000000  0.87464000  1.0
  Cu  Cu10  1  0.50000000  0.50000000  0.05732000  1.0
  Cu  Cu11  1  0.50000000  0.50000000  0.87464000  1.0
  Sb  Sb12  2  0.50000000  0.22073000  0.13513000  1.0
  Sb  Sb13  2  0.50000000  0.24999000  0.95821000  1.0
  Sb  Sb14  1  0.00000000  0.00000000  0.03805000  1.0
  Sb  Sb15  1  0.00000000  0.00000000  0.87464000  1.0
  Sb  Sb16  1  0.00000000  0.50000000  0.04328000  1.0
  Sb  Sb17  1  0.00000000  0.50000000  0.87464000  1.0
  C  C18  1  0.50000000  0.50000000  0.13428000  1.0
