# generated using pymatgen
data_Ca8In8CO
_symmetry_space_group_name_H-M   Pm
_cell_length_a   7.80577000
_cell_length_b   7.80577000
_cell_length_c   25.85430000
_cell_angle_alpha   90.00000000
_cell_angle_beta   90.00000000
_cell_angle_gamma   90.00000000
_symmetry_Int_Tables_number   6
_chemical_formula_structural   Ca8In8CO
_chemical_formula_sum   'Ca8 In8 C1 O1'
_cell_volume   1575.30367002
_cell_formula_units_Z   1
loop_
 _symmetry_equiv_pos_site_id
 _symmetry_equiv_pos_as_xyz
  1  'x, y, z'
  2  'x, -y, z'
loop_
 _atom_site_type_symbol
 _atom_site_label
 _atom_site_symmetry_multiplicity
 _atom_site_fract_x
 _atom_site_fract_y
 _atom_site_fract_z
 _atom_site_occupancy
  Ca  Ca0  1  0.24995000  0.00000000  0.09470000  1.0
  Ca  Ca1  1  0.25000000  0.00000000  0.94405000  1.0
  Ca  Ca2  1  0.25000000  0.50000000  0.94405000  1.0
  Ca  Ca3  1  0.25004000  0.50000000  0.08938000  1.0
  Ca  Ca4  1  0.74999000  0.00000000  0.09704000  1.0
  Ca  Ca5  1  0.75000000  0.00000000  0.94405000  1.0
  Ca  Ca6  1  0.75000000  0.50000000  0.94405000  1.0
  Ca  Ca7  1  0.75012000  0.50000000  0.09477000  1.0
  In  In8  2  0.00000000  0.25000000  0.86857000  1.0
  In  In9  2  0.50000000  0.25000000  0.86857000  1.0
  In  In10  2  0.50591000  0.24421000  0.02150000  1.0
  In  In11  2  0.99411000  0.24422000  0.02149000  1.0
  C  C12  1  0.24998000  0.50000000  0.18874000  1.0
  O  O13  1  0.24998000  0.50000000  0.23325000  1.0
