# generated using pymatgen
data_Na12As4CO
_symmetry_space_group_name_H-M   Pm
_cell_length_a   7.20118000
_cell_length_b   7.20118000
_cell_length_c   25.40090000
_cell_angle_alpha   90.00000000
_cell_angle_beta   90.00000000
_cell_angle_gamma   90.00000000
_symmetry_Int_Tables_number   6
_chemical_formula_structural   Na12As4CO
_chemical_formula_sum   'Na12 As4 C1 O1'
_cell_volume   1317.21430346
_cell_formula_units_Z   1
loop_
 _symmetry_equiv_pos_site_id
 _symmetry_equiv_pos_as_xyz
  1  'x, y, z'
  2  'x, -y, z'
loop_
 _atom_site_type_symbol
 _atom_site_label
 _atom_site_symmetry_multiplicity
 _atom_site_fract_x
 _atom_site_fract_y
 _atom_site_fract_z
 _atom_site_occupancy
  Na  Na0  2  0.25000000  0.25001000  0.89369000  1.0
  Na  Na1  2  0.25166000  0.24840000  0.04377000  1.0
  Na  Na2  2  0.74832000  0.24839000  0.04376000  1.0
  Na  Na3  2  0.75000000  0.25001000  0.89369000  1.0
  Na  Na4  1  0.00000000  0.00000000  0.96456000  1.0
  Na  Na5  1  0.50000000  0.00000000  0.13641000  1.0
  Na  Na6  1  0.50000000  0.50000000  0.96456000  1.0
  Na  Na7  1  0.99996000  0.50000000  0.13491000  1.0
  As  As8  1  0.00000000  0.50000000  0.96456000  1.0
  As  As9  1  0.00001000  0.00000000  0.10040000  1.0
  As  As10  1  0.50000000  0.00000000  0.96456000  1.0
  As  As11  1  0.50001000  0.50000000  0.10039000  1.0
  C  C12  1  0.00006000  0.50000000  0.23903000  1.0
  O  O13  1  0.00003000  0.50000000  0.28371000  1.0
