# generated using pymatgen
data_Li16Ga8Pt8CO
_symmetry_space_group_name_H-M   Pm
_cell_length_a   6.10853000
_cell_length_b   8.63876000
_cell_length_c   26.47910000
_cell_angle_alpha   90.00000000
_cell_angle_beta   90.00000000
_cell_angle_gamma   90.00000000
_symmetry_Int_Tables_number   6
_chemical_formula_structural   Li16Ga8Pt8CO
_chemical_formula_sum   'Li16 Ga8 Pt8 C1 O1'
_cell_volume   1397.30540690
_cell_formula_units_Z   1
loop_
 _symmetry_equiv_pos_site_id
 _symmetry_equiv_pos_as_xyz
  1  'x, y, z'
  2  'x, -y, z'
loop_
 _atom_site_type_symbol
 _atom_site_label
 _atom_site_symmetry_multiplicity
 _atom_site_fract_x
 _atom_site_fract_y
 _atom_site_fract_z
 _atom_site_occupancy
  Li  Li0  2  0.50000000  0.25000000  0.87766000  1.0
  Li  Li1  2  0.50704000  0.24985000  0.03911000  1.0
  Li  Li2  2  0.73058000  0.25480000  0.12802000  1.0
  Li  Li3  2  0.75000000  0.25000000  0.95922000  1.0
  Li  Li4  1  0.00000000  0.00000000  0.95922000  1.0
  Li  Li5  1  0.00000000  0.50000000  0.95922000  1.0
  Li  Li6  1  0.00185000  0.00000000  0.12180000  1.0
  Li  Li7  1  0.00807000  0.50000000  0.12064000  1.0
  Li  Li8  1  0.24278000  0.50000000  0.03603000  1.0
  Li  Li9  1  0.25000000  0.00000000  0.87766000  1.0
  Li  Li10  1  0.25000000  0.50000000  0.87766000  1.0
  Li  Li11  1  0.25507000  0.00000000  0.03976000  1.0
  Ga  Ga12  2  0.25000000  0.25000000  0.95922000  1.0
  Ga  Ga13  2  0.25737000  0.25153000  0.11930000  1.0
  Ga  Ga14  1  0.74077000  0.00000000  0.04254000  1.0
  Ga  Ga15  1  0.75000000  0.00000000  0.87766000  1.0
  Ga  Ga16  1  0.75000000  0.50000000  0.87766000  1.0
  Ga  Ga17  1  0.75352000  0.50000000  0.04031000  1.0
  Pt  Pt18  2  0.00000000  0.25000000  0.87766000  1.0
  Pt  Pt19  2  0.99536000  0.24811000  0.04184000  1.0
  Pt  Pt20  1  0.47890000  0.50000000  0.11282000  1.0
  Pt  Pt21  1  0.49749000  0.00000000  0.12531000  1.0
  Pt  Pt22  1  0.50000000  0.00000000  0.95922000  1.0
  Pt  Pt23  1  0.50000000  0.50000000  0.95922000  1.0
  C  C24  1  0.51711000  0.00000000  0.19780000  1.0
  O  O25  1  0.51814000  0.00000000  0.24163000  1.0
