# generated using pymatgen
data_Li4Mg4In4Ge4CO
_symmetry_space_group_name_H-M   Pm
_cell_length_a   5.94975000
_cell_length_b   8.75068000
_cell_length_c   24.46230000
_cell_angle_alpha   90.00000000
_cell_angle_beta   90.00000000
_cell_angle_gamma   90.00000000
_symmetry_Int_Tables_number   6
_chemical_formula_structural   Li4Mg4In4Ge4CO
_chemical_formula_sum   'Li4 Mg4 In4 Ge4 C1 O1'
_cell_volume   1273.61395278
_cell_formula_units_Z   1
loop_
 _symmetry_equiv_pos_site_id
 _symmetry_equiv_pos_as_xyz
  1  'x, y, z'
  2  'x, -y, z'
loop_
 _atom_site_type_symbol
 _atom_site_label
 _atom_site_symmetry_multiplicity
 _atom_site_fract_x
 _atom_site_fract_y
 _atom_site_fract_z
 _atom_site_occupancy
  Li  Li0  2  0.25076000  0.25000000  0.90879000  1.0
  Li  Li1  2  0.72317000  0.24646000  0.03379000  1.0
  Mg  Mg2  1  0.00051000  0.00000000  0.96960000  1.0
  Mg  Mg3  1  0.00051000  0.50000000  0.96960000  1.0
  Mg  Mg4  1  0.49015000  0.00000000  0.09468000  1.0
  Mg  Mg5  1  0.49545000  0.50000000  0.09459000  1.0
  In  In6  2  0.21094000  0.25108000  0.04607000  1.0
  In  In7  2  0.75076000  0.25000000  0.90879000  1.0
  Ge  Ge8  1  0.50051000  0.00000000  0.96960000  1.0
  Ge  Ge9  1  0.50051000  0.50000000  0.96960000  1.0
  Ge  Ge10  1  0.97827000  0.00000000  0.09184000  1.0
  Ge  Ge11  1  0.98563000  0.50000000  0.09668000  1.0
  C  C12  1  0.48705000  0.00000000  0.18693000  1.0
  O  O13  1  0.48080000  0.00000000  0.23360000  1.0
