# generated using pymatgen
data_Ni12Ge4C
_symmetry_space_group_name_H-M   'P 1'
_cell_length_a   7.18728000
_cell_length_b   5.08218000
_cell_length_c   23.81160000
_cell_angle_alpha   90.00000000
_cell_angle_beta   90.00000000
_cell_angle_gamma   90.00000000
_symmetry_Int_Tables_number   1
_chemical_formula_structural   Ni12Ge4C
_chemical_formula_sum   'Ni12 Ge4 C1'
_cell_volume   869.76751974
_cell_formula_units_Z   1
loop_
 _symmetry_equiv_pos_site_id
 _symmetry_equiv_pos_as_xyz
  1  'x, y, z'
loop_
 _atom_site_type_symbol
 _atom_site_label
 _atom_site_symmetry_multiplicity
 _atom_site_fract_x
 _atom_site_fract_y
 _atom_site_fract_z
 _atom_site_occupancy
  Ni  Ni0  1  1.00000000  0.50000000  0.08004000  1.0
  Ni  Ni1  1  0.25000000  0.75000000  0.02668000  1.0
  Ni  Ni2  1  0.25000000  0.25000000  0.02668000  1.0
  Ni  Ni3  1  0.00001000  0.00000000  0.97874000  1.0
  Ni  Ni4  1  0.19375000  0.25780000  0.91695000  1.0
  Ni  Ni5  1  0.19375000  0.74220000  0.91695000  1.0
  Ni  Ni6  1  0.50000000  0.50000000  0.08004000  1.0
  Ni  Ni7  1  0.75000000  0.75000000  0.02668000  1.0
  Ni  Ni8  1  0.75000000  0.25000000  0.02668000  1.0
  Ni  Ni9  1  0.50002000  0.00000000  0.96625000  1.0
  Ni  Ni10  1  0.80622000  0.25777000  0.91697000  1.0
  Ni  Ni11  1  0.80622000  0.74223000  0.91697000  1.0
  Ge  Ge12  1  0.00000000  0.00000000  0.08004000  1.0
  Ge  Ge13  1  0.00005000  0.50000000  0.98488000  1.0
  Ge  Ge14  1  0.50000000  0.00000000  0.08004000  1.0
  Ge  Ge15  1  0.49994000  0.50000000  0.95074000  1.0
  C  C16  1  0.99998000  0.50000000  0.89399000  1.0
