data_image0
_chemical_formula_structural       K12Bi4C
_chemical_formula_sum              "K12 Bi4 C1"
_cell_length_a       8.83903
_cell_length_b       8.83903
_cell_length_c       26.6293
_cell_angle_alpha    90
_cell_angle_beta     90
_cell_angle_gamma    90

_space_group_name_H-M_alt    "P 1"
_space_group_IT_number       1

loop_
  _space_group_symop_operation_xyz
  'x, y, z'

loop_
  _atom_site_type_symbol
  _atom_site_label
  _atom_site_symmetry_multiplicity
  _atom_site_fract_x
  _atom_site_fract_y
  _atom_site_fract_z
  _atom_site_occupancy
  K   K1        1.0  0.25000  0.25000  0.95851  1.0000
  K   K2        1.0  0.77059  0.77044  0.13117  1.0000
  K   K3        1.0  0.75000  0.25000  0.95851  1.0000
  K   K4        1.0  0.22941  0.77045  0.13117  1.0000
  K   K5        1.0  0.75000  0.75000  0.95851  1.0000
  K   K6        1.0  0.22941  0.22955  0.13117  1.0000
  K   K7        1.0  0.25000  0.75000  0.95851  1.0000
  K   K8        1.0  0.77059  0.22956  0.13117  1.0000
  K   K9        1.0  0.99999  0.00000  0.03392  1.0000
  K   K10       1.0  0.50000  0.00000  0.87553  1.0000
  K   K11       1.0  0.00000  0.50000  0.87553  1.0000
  K   K12       1.0  0.50000  0.50000  0.03662  1.0000
  Bi  Bi1       1.0  0.00000  0.00000  0.87553  1.0000
  Bi  Bi2       1.0  0.50000  0.50000  0.87553  1.0000
  Bi  Bi3       1.0  0.50000  0.00001  0.04419  1.0000
  Bi  Bi4       1.0  0.00000  0.50000  0.04449  1.0000
  C   C1        1.0  0.99999  0.00001  0.13807  1.0000
