# generated using pymatgen
data_Li16In8Rh8CO
_symmetry_space_group_name_H-M   'P 1'
_cell_length_a   8.97987000
_cell_length_b   6.34973000
_cell_length_c   26.73490000
_cell_angle_alpha   90.00000000
_cell_angle_beta   90.00000000
_cell_angle_gamma   90.00000000
_symmetry_Int_Tables_number   1
_chemical_formula_structural   Li16In8Rh8CO
_chemical_formula_sum   'Li16 In8 Rh8 C1 O1'
_cell_volume   1524.41731254
_cell_formula_units_Z   1
loop_
 _symmetry_equiv_pos_site_id
 _symmetry_equiv_pos_as_xyz
  1  'x, y, z'
loop_
 _atom_site_type_symbol
 _atom_site_label
 _atom_site_symmetry_multiplicity
 _atom_site_fract_x
 _atom_site_fract_y
 _atom_site_fract_z
 _atom_site_occupancy
  Li  Li0  1  0.50000000  0.00000000  0.04199000  1.0
  Li  Li1  1  0.75000000  0.50000000  0.12596000  1.0
  Li  Li2  1  0.00000000  0.00000000  0.04199000  1.0
  Li  Li3  1  0.25000000  0.50000000  0.12596000  1.0
  Li  Li4  1  0.00000000  0.25000000  0.12596000  1.0
  Li  Li5  1  0.50000000  0.25000000  0.12596000  1.0
  Li  Li6  1  0.25000000  0.75000000  0.04199000  1.0
  Li  Li7  1  0.75000000  0.75000000  0.04199000  1.0
  Li  Li8  1  0.00000000  0.99845000  0.87214000  1.0
  Li  Li9  1  0.25046000  0.50832000  0.95879000  1.0
  Li  Li10  1  0.50000000  0.01220000  0.87527000  1.0
  Li  Li11  1  0.74954000  0.50832000  0.95879000  1.0
  Li  Li12  1  0.50000000  0.25780000  0.96064000  1.0
  Li  Li13  1  0.00000000  0.25296000  0.95924000  1.0
  Li  Li14  1  0.74424000  0.73600000  0.86848000  1.0
  Li  Li15  1  0.25576000  0.73600000  0.86848000  1.0
  In  In16  1  0.75000000  0.25000000  0.04199000  1.0
  In  In17  1  0.25000000  0.25000000  0.04199000  1.0
  In  In18  1  0.50000000  0.75000000  0.12596000  1.0
  In  In19  1  0.00000000  0.75000000  0.12596000  1.0
  In  In20  1  0.24755000  0.26912000  0.87123000  1.0
  In  In21  1  0.75245000  0.26912000  0.87123000  1.0
  In  In22  1  0.00000000  0.76683000  0.96027000  1.0
  In  In23  1  0.50000000  0.75735000  0.95960000  1.0
  Rh  Rh24  1  0.75000000  0.00000000  0.12596000  1.0
  Rh  Rh25  1  0.00000000  0.50000000  0.04199000  1.0
  Rh  Rh26  1  0.50000000  0.50000000  0.04199000  1.0
  Rh  Rh27  1  0.25000000  0.00000000  0.12596000  1.0
  Rh  Rh28  1  0.25342000  0.00940000  0.95396000  1.0
  Rh  Rh29  1  0.50000000  0.48831000  0.88213000  1.0
  Rh  Rh30  1  0.00000000  0.52730000  0.87463000  1.0
  Rh  Rh31  1  0.74658000  0.00940000  0.95396000  1.0
  C  C32  1  0.00000000  0.66972000  0.81400000  1.0
  O  O33  1  0.00000000  0.75124000  0.77453000  1.0
