# generated using pymatgen
data_Li4Mg4Ag4Ge4CO
_symmetry_space_group_name_H-M   'P 1'
_cell_length_a   6.50572000
_cell_length_b   6.50572000
_cell_length_c   24.87930000
_cell_angle_alpha   90.00000000
_cell_angle_beta   90.00000000
_cell_angle_gamma   90.00000000
_symmetry_Int_Tables_number   1
_chemical_formula_structural   Li4Mg4Ag4Ge4CO
_chemical_formula_sum   'Li4 Mg4 Ag4 Ge4 C1 O1'
_cell_volume   1053.00126376
_cell_formula_units_Z   1
loop_
 _symmetry_equiv_pos_site_id
 _symmetry_equiv_pos_as_xyz
  1  'x, y, z'
loop_
 _atom_site_type_symbol
 _atom_site_label
 _atom_site_symmetry_multiplicity
 _atom_site_fract_x
 _atom_site_fract_y
 _atom_site_fract_z
 _atom_site_occupancy
  Li  Li0  1  0.24956000  0.75048000  0.96456000  1
  Li  Li1  1  0.75001000  0.75001000  0.09806000  1
  Li  Li2  1  0.25001000  0.25001000  0.09806000  1
  Li  Li3  1  0.75048000  0.24956000  0.96456000  1
  Mg  Mg4  1  0.24842500  0.24842500  0.96297000  1
  Mg  Mg5  1  0.75000000  0.25002000  0.09806000  1
  Mg  Mg6  1  0.25002000  0.75000000  0.09806000  1
  Mg  Mg7  1  0.75158500  0.75158500  0.96297000  1
  Ag  Ag8  1  0.00005000  0.00005000  0.89184000  1
  Ag  Ag9  1  0.50000000  0.00002000  0.03269000  1
  Ag  Ag10  1  0.00002000  0.50000000  0.03269000  1
  Ag  Ag11  1  0.50001000  0.50001000  0.89311000  1
  Ge  Ge12  1  0.49999000  0.00002000  0.89741000  1
  Ge  Ge13  1  0.00001000  0.00001000  0.03269000  1
  Ge  Ge14  1  0.50001000  0.50001000  0.03269000  1
  Ge  Ge15  1  0.00002000  0.49999000  0.89741000  1
  C  C16  1  0.99993000  0.99993000  0.79915000  1
  O  O17  1  0.00001500  0.00001500  0.75343000  1
