# generated using pymatgen
data_Li8In16Pt8CO
_symmetry_space_group_name_H-M   'P 1'
_cell_length_a   9.46152000
_cell_length_b   6.69031000
_cell_length_c   27.09610000
_cell_angle_alpha   90.00000000
_cell_angle_beta   90.00000000
_cell_angle_gamma   90.00000000
_symmetry_Int_Tables_number   1
_chemical_formula_structural   Li8In16Pt8CO
_chemical_formula_sum   'Li8 In16 Pt8 C1 O1'
_cell_volume   1715.19672875
_cell_formula_units_Z   1
loop_
 _symmetry_equiv_pos_site_id
 _symmetry_equiv_pos_as_xyz
  1  'x, y, z'
loop_
 _atom_site_type_symbol
 _atom_site_label
 _atom_site_symmetry_multiplicity
 _atom_site_fract_x
 _atom_site_fract_y
 _atom_site_fract_z
 _atom_site_occupancy
  Li  Li0  1  0.50000000  0.00000000  0.13094000  1.0
  Li  Li1  1  0.75002000  0.50000000  0.04365000  1.0
  Li  Li2  1  0.24998000  0.50000000  0.04365000  1.0
  Li  Li3  1  0.00000000  0.00000000  0.13094000  1.0
  Li  Li4  1  0.00000000  0.98720000  0.94953000  1.0
  Li  Li5  1  0.24998000  0.52936000  0.85646000  1.0
  Li  Li6  1  0.75002000  0.52936000  0.85646000  1.0
  Li  Li7  1  0.50000000  0.98428000  0.94996000  1.0
  In  In8  1  0.50000000  0.25000000  0.04365000  1.0
  In  In9  1  0.00000000  0.75000000  0.04365000  1.0
  In  In10  1  0.50000000  0.75000000  0.04365000  1.0
  In  In11  1  0.00000000  0.25000000  0.04365000  1.0
  In  In12  1  0.25002000  0.75000000  0.13094000  1.0
  In  In13  1  0.75002000  0.25000000  0.13094000  1.0
  In  In14  1  0.24998000  0.25000000  0.13094000  1.0
  In  In15  1  0.74998000  0.75000000  0.13094000  1.0
  In  In16  1  0.00000000  0.26731000  0.86493000  1.0
  In  In17  1  0.50000000  0.78577000  0.84840000  1.0
  In  In18  1  0.00000000  0.78676000  0.84642000  1.0
  In  In19  1  0.50000000  0.27015000  0.86457000  1.0
  In  In20  1  0.75156000  0.73734000  0.95297000  1.0
  In  In21  1  0.25094000  0.25476000  0.95516000  1.0
  In  In22  1  0.74906000  0.25476000  0.95516000  1.0
  In  In23  1  0.24844000  0.73734000  0.95297000  1.0
  Pt  Pt24  1  0.25002000  0.00000000  0.04365000  1.0
  Pt  Pt25  1  0.50000000  0.50000000  0.13094000  1.0
  Pt  Pt26  1  0.74998000  0.00000000  0.04365000  1.0
  Pt  Pt27  1  0.00000000  0.50000000  0.13094000  1.0
  Pt  Pt28  1  0.75063000  0.00177000  0.87537000  1.0
  Pt  Pt29  1  0.00000000  0.49693000  0.95992000  1.0
  Pt  Pt30  1  0.24937000  0.00177000  0.87537000  1.0
  Pt  Pt31  1  0.50000000  0.50190000  0.96050000  1.0
  C  C32  1  0.50000000  0.34488000  0.71984000  1.0
  O  O33  1  0.50000000  0.20901000  0.69472000  1.0
