# generated using pymatgen
data_Li8In16Pt8CO
_symmetry_space_group_name_H-M   Pm
_cell_length_a   6.69031000
_cell_length_b   9.46152000
_cell_length_c   27.09610000
_cell_angle_alpha   90.00000000
_cell_angle_beta   90.00000000
_cell_angle_gamma   90.00000000
_symmetry_Int_Tables_number   6
_chemical_formula_structural   Li8In16Pt8CO
_chemical_formula_sum   'Li8 In16 Pt8 C1 O1'
_cell_volume   1715.19672875
_cell_formula_units_Z   1
loop_
 _symmetry_equiv_pos_site_id
 _symmetry_equiv_pos_as_xyz
  1  'x, y, z'
  2  'x, -y, z'
loop_
 _atom_site_type_symbol
 _atom_site_label
 _atom_site_symmetry_multiplicity
 _atom_site_fract_x
 _atom_site_fract_y
 _atom_site_fract_z
 _atom_site_occupancy
  Li  Li0  2  0.50000000  0.24998000  0.95635000  1.0
  Li  Li1  2  0.52936000  0.24998000  0.14354000  1.0
  Li  Li2  1  0.00000000  0.00000000  0.86906000  1.0
  Li  Li3  1  0.00000000  0.50000000  0.86906000  1.0
  Li  Li4  1  0.98428000  0.50000000  0.05004000  1.0
  Li  Li5  1  0.98720000  0.00000000  0.05047000  1.0
  In  In6  2  0.25000000  0.24998000  0.86906000  1.0
  In  In7  2  0.25476000  0.25094000  0.04484000  1.0
  In  In8  2  0.73734000  0.24844000  0.04703000  1.0
  In  In9  2  0.75000000  0.25002000  0.86906000  1.0
  In  In10  1  0.25000000  0.00000000  0.95635000  1.0
  In  In11  1  0.25000000  0.50000000  0.95635000  1.0
  In  In12  1  0.26731000  0.00000000  0.13507000  1.0
  In  In13  1  0.27015000  0.50000000  0.13543000  1.0
  In  In14  1  0.75000000  0.00000000  0.95635000  1.0
  In  In15  1  0.75000000  0.50000000  0.95635000  1.0
  In  In16  1  0.78577000  0.50000000  0.15160000  1.0
  In  In17  1  0.78676000  0.00000000  0.15358000  1.0
  Pt  Pt18  2  0.00000000  0.25002000  0.95635000  1.0
  Pt  Pt19  2  0.00177000  0.24937000  0.12463000  1.0
  Pt  Pt20  1  0.49693000  0.00000000  0.04008000  1.0
  Pt  Pt21  1  0.50000000  0.00000000  0.86906000  1.0
  Pt  Pt22  1  0.50000000  0.50000000  0.86906000  1.0
  Pt  Pt23  1  0.50190000  0.50000000  0.03950000  1.0
  C  C24  1  0.34488000  0.50000000  0.28016000  1.0
  O  O25  1  0.20901000  0.50000000  0.30528000  1.0
