# generated using pymatgen
data_Li4In8Pt4C
_symmetry_space_group_name_H-M   P4mm
_cell_length_a   6.69031000
_cell_length_b   6.69031000
_cell_length_c   25.01770000
_cell_angle_alpha   90.00000000
_cell_angle_beta   90.00000000
_cell_angle_gamma   90.00000000
_symmetry_Int_Tables_number   99
_chemical_formula_structural   Li4In8Pt4C
_chemical_formula_sum   'Li4 In8 Pt4 C1'
_cell_volume   1119.79845379
_cell_formula_units_Z   1
loop_
 _symmetry_equiv_pos_site_id
 _symmetry_equiv_pos_as_xyz
  1  'x, y, z'
  2  '-y, x, z'
  3  '-x, -y, z'
  4  'y, -x, z'
  5  '-x, y, z'
  6  'y, x, z'
  7  'x, -y, z'
  8  '-y, -x, z'
loop_
 _atom_site_type_symbol
 _atom_site_label
 _atom_site_symmetry_multiplicity
 _atom_site_fract_x
 _atom_site_fract_y
 _atom_site_fract_z
 _atom_site_occupancy
  Li  Li0  2  0.00000000  0.50000000  0.89972000  1.0
  Li  Li1  1  0.00000000  0.00000000  0.03343000  1.0
  Li  Li2  1  0.50000000  0.50000000  0.03343000  1.0
  In  In3  4  0.25000000  0.25000000  0.10028000  1.0
  In  In4  4  0.25000000  0.25000000  0.96657000  1.0
  Pt  Pt5  2  0.00000000  0.50000000  0.03343000  1.0
  Pt  Pt6  1  0.00000000  0.00000000  0.89972000  1.0
  Pt  Pt7  1  0.50000000  0.50000000  0.89972000  1.0
  C  C8  1  0.00000000  0.00000000  0.13226000  1.0
