data_image0
_chemical_formula_structural       Zn4Ni8Ge4CO
_chemical_formula_sum              "Zn4 Ni8 Ge4 C1 O1"
_cell_length_a       5.89777
_cell_length_b       5.89777
_cell_length_c       24.4233
_cell_angle_alpha    90
_cell_angle_beta     90
_cell_angle_gamma    90

_space_group_name_H-M_alt    "P 1"
_space_group_IT_number       1

loop_
  _space_group_symop_operation_xyz
  'x, y, z'

loop_
  _atom_site_type_symbol
  _atom_site_label
  _atom_site_symmetry_multiplicity
  _atom_site_fract_x
  _atom_site_fract_y
  _atom_site_fract_z
  _atom_site_occupancy
  Zn  Zn1       1.0  0.00000  0.00000  0.90944  1.0000
  Zn  Zn2       1.0  0.50000  0.50000  0.90944  1.0000
  Zn  Zn3       1.0  0.49976  0.00004  0.02985  1.0000
  Zn  Zn4       1.0  0.00024  0.49994  0.02986  1.0000
  Ni  Ni1       1.0  0.25000  0.25000  0.96981  1.0000
  Ni  Ni2       1.0  0.75000  0.75001  0.08393  1.0000
  Ni  Ni3       1.0  0.75000  0.25000  0.96981  1.0000
  Ni  Ni4       1.0  0.25000  0.74997  0.08348  1.0000
  Ni  Ni5       1.0  0.75000  0.75000  0.96981  1.0000
  Ni  Ni6       1.0  0.25009  0.24998  0.08755  1.0000
  Ni  Ni7       1.0  0.25000  0.75000  0.96981  1.0000
  Ni  Ni8       1.0  0.75001  0.25000  0.08340  1.0000
  Ge  Ge1       1.0  0.99690  0.99667  0.03316  1.0000
  Ge  Ge2       1.0  0.50000  0.00000  0.90944  1.0000
  Ge  Ge3       1.0  0.00000  0.50000  0.90944  1.0000
  Ge  Ge4       1.0  0.50314  0.50337  0.03315  1.0000
  C   C1        1.0  0.25003  0.25002  0.16022  1.0000
  O   O1        1.0  0.25000  0.25000  0.20744  1.0000
