# generated using pymatgen
data_Zn4Ni8Ge4CO
_symmetry_space_group_name_H-M   'P 1'
_cell_length_a   5.89777000
_cell_length_b   5.89777000
_cell_length_c   24.42330000
_cell_angle_alpha   90.00000000
_cell_angle_beta   90.00000000
_cell_angle_gamma   90.00000000
_symmetry_Int_Tables_number   1
_chemical_formula_structural   Zn4Ni8Ge4CO
_chemical_formula_sum   'Zn4 Ni8 Ge4 C1 O1'
_cell_volume   849.53251974
_cell_formula_units_Z   1
loop_
 _symmetry_equiv_pos_site_id
 _symmetry_equiv_pos_as_xyz
  1  'x, y, z'
loop_
 _atom_site_type_symbol
 _atom_site_label
 _atom_site_symmetry_multiplicity
 _atom_site_fract_x
 _atom_site_fract_y
 _atom_site_fract_z
 _atom_site_occupancy
  Zn  Zn0  1  0.74997000  0.74998000  0.09056000  1.0
  Zn  Zn1  1  0.25003000  0.25002000  0.09056000  1.0
  Zn  Zn2  1  0.24973000  0.75002000  0.97015000  1.0
  Zn  Zn3  1  0.75027000  0.24998000  0.97015000  1.0
  Ni  Ni4  1  0.00000000  0.00000000  0.03019000  1.0
  Ni  Ni5  1  0.50000000  0.50000000  0.91607000  1.0
  Ni  Ni6  1  0.50000000  0.00000000  0.03019000  1.0
  Ni  Ni7  1  0.00000000  0.50000000  0.91652000  1.0
  Ni  Ni8  1  0.50000000  0.50000000  0.03019000  1.0
  Ni  Ni9  1  0.00000000  0.00000000  0.91245000  1.0
  Ni  Ni10  1  0.00000000  0.50000000  0.03019000  1.0
  Ni  Ni11  1  0.50000000  0.00000000  0.91660000  1.0
  Ge  Ge12  1  0.74687000  0.74665000  0.96684000  1.0
  Ge  Ge13  1  0.24997000  0.74998000  0.09056000  1.0
  Ge  Ge14  1  0.75003000  0.25002000  0.09056000  1.0
  Ge  Ge15  1  0.25313000  0.25335000  0.96684000  1.0
  C  C16  1  0.00000000  0.00000000  0.83978000  1.0
  O  O17  1  0.00000000  0.00000000  0.79256000  1.0
