# generated using pymatgen
data_Zn4Ni8Ge4CO
_symmetry_space_group_name_H-M   P2
_cell_length_a   5.89777000
_cell_length_b   24.42330000
_cell_length_c   5.89777000
_cell_angle_alpha   90.00000000
_cell_angle_beta   90.00000000
_cell_angle_gamma   90.00000000
_symmetry_Int_Tables_number   3
_chemical_formula_structural   Zn4Ni8Ge4CO
_chemical_formula_sum   'Zn4 Ni8 Ge4 C1 O1'
_cell_volume   849.53251974
_cell_formula_units_Z   1
loop_
 _symmetry_equiv_pos_site_id
 _symmetry_equiv_pos_as_xyz
  1  'x, y, z'
  2  '-x, y, -z'
loop_
 _atom_site_type_symbol
 _atom_site_label
 _atom_site_symmetry_multiplicity
 _atom_site_fract_x
 _atom_site_fract_y
 _atom_site_fract_z
 _atom_site_occupancy
  Zn  Zn0  2  0.24998000  0.02985000  0.75027000  1.0
  Zn  Zn1  2  0.25002000  0.90944000  0.25003000  1.0
  Ni  Ni2  1  0.00000000  0.08340000  0.50000000  1.0
  Ni  Ni3  1  0.00000000  0.08755000  0.00000000  1.0
  Ni  Ni4  1  0.00000000  0.96981000  0.00000000  1.0
  Ni  Ni5  1  0.00000000  0.96981000  0.50000000  1.0
  Ni  Ni6  1  0.50000000  0.08348000  0.00000000  1.0
  Ni  Ni7  1  0.50000000  0.08393000  0.50000000  1.0
  Ni  Ni8  1  0.50000000  0.96981000  0.00000000  1.0
  Ni  Ni9  1  0.50000000  0.96981000  0.50000000  1.0
  Ge  Ge10  2  0.25002000  0.90944000  0.75003000  1.0
  Ge  Ge11  2  0.25335000  0.03316000  0.25313000  1.0
  C  C12  1  0.00000000  0.16022000  0.00000000  1.0
  O  O13  1  0.00000000  0.20744000  0.00000000  1.0
