# generated using pymatgen
data_Li4Sc4Ga4Ge4C
_symmetry_space_group_name_H-M   Pm
_cell_length_a   5.81702000
_cell_length_b   7.95848000
_cell_length_c   24.35990000
_cell_angle_alpha   90.00000000
_cell_angle_beta   90.00000000
_cell_angle_gamma   90.00000000
_symmetry_Int_Tables_number   6
_chemical_formula_structural   Li4Sc4Ga4Ge4C
_chemical_formula_sum   'Li4 Sc4 Ga4 Ge4 C1'
_cell_volume   1127.73273589
_cell_formula_units_Z   1
loop_
 _symmetry_equiv_pos_site_id
 _symmetry_equiv_pos_as_xyz
  1  'x, y, z'
  2  'x, -y, z'
loop_
 _atom_site_type_symbol
 _atom_site_label
 _atom_site_symmetry_multiplicity
 _atom_site_fract_x
 _atom_site_fract_y
 _atom_site_fract_z
 _atom_site_occupancy
  Li  Li0  2  0.28997000  0.18268000  0.90401000  1.0
  Li  Li1  2  0.75900000  0.25000000  0.02983000  1.0
  Sc  Sc2  2  0.25900000  0.25000000  0.02983000  1.0
  Sc  Sc3  2  0.77146000  0.21548000  0.91227000  1.0
  Ga  Ga4  1  0.00000000  0.00000000  0.08949000  1.0
  Ga  Ga5  1  0.00000000  0.50000000  0.08949000  1.0
  Ga  Ga6  1  0.53040000  0.00000000  0.98041000  1.0
  Ga  Ga7  1  0.54024000  0.50000000  0.97248000  1.0
  Ge  Ge8  1  0.02202000  0.00000000  0.97552000  1.0
  Ge  Ge9  1  0.05647000  0.50000000  0.94776000  1.0
  Ge  Ge10  1  0.50000000  0.00000000  0.08949000  1.0
  Ge  Ge11  1  0.50000000  0.50000000  0.08949000  1.0
  C  C12  1  0.56630000  0.00000000  0.89458000  1.0
