# generated using pymatgen
data_Al16Os16C
_symmetry_space_group_name_H-M   'P 1'
_cell_length_a   6.03636000
_cell_length_b   8.53670000
_cell_length_c   26.40250000
_cell_angle_alpha   90.00000000
_cell_angle_beta   90.00000000
_cell_angle_gamma   90.00000000
_symmetry_Int_Tables_number   1
_chemical_formula_structural   Al16Os16C
_chemical_formula_sum   'Al16 Os16 C1'
_cell_volume   1360.53651896
_cell_formula_units_Z   1
loop_
 _symmetry_equiv_pos_site_id
 _symmetry_equiv_pos_as_xyz
  1  'x, y, z'
loop_
 _atom_site_type_symbol
 _atom_site_label
 _atom_site_symmetry_multiplicity
 _atom_site_fract_x
 _atom_site_fract_y
 _atom_site_fract_z
 _atom_site_occupancy
  Al  Al0  1  0.00000000  0.00000000  0.87875000  1.0
  Al  Al1  1  0.00000000  0.25000000  0.95958000  1.0
  Al  Al2  1  0.00000000  0.00000000  0.03884000  1.0
  Al  Al3  1  0.00000000  0.23998000  0.12180000  1.0
  Al  Al4  1  0.00000000  0.50000000  0.87875000  1.0
  Al  Al5  1  0.00000000  0.75000000  0.95958000  1.0
  Al  Al6  1  0.00000000  0.50000000  0.03700000  1.0
  Al  Al7  1  0.00000000  0.76002000  0.12180000  1.0
  Al  Al8  1  0.50000000  0.00000000  0.87875000  1.0
  Al  Al9  1  0.50000000  0.25000000  0.95958000  1.0
  Al  Al10  1  0.50000000  0.00000000  0.03460000  1.0
  Al  Al11  1  0.50000000  0.27371000  0.12485000  1.0
  Al  Al12  1  0.50000000  0.50000000  0.87875000  1.0
  Al  Al13  1  0.50000000  0.75000000  0.95958000  1.0
  Al  Al14  1  0.50000000  0.50000000  0.04064000  1.0
  Al  Al15  1  0.50000000  0.72629000  0.12485000  1.0
  Os  Os16  1  0.25000000  0.25000000  0.87875000  1.0
  Os  Os17  1  0.25000000  0.00000000  0.95958000  1.0
  Os  Os18  1  0.25062000  0.24785000  0.04052000  1.0
  Os  Os19  1  0.28312000  0.00000000  0.12119000  1.0
  Os  Os20  1  0.25000000  0.75000000  0.87875000  1.0
  Os  Os21  1  0.25000000  0.50000000  0.95958000  1.0
  Os  Os22  1  0.25062000  0.75215000  0.04052000  1.0
  Os  Os23  1  0.22282000  0.50000000  0.11902000  1.0
  Os  Os24  1  0.75000000  0.25000000  0.87875000  1.0
  Os  Os25  1  0.75000000  0.00000000  0.95958000  1.0
  Os  Os26  1  0.74938000  0.24785000  0.04052000  1.0
  Os  Os27  1  0.71688000  0.00000000  0.12119000  1.0
  Os  Os28  1  0.75000000  0.75000000  0.87875000  1.0
  Os  Os29  1  0.75000000  0.50000000  0.95958000  1.0
  Os  Os30  1  0.74938000  0.75215000  0.04052000  1.0
  Os  Os31  1  0.77718000  0.50000000  0.11902000  1.0
  C  C32  1  0.00000000  0.00000000  0.15382000  1.0
