# generated using pymatgen
data_Al16Os16C
_symmetry_space_group_name_H-M   Pmm2
_cell_length_a   6.03636000
_cell_length_b   8.53670000
_cell_length_c   26.40250000
_cell_angle_alpha   90.00000000
_cell_angle_beta   90.00000000
_cell_angle_gamma   90.00000000
_symmetry_Int_Tables_number   25
_chemical_formula_structural   Al16Os16C
_chemical_formula_sum   'Al16 Os16 C1'
_cell_volume   1360.53651896
_cell_formula_units_Z   1
loop_
 _symmetry_equiv_pos_site_id
 _symmetry_equiv_pos_as_xyz
  1  'x, y, z'
  2  '-x, -y, z'
  3  '-x, y, z'
  4  'x, -y, z'
loop_
 _atom_site_type_symbol
 _atom_site_label
 _atom_site_symmetry_multiplicity
 _atom_site_fract_x
 _atom_site_fract_y
 _atom_site_fract_z
 _atom_site_occupancy
  Al  Al0  2  0.00000000  0.23998000  0.12180000  1.0
  Al  Al1  2  0.00000000  0.25000000  0.95958000  1.0
  Al  Al2  2  0.50000000  0.25000000  0.95958000  1.0
  Al  Al3  2  0.50000000  0.27371000  0.12485000  1.0
  Al  Al4  1  0.00000000  0.00000000  0.03884000  1.0
  Al  Al5  1  0.00000000  0.00000000  0.87875000  1.0
  Al  Al6  1  0.00000000  0.50000000  0.03700000  1.0
  Al  Al7  1  0.00000000  0.50000000  0.87875000  1.0
  Al  Al8  1  0.50000000  0.00000000  0.03460000  1.0
  Al  Al9  1  0.50000000  0.00000000  0.87875000  1.0
  Al  Al10  1  0.50000000  0.50000000  0.04064000  1.0
  Al  Al11  1  0.50000000  0.50000000  0.87875000  1.0
  Os  Os12  4  0.25000000  0.25000000  0.87875000  1.0
  Os  Os13  4  0.25062000  0.24785000  0.04052000  1.0
  Os  Os14  2  0.22282000  0.50000000  0.11902000  1.0
  Os  Os15  2  0.25000000  0.00000000  0.95958000  1.0
  Os  Os16  2  0.25000000  0.50000000  0.95958000  1.0
  Os  Os17  2  0.28312000  0.00000000  0.12119000  1.0
  C  C18  1  0.00000000  0.00000000  0.15382000  1.0
