# generated using pymatgen
data_Al8Fe16Ni8CO
_symmetry_space_group_name_H-M   P1
_cell_length_a   5.78917000
_cell_length_b   8.18712000
_cell_length_c   26.14030000
_cell_angle_alpha   90.00000000
_cell_angle_beta   90.00000000
_cell_angle_gamma   90.00000000
_symmetry_Int_Tables_number   1
_chemical_formula_structural   Al8Fe16Ni8CO
_chemical_formula_sum   'Al8 Fe16 Ni8 C1 O1'
_cell_volume   1238.96211387
_cell_formula_units_Z   1
loop_
 _symmetry_equiv_pos_site_id
 _symmetry_equiv_pos_as_xyz
  1  'x, y, z'
loop_
 _atom_site_type_symbol
 _atom_site_label
 _atom_site_symmetry_multiplicity
 _atom_site_fract_x
 _atom_site_fract_y
 _atom_site_fract_z
 _atom_site_occupancy
  Al  Al0  1  0.00000000  0.00000000  0.88255000  1.0
  Al  Al1  1  0.00000000  0.50000000  0.88255000  1.0
  Al  Al2  1  0.03309000  0.92972000  0.03717000  1.0
  Al  Al3  1  0.44508000  0.77776000  0.12601000  1.0
  Al  Al4  1  0.50000000  0.25000000  0.96085000  1.0
  Al  Al5  1  0.50000000  0.75000000  0.96085000  1.0
  Al  Al6  1  0.51725000  0.23364000  0.12122000  1.0
  Al  Al7  1  0.97355000  0.46137000  0.04098000  1.0
  Fe  Fe8  1  0.20919000  0.02347000  0.11895000  1.0
  Fe  Fe9  1  0.23756000  0.21600000  0.04212000  1.0
  Fe  Fe10  1  0.25000000  0.00000000  0.96085000  1.0
  Fe  Fe11  1  0.25000000  0.25000000  0.88255000  1.0
  Fe  Fe12  1  0.25000000  0.50000000  0.96085000  1.0
  Fe  Fe13  1  0.25000000  0.75000000  0.88255000  1.0
  Fe  Fe14  1  0.26202000  0.48565000  0.11412000  1.0
  Fe  Fe15  1  0.28925000  0.66981000  0.03974000  1.0
  Fe  Fe16  1  0.69816000  0.52365000  0.11731000  1.0
  Fe  Fe17  1  0.72281000  0.71883000  0.04431000  1.0
  Fe  Fe18  1  0.75000000  0.00000000  0.96085000  1.0
  Fe  Fe19  1  0.75000000  0.25000000  0.88255000  1.0
  Fe  Fe20  1  0.75000000  0.50000000  0.96085000  1.0
  Fe  Fe21  1  0.75000000  0.75000000  0.88255000  1.0
  Fe  Fe22  1  0.76942000  0.17471000  0.03905000  1.0
  Fe  Fe23  1  0.77448000  0.98125000  0.11254000  1.0
  Ni  Ni24  1  0.00000000  0.25000000  0.96085000  1.0
  Ni  Ni25  1  0.00000000  0.75000000  0.96085000  1.0
  Ni  Ni26  1  0.01762000  0.72996000  0.11090000  1.0
  Ni  Ni27  1  0.46608000  0.95864000  0.04093000  1.0
  Ni  Ni28  1  0.50000000  0.00000000  0.88255000  1.0
  Ni  Ni29  1  0.50000000  0.50000000  0.88255000  1.0
  Ni  Ni30  1  0.53532000  0.42586000  0.03770000  1.0
  Ni  Ni31  1  0.95581000  0.27234000  0.11660000  1.0
  C  C32  1  0.11080000  0.03535000  0.18316000  1.0
  O  O33  1  0.05506000  0.04251000  0.22603000  1.0
