# generated using pymatgen
data_Li8Mg8In8Pt8CO
_symmetry_space_group_name_H-M   Pm
_cell_length_a   6.50521000
_cell_length_b   9.19976000
_cell_length_c   26.89980000
_cell_angle_alpha   90.00000000
_cell_angle_beta   90.00000000
_cell_angle_gamma   90.00000000
_symmetry_Int_Tables_number   6
_chemical_formula_structural   Li8Mg8In8Pt8CO
_chemical_formula_sum   'Li8 Mg8 In8 Pt8 C1 O1'
_cell_volume   1609.85540389
_cell_formula_units_Z   1
loop_
 _symmetry_equiv_pos_site_id
 _symmetry_equiv_pos_as_xyz
  1  'x, y, z'
  2  'x, -y, z'
loop_
 _atom_site_type_symbol
 _atom_site_label
 _atom_site_symmetry_multiplicity
 _atom_site_fract_x
 _atom_site_fract_y
 _atom_site_fract_z
 _atom_site_occupancy
  Li  Li0  2  0.25000000  0.25000000  0.95725000  1.0
  Li  Li1  2  0.26343000  0.25081000  0.13113000  1.0
  Li  Li2  1  0.73714000  0.50000000  0.04509000  1.0
  Li  Li3  1  0.74488000  0.00000000  0.04405000  1.0
  Li  Li4  1  0.75000000  0.00000000  0.87175000  1.0
  Li  Li5  1  0.75000000  0.50000000  0.87175000  1.0
  Mg  Mg6  2  0.49475000  0.24933000  0.04158000  1.0
  Mg  Mg7  2  0.50000000  0.25000000  0.87175000  1.0
  Mg  Mg8  1  0.00000000  0.00000000  0.95725000  1.0
  Mg  Mg9  1  0.00000000  0.50000000  0.95725000  1.0
  Mg  Mg10  1  0.97880000  0.00000000  0.13041000  1.0
  Mg  Mg11  1  0.98100000  0.50000000  0.13049000  1.0
  In  In12  2  0.00000000  0.25000000  0.87175000  1.0
  In  In13  2  0.00427000  0.25054000  0.04317000  1.0
  In  In14  1  0.50000000  0.00000000  0.95725000  1.0
  In  In15  1  0.50000000  0.50000000  0.95725000  1.0
  In  In16  1  0.50142000  0.50000000  0.13926000  1.0
  In  In17  1  0.50798000  0.00000000  0.13609000  1.0
  Pt  Pt18  2  0.73644000  0.25305000  0.12147000  1.0
  Pt  Pt19  2  0.75000000  0.25000000  0.95725000  1.0
  Pt  Pt20  1  0.25000000  0.00000000  0.87175000  1.0
  Pt  Pt21  1  0.25000000  0.50000000  0.87175000  1.0
  Pt  Pt22  1  0.25258000  0.00000000  0.04687000  1.0
  Pt  Pt23  1  0.25486000  0.50000000  0.04433000  1.0
  C  C24  1  0.01948000  0.00000000  0.21412000  1.0
  O  O25  1  0.02115000  0.00000000  0.25666000  1.0
