# generated using pymatgen
data_Li16Ga8Ir8C
_symmetry_space_group_name_H-M   'P 1'
_cell_length_a   8.38451000
_cell_length_b   5.92875000
_cell_length_c   26.28840000
_cell_angle_alpha   90.00000000
_cell_angle_beta   90.00000000
_cell_angle_gamma   90.00000000
_symmetry_Int_Tables_number   1
_chemical_formula_structural   Li16Ga8Ir8C
_chemical_formula_sum   'Li16 Ga8 Ir8 C1'
_cell_volume   1306.78752223
_cell_formula_units_Z   1
loop_
 _symmetry_equiv_pos_site_id
 _symmetry_equiv_pos_as_xyz
  1  'x, y, z'
loop_
 _atom_site_type_symbol
 _atom_site_label
 _atom_site_symmetry_multiplicity
 _atom_site_fract_x
 _atom_site_fract_y
 _atom_site_fract_z
 _atom_site_occupancy
  Li  Li0  1  0.75000000  0.25000000  0.03987000  1.0
  Li  Li1  1  0.25000000  0.75000000  0.03987000  1.0
  Li  Li2  1  0.75000000  0.75000000  0.03987000  1.0
  Li  Li3  1  0.25000000  0.25000000  0.03987000  1.0
  Li  Li4  1  0.50000000  0.75000000  0.11960000  1.0
  Li  Li5  1  0.00000000  0.25000000  0.11960000  1.0
  Li  Li6  1  0.50000000  0.25000000  0.11960000  1.0
  Li  Li7  1  0.00000000  0.75000000  0.11960000  1.0
  Li  Li8  1  0.24937000  0.24251000  0.85391000  1.0
  Li  Li9  1  0.72415000  0.77033000  0.85282000  1.0
  Li  Li10  1  0.27585000  0.77033000  0.85282000  1.0
  Li  Li11  1  0.75063000  0.24251000  0.85391000  1.0
  Li  Li12  1  0.00000000  0.75043000  0.96667000  1.0
  Li  Li13  1  0.50000000  0.25683000  0.96680000  1.0
  Li  Li14  1  0.00000000  0.25168000  0.95863000  1.0
  Li  Li15  1  0.50000000  0.74476000  0.96243000  1.0
  Ga  Ga16  1  0.75000000  0.00000000  0.11960000  1.0
  Ga  Ga17  1  0.00000000  0.50000000  0.03987000  1.0
  Ga  Ga18  1  0.50000000  0.50000000  0.03987000  1.0
  Ga  Ga19  1  0.25000000  0.00000000  0.11960000  1.0
  Ga  Ga20  1  0.25136000  0.98697000  0.94809000  1.0
  Ga  Ga21  1  0.50000000  0.46880000  0.88718000  1.0
  Ga  Ga22  1  0.00000000  0.52876000  0.87957000  1.0
  Ga  Ga23  1  0.74864000  0.98697000  0.94809000  1.0
  Ir  Ir24  1  0.50000000  0.00000000  0.03987000  1.0
  Ir  Ir25  1  0.75000000  0.50000000  0.11960000  1.0
  Ir  Ir26  1  0.00000000  0.00000000  0.03987000  1.0
  Ir  Ir27  1  0.25000000  0.50000000  0.11960000  1.0
  Ir  Ir28  1  0.00000000  0.96828000  0.88107000  1.0
  Ir  Ir29  1  0.24586000  0.52422000  0.94028000  1.0
  Ir  Ir30  1  0.50000000  0.03228000  0.88880000  1.0
  Ir  Ir31  1  0.75414000  0.52422000  0.94028000  1.0
  C  C32  1  0.00000000  0.22059000  0.84213000  1.0
