# generated using pymatgen
data_Li16Ga8Ir8C
_symmetry_space_group_name_H-M   Pm
_cell_length_a   5.92875000
_cell_length_b   8.38451000
_cell_length_c   26.28840000
_cell_angle_alpha   90.00000000
_cell_angle_beta   90.00000000
_cell_angle_gamma   90.00000000
_symmetry_Int_Tables_number   6
_chemical_formula_structural   Li16Ga8Ir8C
_chemical_formula_sum   'Li16 Ga8 Ir8 C1'
_cell_volume   1306.78752223
_cell_formula_units_Z   1
loop_
 _symmetry_equiv_pos_site_id
 _symmetry_equiv_pos_as_xyz
  1  'x, y, z'
  2  'x, -y, z'
loop_
 _atom_site_type_symbol
 _atom_site_label
 _atom_site_symmetry_multiplicity
 _atom_site_fract_x
 _atom_site_fract_y
 _atom_site_fract_z
 _atom_site_occupancy
  Li  Li0  2  0.24251000  0.24937000  0.14609000  1.0
  Li  Li1  2  0.25000000  0.25000000  0.96013000  1.0
  Li  Li2  2  0.75000000  0.25000000  0.96013000  1.0
  Li  Li3  2  0.77033000  0.27585000  0.14718000  1.0
  Li  Li4  1  0.25000000  0.00000000  0.88040000  1.0
  Li  Li5  1  0.25000000  0.50000000  0.88040000  1.0
  Li  Li6  1  0.25168000  0.00000000  0.04137000  1.0
  Li  Li7  1  0.25683000  0.50000000  0.03320000  1.0
  Li  Li8  1  0.74476000  0.50000000  0.03757000  1.0
  Li  Li9  1  0.75000000  0.00000000  0.88040000  1.0
  Li  Li10  1  0.75000000  0.50000000  0.88040000  1.0
  Li  Li11  1  0.75043000  0.00000000  0.03333000  1.0
  Ga  Ga12  2  0.00000000  0.25000000  0.88040000  1.0
  Ga  Ga13  2  0.98697000  0.25136000  0.05191000  1.0
  Ga  Ga14  1  0.46880000  0.50000000  0.11282000  1.0
  Ga  Ga15  1  0.50000000  0.00000000  0.96013000  1.0
  Ga  Ga16  1  0.50000000  0.50000000  0.96013000  1.0
  Ga  Ga17  1  0.52876000  0.00000000  0.12043000  1.0
  Ir  Ir18  2  0.50000000  0.25000000  0.88040000  1.0
  Ir  Ir19  2  0.52422000  0.24586000  0.05972000  1.0
  Ir  Ir20  1  0.00000000  0.00000000  0.96013000  1.0
  Ir  Ir21  1  0.00000000  0.50000000  0.96013000  1.0
  Ir  Ir22  1  0.03228000  0.50000000  0.11120000  1.0
  Ir  Ir23  1  0.96828000  0.00000000  0.11893000  1.0
  C  C24  1  0.22059000  0.00000000  0.15787000  1.0
