# generated using pymatgen
data_Al8Fe8Co16C
_symmetry_space_group_name_H-M   'P 1'
_cell_length_a   8.08683000
_cell_length_b   5.71826000
_cell_length_c   26.06510000
_cell_angle_alpha   90.00000000
_cell_angle_beta   90.00000000
_cell_angle_gamma   90.00000000
_symmetry_Int_Tables_number   1
_chemical_formula_structural   Al8Fe8Co16C
_chemical_formula_sum   'Al8 Fe8 Co16 C1'
_cell_volume   1205.31790244
_cell_formula_units_Z   1
loop_
 _symmetry_equiv_pos_site_id
 _symmetry_equiv_pos_as_xyz
  1  'x, y, z'
loop_
 _atom_site_type_symbol
 _atom_site_label
 _atom_site_symmetry_multiplicity
 _atom_site_fract_x
 _atom_site_fract_y
 _atom_site_fract_z
 _atom_site_occupancy
  Al  Al0  1  0.75000000  0.00000000  0.11635000  1.0
  Al  Al1  1  0.00000000  0.50000000  0.03878000  1.0
  Al  Al2  1  0.50000000  0.50000000  0.03878000  1.0
  Al  Al3  1  0.25000000  0.00000000  0.11635000  1.0
  Al  Al4  1  0.24852000  0.00415000  0.96103000  1.0
  Al  Al5  1  0.50000000  0.48548000  0.87992000  1.0
  Al  Al6  1  0.00000000  0.54811000  0.87806000  1.0
  Al  Al7  1  0.75148000  0.00415000  0.96103000  1.0
  Fe  Fe8  1  0.50000000  0.00000000  0.03878000  1.0
  Fe  Fe9  1  0.75000000  0.50000000  0.11635000  1.0
  Fe  Fe10  1  0.00000000  0.00000000  0.03878000  1.0
  Fe  Fe11  1  0.25000000  0.50000000  0.11635000  1.0
  Fe  Fe12  1  0.00000000  0.95619000  0.88688000  1.0
  Fe  Fe13  1  0.25100000  0.50006000  0.96009000  1.0
  Fe  Fe14  1  0.50000000  0.00763000  0.88480000  1.0
  Fe  Fe15  1  0.74900000  0.50006000  0.96009000  1.0
  Co  Co16  1  0.75000000  0.25000000  0.03878000  1.0
  Co  Co17  1  0.25000000  0.75000000  0.03878000  1.0
  Co  Co18  1  0.75000000  0.75000000  0.03878000  1.0
  Co  Co19  1  0.25000000  0.25000000  0.03878000  1.0
  Co  Co20  1  0.50000000  0.75000000  0.11635000  1.0
  Co  Co21  1  0.00000000  0.25000000  0.11635000  1.0
  Co  Co22  1  0.50000000  0.25000000  0.11635000  1.0
  Co  Co23  1  0.00000000  0.75000000  0.11635000  1.0
  Co  Co24  1  0.22834000  0.25275000  0.88297000  1.0
  Co  Co25  1  0.74054000  0.75278000  0.88642000  1.0
  Co  Co26  1  0.25946000  0.75278000  0.88642000  1.0
  Co  Co27  1  0.77166000  0.25275000  0.88297000  1.0
  Co  Co28  1  0.00000000  0.74484000  0.96405000  1.0
  Co  Co29  1  0.50000000  0.25080000  0.96023000  1.0
  Co  Co30  1  0.00000000  0.25463000  0.96034000  1.0
  Co  Co31  1  0.50000000  0.75048000  0.96007000  1.0
  C  C32  1  0.00000000  0.22931000  0.85766000  1.0
