# generated using pymatgen
data_Ni8Sn8Rh16C
_symmetry_space_group_name_H-M   'P 1'
_cell_length_a   8.81761000
_cell_length_b   6.23499000
_cell_length_c   26.61320000
_cell_angle_alpha   90.00000000
_cell_angle_beta   90.00000000
_cell_angle_gamma   90.00000000
_symmetry_Int_Tables_number   1
_chemical_formula_structural   Ni8Sn8Rh16C
_chemical_formula_sum   'Ni8 Sn8 Rh16 C1'
_cell_volume   1463.13279640
_cell_formula_units_Z   1
loop_
 _symmetry_equiv_pos_site_id
 _symmetry_equiv_pos_as_xyz
  1  'x, y, z'
loop_
 _atom_site_type_symbol
 _atom_site_label
 _atom_site_symmetry_multiplicity
 _atom_site_fract_x
 _atom_site_fract_y
 _atom_site_fract_z
 _atom_site_occupancy
  Ni  Ni0  1  0.74999000  0.00000000  0.12425000  1.0
  Ni  Ni1  1  0.00000000  0.50000000  0.04142000  1.0
  Ni  Ni2  1  0.50000000  0.50000000  0.04142000  1.0
  Ni  Ni3  1  0.25001000  0.00000000  0.12425000  1.0
  Ni  Ni4  1  0.24935000  0.99975000  0.95595000  1.0
  Ni  Ni5  1  0.50000000  0.47882000  0.87658000  1.0
  Ni  Ni6  1  0.00000000  0.53877000  0.88058000  1.0
  Ni  Ni7  1  0.75065000  0.99975000  0.95595000  1.0
  Sn  Sn8  1  0.50000000  0.00000000  0.04142000  1.0
  Sn  Sn9  1  0.74999000  0.50000000  0.12425000  1.0
  Sn  Sn10  1  0.00000000  0.00000000  0.04142000  1.0
  Sn  Sn11  1  0.25001000  0.50000000  0.12425000  1.0
  Sn  Sn12  1  0.00000000  0.93323000  0.86980000  1.0
  Sn  Sn13  1  0.25205000  0.49583000  0.95912000  1.0
  Sn  Sn14  1  0.50000000  0.03023000  0.86897000  1.0
  Sn  Sn15  1  0.74795000  0.49583000  0.95912000  1.0
  Rh  Rh16  1  0.74999000  0.25000000  0.04142000  1.0
  Rh  Rh17  1  0.24999000  0.75000000  0.04142000  1.0
  Rh  Rh18  1  0.75001000  0.75000000  0.04142000  1.0
  Rh  Rh19  1  0.25001000  0.25000000  0.04142000  1.0
  Rh  Rh20  1  0.50000000  0.75000000  0.12425000  1.0
  Rh  Rh21  1  0.00000000  0.25000000  0.12425000  1.0
  Rh  Rh22  1  0.50000000  0.25000000  0.12425000  1.0
  Rh  Rh23  1  0.00000000  0.75000000  0.12425000  1.0
  Rh  Rh24  1  0.21156000  0.24546000  0.87439000  1.0
  Rh  Rh25  1  0.72750000  0.74605000  0.87894000  1.0
  Rh  Rh26  1  0.27250000  0.74605000  0.87894000  1.0
  Rh  Rh27  1  0.78844000  0.24546000  0.87439000  1.0
  Rh  Rh28  1  0.00000000  0.74995000  0.96330000  1.0
  Rh  Rh29  1  0.50000000  0.24455000  0.95797000  1.0
  Rh  Rh30  1  0.00000000  0.24389000  0.95940000  1.0
  Rh  Rh31  1  0.50000000  0.75700000  0.95766000  1.0
  C  C32  1  0.00000000  0.28977000  0.85099000  1.0
