# generated using pymatgen
data_Ni8Sn8Rh16C
_symmetry_space_group_name_H-M   Pm
_cell_length_a   6.23499000
_cell_length_b   8.81761000
_cell_length_c   26.61320000
_cell_angle_alpha   90.00000000
_cell_angle_beta   90.00000000
_cell_angle_gamma   90.00000000
_symmetry_Int_Tables_number   6
_chemical_formula_structural   Ni8Sn8Rh16C
_chemical_formula_sum   'Ni8 Sn8 Rh16 C1'
_cell_volume   1463.13279640
_cell_formula_units_Z   1
loop_
 _symmetry_equiv_pos_site_id
 _symmetry_equiv_pos_as_xyz
  1  'x, y, z'
  2  'x, -y, z'
loop_
 _atom_site_type_symbol
 _atom_site_label
 _atom_site_symmetry_multiplicity
 _atom_site_fract_x
 _atom_site_fract_y
 _atom_site_fract_z
 _atom_site_occupancy
  Ni  Ni0  2  0.00000000  0.25001000  0.87575000  1.0
  Ni  Ni1  2  0.99975000  0.24935000  0.04405000  1.0
  Ni  Ni2  1  0.47882000  0.50000000  0.12342000  1.0
  Ni  Ni3  1  0.50000000  0.00000000  0.95858000  1.0
  Ni  Ni4  1  0.50000000  0.50000000  0.95858000  1.0
  Ni  Ni5  1  0.53877000  0.00000000  0.11942000  1.0
  Sn  Sn6  2  0.49583000  0.25205000  0.04088000  1.0
  Sn  Sn7  2  0.50000000  0.25001000  0.87575000  1.0
  Sn  Sn8  1  0.00000000  0.00000000  0.95858000  1.0
  Sn  Sn9  1  0.00000000  0.50000000  0.95858000  1.0
  Sn  Sn10  1  0.03023000  0.50000000  0.13103000  1.0
  Sn  Sn11  1  0.93323000  0.00000000  0.13020000  1.0
  Rh  Rh12  2  0.24546000  0.21156000  0.12561000  1.0
  Rh  Rh13  2  0.25000000  0.25001000  0.95858000  1.0
  Rh  Rh14  2  0.74605000  0.27250000  0.12106000  1.0
  Rh  Rh15  2  0.75000000  0.24999000  0.95858000  1.0
  Rh  Rh16  1  0.24389000  0.00000000  0.04060000  1.0
  Rh  Rh17  1  0.24455000  0.50000000  0.04203000  1.0
  Rh  Rh18  1  0.25000000  0.00000000  0.87575000  1.0
  Rh  Rh19  1  0.25000000  0.50000000  0.87575000  1.0
  Rh  Rh20  1  0.74995000  0.00000000  0.03670000  1.0
  Rh  Rh21  1  0.75000000  0.00000000  0.87575000  1.0
  Rh  Rh22  1  0.75000000  0.50000000  0.87575000  1.0
  Rh  Rh23  1  0.75700000  0.50000000  0.04234000  1.0
  C  C24  1  0.28977000  0.00000000  0.14901000  1.0
