# generated using pymatgen
data_Li4Y4Cu4Ge4C
_symmetry_space_group_name_H-M   P2
_cell_length_a   6.66034000
_cell_length_b   24.99530000
_cell_length_c   6.66034000
_cell_angle_alpha   90.00000000
_cell_angle_beta   90.00000000
_cell_angle_gamma   90.00000000
_symmetry_Int_Tables_number   3
_chemical_formula_structural   Li4Y4Cu4Ge4C
_chemical_formula_sum   'Li4 Y4 Cu4 Ge4 C1'
_cell_volume   1108.79473028
_cell_formula_units_Z   1
loop_
 _symmetry_equiv_pos_site_id
 _symmetry_equiv_pos_as_xyz
  1  'x, y, z'
  2  '-x, y, -z'
loop_
 _atom_site_type_symbol
 _atom_site_label
 _atom_site_symmetry_multiplicity
 _atom_site_fract_x
 _atom_site_fract_y
 _atom_site_fract_z
 _atom_site_occupancy
  Li  Li0  2  0.25000000  0.96669000  0.75000000  1.0
  Li  Li1  2  0.27608000  0.09459000  0.22430000  1.0
  Y  Y2  2  0.25000000  0.96669000  0.25000000  1.0
  Y  Y3  2  0.26285000  0.10535000  0.76306000  1.0
  Cu  Cu4  1  0.00000000  0.03297000  0.50000000  1.0
  Cu  Cu5  1  0.00000000  0.90008000  0.00000000  1.0
  Cu  Cu6  1  0.50000000  0.02917000  0.00000000  1.0
  Cu  Cu7  1  0.50000000  0.90008000  0.50000000  1.0
  Ge  Ge8  1  0.00000000  0.03898000  0.00000000  1.0
  Ge  Ge9  1  0.00000000  0.90008000  0.50000000  1.0
  Ge  Ge10  1  0.50000000  0.03896000  0.50000000  1.0
  Ge  Ge11  1  0.50000000  0.90008000  0.00000000  1.0
  C  C12  1  0.50000000  0.11070000  0.00000000  1.0
