# generated using pymatgen
data_Ti8Be8CO
_symmetry_space_group_name_H-M   P1
_cell_length_a   5.87849000
_cell_length_b   5.87849000
_cell_length_c   24.40890000
_cell_angle_alpha   90.00000000
_cell_angle_beta   90.00000000
_cell_angle_gamma   90.00000000
_symmetry_Int_Tables_number   1
_chemical_formula_structural   Ti8Be8CO
_chemical_formula_sum   'Ti8 Be8 C1 O1'
_cell_volume   843.48968433
_cell_formula_units_Z   1
loop_
 _symmetry_equiv_pos_site_id
 _symmetry_equiv_pos_as_xyz
  1  'x, y, z'
loop_
 _atom_site_type_symbol
 _atom_site_label
 _atom_site_symmetry_multiplicity
 _atom_site_fract_x
 _atom_site_fract_y
 _atom_site_fract_z
 _atom_site_occupancy
  Ti  Ti0  1  0.00000000  0.00000000  0.88912000  1.0
  Ti  Ti1  1  0.00000000  0.50000000  0.88912000  1.0
  Ti  Ti2  1  0.00543000  0.00541000  0.01422000  1.0
  Ti  Ti3  1  0.00548000  0.49444000  0.01444000  1.0
  Ti  Ti4  1  0.49499000  0.49437000  0.01401000  1.0
  Ti  Ti5  1  0.49512000  0.00530000  0.01378000  1.0
  Ti  Ti6  1  0.50000000  0.00000000  0.88912000  1.0
  Ti  Ti7  1  0.50000000  0.50000000  0.88912000  1.0
  Be  Be8  1  0.25000000  0.25000000  0.94933000  1.0
  Be  Be9  1  0.25000000  0.75000000  0.94933000  1.0
  Be  Be10  1  0.25506000  0.75486000  0.07158000  1.0
  Be  Be11  1  0.25872000  0.24231000  0.08196000  1.0
  Be  Be12  1  0.74440000  0.24783000  0.07175000  1.0
  Be  Be13  1  0.74564000  0.75150000  0.06925000  1.0
  Be  Be14  1  0.75000000  0.25000000  0.94933000  1.0
  Be  Be15  1  0.75000000  0.75000000  0.94933000  1.0
  C  C16  1  0.25036000  0.25125000  0.15104000  1.0
  O  O17  1  0.24503000  0.25669000  0.19811000  1.0
