# generated using pymatgen
data_Hf8Ga8Ni16C
_symmetry_space_group_name_H-M   'P 1'
_cell_length_a   8.60362000
_cell_length_b   6.08368000
_cell_length_c   26.45270000
_cell_angle_alpha   90.00000000
_cell_angle_beta   90.00000000
_cell_angle_gamma   90.00000000
_symmetry_Int_Tables_number   1
_chemical_formula_structural   Hf8Ga8Ni16C
_chemical_formula_sum   'Hf8 Ga8 Ni16 C1'
_cell_volume   1384.57851839
_cell_formula_units_Z   1
loop_
 _symmetry_equiv_pos_site_id
 _symmetry_equiv_pos_as_xyz
  1  'x, y, z'
loop_
 _atom_site_type_symbol
 _atom_site_label
 _atom_site_symmetry_multiplicity
 _atom_site_fract_x
 _atom_site_fract_y
 _atom_site_fract_z
 _atom_site_occupancy
  Hf  Hf0  1  0.00000000  0.00000000  0.12197000  1.0
  Hf  Hf1  1  0.25000000  0.50000000  0.04066000  1.0
  Hf  Hf2  1  0.75000000  0.50000000  0.04066000  1.0
  Hf  Hf3  1  0.50000000  0.00000000  0.12197000  1.0
  Hf  Hf4  1  0.49999000  0.00000000  0.96002000  1.0
  Hf  Hf5  1  0.74014000  0.50000000  0.87618000  1.0
  Hf  Hf6  1  0.25988000  0.50000000  0.87616000  1.0
  Hf  Hf7  1  0.00000000  0.00000000  0.95703000  1.0
  Ga  Ga8  1  0.75000000  0.00000000  0.04066000  1.0
  Ga  Ga9  1  0.00000000  0.50000000  0.12197000  1.0
  Ga  Ga10  1  0.25000000  0.00000000  0.04066000  1.0
  Ga  Ga11  1  0.50000000  0.50000000  0.12197000  1.0
  Ga  Ga12  1  0.25292000  0.00000000  0.87599000  1.0
  Ga  Ga13  1  0.49994000  0.50000000  0.95876000  1.0
  Ga  Ga14  1  0.74708000  0.00000000  0.87598000  1.0
  Ga  Ga15  1  0.00005000  0.50000000  0.95970000  1.0
  Ni  Ni16  1  0.00000000  0.75000000  0.04066000  1.0
  Ni  Ni17  1  0.50000000  0.25000000  0.04066000  1.0
  Ni  Ni18  1  0.00000000  0.25000000  0.04066000  1.0
  Ni  Ni19  1  0.50000000  0.75000000  0.04066000  1.0
  Ni  Ni20  1  0.75000000  0.25000000  0.12197000  1.0
  Ni  Ni21  1  0.25000000  0.75000000  0.12197000  1.0
  Ni  Ni22  1  0.75000000  0.75000000  0.12197000  1.0
  Ni  Ni23  1  0.25000000  0.25000000  0.12197000  1.0
  Ni  Ni24  1  0.49999000  0.76642000  0.88024000  1.0
  Ni  Ni25  1  0.00000000  0.29133000  0.87672000  1.0
  Ni  Ni26  1  0.49999000  0.23358000  0.88024000  1.0
  Ni  Ni27  1  0.00000000  0.70867000  0.87672000  1.0
  Ni  Ni28  1  0.25255000  0.26247000  0.95778000  1.0
  Ni  Ni29  1  0.74744000  0.73762000  0.95777000  1.0
  Ni  Ni30  1  0.25255000  0.73753000  0.95778000  1.0
  Ni  Ni31  1  0.74744000  0.26238000  0.95777000  1.0
  C  C32  1  0.00000000  0.00000000  0.86735000  1.0
