# generated using pymatgen
data_Li8Mg8In8Sn8CO
_symmetry_space_group_name_H-M   'P 1'
_cell_length_a   9.92662000
_cell_length_b   7.01918000
_cell_length_c   27.44500000
_cell_angle_alpha   90.00000000
_cell_angle_beta   90.00000000
_cell_angle_gamma   90.00000000
_symmetry_Int_Tables_number   1
_chemical_formula_structural   Li8Mg8In8Sn8CO
_chemical_formula_sum   'Li8 Mg8 In8 Sn8 C1 O1'
_cell_volume   1912.27792543
_cell_formula_units_Z   1
loop_
 _symmetry_equiv_pos_site_id
 _symmetry_equiv_pos_as_xyz
  1  'x, y, z'
loop_
 _atom_site_type_symbol
 _atom_site_label
 _atom_site_symmetry_multiplicity
 _atom_site_fract_x
 _atom_site_fract_y
 _atom_site_fract_z
 _atom_site_occupancy
  Li  Li0  1  0.00000000  0.75000000  0.04521000  1.0
  Li  Li1  1  0.50000000  0.75000000  0.04521000  1.0
  Li  Li2  1  0.25000000  0.25000000  0.13563000  1.0
  Li  Li3  1  0.75000000  0.25000000  0.13563000  1.0
  Li  Li4  1  0.50000000  0.75757000  0.85900000  1.0
  Li  Li5  1  0.00000000  0.75375000  0.86082000  1.0
  Li  Li6  1  0.75046000  0.25301000  0.95231000  1.0
  Li  Li7  1  0.24954000  0.25301000  0.95231000  1.0
  Mg  Mg8  1  0.00000000  0.25000000  0.04521000  1.0
  Mg  Mg9  1  0.50000000  0.25000000  0.04521000  1.0
  Mg  Mg10  1  0.25000000  0.75000000  0.13563000  1.0
  Mg  Mg11  1  0.75000000  0.75000000  0.13563000  1.0
  Mg  Mg12  1  0.50000000  0.23900000  0.85102000  1.0
  Mg  Mg13  1  0.00000000  0.24043000  0.85367000  1.0
  Mg  Mg14  1  0.74795000  0.74661000  0.95098000  1.0
  Mg  Mg15  1  0.25205000  0.74661000  0.95098000  1.0
  In  In16  1  0.00000000  0.00000000  0.13563000  1.0
  In  In17  1  0.50000000  0.00000000  0.13563000  1.0
  In  In18  1  0.75000000  0.50000000  0.04521000  1.0
  In  In19  1  0.25000000  0.50000000  0.04521000  1.0
  In  In20  1  0.50000000  0.01038000  0.94909000  1.0
  In  In21  1  0.00000000  0.00597000  0.95006000  1.0
  In  In22  1  0.25324000  0.50932000  0.84995000  1.0
  In  In23  1  0.74676000  0.50932000  0.84995000  1.0
  Sn  Sn24  1  0.25000000  0.00000000  0.04521000  1.0
  Sn  Sn25  1  0.75000000  0.00000000  0.04521000  1.0
  Sn  Sn26  1  0.50000000  0.50000000  0.13563000  1.0
  Sn  Sn27  1  0.00000000  0.50000000  0.13563000  1.0
  Sn  Sn28  1  0.74895000  0.98990000  0.85755000  1.0
  Sn  Sn29  1  0.25105000  0.98990000  0.85755000  1.0
  Sn  Sn30  1  0.00000000  0.49196000  0.94837000  1.0
  Sn  Sn31  1  0.50000000  0.49130000  0.94754000  1.0
  C  C32  1  0.00000000  0.24852000  0.77136000  1.0
  O  O33  1  0.00000000  0.25238000  0.72965000  1.0
