# generated using pymatgen
data_Li8Mg8In8Sn8CO
_symmetry_space_group_name_H-M   Pm
_cell_length_a   7.01918000
_cell_length_b   9.92662000
_cell_length_c   27.44500000
_cell_angle_alpha   90.00000000
_cell_angle_beta   90.00000000
_cell_angle_gamma   90.00000000
_symmetry_Int_Tables_number   6
_chemical_formula_structural   Li8Mg8In8Sn8CO
_chemical_formula_sum   'Li8 Mg8 In8 Sn8 C1 O1'
_cell_volume   1912.27792543
_cell_formula_units_Z   1
loop_
 _symmetry_equiv_pos_site_id
 _symmetry_equiv_pos_as_xyz
  1  'x, y, z'
  2  'x, -y, z'
loop_
 _atom_site_type_symbol
 _atom_site_label
 _atom_site_symmetry_multiplicity
 _atom_site_fract_x
 _atom_site_fract_y
 _atom_site_fract_z
 _atom_site_occupancy
  Li  Li0  2  0.25000000  0.25000000  0.86437000  1.0
  Li  Li1  2  0.25301000  0.24954000  0.04769000  1.0
  Li  Li2  1  0.75000000  0.00000000  0.95479000  1.0
  Li  Li3  1  0.75000000  0.50000000  0.95479000  1.0
  Li  Li4  1  0.75375000  0.00000000  0.13918000  1.0
  Li  Li5  1  0.75757000  0.50000000  0.14100000  1.0
  Mg  Mg6  2  0.74661000  0.25205000  0.04902000  1.0
  Mg  Mg7  2  0.75000000  0.25000000  0.86437000  1.0
  Mg  Mg8  1  0.23900000  0.50000000  0.14898000  1.0
  Mg  Mg9  1  0.24043000  0.00000000  0.14633000  1.0
  Mg  Mg10  1  0.25000000  0.00000000  0.95479000  1.0
  Mg  Mg11  1  0.25000000  0.50000000  0.95479000  1.0
  In  In12  2  0.50000000  0.25000000  0.95479000  1.0
  In  In13  2  0.50932000  0.25324000  0.15005000  1.0
  In  In14  1  0.00000000  0.00000000  0.86437000  1.0
  In  In15  1  0.00000000  0.50000000  0.86437000  1.0
  In  In16  1  0.00597000  0.00000000  0.04994000  1.0
  In  In17  1  0.01038000  0.50000000  0.05091000  1.0
  Sn  Sn18  2  0.00000000  0.25000000  0.95479000  1.0
  Sn  Sn19  2  0.98990000  0.25105000  0.14245000  1.0
  Sn  Sn20  1  0.49130000  0.50000000  0.05246000  1.0
  Sn  Sn21  1  0.49196000  0.00000000  0.05163000  1.0
  Sn  Sn22  1  0.50000000  0.00000000  0.86437000  1.0
  Sn  Sn23  1  0.50000000  0.50000000  0.86437000  1.0
  C  C24  1  0.24852000  0.00000000  0.22864000  1.0
  O  O25  1  0.25238000  0.00000000  0.27035000  1.0
