# generated using pymatgen
data_LiScInGe
_symmetry_space_group_name_H-M   'P 1'
_cell_length_a   6.05318000
_cell_length_b   4.11024000
_cell_length_c   24.51760000
_cell_angle_alpha   90.00000000
_cell_angle_beta   90.00000000
_cell_angle_gamma   90.00000000
_symmetry_Int_Tables_number   1
_chemical_formula_structural   LiScInGe
_chemical_formula_sum   'Li2 Sc2 In2 Ge2'
_cell_volume   609.99844120
_cell_formula_units_Z   2
loop_
 _symmetry_equiv_pos_site_id
 _symmetry_equiv_pos_as_xyz
  1  'x, y, z'
loop_
 _atom_site_type_symbol
 _atom_site_label
 _atom_site_symmetry_multiplicity
 _atom_site_fract_x
 _atom_site_fract_y
 _atom_site_fract_z
 _atom_site_occupancy
  Li  Li0  1  0.50000000  0.00000000  0.90787000  1.0
  Li  Li1  1  0.07720000  0.00000000  0.03070000  1.0
  Sc  Sc2  1  0.77472000  0.50000000  0.96929000  1.0
  Sc  Sc3  1  0.41620500  0.50000000  0.09170500  1.0
  In  In4  1  0.27472000  0.50000000  0.96929000  1.0
  In  In5  1  0.91094500  0.50000000  0.10986500  1.0
  Ge  Ge6  1  0.00000000  0.00000000  0.90787000  1.0
  Ge  Ge7  1  0.62536000  0.00000000  0.04313500  1.0
