# generated using pymatgen
data_Y8Sc8In8Pd8CO
_symmetry_space_group_name_H-M   'P 1'
_cell_length_a   10.11530000
_cell_length_b   7.36232000
_cell_length_c   27.23180000
_cell_angle_alpha   90.00000000
_cell_angle_beta   90.00000000
_cell_angle_gamma   90.00000000
_symmetry_Int_Tables_number   1
_chemical_formula_structural   Y8Sc8In8Pd8CO
_chemical_formula_sum   'Y8 Sc8 In8 Pd8 C1 O1'
_cell_volume   2028.00866549
_cell_formula_units_Z   1
loop_
 _symmetry_equiv_pos_site_id
 _symmetry_equiv_pos_as_xyz
  1  'x, y, z'
loop_
 _atom_site_type_symbol
 _atom_site_label
 _atom_site_symmetry_multiplicity
 _atom_site_fract_x
 _atom_site_fract_y
 _atom_site_fract_z
 _atom_site_occupancy
  Y  Y0  1  0.24335000  0.74031000  0.12858000  1.0
  Y  Y1  1  0.25002000  0.75000000  0.95574000  1.0
  Y  Y2  1  0.24335000  0.25970000  0.12859000  1.0
  Y  Y3  1  0.25002000  0.25000000  0.95574000  1.0
  Y  Y4  1  0.75665000  0.74031000  0.12858000  1.0
  Y  Y5  1  0.74998000  0.75000000  0.95574000  1.0
  Y  Y6  1  0.75665000  0.25970000  0.12859000  1.0
  Y  Y7  1  0.74998000  0.25000000  0.95574000  1.0
  Sc  Sc8  1  0.50000000  0.74860000  0.04648000  1.0
  Sc  Sc9  1  0.50000000  0.75000000  0.86722000  1.0
  Sc  Sc10  1  0.50000000  0.25141000  0.04648000  1.0
  Sc  Sc11  1  0.50000000  0.25000000  0.86722000  1.0
  Sc  Sc12  1  0.00000000  0.74098000  0.04534000  1.0
  Sc  Sc13  1  0.00000000  0.75000000  0.86722000  1.0
  Sc  Sc14  1  0.00000000  0.25903000  0.04534000  1.0
  Sc  Sc15  1  0.00000000  0.25000000  0.86722000  1.0
  In  In16  1  0.50000000  0.99999000  0.13914000  1.0
  In  In17  1  0.50000000  0.00000000  0.95574000  1.0
  In  In18  1  0.50000000  0.50001000  0.14327000  1.0
  In  In19  1  0.50000000  0.50000000  0.95574000  1.0
  In  In20  1  0.00000000  0.00001000  0.13602000  1.0
  In  In21  1  0.00000000  0.00000000  0.95574000  1.0
  In  In22  1  0.00000000  0.50000000  0.16000000  1.0
  In  In23  1  0.00000000  0.50000000  0.95574000  1.0
  Pd  Pd24  1  0.20360000  0.00001000  0.04277000  1.0
  Pd  Pd25  1  0.25002000  0.00000000  0.86722000  1.0
  Pd  Pd26  1  0.29163000  0.50000000  0.04309000  1.0
  Pd  Pd27  1  0.25002000  0.50000000  0.86722000  1.0
  Pd  Pd28  1  0.79640000  0.00001000  0.04277000  1.0
  Pd  Pd29  1  0.74998000  0.00000000  0.86722000  1.0
  Pd  Pd30  1  0.70837000  0.50000000  0.04309000  1.0
  Pd  Pd31  1  0.74998000  0.50000000  0.86722000  1.0
  C  C32  1  0.50000000  0.99987000  0.22316000  1.0
  O  O33  1  0.50000000  0.99996000  0.26551000  1.0
