# generated using pymatgen
data_Y8Sc8In8Pd8CO
_symmetry_space_group_name_H-M   Pm
_cell_length_a   7.36232000
_cell_length_b   10.11530000
_cell_length_c   27.23180000
_cell_angle_alpha   90.00000000
_cell_angle_beta   90.00000000
_cell_angle_gamma   90.00000000
_symmetry_Int_Tables_number   6
_chemical_formula_structural   Y8Sc8In8Pd8CO
_chemical_formula_sum   'Y8 Sc8 In8 Pd8 C1 O1'
_cell_volume   2028.00866549
_cell_formula_units_Z   1
loop_
 _symmetry_equiv_pos_site_id
 _symmetry_equiv_pos_as_xyz
  1  'x, y, z'
  2  'x, -y, z'
loop_
 _atom_site_type_symbol
 _atom_site_label
 _atom_site_symmetry_multiplicity
 _atom_site_fract_x
 _atom_site_fract_y
 _atom_site_fract_z
 _atom_site_occupancy
  Y  Y0  2  0.25000000  0.25002000  0.04426000  1.0
  Y  Y1  2  0.25970000  0.24335000  0.87141000  1.0
  Y  Y2  2  0.74031000  0.24335000  0.87142000  1.0
  Y  Y3  2  0.75000000  0.25002000  0.04426000  1.0
  Sc  Sc4  1  0.25000000  0.00000000  0.13278000  1.0
  Sc  Sc5  1  0.25000000  0.50000000  0.13278000  1.0
  Sc  Sc6  1  0.25141000  0.50000000  0.95352000  1.0
  Sc  Sc7  1  0.25903000  0.00000000  0.95466000  1.0
  Sc  Sc8  1  0.74098000  0.00000000  0.95466000  1.0
  Sc  Sc9  1  0.74860000  0.50000000  0.95352000  1.0
  Sc  Sc10  1  0.75000000  0.00000000  0.13278000  1.0
  Sc  Sc11  1  0.75000000  0.50000000  0.13278000  1.0
  In  In12  1  0.00000000  0.00000000  0.04426000  1.0
  In  In13  1  0.00000000  0.50000000  0.04426000  1.0
  In  In14  1  0.00001000  0.00000000  0.86398000  1.0
  In  In15  1  0.50000000  0.00000000  0.04426000  1.0
  In  In16  1  0.50000000  0.00000000  0.84000000  1.0
  In  In17  1  0.50000000  0.50000000  0.04426000  1.0
  In  In18  1  0.50001000  0.50000000  0.85673000  1.0
  In  In19  1  0.99999000  0.50000000  0.86086000  1.0
  Pd  Pd20  2  0.00000000  0.25002000  0.13278000  1.0
  Pd  Pd21  2  0.00001000  0.20360000  0.95723000  1.0
  Pd  Pd22  2  0.50000000  0.25002000  0.13278000  1.0
  Pd  Pd23  2  0.50000000  0.29163000  0.95691000  1.0
  C  C24  1  0.99987000  0.50000000  0.77684000  1.0
  O  O25  1  0.99996000  0.50000000  0.73449000  1.0
