# generated using pymatgen
data_V8Fe8C
_symmetry_space_group_name_H-M   P4mm
_cell_length_a   5.79956000
_cell_length_b   5.79956000
_cell_length_c   24.34970000
_cell_angle_alpha   90.00000000
_cell_angle_beta   90.00000000
_cell_angle_gamma   90.00000000
_symmetry_Int_Tables_number   99
_chemical_formula_structural   V8Fe8C
_chemical_formula_sum   'V8 Fe8 C1'
_cell_volume   818.99963185
_cell_formula_units_Z   1
loop_
 _symmetry_equiv_pos_site_id
 _symmetry_equiv_pos_as_xyz
  1  'x, y, z'
  2  '-y, x, z'
  3  '-x, -y, z'
  4  'y, -x, z'
  5  '-x, y, z'
  6  'y, x, z'
  7  'x, -y, z'
  8  '-y, -x, z'
loop_
 _atom_site_type_symbol
 _atom_site_label
 _atom_site_symmetry_multiplicity
 _atom_site_fract_x
 _atom_site_fract_y
 _atom_site_fract_z
 _atom_site_occupancy
  V  V0  4  0.24252000  0.24252000  0.09214000  1.0
  V  V1  4  0.25000000  0.25000000  0.97159000  1.0
  Fe  Fe2  2  0.00000000  0.50000000  0.03358000  1.0
  Fe  Fe3  2  0.00000000  0.50000000  0.91205000  1.0
  Fe  Fe4  1  0.00000000  0.00000000  0.03203000  1.0
  Fe  Fe5  1  0.00000000  0.00000000  0.91205000  1.0
  Fe  Fe6  1  0.50000000  0.50000000  0.03268000  1.0
  Fe  Fe7  1  0.50000000  0.50000000  0.91205000  1.0
  C  C8  1  0.00000000  0.00000000  0.11541000  1.0
