# generated using pymatgen
data_Li4Al4Cu4Ge4C
_symmetry_space_group_name_H-M   'P 1'
_cell_length_a   7.78580000
_cell_length_b   5.44163000
_cell_length_c   24.08040000
_cell_angle_alpha   90.00000000
_cell_angle_beta   90.00000000
_cell_angle_gamma   90.00000000
_symmetry_Int_Tables_number   1
_chemical_formula_structural   Li4Al4Cu4Ge4C
_chemical_formula_sum   'Li4 Al4 Cu4 Ge4 C1'
_cell_volume   1020.22497090
_cell_formula_units_Z   1
loop_
 _symmetry_equiv_pos_site_id
 _symmetry_equiv_pos_as_xyz
  1  'x, y, z'
loop_
 _atom_site_type_symbol
 _atom_site_label
 _atom_site_symmetry_multiplicity
 _atom_site_fract_x
 _atom_site_fract_y
 _atom_site_fract_z
 _atom_site_occupancy
  Li  Li0  1  0.00000000  0.74931000  0.98393000  1.0
  Li  Li1  1  0.00000000  0.23462000  0.08472000  1.0
  Li  Li2  1  0.50000000  0.73684000  0.95330000  1.0
  Li  Li3  1  0.50000000  0.23462000  0.08472000  1.0
  Al  Al4  1  0.80996000  0.01078000  0.91220000  1.0
  Al  Al5  1  0.75000000  0.48975000  0.02824000  1.0
  Al  Al6  1  0.19004000  0.01078000  0.91220000  1.0
  Al  Al7  1  0.25000000  0.48975000  0.02824000  1.0
  Cu  Cu8  1  0.00000000  0.25812000  0.98182000  1.0
  Cu  Cu9  1  0.00000000  0.73462000  0.08472000  1.0
  Cu  Cu10  1  0.50000000  0.22129000  0.97255000  1.0
  Cu  Cu11  1  0.50000000  0.73462000  0.08472000  1.0
  Ge  Ge12  1  0.80332000  0.50039000  0.91178000  1.0
  Ge  Ge13  1  0.75000000  0.98975000  0.02824000  1.0
  Ge  Ge14  1  0.19668000  0.50039000  0.91178000  1.0
  Ge  Ge15  1  0.25000000  0.98975000  0.02824000  1.0
  C  C16  1  0.00000000  0.76312000  0.89566000  1.0
