# generated using pymatgen
data_Li4Al4Fe4Pd4C
_symmetry_space_group_name_H-M   'P 1'
_cell_length_a   5.25393000
_cell_length_b   8.60712000
_cell_length_c   23.58290000
_cell_angle_alpha   90.00000000
_cell_angle_beta   90.00000000
_cell_angle_gamma   90.00000000
_symmetry_Int_Tables_number   1
_chemical_formula_structural   Li4Al4Fe4Pd4C
_chemical_formula_sum   'Li4 Al4 Fe4 Pd4 C1'
_cell_volume   1066.44717854
_cell_formula_units_Z   1
loop_
 _symmetry_equiv_pos_site_id
 _symmetry_equiv_pos_as_xyz
  1  'x, y, z'
loop_
 _atom_site_type_symbol
 _atom_site_label
 _atom_site_symmetry_multiplicity
 _atom_site_fract_x
 _atom_site_fract_y
 _atom_site_fract_z
 _atom_site_occupancy
  Li  Li0  1  0.64594000  0.25000000  0.97468000  1.0
  Li  Li1  1  0.95377000  0.24759000  0.08293000  1.0
  Li  Li2  1  0.64594000  0.75000000  0.97468000  1.0
  Li  Li3  1  0.95381000  0.75242000  0.08294000  1.0
  Al  Al4  1  0.00000000  0.00000000  0.92404000  1.0
  Al  Al5  1  0.26232000  0.00002000  0.01366000  1.0
  Al  Al6  1  0.00000000  0.50000000  0.92404000  1.0
  Al  Al7  1  0.30896000  0.49997000  0.02652000  1.0
  Fe  Fe8  1  0.14594000  0.25000000  0.97468000  1.0
  Fe  Fe9  1  0.44330000  0.20290000  0.06380000  1.0
  Fe  Fe10  1  0.14594000  0.75000000  0.97468000  1.0
  Fe  Fe11  1  0.44322000  0.79703000  0.06377000  1.0
  Pd  Pd12  1  0.50000000  0.00000000  0.92404000  1.0
  Pd  Pd13  1  0.80241000  0.99998000  0.02483000  1.0
  Pd  Pd14  1  0.50000000  0.50000000  0.92404000  1.0
  Pd  Pd15  1  0.80667000  0.50003000  0.02649000  1.0
  C  C16  1  0.47457000  0.99995000  0.08400000  1.0
