# generated using pymatgen
data_Li4Y4In4Sn4CO
_symmetry_space_group_name_H-M   P1
_cell_length_a   6.44949000
_cell_length_b   9.04200000
_cell_length_c   24.82990000
_cell_angle_alpha   90.00000000
_cell_angle_beta   90.00000000
_cell_angle_gamma   90.00000000
_symmetry_Int_Tables_number   1
_chemical_formula_structural   Li4Y4In4Sn4CO
_chemical_formula_sum   'Li4 Y4 In4 Sn4 C1 O1'
_cell_volume   1447.98761381
_cell_formula_units_Z   1
loop_
 _symmetry_equiv_pos_site_id
 _symmetry_equiv_pos_as_xyz
  1  'x, y, z'
loop_
 _atom_site_type_symbol
 _atom_site_label
 _atom_site_symmetry_multiplicity
 _atom_site_fract_x
 _atom_site_fract_y
 _atom_site_fract_z
 _atom_site_occupancy
  Li  Li0  1  0.23636000  0.25000000  0.96758000  1.0
  Li  Li1  1  0.23636000  0.75000000  0.96758000  1.0
  Li  Li2  1  0.64720000  0.25248000  0.09175000  1.0
  Li  Li3  1  0.67485000  0.74726000  0.10863000  1.0
  Y  Y4  1  0.50000000  0.00000000  0.90274000  1.0
  Y  Y5  1  0.50000000  0.50000000  0.90274000  1.0
  Y  Y6  1  0.93510000  0.50387000  0.03740000  1.0
  Y  Y7  1  0.93927000  0.99404000  0.03688000  1.0
  In  In8  1  0.00000000  0.00000000  0.90274000  1.0
  In  In9  1  0.00000000  0.50000000  0.90274000  1.0
  In  In10  1  0.44395000  0.50359000  0.04418000  1.0
  In  In11  1  0.45235000  0.00010000  0.04658000  1.0
  Sn  Sn12  1  0.15086000  0.24983000  0.08851000  1.0
  Sn  Sn13  1  0.18829000  0.75078000  0.09601000  1.0
  Sn  Sn14  1  0.73636000  0.25000000  0.96758000  1.0
  Sn  Sn15  1  0.73636000  0.75000000  0.96758000  1.0
  C  C16  1  0.46322000  0.25057000  0.15907000  1.0
  O  O17  1  0.43242000  0.24459000  0.20501000  1.0
