# generated using pymatgen
data_Hf4Rh12C
_symmetry_space_group_name_H-M   Pm
_cell_length_a   5.58411000
_cell_length_b   7.89713000
_cell_length_c   24.18810000
_cell_angle_alpha   90.00000000
_cell_angle_beta   90.00000000
_cell_angle_gamma   90.00000000
_symmetry_Int_Tables_number   6
_chemical_formula_structural   Hf4Rh12C
_chemical_formula_sum   'Hf4 Rh12 C1'
_cell_volume   1066.65753956
_cell_formula_units_Z   1
loop_
 _symmetry_equiv_pos_site_id
 _symmetry_equiv_pos_as_xyz
  1  'x, y, z'
  2  'x, -y, z'
loop_
 _atom_site_type_symbol
 _atom_site_label
 _atom_site_symmetry_multiplicity
 _atom_site_fract_x
 _atom_site_fract_y
 _atom_site_fract_z
 _atom_site_occupancy
  Hf  Hf0  2  0.50000000  0.25000000  0.02886000  1.0
  Hf  Hf1  2  0.99984000  0.23648000  0.92374000  1.0
  Rh  Rh2  2  0.00000000  0.25000000  0.02886000  1.0
  Rh  Rh3  2  0.50000000  0.25294000  0.91364000  1.0
  Rh  Rh4  1  0.24513000  0.50000000  0.96952000  1.0
  Rh  Rh5  1  0.25000000  0.00000000  0.08657000  1.0
  Rh  Rh6  1  0.25000000  0.50000000  0.08657000  1.0
  Rh  Rh7  1  0.25297000  0.00000000  0.96944000  1.0
  Rh  Rh8  1  0.74651000  0.00000000  0.96940000  1.0
  Rh  Rh9  1  0.75000000  0.00000000  0.08657000  1.0
  Rh  Rh10  1  0.75000000  0.50000000  0.08657000  1.0
  Rh  Rh11  1  0.75453000  0.50000000  0.96946000  1.0
  C  C12  1  0.49966000  0.50000000  0.91077000  1.0
