# generated using pymatgen
data_Li8Y8Sn8Pd8C
_symmetry_space_group_name_H-M   'P 1'
_cell_length_a   9.58434000
_cell_length_b   6.77715000
_cell_length_c   27.18830000
_cell_angle_alpha   90.00000000
_cell_angle_beta   90.00000000
_cell_angle_gamma   90.00000000
_symmetry_Int_Tables_number   1
_chemical_formula_structural   Li8Y8Sn8Pd8C
_chemical_formula_sum   'Li8 Y8 Sn8 Pd8 C1'
_cell_volume   1766.00269964
_cell_formula_units_Z   1
loop_
 _symmetry_equiv_pos_site_id
 _symmetry_equiv_pos_as_xyz
  1  'x, y, z'
loop_
 _atom_site_type_symbol
 _atom_site_label
 _atom_site_symmetry_multiplicity
 _atom_site_fract_x
 _atom_site_fract_y
 _atom_site_fract_z
 _atom_site_occupancy
  Li  Li0  1  0.75000000  0.00000000  0.13219000  1.0
  Li  Li1  1  0.25000000  0.00000000  0.13219000  1.0
  Li  Li2  1  0.50000000  0.50000000  0.04406000  1.0
  Li  Li3  1  0.00000000  0.50000000  0.04406000  1.0
  Li  Li4  1  0.25521000  0.00817000  0.95164000  1.0
  Li  Li5  1  0.74479000  0.00817000  0.95164000  1.0
  Li  Li6  1  0.00000000  0.59012000  0.83518000  1.0
  Li  Li7  1  0.50000000  0.69839000  0.81681000  1.0
  Y  Y8  1  0.75000000  0.25000000  0.04406000  1.0
  Y  Y9  1  0.25000000  0.25000000  0.04406000  1.0
  Y  Y10  1  0.00000000  0.75000000  0.13219000  1.0
  Y  Y11  1  0.50000000  0.75000000  0.13219000  1.0
  Y  Y12  1  0.24070000  0.28794000  0.86505000  1.0
  Y  Y13  1  0.75930000  0.28794000  0.86505000  1.0
  Y  Y14  1  0.50000000  0.73905000  0.95128000  1.0
  Y  Y15  1  0.00000000  0.73957000  0.95055000  1.0
  Sn  Sn16  1  0.75000000  0.75000000  0.04406000  1.0
  Sn  Sn17  1  0.25000000  0.75000000  0.04406000  1.0
  Sn  Sn18  1  0.00000000  0.25000000  0.13219000  1.0
  Sn  Sn19  1  0.50000000  0.25000000  0.13219000  1.0
  Sn  Sn20  1  0.25123000  0.76858000  0.86547000  1.0
  Sn  Sn21  1  0.74877000  0.76858000  0.86547000  1.0
  Sn  Sn22  1  0.50000000  0.25551000  0.95783000  1.0
  Sn  Sn23  1  0.00000000  0.25823000  0.95407000  1.0
  Pd  Pd24  1  0.00000000  1.00000000  0.04406000  1.0
  Pd  Pd25  1  0.50000000  0.00000000  0.04406000  1.0
  Pd  Pd26  1  0.25000000  0.50000000  0.13219000  1.0
  Pd  Pd27  1  0.75000000  0.50000000  0.13219000  1.0
  Pd  Pd28  1  0.50000000  0.01191000  0.87653000  1.0
  Pd  Pd29  1  0.00000000  0.98461000  0.86900000  1.0
  Pd  Pd30  1  0.74859000  0.49761000  0.95902000  1.0
  Pd  Pd31  1  0.25141000  0.49761000  0.95902000  1.0
  C  C32  1  0.00000000  0.30461000  0.86660000  1.0
