# generated using pymatgen
data_Li8Y8Sn8Pd8C
_symmetry_space_group_name_H-M   Pm
_cell_length_a   6.77715000
_cell_length_b   9.58434000
_cell_length_c   27.18830000
_cell_angle_alpha   90.00000000
_cell_angle_beta   90.00000000
_cell_angle_gamma   90.00000000
_symmetry_Int_Tables_number   6
_chemical_formula_structural   Li8Y8Sn8Pd8C
_chemical_formula_sum   'Li8 Y8 Sn8 Pd8 C1'
_cell_volume   1766.00269964
_cell_formula_units_Z   1
loop_
 _symmetry_equiv_pos_site_id
 _symmetry_equiv_pos_as_xyz
  1  'x, y, z'
  2  'x, -y, z'
loop_
 _atom_site_type_symbol
 _atom_site_label
 _atom_site_symmetry_multiplicity
 _atom_site_fract_x
 _atom_site_fract_y
 _atom_site_fract_z
 _atom_site_occupancy
  Li  Li0  2  0.00000000  0.25000000  0.86781000  1.0
  Li  Li1  2  0.00817000  0.25521000  0.04836000  1.0
  Li  Li2  1  0.50000000  0.00000000  0.95594000  1.0
  Li  Li3  1  0.50000000  0.50000000  0.95594000  1.0
  Li  Li4  1  0.59012000  0.00000000  0.16482000  1.0
  Li  Li5  1  0.69839000  0.50000000  0.18319000  1.0
  Y  Y6  2  0.25000000  0.25000000  0.95594000  1.0
  Y  Y7  2  0.28794000  0.24070000  0.13495000  1.0
  Y  Y8  1  0.73905000  0.50000000  0.04872000  1.0
  Y  Y9  1  0.73957000  0.00000000  0.04945000  1.0
  Y  Y10  1  0.75000000  0.00000000  0.86781000  1.0
  Y  Y11  1  0.75000000  0.50000000  0.86781000  1.0
  Sn  Sn12  2  0.75000000  0.25000000  0.95594000  1.0
  Sn  Sn13  2  0.76858000  0.25123000  0.13453000  1.0
  Sn  Sn14  1  0.25000000  0.00000000  0.86781000  1.0
  Sn  Sn15  1  0.25000000  0.50000000  0.86781000  1.0
  Sn  Sn16  1  0.25551000  0.50000000  0.04217000  1.0
  Sn  Sn17  1  0.25823000  0.00000000  0.04593000  1.0
  Pd  Pd18  2  0.49761000  0.25141000  0.04098000  1.0
  Pd  Pd19  2  0.50000000  0.25000000  0.86781000  1.0
  Pd  Pd20  1  -0.00000000  0.00000000  0.95594000  1.0
  Pd  Pd21  1  0.00000000  0.50000000  0.95594000  1.0
  Pd  Pd22  1  0.01191000  0.50000000  0.12347000  1.0
  Pd  Pd23  1  0.98461000  0.00000000  0.13100000  1.0
  C  C24  1  0.30461000  0.00000000  0.13340000  1.0
