# generated using pymatgen
data_Zr4Ir12CO
_symmetry_space_group_name_H-M   'P 1'
_cell_length_a   7.98758000
_cell_length_b   5.64807000
_cell_length_c   24.23610000
_cell_angle_alpha   90.00000000
_cell_angle_beta   90.00000000
_cell_angle_gamma   90.00000000
_symmetry_Int_Tables_number   1
_chemical_formula_structural   Zr4Ir12CO
_chemical_formula_sum   'Zr4 Ir12 C1 O1'
_cell_volume   1093.39737572
_cell_formula_units_Z   1
loop_
 _symmetry_equiv_pos_site_id
 _symmetry_equiv_pos_as_xyz
  1  'x, y, z'
loop_
 _atom_site_type_symbol
 _atom_site_label
 _atom_site_symmetry_multiplicity
 _atom_site_fract_x
 _atom_site_fract_y
 _atom_site_fract_z
 _atom_site_occupancy
  Zr  Zr0  1  0.75001000  0.00000000  0.91261000  1.0
  Zr  Zr1  1  0.74944000  0.50286000  0.02947000  1.0
  Zr  Zr2  1  0.24999000  0.00000000  0.91261000  1.0
  Zr  Zr3  1  0.25056000  0.50286000  0.02947000  1.0
  Ir  Ir4  1  0.75001000  0.50000000  0.91261000  1.0
  Ir  Ir5  1  0.50000000  0.25000000  0.97087000  1.0
  Ir  Ir6  1  0.50000000  0.75000000  0.97087000  1.0
  Ir  Ir7  1  0.75060000  0.00379000  0.02554000  1.0
  Ir  Ir8  1  0.50000000  0.75771000  0.08483000  1.0
  Ir  Ir9  1  0.50000000  0.24885000  0.08132000  1.0
  Ir  Ir10  1  0.24999000  0.50000000  0.91261000  1.0
  Ir  Ir11  1  0.00000000  0.25000000  0.97087000  1.0
  Ir  Ir12  1  0.00000000  0.75000000  0.97087000  1.0
  Ir  Ir13  1  0.24940000  0.00379000  0.02554000  1.0
  Ir  Ir14  1  0.00000000  0.75788000  0.08128000  1.0
  Ir  Ir15  1  0.00000000  0.25419000  0.08133000  1.0
  C  C16  1  0.50000000  0.73597000  0.16192000  1.0
  O  O17  1  0.50000000  0.72126000  0.20969000  1.0
