# generated using pymatgen
data_Zr4Ir12CO
_symmetry_space_group_name_H-M   Pm
_cell_length_a   5.64807000
_cell_length_b   7.98758000
_cell_length_c   24.23610000
_cell_angle_alpha   90.00000000
_cell_angle_beta   90.00000000
_cell_angle_gamma   90.00000000
_symmetry_Int_Tables_number   6
_chemical_formula_structural   Zr4Ir12CO
_chemical_formula_sum   'Zr4 Ir12 C1 O1'
_cell_volume   1093.39737572
_cell_formula_units_Z   1
loop_
 _symmetry_equiv_pos_site_id
 _symmetry_equiv_pos_as_xyz
  1  'x, y, z'
  2  'x, -y, z'
loop_
 _atom_site_type_symbol
 _atom_site_label
 _atom_site_symmetry_multiplicity
 _atom_site_fract_x
 _atom_site_fract_y
 _atom_site_fract_z
 _atom_site_occupancy
  Zr  Zr0  2  0.00000000  0.24999000  0.08739000  1.0
  Zr  Zr1  2  0.50286000  0.25056000  0.97053000  1.0
  Ir  Ir2  2  0.00379000  0.24940000  0.97446000  1.0
  Ir  Ir3  2  0.50000000  0.24999000  0.08739000  1.0
  Ir  Ir4  1  0.24885000  0.50000000  0.91868000  1.0
  Ir  Ir5  1  0.25000000  0.00000000  0.02913000  1.0
  Ir  Ir6  1  0.25000000  0.50000000  0.02913000  1.0
  Ir  Ir7  1  0.25419000  0.00000000  0.91867000  1.0
  Ir  Ir8  1  0.75000000  0.00000000  0.02913000  1.0
  Ir  Ir9  1  0.75000000  0.50000000  0.02913000  1.0
  Ir  Ir10  1  0.75771000  0.50000000  0.91517000  1.0
  Ir  Ir11  1  0.75788000  0.00000000  0.91872000  1.0
  C  C12  1  0.73597000  0.50000000  0.83808000  1.0
  O  O13  1  0.72126000  0.50000000  0.79031000  1.0
