# generated using pymatgen
data_Y8Ga8Cu8Pd8CO
_symmetry_space_group_name_H-M   'P 1'
_cell_length_a   9.32626000
_cell_length_b   6.59466000
_cell_length_c   26.99470000
_cell_angle_alpha   90.00000000
_cell_angle_beta   90.00000000
_cell_angle_gamma   90.00000000
_symmetry_Int_Tables_number   1
_chemical_formula_structural   Y8Ga8Cu8Pd8CO
_chemical_formula_sum   'Y8 Ga8 Cu8 Pd8 C1 O1'
_cell_volume   1660.26890321
_cell_formula_units_Z   1
loop_
 _symmetry_equiv_pos_site_id
 _symmetry_equiv_pos_as_xyz
  1  'x, y, z'
loop_
 _atom_site_type_symbol
 _atom_site_label
 _atom_site_symmetry_multiplicity
 _atom_site_fract_x
 _atom_site_fract_y
 _atom_site_fract_z
 _atom_site_occupancy
  Y  Y0  1  0.00000000  0.75000000  0.04319000  1.0
  Y  Y1  1  0.50000000  0.75000000  0.04319000  1.0
  Y  Y2  1  0.25000000  0.25000000  0.12956000  1.0
  Y  Y3  1  0.75000000  0.25000000  0.12956000  1.0
  Y  Y4  1  0.50000000  0.63005000  0.86471000  1.0
  Y  Y5  1  0.00000000  0.62480000  0.86431000  1.0
  Y  Y6  1  0.75027000  0.22722000  0.95085000  1.0
  Y  Y7  1  0.24973000  0.22722000  0.95085000  1.0
  Ga  Ga8  1  0.00000000  0.25000000  0.04319000  1.0
  Ga  Ga9  1  0.50000000  0.25000000  0.04319000  1.0
  Ga  Ga10  1  0.25000000  0.75000000  0.12956000  1.0
  Ga  Ga11  1  0.75000000  0.75000000  0.12956000  1.0
  Ga  Ga12  1  0.50000000  0.15923000  0.86796000  1.0
  Ga  Ga13  1  0.00000000  0.15165000  0.86534000  1.0
  Ga  Ga14  1  0.75067000  0.72890000  0.96047000  1.0
  Ga  Ga15  1  0.24933000  0.72890000  0.96047000  1.0
  Cu  Cu16  1  0.00000000  0.00000000  0.12956000  1.0
  Cu  Cu17  1  0.50000000  0.00000000  0.12956000  1.0
  Cu  Cu18  1  0.75000000  0.50000000  0.04319000  1.0
  Cu  Cu19  1  0.25000000  0.50000000  0.04319000  1.0
  Cu  Cu20  1  0.50000000  0.92344000  0.94258000  1.0
  Cu  Cu21  1  0.00000000  0.91959000  0.94161000  1.0
  Cu  Cu22  1  0.25004000  0.31893000  0.84643000  1.0
  Cu  Cu23  1  0.74996000  0.31893000  0.84643000  1.0
  Pd  Pd24  1  0.25000000  0.00000000  0.04319000  1.0
  Pd  Pd25  1  0.75000000  0.00000000  0.04319000  1.0
  Pd  Pd26  1  0.50000000  0.50000000  0.12956000  1.0
  Pd  Pd27  1  0.00000000  0.50000000  0.12956000  1.0
  Pd  Pd28  1  0.74872000  0.92257000  0.87567000  1.0
  Pd  Pd29  1  0.25128000  0.92257000  0.87567000  1.0
  Pd  Pd30  1  0.00000000  0.48391000  0.96299000  1.0
  Pd  Pd31  1  0.50000000  0.48646000  0.96117000  1.0
  C  C32  1  0.00000000  0.66387000  0.77105000  1.0
  O  O33  1  0.00000000  0.68711000  0.72898000  1.0
