# generated using pymatgen
data_Y8Ga8Cu8Pd8CO
_symmetry_space_group_name_H-M   Pm
_cell_length_a   6.59466000
_cell_length_b   9.32626000
_cell_length_c   26.99470000
_cell_angle_alpha   90.00000000
_cell_angle_beta   90.00000000
_cell_angle_gamma   90.00000000
_symmetry_Int_Tables_number   6
_chemical_formula_structural   Y8Ga8Cu8Pd8CO
_chemical_formula_sum   'Y8 Ga8 Cu8 Pd8 C1 O1'
_cell_volume   1660.26890321
_cell_formula_units_Z   1
loop_
 _symmetry_equiv_pos_site_id
 _symmetry_equiv_pos_as_xyz
  1  'x, y, z'
  2  'x, -y, z'
loop_
 _atom_site_type_symbol
 _atom_site_label
 _atom_site_symmetry_multiplicity
 _atom_site_fract_x
 _atom_site_fract_y
 _atom_site_fract_z
 _atom_site_occupancy
  Y  Y0  2  0.22722000  0.24973000  0.04915000  1.0
  Y  Y1  2  0.25000000  0.25000000  0.87044000  1.0
  Y  Y2  1  0.62480000  0.00000000  0.13569000  1.0
  Y  Y3  1  0.63005000  0.50000000  0.13529000  1.0
  Y  Y4  1  0.75000000  0.00000000  0.95681000  1.0
  Y  Y5  1  0.75000000  0.50000000  0.95681000  1.0
  Ga  Ga6  2  0.72890000  0.24933000  0.03953000  1.0
  Ga  Ga7  2  0.75000000  0.25000000  0.87044000  1.0
  Ga  Ga8  1  0.15165000  0.00000000  0.13466000  1.0
  Ga  Ga9  1  0.15923000  0.50000000  0.13204000  1.0
  Ga  Ga10  1  0.25000000  0.00000000  0.95681000  1.0
  Ga  Ga11  1  0.25000000  0.50000000  0.95681000  1.0
  Cu  Cu12  2  0.31893000  0.25004000  0.15357000  1.0
  Cu  Cu13  2  0.50000000  0.25000000  0.95681000  1.0
  Cu  Cu14  1  0.00000000  0.00000000  0.87044000  1.0
  Cu  Cu15  1  0.00000000  0.50000000  0.87044000  1.0
  Cu  Cu16  1  0.91959000  0.00000000  0.05839000  1.0
  Cu  Cu17  1  0.92344000  0.50000000  0.05742000  1.0
  Pd  Pd18  2  0.00000000  0.25000000  0.95681000  1.0
  Pd  Pd19  2  0.92257000  0.25128000  0.12433000  1.0
  Pd  Pd20  1  0.48391000  0.00000000  0.03701000  1.0
  Pd  Pd21  1  0.48646000  0.50000000  0.03883000  1.0
  Pd  Pd22  1  0.50000000  0.00000000  0.87044000  1.0
  Pd  Pd23  1  0.50000000  0.50000000  0.87044000  1.0
  C  C24  1  0.66387000  0.00000000  0.22895000  1.0
  O  O25  1  0.68711000  0.00000000  0.27102000  1.0
