# generated using pymatgen
data_Si4Ni12C
_symmetry_space_group_name_H-M   Pm
_cell_length_a   5.00776000
_cell_length_b   7.08204000
_cell_length_c   23.75580000
_cell_angle_alpha   90.00000000
_cell_angle_beta   90.00000000
_cell_angle_gamma   90.00000000
_symmetry_Int_Tables_number   6
_chemical_formula_structural   Si4Ni12C
_chemical_formula_sum   'Si4 Ni12 C1'
_cell_volume   842.50316788
_cell_formula_units_Z   1
loop_
 _symmetry_equiv_pos_site_id
 _symmetry_equiv_pos_as_xyz
  1  'x, y, z'
  2  '-x, -y, z'
  3  '-x, y, z'
  4  'x, -y, z'
loop_
 _atom_site_type_symbol
 _atom_site_label
 _atom_site_symmetry_multiplicity
 _atom_site_fract_x
 _atom_site_fract_y
 _atom_site_fract_z
 _atom_site_occupancy
  Si  Si0  1  0.00000000  0.00000000  0.07905000  1.0
  Si  Si1  1  0.00000000  0.50000000  0.07905000  1.0
  Si  Si2  1  0.49999000  0.00000000  0.95927000  1.0
  Si  Si3  1  0.50000000  0.50000000  0.98479000  1.0
  Ni  Ni4  4  0.25000000  0.25001000  0.02635000  1.0
  Ni  Ni5  4  0.25903000  0.29678000  0.92060000  1.0
  Ni  Ni6  1  0.00003000  0.00000000  0.96664000  1.0
  Ni  Ni7  1  0.00004000  0.50000000  0.98059000  1.0
  Ni  Ni8  1  0.50000000  0.00000000  0.07905000  1.0
  Ni  Ni9  1  0.50000000  0.50000000  0.07905000  1.0
  C  C10  1  0.49999000  0.50000000  0.89939000  1.0
