# generated using pymatgen
data_Li4Mg4Al4Pd4C
_symmetry_space_group_name_H-M   'P 1'
_cell_length_a   6.28130000
_cell_length_b   6.28130000
_cell_length_c   24.71100000
_cell_angle_alpha   90.00000000
_cell_angle_beta   90.00000000
_cell_angle_gamma   90.00000000
_symmetry_Int_Tables_number   1
_chemical_formula_structural   Li4Mg4Al4Pd4C
_chemical_formula_sum   'Li4 Mg4 Al4 Pd4 C1'
_cell_volume   974.96582537
_cell_formula_units_Z   1
loop_
 _symmetry_equiv_pos_site_id
 _symmetry_equiv_pos_as_xyz
  1  'x, y, z'
loop_
 _atom_site_type_symbol
 _atom_site_label
 _atom_site_symmetry_multiplicity
 _atom_site_fract_x
 _atom_site_fract_y
 _atom_site_fract_z
 _atom_site_occupancy
  Li  Li0  1  0.75000000  0.25000000  0.96823000  1
  Li  Li1  1  0.24234500  0.24234500  0.12199000  1
  Li  Li2  1  0.75765500  0.75765500  0.12199000  1
  Li  Li3  1  0.25000000  0.75000000  0.96823000  1
  Mg  Mg4  1  0.50000000  0.00000000  0.90468000  1
  Mg  Mg5  1  0.00000000  0.00000000  0.02687000  1
  Mg  Mg6  1  0.50000000  0.50000000  0.04104000  1
  Mg  Mg7  1  0.00000000  0.50000000  0.90468000  1
  Al  Al8  1  0.00000000  0.00000000  0.90468000  1
  Al  Al9  1  0.50000000  0.00000000  0.03860000  1
  Al  Al10  1  0.00000000  0.50000000  0.03860000  1
  Al  Al11  1  0.50000000  0.50000000  0.90468000  1
  Pd  Pd12  1  0.75000000  0.75000000  0.96823000  1
  Pd  Pd13  1  0.21889000  0.78111000  0.09461000  1
  Pd  Pd14  1  0.78111000  0.21889000  0.09461000  1
  Pd  Pd15  1  0.25000000  0.25000000  0.96823000  1
  C  C16  1  0.00000000  0.00000000  0.11866000  1
