# generated using pymatgen
data_Zr4Al4Pd8CO
_symmetry_space_group_name_H-M   'P 1'
_cell_length_a   6.48931000
_cell_length_b   6.48931000
_cell_length_c   24.86700000
_cell_angle_alpha   90.00000000
_cell_angle_beta   90.00000000
_cell_angle_gamma   90.00000000
_symmetry_Int_Tables_number   1
_chemical_formula_structural   Zr4Al4Pd8CO
_chemical_formula_sum   'Zr4 Al4 Pd8 C1 O1'
_cell_volume   1047.17782471
_cell_formula_units_Z   1
loop_
 _symmetry_equiv_pos_site_id
 _symmetry_equiv_pos_as_xyz
  1  'x, y, z'
loop_
 _atom_site_type_symbol
 _atom_site_label
 _atom_site_symmetry_multiplicity
 _atom_site_fract_x
 _atom_site_fract_y
 _atom_site_fract_z
 _atom_site_occupancy
  Zr  Zr0  1  0.75000000  0.25000000  0.90214000  1
  Zr  Zr1  1  0.25000000  0.75000000  0.90214000  1
  Zr  Zr2  1  0.75000000  0.75000000  0.03262000  1
  Zr  Zr3  1  0.25000000  0.25000000  0.03262000  1
  Al  Al4  1  0.75000000  0.25000000  0.03262000  1
  Al  Al5  1  0.75000000  0.75000000  0.90214000  1
  Al  Al6  1  0.25000000  0.25000000  0.90214000  1
  Al  Al7  1  0.25000000  0.75000000  0.03262000  1
  Pd  Pd8  1  0.50000000  0.50000000  0.96738000  1
  Pd  Pd9  1  0.00000000  0.00000000  0.09786000  1
  Pd  Pd10  1  0.50000000  0.00000000  0.96738000  1
  Pd  Pd11  1  0.00000000  0.50000000  0.09786000  1
  Pd  Pd12  1  0.00000000  0.00000000  0.96738000  1
  Pd  Pd13  1  0.50000000  0.50000000  0.09786000  1
  Pd  Pd14  1  0.00000000  0.50000000  0.96738000  1
  Pd  Pd15  1  0.50000000  0.00000000  0.09786000  1
  C  C16  1  0.50000000  0.50000000  0.17427000  1
  O  O17  1  0.50000000  0.50000000  0.22051000  1
