# generated using pymatgen
data_Cu8Sn8Rh16C
_symmetry_space_group_name_H-M   'P 1'
_cell_length_a   6.25984000
_cell_length_b   8.85274000
_cell_length_c   26.63960000
_cell_angle_alpha   90.00000000
_cell_angle_beta   90.00000000
_cell_angle_gamma   90.00000000
_symmetry_Int_Tables_number   1
_chemical_formula_structural   Cu8Sn8Rh16C
_chemical_formula_sum   'Cu8 Sn8 Rh16 C1'
_cell_volume   1476.27967932
_cell_formula_units_Z   1
loop_
 _symmetry_equiv_pos_site_id
 _symmetry_equiv_pos_as_xyz
  1  'x, y, z'
loop_
 _atom_site_type_symbol
 _atom_site_label
 _atom_site_symmetry_multiplicity
 _atom_site_fract_x
 _atom_site_fract_y
 _atom_site_fract_z
 _atom_site_occupancy
  Cu  Cu0  1  0.00000000  0.00000000  0.87538000  1.0
  Cu  Cu1  1  0.50000000  0.25000000  0.95846000  1.0
  Cu  Cu2  1  0.50000000  0.75000000  0.95846000  1.0
  Cu  Cu3  1  0.00000000  0.50000000  0.87538000  1.0
  Cu  Cu4  1  0.00000000  0.50000000  0.04189000  1.0
  Cu  Cu5  1  0.50000000  0.75723000  0.12677000  1.0
  Cu  Cu6  1  0.50000000  0.24277000  0.12677000  1.0
  Cu  Cu7  1  0.00000000  0.00000000  0.04163000  1.0
  Sn  Sn8  1  0.00000000  0.75000000  0.95846000  1.0
  Sn  Sn9  1  0.50000000  0.00000000  0.87538000  1.0
  Sn  Sn10  1  0.00000000  0.25000000  0.95846000  1.0
  Sn  Sn11  1  0.50000000  0.50000000  0.87538000  1.0
  Sn  Sn12  1  0.00000000  0.27242000  0.12721000  1.0
  Sn  Sn13  1  0.50000000  0.50000000  0.03819000  1.0
  Sn  Sn14  1  0.00000000  0.72758000  0.12721000  1.0
  Sn  Sn15  1  0.50000000  0.00000000  0.03885000  1.0
  Rh  Rh16  1  0.25000000  0.00000000  0.95846000  1.0
  Rh  Rh17  1  0.75000000  0.50000000  0.95846000  1.0
  Rh  Rh18  1  0.75000000  0.00000000  0.95846000  1.0
  Rh  Rh19  1  0.25000000  0.50000000  0.95846000  1.0
  Rh  Rh20  1  0.75000000  0.75000000  0.87538000  1.0
  Rh  Rh21  1  0.25000000  0.25000000  0.87538000  1.0
  Rh  Rh22  1  0.25000000  0.75000000  0.87538000  1.0
  Rh  Rh23  1  0.75000000  0.25000000  0.87538000  1.0
  Rh  Rh24  1  0.27125000  0.50000000  0.12139000  1.0
  Rh  Rh25  1  0.76251000  0.00000000  0.12710000  1.0
  Rh  Rh26  1  0.72875000  0.50000000  0.12139000  1.0
  Rh  Rh27  1  0.23749000  0.00000000  0.12710000  1.0
  Rh  Rh28  1  0.75169000  0.24592000  0.04316000  1.0
  Rh  Rh29  1  0.24831000  0.75408000  0.04316000  1.0
  Rh  Rh30  1  0.24831000  0.24592000  0.04316000  1.0
  Rh  Rh31  1  0.75169000  0.75408000  0.04316000  1.0
  C  C32  1  0.00000000  0.00000000  0.16754000  1.0
