# generated using pymatgen
data_Zr8Ni16Sn8CO
_symmetry_space_group_name_H-M   'P 1'
_cell_length_a   8.97809000
_cell_length_b   6.34847000
_cell_length_c   26.73360000
_cell_angle_alpha   90.00000000
_cell_angle_beta   90.00000000
_cell_angle_gamma   90.00000000
_symmetry_Int_Tables_number   1
_chemical_formula_structural   Zr8Ni16Sn8CO
_chemical_formula_sum   'Zr8 Ni16 Sn8 C1 O1'
_cell_volume   1523.73860883
_cell_formula_units_Z   1
loop_
 _symmetry_equiv_pos_site_id
 _symmetry_equiv_pos_as_xyz
  1  'x, y, z'
loop_
 _atom_site_type_symbol
 _atom_site_label
 _atom_site_symmetry_multiplicity
 _atom_site_fract_x
 _atom_site_fract_y
 _atom_site_fract_z
 _atom_site_occupancy
  Zr  Zr0  1  0.00000000  0.00000000  0.12594000  1.0
  Zr  Zr1  1  0.25000000  0.50000000  0.04198000  1.0
  Zr  Zr2  1  0.75000000  0.50000000  0.04198000  1.0
  Zr  Zr3  1  0.50000000  0.00000000  0.12594000  1.0
  Zr  Zr4  1  0.50000000  0.99755000  0.95812000  1.0
  Zr  Zr5  1  0.75041000  0.49848000  0.87351000  1.0
  Zr  Zr6  1  0.24959000  0.49848000  0.87351000  1.0
  Zr  Zr7  1  0.00000000  0.00299000  0.95839000  1.0
  Ni  Ni8  1  0.00000000  0.25000000  0.04198000  1.0
  Ni  Ni9  1  0.50000000  0.75000000  0.04198000  1.0
  Ni  Ni10  1  0.00000000  0.75000000  0.04198000  1.0
  Ni  Ni11  1  0.50000000  0.25000000  0.04198000  1.0
  Ni  Ni12  1  0.75000000  0.75000000  0.12594000  1.0
  Ni  Ni13  1  0.25000000  0.25000000  0.12594000  1.0
  Ni  Ni14  1  0.75000000  0.25000000  0.12594000  1.0
  Ni  Ni15  1  0.25000000  0.75000000  0.12594000  1.0
  Ni  Ni16  1  0.50000000  0.26663000  0.88036000  1.0
  Ni  Ni17  1  0.00000000  0.76012000  0.88247000  1.0
  Ni  Ni18  1  0.50000000  0.72717000  0.87931000  1.0
  Ni  Ni19  1  0.00000000  0.24610000  0.86705000  1.0
  Ni  Ni20  1  0.24797000  0.74318000  0.95516000  1.0
  Ni  Ni21  1  0.74817000  0.25311000  0.95438000  1.0
  Ni  Ni22  1  0.25183000  0.25311000  0.95438000  1.0
  Ni  Ni23  1  0.75203000  0.74318000  0.95516000  1.0
  Sn  Sn24  1  0.75000000  0.00000000  0.04198000  1.0
  Sn  Sn25  1  0.00000000  0.50000000  0.12594000  1.0
  Sn  Sn26  1  0.25000000  0.00000000  0.04198000  1.0
  Sn  Sn27  1  0.50000000  0.50000000  0.12594000  1.0
  Sn  Sn28  1  0.25651000  0.99474000  0.86920000  1.0
  Sn  Sn29  1  0.50000000  0.50010000  0.96065000  1.0
  Sn  Sn30  1  0.74349000  0.99474000  0.86920000  1.0
  Sn  Sn31  1  0.00000000  0.49315000  0.95768000  1.0
  C  C32  1  0.00000000  0.35199000  0.80621000  1.0
  O  O33  1  0.00000000  0.40788000  0.76461000  1.0
