# generated using pymatgen
data_Mg4Ni12C
_symmetry_space_group_name_H-M   Pm
_cell_length_a   7.35611000
_cell_length_b   5.20155000
_cell_length_c   23.90120000
_cell_angle_alpha   90.00000000
_cell_angle_beta   90.00000000
_cell_angle_gamma   90.00000000
_symmetry_Int_Tables_number   6
_chemical_formula_structural   Mg4Ni12C
_chemical_formula_sum   'Mg4 Ni12 C1'
_cell_volume   914.53577370
_cell_formula_units_Z   1
loop_
 _symmetry_equiv_pos_site_id
 _symmetry_equiv_pos_as_xyz
  1  'x, y, z'
  2  'x, -y, z'
loop_
 _atom_site_type_symbol
 _atom_site_label
 _atom_site_symmetry_multiplicity
 _atom_site_fract_x
 _atom_site_fract_y
 _atom_site_fract_z
 _atom_site_occupancy
  Mg  Mg0  1  0.00000000  0.00000000  0.91839000  1.0
  Mg  Mg1  1  0.50000000  0.00000000  0.91839000  1.0
  Mg  Mg2  1  0.50005000  0.50000000  0.04353000  1.0
  Mg  Mg3  1  0.99992000  0.50000000  0.01566000  1.0
  Ni  Ni4  2  0.17824000  0.25270000  0.08722000  1.0
  Ni  Ni5  2  0.25000000  0.25000000  0.97280000  1.0
  Ni  Ni6  2  0.75000000  0.25000000  0.97280000  1.0
  Ni  Ni7  2  0.82181000  0.25268000  0.08725000  1.0
  Ni  Ni8  1  -0.00000000  0.50000000  0.91839000  1.0
  Ni  Ni9  1  0.50000000  0.50000000  0.91839000  1.0
  Ni  Ni10  1  0.50004000  0.00000000  0.03014000  1.0
  Ni  Ni11  1  0.99997000  0.00000000  0.02076000  1.0
  C  C12  1  0.00005000  0.50000000  0.10673000  1.0
