# generated using pymatgen
data_Mg8In8Ni16CO
_symmetry_space_group_name_H-M   'P 1'
_cell_length_a   8.81761000
_cell_length_b   6.23499000
_cell_length_c   26.61320000
_cell_angle_alpha   90.00000000
_cell_angle_beta   90.00000000
_cell_angle_gamma   90.00000000
_symmetry_Int_Tables_number   1
_chemical_formula_structural   Mg8In8Ni16CO
_chemical_formula_sum   'Mg8 In8 Ni16 C1 O1'
_cell_volume   1463.13279640
_cell_formula_units_Z   1
loop_
 _symmetry_equiv_pos_site_id
 _symmetry_equiv_pos_as_xyz
  1  'x, y, z'
loop_
 _atom_site_type_symbol
 _atom_site_label
 _atom_site_symmetry_multiplicity
 _atom_site_fract_x
 _atom_site_fract_y
 _atom_site_fract_z
 _atom_site_occupancy
  Mg  Mg0  1  0.00000000  0.00000000  0.12425000  1.0
  Mg  Mg1  1  0.25000000  0.50000000  0.04142000  1.0
  Mg  Mg2  1  0.75000000  0.50000000  0.04142000  1.0
  Mg  Mg3  1  0.50000000  0.00000000  0.12425000  1.0
  Mg  Mg4  1  0.49886000  0.00000000  0.96247000  1.0
  Mg  Mg5  1  0.75006000  0.50000000  0.87234000  1.0
  Mg  Mg6  1  0.24993000  0.50000000  0.87125000  1.0
  Mg  Mg7  1  0.00110000  0.00000000  0.96250000  1.0
  In  In8  1  0.75000000  0.00000000  0.04142000  1.0
  In  In9  1  0.00000000  0.50000000  0.12425000  1.0
  In  In10  1  0.25000000  0.00000000  0.04142000  1.0
  In  In11  1  0.50000000  0.50000000  0.12425000  1.0
  In  In12  1  0.25002000  0.00000000  0.86858000  1.0
  In  In13  1  0.50058000  0.50000000  0.95856000  1.0
  In  In14  1  0.74997000  0.00000000  0.86668000  1.0
  In  In15  1  0.99939000  0.50000000  0.95857000  1.0
  Ni  Ni16  1  0.00000000  0.75000000  0.04142000  1.0
  Ni  Ni17  1  0.50000000  0.25000000  0.04142000  1.0
  Ni  Ni18  1  0.00000000  0.25000000  0.04142000  1.0
  Ni  Ni19  1  0.50000000  0.75000000  0.04142000  1.0
  Ni  Ni20  1  0.75000000  0.25000000  0.12425000  1.0
  Ni  Ni21  1  0.25000000  0.75000000  0.12425000  1.0
  Ni  Ni22  1  0.75000000  0.75000000  0.12425000  1.0
  Ni  Ni23  1  0.25000000  0.25000000  0.12425000  1.0
  Ni  Ni24  1  0.50153000  0.77585000  0.88374000  1.0
  Ni  Ni25  1  0.99850000  0.22407000  0.88376000  1.0
  Ni  Ni26  1  0.50153000  0.22415000  0.88374000  1.0
  Ni  Ni27  1  0.99850000  0.77593000  0.88376000  1.0
  Ni  Ni28  1  0.24995000  0.24775000  0.95628000  1.0
  Ni  Ni29  1  0.75001000  0.75628000  0.95672000  1.0
  Ni  Ni30  1  0.24995000  0.75225000  0.95628000  1.0
  Ni  Ni31  1  0.75001000  0.24372000  0.95672000  1.0
  C  C32  1  0.24999000  0.50000000  0.78555000  1.0
  O  O33  1  0.25002000  0.50000000  0.74267000  1.0
