# generated using pymatgen
data_Mg8In8Ni16CO
_symmetry_space_group_name_H-M   Pm
_cell_length_a   8.81761000
_cell_length_b   6.23499000
_cell_length_c   26.61320000
_cell_angle_alpha   90.00000000
_cell_angle_beta   90.00000000
_cell_angle_gamma   90.00000000
_symmetry_Int_Tables_number   6
_chemical_formula_structural   Mg8In8Ni16CO
_chemical_formula_sum   'Mg8 In8 Ni16 C1 O1'
_cell_volume   1463.13279640
_cell_formula_units_Z   1
loop_
 _symmetry_equiv_pos_site_id
 _symmetry_equiv_pos_as_xyz
  1  'x, y, z'
  2  'x, -y, z'
loop_
 _atom_site_type_symbol
 _atom_site_label
 _atom_site_symmetry_multiplicity
 _atom_site_fract_x
 _atom_site_fract_y
 _atom_site_fract_z
 _atom_site_occupancy
  Mg  Mg0  1  0.00000000  0.00000000  0.87575000  1.0
  Mg  Mg1  1  0.00110000  0.00000000  0.03750000  1.0
  Mg  Mg2  1  0.24993000  0.50000000  0.12875000  1.0
  Mg  Mg3  1  0.25000000  0.50000000  0.95858000  1.0
  Mg  Mg4  1  0.49886000  0.00000000  0.03753000  1.0
  Mg  Mg5  1  0.50000000  0.00000000  0.87575000  1.0
  Mg  Mg6  1  0.75000000  0.50000000  0.95858000  1.0
  Mg  Mg7  1  0.75006000  0.50000000  0.12766000  1.0
  In  In8  1  0.00000000  0.50000000  0.87575000  1.0
  In  In9  1  0.25000000  0.00000000  0.95858000  1.0
  In  In10  1  0.25002000  0.00000000  0.13142000  1.0
  In  In11  1  0.50000000  0.50000000  0.87575000  1.0
  In  In12  1  0.50058000  0.50000000  0.04144000  1.0
  In  In13  1  0.74997000  0.00000000  0.13332000  1.0
  In  In14  1  0.75000000  0.00000000  0.95858000  1.0
  In  In15  1  0.99939000  0.50000000  0.04143000  1.0
  Ni  Ni16  2  0.00000000  0.25000000  0.95858000  1.0
  Ni  Ni17  2  0.24995000  0.24775000  0.04372000  1.0
  Ni  Ni18  2  0.25000000  0.25000000  0.87575000  1.0
  Ni  Ni19  2  0.50000000  0.25000000  0.95858000  1.0
  Ni  Ni20  2  0.50153000  0.22415000  0.11626000  1.0
  Ni  Ni21  2  0.75000000  0.25000000  0.87575000  1.0
  Ni  Ni22  2  0.75001000  0.24372000  0.04328000  1.0
  Ni  Ni23  2  0.99850000  0.22407000  0.11624000  1.0
  C  C24  1  0.24999000  0.50000000  0.21445000  1.0
  O  O25  1  0.25002000  0.50000000  0.25733000  1.0
