# generated using pymatgen
data_Li4Mg4Ga4Pd4CO
_symmetry_space_group_name_H-M   P2
_cell_length_a   6.27706000
_cell_length_b   24.70780000
_cell_length_c   6.27706000
_cell_angle_alpha   90.00000000
_cell_angle_beta   90.00000000
_cell_angle_gamma   90.00000000
_symmetry_Int_Tables_number   3
_chemical_formula_structural   Li4Mg4Ga4Pd4CO
_chemical_formula_sum   'Li4 Mg4 Ga4 Pd4 C1 O1'
_cell_volume   973.52394298
_cell_formula_units_Z   1
loop_
 _symmetry_equiv_pos_site_id
 _symmetry_equiv_pos_as_xyz
  1  'x, y, z'
  2  '-x, y, -z'
loop_
 _atom_site_type_symbol
 _atom_site_label
 _atom_site_symmetry_multiplicity
 _atom_site_fract_x
 _atom_site_fract_y
 _atom_site_fract_z
 _atom_site_occupancy
  Li  Li0  2  0.25000000  0.90473000  0.75000000  1.0
  Li  Li1  2  0.25188000  0.03313000  0.24703000  1.0
  Mg  Mg2  1  0.00000000  0.10103000  0.50000000  1.0
  Mg  Mg3  1  0.00000000  0.96824000  0.00000000  1.0
  Mg  Mg4  1  0.50000000  0.10333000  0.00000000  1.0
  Mg  Mg5  1  0.50000000  0.96824000  0.50000000  1.0
  Ga  Ga6  1  0.00000000  0.09260000  0.00000000  1.0
  Ga  Ga7  1  0.00000000  0.96824000  0.50000000  1.0
  Ga  Ga8  1  0.50000000  0.09248000  0.50000000  1.0
  Ga  Ga9  1  0.50000000  0.96824000  0.00000000  1.0
  Pd  Pd10  2  0.25000000  0.90473000  0.25000000  1.0
  Pd  Pd11  2  0.25226000  0.03533000  0.75210000  1.0
  C  C12  1  0.50000000  0.19359000  0.00000000  1.0
  O  O13  1  0.50000000  0.23994000  0.00000000  1.0
