data_image0
_chemical_formula_structural       Y8In8Ge8Pd8C
_chemical_formula_sum              "Y8 In8 Ge8 Pd8 C1"
_cell_length_a       7.93684
_cell_length_b       8.87204
_cell_length_c       27.0877
_cell_angle_alpha    90
_cell_angle_beta     90
_cell_angle_gamma    90

_space_group_name_H-M_alt    "P 1"
_space_group_IT_number       1

loop_
  _space_group_symop_operation_xyz
  'x, y, z'

loop_
  _atom_site_type_symbol
  _atom_site_label
  _atom_site_symmetry_multiplicity
  _atom_site_fract_x
  _atom_site_fract_y
  _atom_site_fract_z
  _atom_site_occupancy
  Y   Y1        1.0  0.25000  0.25000  0.86917  1.0000
  Y   Y2        1.0  0.25121  0.25310  0.04708  1.0000
  Y   Y3        1.0  0.25000  0.75000  0.86917  1.0000
  Y   Y4        1.0  0.25122  0.74691  0.04708  1.0000
  Y   Y5        1.0  0.75000  0.25000  0.86917  1.0000
  Y   Y6        1.0  0.74878  0.25309  0.04708  1.0000
  Y   Y7        1.0  0.75000  0.75000  0.86917  1.0000
  Y   Y8        1.0  0.74879  0.74691  0.04708  1.0000
  In  In1       1.0  0.25000  0.00000  0.95639  1.0000
  In  In2       1.0  0.29374  0.00000  0.14475  1.0000
  In  In3       1.0  0.25000  0.50000  0.95639  1.0000
  In  In4       1.0  0.25775  0.50000  0.14610  1.0000
  In  In5       1.0  0.75000  0.00000  0.95639  1.0000
  In  In6       1.0  0.70618  0.00000  0.14476  1.0000
  In  In7       1.0  0.75000  0.50000  0.95639  1.0000
  In  In8       1.0  0.74223  0.50000  0.14610  1.0000
  Ge  Ge1       1.0  0.00000  0.00000  0.86917  1.0000
  Ge  Ge2       1.0  0.00000  0.00000  0.04745  1.0000
  Ge  Ge3       1.0  0.00000  0.50000  0.86917  1.0000
  Ge  Ge4       1.0  0.99999  0.50000  0.06508  1.0000
  Ge  Ge5       1.0  0.50000  0.00000  0.86917  1.0000
  Ge  Ge6       1.0  0.50000  0.00000  0.03777  1.0000
  Ge  Ge7       1.0  0.50000  0.50000  0.86917  1.0000
  Ge  Ge8       1.0  0.50001  0.50000  0.04828  1.0000
  Pd  Pd1       1.0  0.00000  0.25000  0.95639  1.0000
  Pd  Pd2       1.0  0.00004  0.24527  0.12593  1.0000
  Pd  Pd3       1.0  0.00000  0.75000  0.95639  1.0000
  Pd  Pd4       1.0  0.00004  0.75473  0.12593  1.0000
  Pd  Pd5       1.0  0.50000  0.25000  0.95639  1.0000
  Pd  Pd6       1.0  0.49998  0.26718  0.12891  1.0000
  Pd  Pd7       1.0  0.50000  0.75000  0.95639  1.0000
  Pd  Pd8       1.0  0.49999  0.73282  0.12891  1.0000
  C   C1        1.0  0.99990  0.00000  0.12386  1.0000
