# generated using pymatgen
data_Hf8Al8Pd16CO
_symmetry_space_group_name_H-M   'P 1'
_cell_length_a   9.11212000
_cell_length_b   6.44324000
_cell_length_c   26.83410000
_cell_angle_alpha   90.00000000
_cell_angle_beta   90.00000000
_cell_angle_gamma   90.00000000
_symmetry_Int_Tables_number   1
_chemical_formula_structural   Hf8Al8Pd16CO
_chemical_formula_sum   'Hf8 Al8 Pd16 C1 O1'
_cell_volume   1575.47230339
_cell_formula_units_Z   1
loop_
 _symmetry_equiv_pos_site_id
 _symmetry_equiv_pos_as_xyz
  1  'x, y, z'
loop_
 _atom_site_type_symbol
 _atom_site_label
 _atom_site_symmetry_multiplicity
 _atom_site_fract_x
 _atom_site_fract_y
 _atom_site_fract_z
 _atom_site_occupancy
  Hf  Hf0  1  0.00000000  0.00000000  0.12734000  1.0
  Hf  Hf1  1  0.25000000  0.50000000  0.04245000  1.0
  Hf  Hf2  1  0.75000000  0.50000000  0.04245000  1.0
  Hf  Hf3  1  0.50000000  0.00000000  0.12734000  1.0
  Hf  Hf4  1  0.50000000  0.99552000  0.95799000  1.0
  Hf  Hf5  1  0.75485000  0.48526000  0.87294000  1.0
  Hf  Hf6  1  0.24515000  0.48526000  0.87294000  1.0
  Hf  Hf7  1  0.00000000  0.00395000  0.95505000  1.0
  Al  Al8  1  0.75000000  0.00000000  0.04245000  1.0
  Al  Al9  1  0.00000000  0.50000000  0.12734000  1.0
  Al  Al10  1  0.25000000  0.00000000  0.04245000  1.0
  Al  Al11  1  0.50000000  0.50000000  0.12734000  1.0
  Al  Al12  1  0.25394000  0.99158000  0.87640000  1.0
  Al  Al13  1  0.50000000  0.49589000  0.95644000  1.0
  Al  Al14  1  0.74606000  0.99158000  0.87640000  1.0
  Al  Al15  1  0.00000000  0.49395000  0.95493000  1.0
  Pd  Pd16  1  0.00000000  0.25000000  0.04245000  1.0
  Pd  Pd17  1  0.50000000  0.75000000  0.04245000  1.0
  Pd  Pd18  1  0.00000000  0.75000000  0.04245000  1.0
  Pd  Pd19  1  0.50000000  0.25000000  0.04245000  1.0
  Pd  Pd20  1  0.75000000  0.75000000  0.12734000  1.0
  Pd  Pd21  1  0.25000000  0.25000000  0.12734000  1.0
  Pd  Pd22  1  0.75000000  0.25000000  0.12734000  1.0
  Pd  Pd23  1  0.25000000  0.75000000  0.12734000  1.0
  Pd  Pd24  1  0.50000000  0.24233000  0.87665000  1.0
  Pd  Pd25  1  0.00000000  0.74574000  0.87725000  1.0
  Pd  Pd26  1  0.50000000  0.73696000  0.87738000  1.0
  Pd  Pd27  1  0.00000000  0.21934000  0.85877000  1.0
  Pd  Pd28  1  0.24902000  0.73667000  0.95648000  1.0
  Pd  Pd29  1  0.75025000  0.26035000  0.95805000  1.0
  Pd  Pd30  1  0.24975000  0.26035000  0.95805000  1.0
  Pd  Pd31  1  0.75098000  0.73667000  0.95648000  1.0
  C  C32  1  0.00000000  0.29033000  0.78744000  1.0
  O  O33  1  0.00000000  0.30144000  0.74449000  1.0
