# generated using pymatgen
data_Hf8Al8Pd16CO
_symmetry_space_group_name_H-M   Pm
_cell_length_a   6.44324000
_cell_length_b   9.11212000
_cell_length_c   26.83410000
_cell_angle_alpha   90.00000000
_cell_angle_beta   90.00000000
_cell_angle_gamma   90.00000000
_symmetry_Int_Tables_number   6
_chemical_formula_structural   Hf8Al8Pd16CO
_chemical_formula_sum   'Hf8 Al8 Pd16 C1 O1'
_cell_volume   1575.47230339
_cell_formula_units_Z   1
loop_
 _symmetry_equiv_pos_site_id
 _symmetry_equiv_pos_as_xyz
  1  'x, y, z'
  2  'x, -y, z'
loop_
 _atom_site_type_symbol
 _atom_site_label
 _atom_site_symmetry_multiplicity
 _atom_site_fract_x
 _atom_site_fract_y
 _atom_site_fract_z
 _atom_site_occupancy
  Hf  Hf0  2  0.48526000  0.24515000  0.12706000  1.0
  Hf  Hf1  2  0.50000000  0.25000000  0.95755000  1.0
  Hf  Hf2  1  0.00000000  0.00000000  0.87266000  1.0
  Hf  Hf3  1  0.00000000  0.50000000  0.87266000  1.0
  Hf  Hf4  1  0.00395000  0.00000000  0.04495000  1.0
  Hf  Hf5  1  0.99552000  0.50000000  0.04201000  1.0
  Al  Al6  2  0.00000000  0.25000000  0.95755000  1.0
  Al  Al7  2  0.99158000  0.25394000  0.12360000  1.0
  Al  Al8  1  0.49395000  0.00000000  0.04507000  1.0
  Al  Al9  1  0.49589000  0.50000000  0.04356000  1.0
  Al  Al10  1  0.50000000  0.00000000  0.87266000  1.0
  Al  Al11  1  0.50000000  0.50000000  0.87266000  1.0
  Pd  Pd12  2  0.25000000  0.25000000  0.87266000  1.0
  Pd  Pd13  2  0.26035000  0.24975000  0.04195000  1.0
  Pd  Pd14  2  0.73667000  0.24902000  0.04352000  1.0
  Pd  Pd15  2  0.75000000  0.25000000  0.87266000  1.0
  Pd  Pd16  1  0.21934000  0.00000000  0.14123000  1.0
  Pd  Pd17  1  0.24233000  0.50000000  0.12335000  1.0
  Pd  Pd18  1  0.25000000  0.00000000  0.95755000  1.0
  Pd  Pd19  1  0.25000000  0.50000000  0.95755000  1.0
  Pd  Pd20  1  0.73696000  0.50000000  0.12262000  1.0
  Pd  Pd21  1  0.74574000  0.00000000  0.12275000  1.0
  Pd  Pd22  1  0.75000000  0.00000000  0.95755000  1.0
  Pd  Pd23  1  0.75000000  0.50000000  0.95755000  1.0
  C  C24  1  0.29033000  0.00000000  0.21256000  1.0
  O  O25  1  0.30144000  0.00000000  0.25551000  1.0
