data_image0
_chemical_formula_structural       Li8Sc8Ge8Pd8CO
_chemical_formula_sum              "Li8 Sc8 Ge8 Pd8 C1 O1"
_cell_length_a       6.30999
_cell_length_b       8.92368
_cell_length_c       26.6928
_cell_angle_alpha    90
_cell_angle_beta     90
_cell_angle_gamma    90

_space_group_name_H-M_alt    "P 1"
_space_group_IT_number       1

loop_
  _space_group_symop_operation_xyz
  'x, y, z'

loop_
  _atom_site_type_symbol
  _atom_site_label
  _atom_site_symmetry_multiplicity
  _atom_site_fract_x
  _atom_site_fract_y
  _atom_site_fract_z
  _atom_site_occupancy
  Li  Li1       1.0  0.75000  0.00000  0.95821  1.0000
  Li  Li2       1.0  0.75000  0.50000  0.95821  1.0000
  Li  Li3       1.0  0.25000  0.25000  0.87463  1.0000
  Li  Li4       1.0  0.25000  0.75000  0.87463  1.0000
  Li  Li5       1.0  0.57697  0.49999  0.17418  1.0000
  Li  Li6       1.0  0.58625  0.00000  0.17130  1.0000
  Li  Li7       1.0  0.24014  0.74886  0.04429  1.0000
  Li  Li8       1.0  0.24014  0.25114  0.04429  1.0000
  Sc  Sc1       1.0  0.00000  0.25000  0.95821  1.0000
  Sc  Sc2       1.0  0.00000  0.75000  0.95821  1.0000
  Sc  Sc3       1.0  0.50000  0.50000  0.87463  1.0000
  Sc  Sc4       1.0  0.50000  0.00000  0.87463  1.0000
  Sc  Sc5       1.0  0.95274  0.74454  0.12469  1.0000
  Sc  Sc6       1.0  0.95273  0.25544  0.12469  1.0000
  Sc  Sc7       1.0  0.50062  0.99999  0.04755  1.0000
  Sc  Sc8       1.0  0.50472  0.50000  0.04640  1.0000
  Ge  Ge1       1.0  0.00000  0.00000  0.87463  1.0000
  Ge  Ge2       1.0  0.00000  0.50000  0.87463  1.0000
  Ge  Ge3       1.0  0.50000  0.75000  0.95821  1.0000
  Ge  Ge4       1.0  0.50000  0.25000  0.95821  1.0000
  Ge  Ge5       1.0  0.98694  0.50000  0.04133  1.0000
  Ge  Ge6       1.0  0.99586  0.00000  0.04212  1.0000
  Ge  Ge7       1.0  0.49068  0.25258  0.12453  1.0000
  Ge  Ge8       1.0  0.49068  0.74741  0.12453  1.0000
  Pd  Pd1       1.0  0.25000  0.00000  0.95821  1.0000
  Pd  Pd2       1.0  0.25000  0.50000  0.95821  1.0000
  Pd  Pd3       1.0  0.75000  0.25000  0.87463  1.0000
  Pd  Pd4       1.0  0.75000  0.75000  0.87463  1.0000
  Pd  Pd5       1.0  0.21953  0.50000  0.12080  1.0000
  Pd  Pd6       1.0  0.20897  0.00000  0.12940  1.0000
  Pd  Pd7       1.0  0.74840  0.75133  0.03886  1.0000
  Pd  Pd8       1.0  0.74840  0.24866  0.03886  1.0000
  C   C1        1.0  0.14717  0.00001  0.20054  1.0000
  O   O1        1.0  0.15722  0.00002  0.24422  1.0000
