# generated using pymatgen
data_Ga8Fe24CO
_symmetry_space_group_name_H-M   Pmm2
_cell_length_a   7.33747000
_cell_length_b   7.33747000
_cell_length_c   25.50310000
_cell_angle_alpha   90.00000000
_cell_angle_beta   90.00000000
_cell_angle_gamma   90.00000000
_symmetry_Int_Tables_number   25
_chemical_formula_structural   Ga8Fe24CO
_chemical_formula_sum   'Ga8 Fe24 C1 O1'
_cell_volume   1373.04778227
_cell_formula_units_Z   1
loop_
 _symmetry_equiv_pos_site_id
 _symmetry_equiv_pos_as_xyz
  1  'x, y, z'
  2  '-x, -y, z'
  3  '-x, y, z'
  4  'x, -y, z'
loop_
 _atom_site_type_symbol
 _atom_site_label
 _atom_site_symmetry_multiplicity
 _atom_site_fract_x
 _atom_site_fract_y
 _atom_site_fract_z
 _atom_site_occupancy
  Ga  Ga0  2  0.25000000  0.00000000  0.03596000  1.0
  Ga  Ga1  2  0.25000000  0.00000000  0.89211000  1.0
  Ga  Ga2  2  0.25000000  0.50000000  0.03596000  1.0
  Ga  Ga3  2  0.25000000  0.50000000  0.89211000  1.0
  Fe  Fe4  4  0.25000000  0.25000000  0.10789000  1.0
  Fe  Fe5  4  0.25000000  0.25000000  0.96404000  1.0
  Fe  Fe6  2  0.00000000  0.25000000  0.03596000  1.0
  Fe  Fe7  2  0.00000000  0.25000000  0.89211000  1.0
  Fe  Fe8  2  0.50000000  0.25000000  0.03596000  1.0
  Fe  Fe9  2  0.50000000  0.25000000  0.89211000  1.0
  Fe  Fe10  1  0.00000000  0.00000000  0.10789000  1.0
  Fe  Fe11  1  0.00000000  0.00000000  0.96404000  1.0
  Fe  Fe12  1  0.00000000  0.50000000  0.10789000  1.0
  Fe  Fe13  1  0.00000000  0.50000000  0.96404000  1.0
  Fe  Fe14  1  0.50000000  0.00000000  0.10789000  1.0
  Fe  Fe15  1  0.50000000  0.00000000  0.96404000  1.0
  Fe  Fe16  1  0.50000000  0.50000000  0.10789000  1.0
  Fe  Fe17  1  0.50000000  0.50000000  0.96404000  1.0
  C  C18  1  0.00000000  0.00000000  0.18239000  1.0
  O  O19  1  0.00000000  0.00000000  0.22748000  1.0
