# generated using pymatgen
data_Li4Sc4In4Ga4CO
_symmetry_space_group_name_H-M   Pm
_cell_length_a   6.04935000
_cell_length_b   8.37318000
_cell_length_c   24.52450000
_cell_angle_alpha   90.00000000
_cell_angle_beta   90.00000000
_cell_angle_gamma   90.00000000
_symmetry_Int_Tables_number   6
_chemical_formula_structural   Li4Sc4In4Ga4CO
_chemical_formula_sum   'Li4 Sc4 In4 Ga4 C1 O1'
_cell_volume   1242.22224387
_cell_formula_units_Z   1
loop_
 _symmetry_equiv_pos_site_id
 _symmetry_equiv_pos_as_xyz
  1  'x, y, z'
  2  'x, -y, z'
loop_
 _atom_site_type_symbol
 _atom_site_label
 _atom_site_symmetry_multiplicity
 _atom_site_fract_x
 _atom_site_fract_y
 _atom_site_fract_z
 _atom_site_occupancy
  Li  Li0  1  0.19055000  0.50000000  0.08968000  1.0
  Li  Li1  1  0.19584000  0.00000000  0.08885000  1.0
  Li  Li2  1  0.73143000  0.00000000  0.96925000  1.0
  Li  Li3  1  0.73143000  0.50000000  0.96925000  1.0
  Sc  Sc4  1  0.23143000  0.00000000  0.96925000  1.0
  Sc  Sc5  1  0.23143000  0.50000000  0.96925000  1.0
  Sc  Sc6  1  0.67652000  0.00000000  0.08844000  1.0
  Sc  Sc7  1  0.67692000  0.50000000  0.08362000  1.0
  In  In8  2  0.50000000  0.25000000  0.90776000  1.0
  In  In9  2  0.95829000  0.24761000  0.03458000  1.0
  Ga  Ga10  2  0.00000000  0.25000000  0.90776000  1.0
  Ga  Ga11  2  0.44955000  0.24816000  0.03486000  1.0
  C  C12  1  0.20136000  0.00000000  0.17002000  1.0
  O  O13  1  0.19559000  0.00000000  0.21715000  1.0
