# generated using pymatgen
data_Li8Si8Ni16C
_symmetry_space_group_name_H-M   Pm
_cell_length_a   5.56332000
_cell_length_b   7.86772000
_cell_length_c   25.90080000
_cell_angle_alpha   90.00000000
_cell_angle_beta   90.00000000
_cell_angle_gamma   90.00000000
_symmetry_Int_Tables_number   6
_chemical_formula_structural   Li8Si8Ni16C
_chemical_formula_sum   'Li8 Si8 Ni16 C1'
_cell_volume   1133.69469690
_cell_formula_units_Z   1
loop_
 _symmetry_equiv_pos_site_id
 _symmetry_equiv_pos_as_xyz
  1  'x, y, z'
  2  'x, -y, z'
loop_
 _atom_site_type_symbol
 _atom_site_label
 _atom_site_symmetry_multiplicity
 _atom_site_fract_x
 _atom_site_fract_y
 _atom_site_fract_z
 _atom_site_occupancy
  Li  Li0  2  0.00000000  0.25000000  0.88609000  1.0
  Li  Li1  2  0.00300000  0.24975000  0.03652000  1.0
  Li  Li2  1  0.48986000  0.50000000  0.13899000  1.0
  Li  Li3  1  0.50000000  0.00000000  0.96203000  1.0
  Li  Li4  1  0.50000000  0.50000000  0.96203000  1.0
  Li  Li5  1  0.55442000  0.00000000  0.16664000  1.0
  Si  Si6  2  0.50000000  0.25000000  0.88609000  1.0
  Si  Si7  2  0.50010000  0.25139000  0.03714000  1.0
  Si  Si8  1  0.00000000  0.00000000  0.96203000  1.0
  Si  Si9  1  0.00000000  0.50000000  0.96203000  1.0
  Si  Si10  1  0.00461000  0.50000000  0.11150000  1.0
  Si  Si11  1  0.93682000  0.00000000  0.11287000  1.0
  Ni  Ni12  2  0.25000000  0.25000000  0.96203000  1.0
  Ni  Ni13  2  0.25577000  0.23836000  0.11103000  1.0
  Ni  Ni14  2  0.75000000  0.25000000  0.96203000  1.0
  Ni  Ni15  2  0.75385000  0.25880000  0.10868000  1.0
  Ni  Ni16  1  0.25000000  0.00000000  0.88609000  1.0
  Ni  Ni17  1  0.25000000  0.50000000  0.88609000  1.0
  Ni  Ni18  1  0.25556000  0.00000000  0.04031000  1.0
  Ni  Ni19  1  0.25914000  0.50000000  0.04044000  1.0
  Ni  Ni20  1  0.74006000  0.00000000  0.03567000  1.0
  Ni  Ni21  1  0.74603000  0.50000000  0.03829000  1.0
  Ni  Ni22  1  0.75000000  0.00000000  0.88609000  1.0
  Ni  Ni23  1  0.75000000  0.50000000  0.88609000  1.0
  C  C24  1  0.25999000  0.00000000  0.12300000  1.0
