# generated using pymatgen
data_Li8Mg8Al8Pt8C
_symmetry_space_group_name_H-M   'P 1'
_cell_length_a   8.83714000
_cell_length_b   6.24880000
_cell_length_c   26.62790000
_cell_angle_alpha   90.00000000
_cell_angle_beta   90.00000000
_cell_angle_gamma   90.00000000
_symmetry_Int_Tables_number   1
_chemical_formula_structural   Li8Mg8Al8Pt8C
_chemical_formula_sum   'Li8 Mg8 Al8 Pt8 C1'
_cell_volume   1470.43312391
_cell_formula_units_Z   1
loop_
 _symmetry_equiv_pos_site_id
 _symmetry_equiv_pos_as_xyz
  1  'x, y, z'
loop_
 _atom_site_type_symbol
 _atom_site_label
 _atom_site_symmetry_multiplicity
 _atom_site_fract_x
 _atom_site_fract_y
 _atom_site_fract_z
 _atom_site_occupancy
  Li  Li0  1  0.00000000  0.25000000  0.04148000  1.0
  Li  Li1  1  0.50000000  0.25000000  0.04148000  1.0
  Li  Li2  1  0.25000000  0.75000000  0.12445000  1.0
  Li  Li3  1  0.75000000  0.75000000  0.12445000  1.0
  Li  Li4  1  0.50000000  0.31292000  0.86137000  1.0
  Li  Li5  1  0.00000000  0.20662000  0.83943000  1.0
  Li  Li6  1  0.75069000  0.75587000  0.95765000  1.0
  Li  Li7  1  0.24931000  0.75587000  0.95765000  1.0
  Mg  Mg8  1  0.25000000  0.00000000  0.04148000  1.0
  Mg  Mg9  1  0.75000000  0.00000000  0.04148000  1.0
  Mg  Mg10  1  0.50000000  0.50000000  0.12445000  1.0
  Mg  Mg11  1  0.00000000  0.50000000  0.12445000  1.0
  Mg  Mg12  1  0.73015000  0.00282000  0.87149000  1.0
  Mg  Mg13  1  0.26985000  0.00282000  0.87149000  1.0
  Mg  Mg14  1  0.00000000  0.49146000  0.95570000  1.0
  Mg  Mg15  1  0.50000000  0.49606000  0.96041000  1.0
  Al  Al16  1  0.00000000  0.00000000  0.12445000  1.0
  Al  Al17  1  0.50000000  0.00000000  0.12445000  1.0
  Al  Al18  1  0.75000000  0.50000000  0.04148000  1.0
  Al  Al19  1  0.25000000  0.50000000  0.04148000  1.0
  Al  Al20  1  0.50000000  0.99926000  0.95662000  1.0
  Al  Al21  1  0.00000000  0.02033000  0.96086000  1.0
  Al  Al22  1  0.22717000  0.49980000  0.87453000  1.0
  Al  Al23  1  0.77283000  0.49980000  0.87453000  1.0
  Pt  Pt24  1  0.00000000  0.75000000  0.04148000  1.0
  Pt  Pt25  1  0.50000000  0.75000000  0.04148000  1.0
  Pt  Pt26  1  0.25000000  0.25000000  0.12445000  1.0
  Pt  Pt27  1  0.75000000  0.25000000  0.12445000  1.0
  Pt  Pt28  1  0.50000000  0.72934000  0.88141000  1.0
  Pt  Pt29  1  0.00000000  0.81938000  0.88199000  1.0
  Pt  Pt30  1  0.74396000  0.24852000  0.96077000  1.0
  Pt  Pt31  1  0.25604000  0.24852000  0.96077000  1.0
  C  C32  1  0.00000000  0.50434000  0.86551000  1.0
