# generated using pymatgen
data_Li8Mg8Al8Pt8C
_symmetry_space_group_name_H-M   Pm
_cell_length_a   6.24880000
_cell_length_b   8.83714000
_cell_length_c   26.62790000
_cell_angle_alpha   90.00000000
_cell_angle_beta   90.00000000
_cell_angle_gamma   90.00000000
_symmetry_Int_Tables_number   6
_chemical_formula_structural   Li8Mg8Al8Pt8C
_chemical_formula_sum   'Li8 Mg8 Al8 Pt8 C1'
_cell_volume   1470.43312391
_cell_formula_units_Z   1
loop_
 _symmetry_equiv_pos_site_id
 _symmetry_equiv_pos_as_xyz
  1  'x, y, z'
  2  'x, -y, z'
loop_
 _atom_site_type_symbol
 _atom_site_label
 _atom_site_symmetry_multiplicity
 _atom_site_fract_x
 _atom_site_fract_y
 _atom_site_fract_z
 _atom_site_occupancy
  Li  Li0  2  0.75000000  0.25000000  0.87555000  1.0
  Li  Li1  2  0.75587000  0.24931000  0.04235000  1.0
  Li  Li2  1  0.20662000  0.00000000  0.16057000  1.0
  Li  Li3  1  0.25000000  0.00000000  0.95852000  1.0
  Li  Li4  1  0.25000000  0.50000000  0.95852000  1.0
  Li  Li5  1  0.31292000  0.50000000  0.13863000  1.0
  Mg  Mg6  2  0.00000000  0.25000000  0.95852000  1.0
  Mg  Mg7  2  0.00282000  0.26985000  0.12851000  1.0
  Mg  Mg8  1  0.49146000  0.00000000  0.04430000  1.0
  Mg  Mg9  1  0.49606000  0.50000000  0.03959000  1.0
  Mg  Mg10  1  0.50000000  0.00000000  0.87555000  1.0
  Mg  Mg11  1  0.50000000  0.50000000  0.87555000  1.0
  Al  Al12  2  0.49980000  0.22717000  0.12547000  1.0
  Al  Al13  2  0.50000000  0.25000000  0.95852000  1.0
  Al  Al14  1  0.00000000  0.00000000  0.87555000  1.0
  Al  Al15  1  0.00000000  0.50000000  0.87555000  1.0
  Al  Al16  1  0.02033000  0.00000000  0.03914000  1.0
  Al  Al17  1  0.99926000  0.50000000  0.04338000  1.0
  Pt  Pt18  2  0.24852000  0.25604000  0.03923000  1.0
  Pt  Pt19  2  0.25000000  0.25000000  0.87555000  1.0
  Pt  Pt20  1  0.72934000  0.50000000  0.11859000  1.0
  Pt  Pt21  1  0.75000000  0.00000000  0.95852000  1.0
  Pt  Pt22  1  0.75000000  0.50000000  0.95852000  1.0
  Pt  Pt23  1  0.81938000  0.00000000  0.11801000  1.0
  C  C24  1  0.50434000  0.00000000  0.13449000  1.0
