# generated using pymatgen
data_GaCo
_symmetry_space_group_name_H-M   P4mm
_cell_length_a   2.88470500
_cell_length_b   2.88470500
_cell_length_c   24.32710000
_cell_angle_alpha   90.00000000
_cell_angle_beta   90.00000000
_cell_angle_gamma   90.00000000
_symmetry_Int_Tables_number   99
_chemical_formula_structural   GaCo
_chemical_formula_sum   'Ga2 Co2'
_cell_volume   202.43852064
_cell_formula_units_Z   2
loop_
 _symmetry_equiv_pos_site_id
 _symmetry_equiv_pos_as_xyz
  1  'x, y, z'
  2  '-y, x, z'
  3  '-x, -y, z'
  4  'y, -x, z'
  5  '-x, y, z'
  6  'y, x, z'
  7  'x, -y, z'
  8  '-y, -x, z'
loop_
 _atom_site_type_symbol
 _atom_site_label
 _atom_site_symmetry_multiplicity
 _atom_site_fract_x
 _atom_site_fract_y
 _atom_site_fract_z
 _atom_site_occupancy
  Ga  Ga0  1  0.50000000  0.50000000  0.03213000  1.0
  Ga  Ga1  1  0.50000000  0.50000000  0.91355000  1.0
  Co  Co2  1  0.00000000  0.00000000  0.09142000  1.0
  Co  Co3  1  0.00000000  0.00000000  0.97284000  1.0
