# generated using pymatgen
data_Sc8Mn8In8Pd8CO
_symmetry_space_group_name_H-M   'P 1'
_cell_length_a   6.62299000
_cell_length_b   9.36632000
_cell_length_c   27.02470000
_cell_angle_alpha   90.00000000
_cell_angle_beta   90.00000000
_cell_angle_gamma   90.00000000
_symmetry_Int_Tables_number   1
_chemical_formula_structural   Sc8Mn8In8Pd8CO
_chemical_formula_sum   'Sc8 Mn8 In8 Pd8 C1 O1'
_cell_volume   1676.42439599
_cell_formula_units_Z   1
loop_
 _symmetry_equiv_pos_site_id
 _symmetry_equiv_pos_as_xyz
  1  'x, y, z'
loop_
 _atom_site_type_symbol
 _atom_site_label
 _atom_site_symmetry_multiplicity
 _atom_site_fract_x
 _atom_site_fract_y
 _atom_site_fract_z
 _atom_site_occupancy
  Sc  Sc0  1  0.00000000  0.25000000  0.95668000  1.0
  Sc  Sc1  1  0.00000000  0.75000000  0.95668000  1.0
  Sc  Sc2  1  0.50000000  0.50000000  0.87003000  1.0
  Sc  Sc3  1  0.50000000  0.00000000  0.87003000  1.0
  Sc  Sc4  1  0.00725000  0.74995000  0.12781000  1.0
  Sc  Sc5  1  0.99817000  0.25003000  0.12862000  1.0
  Sc  Sc6  1  0.50813000  0.99772000  0.04444000  1.0
  Sc  Sc7  1  0.50813000  0.50226000  0.04443000  1.0
  Mn  Mn8  1  0.75000000  0.00000000  0.95668000  1.0
  Mn  Mn9  1  0.75000000  0.50000000  0.95668000  1.0
  Mn  Mn10  1  0.25000000  0.25000000  0.87003000  1.0
  Mn  Mn11  1  0.25000000  0.75000000  0.87003000  1.0
  Mn  Mn12  1  0.73133000  0.49835000  0.14210000  1.0
  Mn  Mn13  1  0.73145000  0.00166000  0.14210000  1.0
  Mn  Mn14  1  0.24819000  0.75001000  0.04689000  1.0
  Mn  Mn15  1  0.25612000  0.25000000  0.04514000  1.0
  In  In16  1  0.00000000  0.00000000  0.87003000  1.0
  In  In17  1  0.00000000  0.50000000  0.87003000  1.0
  In  In18  1  0.50000000  0.75000000  0.95668000  1.0
  In  In19  1  0.50000000  0.25000000  0.95668000  1.0
  In  In20  1  0.99246000  0.49881000  0.04431000  1.0
  In  In21  1  0.99246000  0.00117000  0.04430000  1.0
  In  In22  1  0.49765000  0.24998000  0.13462000  1.0
  In  In23  1  0.50417000  0.75012000  0.13580000  1.0
  Pd  Pd24  1  0.25000000  0.00000000  0.95668000  1.0
  Pd  Pd25  1  0.25000000  0.50000000  0.95668000  1.0
  Pd  Pd26  1  0.75000000  0.25000000  0.87003000  1.0
  Pd  Pd27  1  0.75000000  0.75000000  0.87003000  1.0
  Pd  Pd28  1  0.26316000  0.50170000  0.12219000  1.0
  Pd  Pd29  1  0.26308000  0.99831000  0.12219000  1.0
  Pd  Pd30  1  0.75305000  0.75000000  0.04191000  1.0
  Pd  Pd31  1  0.74778000  0.25001000  0.04137000  1.0
  C  C32  1  0.93692000  0.24997000  0.21070000  1.0
  O  O33  1  0.91236000  0.24999000  0.25303000  1.0
