# generated using pymatgen
data_In8Ni8CO
_symmetry_space_group_name_H-M   P1
_cell_length_a   6.35210000
_cell_length_b   6.35210000
_cell_length_c   24.76410000
_cell_angle_alpha   90.00000000
_cell_angle_beta   90.00000000
_cell_angle_gamma   90.00000000
_symmetry_Int_Tables_number   1
_chemical_formula_structural   In8Ni8CO
_chemical_formula_sum   'In8 Ni8 C1 O1'
_cell_volume   999.21099001
_cell_formula_units_Z   1
loop_
 _symmetry_equiv_pos_site_id
 _symmetry_equiv_pos_as_xyz
  1  'x, y, z'
loop_
 _atom_site_type_symbol
 _atom_site_label
 _atom_site_symmetry_multiplicity
 _atom_site_fract_x
 _atom_site_fract_y
 _atom_site_fract_z
 _atom_site_occupancy
  In  In0  1  0.25000000  0.25000000  0.97831000  1.0
  In  In1  1  0.25000000  0.75000000  0.97831000  1.0
  In  In2  1  0.25004000  0.24995000  0.10204000  1.0
  In  In3  1  0.25013000  0.74998000  0.11088000  1.0
  In  In4  1  0.74989000  0.74996000  0.11815000  1.0
  In  In5  1  0.74990000  0.25005000  0.11089000  1.0
  In  In6  1  0.75000000  0.25000000  0.97831000  1.0
  In  In7  1  0.75000000  0.75000000  0.97831000  1.0
  Ni  Ni8  1  0.00000000  0.00000000  0.91418000  1.0
  Ni  Ni9  1  0.00000000  0.50000000  0.91418000  1.0
  Ni  Ni10  1  0.50000000  0.00000000  0.91418000  1.0
  Ni  Ni11  1  0.50000000  0.50000000  0.91418000  1.0
  Ni  Ni12  1  0.50936000  0.99049000  0.04596000  1.0
  Ni  Ni13  1  0.50953000  0.50959000  0.04597000  1.0
  Ni  Ni14  1  0.99055000  0.50927000  0.04593000  1.0
  Ni  Ni15  1  0.99061000  0.99067000  0.04603000  1.0
  C  C16  1  0.24979000  0.25016000  0.23052000  1.0
  O  O17  1  0.25007000  0.24997000  0.27642000  1.0
