# generated using pymatgen
data_Li8In8Ge8Pd8CO
_symmetry_space_group_name_H-M   Pm
_cell_length_a   6.51863000
_cell_length_b   9.21874000
_cell_length_c   26.91410000
_cell_angle_alpha   90.00000000
_cell_angle_beta   90.00000000
_cell_angle_gamma   90.00000000
_symmetry_Int_Tables_number   6
_chemical_formula_structural   Li8In8Ge8Pd8CO
_chemical_formula_sum   'Li8 In8 Ge8 Pd8 C1 O1'
_cell_volume   1617.36395202
_cell_formula_units_Z   1
loop_
 _symmetry_equiv_pos_site_id
 _symmetry_equiv_pos_as_xyz
  1  'x, y, z'
  2  'x, -y, z'
loop_
 _atom_site_type_symbol
 _atom_site_label
 _atom_site_symmetry_multiplicity
 _atom_site_fract_x
 _atom_site_fract_y
 _atom_site_fract_z
 _atom_site_occupancy
  Li  Li0  2  0.21231000  0.24981000  0.04729000  1.0
  Li  Li1  2  0.25000000  0.25000000  0.87155000  1.0
  Li  Li2  1  0.67426000  0.00000000  0.15609000  1.0
  Li  Li3  1  0.68833000  0.50000000  0.14660000  1.0
  Li  Li4  1  0.75000000  0.00000000  0.95718000  1.0
  Li  Li5  1  0.75000000  0.50000000  0.95718000  1.0
  In  In6  2  0.00000000  0.25000000  0.95718000  1.0
  In  In7  2  0.98701000  0.24955000  0.14441000  1.0
  In  In8  1  0.49939000  0.50000000  0.04319000  1.0
  In  In9  1  0.50000000  0.00000000  0.87155000  1.0
  In  In10  1  0.50000000  0.50000000  0.87155000  1.0
  In  In11  1  0.50178000  0.00000000  0.04381000  1.0
  Ge  Ge12  2  0.47835000  0.25007000  0.12507000  1.0
  Ge  Ge13  2  0.50000000  0.25000000  0.95718000  1.0
  Ge  Ge14  1  0.00000000  0.00000000  0.87155000  1.0
  Ge  Ge15  1  0.00000000  0.50000000  0.87155000  1.0
  Ge  Ge16  1  0.96866000  0.50000000  0.05038000  1.0
  Ge  Ge17  1  0.96988000  0.00000000  0.05016000  1.0
  Pd  Pd18  2  0.75000000  0.25000000  0.87155000  1.0
  Pd  Pd19  2  0.75221000  0.25092000  0.03977000  1.0
  Pd  Pd20  1  0.23623000  0.00000000  0.12091000  1.0
  Pd  Pd21  1  0.23654000  0.50000000  0.12076000  1.0
  Pd  Pd22  1  0.25000000  0.00000000  0.95718000  1.0
  Pd  Pd23  1  0.25000000  0.50000000  0.95718000  1.0
  C  C24  1  0.72243000  0.00000000  0.23365000  1.0
  O  O25  1  0.74502000  0.00000000  0.27561000  1.0
