# generated using pymatgen
data_Li8Ca8Ge8Pd8CO
_symmetry_space_group_name_H-M   P1
_cell_length_a   6.62107000
_cell_length_b   9.36360000
_cell_length_c   27.02270000
_cell_angle_alpha   90.00000000
_cell_angle_beta   90.00000000
_cell_angle_gamma   90.00000000
_symmetry_Int_Tables_number   1
_chemical_formula_structural   Li8Ca8Ge8Pd8CO
_chemical_formula_sum   'Li8 Ca8 Ge8 Pd8 C1 O1'
_cell_volume   1675.32771146
_cell_formula_units_Z   1
loop_
 _symmetry_equiv_pos_site_id
 _symmetry_equiv_pos_as_xyz
  1  'x, y, z'
loop_
 _atom_site_type_symbol
 _atom_site_label
 _atom_site_symmetry_multiplicity
 _atom_site_fract_x
 _atom_site_fract_y
 _atom_site_fract_z
 _atom_site_occupancy
  Li  Li0  1  0.05567000  0.49857000  0.18962000  1.0
  Li  Li1  1  0.06043000  0.00324000  0.19084000  1.0
  Li  Li2  1  0.25000000  0.25000000  0.87006000  1.0
  Li  Li3  1  0.25000000  0.75000000  0.87006000  1.0
  Li  Li4  1  0.32185000  0.75014000  0.05821000  1.0
  Li  Li5  1  0.32196000  0.25012000  0.05752000  1.0
  Li  Li6  1  0.75000000  0.00000000  0.95669000  1.0
  Li  Li7  1  0.75000000  0.50000000  0.95669000  1.0
  Ca  Ca8  1  0.00000000  0.00000000  0.87006000  1.0
  Ca  Ca9  1  0.00000000  0.50000000  0.87006000  1.0
  Ca  Ca10  1  0.00863000  0.50031000  0.05383000  1.0
  Ca  Ca11  1  0.00877000  0.00025000  0.05372000  1.0
  Ca  Ca12  1  0.50000000  0.25000000  0.95669000  1.0
  Ca  Ca13  1  0.50000000  0.75000000  0.95669000  1.0
  Ca  Ca14  1  0.62407000  0.25005000  0.14058000  1.0
  Ca  Ca15  1  0.62435000  0.75009000  0.14079000  1.0
  Ge  Ge16  1  0.00000000  0.25000000  0.95669000  1.0
  Ge  Ge17  1  0.00000000  0.75000000  0.95669000  1.0
  Ge  Ge18  1  0.11937000  0.25028000  0.14022000  1.0
  Ge  Ge19  1  0.12545000  0.75062000  0.14342000  1.0
  Ge  Ge20  1  0.50000000  0.00000000  0.87006000  1.0
  Ge  Ge21  1  0.50000000  0.50000000  0.87006000  1.0
  Ge  Ge22  1  0.53123000  0.49887000  0.04183000  1.0
  Ge  Ge23  1  0.53137000  0.00138000  0.04186000  1.0
  Pd  Pd24  1  0.25000000  0.00000000  0.95669000  1.0
  Pd  Pd25  1  0.25000000  0.50000000  0.95669000  1.0
  Pd  Pd26  1  0.32793000  0.99758000  0.12269000  1.0
  Pd  Pd27  1  0.32811000  0.50307000  0.12270000  1.0
  Pd  Pd28  1  0.74735000  0.75013000  0.03629000  1.0
  Pd  Pd29  1  0.75000000  0.25000000  0.87006000  1.0
  Pd  Pd30  1  0.75000000  0.75000000  0.87006000  1.0
  Pd  Pd31  1  0.75266000  0.25006000  0.03495000  1.0
  C  C32  1  0.53182000  0.25006000  0.23493000  1.0
  O  O33  1  0.49030000  0.25004000  0.27618000  1.0
