# generated using pymatgen
data_Al8In8Cu8Pd8CO
_symmetry_space_group_name_H-M   'P 1'
_cell_length_a   8.99448000
_cell_length_b   6.36006000
_cell_length_c   26.74590000
_cell_angle_alpha   90.00000000
_cell_angle_beta   90.00000000
_cell_angle_gamma   90.00000000
_symmetry_Int_Tables_number   1
_chemical_formula_structural   Al8In8Cu8Pd8CO
_chemical_formula_sum   'Al8 In8 Cu8 Pd8 C1 O1'
_cell_volume   1530.01077627
_cell_formula_units_Z   1
loop_
 _symmetry_equiv_pos_site_id
 _symmetry_equiv_pos_as_xyz
  1  'x, y, z'
loop_
 _atom_site_type_symbol
 _atom_site_label
 _atom_site_symmetry_multiplicity
 _atom_site_fract_x
 _atom_site_fract_y
 _atom_site_fract_z
 _atom_site_occupancy
  Al  Al0  1  0.00000000  0.00000000  0.12611000  1.0
  Al  Al1  1  0.50000000  0.00000000  0.12611000  1.0
  Al  Al2  1  0.75000000  0.50000000  0.04204000  1.0
  Al  Al3  1  0.25000000  0.50000000  0.04204000  1.0
  Al  Al4  1  0.50000000  0.01703000  0.95207000  1.0
  Al  Al5  1  0.00000000  0.00605000  0.94952000  1.0
  Al  Al6  1  0.25598000  0.50377000  0.87563000  1.0
  Al  Al7  1  0.74402000  0.50377000  0.87563000  1.0
  In  In8  1  0.25000000  0.00000000  0.04204000  1.0
  In  In9  1  0.75000000  0.00000000  0.04204000  1.0
  In  In10  1  0.50000000  0.50000000  0.12611000  1.0
  In  In11  1  0.00000000  0.50000000  0.12611000  1.0
  In  In12  1  0.74831000  0.02815000  0.85027000  1.0
  In  In13  1  0.25169000  0.02815000  0.85027000  1.0
  In  In14  1  0.00000000  0.52731000  0.95404000  1.0
  In  In15  1  0.50000000  0.50283000  0.95876000  1.0
  Cu  Cu16  1  0.00000000  0.25000000  0.04204000  1.0
  Cu  Cu17  1  0.50000000  0.25000000  0.04204000  1.0
  Cu  Cu18  1  0.25000000  0.75000000  0.12611000  1.0
  Cu  Cu19  1  0.75000000  0.75000000  0.12611000  1.0
  Cu  Cu20  1  0.50000000  0.28056000  0.87048000  1.0
  Cu  Cu21  1  0.00000000  0.26500000  0.87515000  1.0
  Cu  Cu22  1  0.74827000  0.79459000  0.94540000  1.0
  Cu  Cu23  1  0.25173000  0.79459000  0.94540000  1.0
  Pd  Pd24  1  0.00000000  0.75000000  0.04204000  1.0
  Pd  Pd25  1  0.50000000  0.75000000  0.04204000  1.0
  Pd  Pd26  1  0.25000000  0.25000000  0.12611000  1.0
  Pd  Pd27  1  0.75000000  0.25000000  0.12611000  1.0
  Pd  Pd28  1  0.50000000  0.75658000  0.87616000  1.0
  Pd  Pd29  1  0.00000000  0.71554000  0.85602000  1.0
  Pd  Pd30  1  0.75606000  0.24262000  0.95677000  1.0
  Pd  Pd31  1  0.24394000  0.24262000  0.95677000  1.0
  C  C32  1  0.00000000  0.68128000  0.78223000  1.0
  O  O33  1  0.00000000  0.64513000  0.74019000  1.0
