# generated using pymatgen
data_Al8In8Cu8Pd8CO
_symmetry_space_group_name_H-M   Pm
_cell_length_a   6.36006000
_cell_length_b   8.99448000
_cell_length_c   26.74590000
_cell_angle_alpha   90.00000000
_cell_angle_beta   90.00000000
_cell_angle_gamma   90.00000000
_symmetry_Int_Tables_number   6
_chemical_formula_structural   Al8In8Cu8Pd8CO
_chemical_formula_sum   'Al8 In8 Cu8 Pd8 C1 O1'
_cell_volume   1530.01077627
_cell_formula_units_Z   1
loop_
 _symmetry_equiv_pos_site_id
 _symmetry_equiv_pos_as_xyz
  1  'x, y, z'
  2  'x, -y, z'
loop_
 _atom_site_type_symbol
 _atom_site_label
 _atom_site_symmetry_multiplicity
 _atom_site_fract_x
 _atom_site_fract_y
 _atom_site_fract_z
 _atom_site_occupancy
  Al  Al0  2  0.50000000  0.25000000  0.95796000  1.0
  Al  Al1  2  0.50377000  0.25598000  0.12437000  1.0
  Al  Al2  1  0.00000000  0.00000000  0.87389000  1.0
  Al  Al3  1  0.00000000  0.50000000  0.87389000  1.0
  Al  Al4  1  0.00605000  0.00000000  0.05048000  1.0
  Al  Al5  1  0.01703000  0.50000000  0.04793000  1.0
  In  In6  2  0.00000000  0.25000000  0.95796000  1.0
  In  In7  2  0.02815000  0.25169000  0.14973000  1.0
  In  In8  1  0.50000000  0.00000000  0.87389000  1.0
  In  In9  1  0.50000000  0.50000000  0.87389000  1.0
  In  In10  1  0.50283000  0.50000000  0.04124000  1.0
  In  In11  1  0.52731000  0.00000000  0.04596000  1.0
  Cu  Cu12  2  0.75000000  0.25000000  0.87389000  1.0
  Cu  Cu13  2  0.79459000  0.25173000  0.05460000  1.0
  Cu  Cu14  1  0.25000000  0.00000000  0.95796000  1.0
  Cu  Cu15  1  0.25000000  0.50000000  0.95796000  1.0
  Cu  Cu16  1  0.26500000  0.00000000  0.12485000  1.0
  Cu  Cu17  1  0.28056000  0.50000000  0.12952000  1.0
  Pd  Pd18  2  0.24262000  0.24394000  0.04323000  1.0
  Pd  Pd19  2  0.25000000  0.25000000  0.87389000  1.0
  Pd  Pd20  1  0.71554000  0.00000000  0.14398000  1.0
  Pd  Pd21  1  0.75000000  0.00000000  0.95796000  1.0
  Pd  Pd22  1  0.75000000  0.50000000  0.95796000  1.0
  Pd  Pd23  1  0.75658000  0.50000000  0.12384000  1.0
  C  C24  1  0.68128000  0.00000000  0.21777000  1.0
  O  O25  1  0.64513000  0.00000000  0.25981000  1.0
