# generated using pymatgen
data_SiOs
_symmetry_space_group_name_H-M   'P 1'
_cell_length_a   2.95432000
_cell_length_b   4.17804000
_cell_length_c   26.26710000
_cell_angle_alpha   90.00000000
_cell_angle_beta   90.00000000
_cell_angle_gamma   90.00000000
_symmetry_Int_Tables_number   1
_chemical_formula_structural   SiOs
_chemical_formula_sum   'Si4 Os4'
_cell_volume   324.22183210
_cell_formula_units_Z   4
loop_
 _symmetry_equiv_pos_site_id
 _symmetry_equiv_pos_as_xyz
  1  'x, y, z'
loop_
 _atom_site_type_symbol
 _atom_site_label
 _atom_site_symmetry_multiplicity
 _atom_site_fract_x
 _atom_site_fract_y
 _atom_site_fract_z
 _atom_site_occupancy
  Si  Si0  1  0.50000000  0.50000000  0.88070000  1.0
  Si  Si1  1  0.50000000  0.00000000  0.96023000  1.0
  Si  Si2  1  0.50000000  0.50000000  0.04139000  1.0
  Si  Si3  1  0.50000000  0.00000000  0.12199000  1.0
  Os  Os4  1  0.00000000  0.00000000  0.88070000  1.0
  Os  Os5  1  0.00000000  0.50000000  0.96023000  1.0
  Os  Os6  1  0.00000000  0.00000000  0.03787000  1.0
  Os  Os7  1  0.00000000  0.50000000  0.11614000  1.0
