# generated using pymatgen
data_Ti16Os16C
_symmetry_space_group_name_H-M   Pmm2
_cell_length_a   6.19423000
_cell_length_b   8.75996000
_cell_length_c   26.57000000
_cell_angle_alpha   90.00000000
_cell_angle_beta   90.00000000
_cell_angle_gamma   90.00000000
_symmetry_Int_Tables_number   25
_chemical_formula_structural   Ti16Os16C
_chemical_formula_sum   'Ti16 Os16 C1'
_cell_volume   1441.72027081
_cell_formula_units_Z   1
loop_
 _symmetry_equiv_pos_site_id
 _symmetry_equiv_pos_as_xyz
  1  'x, y, z'
  2  '-x, -y, z'
  3  '-x, y, z'
  4  'x, -y, z'
loop_
 _atom_site_type_symbol
 _atom_site_label
 _atom_site_symmetry_multiplicity
 _atom_site_fract_x
 _atom_site_fract_y
 _atom_site_fract_z
 _atom_site_occupancy
  Ti  Ti0  4  0.25000000  0.25000000  0.87636000  1.0
  Ti  Ti1  4  0.25081000  0.25092000  0.04302000  1.0
  Ti  Ti2  2  0.24532000  0.50000000  0.12629000  1.0
  Ti  Ti3  2  0.25000000  0.00000000  0.95879000  1.0
  Ti  Ti4  2  0.25000000  0.50000000  0.95879000  1.0
  Ti  Ti5  2  0.30500000  0.00000000  0.12822000  1.0
  Os  Os6  2  0.00000000  0.24138000  0.11834000  1.0
  Os  Os7  2  0.00000000  0.25000000  0.95879000  1.0
  Os  Os8  2  0.50000000  0.25000000  0.95879000  1.0
  Os  Os9  2  0.50000000  0.26464000  0.11941000  1.0
  Os  Os10  1  0.00000000  0.00000000  0.04118000  1.0
  Os  Os11  1  0.00000000  0.00000000  0.87636000  1.0
  Os  Os12  1  0.00000000  0.50000000  0.04233000  1.0
  Os  Os13  1  0.00000000  0.50000000  0.87636000  1.0
  Os  Os14  1  0.50000000  0.00000000  0.03965000  1.0
  Os  Os15  1  0.50000000  0.00000000  0.87636000  1.0
  Os  Os16  1  0.50000000  0.50000000  0.04018000  1.0
  Os  Os17  1  0.50000000  0.50000000  0.87636000  1.0
  C  C18  1  0.00000000  0.00000000  0.13251000  1.0
