# generated using pymatgen
data_Li4Zr4Ge4Pd4CO
_symmetry_space_group_name_H-M   Cmm2
_cell_length_a   9.16240683
_cell_length_b   9.16240683
_cell_length_c   24.85910000
_cell_angle_alpha   90.00000000
_cell_angle_beta   90.00000000
_cell_angle_gamma   90.00000000
_symmetry_Int_Tables_number   35
_chemical_formula_structural   Li4Zr4Ge4Pd4CO
_chemical_formula_sum   'Li8 Zr8 Ge8 Pd8 C2 O2'
_cell_volume   2086.91395943
_cell_formula_units_Z   2
loop_
 _symmetry_equiv_pos_site_id
 _symmetry_equiv_pos_as_xyz
  1  'x, y, z'
  2  '-x, -y, z'
  3  '-x, y, z'
  4  'x, -y, z'
  5  'x+1/2, y+1/2, z'
  6  '-x+1/2, -y+1/2, z'
  7  '-x+1/2, y+1/2, z'
  8  'x+1/2, -y+1/2, z'
loop_
 _atom_site_type_symbol
 _atom_site_label
 _atom_site_symmetry_multiplicity
 _atom_site_fract_x
 _atom_site_fract_y
 _atom_site_fract_z
 _atom_site_occupancy
  Li  Li0  4  0.00000000  0.24997500  0.90227000  1.0
  Li  Li1  4  0.24936500  0.00000000  0.03212000  1.0
  Zr  Zr2  4  0.00000000  0.25053500  0.03342000  1.0
  Zr  Zr3  4  0.24998500  0.00000000  0.90227000  1.0
  Ge  Ge4  4  0.25000000  0.25000000  0.09188000  1.0
  Ge  Ge5  2  0.00000000  0.00000000  0.96742000  1.0
  Ge  Ge6  2  0.00000000  0.50000000  0.96742000  1.0
  Pd  Pd7  4  0.25000000  0.25000000  0.96742000  1.0
  Pd  Pd8  2  0.00000000  0.00000000  0.09683000  1.0
  Pd  Pd9  2  0.00000000  0.50000000  0.09212000  1.0
  C  C10  2  0.00000000  0.00000000  0.17892000  1.0
  O  O11  2  0.00000000  0.00000000  0.22496000  1.0
