# generated using pymatgen
data_Al16Ir16C
_symmetry_space_group_name_H-M   'P 1'
_cell_length_a   8.53670000
_cell_length_b   6.03636000
_cell_length_c   26.40250000
_cell_angle_alpha   90.00000000
_cell_angle_beta   90.00000000
_cell_angle_gamma   90.00000000
_symmetry_Int_Tables_number   1
_chemical_formula_structural   Al16Ir16C
_chemical_formula_sum   'Al16 Ir16 C1'
_cell_volume   1360.53651896
_cell_formula_units_Z   1
loop_
 _symmetry_equiv_pos_site_id
 _symmetry_equiv_pos_as_xyz
  1  'x, y, z'
loop_
 _atom_site_type_symbol
 _atom_site_label
 _atom_site_symmetry_multiplicity
 _atom_site_fract_x
 _atom_site_fract_y
 _atom_site_fract_z
 _atom_site_occupancy
  Al  Al0  1  0.75000000  0.00000000  0.12125000  1.0
  Al  Al1  1  0.00000000  0.00000000  0.04042000  1.0
  Al  Al2  1  0.74953000  0.00102000  0.95900000  1.0
  Al  Al3  1  0.00000000  0.95363000  0.87269000  1.0
  Al  Al4  1  0.25000000  0.00000000  0.12125000  1.0
  Al  Al5  1  0.50000000  0.00000000  0.04042000  1.0
  Al  Al6  1  0.25047000  0.00102000  0.95900000  1.0
  Al  Al7  1  0.50000000  0.01215000  0.87431000  1.0
  Al  Al8  1  0.75000000  0.50000000  0.12125000  1.0
  Al  Al9  1  0.00000000  0.50000000  0.04042000  1.0
  Al  Al10  1  0.74953000  0.49896000  0.95900000  1.0
  Al  Al11  1  0.00000000  0.54623000  0.87268000  1.0
  Al  Al12  1  0.25000000  0.50000000  0.12125000  1.0
  Al  Al13  1  0.50000000  0.50000000  0.04042000  1.0
  Al  Al14  1  0.25047000  0.49896000  0.95900000  1.0
  Al  Al15  1  0.50000000  0.48782000  0.87431000  1.0
  Ir  Ir16  1  0.00000000  0.25000000  0.12125000  1.0
  Ir  Ir17  1  0.75000000  0.25000000  0.04042000  1.0
  Ir  Ir18  1  0.00000000  0.25000000  0.96168000  1.0
  Ir  Ir19  1  0.76020000  0.24997000  0.88141000  1.0
  Ir  Ir20  1  0.50000000  0.25000000  0.12125000  1.0
  Ir  Ir21  1  0.25000000  0.25000000  0.04042000  1.0
  Ir  Ir22  1  0.50000000  0.25000000  0.95935000  1.0
  Ir  Ir23  1  0.23980000  0.24997000  0.88141000  1.0
  Ir  Ir24  1  0.00000000  0.75000000  0.12125000  1.0
  Ir  Ir25  1  0.75000000  0.75000000  0.04042000  1.0
  Ir  Ir26  1  0.00000000  0.74999000  0.96159000  1.0
  Ir  Ir27  1  0.74372000  0.74996000  0.88296000  1.0
  Ir  Ir28  1  0.50000000  0.75000000  0.12125000  1.0
  Ir  Ir29  1  0.25000000  0.75000000  0.04042000  1.0
  Ir  Ir30  1  0.50000000  0.75001000  0.96136000  1.0
  Ir  Ir31  1  0.25628000  0.74996000  0.88296000  1.0
  C  C32  1  0.00000000  0.24990000  0.85234000  1.0
