# generated using pymatgen
data_Al16Ir16C
_symmetry_space_group_name_H-M   Pm
_cell_length_a   6.03636000
_cell_length_b   8.53670000
_cell_length_c   26.40250000
_cell_angle_alpha   90.00000000
_cell_angle_beta   90.00000000
_cell_angle_gamma   90.00000000
_symmetry_Int_Tables_number   6
_chemical_formula_structural   Al16Ir16C
_chemical_formula_sum   'Al16 Ir16 C1'
_cell_volume   1360.53651896
_cell_formula_units_Z   1
loop_
 _symmetry_equiv_pos_site_id
 _symmetry_equiv_pos_as_xyz
  1  'x, y, z'
  2  'x, -y, z'
loop_
 _atom_site_type_symbol
 _atom_site_label
 _atom_site_symmetry_multiplicity
 _atom_site_fract_x
 _atom_site_fract_y
 _atom_site_fract_z
 _atom_site_occupancy
  Al  Al0  2  0.00000000  0.25000000  0.87875000  1.0
  Al  Al1  2  0.00102000  0.25047000  0.04100000  1.0
  Al  Al2  2  0.49896000  0.25047000  0.04100000  1.0
  Al  Al3  2  0.50000000  0.25000000  0.87875000  1.0
  Al  Al4  1  0.00000000  0.00000000  0.95958000  1.0
  Al  Al5  1  0.00000000  0.50000000  0.95958000  1.0
  Al  Al6  1  0.01215000  0.50000000  0.12569000  1.0
  Al  Al7  1  0.48782000  0.50000000  0.12569000  1.0
  Al  Al8  1  0.50000000  0.00000000  0.95958000  1.0
  Al  Al9  1  0.50000000  0.50000000  0.95958000  1.0
  Al  Al10  1  0.54623000  0.00000000  0.12732000  1.0
  Al  Al11  1  0.95363000  0.00000000  0.12731000  1.0
  Ir  Ir12  2  0.24997000  0.23980000  0.11859000  1.0
  Ir  Ir13  2  0.25000000  0.25000000  0.95958000  1.0
  Ir  Ir14  2  0.74996000  0.25628000  0.11704000  1.0
  Ir  Ir15  2  0.75000000  0.25000000  0.95958000  1.0
  Ir  Ir16  1  0.25000000  0.00000000  0.03832000  1.0
  Ir  Ir17  1  0.25000000  0.00000000  0.87875000  1.0
  Ir  Ir18  1  0.25000000  0.50000000  0.04065000  1.0
  Ir  Ir19  1  0.25000000  0.50000000  0.87875000  1.0
  Ir  Ir20  1  0.74999000  0.00000000  0.03841000  1.0
  Ir  Ir21  1  0.75000000  0.00000000  0.87875000  1.0
  Ir  Ir22  1  0.75000000  0.50000000  0.87875000  1.0
  Ir  Ir23  1  0.75001000  0.50000000  0.03864000  1.0
  C  C24  1  0.24990000  0.00000000  0.14766000  1.0
