# generated using pymatgen
data_V8Co16Sn8CO
_symmetry_space_group_name_H-M   Pm
_cell_length_a   6.04348000
_cell_length_b   8.54677000
_cell_length_c   26.41010000
_cell_angle_alpha   90.00000000
_cell_angle_beta   90.00000000
_cell_angle_gamma   90.00000000
_symmetry_Int_Tables_number   6
_chemical_formula_structural   V8Co16Sn8CO
_chemical_formula_sum   'V8 Co16 Sn8 C1 O1'
_cell_volume   1364.14065353
_cell_formula_units_Z   1
loop_
 _symmetry_equiv_pos_site_id
 _symmetry_equiv_pos_as_xyz
  1  'x, y, z'
  2  'x, -y, z'
loop_
 _atom_site_type_symbol
 _atom_site_label
 _atom_site_symmetry_multiplicity
 _atom_site_fract_x
 _atom_site_fract_y
 _atom_site_fract_z
 _atom_site_occupancy
  V  V0  2  0.50000000  0.25000000  0.12136000  1.0
  V  V1  2  0.50000000  0.25000000  0.95955000  1.0
  V  V2  1  0.00000000  0.00000000  0.04045000  1.0
  V  V3  1  0.00000000  0.00000000  0.87864000  1.0
  V  V4  1  0.00000000  0.50000000  0.04045000  1.0
  V  V5  1  0.00000000  0.50000000  0.87864000  1.0
  Co  Co6  2  0.25000000  0.25000000  0.04045000  1.0
  Co  Co7  2  0.25000000  0.25000000  0.87864000  1.0
  Co  Co8  2  0.75000000  0.25000000  0.04045000  1.0
  Co  Co9  2  0.75000000  0.25000000  0.87864000  1.0
  Co  Co10  1  0.25000000  0.00000000  0.12136000  1.0
  Co  Co11  1  0.25000000  0.00000000  0.95955000  1.0
  Co  Co12  1  0.25000000  0.50000000  0.12136000  1.0
  Co  Co13  1  0.25000000  0.50000000  0.95955000  1.0
  Co  Co14  1  0.75000000  0.00000000  0.12136000  1.0
  Co  Co15  1  0.75000000  0.00000000  0.95955000  1.0
  Co  Co16  1  0.75000000  0.50000000  0.12136000  1.0
  Co  Co17  1  0.75000000  0.50000000  0.95955000  1.0
  Sn  Sn18  2  0.00000000  0.25000000  0.12136000  1.0
  Sn  Sn19  2  0.00000000  0.25000000  0.95955000  1.0
  Sn  Sn20  1  0.50000000  0.00000000  0.04045000  1.0
  Sn  Sn21  1  0.50000000  0.00000000  0.87864000  1.0
  Sn  Sn22  1  0.50000000  0.50000000  0.04045000  1.0
  Sn  Sn23  1  0.50000000  0.50000000  0.87864000  1.0
  C  C24  1  0.25000000  0.00000000  0.19330000  1.0
  O  O25  1  0.25000000  0.00000000  0.23684000  1.0
