data_image0
_chemical_formula_structural       Li8Mg8In8Pt8C
_chemical_formula_sum              "Li8 Mg8 In8 Pt8 C1"
_cell_length_a       6.50521
_cell_length_b       9.19976
_cell_length_c       26.8998
_cell_angle_alpha    90
_cell_angle_beta     90
_cell_angle_gamma    90

_space_group_name_H-M_alt    "P 1"
_space_group_IT_number       1

loop_
  _space_group_symop_operation_xyz
  'x, y, z'

loop_
  _atom_site_type_symbol
  _atom_site_label
  _atom_site_symmetry_multiplicity
  _atom_site_fract_x
  _atom_site_fract_y
  _atom_site_fract_z
  _atom_site_occupancy
  Li  Li1       1.0  0.25000  0.00000  0.95725  1.0000
  Li  Li2       1.0  0.25000  0.50000  0.95725  1.0000
  Li  Li3       1.0  0.75000  0.25000  0.87175  1.0000
  Li  Li4       1.0  0.75000  0.75000  0.87175  1.0000
  Li  Li5       1.0  0.27374  0.50000  0.13128  1.0000
  Li  Li6       1.0  0.19740  0.00000  0.14994  1.0000
  Li  Li7       1.0  0.73514  0.75483  0.04666  1.0000
  Li  Li8       1.0  0.73515  0.24517  0.04666  1.0000
  Mg  Mg1       1.0  0.00000  0.25000  0.95725  1.0000
  Mg  Mg2       1.0  0.00000  0.75000  0.95725  1.0000
  Mg  Mg3       1.0  0.50000  0.50000  0.87175  1.0000
  Mg  Mg4       1.0  0.50000  0.00000  0.87175  1.0000
  Mg  Mg5       1.0  0.97906  0.73542  0.13068  1.0000
  Mg  Mg6       1.0  0.97906  0.26458  0.13068  1.0000
  Mg  Mg7       1.0  0.47798  0.00000  0.05058  1.0000
  Mg  Mg8       1.0  0.49546  0.50000  0.04092  1.0000
  In  In1       1.0  0.00000  0.00000  0.87175  1.0000
  In  In2       1.0  0.00000  0.50000  0.87175  1.0000
  In  In3       1.0  0.50000  0.75000  0.95725  1.0000
  In  In4       1.0  0.50000  0.25000  0.95725  1.0000
  In  In5       1.0  0.99195  0.50000  0.04398  1.0000
  In  In6       1.0  0.01589  0.00000  0.04013  1.0000
  In  In7       1.0  0.48219  0.24892  0.14301  1.0000
  In  In8       1.0  0.48219  0.75108  0.14301  1.0000
  Pt  Pt1       1.0  0.75000  0.00000  0.95725  1.0000
  Pt  Pt2       1.0  0.75000  0.50000  0.95725  1.0000
  Pt  Pt3       1.0  0.25000  0.25000  0.87175  1.0000
  Pt  Pt4       1.0  0.25000  0.75000  0.87175  1.0000
  Pt  Pt5       1.0  0.72119  0.50000  0.12282  1.0000
  Pt  Pt6       1.0  0.79416  0.00000  0.12330  1.0000
  Pt  Pt7       1.0  0.24916  0.74180  0.04240  1.0000
  Pt  Pt8       1.0  0.24916  0.25820  0.04240  1.0000
  C   C1        1.0  0.50263  0.00000  0.14058  1.0000
