data_image0
_chemical_formula_structural       Li8Sn4Ge4C
_chemical_formula_sum              "Li8 Sn4 Ge4 C1"
_cell_length_a       6.92564
_cell_length_b       6.92564
_cell_length_c       25.1942
_cell_angle_alpha    90
_cell_angle_beta     90
_cell_angle_gamma    90

_space_group_name_H-M_alt    "P 1"
_space_group_IT_number       1

loop_
  _space_group_symop_operation_xyz
  'x, y, z'

loop_
  _atom_site_type_symbol
  _atom_site_label
  _atom_site_symmetry_multiplicity
  _atom_site_fract_x
  _atom_site_fract_y
  _atom_site_fract_z
  _atom_site_occupancy
  Li  Li1       1.0  0.99998  0.00000  0.02929  1.0000
  Li  Li2       1.0  0.50000  0.00000  0.89692  1.0000
  Li  Li3       1.0  0.00000  0.50000  0.89692  1.0000
  Li  Li4       1.0  0.49999  0.50000  0.02934  1.0000
  Li  Li5       1.0  0.25000  0.25000  0.96564  1.0000
  Li  Li6       1.0  0.22253  0.72256  0.10909  1.0000
  Li  Li7       1.0  0.75000  0.75000  0.96564  1.0000
  Li  Li8       1.0  0.77744  0.27744  0.10909  1.0000
  Sn  Sn1       1.0  0.00000  0.00000  0.89692  1.0000
  Sn  Sn2       1.0  0.50000  0.50000  0.89692  1.0000
  Sn  Sn3       1.0  0.50016  0.99988  0.03420  1.0000
  Sn  Sn4       1.0  0.00003  0.50003  0.02359  1.0000
  Ge  Ge1       1.0  0.19687  0.30309  0.10930  1.0000
  Ge  Ge2       1.0  0.25000  0.75000  0.96564  1.0000
  Ge  Ge3       1.0  0.80310  0.69692  0.10930  1.0000
  Ge  Ge4       1.0  0.75000  0.25000  0.96564  1.0000
  C   C1        1.0  0.99999  0.50000  0.11705  1.0000
