# generated using pymatgen
data_Li8Ti8Al8Pd8CO
_symmetry_space_group_name_H-M   'P 1'
_cell_length_a   8.73352000
_cell_length_b   6.17553000
_cell_length_c   26.55010000
_cell_angle_alpha   90.00000000
_cell_angle_beta   90.00000000
_cell_angle_gamma   90.00000000
_symmetry_Int_Tables_number   1
_chemical_formula_structural   Li8Ti8Al8Pd8CO
_chemical_formula_sum   'Li8 Ti8 Al8 Pd8 C1 O1'
_cell_volume   1431.95614044
_cell_formula_units_Z   1
loop_
 _symmetry_equiv_pos_site_id
 _symmetry_equiv_pos_as_xyz
  1  'x, y, z'
loop_
 _atom_site_type_symbol
 _atom_site_label
 _atom_site_symmetry_multiplicity
 _atom_site_fract_x
 _atom_site_fract_y
 _atom_site_fract_z
 _atom_site_occupancy
  Li  Li0  1  0.75000000  0.75000000  0.04112000  1.0
  Li  Li1  1  0.25000000  0.75000000  0.04112000  1.0
  Li  Li2  1  0.00000000  0.25000000  0.12335000  1.0
  Li  Li3  1  0.50000000  0.25000000  0.12335000  1.0
  Li  Li4  1  0.23353000  0.70616000  0.83001000  1.0
  Li  Li5  1  0.76647000  0.70616000  0.83001000  1.0
  Li  Li6  1  0.50000000  0.24939000  0.95795000  1.0
  Li  Li7  1  0.00000000  0.24799000  0.96067000  1.0
  Ti  Ti8  1  0.00000000  0.00000000  0.04112000  1.0
  Ti  Ti9  1  0.50000000  0.00000000  0.04112000  1.0
  Ti  Ti10  1  0.25000000  0.50000000  0.12335000  1.0
  Ti  Ti11  1  0.75000000  0.50000000  0.12335000  1.0
  Ti  Ti12  1  0.50000000  0.96753000  0.88039000  1.0
  Ti  Ti13  1  0.00000000  0.97953000  0.87860000  1.0
  Ti  Ti14  1  0.74952000  0.51062000  0.95341000  1.0
  Ti  Ti15  1  0.25048000  0.51062000  0.95341000  1.0
  Al  Al16  1  0.75000000  0.00000000  0.12335000  1.0
  Al  Al17  1  0.25000000  0.00000000  0.12335000  1.0
  Al  Al18  1  0.50000000  0.50000000  0.04112000  1.0
  Al  Al19  1  0.00000000  0.50000000  0.04112000  1.0
  Al  Al20  1  0.25025000  0.99395000  0.95762000  1.0
  Al  Al21  1  0.74975000  0.99395000  0.95762000  1.0
  Al  Al22  1  0.00000000  0.48521000  0.87997000  1.0
  Al  Al23  1  0.50000000  0.49952000  0.87556000  1.0
  Pd  Pd24  1  0.75000000  0.25000000  0.04112000  1.0
  Pd  Pd25  1  0.25000000  0.25000000  0.04112000  1.0
  Pd  Pd26  1  0.00000000  0.75000000  0.12335000  1.0
  Pd  Pd27  1  0.50000000  0.75000000  0.12335000  1.0
  Pd  Pd28  1  0.25310000  0.24111000  0.87991000  1.0
  Pd  Pd29  1  0.74690000  0.24111000  0.87991000  1.0
  Pd  Pd30  1  0.50000000  0.74882000  0.96147000  1.0
  Pd  Pd31  1  0.00000000  0.74785000  0.96238000  1.0
  C  C32  1  0.00000000  0.89978000  0.80377000  1.0
  O  O33  1  0.00000000  0.86735000  0.75959000  1.0
