# generated using pymatgen
data_Li2SnGe
_symmetry_space_group_name_H-M   'P 1'
_cell_length_a   9.79433000
_cell_length_b   6.92564000
_cell_length_c   27.34580000
_cell_angle_alpha   90.00000000
_cell_angle_beta   90.00000000
_cell_angle_gamma   90.00000000
_symmetry_Int_Tables_number   1
_chemical_formula_structural   Li2SnGe
_chemical_formula_sum   'Li16 Sn8 Ge8'
_cell_volume   1854.92040462
_cell_formula_units_Z   8
loop_
 _symmetry_equiv_pos_site_id
 _symmetry_equiv_pos_as_xyz
  1  'x, y, z'
loop_
 _atom_site_type_symbol
 _atom_site_label
 _atom_site_symmetry_multiplicity
 _atom_site_fract_x
 _atom_site_fract_y
 _atom_site_fract_z
 _atom_site_occupancy
  Li  Li0  1  0.75000000  1.00000000  0.04477000  1.0
  Li  Li1  1  0.00000000  0.50000000  0.13431000  1.0
  Li  Li2  1  0.25000000  1.00000000  0.04477000  1.0
  Li  Li3  1  0.50000000  0.50000000  0.13431000  1.0
  Li  Li4  1  0.00000000  0.25000000  0.04477000  1.0
  Li  Li5  1  0.50000000  0.25000000  0.04477000  1.0
  Li  Li6  1  0.75000000  0.75000000  0.13431000  1.0
  Li  Li7  1  0.25000000  0.75000000  0.13431000  1.0
  Li  Li8  1  0.25000000  0.96963000  0.87163000  1.0
  Li  Li9  1  0.50000000  0.50953000  0.95691000  1.0
  Li  Li10  1  0.75000000  0.96963000  0.87163000  1.0
  Li  Li11  1  0.00000000  0.50955000  0.95690000  1.0
  Li  Li12  1  0.50000000  0.26713000  0.86740000  1.0
  Li  Li13  1  0.00000000  0.26716000  0.86740000  1.0
  Li  Li14  1  0.25000000  0.73970000  0.95672000  1.0
  Li  Li15  1  0.75000000  0.73970000  0.95672000  1.0
  Sn  Sn16  1  0.00000000  0.00000000  0.13431000  1.0
  Sn  Sn17  1  0.25000000  0.50000000  0.04477000  1.0
  Sn  Sn18  1  0.75000000  0.50000000  0.04477000  1.0
  Sn  Sn19  1  0.50000000  1.00000000  0.13431000  1.0
  Sn  Sn20  1  0.50000000  0.00385000  0.95453000  1.0
  Sn  Sn21  1  0.74999000  0.49590000  0.86587000  1.0
  Sn  Sn22  1  0.25001000  0.49590000  0.86587000  1.0
  Sn  Sn23  1  0.00000000  0.00373000  0.95451000  1.0
  Ge  Ge24  1  0.25000000  0.25000000  0.13431000  1.0
  Ge  Ge25  1  0.75000000  0.25000000  0.13431000  1.0
  Ge  Ge26  1  0.50000000  0.75000000  0.04477000  1.0
  Ge  Ge27  1  0.00000000  0.75000000  0.04477000  1.0
  Ge  Ge28  1  0.75005000  0.24641000  0.95526000  1.0
  Ge  Ge29  1  0.24995000  0.24641000  0.95526000  1.0
  Ge  Ge30  1  0.00000000  0.74607000  0.87039000  1.0
  Ge  Ge31  1  0.50000000  0.74617000  0.87043000  1.0
