# generated using pymatgen
data_Li2SnGe
_symmetry_space_group_name_H-M   Pm
_cell_length_a   6.92564000
_cell_length_b   9.79433000
_cell_length_c   27.34580000
_cell_angle_alpha   90.00000000
_cell_angle_beta   90.00000000
_cell_angle_gamma   90.00000000
_symmetry_Int_Tables_number   6
_chemical_formula_structural   Li2SnGe
_chemical_formula_sum   'Li16 Sn8 Ge8'
_cell_volume   1854.92040462
_cell_formula_units_Z   8
loop_
 _symmetry_equiv_pos_site_id
 _symmetry_equiv_pos_as_xyz
  1  'x, y, z'
  2  'x, -y, z'
loop_
 _atom_site_type_symbol
 _atom_site_label
 _atom_site_symmetry_multiplicity
 _atom_site_fract_x
 _atom_site_fract_y
 _atom_site_fract_z
 _atom_site_occupancy
  Li  Li0  2  -0.00000000  0.25000000  0.95523000  1.0
  Li  Li1  2  0.73970000  0.25000000  0.04328000  1.0
  Li  Li2  2  0.75000000  0.25000000  0.86569000  1.0
  Li  Li3  2  0.96963000  0.25000000  0.12837000  1.0
  Li  Li4  1  0.25000000  0.00000000  0.95523000  1.0
  Li  Li5  1  0.25000000  0.50000000  0.95523000  1.0
  Li  Li6  1  0.26713000  0.50000000  0.13260000  1.0
  Li  Li7  1  0.26716000  0.00000000  0.13260000  1.0
  Li  Li8  1  0.50000000  0.00000000  0.86569000  1.0
  Li  Li9  1  0.50000000  0.50000000  0.86569000  1.0
  Li  Li10  1  0.50953000  0.50000000  0.04309000  1.0
  Li  Li11  1  0.50955000  0.00000000  0.04310000  1.0
  Sn  Sn12  2  0.49590000  0.25001000  0.13413000  1.0
  Sn  Sn13  2  0.50000000  0.25000000  0.95523000  1.0
  Sn  Sn14  1  -0.00000000  0.50000000  0.86569000  1.0
  Sn  Sn15  1  0.00000000  0.00000000  0.86569000  1.0
  Sn  Sn16  1  0.00373000  0.00000000  0.04549000  1.0
  Sn  Sn17  1  0.00385000  0.50000000  0.04547000  1.0
  Ge  Ge18  2  0.24641000  0.24995000  0.04474000  1.0
  Ge  Ge19  2  0.25000000  0.25000000  0.86569000  1.0
  Ge  Ge20  1  0.74607000  0.00000000  0.12961000  1.0
  Ge  Ge21  1  0.74617000  0.50000000  0.12957000  1.0
  Ge  Ge22  1  0.75000000  0.00000000  0.95523000  1.0
  Ge  Ge23  1  0.75000000  0.50000000  0.95523000  1.0
