# generated using pymatgen
data_Sc8Ga8Pd16CO
_symmetry_space_group_name_H-M   'P 1'
_cell_length_a   6.43013000
_cell_length_b   9.09357000
_cell_length_c   26.82020000
_cell_angle_alpha   90.00000000
_cell_angle_beta   90.00000000
_cell_angle_gamma   90.00000000
_symmetry_Int_Tables_number   1
_chemical_formula_structural   Sc8Ga8Pd16CO
_chemical_formula_sum   'Sc8 Ga8 Pd16 C1 O1'
_cell_volume   1568.25318999
_cell_formula_units_Z   1
loop_
 _symmetry_equiv_pos_site_id
 _symmetry_equiv_pos_as_xyz
  1  'x, y, z'
loop_
 _atom_site_type_symbol
 _atom_site_label
 _atom_site_symmetry_multiplicity
 _atom_site_fract_x
 _atom_site_fract_y
 _atom_site_fract_z
 _atom_site_occupancy
  Sc  Sc0  1  0.00000000  0.75000000  0.87285000  1.0
  Sc  Sc1  1  0.50000000  0.00000000  0.95762000  1.0
  Sc  Sc2  1  0.50000000  0.50000000  0.95762000  1.0
  Sc  Sc3  1  0.00000000  0.25000000  0.87285000  1.0
  Sc  Sc4  1  0.00000000  0.25105000  0.04203000  1.0
  Sc  Sc5  1  0.50000000  0.50000000  0.12655000  1.0
  Sc  Sc6  1  0.50000000  0.00000000  0.12499000  1.0
  Sc  Sc7  1  0.00000000  0.74895000  0.04203000  1.0
  Ga  Ga8  1  0.00000000  0.50000000  0.95762000  1.0
  Ga  Ga9  1  0.50000000  0.75000000  0.87285000  1.0
  Ga  Ga10  1  0.00000000  0.00000000  0.95762000  1.0
  Ga  Ga11  1  0.50000000  0.25000000  0.87285000  1.0
  Ga  Ga12  1  0.00000000  0.00000000  0.12945000  1.0
  Ga  Ga13  1  0.50000000  0.24984000  0.04469000  1.0
  Ga  Ga14  1  0.00000000  0.50000000  0.12649000  1.0
  Ga  Ga15  1  0.50000000  0.75016000  0.04469000  1.0
  Pd  Pd16  1  0.25000000  0.75000000  0.95762000  1.0
  Pd  Pd17  1  0.75000000  0.25000000  0.95762000  1.0
  Pd  Pd18  1  0.75000000  0.75000000  0.95762000  1.0
  Pd  Pd19  1  0.25000000  0.25000000  0.95762000  1.0
  Pd  Pd20  1  0.75000000  0.50000000  0.87285000  1.0
  Pd  Pd21  1  0.25000000  0.00000000  0.87285000  1.0
  Pd  Pd22  1  0.25000000  0.50000000  0.87285000  1.0
  Pd  Pd23  1  0.75000000  0.00000000  0.87285000  1.0
  Pd  Pd24  1  0.23792000  0.25044000  0.12312000  1.0
  Pd  Pd25  1  0.76208000  0.74956000  0.12312000  1.0
  Pd  Pd26  1  0.76208000  0.25044000  0.12312000  1.0
  Pd  Pd27  1  0.23792000  0.74956000  0.12312000  1.0
  Pd  Pd28  1  0.74740000  0.00000000  0.04151000  1.0
  Pd  Pd29  1  0.25610000  0.50000000  0.04222000  1.0
  Pd  Pd30  1  0.25260000  0.00000000  0.04151000  1.0
  Pd  Pd31  1  0.74390000  0.50000000  0.04222000  1.0
  C  C32  1  0.00000000  0.00000000  0.21079000  1.0
  O  O33  1  0.00000000  0.00000000  0.25366000  1.0
