# generated using pymatgen
data_Li8Al8Ag8Sn8C
_symmetry_space_group_name_H-M   Pmm2
_cell_length_a   8.56020000
_cell_length_b   8.66686000
_cell_length_c   26.12070000
_cell_angle_alpha   90.00000000
_cell_angle_beta   90.00000000
_cell_angle_gamma   90.00000000
_symmetry_Int_Tables_number   25
_chemical_formula_structural   Li8Al8Ag8Sn8C
_chemical_formula_sum   'Li8 Al8 Ag8 Sn8 C1'
_cell_volume   1937.89616891
_cell_formula_units_Z   1
loop_
 _symmetry_equiv_pos_site_id
 _symmetry_equiv_pos_as_xyz
  1  'x, y, z'
  2  '-x, -y, z'
  3  '-x, y, z'
  4  'x, -y, z'
loop_
 _atom_site_type_symbol
 _atom_site_label
 _atom_site_symmetry_multiplicity
 _atom_site_fract_x
 _atom_site_fract_y
 _atom_site_fract_z
 _atom_site_occupancy
  Li  Li0  1  0.00000000  0.00000000  0.03976000  1.0
  Li  Li1  1  0.00000000  0.00000000  0.88284000  1.0
  Li  Li2  1  0.00000000  0.50000000  0.03903000  1.0
  Li  Li3  1  0.00000000  0.50000000  0.88284000  1.0
  Li  Li4  1  0.50000000  0.00000000  0.03593000  1.0
  Li  Li5  1  0.50000000  0.00000000  0.88284000  1.0
  Li  Li6  1  0.50000000  0.50000000  0.03522000  1.0
  Li  Li7  1  0.50000000  0.50000000  0.88284000  1.0
  Al  Al8  4  0.25000000  0.24997000  0.88284000  1.0
  Al  Al9  4  0.25676000  0.25386000  0.03767000  1.0
  Ag  Ag10  2  0.25000000  0.00000000  0.96095000  1.0
  Ag  Ag11  2  0.25000000  0.50000000  0.96095000  1.0
  Ag  Ag12  2  0.25664000  0.00000000  0.09860000  1.0
  Ag  Ag13  2  0.26464000  0.50000000  0.10154000  1.0
  Sn  Sn14  2  0.00000000  0.24601000  0.13801000  1.0
  Sn  Sn15  2  0.00000000  0.24997000  0.96095000  1.0
  Sn  Sn16  2  0.50000000  0.24844000  0.12771000  1.0
  Sn  Sn17  2  0.50000000  0.24997000  0.96095000  1.0
  C  C18  1  0.00000000  0.00000000  0.12641000  1.0
