data_image0
_chemical_formula_structural       Y4Al4In4Pd4CO
_chemical_formula_sum              "Y4 Al4 In4 Pd4 C1 O1"
_cell_length_a       8.16174
_cell_length_b       6.39385
_cell_length_c       24.7918
_cell_angle_alpha    90
_cell_angle_beta     90
_cell_angle_gamma    90

_space_group_name_H-M_alt    "P 1"
_space_group_IT_number       1

loop_
  _space_group_symop_operation_xyz
  'x, y, z'

loop_
  _atom_site_type_symbol
  _atom_site_label
  _atom_site_symmetry_multiplicity
  _atom_site_fract_x
  _atom_site_fract_y
  _atom_site_fract_z
  _atom_site_occupancy
  Y   Y1        1.0  0.25000  0.74027  0.96779  1.0000
  Y   Y2        1.0  0.25003  0.21414  0.09800  1.0000
  Y   Y3        1.0  0.75000  0.74027  0.96779  1.0000
  Y   Y4        1.0  0.75003  0.19765  0.09474  1.0000
  Al  Al1       1.0  0.00000  0.00000  0.90336  1.0000
  Al  Al2       1.0  0.99985  0.46859  0.03167  1.0000
  Al  Al3       1.0  0.50000  0.00000  0.90336  1.0000
  Al  Al4       1.0  0.50013  0.46852  0.03165  1.0000
  In  In1       1.0  0.25000  0.24027  0.96779  1.0000
  In  In2       1.0  0.24983  0.71565  0.09983  1.0000
  In  In3       1.0  0.75000  0.24027  0.96779  1.0000
  In  In4       1.0  0.74971  0.69797  0.10424  1.0000
  Pd  Pd1       1.0  0.00000  0.50000  0.90336  1.0000
  Pd  Pd2       1.0  0.00098  0.98218  0.03152  1.0000
  Pd  Pd3       1.0  0.50000  0.50000  0.90336  1.0000
  Pd  Pd4       1.0  0.49903  0.98216  0.03153  1.0000
  C   C1        1.0  0.25006  0.04382  0.18725  1.0000
  O   O1        1.0  0.25005  0.97906  0.23079  1.0000
