# generated using pymatgen
data_Y4Al4In4Pd4CO
_symmetry_space_group_name_H-M   'P 1'
_cell_length_a   6.39385000
_cell_length_b   8.16174000
_cell_length_c   24.79180000
_cell_angle_alpha   90.00000000
_cell_angle_beta   90.00000000
_cell_angle_gamma   90.00000000
_symmetry_Int_Tables_number   1
_chemical_formula_structural   Y4Al4In4Pd4CO
_chemical_formula_sum   'Y4 Al4 In4 Pd4 C1 O1'
_cell_volume   1293.75862770
_cell_formula_units_Z   1
loop_
 _symmetry_equiv_pos_site_id
 _symmetry_equiv_pos_as_xyz
  1  'x, y, z'
loop_
 _atom_site_type_symbol
 _atom_site_label
 _atom_site_symmetry_multiplicity
 _atom_site_fract_x
 _atom_site_fract_y
 _atom_site_fract_z
 _atom_site_occupancy
  Y  Y0  1  0.74027000  0.25000000  0.03221000  1.0
  Y  Y1  1  0.21414000  0.25003000  0.90200000  1.0
  Y  Y2  1  0.74027000  0.75000000  0.03221000  1.0
  Y  Y3  1  0.19765000  0.75003000  0.90526000  1.0
  Al  Al4  1  0.00000000  0.00000000  0.09664000  1.0
  Al  Al5  1  0.46859000  0.99985000  0.96833000  1.0
  Al  Al6  1  0.00000000  0.50000000  0.09664000  1.0
  Al  Al7  1  0.46852000  0.50013000  0.96835000  1.0
  In  In8  1  0.24027000  0.25000000  0.03221000  1.0
  In  In9  1  0.71565000  0.24983000  0.90017000  1.0
  In  In10  1  0.24027000  0.75000000  0.03221000  1.0
  In  In11  1  0.69797000  0.74971000  0.89576000  1.0
  Pd  Pd12  1  0.50000000  0.00000000  0.09664000  1.0
  Pd  Pd13  1  0.98218000  0.00098000  0.96848000  1.0
  Pd  Pd14  1  0.50000000  0.50000000  0.09664000  1.0
  Pd  Pd15  1  0.98216000  0.49903000  0.96847000  1.0
  C  C16  1  0.04382000  0.25006000  0.81275000  1.0
  O  O17  1  0.97906000  0.25005000  0.76921000  1.0
