data_image0
_chemical_formula_structural       YAgYAgYAgYAgYAgYAgYAgYAg
_chemical_formula_sum              "Y8 Ag8"
_cell_length_a       7.32505
_cell_length_b       7.32505
_cell_length_c       25.4938
_cell_angle_alpha    90
_cell_angle_beta     90
_cell_angle_gamma    90

_space_group_name_H-M_alt    "P 1"
_space_group_IT_number       1

loop_
  _space_group_symop_operation_xyz
  'x, y, z'

loop_
  _atom_site_type_symbol
  _atom_site_label
  _atom_site_symmetry_multiplicity
  _atom_site_fract_x
  _atom_site_fract_y
  _atom_site_fract_z
  _atom_site_occupancy
  Y   Y1        1.0  0.25000  0.25000  0.96755  1.0000
  Ag  Ag1       1.0  0.00000  0.00000  0.89571  1.0000
  Y   Y2        1.0  0.25000  0.25000  0.11121  1.0000
  Ag  Ag2       1.0  0.00000  0.00000  0.03938  1.0000
  Y   Y3        1.0  0.25000  0.75000  0.96755  1.0000
  Ag  Ag3       1.0  0.00000  0.50000  0.89571  1.0000
  Y   Y4        1.0  0.25000  0.75000  0.11121  1.0000
  Ag  Ag4       1.0  0.00000  0.50000  0.03938  1.0000
  Y   Y5        1.0  0.75000  0.25000  0.96755  1.0000
  Ag  Ag5       1.0  0.50000  0.00000  0.89571  1.0000
  Y   Y6        1.0  0.75000  0.25000  0.11121  1.0000
  Ag  Ag6       1.0  0.50000  0.00000  0.03938  1.0000
  Y   Y7        1.0  0.75000  0.75000  0.96755  1.0000
  Ag  Ag7       1.0  0.50000  0.50000  0.89571  1.0000
  Y   Y8        1.0  0.75000  0.75000  0.11121  1.0000
  Ag  Ag8       1.0  0.50000  0.50000  0.03938  1.0000
