# generated using pymatgen
data_Al16Ir16CO
_symmetry_space_group_name_H-M   'P 1'
_cell_length_a   6.03636000
_cell_length_b   8.53670000
_cell_length_c   26.40250000
_cell_angle_alpha   90.00000000
_cell_angle_beta   90.00000000
_cell_angle_gamma   90.00000000
_symmetry_Int_Tables_number   1
_chemical_formula_structural   Al16Ir16CO
_chemical_formula_sum   'Al16 Ir16 C1 O1'
_cell_volume   1360.53651896
_cell_formula_units_Z   1
loop_
 _symmetry_equiv_pos_site_id
 _symmetry_equiv_pos_as_xyz
  1  'x, y, z'
loop_
 _atom_site_type_symbol
 _atom_site_label
 _atom_site_symmetry_multiplicity
 _atom_site_fract_x
 _atom_site_fract_y
 _atom_site_fract_z
 _atom_site_occupancy
  Al  Al0  1  0.00000000  0.75000000  0.87875000  1.0
  Al  Al1  1  0.00000000  0.00000000  0.95958000  1.0
  Al  Al2  1  0.00000000  0.74971000  0.04117000  1.0
  Al  Al3  1  0.00000000  0.00000000  0.13025000  1.0
  Al  Al4  1  0.00000000  0.25000000  0.87875000  1.0
  Al  Al5  1  0.00000000  0.50000000  0.95958000  1.0
  Al  Al6  1  0.00000000  0.25029000  0.04117000  1.0
  Al  Al7  1  0.00000000  0.50000000  0.12418000  1.0
  Al  Al8  1  0.50000000  0.75000000  0.87875000  1.0
  Al  Al9  1  0.50000000  0.00000000  0.95958000  1.0
  Al  Al10  1  0.50000000  0.75013000  0.04092000  1.0
  Al  Al11  1  0.50000000  0.00000000  0.12542000  1.0
  Al  Al12  1  0.50000000  0.25000000  0.87875000  1.0
  Al  Al13  1  0.50000000  0.50000000  0.95958000  1.0
  Al  Al14  1  0.50000000  0.24987000  0.04092000  1.0
  Al  Al15  1  0.50000000  0.50000000  0.12597000  1.0
  Ir  Ir16  1  0.25000000  0.00000000  0.87875000  1.0
  Ir  Ir17  1  0.25000000  0.75000000  0.95958000  1.0
  Ir  Ir18  1  0.24929000  0.00000000  0.03891000  1.0
  Ir  Ir19  1  0.25073000  0.74940000  0.11759000  1.0
  Ir  Ir20  1  0.25000000  0.50000000  0.87875000  1.0
  Ir  Ir21  1  0.25000000  0.25000000  0.95958000  1.0
  Ir  Ir22  1  0.25047000  0.50000000  0.03818000  1.0
  Ir  Ir23  1  0.25073000  0.25060000  0.11759000  1.0
  Ir  Ir24  1  0.75000000  0.00000000  0.87875000  1.0
  Ir  Ir25  1  0.75000000  0.75000000  0.95958000  1.0
  Ir  Ir26  1  0.75071000  0.00000000  0.03891000  1.0
  Ir  Ir27  1  0.74927000  0.74940000  0.11759000  1.0
  Ir  Ir28  1  0.75000000  0.50000000  0.87875000  1.0
  Ir  Ir29  1  0.75000000  0.25000000  0.95958000  1.0
  Ir  Ir30  1  0.74953000  0.50000000  0.03818000  1.0
  Ir  Ir31  1  0.74927000  0.25060000  0.11759000  1.0
  C  C32  1  0.00000000  0.00000000  0.20881000  1.0
  O  O33  1  0.00000000  0.00000000  0.25215000  1.0
