# generated using pymatgen
data_Al16Ir16CO
_symmetry_space_group_name_H-M   Pmm2
_cell_length_a   6.03636000
_cell_length_b   8.53670000
_cell_length_c   26.40250000
_cell_angle_alpha   90.00000000
_cell_angle_beta   90.00000000
_cell_angle_gamma   90.00000000
_symmetry_Int_Tables_number   25
_chemical_formula_structural   Al16Ir16CO
_chemical_formula_sum   'Al16 Ir16 C1 O1'
_cell_volume   1360.53651896
_cell_formula_units_Z   1
loop_
 _symmetry_equiv_pos_site_id
 _symmetry_equiv_pos_as_xyz
  1  'x, y, z'
  2  '-x, -y, z'
  3  '-x, y, z'
  4  'x, -y, z'
loop_
 _atom_site_type_symbol
 _atom_site_label
 _atom_site_symmetry_multiplicity
 _atom_site_fract_x
 _atom_site_fract_y
 _atom_site_fract_z
 _atom_site_occupancy
  Al  Al0  2  0.00000000  0.25000000  0.87875000  1.0
  Al  Al1  2  0.00000000  0.25029000  0.04117000  1.0
  Al  Al2  2  0.50000000  0.24987000  0.04092000  1.0
  Al  Al3  2  0.50000000  0.25000000  0.87875000  1.0
  Al  Al4  1  0.00000000  0.00000000  0.13025000  1.0
  Al  Al5  1  0.00000000  0.00000000  0.95958000  1.0
  Al  Al6  1  0.00000000  0.50000000  0.12418000  1.0
  Al  Al7  1  0.00000000  0.50000000  0.95958000  1.0
  Al  Al8  1  0.50000000  0.00000000  0.12542000  1.0
  Al  Al9  1  0.50000000  0.00000000  0.95958000  1.0
  Al  Al10  1  0.50000000  0.50000000  0.12597000  1.0
  Al  Al11  1  0.50000000  0.50000000  0.95958000  1.0
  Ir  Ir12  4  0.25000000  0.25000000  0.95958000  1.0
  Ir  Ir13  4  0.25073000  0.25060000  0.11759000  1.0
  Ir  Ir14  2  0.24929000  0.00000000  0.03891000  1.0
  Ir  Ir15  2  0.25000000  0.00000000  0.87875000  1.0
  Ir  Ir16  2  0.25000000  0.50000000  0.87875000  1.0
  Ir  Ir17  2  0.25047000  0.50000000  0.03818000  1.0
  C  C18  1  0.00000000  0.00000000  0.20881000  1.0
  O  O19  1  0.00000000  0.00000000  0.25215000  1.0
