data_image0
_chemical_formula_structural       Ta16Ru16C
_chemical_formula_sum              "Ta16 Ru16 C1"
_cell_length_a       6.3521
_cell_length_b       8.98322
_cell_length_c       26.7374
_cell_angle_alpha    90
_cell_angle_beta     90
_cell_angle_gamma    90

_space_group_name_H-M_alt    "P 1"
_space_group_IT_number       1

loop_
  _space_group_symop_operation_xyz
  'x, y, z'

loop_
  _atom_site_type_symbol
  _atom_site_label
  _atom_site_symmetry_multiplicity
  _atom_site_fract_x
  _atom_site_fract_y
  _atom_site_fract_z
  _atom_site_occupancy
  Ta  Ta1       1.0  0.25000  0.25000  0.87401  1.0000
  Ta  Ta2       1.0  0.25000  0.00000  0.95800  1.0000
  Ta  Ta3       1.0  0.25000  0.25000  0.04522  1.0000
  Ta  Ta4       1.0  0.25000  0.01810  0.13103  1.0000
  Ta  Ta5       1.0  0.25000  0.75000  0.87401  1.0000
  Ta  Ta6       1.0  0.25000  0.50000  0.95800  1.0000
  Ta  Ta7       1.0  0.25000  0.75000  0.04616  1.0000
  Ta  Ta8       1.0  0.25000  0.48190  0.13104  1.0000
  Ta  Ta9       1.0  0.75000  0.25000  0.87401  1.0000
  Ta  Ta10      1.0  0.75000  0.00000  0.95800  1.0000
  Ta  Ta11      1.0  0.75000  0.25000  0.03878  1.0000
  Ta  Ta12      1.0  0.75000  0.99333  0.12661  1.0000
  Ta  Ta13      1.0  0.75000  0.75000  0.87401  1.0000
  Ta  Ta14      1.0  0.75000  0.50000  0.95800  1.0000
  Ta  Ta15      1.0  0.75000  0.75000  0.04521  1.0000
  Ta  Ta16      1.0  0.75000  0.50667  0.12661  1.0000
  Ru  Ru1       1.0  0.00000  0.00000  0.87401  1.0000
  Ru  Ru2       1.0  0.00000  0.25000  0.95800  1.0000
  Ru  Ru3       1.0  0.00109  0.99873  0.04339  1.0000
  Ru  Ru4       1.0  0.96744  0.25000  0.11911  1.0000
  Ru  Ru5       1.0  0.00000  0.50000  0.87401  1.0000
  Ru  Ru6       1.0  0.00000  0.75000  0.95800  1.0000
  Ru  Ru7       1.0  0.00109  0.50127  0.04339  1.0000
  Ru  Ru8       1.0  0.00479  0.75000  0.12196  1.0000
  Ru  Ru9       1.0  0.50000  0.00000  0.87401  1.0000
  Ru  Ru10      1.0  0.50000  0.25000  0.95800  1.0000
  Ru  Ru11      1.0  0.49891  0.99873  0.04339  1.0000
  Ru  Ru12      1.0  0.53256  0.25000  0.11911  1.0000
  Ru  Ru13      1.0  0.50000  0.50000  0.87401  1.0000
  Ru  Ru14      1.0  0.50000  0.75000  0.95800  1.0000
  Ru  Ru15      1.0  0.49891  0.50127  0.04339  1.0000
  Ru  Ru16      1.0  0.49521  0.75000  0.12196  1.0000
  C   C1        1.0  0.25000  0.25000  0.15255  1.0000
