# generated using pymatgen
data_Ta16Ru16C
_symmetry_space_group_name_H-M   Pmm2
_cell_length_a   6.35210000
_cell_length_b   8.98322000
_cell_length_c   26.73740000
_cell_angle_alpha   90.00000000
_cell_angle_beta   90.00000000
_cell_angle_gamma   90.00000000
_symmetry_Int_Tables_number   25
_chemical_formula_structural   Ta16Ru16C
_chemical_formula_sum   'Ta16 Ru16 C1'
_cell_volume   1525.69785451
_cell_formula_units_Z   1
loop_
 _symmetry_equiv_pos_site_id
 _symmetry_equiv_pos_as_xyz
  1  'x, y, z'
  2  '-x, -y, z'
  3  '-x, y, z'
  4  'x, -y, z'
loop_
 _atom_site_type_symbol
 _atom_site_label
 _atom_site_symmetry_multiplicity
 _atom_site_fract_x
 _atom_site_fract_y
 _atom_site_fract_z
 _atom_site_occupancy
  Ta  Ta0  2  0.00000000  0.23190000  0.13103000  1.0
  Ta  Ta1  2  0.00000000  0.25000000  0.95800000  1.0
  Ta  Ta2  2  0.50000000  0.25000000  0.95800000  1.0
  Ta  Ta3  2  0.50000000  0.25667000  0.12661000  1.0
  Ta  Ta4  1  0.00000000  0.00000000  0.04522000  1.0
  Ta  Ta5  1  0.00000000  0.00000000  0.87401000  1.0
  Ta  Ta6  1  0.00000000  0.50000000  0.04616000  1.0
  Ta  Ta7  1  0.00000000  0.50000000  0.87401000  1.0
  Ta  Ta8  1  0.50000000  0.00000000  0.03878000  1.0
  Ta  Ta9  1  0.50000000  0.00000000  0.87401000  1.0
  Ta  Ta10  1  0.50000000  0.50000000  0.04521000  1.0
  Ta  Ta11  1  0.50000000  0.50000000  0.87401000  1.0
  Ru  Ru12  4  0.24891000  0.25127000  0.04339000  1.0
  Ru  Ru13  4  0.25000000  0.25000000  0.87401000  1.0
  Ru  Ru14  2  0.24521000  0.50000000  0.12196000  1.0
  Ru  Ru15  2  0.25000000  0.00000000  0.95800000  1.0
  Ru  Ru16  2  0.25000000  0.50000000  0.95800000  1.0
  Ru  Ru17  2  0.28256000  0.00000000  0.11911000  1.0
  C  C18  1  0.00000000  0.00000000  0.15255000  1.0
