data_image0
_chemical_formula_structural       Al16Ru16C
_chemical_formula_sum              "Al16 Ru16 C1"
_cell_length_a       6.00621
_cell_length_b       8.49407
_cell_length_c       26.3705
_cell_angle_alpha    90
_cell_angle_beta     90
_cell_angle_gamma    90

_space_group_name_H-M_alt    "P 1"
_space_group_IT_number       1

loop_
  _space_group_symop_operation_xyz
  'x, y, z'

loop_
  _atom_site_type_symbol
  _atom_site_label
  _atom_site_symmetry_multiplicity
  _atom_site_fract_x
  _atom_site_fract_y
  _atom_site_fract_z
  _atom_site_occupancy
  Al  Al1       1.0  0.00000  0.00000  0.87921  1.0000
  Al  Al2       1.0  0.00000  0.25000  0.95974  1.0000
  Al  Al3       1.0  1.00000  1.00000  0.03969  1.0000
  Al  Al4       1.0  1.00000  0.25596  0.12129  1.0000
  Al  Al5       1.0  0.00000  0.50000  0.87921  1.0000
  Al  Al6       1.0  0.00000  0.75000  0.95974  1.0000
  Al  Al7       1.0  0.00000  0.50000  0.03998  1.0000
  Al  Al8       1.0  0.00000  0.74404  0.12129  1.0000
  Al  Al9       1.0  0.50000  0.00000  0.87921  1.0000
  Al  Al10      1.0  0.50000  0.25000  0.95974  1.0000
  Al  Al11      1.0  0.50000  1.00000  0.03661  1.0000
  Al  Al12      1.0  0.50000  0.25237  0.12096  1.0000
  Al  Al13      1.0  0.50000  0.50000  0.87921  1.0000
  Al  Al14      1.0  0.50000  0.75000  0.95974  1.0000
  Al  Al15      1.0  0.50000  0.50000  0.03981  1.0000
  Al  Al16      1.0  0.50000  0.74763  0.12096  1.0000
  Ru  Ru1       1.0  0.25000  0.25000  0.87921  1.0000
  Ru  Ru2       1.0  0.25000  0.00000  0.95974  1.0000
  Ru  Ru3       1.0  0.24863  0.24849  0.04041  1.0000
  Ru  Ru4       1.0  0.25266  0.50000  0.12034  1.0000
  Ru  Ru5       1.0  0.25000  0.75000  0.87921  1.0000
  Ru  Ru6       1.0  0.25000  0.50000  0.95974  1.0000
  Ru  Ru7       1.0  0.24863  0.75150  0.04041  1.0000
  Ru  Ru8       1.0  0.25026  1.00000  0.12291  1.0000
  Ru  Ru9       1.0  0.75000  0.25000  0.87921  1.0000
  Ru  Ru10      1.0  0.75000  0.00000  0.95974  1.0000
  Ru  Ru11      1.0  0.75137  0.24849  0.04041  1.0000
  Ru  Ru12      1.0  0.74734  0.50000  0.12034  1.0000
  Ru  Ru13      1.0  0.75000  0.75000  0.87921  1.0000
  Ru  Ru14      1.0  0.75000  0.50000  0.95974  1.0000
  Ru  Ru15      1.0  0.75137  0.75150  0.04041  1.0000
  Ru  Ru16      1.0  0.74974  1.00000  0.12291  1.0000
  C   C1        1.0  1.00000  0.00000  0.16397  1.0000
