# generated using pymatgen
data_Y8Pb24C
_symmetry_space_group_name_H-M   Pmm2
_cell_length_a   9.91485000
_cell_length_b   9.91485000
_cell_length_c   27.43610000
_cell_angle_alpha   90.00000000
_cell_angle_beta   90.00000000
_cell_angle_gamma   90.00000000
_symmetry_Int_Tables_number   25
_chemical_formula_structural   Y8Pb24C
_chemical_formula_sum   'Y8 Pb24 C1'
_cell_volume   2697.08524776
_cell_formula_units_Z   1
loop_
 _symmetry_equiv_pos_site_id
 _symmetry_equiv_pos_as_xyz
  1  'x, y, z'
  2  '-x, -y, z'
  3  '-x, y, z'
  4  'x, -y, z'
loop_
 _atom_site_type_symbol
 _atom_site_label
 _atom_site_symmetry_multiplicity
 _atom_site_fract_x
 _atom_site_fract_y
 _atom_site_fract_z
 _atom_site_occupancy
  Y  Y0  2  0.25000000  0.00000000  0.13552000  1.0
  Y  Y1  2  0.25000000  0.00000000  0.95483000  1.0
  Y  Y2  2  0.25000000  0.50000000  0.13552000  1.0
  Y  Y3  2  0.25000000  0.50000000  0.95483000  1.0
  Pb  Pb4  4  0.25000000  0.25000000  0.04517000  1.0
  Pb  Pb5  4  0.25000000  0.25000000  0.86448000  1.0
  Pb  Pb6  2  0.00000000  0.25000000  0.13552000  1.0
  Pb  Pb7  2  0.00000000  0.25000000  0.95483000  1.0
  Pb  Pb8  2  0.50000000  0.25000000  0.13552000  1.0
  Pb  Pb9  2  0.50000000  0.25000000  0.95483000  1.0
  Pb  Pb10  1  0.00000000  0.00000000  0.04517000  1.0
  Pb  Pb11  1  0.00000000  0.00000000  0.86448000  1.0
  Pb  Pb12  1  0.00000000  0.50000000  0.04517000  1.0
  Pb  Pb13  1  0.00000000  0.50000000  0.86448000  1.0
  Pb  Pb14  1  0.50000000  0.00000000  0.04517000  1.0
  Pb  Pb15  1  0.50000000  0.00000000  0.86448000  1.0
  Pb  Pb16  1  0.50000000  0.50000000  0.04517000  1.0
  Pb  Pb17  1  0.50000000  0.50000000  0.86448000  1.0
  C  C18  1  0.00000000  0.00000000  0.16468000  1.0
