data_image0
_chemical_formula_structural       Zr8Rh24CO
_chemical_formula_sum              "Zr8 Rh24 C1 O1"
_cell_length_a       7.95743
_cell_length_b       7.95743
_cell_length_c       25.9681
_cell_angle_alpha    90
_cell_angle_beta     90
_cell_angle_gamma    90

_space_group_name_H-M_alt    "P 1"
_space_group_IT_number       1

loop_
  _space_group_symop_operation_xyz
  'x, y, z'

loop_
  _atom_site_type_symbol
  _atom_site_label
  _atom_site_symmetry_multiplicity
  _atom_site_fract_x
  _atom_site_fract_y
  _atom_site_fract_z
  _atom_site_occupancy
  Zr  Zr1       1.0  0.99713  0.99713  0.11000  1.0000
  Zr  Zr2       1.0  0.00000  0.00000  0.96170  1.0000
  Zr  Zr3       1.0  0.99713  0.50288  0.11000  1.0000
  Zr  Zr4       1.0  0.00000  0.50000  0.96170  1.0000
  Zr  Zr5       1.0  0.50287  0.99713  0.11000  1.0000
  Zr  Zr6       1.0  0.50000  0.00000  0.96170  1.0000
  Zr  Zr7       1.0  0.50287  0.50288  0.11000  1.0000
  Zr  Zr8       1.0  0.50000  0.50000  0.96170  1.0000
  Rh  Rh1       1.0  0.00003  0.24998  0.03880  1.0000
  Rh  Rh2       1.0  0.24998  0.99998  0.03879  1.0000
  Rh  Rh3       1.0  0.25001  0.25003  0.11778  1.0000
  Rh  Rh4       1.0  0.00000  0.25000  0.88509  1.0000
  Rh  Rh5       1.0  0.25000  0.00000  0.88509  1.0000
  Rh  Rh6       1.0  0.25000  0.25000  0.96170  1.0000
  Rh  Rh7       1.0  0.99947  0.75002  0.03809  1.0000
  Rh  Rh8       1.0  0.25002  0.50002  0.03880  1.0000
  Rh  Rh9       1.0  0.24999  0.74994  0.11346  1.0000
  Rh  Rh10      1.0  0.00000  0.75000  0.88509  1.0000
  Rh  Rh11      1.0  0.25000  0.50000  0.88509  1.0000
  Rh  Rh12      1.0  0.25000  0.75000  0.96170  1.0000
  Rh  Rh13      1.0  0.49997  0.25002  0.03881  1.0000
  Rh  Rh14      1.0  0.75002  0.99940  0.03812  1.0000
  Rh  Rh15      1.0  0.74998  0.24994  0.11347  1.0000
  Rh  Rh16      1.0  0.50000  0.25000  0.88509  1.0000
  Rh  Rh17      1.0  0.75000  0.00000  0.88509  1.0000
  Rh  Rh18      1.0  0.75000  0.25000  0.96170  1.0000
  Rh  Rh19      1.0  0.50053  0.74998  0.03809  1.0000
  Rh  Rh20      1.0  0.74999  0.50061  0.03810  1.0000
  Rh  Rh21      1.0  0.75000  0.75002  0.11470  1.0000
  Rh  Rh22      1.0  0.50000  0.75000  0.88509  1.0000
  Rh  Rh23      1.0  0.75000  0.50000  0.88509  1.0000
  Rh  Rh24      1.0  0.75000  0.75000  0.96170  1.0000
  C   C1        1.0  0.25000  0.25000  0.18916  1.0000
  O   O1        1.0  0.24999  0.25000  0.23412  1.0000
