# generated using pymatgen
data_Zr8Rh24CO
_symmetry_space_group_name_H-M   Pm
_cell_length_a   7.95743000
_cell_length_b   7.95743000
_cell_length_c   25.96810000
_cell_angle_alpha   90.00000000
_cell_angle_beta   90.00000000
_cell_angle_gamma   90.00000000
_symmetry_Int_Tables_number   6
_chemical_formula_structural   Zr8Rh24CO
_chemical_formula_sum   'Zr8 Rh24 C1 O1'
_cell_volume   1644.31806725
_cell_formula_units_Z   1
loop_
 _symmetry_equiv_pos_site_id
 _symmetry_equiv_pos_as_xyz
  1  'x, y, z'
  2  '-y+3/4, x+1/4, z'
  3  '-x+1/2, -y, z'
  4  'y+3/4, -x+3/4, z'
  5  '-x+1/2, y, z'
  6  'y+3/4, x+1/4, z'
  7  'x, -y, z'
  8  '-y+3/4, -x+3/4, z'
loop_
 _atom_site_type_symbol
 _atom_site_label
 _atom_site_symmetry_multiplicity
 _atom_site_fract_x
 _atom_site_fract_y
 _atom_site_fract_z
 _atom_site_occupancy
  Zr  Zr0  4  0.00000000  0.25000000  0.96170000  1.0
  Zr  Zr1  4  0.50288000  0.24713000  0.11000000  1.0
  Rh  Rh2  4  0.00000000  0.00000000  0.88509000  1.0
  Rh  Rh3  4  0.00000000  0.50000000  0.88509000  1.0
  Rh  Rh4  4  0.24998000  0.25003000  0.03880000  1.0
  Rh  Rh5  4  0.50061000  0.00000000  0.03810000  1.0
  Rh  Rh6  2  0.24994000  0.00000000  0.11347000  1.0
  Rh  Rh7  2  0.25000000  0.00000000  0.96170000  1.0
  Rh  Rh8  1  0.25000000  0.50000000  0.96170000  1.0
  Rh  Rh9  1  0.25003000  0.50000000  0.11778000  1.0
  Rh  Rh10  1  0.75000000  0.00000000  0.96170000  1.0
  Rh  Rh11  1  0.75002000  0.00000000  0.11470000  1.0
  C  C12  1  0.25000000  0.50000000  0.18916000  1.0
  O  O13  1  0.25000000  0.50000000  0.23412000  1.0
