# generated using pymatgen
data_Al16Ni16C
_symmetry_space_group_name_H-M   Pmm2
_cell_length_a   5.79956000
_cell_length_b   8.20182000
_cell_length_c   26.15140000
_cell_angle_alpha   90.00000000
_cell_angle_beta   90.00000000
_cell_angle_gamma   90.00000000
_symmetry_Int_Tables_number   25
_chemical_formula_structural   Al16Ni16C
_chemical_formula_sum   'Al16 Ni16 C1'
_cell_volume   1243.94226299
_cell_formula_units_Z   1
loop_
 _symmetry_equiv_pos_site_id
 _symmetry_equiv_pos_as_xyz
  1  'x, y, z'
  2  '-x, -y, z'
  3  '-x, y, z'
  4  'x, -y, z'
loop_
 _atom_site_type_symbol
 _atom_site_label
 _atom_site_symmetry_multiplicity
 _atom_site_fract_x
 _atom_site_fract_y
 _atom_site_fract_z
 _atom_site_occupancy
  Al  Al0  2  0.00000000  0.24739000  0.12242000  1.0
  Al  Al1  2  0.00000000  0.25000000  0.96080000  1.0
  Al  Al2  2  0.50000000  0.25000000  0.96080000  1.0
  Al  Al3  2  0.50000000  0.26275000  0.12046000  1.0
  Al  Al4  1  0.00000000  0.00000000  0.04291000  1.0
  Al  Al5  1  0.00000000  0.00000000  0.88239000  1.0
  Al  Al6  1  0.00000000  0.50000000  0.03766000  1.0
  Al  Al7  1  0.00000000  0.50000000  0.88239000  1.0
  Al  Al8  1  0.50000000  0.00000000  0.03715000  1.0
  Al  Al9  1  0.50000000  0.00000000  0.88239000  1.0
  Al  Al10  1  0.50000000  0.50000000  0.03923000  1.0
  Al  Al11  1  0.50000000  0.50000000  0.88239000  1.0
  Ni  Ni12  4  0.24789000  0.25116000  0.03897000  1.0
  Ni  Ni13  4  0.25000000  0.25000000  0.88239000  1.0
  Ni  Ni14  2  0.23867000  0.50000000  0.11372000  1.0
  Ni  Ni15  2  0.25000000  0.00000000  0.96080000  1.0
  Ni  Ni16  2  0.25000000  0.50000000  0.96080000  1.0
  Ni  Ni17  2  0.29571000  0.00000000  0.11747000  1.0
  C  C18  1  0.00000000  0.00000000  0.13581000  1.0
