# generated using pymatgen
data_Nb8Al8Ni16C
_symmetry_space_group_name_H-M   'P 1'
_cell_length_a   6.00915000
_cell_length_b   8.49821000
_cell_length_c   26.37370000
_cell_angle_alpha   90.00000000
_cell_angle_beta   90.00000000
_cell_angle_gamma   90.00000000
_symmetry_Int_Tables_number   1
_chemical_formula_structural   Nb8Al8Ni16C
_chemical_formula_sum   'Nb8 Al8 Ni16 C1'
_cell_volume   1346.82622902
_cell_formula_units_Z   1
loop_
 _symmetry_equiv_pos_site_id
 _symmetry_equiv_pos_as_xyz
  1  'x, y, z'
loop_
 _atom_site_type_symbol
 _atom_site_label
 _atom_site_symmetry_multiplicity
 _atom_site_fract_x
 _atom_site_fract_y
 _atom_site_fract_z
 _atom_site_occupancy
  Nb  Nb0  1  0.00000000  0.00000000  0.87917000  1.0
  Nb  Nb1  1  0.50000000  0.25000000  0.95972000  1.0
  Nb  Nb2  1  0.50000000  0.75000000  0.95972000  1.0
  Nb  Nb3  1  0.00000000  0.50000000  0.87917000  1.0
  Nb  Nb4  1  0.00009000  0.50809000  0.04394000  1.0
  Nb  Nb5  1  0.45374000  0.74998000  0.12057000  1.0
  Nb  Nb6  1  0.49605000  0.24995000  0.11493000  1.0
  Nb  Nb7  1  0.00019000  0.99198000  0.04389000  1.0
  Al  Al8  1  0.00000000  0.75000000  0.95972000  1.0
  Al  Al9  1  0.50000000  0.00000000  0.87917000  1.0
  Al  Al10  1  0.00000000  0.25000000  0.95972000  1.0
  Al  Al11  1  0.50000000  0.50000000  0.87917000  1.0
  Al  Al12  1  0.95186000  0.25005000  0.12197000  1.0
  Al  Al13  1  0.49238000  0.49575000  0.04020000  1.0
  Al  Al14  1  0.98555000  0.74996000  0.12273000  1.0
  Al  Al15  1  0.49240000  0.00444000  0.04022000  1.0
  Ni  Ni16  1  0.25000000  0.00000000  0.95972000  1.0
  Ni  Ni17  1  0.75000000  0.50000000  0.95972000  1.0
  Ni  Ni18  1  0.75000000  0.00000000  0.95972000  1.0
  Ni  Ni19  1  0.25000000  0.50000000  0.95972000  1.0
  Ni  Ni20  1  0.75000000  0.75000000  0.87917000  1.0
  Ni  Ni21  1  0.25000000  0.25000000  0.87917000  1.0
  Ni  Ni22  1  0.25000000  0.75000000  0.87917000  1.0
  Ni  Ni23  1  0.75000000  0.25000000  0.87917000  1.0
  Ni  Ni24  1  0.20948000  0.48661000  0.13106000  1.0
  Ni  Ni25  1  0.72902000  0.99043000  0.11631000  1.0
  Ni  Ni26  1  0.72931000  0.50956000  0.11636000  1.0
  Ni  Ni27  1  0.20913000  0.01316000  0.13113000  1.0
  Ni  Ni28  1  0.77611000  0.24991000  0.03372000  1.0
  Ni  Ni29  1  0.26611000  0.75026000  0.03657000  1.0
  Ni  Ni30  1  0.23013000  0.24991000  0.03643000  1.0
  Ni  Ni31  1  0.72040000  0.75022000  0.04608000  1.0
  C  C32  1  0.23292000  0.24997000  0.15740000  1.0
