# generated using pymatgen
data_Zr4Al4Cu8CO
_symmetry_space_group_name_H-M   P1
_cell_length_a   6.27295000
_cell_length_b   6.27295000
_cell_length_c   24.70470000
_cell_angle_alpha   90.00000000
_cell_angle_beta   90.00000000
_cell_angle_gamma   90.00000000
_symmetry_Int_Tables_number   1
_chemical_formula_structural   Zr4Al4Cu8CO
_chemical_formula_sum   'Zr4 Al4 Cu8 C1 O1'
_cell_volume   972.12751659
_cell_formula_units_Z   1
loop_
 _symmetry_equiv_pos_site_id
 _symmetry_equiv_pos_as_xyz
  1  'x, y, z'
loop_
 _atom_site_type_symbol
 _atom_site_label
 _atom_site_symmetry_multiplicity
 _atom_site_fract_x
 _atom_site_fract_y
 _atom_site_fract_z
 _atom_site_occupancy
  Zr  Zr0  1  0.00000000  0.00000000  0.90478000  1.0
  Zr  Zr1  1  0.00214000  0.49786000  0.03273000  1.0
  Zr  Zr2  1  0.49787000  0.00221000  0.03274000  1.0
  Zr  Zr3  1  0.50000000  0.50000000  0.90478000  1.0
  Al  Al4  1  0.00000000  0.50000000  0.90478000  1.0
  Al  Al5  1  0.00186000  0.00186000  0.03582000  1.0
  Al  Al6  1  0.49800000  0.49798000  0.03596000  1.0
  Al  Al7  1  0.50000000  0.00000000  0.90478000  1.0
  Cu  Cu8  1  0.24940000  0.24964000  0.10238000  1.0
  Cu  Cu9  1  0.24998000  0.74998000  0.09629000  1.0
  Cu  Cu10  1  0.25000000  0.25000000  0.96826000  1.0
  Cu  Cu11  1  0.25000000  0.75000000  0.96826000  1.0
  Cu  Cu12  1  0.75000000  0.25000000  0.96826000  1.0
  Cu  Cu13  1  0.75000000  0.75000000  0.96826000  1.0
  Cu  Cu14  1  0.75006000  0.75001000  0.09556000  1.0
  Cu  Cu15  1  0.75008000  0.25003000  0.09630000  1.0
  C  C16  1  0.24839000  0.24826000  0.17891000  1.0
  O  O17  1  0.24846000  0.24841000  0.22535000  1.0
