# generated using pymatgen
data_Li4Cu4Ge4Pd4C
_symmetry_space_group_name_H-M   'P 1'
_cell_length_a   6.04231000
_cell_length_b   6.04231000
_cell_length_c   24.53170000
_cell_angle_alpha   90.00000000
_cell_angle_beta   90.00000000
_cell_angle_gamma   90.00000000
_symmetry_Int_Tables_number   1
_chemical_formula_structural   Li4Cu4Ge4Pd4C
_chemical_formula_sum   'Li4 Cu4 Ge4 Pd4 C1'
_cell_volume   895.64034981
_cell_formula_units_Z   1
loop_
 _symmetry_equiv_pos_site_id
 _symmetry_equiv_pos_as_xyz
  1  'x, y, z'
loop_
 _atom_site_type_symbol
 _atom_site_label
 _atom_site_symmetry_multiplicity
 _atom_site_fract_x
 _atom_site_fract_y
 _atom_site_fract_z
 _atom_site_occupancy
  Li  Li0  1  0.25066000  0.74925000  0.96439000  1
  Li  Li1  1  0.25000000  0.25000000  0.09236000  1
  Li  Li2  1  0.75000000  0.75000000  0.09236000  1
  Li  Li3  1  0.74925000  0.25066000  0.96439000  1
  Cu  Cu4  1  0.98663500  0.98663500  0.90117000  1
  Cu  Cu5  1  1.00000000  0.50000000  0.03079000  1
  Cu  Cu6  1  0.50000000  0.00000000  0.03079000  1
  Cu  Cu7  1  0.51383000  0.51383000  0.90113000  1
  Ge  Ge8  1  0.75019000  0.75019000  0.97938000  1
  Ge  Ge9  1  0.75000000  0.25000000  0.09236000  1
  Ge  Ge10  1  0.25000000  0.75000000  0.09236000  1
  Ge  Ge11  1  0.24984000  0.24984000  0.96071000  1
  Pd  Pd12  1  0.00169000  0.49826000  0.90089000  1
  Pd  Pd13  1  0.00000000  0.00000000  0.03079000  1
  Pd  Pd14  1  0.50000000  0.50000000  0.03079000  1
  Pd  Pd15  1  0.49826000  0.00169000  0.90089000  1
  C  C16  1  0.75029000  0.75029000  0.89840000  1
