# generated using pymatgen
data_Li4Cu4Ge4Pd4C
_symmetry_space_group_name_H-M   Cm
_cell_length_a   8.54511675
_cell_length_b   8.54511675
_cell_length_c   24.53170000
_cell_angle_alpha   90.00000000
_cell_angle_beta   90.00000000
_cell_angle_gamma   90.00000000
_symmetry_Int_Tables_number   8
_chemical_formula_structural   Li4Cu4Ge4Pd4C
_chemical_formula_sum   'Li8 Cu8 Ge8 Pd8 C2'
_cell_volume   1791.28069961
_cell_formula_units_Z   2
loop_
 _symmetry_equiv_pos_site_id
 _symmetry_equiv_pos_as_xyz
  1  'x, y, z'
  2  'x, -y, z'
  3  'x+1/2, y+1/2, z'
  4  'x+1/2, -y+1/2, z'
loop_
 _atom_site_type_symbol
 _atom_site_label
 _atom_site_symmetry_multiplicity
 _atom_site_fract_x
 _atom_site_fract_y
 _atom_site_fract_z
 _atom_site_occupancy
  Li  Li0  4  0.49995500  0.24929500  0.03561000  1.0
  Li  Li1  2  0.25000000  0.50000000  0.90764000  1.0
  Li  Li2  2  0.25000000  0.00000000  0.90764000  1.0
  Cu  Cu3  4  0.25000000  0.25000000  0.96921000  1.0
  Cu  Cu4  2  0.01383000  0.50000000  0.09887000  1.0
  Cu  Cu5  2  0.48663500  0.50000000  0.09883000  1.0
  Ge  Ge6  4  0.00000000  0.25000000  0.90764000  1.0
  Ge  Ge7  2  0.24984000  0.00000000  0.03929000  1.0
  Ge  Ge8  2  0.25019000  0.50000000  0.02062000  1.0
  Pd  Pd9  4  0.24997500  0.24828500  0.09911000  1.0
  Pd  Pd10  2  0.00000000  0.00000000  0.96921000  1.0
  Pd  Pd11  2  0.00000000  0.50000000  0.96921000  1.0
  C  C12  2  0.25029000  0.50000000  0.10160000  1.0
