data_image0
_chemical_formula_structural       Li8Mg8In8Au8C
_chemical_formula_sum              "Li8 Mg8 In8 Au8 C1"
_cell_length_a       6.64779
_cell_length_b       9.4014
_cell_length_c       27.0511
_cell_angle_alpha    90
_cell_angle_beta     90
_cell_angle_gamma    90

_space_group_name_H-M_alt    "P 1"
_space_group_IT_number       1

loop_
  _space_group_symop_operation_xyz
  'x, y, z'

loop_
  _atom_site_type_symbol
  _atom_site_label
  _atom_site_symmetry_multiplicity
  _atom_site_fract_x
  _atom_site_fract_y
  _atom_site_fract_z
  _atom_site_occupancy
  Li  Li1       1.0  0.00000  0.25000  0.95656  1.0000
  Li  Li2       1.0  0.00000  0.75000  0.95656  1.0000
  Li  Li3       1.0  0.50000  0.50000  0.86967  1.0000
  Li  Li4       1.0  0.50000  0.00000  0.86967  1.0000
  Li  Li5       1.0  0.04166  0.73347  0.13573  1.0000
  Li  Li6       1.0  0.04166  0.26653  0.13573  1.0000
  Li  Li7       1.0  0.47073  0.00000  0.06447  1.0000
  Li  Li8       1.0  0.48139  0.50000  0.05006  1.0000
  Mg  Mg1       1.0  0.75000  0.00000  0.95656  1.0000
  Mg  Mg2       1.0  0.75000  0.50000  0.95656  1.0000
  Mg  Mg3       1.0  0.25000  0.25000  0.86967  1.0000
  Mg  Mg4       1.0  0.25000  0.75000  0.86967  1.0000
  Mg  Mg5       1.0  0.73394  0.50000  0.13338  1.0000
  Mg  Mg6       1.0  0.80436  0.00000  0.13565  1.0000
  Mg  Mg7       1.0  0.24517  0.74906  0.04229  1.0000
  Mg  Mg8       1.0  0.24517  0.25093  0.04229  1.0000
  In  In1       1.0  0.25000  0.00000  0.95656  1.0000
  In  In2       1.0  0.25000  0.50000  0.95656  1.0000
  In  In3       1.0  0.75000  0.25000  0.86967  1.0000
  In  In4       1.0  0.75000  0.75000  0.86967  1.0000
  In  In5       1.0  0.27254  0.50000  0.15282  1.0000
  In  In6       1.0  0.20207  0.00000  0.17739  1.0000
  In  In7       1.0  0.75373  0.75123  0.04758  1.0000
  In  In8       1.0  0.75373  0.24877  0.04758  1.0000
  Au  Au1       1.0  0.00000  0.00000  0.86967  1.0000
  Au  Au2       1.0  0.00000  0.50000  0.86967  1.0000
  Au  Au3       1.0  0.50000  0.75000  0.95656  1.0000
  Au  Au4       1.0  0.50000  0.25000  0.95656  1.0000
  Au  Au5       1.0  0.00889  0.50000  0.04809  1.0000
  Au  Au6       1.0  0.00938  0.00000  0.04387  1.0000
  Au  Au7       1.0  0.47428  0.23665  0.12855  1.0000
  Au  Au8       1.0  0.47428  0.76335  0.12855  1.0000
  C   C1        1.0  0.49585  0.00000  0.14600  1.0000
