# generated using pymatgen
data_Li8Mg8In8Au8C
_symmetry_space_group_name_H-M   Pm
_cell_length_a   6.64779000
_cell_length_b   9.40140000
_cell_length_c   27.05110000
_cell_angle_alpha   90.00000000
_cell_angle_beta   90.00000000
_cell_angle_gamma   90.00000000
_symmetry_Int_Tables_number   6
_chemical_formula_structural   Li8Mg8In8Au8C
_chemical_formula_sum   'Li8 Mg8 In8 Au8 C1'
_cell_volume   1690.65406349
_cell_formula_units_Z   1
loop_
 _symmetry_equiv_pos_site_id
 _symmetry_equiv_pos_as_xyz
  1  'x, y, z'
  2  'x, -y, z'
loop_
 _atom_site_type_symbol
 _atom_site_label
 _atom_site_symmetry_multiplicity
 _atom_site_fract_x
 _atom_site_fract_y
 _atom_site_fract_z
 _atom_site_occupancy
  Li  Li0  2  0.00000000  0.25000000  0.95656000  1.0
  Li  Li1  2  0.04166000  0.26653000  0.13573000  1.0
  Li  Li2  1  0.47073000  0.00000000  0.06447000  1.0
  Li  Li3  1  0.48139000  0.50000000  0.05006000  1.0
  Li  Li4  1  0.50000000  0.00000000  0.86967000  1.0
  Li  Li5  1  0.50000000  0.50000000  0.86967000  1.0
  Mg  Mg6  2  0.24517000  0.25094000  0.04229000  1.0
  Mg  Mg7  2  0.25000000  0.25000000  0.86967000  1.0
  Mg  Mg8  1  0.73394000  0.50000000  0.13338000  1.0
  Mg  Mg9  1  0.75000000  0.00000000  0.95656000  1.0
  Mg  Mg10  1  0.75000000  0.50000000  0.95656000  1.0
  Mg  Mg11  1  0.80436000  0.00000000  0.13565000  1.0
  In  In12  2  0.75000000  0.25000000  0.86967000  1.0
  In  In13  2  0.75373000  0.24877000  0.04758000  1.0
  In  In14  1  0.20207000  0.00000000  0.17739000  1.0
  In  In15  1  0.25000000  0.00000000  0.95656000  1.0
  In  In16  1  0.25000000  0.50000000  0.95656000  1.0
  In  In17  1  0.27254000  0.50000000  0.15282000  1.0
  Au  Au18  2  0.47428000  0.23665000  0.12855000  1.0
  Au  Au19  2  0.50000000  0.25000000  0.95656000  1.0
  Au  Au20  1  0.00000000  0.00000000  0.86967000  1.0
  Au  Au21  1  0.00000000  0.50000000  0.86967000  1.0
  Au  Au22  1  0.00889000  0.50000000  0.04809000  1.0
  Au  Au23  1  0.00938000  0.00000000  0.04387000  1.0
  C  C24  1  0.49585000  0.00000000  0.14600000  1.0
