data_image0
_chemical_formula_structural       Li8Nb8Al8Pd8C
_chemical_formula_sum              "Li8 Nb8 Al8 Pd8 C1"
_cell_length_a       6.26744
_cell_length_b       8.8635
_cell_length_c       26.6476
_cell_angle_alpha    90
_cell_angle_beta     90
_cell_angle_gamma    90

_space_group_name_H-M_alt    "P 1"
_space_group_IT_number       1

loop_
  _space_group_symop_operation_xyz
  'x, y, z'

loop_
  _atom_site_type_symbol
  _atom_site_label
  _atom_site_symmetry_multiplicity
  _atom_site_fract_x
  _atom_site_fract_y
  _atom_site_fract_z
  _atom_site_occupancy
  Li  Li1       1.0  0.25000  0.00000  0.95842  1.0000
  Li  Li2       1.0  0.25000  0.50000  0.95842  1.0000
  Li  Li3       1.0  0.75000  0.25000  0.87527  1.0000
  Li  Li4       1.0  0.75000  0.75000  0.87527  1.0000
  Li  Li5       1.0  0.29371  0.50000  0.16227  1.0000
  Li  Li6       1.0  0.37523  1.00000  0.17429  1.0000
  Li  Li7       1.0  0.76426  0.74976  0.04457  1.0000
  Li  Li8       1.0  0.76425  0.25024  0.04457  1.0000
  Nb  Nb1       1.0  0.00000  0.25000  0.95842  1.0000
  Nb  Nb2       1.0  0.00000  0.75000  0.95842  1.0000
  Nb  Nb3       1.0  0.50000  0.50000  0.87527  1.0000
  Nb  Nb4       1.0  0.50000  0.00000  0.87527  1.0000
  Nb  Nb5       1.0  0.05466  0.78538  0.12596  1.0000
  Nb  Nb6       1.0  0.05466  0.21463  0.12596  1.0000
  Nb  Nb7       1.0  0.48257  0.00000  0.04487  1.0000
  Nb  Nb8       1.0  0.49709  0.50000  0.04598  1.0000
  Al  Al1       1.0  0.00000  0.00000  0.87527  1.0000
  Al  Al2       1.0  0.00000  0.50000  0.87527  1.0000
  Al  Al3       1.0  0.50000  0.75000  0.95842  1.0000
  Al  Al4       1.0  0.50000  0.25000  0.95842  1.0000
  Al  Al5       1.0  0.01236  0.50000  0.04409  1.0000
  Al  Al6       1.0  0.00224  0.00000  0.04026  1.0000
  Al  Al7       1.0  0.51797  0.25536  0.12300  1.0000
  Al  Al8       1.0  0.51797  0.74464  0.12300  1.0000
  Pd  Pd1       1.0  0.75000  0.00000  0.95842  1.0000
  Pd  Pd2       1.0  0.75000  0.50000  0.95842  1.0000
  Pd  Pd3       1.0  0.25000  0.25000  0.87527  1.0000
  Pd  Pd4       1.0  0.25000  0.75000  0.87527  1.0000
  Pd  Pd5       1.0  0.77953  0.50000  0.12071  1.0000
  Pd  Pd6       1.0  0.73735  0.00000  0.11701  1.0000
  Pd  Pd7       1.0  0.24986  0.74803  0.03727  1.0000
  Pd  Pd8       1.0  0.24986  0.25197  0.03727  1.0000
  C   C1        1.0  0.06329  0.00000  0.15148  1.0000
