# generated using pymatgen
data_Zn8Pt8CO
_symmetry_space_group_name_H-M   P4mm
_cell_length_a   5.78908000
_cell_length_b   5.78908000
_cell_length_c   25.36900000
_cell_angle_alpha   90.00000000
_cell_angle_beta   90.00000000
_cell_angle_gamma   90.00000000
_symmetry_Int_Tables_number   99
_chemical_formula_structural   Zn8Pt8CO
_chemical_formula_sum   'Zn8 Pt8 C1 O1'
_cell_volume   850.20264319
_cell_formula_units_Z   1
loop_
 _symmetry_equiv_pos_site_id
 _symmetry_equiv_pos_as_xyz
  1  'x, y, z'
  2  '-y, x, z'
  3  '-x, -y, z'
  4  'y, -x, z'
  5  '-x, y, z'
  6  'y, x, z'
  7  'x, -y, z'
  8  '-y, -x, z'
loop_
 _atom_site_type_symbol
 _atom_site_label
 _atom_site_symmetry_multiplicity
 _atom_site_fract_x
 _atom_site_fract_y
 _atom_site_fract_z
 _atom_site_occupancy
  Zn  Zn0  4  0.25000000  0.25000000  0.05284000  1.0
  Zn  Zn1  4  0.25000000  0.25000000  0.91175000  1.0
  Pt  Pt2  2  0.00000000  0.50000000  0.12338000  1.0
  Pt  Pt3  2  0.00000000  0.50000000  0.98229000  1.0
  Pt  Pt4  1  0.00000000  0.00000000  0.12338000  1.0
  Pt  Pt5  1  0.00000000  0.00000000  0.98229000  1.0
  Pt  Pt6  1  0.50000000  0.50000000  0.12338000  1.0
  Pt  Pt7  1  0.50000000  0.50000000  0.98229000  1.0
  C  C8  1  0.00000000  0.00000000  0.19828000  1.0
  O  O9  1  0.00000000  0.00000000  0.24361000  1.0
