# generated using pymatgen
data_Li8In16Ru8CO
_symmetry_space_group_name_H-M   'P 1'
_cell_length_a   6.56971000
_cell_length_b   9.29097000
_cell_length_c   26.96820000
_cell_angle_alpha   90.00000000
_cell_angle_beta   90.00000000
_cell_angle_gamma   90.00000000
_symmetry_Int_Tables_number   1
_chemical_formula_structural   Li8In16Ru8CO
_chemical_formula_sum   'Li8 In16 Ru8 C1 O1'
_cell_volume   1646.11138049
_cell_formula_units_Z   1
loop_
 _symmetry_equiv_pos_site_id
 _symmetry_equiv_pos_as_xyz
  1  'x, y, z'
loop_
 _atom_site_type_symbol
 _atom_site_label
 _atom_site_symmetry_multiplicity
 _atom_site_fract_x
 _atom_site_fract_y
 _atom_site_fract_z
 _atom_site_occupancy
  Li  Li0  1  0.00000000  0.75000000  0.87081000  1.0
  Li  Li1  1  0.50000000  0.00000000  0.95694000  1.0
  Li  Li2  1  0.50000000  0.50000000  0.95694000  1.0
  Li  Li3  1  0.00000000  0.25000000  0.87081000  1.0
  Li  Li4  1  0.00000000  0.24986000  0.04201000  1.0
  Li  Li5  1  0.50000000  0.50000000  0.13101000  1.0
  Li  Li6  1  0.50000000  0.00000000  0.13384000  1.0
  Li  Li7  1  0.00000000  0.75014000  0.04201000  1.0
  In  In8  1  0.25000000  0.75000000  0.95694000  1.0
  In  In9  1  0.75000000  0.25000000  0.95694000  1.0
  In  In10  1  0.75000000  0.75000000  0.95694000  1.0
  In  In11  1  0.25000000  0.25000000  0.95694000  1.0
  In  In12  1  0.75000000  0.50000000  0.87081000  1.0
  In  In13  1  0.25000000  0.00000000  0.87081000  1.0
  In  In14  1  0.25000000  0.50000000  0.87081000  1.0
  In  In15  1  0.75000000  0.00000000  0.87081000  1.0
  In  In16  1  0.23406000  0.25165000  0.13303000  1.0
  In  In17  1  0.76594000  0.74835000  0.13303000  1.0
  In  In18  1  0.76594000  0.25165000  0.13303000  1.0
  In  In19  1  0.23406000  0.74835000  0.13303000  1.0
  In  In20  1  0.74871000  0.00000000  0.04251000  1.0
  In  In21  1  0.25206000  0.50000000  0.04199000  1.0
  In  In22  1  0.25129000  0.00000000  0.04251000  1.0
  In  In23  1  0.74794000  0.50000000  0.04199000  1.0
  Ru  Ru24  1  0.00000000  0.50000000  0.95694000  1.0
  Ru  Ru25  1  0.50000000  0.75000000  0.87081000  1.0
  Ru  Ru26  1  0.00000000  0.00000000  0.95694000  1.0
  Ru  Ru27  1  0.50000000  0.25000000  0.87081000  1.0
  Ru  Ru28  1  0.00000000  0.00000000  0.12240000  1.0
  Ru  Ru29  1  0.50000000  0.24915000  0.04622000  1.0
  Ru  Ru30  1  0.00000000  0.50000000  0.12236000  1.0
  Ru  Ru31  1  0.50000000  0.75085000  0.04622000  1.0
  C  C32  1  0.50000000  0.00000000  0.21170000  1.0
  O  O33  1  0.50000000  0.00000000  0.25404000  1.0
