# generated using pymatgen
data_Nb4Ir12C
_symmetry_space_group_name_H-M   Pm
_cell_length_a   7.87138000
_cell_length_b   5.56590000
_cell_length_c   24.17440000
_cell_angle_alpha   90.00000000
_cell_angle_beta   90.00000000
_cell_angle_gamma   90.00000000
_symmetry_Int_Tables_number   6
_chemical_formula_structural   Nb4Ir12C
_chemical_formula_sum   'Nb4 Ir12 C1'
_cell_volume   1059.11222776
_cell_formula_units_Z   1
loop_
 _symmetry_equiv_pos_site_id
 _symmetry_equiv_pos_as_xyz
  1  'x, y, z'
  2  'x, -y, z'
loop_
 _atom_site_type_symbol
 _atom_site_label
 _atom_site_symmetry_multiplicity
 _atom_site_fract_x
 _atom_site_fract_y
 _atom_site_fract_z
 _atom_site_occupancy
  Nb  Nb0  1  0.00000000  0.00000000  0.91366000  1.0
  Nb  Nb1  1  0.00002000  0.50000000  0.02551000  1.0
  Nb  Nb2  1  0.49992000  0.50000000  0.03462000  1.0
  Nb  Nb3  1  0.50000000  0.00000000  0.91366000  1.0
  Ir  Ir4  2  0.21273000  0.25179000  0.08539000  1.0
  Ir  Ir5  2  0.25000000  0.25000000  0.97122000  1.0
  Ir  Ir6  2  0.75000000  0.25000000  0.97122000  1.0
  Ir  Ir7  2  0.78740000  0.25178000  0.08541000  1.0
  Ir  Ir8  1  0.00000000  0.50000000  0.91366000  1.0
  Ir  Ir9  1  0.00001000  0.00000000  0.02015000  1.0
  Ir  Ir10  1  0.50000000  0.00000000  0.02832000  1.0
  Ir  Ir11  1  0.50000000  0.50000000  0.91366000  1.0
  C  C12  1  0.99972000  0.00000000  0.10760000  1.0
