# generated using pymatgen
data_Li4Mg4In4Ag4C
_symmetry_space_group_name_H-M   'P 1'
_cell_length_a   6.69019000
_cell_length_b   6.69019000
_cell_length_c   25.01760000
_cell_angle_alpha   90.00000000
_cell_angle_beta   90.00000000
_cell_angle_gamma   90.00000000
_symmetry_Int_Tables_number   1
_chemical_formula_structural   Li4Mg4In4Ag4C
_chemical_formula_sum   'Li4 Mg4 In4 Ag4 C1'
_cell_volume   1119.75380801
_cell_formula_units_Z   1
loop_
 _symmetry_equiv_pos_site_id
 _symmetry_equiv_pos_as_xyz
  1  'x, y, z'
loop_
 _atom_site_type_symbol
 _atom_site_label
 _atom_site_symmetry_multiplicity
 _atom_site_fract_x
 _atom_site_fract_y
 _atom_site_fract_z
 _atom_site_occupancy
  Li  Li0  1  0.00000000  0.50000000  0.10028000  1.0
  Li  Li1  1  0.00000000  0.00000000  0.96051000  1.0
  Li  Li2  1  0.50000000  0.50000000  0.95971000  1.0
  Li  Li3  1  0.50000000  0.00000000  0.10028000  1.0
  Mg  Mg4  1  0.75000000  0.25000000  0.03343000  1.0
  Mg  Mg5  1  0.77016000  0.73316000  0.88580000  1.0
  Mg  Mg6  1  0.22984000  0.26684000  0.88580000  1.0
  Mg  Mg7  1  0.25000000  0.75000000  0.03343000  1.0
  In  In8  1  0.25000000  0.25000000  0.03343000  1.0
  In  In9  1  0.24944000  0.74741000  0.87996000  1.0
  In  In10  1  0.75056000  0.25259000  0.87996000  1.0
  In  In11  1  0.75000000  0.75000000  0.03343000  1.0
  Ag  Ag12  1  0.00000000  0.00000000  0.10028000  1.0
  Ag  Ag13  1  0.00000000  0.50000000  0.96965000  1.0
  Ag  Ag14  1  0.50000000  0.00000000  0.95793000  1.0
  Ag  Ag15  1  0.50000000  0.50000000  0.10028000  1.0
  C  C16  1  0.00000000  0.50000000  0.87530000  1.0
