# generated using pymatgen
data_Al8Fe24C
_symmetry_space_group_name_H-M   Pm
_cell_length_a   5.77088000
_cell_length_b   8.16125000
_cell_length_c   26.12090000
_cell_angle_alpha   90.00000000
_cell_angle_beta   90.00000000
_cell_angle_gamma   90.00000000
_symmetry_Int_Tables_number   6
_chemical_formula_structural   Al8Fe24C
_chemical_formula_sum   'Al8 Fe24 C1'
_cell_volume   1230.23155356
_cell_formula_units_Z   1
loop_
 _symmetry_equiv_pos_site_id
 _symmetry_equiv_pos_as_xyz
  1  'x, y, z'
  2  'x, -y, z'
loop_
 _atom_site_type_symbol
 _atom_site_label
 _atom_site_symmetry_multiplicity
 _atom_site_fract_x
 _atom_site_fract_y
 _atom_site_fract_z
 _atom_site_occupancy
  Al  Al0  2  0.00000000  0.25000000  0.88283000  1.0
  Al  Al1  2  0.00420000  0.24501000  0.03823000  1.0
  Al  Al2  1  0.48362000  0.50000000  0.12119000  1.0
  Al  Al3  1  0.50000000  0.00000000  0.96094000  1.0
  Al  Al4  1  0.50000000  0.50000000  0.96094000  1.0
  Al  Al5  1  0.56516000  0.00000000  0.14379000  1.0
  Fe  Fe6  2  0.25000000  0.25000000  0.96094000  1.0
  Fe  Fe7  2  0.26114000  0.23015000  0.11697000  1.0
  Fe  Fe8  2  0.50000000  0.25000000  0.88283000  1.0
  Fe  Fe9  2  0.50059000  0.25654000  0.03747000  1.0
  Fe  Fe10  2  0.74830000  0.26066000  0.11505000  1.0
  Fe  Fe11  2  0.75000000  0.25000000  0.96094000  1.0
  Fe  Fe12  1  0.00000000  0.00000000  0.96094000  1.0
  Fe  Fe13  1  0.00000000  0.50000000  0.96094000  1.0
  Fe  Fe14  1  0.01619000  0.50000000  0.11528000  1.0
  Fe  Fe15  1  0.24884000  0.50000000  0.03960000  1.0
  Fe  Fe16  1  0.25000000  0.00000000  0.88283000  1.0
  Fe  Fe17  1  0.25000000  0.50000000  0.88283000  1.0
  Fe  Fe18  1  0.27406000  0.00000000  0.04883000  1.0
  Fe  Fe19  1  0.73043000  0.00000000  0.03977000  1.0
  Fe  Fe20  1  0.75000000  0.00000000  0.88283000  1.0
  Fe  Fe21  1  0.75000000  0.50000000  0.88283000  1.0
  Fe  Fe22  1  0.75415000  0.50000000  0.04091000  1.0
  Fe  Fe23  1  0.94434000  0.00000000  0.11326000  1.0
  C  C24  1  0.23910000  0.00000000  0.13240000  1.0
