# generated using pymatgen
data_Li16Sb8Pt8C
_symmetry_space_group_name_H-M   'P 1'
_cell_length_a   9.05843000
_cell_length_b   6.40528000
_cell_length_c   26.79380000
_cell_angle_alpha   90.00000000
_cell_angle_beta   90.00000000
_cell_angle_gamma   90.00000000
_symmetry_Int_Tables_number   1
_chemical_formula_structural   Li16Sb8Pt8C
_chemical_formula_sum   'Li16 Sb8 Pt8 C1'
_cell_volume   1554.62398264
_cell_formula_units_Z   1
loop_
 _symmetry_equiv_pos_site_id
 _symmetry_equiv_pos_as_xyz
  1  'x, y, z'
loop_
 _atom_site_type_symbol
 _atom_site_label
 _atom_site_symmetry_multiplicity
 _atom_site_fract_x
 _atom_site_fract_y
 _atom_site_fract_z
 _atom_site_occupancy
  Li  Li0  1  0.75000000  0.00000000  0.04226000  1.0
  Li  Li1  1  0.00000000  0.50000000  0.12678000  1.0
  Li  Li2  1  0.25000000  0.00000000  0.04226000  1.0
  Li  Li3  1  0.50000000  0.50000000  0.12678000  1.0
  Li  Li4  1  0.25000000  0.25000000  0.12678000  1.0
  Li  Li5  1  0.75000000  0.25000000  0.12678000  1.0
  Li  Li6  1  0.50000000  0.75000000  0.04226000  1.0
  Li  Li7  1  0.00000000  0.75000000  0.04226000  1.0
  Li  Li8  1  0.26037000  0.03228000  0.87492000  1.0
  Li  Li9  1  0.50000000  0.50273000  0.96446000  1.0
  Li  Li10  1  0.73963000  0.03228000  0.87492000  1.0
  Li  Li11  1  0.00000000  0.52053000  0.95246000  1.0
  Li  Li12  1  0.75859000  0.27183000  0.95510000  1.0
  Li  Li13  1  0.24141000  0.27183000  0.95510000  1.0
  Li  Li14  1  0.00000000  0.81257000  0.84668000  1.0
  Li  Li15  1  0.50000000  0.72796000  0.88035000  1.0
  Sb  Sb16  1  0.00000000  0.00000000  0.12678000  1.0
  Sb  Sb17  1  0.25000000  0.50000000  0.04226000  1.0
  Sb  Sb18  1  0.75000000  0.50000000  0.04226000  1.0
  Sb  Sb19  1  0.50000000  0.00000000  0.12678000  1.0
  Sb  Sb20  1  0.50000000  0.01070000  0.95800000  1.0
  Sb  Sb21  1  0.75771000  0.51592000  0.86583000  1.0
  Sb  Sb22  1  0.24229000  0.51592000  0.86583000  1.0
  Sb  Sb23  1  0.00000000  0.97753000  0.95769000  1.0
  Pt  Pt24  1  0.00000000  0.25000000  0.04226000  1.0
  Pt  Pt25  1  0.50000000  0.25000000  0.04226000  1.0
  Pt  Pt26  1  0.75000000  0.75000000  0.12678000  1.0
  Pt  Pt27  1  0.25000000  0.75000000  0.12678000  1.0
  Pt  Pt28  1  0.50000000  0.28702000  0.88447000  1.0
  Pt  Pt29  1  0.00000000  0.22828000  0.87923000  1.0
  Pt  Pt30  1  0.25973000  0.74450000  0.95363000  1.0
  Pt  Pt31  1  0.74027000  0.74450000  0.95363000  1.0
  C  C32  1  0.00000000  0.48403000  0.83837000  1.0
