# generated using pymatgen
data_Li16Sb8Pt8C
_symmetry_space_group_name_H-M   Pm
_cell_length_a   6.40528000
_cell_length_b   9.05843000
_cell_length_c   26.79380000
_cell_angle_alpha   90.00000000
_cell_angle_beta   90.00000000
_cell_angle_gamma   90.00000000
_symmetry_Int_Tables_number   6
_chemical_formula_structural   Li16Sb8Pt8C
_chemical_formula_sum   'Li16 Sb8 Pt8 C1'
_cell_volume   1554.62398264
_cell_formula_units_Z   1
loop_
 _symmetry_equiv_pos_site_id
 _symmetry_equiv_pos_as_xyz
  1  'x, y, z'
  2  'x, -y, z'
loop_
 _atom_site_type_symbol
 _atom_site_label
 _atom_site_symmetry_multiplicity
 _atom_site_fract_x
 _atom_site_fract_y
 _atom_site_fract_z
 _atom_site_occupancy
  Li  Li0  2  0.00000000  0.25000000  0.95774000  1.0
  Li  Li1  2  0.03228000  0.26037000  0.12508000  1.0
  Li  Li2  2  0.25000000  0.25000000  0.87322000  1.0
  Li  Li3  2  0.27183000  0.24141000  0.04490000  1.0
  Li  Li4  1  0.50000000  0.00000000  0.87322000  1.0
  Li  Li5  1  0.50000000  0.50000000  0.87322000  1.0
  Li  Li6  1  0.50273000  0.50000000  0.03554000  1.0
  Li  Li7  1  0.52053000  0.00000000  0.04754000  1.0
  Li  Li8  1  0.72796000  0.50000000  0.11965000  1.0
  Li  Li9  1  0.75000000  0.00000000  0.95774000  1.0
  Li  Li10  1  0.75000000  0.50000000  0.95774000  1.0
  Li  Li11  1  0.81257000  0.00000000  0.15332000  1.0
  Sb  Sb12  2  0.50000000  0.25000000  0.95774000  1.0
  Sb  Sb13  2  0.51592000  0.24229000  0.13417000  1.0
  Sb  Sb14  1  0.00000000  0.00000000  0.87322000  1.0
  Sb  Sb15  1  0.00000000  0.50000000  0.87322000  1.0
  Sb  Sb16  1  0.01070000  0.50000000  0.04200000  1.0
  Sb  Sb17  1  0.97753000  0.00000000  0.04231000  1.0
  Pt  Pt18  2  0.74450000  0.25973000  0.04637000  1.0
  Pt  Pt19  2  0.75000000  0.25000000  0.87322000  1.0
  Pt  Pt20  1  0.22828000  0.00000000  0.12077000  1.0
  Pt  Pt21  1  0.25000000  0.00000000  0.95774000  1.0
  Pt  Pt22  1  0.25000000  0.50000000  0.95774000  1.0
  Pt  Pt23  1  0.28702000  0.50000000  0.11553000  1.0
  C  C24  1  0.48403000  0.00000000  0.16163000  1.0
