# generated using pymatgen
data_Li8Sc8Al8Pd8CO
_symmetry_space_group_name_H-M   'P 1'
_cell_length_a   9.02082000
_cell_length_b   6.37868000
_cell_length_c   26.76560000
_cell_angle_alpha   90.00000000
_cell_angle_beta   90.00000000
_cell_angle_gamma   90.00000000
_symmetry_Int_Tables_number   1
_chemical_formula_structural   Li8Sc8Al8Pd8CO
_chemical_formula_sum   'Li8 Sc8 Al8 Pd8 C1 O1'
_cell_volume   1540.11735856
_cell_formula_units_Z   1
loop_
 _symmetry_equiv_pos_site_id
 _symmetry_equiv_pos_as_xyz
  1  'x, y, z'
loop_
 _atom_site_type_symbol
 _atom_site_label
 _atom_site_symmetry_multiplicity
 _atom_site_fract_x
 _atom_site_fract_y
 _atom_site_fract_z
 _atom_site_occupancy
  Li  Li0  1  0.00000000  0.75000000  0.04213000  1.0
  Li  Li1  1  0.50000000  0.75000000  0.04213000  1.0
  Li  Li2  1  0.24997000  0.25000000  0.12639000  1.0
  Li  Li3  1  0.75003000  0.25000000  0.12639000  1.0
  Li  Li4  1  0.50000000  0.57235000  0.82017000  1.0
  Li  Li5  1  0.00000000  0.64834000  0.83733000  1.0
  Li  Li6  1  0.74822000  0.24232000  0.95820000  1.0
  Li  Li7  1  0.25178000  0.24232000  0.95820000  1.0
  Sc  Sc8  1  0.24997000  1.00000000  0.04213000  1.0
  Sc  Sc9  1  0.75003000  1.00000000  0.04213000  1.0
  Sc  Sc10  1  0.50000000  0.50000000  0.12639000  1.0
  Sc  Sc11  1  0.00000000  0.50000000  0.12639000  1.0
  Sc  Sc12  1  0.74742000  0.96342000  0.87419000  1.0
  Sc  Sc13  1  0.25258000  0.96342000  0.87419000  1.0
  Sc  Sc14  1  0.00000000  0.50891000  0.95436000  1.0
  Sc  Sc15  1  0.50000000  0.52177000  0.95195000  1.0
  Al  Al16  1  0.00000000  0.00000000  0.12639000  1.0
  Al  Al17  1  0.50000000  0.00000000  0.12639000  1.0
  Al  Al18  1  0.74997000  0.50000000  0.04213000  1.0
  Al  Al19  1  0.25003000  0.50000000  0.04213000  1.0
  Al  Al20  1  0.50000000  0.00077000  0.95867000  1.0
  Al  Al21  1  0.00000000  0.99561000  0.95719000  1.0
  Al  Al22  1  0.24897000  0.47237000  0.87584000  1.0
  Al  Al23  1  0.75103000  0.47237000  0.87584000  1.0
  Pd  Pd24  1  0.00000000  0.25000000  0.04213000  1.0
  Pd  Pd25  1  0.50000000  0.25000000  0.04213000  1.0
  Pd  Pd26  1  0.24997000  0.75000000  0.12639000  1.0
  Pd  Pd27  1  0.75003000  0.75000000  0.12639000  1.0
  Pd  Pd28  1  0.50000000  0.24326000  0.88067000  1.0
  Pd  Pd29  1  0.00000000  0.24147000  0.87864000  1.0
  Pd  Pd30  1  0.75376000  0.75144000  0.96073000  1.0
  Pd  Pd31  1  0.24624000  0.75144000  0.96073000  1.0
  C  C32  1  0.00000000  0.95947000  0.81364000  1.0
  O  O33  1  0.00000000  0.06659000  0.77761000  1.0
