# generated using pymatgen
data_Li8Sc8Al8Pd8CO
_symmetry_space_group_name_H-M   Pm
_cell_length_a   6.37868000
_cell_length_b   9.02082000
_cell_length_c   26.76560000
_cell_angle_alpha   90.00000000
_cell_angle_beta   90.00000000
_cell_angle_gamma   90.00000000
_symmetry_Int_Tables_number   6
_chemical_formula_structural   Li8Sc8Al8Pd8CO
_chemical_formula_sum   'Li8 Sc8 Al8 Pd8 C1 O1'
_cell_volume   1540.11735856
_cell_formula_units_Z   1
loop_
 _symmetry_equiv_pos_site_id
 _symmetry_equiv_pos_as_xyz
  1  'x, y, z'
  2  'x, -y, z'
loop_
 _atom_site_type_symbol
 _atom_site_label
 _atom_site_symmetry_multiplicity
 _atom_site_fract_x
 _atom_site_fract_y
 _atom_site_fract_z
 _atom_site_occupancy
  Li  Li0  2  0.24232000  0.25178000  0.04180000  1.0
  Li  Li1  2  0.25000000  0.24997000  0.87361000  1.0
  Li  Li2  1  0.57235000  0.50000000  0.17983000  1.0
  Li  Li3  1  0.64834000  0.00000000  0.16267000  1.0
  Li  Li4  1  0.75000000  0.00000000  0.95787000  1.0
  Li  Li5  1  0.75000000  0.50000000  0.95787000  1.0
  Sc  Sc6  2  -0.00000000  0.24997000  0.95787000  1.0
  Sc  Sc7  2  0.96342000  0.25258000  0.12581000  1.0
  Sc  Sc8  1  0.50000000  0.00000000  0.87361000  1.0
  Sc  Sc9  1  0.50000000  0.50000000  0.87361000  1.0
  Sc  Sc10  1  0.50891000  0.00000000  0.04564000  1.0
  Sc  Sc11  1  0.52177000  0.50000000  0.04805000  1.0
  Al  Al12  2  0.47237000  0.24897000  0.12416000  1.0
  Al  Al13  2  0.50000000  0.25003000  0.95787000  1.0
  Al  Al14  1  0.00000000  0.00000000  0.87361000  1.0
  Al  Al15  1  0.00000000  0.50000000  0.87361000  1.0
  Al  Al16  1  0.00077000  0.50000000  0.04133000  1.0
  Al  Al17  1  0.99561000  0.00000000  0.04281000  1.0
  Pd  Pd18  2  0.75000000  0.24997000  0.87361000  1.0
  Pd  Pd19  2  0.75144000  0.24624000  0.03927000  1.0
  Pd  Pd20  1  0.24147000  0.00000000  0.12136000  1.0
  Pd  Pd21  1  0.24326000  0.50000000  0.11933000  1.0
  Pd  Pd22  1  0.25000000  0.00000000  0.95787000  1.0
  Pd  Pd23  1  0.25000000  0.50000000  0.95787000  1.0
  C  C24  1  0.95947000  0.00000000  0.18636000  1.0
  O  O25  1  0.06659000  0.00000000  0.22239000  1.0
