# generated using pymatgen
data_Ti8In8Cu16CO
_symmetry_space_group_name_H-M   'P 1'
_cell_length_a   6.30953000
_cell_length_b   8.92302000
_cell_length_c   26.69230000
_cell_angle_alpha   90.00000000
_cell_angle_beta   90.00000000
_cell_angle_gamma   90.00000000
_symmetry_Int_Tables_number   1
_chemical_formula_structural   Ti8In8Cu16CO
_chemical_formula_sum   'Ti8 In8 Cu16 C1 O1'
_cell_volume   1502.77815508
_cell_formula_units_Z   1
loop_
 _symmetry_equiv_pos_site_id
 _symmetry_equiv_pos_as_xyz
  1  'x, y, z'
loop_
 _atom_site_type_symbol
 _atom_site_label
 _atom_site_symmetry_multiplicity
 _atom_site_fract_x
 _atom_site_fract_y
 _atom_site_fract_z
 _atom_site_occupancy
  Ti  Ti0  1  0.00000000  0.00000000  0.87464000  1.0
  Ti  Ti1  1  0.50000000  0.25000000  0.95821000  1.0
  Ti  Ti2  1  0.50000000  0.75000000  0.95821000  1.0
  Ti  Ti3  1  0.00000000  0.50000000  0.87464000  1.0
  Ti  Ti4  1  0.99981000  0.50548000  0.04306000  1.0
  Ti  Ti5  1  0.49950000  0.78708000  0.13121000  1.0
  Ti  Ti6  1  0.49958000  0.23402000  0.12801000  1.0
  Ti  Ti7  1  0.99991000  0.98948000  0.03863000  1.0
  In  In8  1  0.00000000  0.75000000  0.95821000  1.0
  In  In9  1  0.50000000  0.00000000  0.87464000  1.0
  In  In10  1  0.00000000  0.25000000  0.95821000  1.0
  In  In11  1  0.50000000  0.50000000  0.87464000  1.0
  In  In12  1  0.99931000  0.29201000  0.14012000  1.0
  In  In13  1  0.49918000  0.48603000  0.04036000  1.0
  In  In14  1  0.99930000  0.74930000  0.12578000  1.0
  In  In15  1  0.50021000  0.00644000  0.04047000  1.0
  Cu  Cu16  1  0.25000000  0.00000000  0.95821000  1.0
  Cu  Cu17  1  0.75000000  0.50000000  0.95821000  1.0
  Cu  Cu18  1  0.75000000  0.00000000  0.95821000  1.0
  Cu  Cu19  1  0.25000000  0.50000000  0.95821000  1.0
  Cu  Cu20  1  0.75000000  0.75000000  0.87464000  1.0
  Cu  Cu21  1  0.25000000  0.25000000  0.87464000  1.0
  Cu  Cu22  1  0.25000000  0.75000000  0.87464000  1.0
  Cu  Cu23  1  0.75000000  0.25000000  0.87464000  1.0
  Cu  Cu24  1  0.29311000  0.51723000  0.12785000  1.0
  Cu  Cu25  1  0.79262000  0.02760000  0.12105000  1.0
  Cu  Cu26  1  0.70548000  0.51690000  0.12800000  1.0
  Cu  Cu27  1  0.20643000  0.02727000  0.12116000  1.0
  Cu  Cu28  1  0.77410000  0.24685000  0.04687000  1.0
  Cu  Cu29  1  0.26755000  0.74561000  0.04310000  1.0
  Cu  Cu30  1  0.22520000  0.24678000  0.04680000  1.0
  Cu  Cu31  1  0.73152000  0.74555000  0.04309000  1.0
  C  C32  1  0.49931000  0.03297000  0.16229000  1.0
  O  O33  1  0.50047000  0.91265000  0.19053000  1.0
