# generated using pymatgen
data_Li8Mg16Ge8CO
_symmetry_space_group_name_H-M   'P 1'
_cell_length_a   9.56693000
_cell_length_b   6.76484000
_cell_length_c   27.17520000
_cell_angle_alpha   90.00000000
_cell_angle_beta   90.00000000
_cell_angle_gamma   90.00000000
_symmetry_Int_Tables_number   1
_chemical_formula_structural   Li8Mg16Ge8CO
_chemical_formula_sum   'Li8 Mg16 Ge8 C1 O1'
_cell_volume   1758.74499514
_cell_formula_units_Z   1
loop_
 _symmetry_equiv_pos_site_id
 _symmetry_equiv_pos_as_xyz
  1  'x, y, z'
loop_
 _atom_site_type_symbol
 _atom_site_label
 _atom_site_symmetry_multiplicity
 _atom_site_fract_x
 _atom_site_fract_y
 _atom_site_fract_z
 _atom_site_occupancy
  Li  Li0  1  0.00000000  0.00000000  0.13202000  1.0
  Li  Li1  1  0.25000000  0.50000000  0.04401000  1.0
  Li  Li2  1  0.75000000  0.50000000  0.04401000  1.0
  Li  Li3  1  0.50000000  0.00000000  0.13202000  1.0
  Li  Li4  1  0.50000000  0.99784000  0.95040000  1.0
  Li  Li5  1  0.74815000  0.52510000  0.83007000  1.0
  Li  Li6  1  0.25185000  0.52510000  0.83007000  1.0
  Li  Li7  1  0.00000000  0.01305000  0.94840000  1.0
  Mg  Mg8  1  0.00000000  0.25000000  0.04401000  1.0
  Mg  Mg9  1  0.50000000  0.75000000  0.04401000  1.0
  Mg  Mg10  1  0.00000000  0.75000000  0.04401000  1.0
  Mg  Mg11  1  0.50000000  0.25000000  0.04401000  1.0
  Mg  Mg12  1  0.75000000  0.75000000  0.13202000  1.0
  Mg  Mg13  1  0.25000000  0.25000000  0.13202000  1.0
  Mg  Mg14  1  0.75000000  0.25000000  0.13202000  1.0
  Mg  Mg15  1  0.25000000  0.75000000  0.13202000  1.0
  Mg  Mg16  1  0.50000000  0.27563000  0.86343000  1.0
  Mg  Mg17  1  0.00000000  0.73253000  0.86446000  1.0
  Mg  Mg18  1  0.50000000  0.74775000  0.86231000  1.0
  Mg  Mg19  1  0.00000000  0.25120000  0.85613000  1.0
  Mg  Mg20  1  0.24694000  0.74607000  0.95291000  1.0
  Mg  Mg21  1  0.74936000  0.26122000  0.95179000  1.0
  Mg  Mg22  1  0.25064000  0.26122000  0.95179000  1.0
  Mg  Mg23  1  0.75306000  0.74607000  0.95291000  1.0
  Ge  Ge24  1  0.75000000  0.00000000  0.04401000  1.0
  Ge  Ge25  1  0.00000000  0.50000000  0.13202000  1.0
  Ge  Ge26  1  0.25000000  0.00000000  0.04401000  1.0
  Ge  Ge27  1  0.50000000  0.50000000  0.13202000  1.0
  Ge  Ge28  1  0.25087000  0.00069000  0.87167000  1.0
  Ge  Ge29  1  0.50000000  0.50717000  0.95948000  1.0
  Ge  Ge30  1  0.74913000  0.00069000  0.87167000  1.0
  Ge  Ge31  1  0.00000000  0.49571000  0.95947000  1.0
  C  C32  1  0.00000000  0.19628000  0.77287000  1.0
  O  O33  1  0.00000000  0.21066000  0.73071000  1.0
