# generated using pymatgen
data_Li8Mg16Ge8CO
_symmetry_space_group_name_H-M   Pm
_cell_length_a   6.76484000
_cell_length_b   9.56693000
_cell_length_c   27.17520000
_cell_angle_alpha   90.00000000
_cell_angle_beta   90.00000000
_cell_angle_gamma   90.00000000
_symmetry_Int_Tables_number   6
_chemical_formula_structural   Li8Mg16Ge8CO
_chemical_formula_sum   'Li8 Mg16 Ge8 C1 O1'
_cell_volume   1758.74499514
_cell_formula_units_Z   1
loop_
 _symmetry_equiv_pos_site_id
 _symmetry_equiv_pos_as_xyz
  1  'x, y, z'
  2  'x, -y, z'
loop_
 _atom_site_type_symbol
 _atom_site_label
 _atom_site_symmetry_multiplicity
 _atom_site_fract_x
 _atom_site_fract_y
 _atom_site_fract_z
 _atom_site_occupancy
  Li  Li0  2  0.50000000  0.25000000  0.95599000  1.0
  Li  Li1  2  0.52510000  0.25185000  0.16993000  1.0
  Li  Li2  1  0.00000000  0.00000000  0.86798000  1.0
  Li  Li3  1  0.00000000  0.50000000  0.86798000  1.0
  Li  Li4  1  0.01305000  0.00000000  0.05160000  1.0
  Li  Li5  1  0.99784000  0.50000000  0.04960000  1.0
  Mg  Mg6  2  0.25000000  0.25000000  0.86798000  1.0
  Mg  Mg7  2  0.26122000  0.25064000  0.04821000  1.0
  Mg  Mg8  2  0.74607000  0.24694000  0.04709000  1.0
  Mg  Mg9  2  0.75000000  0.25000000  0.86798000  1.0
  Mg  Mg10  1  0.25000000  0.00000000  0.95599000  1.0
  Mg  Mg11  1  0.25000000  0.50000000  0.95599000  1.0
  Mg  Mg12  1  0.25120000  0.00000000  0.14387000  1.0
  Mg  Mg13  1  0.27563000  0.50000000  0.13657000  1.0
  Mg  Mg14  1  0.73253000  0.00000000  0.13554000  1.0
  Mg  Mg15  1  0.74775000  0.50000000  0.13769000  1.0
  Mg  Mg16  1  0.75000000  0.00000000  0.95599000  1.0
  Mg  Mg17  1  0.75000000  0.50000000  0.95599000  1.0
  Ge  Ge18  2  0.00000000  0.25000000  0.95599000  1.0
  Ge  Ge19  2  0.00069000  0.25087000  0.12833000  1.0
  Ge  Ge20  1  0.49571000  0.00000000  0.04053000  1.0
  Ge  Ge21  1  0.50000000  0.00000000  0.86798000  1.0
  Ge  Ge22  1  0.50000000  0.50000000  0.86798000  1.0
  Ge  Ge23  1  0.50717000  0.50000000  0.04052000  1.0
  C  C24  1  0.19628000  0.00000000  0.22713000  1.0
  O  O25  1  0.21066000  0.00000000  0.26929000  1.0
