# generated using pymatgen
data_V8Ir24C
_symmetry_space_group_name_H-M   P4mm
_cell_length_a   7.70199000
_cell_length_b   7.70199000
_cell_length_c   25.77650000
_cell_angle_alpha   90.00000000
_cell_angle_beta   90.00000000
_cell_angle_gamma   90.00000000
_symmetry_Int_Tables_number   99
_chemical_formula_structural   V8Ir24C
_chemical_formula_sum   'V8 Ir24 C1'
_cell_volume   1529.07873370
_cell_formula_units_Z   1
loop_
 _symmetry_equiv_pos_site_id
 _symmetry_equiv_pos_as_xyz
  1  'x, y, z'
  2  '-y, x, z'
  3  '-x, -y, z'
  4  'y, -x, z'
  5  '-x, y, z'
  6  'y, x, z'
  7  'x, -y, z'
  8  '-y, -x, z'
loop_
 _atom_site_type_symbol
 _atom_site_label
 _atom_site_symmetry_multiplicity
 _atom_site_fract_x
 _atom_site_fract_y
 _atom_site_fract_z
 _atom_site_occupancy
  V  V0  4  0.25000000  0.25000000  0.03735000  1.0
  V  V1  4  0.25000000  0.25000000  0.88795000  1.0
  Ir  Ir2  4  0.00000000  0.25000000  0.11205000  1.0
  Ir  Ir3  4  0.00000000  0.25000000  0.96265000  1.0
  Ir  Ir4  4  0.25000000  0.50000000  0.11205000  1.0
  Ir  Ir5  4  0.25000000  0.50000000  0.96265000  1.0
  Ir  Ir6  2  0.00000000  0.50000000  0.03735000  1.0
  Ir  Ir7  2  0.00000000  0.50000000  0.88795000  1.0
  Ir  Ir8  1  0.00000000  0.00000000  0.03735000  1.0
  Ir  Ir9  1  0.00000000  0.00000000  0.88795000  1.0
  Ir  Ir10  1  0.50000000  0.50000000  0.03735000  1.0
  Ir  Ir11  1  0.50000000  0.50000000  0.88795000  1.0
  C  C12  1  0.00000000  0.00000000  0.14309000  1.0
