# generated using pymatgen
data_Y4Sc4Ga4Pd4C
_symmetry_space_group_name_H-M   'P 1'
_cell_length_a   9.48206000
_cell_length_b   6.06401000
_cell_length_c   24.30750000
_cell_angle_alpha   90.00000000
_cell_angle_beta   90.00000000
_cell_angle_gamma   90.00000000
_symmetry_Int_Tables_number   1
_chemical_formula_structural   Y4Sc4Ga4Pd4C
_chemical_formula_sum   'Y4 Sc4 Ga4 Pd4 C1'
_cell_volume   1397.66439665
_cell_formula_units_Z   1
loop_
 _symmetry_equiv_pos_site_id
 _symmetry_equiv_pos_as_xyz
  1  'x, y, z'
loop_
 _atom_site_type_symbol
 _atom_site_label
 _atom_site_symmetry_multiplicity
 _atom_site_fract_x
 _atom_site_fract_y
 _atom_site_fract_z
 _atom_site_occupancy
  Y  Y0  1  0.00000000  0.50000000  0.08861000  1.0
  Y  Y1  1  0.00000000  0.82842000  0.96594000  1.0
  Y  Y2  1  0.50000000  0.50000000  0.08861000  1.0
  Y  Y3  1  0.50000000  0.81403000  0.96753000  1.0
  Sc  Sc4  1  0.25000000  0.16979000  0.02954000  1.0
  Sc  Sc5  1  0.22170000  0.49123000  0.91180000  1.0
  Sc  Sc6  1  0.75000000  0.16979000  0.02954000  1.0
  Sc  Sc7  1  0.77830000  0.49123000  0.91180000  1.0
  Ga  Ga8  1  0.00000000  0.00000000  0.08861000  1.0
  Ga  Ga9  1  0.00000000  0.32389000  0.97436000  1.0
  Ga  Ga10  1  0.50000000  0.00000000  0.08861000  1.0
  Ga  Ga11  1  0.50000000  0.32031000  0.96157000  1.0
  Pd  Pd12  1  0.25000000  0.66979000  0.02954000  1.0
  Pd  Pd13  1  0.25972000  0.03010000  0.92770000  1.0
  Pd  Pd14  1  0.75000000  0.66979000  0.02954000  1.0
  Pd  Pd15  1  0.74028000  0.03010000  0.92770000  1.0
  C  C16  1  0.00000000  0.52990000  0.90711000  1.0
