# generated using pymatgen
data_Y4Sc4Ga4Pd4C
_symmetry_space_group_name_H-M   Pm
_cell_length_a   6.06401000
_cell_length_b   9.48206000
_cell_length_c   24.30750000
_cell_angle_alpha   90.00000000
_cell_angle_beta   90.00000000
_cell_angle_gamma   90.00000000
_symmetry_Int_Tables_number   6
_chemical_formula_structural   Y4Sc4Ga4Pd4C
_chemical_formula_sum   'Y4 Sc4 Ga4 Pd4 C1'
_cell_volume   1397.66439665
_cell_formula_units_Z   1
loop_
 _symmetry_equiv_pos_site_id
 _symmetry_equiv_pos_as_xyz
  1  'x, y, z'
  2  'x, -y, z'
loop_
 _atom_site_type_symbol
 _atom_site_label
 _atom_site_symmetry_multiplicity
 _atom_site_fract_x
 _atom_site_fract_y
 _atom_site_fract_z
 _atom_site_occupancy
  Y  Y0  1  0.50000000  0.00000000  0.91139000  1.0
  Y  Y1  1  0.50000000  0.50000000  0.91139000  1.0
  Y  Y2  1  0.81403000  0.50000000  0.03247000  1.0
  Y  Y3  1  0.82842000  0.00000000  0.03406000  1.0
  Sc  Sc4  2  0.16979000  0.25000000  0.97046000  1.0
  Sc  Sc5  2  0.49123000  0.22170000  0.08820000  1.0
  Ga  Ga6  1  0.00000000  0.00000000  0.91139000  1.0
  Ga  Ga7  1  0.00000000  0.50000000  0.91139000  1.0
  Ga  Ga8  1  0.32031000  0.50000000  0.03843000  1.0
  Ga  Ga9  1  0.32389000  0.00000000  0.02564000  1.0
  Pd  Pd10  2  0.03010000  0.25972000  0.07230000  1.0
  Pd  Pd11  2  0.66979000  0.25000000  0.97046000  1.0
  C  C12  1  0.52990000  0.00000000  0.09289000  1.0
