# generated using pymatgen
data_Cr8Ga8Co16C
_symmetry_space_group_name_H-M   Pmm2
_cell_length_a   5.73361000
_cell_length_b   8.10855000
_cell_length_c   26.08140000
_cell_angle_alpha   90.00000000
_cell_angle_beta   90.00000000
_cell_angle_gamma   90.00000000
_symmetry_Int_Tables_number   25
_chemical_formula_structural   Cr8Ga8Co16C
_chemical_formula_sum   'Cr8 Ga8 Co16 C1'
_cell_volume   1212.55723634
_cell_formula_units_Z   1
loop_
 _symmetry_equiv_pos_site_id
 _symmetry_equiv_pos_as_xyz
  1  'x, y, z'
  2  '-x, -y, z'
  3  '-x, y, z'
  4  'x, -y, z'
loop_
 _atom_site_type_symbol
 _atom_site_label
 _atom_site_symmetry_multiplicity
 _atom_site_fract_x
 _atom_site_fract_y
 _atom_site_fract_z
 _atom_site_occupancy
  Cr  Cr0  2  0.50000000  0.25000000  0.96114000  1.0
  Cr  Cr1  2  0.50000000  0.25375000  0.11709000  1.0
  Cr  Cr2  1  0.00000000  0.00000000  0.03882000  1.0
  Cr  Cr3  1  0.00000000  0.00000000  0.88341000  1.0
  Cr  Cr4  1  0.00000000  0.50000000  0.03999000  1.0
  Cr  Cr5  1  0.00000000  0.50000000  0.88341000  1.0
  Ga  Ga6  2  0.00000000  0.25000000  0.96114000  1.0
  Ga  Ga7  2  0.00000000  0.25535000  0.11891000  1.0
  Ga  Ga8  1  0.50000000  0.00000000  0.03605000  1.0
  Ga  Ga9  1  0.50000000  0.00000000  0.88341000  1.0
  Ga  Ga10  1  0.50000000  0.50000000  0.03913000  1.0
  Ga  Ga11  1  0.50000000  0.50000000  0.88341000  1.0
  Co  Co12  4  0.25000000  0.25000000  0.88341000  1.0
  Co  Co13  4  0.25058000  0.24894000  0.03873000  1.0
  Co  Co14  2  0.24809000  0.50000000  0.11495000  1.0
  Co  Co15  2  0.25000000  0.00000000  0.96114000  1.0
  Co  Co16  2  0.25000000  0.50000000  0.96114000  1.0
  Co  Co17  2  0.26880000  0.00000000  0.11634000  1.0
  C  C18  1  0.00000000  0.00000000  0.14879000  1.0
