# generated using pymatgen
data_Al4Pt12CO
_symmetry_space_group_name_H-M   Pm
_cell_length_a   5.57908000
_cell_length_b   7.89001000
_cell_length_c   24.18430000
_cell_angle_alpha   90.00000000
_cell_angle_beta   90.00000000
_cell_angle_gamma   90.00000000
_symmetry_Int_Tables_number   6
_chemical_formula_structural   Al4Pt12CO
_chemical_formula_sum   'Al4 Pt12 C1 O1'
_cell_volume   1064.56862892
_cell_formula_units_Z   1
loop_
 _symmetry_equiv_pos_site_id
 _symmetry_equiv_pos_as_xyz
  1  'x, y, z'
  2  'x, -y, z'
loop_
 _atom_site_type_symbol
 _atom_site_label
 _atom_site_symmetry_multiplicity
 _atom_site_fract_x
 _atom_site_fract_y
 _atom_site_fract_z
 _atom_site_occupancy
  Al  Al0  2  0.00000000  0.24999000  0.08651000  1.0
  Al  Al1  2  0.49262000  0.24867000  0.97027000  1.0
  Pt  Pt2  2  0.50000000  0.24999000  0.08651000  1.0
  Pt  Pt3  2  0.99569000  0.24874000  0.97035000  1.0
  Pt  Pt4  1  0.23243000  0.00000000  0.91439000  1.0
  Pt  Pt5  1  0.25000000  0.00000000  0.02884000  1.0
  Pt  Pt6  1  0.25000000  0.50000000  0.02884000  1.0
  Pt  Pt7  1  0.27283000  0.50000000  0.91634000  1.0
  Pt  Pt8  1  0.71311000  0.00000000  0.91630000  1.0
  Pt  Pt9  1  0.75000000  0.00000000  0.02884000  1.0
  Pt  Pt10  1  0.75000000  0.50000000  0.02884000  1.0
  Pt  Pt11  1  0.75806000  0.50000000  0.91227000  1.0
  C  C12  1  0.73965000  0.50000000  0.83503000  1.0
  O  O13  1  0.73583000  0.50000000  0.78735000  1.0
