# generated using pymatgen
data_Ti12Au4C
_symmetry_space_group_name_H-M   Pm
_cell_length_a   5.78605000
_cell_length_b   8.18271000
_cell_length_c   24.33950000
_cell_angle_alpha   90.00000000
_cell_angle_beta   90.00000000
_cell_angle_gamma   90.00000000
_symmetry_Int_Tables_number   6
_chemical_formula_structural   Ti12Au4C
_chemical_formula_sum   'Ti12 Au4 C1'
_cell_volume   1152.36748143
_cell_formula_units_Z   1
loop_
 _symmetry_equiv_pos_site_id
 _symmetry_equiv_pos_as_xyz
  1  'x, y, z'
  2  'x, -y, z'
loop_
 _atom_site_type_symbol
 _atom_site_label
 _atom_site_symmetry_multiplicity
 _atom_site_fract_x
 _atom_site_fract_y
 _atom_site_fract_z
 _atom_site_occupancy
  Ti  Ti0  2  0.00000000  0.25000000  0.02972000  1.0
  Ti  Ti1  2  0.49951000  0.25751000  0.91017000  1.0
  Ti  Ti2  1  0.25000000  0.00000000  0.08915000  1.0
  Ti  Ti3  1  0.25000000  0.50000000  0.08915000  1.0
  Ti  Ti4  1  0.25399000  0.50000000  0.97119000  1.0
  Ti  Ti5  1  0.26429000  0.00000000  0.97361000  1.0
  Ti  Ti6  1  0.73448000  0.00000000  0.97363000  1.0
  Ti  Ti7  1  0.74646000  0.50000000  0.97088000  1.0
  Ti  Ti8  1  0.75000000  0.00000000  0.08915000  1.0
  Ti  Ti9  1  0.75000000  0.50000000  0.08915000  1.0
  Au  Au10  2  0.50000000  0.25000000  0.02972000  1.0
  Au  Au11  2  0.99947000  0.22781000  0.91786000  1.0
  C  C12  1  0.49968000  0.50000000  0.90843000  1.0
