# generated using pymatgen
data_Sc8Ga8Cu8Pd8C
_symmetry_space_group_name_H-M   'P 1'
_cell_length_a   8.95236000
_cell_length_b   6.33027000
_cell_length_c   26.71430000
_cell_angle_alpha   90.00000000
_cell_angle_beta   90.00000000
_cell_angle_gamma   90.00000000
_symmetry_Int_Tables_number   1
_chemical_formula_structural   Sc8Ga8Cu8Pd8C
_chemical_formula_sum   'Sc8 Ga8 Cu8 Pd8 C1'
_cell_volume   1513.92224676
_cell_formula_units_Z   1
loop_
 _symmetry_equiv_pos_site_id
 _symmetry_equiv_pos_as_xyz
  1  'x, y, z'
loop_
 _atom_site_type_symbol
 _atom_site_label
 _atom_site_symmetry_multiplicity
 _atom_site_fract_x
 _atom_site_fract_y
 _atom_site_fract_z
 _atom_site_occupancy
  Sc  Sc0  1  0.00000000  0.75000000  0.04189000  1.0
  Sc  Sc1  1  0.50000000  0.75000000  0.04189000  1.0
  Sc  Sc2  1  0.24997000  0.25000000  0.12567000  1.0
  Sc  Sc3  1  0.75003000  0.25000000  0.12567000  1.0
  Sc  Sc4  1  0.50000000  0.76407000  0.86986000  1.0
  Sc  Sc5  1  0.00000000  0.70901000  0.87219000  1.0
  Sc  Sc6  1  0.74344000  0.25169000  0.95909000  1.0
  Sc  Sc7  1  0.25656000  0.25169000  0.95909000  1.0
  Ga  Ga8  1  0.00000000  0.25000000  0.04189000  1.0
  Ga  Ga9  1  0.50000000  0.25000000  0.04189000  1.0
  Ga  Ga10  1  0.24997000  0.75000000  0.12567000  1.0
  Ga  Ga11  1  0.75003000  0.75000000  0.12567000  1.0
  Ga  Ga12  1  0.50000000  0.23829000  0.87535000  1.0
  Ga  Ga13  1  0.00000000  0.31157000  0.84335000  1.0
  Ga  Ga14  1  0.75385000  0.74882000  0.95471000  1.0
  Ga  Ga15  1  0.24615000  0.74882000  0.95471000  1.0
  Cu  Cu16  1  0.00000000  0.00000000  0.12567000  1.0
  Cu  Cu17  1  0.50000000  0.00000000  0.12567000  1.0
  Cu  Cu18  1  0.74997000  0.50000000  0.04189000  1.0
  Cu  Cu19  1  0.25003000  0.50000000  0.04189000  1.0
  Cu  Cu20  1  0.50000000  0.97868000  0.95657000  1.0
  Cu  Cu21  1  0.00000000  0.00762000  0.94780000  1.0
  Cu  Cu22  1  0.26285000  0.47251000  0.87272000  1.0
  Cu  Cu23  1  0.73715000  0.47251000  0.87272000  1.0
  Pd  Pd24  1  0.24997000  0.00000000  0.04189000  1.0
  Pd  Pd25  1  0.75003000  0.00000000  0.04189000  1.0
  Pd  Pd26  1  0.50000000  0.50000000  0.12567000  1.0
  Pd  Pd27  1  0.00000000  0.50000000  0.12567000  1.0
  Pd  Pd28  1  0.75368000  0.02647000  0.87647000  1.0
  Pd  Pd29  1  0.24632000  0.02647000  0.87647000  1.0
  Pd  Pd30  1  0.00000000  0.49489000  0.96031000  1.0
  Pd  Pd31  1  0.50000000  0.52108000  0.95497000  1.0
  C  C32  1  0.00000000  0.02889000  0.86847000  1.0
