# generated using pymatgen
data_Li8Hf8Ge8Pd8C
_symmetry_space_group_name_H-M   'P 1'
_cell_length_a   9.08784000
_cell_length_b   6.42607000
_cell_length_c   26.81590000
_cell_angle_alpha   90.00000000
_cell_angle_beta   90.00000000
_cell_angle_gamma   90.00000000
_symmetry_Int_Tables_number   1
_chemical_formula_structural   Li8Hf8Ge8Pd8C
_chemical_formula_sum   'Li8 Hf8 Ge8 Pd8 C1'
_cell_volume   1566.02431813
_cell_formula_units_Z   1
loop_
 _symmetry_equiv_pos_site_id
 _symmetry_equiv_pos_as_xyz
  1  'x, y, z'
loop_
 _atom_site_type_symbol
 _atom_site_label
 _atom_site_symmetry_multiplicity
 _atom_site_fract_x
 _atom_site_fract_y
 _atom_site_fract_z
 _atom_site_occupancy
  Li  Li0  1  0.75000000  0.25000000  0.04236000  1.0
  Li  Li1  1  0.25000000  0.25000000  0.04236000  1.0
  Li  Li2  1  0.00000000  0.75000000  0.12709000  1.0
  Li  Li3  1  0.50000000  0.75000000  0.12709000  1.0
  Li  Li4  1  0.23419000  0.18602000  0.85592000  1.0
  Li  Li5  1  0.76581000  0.18602000  0.85592000  1.0
  Li  Li6  1  0.50000000  0.75973000  0.96404000  1.0
  Li  Li7  1  0.00000000  0.74304000  0.95556000  1.0
  Hf  Hf8  1  0.75000000  0.75000000  0.04236000  1.0
  Hf  Hf9  1  0.25000000  0.75000000  0.04236000  1.0
  Hf  Hf10  1  0.00000000  0.25000000  0.12709000  1.0
  Hf  Hf11  1  0.50000000  0.25000000  0.12709000  1.0
  Hf  Hf12  1  0.30138000  0.67303000  0.87809000  1.0
  Hf  Hf13  1  0.69862000  0.67303000  0.87809000  1.0
  Hf  Hf14  1  0.50000000  0.27527000  0.94894000  1.0
  Hf  Hf15  1  0.00000000  0.23339000  0.94507000  1.0
  Ge  Ge16  1  0.75000000  0.00000000  0.12709000  1.0
  Ge  Ge17  1  0.25000000  0.00000000  0.12709000  1.0
  Ge  Ge18  1  0.50000000  0.50000000  0.04236000  1.0
  Ge  Ge19  1  0.00000000  0.50000000  0.04236000  1.0
  Ge  Ge20  1  0.25709000  0.98681000  0.95334000  1.0
  Ge  Ge21  1  0.74291000  0.98681000  0.95334000  1.0
  Ge  Ge22  1  0.00000000  0.52423000  0.85338000  1.0
  Ge  Ge23  1  0.50000000  0.38576000  0.84661000  1.0
  Pd  Pd24  1  0.00000000  0.00000000  0.04236000  1.0
  Pd  Pd25  1  0.50000000  0.00000000  0.04236000  1.0
  Pd  Pd26  1  0.25000000  0.50000000  0.12709000  1.0
  Pd  Pd27  1  0.75000000  0.50000000  0.12709000  1.0
  Pd  Pd28  1  0.50000000  0.98366000  0.87774000  1.0
  Pd  Pd29  1  0.00000000  0.90834000  0.86571000  1.0
  Pd  Pd30  1  0.75960000  0.48875000  0.96417000  1.0
  Pd  Pd31  1  0.24040000  0.48875000  0.96417000  1.0
  C  C32  1  0.00000000  0.23296000  0.86615000  1.0
