data_image0
_chemical_formula_structural       Li8Ca8Ge8Pd8CO
_chemical_formula_sum              "Li8 Ca8 Ge8 Pd8 C1 O1"
_cell_length_a       6.62107
_cell_length_b       9.3636
_cell_length_c       27.0227
_cell_angle_alpha    90
_cell_angle_beta     90
_cell_angle_gamma    90

_space_group_name_H-M_alt    "P 1"
_space_group_IT_number       1

loop_
  _space_group_symop_operation_xyz
  'x, y, z'

loop_
  _atom_site_type_symbol
  _atom_site_label
  _atom_site_symmetry_multiplicity
  _atom_site_fract_x
  _atom_site_fract_y
  _atom_site_fract_z
  _atom_site_occupancy
  Li  Li1       1.0  0.75000  0.00000  0.95669  1.0000
  Li  Li2       1.0  0.75000  0.50000  0.95669  1.0000
  Li  Li3       1.0  0.25000  0.25000  0.87006  1.0000
  Li  Li4       1.0  0.25000  0.75000  0.87006  1.0000
  Li  Li5       1.0  0.03356  0.49217  0.18637  1.0000
  Li  Li6       1.0  0.03371  0.00778  0.18641  1.0000
  Li  Li7       1.0  0.32043  0.74997  0.05822  1.0000
  Li  Li8       1.0  0.29843  0.25001  0.05297  1.0000
  Ca  Ca1       1.0  0.00000  0.00000  0.87006  1.0000
  Ca  Ca2       1.0  0.00000  0.50000  0.87006  1.0000
  Ca  Ca3       1.0  0.50000  0.75000  0.95669  1.0000
  Ca  Ca4       1.0  0.50000  0.25000  0.95669  1.0000
  Ca  Ca5       1.0  0.00108  0.50654  0.05294  1.0000
  Ca  Ca6       1.0  0.00125  0.99348  0.05298  1.0000
  Ca  Ca7       1.0  0.59611  0.24996  0.13909  1.0000
  Ca  Ca8       1.0  0.61568  0.74992  0.14102  1.0000
  Ge  Ge1       1.0  0.00000  0.25000  0.95669  1.0000
  Ge  Ge2       1.0  0.00000  0.75000  0.95669  1.0000
  Ge  Ge3       1.0  0.50000  0.50000  0.87006  1.0000
  Ge  Ge4       1.0  0.50000  0.00000  0.87006  1.0000
  Ge  Ge5       1.0  0.12010  0.75001  0.14425  1.0000
  Ge  Ge6       1.0  0.08098  0.24995  0.13325  1.0000
  Ge  Ge7       1.0  0.52519  0.00366  0.04158  1.0000
  Ge  Ge8       1.0  0.52526  0.49635  0.04160  1.0000
  Pd  Pd1       1.0  0.25000  0.00000  0.95669  1.0000
  Pd  Pd2       1.0  0.25000  0.50000  0.95669  1.0000
  Pd  Pd3       1.0  0.75000  0.25000  0.87006  1.0000
  Pd  Pd4       1.0  0.75000  0.75000  0.87006  1.0000
  Pd  Pd5       1.0  0.31556  0.50567  0.12144  1.0000
  Pd  Pd6       1.0  0.31568  0.99424  0.12142  1.0000
  Pd  Pd7       1.0  0.73453  0.74994  0.03691  1.0000
  Pd  Pd8       1.0  0.76269  0.24995  0.03656  1.0000
  C   C1        1.0  0.69497  0.24999  0.23234  1.0000
  O   O1        1.0  0.74071  0.24997  0.27350  1.0000
