# generated using pymatgen
data_Li8Ca8Ge8Pd8CO
_symmetry_space_group_name_H-M   P1
_cell_length_a   6.62107000
_cell_length_b   9.36360000
_cell_length_c   27.02270000
_cell_angle_alpha   90.00000000
_cell_angle_beta   90.00000000
_cell_angle_gamma   90.00000000
_symmetry_Int_Tables_number   1
_chemical_formula_structural   Li8Ca8Ge8Pd8CO
_chemical_formula_sum   'Li8 Ca8 Ge8 Pd8 C1 O1'
_cell_volume   1675.32771146
_cell_formula_units_Z   1
loop_
 _symmetry_equiv_pos_site_id
 _symmetry_equiv_pos_as_xyz
  1  'x, y, z'
loop_
 _atom_site_type_symbol
 _atom_site_label
 _atom_site_symmetry_multiplicity
 _atom_site_fract_x
 _atom_site_fract_y
 _atom_site_fract_z
 _atom_site_occupancy
  Li  Li0  1  0.03362000  0.49220000  0.18637000  1.0
  Li  Li1  1  0.03378000  0.00775000  0.18640000  1.0
  Li  Li2  1  0.25000000  0.25000000  0.87006000  1.0
  Li  Li3  1  0.25000000  0.75000000  0.87006000  1.0
  Li  Li4  1  0.29857000  0.25002000  0.05298000  1.0
  Li  Li5  1  0.32040000  0.74997000  0.05820000  1.0
  Li  Li6  1  0.75000000  0.00000000  0.95669000  1.0
  Li  Li7  1  0.75000000  0.50000000  0.95669000  1.0
  Ca  Ca8  1  0.00000000  0.00000000  0.87006000  1.0
  Ca  Ca9  1  0.00000000  0.50000000  0.87006000  1.0
  Ca  Ca10  1  0.00090000  0.50653000  0.05292000  1.0
  Ca  Ca11  1  0.00095000  0.99345000  0.05294000  1.0
  Ca  Ca12  1  0.50000000  0.25000000  0.95669000  1.0
  Ca  Ca13  1  0.50000000  0.75000000  0.95669000  1.0
  Ca  Ca14  1  0.59615000  0.24996000  0.13906000  1.0
  Ca  Ca15  1  0.61584000  0.74992000  0.14102000  1.0
  Ge  Ge16  1  0.00000000  0.25000000  0.95669000  1.0
  Ge  Ge17  1  0.00000000  0.75000000  0.95669000  1.0
  Ge  Ge18  1  0.08145000  0.24996000  0.13335000  1.0
  Ge  Ge19  1  0.12007000  0.75000000  0.14421000  1.0
  Ge  Ge20  1  0.50000000  0.00000000  0.87006000  1.0
  Ge  Ge21  1  0.50000000  0.50000000  0.87006000  1.0
  Ge  Ge22  1  0.52539000  0.00356000  0.04164000  1.0
  Ge  Ge23  1  0.52542000  0.49644000  0.04166000  1.0
  Pd  Pd24  1  0.25000000  0.00000000  0.95669000  1.0
  Pd  Pd25  1  0.25000000  0.50000000  0.95669000  1.0
  Pd  Pd26  1  0.31571000  0.50562000  0.12147000  1.0
  Pd  Pd27  1  0.31584000  0.99429000  0.12147000  1.0
  Pd  Pd28  1  0.73479000  0.74997000  0.03691000  1.0
  Pd  Pd29  1  0.75000000  0.25000000  0.87006000  1.0
  Pd  Pd30  1  0.75000000  0.75000000  0.87006000  1.0
  Pd  Pd31  1  0.76245000  0.24995000  0.03658000  1.0
  C  C32  1  0.69504000  0.24999000  0.23236000  1.0
  O  O33  1  0.74076000  0.24997000  0.27350000  1.0
