data_image0
_chemical_formula_structural       Ti8Co16Si8C
_chemical_formula_sum              "Ti8 Co16 Si8 C1"
_cell_length_a       5.76208
_cell_length_b       8.14881
_cell_length_c       26.1116
_cell_angle_alpha    90
_cell_angle_beta     90
_cell_angle_gamma    90

_space_group_name_H-M_alt    "P 1"
_space_group_IT_number       1

loop_
  _space_group_symop_operation_xyz
  'x, y, z'

loop_
  _atom_site_type_symbol
  _atom_site_label
  _atom_site_symmetry_multiplicity
  _atom_site_fract_x
  _atom_site_fract_y
  _atom_site_fract_z
  _atom_site_occupancy
  Ti  Ti1       1.0  0.00000  0.00000  0.88297  1.0000
  Ti  Ti2       1.0  0.50000  0.25000  0.96099  1.0000
  Ti  Ti3       1.0  0.50000  0.75000  0.96099  1.0000
  Ti  Ti4       1.0  0.00000  0.50000  0.88297  1.0000
  Ti  Ti5       1.0  1.00000  0.50000  0.03783  1.0000
  Ti  Ti6       1.0  0.50000  0.74828  0.12263  1.0000
  Ti  Ti7       1.0  0.50000  0.25172  0.12263  1.0000
  Ti  Ti8       1.0  0.00000  1.00000  0.03754  1.0000
  Co  Co1       1.0  0.25000  0.00000  0.96099  1.0000
  Co  Co2       1.0  0.75000  0.50000  0.96099  1.0000
  Co  Co3       1.0  0.75000  0.00000  0.96099  1.0000
  Co  Co4       1.0  0.25000  0.50000  0.96099  1.0000
  Co  Co5       1.0  0.75000  0.75000  0.88297  1.0000
  Co  Co6       1.0  0.25000  0.25000  0.88297  1.0000
  Co  Co7       1.0  0.25000  0.75000  0.88297  1.0000
  Co  Co8       1.0  0.75000  0.25000  0.88297  1.0000
  Co  Co9       1.0  0.22981  0.50000  0.11182  1.0000
  Co  Co10      1.0  0.78244  1.00000  0.11545  1.0000
  Co  Co11      1.0  0.77019  0.50000  0.11182  1.0000
  Co  Co12      1.0  0.21756  1.00000  0.11545  1.0000
  Co  Co13      1.0  0.74063  0.24804  0.03995  1.0000
  Co  Co14      1.0  0.25938  0.75196  0.03995  1.0000
  Co  Co15      1.0  0.25937  0.24804  0.03995  1.0000
  Co  Co16      1.0  0.74062  0.75196  0.03995  1.0000
  Si  Si1       1.0  0.00000  0.75000  0.96099  1.0000
  Si  Si2       1.0  0.50000  0.00000  0.88297  1.0000
  Si  Si3       1.0  0.00000  0.25000  0.96099  1.0000
  Si  Si4       1.0  0.50000  0.50000  0.88297  1.0000
  Si  Si5       1.0  1.00000  0.25055  0.11549  1.0000
  Si  Si6       1.0  0.50000  0.50000  0.04186  1.0000
  Si  Si7       1.0  1.00000  0.74945  0.11549  1.0000
  Si  Si8       1.0  0.50000  0.00000  0.04141  1.0000
  C   C1        1.0  0.50000  0.00000  0.14484  1.0000
