# generated using pymatgen
data_Mn8Ni16Sb8CO
_symmetry_space_group_name_H-M   'P 1'
_cell_length_a   6.10266000
_cell_length_b   8.63046000
_cell_length_c   26.47280000
_cell_angle_alpha   90.00000000
_cell_angle_beta   90.00000000
_cell_angle_gamma   90.00000000
_symmetry_Int_Tables_number   1
_chemical_formula_structural   Mn8Ni16Sb8CO
_chemical_formula_sum   'Mn8 Ni16 Sb8 C1 O1'
_cell_volume   1394.28962977
_cell_formula_units_Z   1
loop_
 _symmetry_equiv_pos_site_id
 _symmetry_equiv_pos_as_xyz
  1  'x, y, z'
loop_
 _atom_site_type_symbol
 _atom_site_label
 _atom_site_symmetry_multiplicity
 _atom_site_fract_x
 _atom_site_fract_y
 _atom_site_fract_z
 _atom_site_occupancy
  Mn  Mn0  1  0.00000000  0.00000000  0.87775000  1.0
  Mn  Mn1  1  0.50000000  0.25000000  0.95925000  1.0
  Mn  Mn2  1  0.50000000  0.75000000  0.95925000  1.0
  Mn  Mn3  1  1.00000000  0.50000000  0.87775000  1.0
  Mn  Mn4  1  0.00001000  0.49814000  0.03949000  1.0
  Mn  Mn5  1  0.50001000  0.75003000  0.12389000  1.0
  Mn  Mn6  1  0.50001000  0.24994000  0.12366000  1.0
  Mn  Mn7  1  0.00001000  0.00185000  0.03950000  1.0
  Ni  Ni8  1  0.25000000  0.00000000  0.95925000  1.0
  Ni  Ni9  1  0.75000000  0.50000000  0.95925000  1.0
  Ni  Ni10  1  0.75000000  0.00000000  0.95925000  1.0
  Ni  Ni11  1  0.25000000  0.50000000  0.95925000  1.0
  Ni  Ni12  1  0.75000000  0.75000000  0.87775000  1.0
  Ni  Ni13  1  0.25000000  0.25000000  0.87775000  1.0
  Ni  Ni14  1  0.25000000  0.75000000  0.87775000  1.0
  Ni  Ni15  1  0.75000000  0.25000000  0.87775000  1.0
  Ni  Ni16  1  0.24276000  0.50043000  0.11528000  1.0
  Ni  Ni17  1  0.75726000  0.99955000  0.11529000  1.0
  Ni  Ni18  1  0.75725000  0.50043000  0.11528000  1.0
  Ni  Ni19  1  0.24275000  0.99955000  0.11529000  1.0
  Ni  Ni20  1  0.75756000  0.24995000  0.04335000  1.0
  Ni  Ni21  1  0.22866000  0.75002000  0.04510000  1.0
  Ni  Ni22  1  0.24245000  0.24995000  0.04335000  1.0
  Ni  Ni23  1  0.77135000  0.75002000  0.04510000  1.0
  Sb  Sb24  1  0.00000000  0.75000000  0.95925000  1.0
  Sb  Sb25  1  0.50000000  0.00000000  0.87775000  1.0
  Sb  Sb26  1  0.00000000  0.25000000  0.95925000  1.0
  Sb  Sb27  1  0.50000000  0.50000000  0.87775000  1.0
  Sb  Sb28  1  0.00001000  0.25000000  0.13096000  1.0
  Sb  Sb29  1  0.50000000  0.50302000  0.03989000  1.0
  Sb  Sb30  1  0.00001000  0.74998000  0.13446000  1.0
  Sb  Sb31  1  0.50001000  0.99695000  0.03990000  1.0
  C  C32  1  0.99970000  0.25032000  0.28089000  1.0
  O  O33  1  0.00003000  0.24999000  0.32375000  1.0
