# generated using pymatgen
data_Ti16Rh16C
_symmetry_space_group_name_H-M   Pm
_cell_length_a   6.24301000
_cell_length_b   8.82895000
_cell_length_c   26.62170000
_cell_angle_alpha   90.00000000
_cell_angle_beta   90.00000000
_cell_angle_gamma   90.00000000
_symmetry_Int_Tables_number   6
_chemical_formula_structural   Ti16Rh16C
_chemical_formula_sum   'Ti16 Rh16 C1'
_cell_volume   1467.36742265
_cell_formula_units_Z   1
loop_
 _symmetry_equiv_pos_site_id
 _symmetry_equiv_pos_as_xyz
  1  'x, y, z'
  2  'x, -y, z'
loop_
 _atom_site_type_symbol
 _atom_site_label
 _atom_site_symmetry_multiplicity
 _atom_site_fract_x
 _atom_site_fract_y
 _atom_site_fract_z
 _atom_site_occupancy
  Ti  Ti0  2  0.24991000  0.23222000  0.13145000  1.0
  Ti  Ti1  2  0.25000000  0.25000000  0.95854000  1.0
  Ti  Ti2  2  0.74983000  0.25867000  0.12562000  1.0
  Ti  Ti3  2  0.75000000  0.25000000  0.95854000  1.0
  Ti  Ti4  1  0.24992000  0.00000000  0.04440000  1.0
  Ti  Ti5  1  0.25000000  0.00000000  0.87563000  1.0
  Ti  Ti6  1  0.25000000  0.50000000  0.87563000  1.0
  Ti  Ti7  1  0.25008000  0.50000000  0.04402000  1.0
  Ti  Ti8  1  0.74990000  0.00000000  0.03757000  1.0
  Ti  Ti9  1  0.75000000  0.00000000  0.87563000  1.0
  Ti  Ti10  1  0.75000000  0.50000000  0.87563000  1.0
  Ti  Ti11  1  0.75004000  0.50000000  0.04312000  1.0
  Rh  Rh12  2  0.00000000  0.25000000  0.87563000  1.0
  Rh  Rh13  2  0.00152000  0.25012000  0.04272000  1.0
  Rh  Rh14  2  0.49862000  0.25013000  0.04272000  1.0
  Rh  Rh15  2  0.50000000  0.25000000  0.87563000  1.0
  Rh  Rh16  1  0.00000000  0.00000000  0.95854000  1.0
  Rh  Rh17  1  0.00000000  0.50000000  0.95854000  1.0
  Rh  Rh18  1  0.00791000  0.50000000  0.11928000  1.0
  Rh  Rh19  1  0.49213000  0.50000000  0.11929000  1.0
  Rh  Rh20  1  0.50000000  0.00000000  0.95854000  1.0
  Rh  Rh21  1  0.50000000  0.50000000  0.95854000  1.0
  Rh  Rh22  1  0.53553000  0.00000000  0.11697000  1.0
  Rh  Rh23  1  0.96306000  0.00000000  0.11700000  1.0
  C  C24  1  0.24906000  0.00000000  0.14814000  1.0
