# generated using pymatgen
data_Li8Y8Mg8In8CO
_symmetry_space_group_name_H-M   'P 1'
_cell_length_a   7.08651000
_cell_length_b   10.02180000
_cell_length_c   27.51640000
_cell_angle_alpha   90.00000000
_cell_angle_beta   90.00000000
_cell_angle_gamma   90.00000000
_symmetry_Int_Tables_number   1
_chemical_formula_structural   Li8Y8Mg8In8CO
_chemical_formula_sum   'Li8 Y8 Mg8 In8 C1 O1'
_cell_volume   1954.20333395
_cell_formula_units_Z   1
loop_
 _symmetry_equiv_pos_site_id
 _symmetry_equiv_pos_as_xyz
  1  'x, y, z'
loop_
 _atom_site_type_symbol
 _atom_site_label
 _atom_site_symmetry_multiplicity
 _atom_site_fract_x
 _atom_site_fract_y
 _atom_site_fract_z
 _atom_site_occupancy
  Li  Li0  1  0.00000000  0.75000000  0.95447000  1.0
  Li  Li1  1  0.00000000  0.25000000  0.95447000  1.0
  Li  Li2  1  0.50000000  0.50000000  0.86342000  1.0
  Li  Li3  1  0.50000000  0.00000000  0.86342000  1.0
  Li  Li4  1  0.07127000  0.25021000  0.17288000  1.0
  Li  Li5  1  0.10703000  0.75084000  0.18446000  1.0
  Li  Li6  1  0.51453000  0.00041000  0.05094000  1.0
  Li  Li7  1  0.51435000  0.50001000  0.05123000  1.0
  Y  Y8  1  0.75000000  0.00000000  0.95447000  1.0
  Y  Y9  1  0.75000000  0.50000000  0.95447000  1.0
  Y  Y10  1  0.25000000  0.75000000  0.86342000  1.0
  Y  Y11  1  0.25000000  0.25000000  0.86342000  1.0
  Y  Y12  1  0.78771000  0.50719000  0.14049000  1.0
  Y  Y13  1  0.78704000  0.99395000  0.14046000  1.0
  Y  Y14  1  0.25778000  0.25057000  0.05390000  1.0
  Y  Y15  1  0.25135000  0.74991000  0.05379000  1.0
  Mg  Mg16  1  0.25000000  0.00000000  0.95447000  1.0
  Mg  Mg17  1  0.25000000  0.50000000  0.95447000  1.0
  Mg  Mg18  1  0.75000000  0.75000000  0.86342000  1.0
  Mg  Mg19  1  0.75000000  0.25000000  0.86342000  1.0
  Mg  Mg20  1  0.26825000  0.49946000  0.14092000  1.0
  Mg  Mg21  1  0.26708000  0.00180000  0.14062000  1.0
  Mg  Mg22  1  0.75771000  0.25109000  0.04959000  1.0
  Mg  Mg23  1  0.75254000  0.75085000  0.04833000  1.0
  In  In24  1  0.00000000  0.00000000  0.86342000  1.0
  In  In25  1  1.00000000  0.50000000  0.86342000  1.0
  In  In26  1  0.50000000  0.25000000  0.95447000  1.0
  In  In27  1  0.50000000  0.75000000  0.95447000  1.0
  In  In28  1  0.00632000  0.49926000  0.04383000  1.0
  In  In29  1  0.00639000  0.00186000  0.04381000  1.0
  In  In30  1  0.52136000  0.75028000  0.14503000  1.0
  In  In31  1  0.53116000  0.25048000  0.14616000  1.0
  C  C32  1  0.24927000  0.74830000  0.25058000  1.0
  O  O33  1  0.33417000  0.74645000  0.28596000  1.0
