# generated using pymatgen
data_Li8Y8Mg8In8CO
_symmetry_space_group_name_H-M   P1
_cell_length_a   7.08651000
_cell_length_b   10.02180000
_cell_length_c   27.51640000
_cell_angle_alpha   90.00000000
_cell_angle_beta   90.00000000
_cell_angle_gamma   90.00000000
_symmetry_Int_Tables_number   1
_chemical_formula_structural   Li8Y8Mg8In8CO
_chemical_formula_sum   'Li8 Y8 Mg8 In8 C1 O1'
_cell_volume   1954.20333395
_cell_formula_units_Z   1
loop_
 _symmetry_equiv_pos_site_id
 _symmetry_equiv_pos_as_xyz
  1  'x, y, z'
loop_
 _atom_site_type_symbol
 _atom_site_label
 _atom_site_symmetry_multiplicity
 _atom_site_fract_x
 _atom_site_fract_y
 _atom_site_fract_z
 _atom_site_occupancy
  Li  Li0  1  -0.00000000  0.25000000  0.95447000  1.0
  Li  Li1  1  -0.00000000  0.75000000  0.95447000  1.0
  Li  Li2  1  0.48547000  0.99959000  0.05094000  1.0
  Li  Li3  1  0.48565000  0.49999000  0.05123000  1.0
  Li  Li4  1  0.50000000  0.00000000  0.86342000  1.0
  Li  Li5  1  0.50000000  0.50000000  0.86342000  1.0
  Li  Li6  1  0.89297000  0.24916000  0.18446000  1.0
  Li  Li7  1  0.92873000  0.74979000  0.17288000  1.0
  Y  Y8  1  0.21229000  0.49281000  0.14049000  1.0
  Y  Y9  1  0.21296000  0.00605000  0.14046000  1.0
  Y  Y10  1  0.25000000  0.00000000  0.95447000  1.0
  Y  Y11  1  0.25000000  0.50000000  0.95447000  1.0
  Y  Y12  1  0.74222000  0.74943000  0.05390000  1.0
  Y  Y13  1  0.74865000  0.25009000  0.05379000  1.0
  Y  Y14  1  0.75000000  0.25000000  0.86342000  1.0
  Y  Y15  1  0.75000000  0.75000000  0.86342000  1.0
  Mg  Mg16  1  0.24229000  0.74891000  0.04959000  1.0
  Mg  Mg17  1  0.24746000  0.24915000  0.04833000  1.0
  Mg  Mg18  1  0.25000000  0.25000000  0.86342000  1.0
  Mg  Mg19  1  0.25000000  0.75000000  0.86342000  1.0
  Mg  Mg20  1  0.73175000  0.50054000  0.14092000  1.0
  Mg  Mg21  1  0.73292000  0.99820000  0.14062000  1.0
  Mg  Mg22  1  0.75000000  0.00000000  0.95447000  1.0
  Mg  Mg23  1  0.75000000  0.50000000  0.95447000  1.0
  In  In24  1  0.00000000  0.00000000  0.86342000  1.0
  In  In25  1  0.00000000  0.50000000  0.86342000  1.0
  In  In26  1  0.46884000  0.74952000  0.14616000  1.0
  In  In27  1  0.47864000  0.24972000  0.14503000  1.0
  In  In28  1  0.50000000  0.25000000  0.95447000  1.0
  In  In29  1  0.50000000  0.75000000  0.95447000  1.0
  In  In30  1  0.99361000  0.99814000  0.04381000  1.0
  In  In31  1  0.99368000  0.50074000  0.04383000  1.0
  C  C32  1  0.75073000  0.25170000  0.25058000  1.0
  O  O33  1  0.66583000  0.25355000  0.28596000  1.0
