# generated using pymatgen
data_Li16Ga8Ir8CO
_symmetry_space_group_name_H-M   'P 1'
_cell_length_a   8.38451000
_cell_length_b   5.92875000
_cell_length_c   26.28840000
_cell_angle_alpha   90.00000000
_cell_angle_beta   90.00000000
_cell_angle_gamma   90.00000000
_symmetry_Int_Tables_number   1
_chemical_formula_structural   Li16Ga8Ir8CO
_chemical_formula_sum   'Li16 Ga8 Ir8 C1 O1'
_cell_volume   1306.78752223
_cell_formula_units_Z   1
loop_
 _symmetry_equiv_pos_site_id
 _symmetry_equiv_pos_as_xyz
  1  'x, y, z'
loop_
 _atom_site_type_symbol
 _atom_site_label
 _atom_site_symmetry_multiplicity
 _atom_site_fract_x
 _atom_site_fract_y
 _atom_site_fract_z
 _atom_site_occupancy
  Li  Li0  1  0.00000000  0.25000000  0.03987000  1.0
  Li  Li1  1  0.50000000  0.75000000  0.03987000  1.0
  Li  Li2  1  0.00000000  0.75000000  0.03987000  1.0
  Li  Li3  1  0.50000000  0.25000000  0.03987000  1.0
  Li  Li4  1  0.75000000  0.75000000  0.11960000  1.0
  Li  Li5  1  0.25000000  0.25000000  0.11960000  1.0
  Li  Li6  1  0.75000000  0.25000000  0.11960000  1.0
  Li  Li7  1  0.25000000  0.75000000  0.11960000  1.0
  Li  Li8  1  0.50000000  0.23489000  0.85332000  1.0
  Li  Li9  1  0.00000000  0.76637000  0.84726000  1.0
  Li  Li10  1  0.50000000  0.75628000  0.85066000  1.0
  Li  Li11  1  0.00000000  0.24282000  0.85965000  1.0
  Li  Li12  1  0.26904000  0.75376000  0.96584000  1.0
  Li  Li13  1  0.76767000  0.24785000  0.96118000  1.0
  Li  Li14  1  0.23233000  0.24785000  0.96118000  1.0
  Li  Li15  1  0.73096000  0.75376000  0.96584000  1.0
  Ga  Ga16  1  0.00000000  0.00000000  0.11960000  1.0
  Ga  Ga17  1  0.25000000  0.50000000  0.03987000  1.0
  Ga  Ga18  1  0.75000000  0.50000000  0.03987000  1.0
  Ga  Ga19  1  0.50000000  0.00000000  0.11960000  1.0
  Ga  Ga20  1  0.50000000  0.03192000  0.94454000  1.0
  Ga  Ga21  1  0.75067000  0.53255000  0.88668000  1.0
  Ga  Ga22  1  0.24933000  0.53255000  0.88668000  1.0
  Ga  Ga23  1  0.00000000  0.95998000  0.94330000  1.0
  Ir  Ir24  1  0.75000000  0.00000000  0.03987000  1.0
  Ir  Ir25  1  0.00000000  0.50000000  0.11960000  1.0
  Ir  Ir26  1  0.25000000  0.00000000  0.03987000  1.0
  Ir  Ir27  1  0.50000000  0.50000000  0.11960000  1.0
  Ir  Ir28  1  0.25471000  0.97455000  0.88501000  1.0
  Ir  Ir29  1  0.50000000  0.47203000  0.94110000  1.0
  Ir  Ir30  1  0.74529000  0.97455000  0.88501000  1.0
  Ir  Ir31  1  0.00000000  0.52222000  0.94396000  1.0
  C  C32  1  0.00000000  0.25371000  0.77996000  1.0
  O  O33  1  0.00000000  0.22805000  0.73681000  1.0
