# generated using pymatgen
data_Li8Mg16Ge8C
_symmetry_space_group_name_H-M   'P 1'
_cell_length_a   9.56693000
_cell_length_b   6.76484000
_cell_length_c   27.17520000
_cell_angle_alpha   90.00000000
_cell_angle_beta   90.00000000
_cell_angle_gamma   90.00000000
_symmetry_Int_Tables_number   1
_chemical_formula_structural   Li8Mg16Ge8C
_chemical_formula_sum   'Li8 Mg16 Ge8 C1'
_cell_volume   1758.74499514
_cell_formula_units_Z   1
loop_
 _symmetry_equiv_pos_site_id
 _symmetry_equiv_pos_as_xyz
  1  'x, y, z'
loop_
 _atom_site_type_symbol
 _atom_site_label
 _atom_site_symmetry_multiplicity
 _atom_site_fract_x
 _atom_site_fract_y
 _atom_site_fract_z
 _atom_site_occupancy
  Li  Li0  1  0.75001000  0.00000000  0.13202000  1.0
  Li  Li1  1  0.00000000  0.50000000  0.04401000  1.0
  Li  Li2  1  0.50000000  0.50000000  0.04401000  1.0
  Li  Li3  1  0.24999000  0.00000000  0.13202000  1.0
  Li  Li4  1  0.25260000  0.98642000  0.94971000  1.0
  Li  Li5  1  0.50000000  0.41183000  0.82787000  1.0
  Li  Li6  1  0.00000000  0.51226000  0.83061000  1.0
  Li  Li7  1  0.74740000  0.98642000  0.94971000  1.0
  Mg  Mg8  1  0.75001000  0.25000000  0.04401000  1.0
  Mg  Mg9  1  0.25001000  0.75000000  0.04401000  1.0
  Mg  Mg10  1  0.74999000  0.75000000  0.04401000  1.0
  Mg  Mg11  1  0.24999000  0.25000000  0.04401000  1.0
  Mg  Mg12  1  0.50000000  0.75000000  0.13202000  1.0
  Mg  Mg13  1  0.00000000  0.25000000  0.13202000  1.0
  Mg  Mg14  1  0.50000000  0.25000000  0.13202000  1.0
  Mg  Mg15  1  0.00000000  0.75000000  0.13202000  1.0
  Mg  Mg16  1  0.22837000  0.27861000  0.86411000  1.0
  Mg  Mg17  1  0.72198000  0.73624000  0.85891000  1.0
  Mg  Mg18  1  0.27802000  0.73624000  0.85891000  1.0
  Mg  Mg19  1  0.77163000  0.27861000  0.86411000  1.0
  Mg  Mg20  1  0.00000000  0.74087000  0.95676000  1.0
  Mg  Mg21  1  0.50000000  0.26182000  0.95389000  1.0
  Mg  Mg22  1  0.00000000  0.26414000  0.94774000  1.0
  Mg  Mg23  1  0.50000000  0.74940000  0.95252000  1.0
  Ge  Ge24  1  0.50000000  0.00000000  0.04401000  1.0
  Ge  Ge25  1  0.75001000  0.50000000  0.13202000  1.0
  Ge  Ge26  1  0.00000000  0.00000000  0.04401000  1.0
  Ge  Ge27  1  0.24999000  0.50000000  0.13202000  1.0
  Ge  Ge28  1  0.00000000  0.94276000  0.86983000  1.0
  Ge  Ge29  1  0.25248000  0.50618000  0.96041000  1.0
  Ge  Ge30  1  0.50000000  0.02721000  0.87234000  1.0
  Ge  Ge31  1  0.74752000  0.50618000  0.96041000  1.0
  C  C32  1  0.00000000  0.23581000  0.86615000  1.0
