# generated using pymatgen
data_Li8Mg16Ge8C
_symmetry_space_group_name_H-M   Pm
_cell_length_a   6.76484000
_cell_length_b   9.56693000
_cell_length_c   27.17520000
_cell_angle_alpha   90.00000000
_cell_angle_beta   90.00000000
_cell_angle_gamma   90.00000000
_symmetry_Int_Tables_number   6
_chemical_formula_structural   Li8Mg16Ge8C
_chemical_formula_sum   'Li8 Mg16 Ge8 C1'
_cell_volume   1758.74499514
_cell_formula_units_Z   1
loop_
 _symmetry_equiv_pos_site_id
 _symmetry_equiv_pos_as_xyz
  1  'x, y, z'
  2  'x, -y, z'
loop_
 _atom_site_type_symbol
 _atom_site_label
 _atom_site_symmetry_multiplicity
 _atom_site_fract_x
 _atom_site_fract_y
 _atom_site_fract_z
 _atom_site_occupancy
  Li  Li0  2  0.00000000  0.24999000  0.86798000  1.0
  Li  Li1  2  0.98642000  0.25260000  0.05029000  1.0
  Li  Li2  1  0.41183000  0.50000000  0.17213000  1.0
  Li  Li3  1  0.50000000  0.00000000  0.95599000  1.0
  Li  Li4  1  0.50000000  0.50000000  0.95599000  1.0
  Li  Li5  1  0.51226000  0.00000000  0.16939000  1.0
  Mg  Mg6  2  0.25000000  0.24999000  0.95599000  1.0
  Mg  Mg7  2  0.27861000  0.22837000  0.13589000  1.0
  Mg  Mg8  2  0.73624000  0.27802000  0.14109000  1.0
  Mg  Mg9  2  0.75000000  0.25001000  0.95599000  1.0
  Mg  Mg10  1  0.25000000  0.00000000  0.86798000  1.0
  Mg  Mg11  1  0.25000000  0.50000000  0.86798000  1.0
  Mg  Mg12  1  0.26182000  0.50000000  0.04611000  1.0
  Mg  Mg13  1  0.26414000  0.00000000  0.05226000  1.0
  Mg  Mg14  1  0.74087000  0.00000000  0.04324000  1.0
  Mg  Mg15  1  0.74940000  0.50000000  0.04748000  1.0
  Mg  Mg16  1  0.75000000  0.00000000  0.86798000  1.0
  Mg  Mg17  1  0.75000000  0.50000000  0.86798000  1.0
  Ge  Ge18  2  0.50000000  0.24999000  0.86798000  1.0
  Ge  Ge19  2  0.50618000  0.25248000  0.03959000  1.0
  Ge  Ge20  1  0.00000000  0.00000000  0.95599000  1.0
  Ge  Ge21  1  0.00000000  0.50000000  0.95599000  1.0
  Ge  Ge22  1  0.02721000  0.50000000  0.12766000  1.0
  Ge  Ge23  1  0.94276000  0.00000000  0.13017000  1.0
  C  C24  1  0.23581000  0.00000000  0.13385000  1.0
