# generated using pymatgen
data_Li8In8Ge8Pd8C
_symmetry_space_group_name_H-M   Pm
_cell_length_a   6.51863000
_cell_length_b   9.21874000
_cell_length_c   26.91410000
_cell_angle_alpha   90.00000000
_cell_angle_beta   90.00000000
_cell_angle_gamma   90.00000000
_symmetry_Int_Tables_number   6
_chemical_formula_structural   Li8In8Ge8Pd8C
_chemical_formula_sum   'Li8 In8 Ge8 Pd8 C1'
_cell_volume   1617.36395202
_cell_formula_units_Z   1
loop_
 _symmetry_equiv_pos_site_id
 _symmetry_equiv_pos_as_xyz
  1  'x, y, z'
  2  'x, -y, z'
loop_
 _atom_site_type_symbol
 _atom_site_label
 _atom_site_symmetry_multiplicity
 _atom_site_fract_x
 _atom_site_fract_y
 _atom_site_fract_z
 _atom_site_occupancy
  Li  Li0  2  0.70258000  0.23110000  0.14621000  1.0
  Li  Li1  2  0.75000000  0.25000000  0.95718000  1.0
  Li  Li2  1  0.19152000  0.00000000  0.05171000  1.0
  Li  Li3  1  0.23873000  0.50000000  0.04522000  1.0
  Li  Li4  1  0.25000000  0.00000000  0.87155000  1.0
  Li  Li5  1  0.25000000  0.50000000  0.87155000  1.0
  In  In6  2  0.50000000  0.25000000  0.87155000  1.0
  In  In7  2  0.50137000  0.24118000  0.04210000  1.0
  In  In8  1  0.00000000  0.00000000  0.95718000  1.0
  In  In9  1  0.00000000  0.50000000  0.95718000  1.0
  In  In10  1  0.02924000  0.00000000  0.17403000  1.0
  In  In11  1  0.96741000  0.50000000  0.13768000  1.0
  Ge  Ge12  2  0.00000000  0.25000000  0.87155000  1.0
  Ge  Ge13  2  0.97672000  0.25927000  0.05023000  1.0
  Ge  Ge14  1  0.44023000  0.00000000  0.12829000  1.0
  Ge  Ge15  1  0.49069000  0.50000000  0.12786000  1.0
  Ge  Ge16  1  0.50000000  0.00000000  0.95718000  1.0
  Ge  Ge17  1  0.50000000  0.50000000  0.95718000  1.0
  Pd  Pd18  2  0.24497000  0.26053000  0.12125000  1.0
  Pd  Pd19  2  0.25000000  0.25000000  0.95718000  1.0
  Pd  Pd20  1  0.73363000  0.50000000  0.03675000  1.0
  Pd  Pd21  1  0.75000000  0.00000000  0.87155000  1.0
  Pd  Pd22  1  0.75000000  0.50000000  0.87155000  1.0
  Pd  Pd23  1  0.77085000  0.00000000  0.05189000  1.0
  C  C24  1  0.72706000  0.00000000  0.13704000  1.0
