# generated using pymatgen
data_Zn4Ni8Ge4CO
_symmetry_space_group_name_H-M   'P 1'
_cell_length_a   5.89777000
_cell_length_b   5.89777000
_cell_length_c   24.42330000
_cell_angle_alpha   90.00000000
_cell_angle_beta   90.00000000
_cell_angle_gamma   90.00000000
_symmetry_Int_Tables_number   1
_chemical_formula_structural   Zn4Ni8Ge4CO
_chemical_formula_sum   'Zn4 Ni8 Ge4 C1 O1'
_cell_volume   849.53251974
_cell_formula_units_Z   1
loop_
 _symmetry_equiv_pos_site_id
 _symmetry_equiv_pos_as_xyz
  1  'x, y, z'
loop_
 _atom_site_type_symbol
 _atom_site_label
 _atom_site_symmetry_multiplicity
 _atom_site_fract_x
 _atom_site_fract_y
 _atom_site_fract_z
 _atom_site_occupancy
  Zn  Zn0  1  0.99998000  0.99998000  0.90659000  1
  Zn  Zn1  1  0.49993500  0.49993500  0.91413000  1
  Zn  Zn2  1  0.50000000  0.99997000  0.03019000  1
  Zn  Zn3  1  0.99997000  0.50000000  0.03019000  1
  Ni  Ni4  1  0.24469000  0.75524000  0.96785000  1
  Ni  Ni5  1  0.75000000  0.24997000  0.09056000  1
  Ni  Ni6  1  0.75539000  0.75539000  0.96786000  1
  Ni  Ni7  1  0.24998500  0.24998500  0.09056000  1
  Ni  Ni8  1  0.75524000  0.24469000  0.96785000  1
  Ni  Ni9  1  0.24997000  0.75000000  0.09056000  1
  Ni  Ni10  1  0.24455000  0.24455000  0.96786000  1
  Ni  Ni11  1  0.74998500  0.74998500  0.09056000  1
  Ge  Ge12  1  0.99998500  0.99998500  0.03019000  1
  Ge  Ge13  1  0.50000000  0.99998000  0.90862000  1
  Ge  Ge14  1  0.99998000  0.50000000  0.90862000  1
  Ge  Ge15  1  0.49998500  0.49998500  0.03019000  1
  C  C16  1  0.00004000  0.00004000  0.82202000  1
  O  O17  1  0.00001000  0.00001000  0.77526000  1
