# generated using pymatgen
data_Zn4Ni8Ge4CO
_symmetry_space_group_name_H-M   Cm
_cell_length_a   8.34070632
_cell_length_b   8.34070632
_cell_length_c   24.42330000
_cell_angle_alpha   90.00000000
_cell_angle_beta   90.00000000
_cell_angle_gamma   90.00000000
_symmetry_Int_Tables_number   8
_chemical_formula_structural   Zn4Ni8Ge4CO
_chemical_formula_sum   'Zn8 Ni16 Ge8 C2 O2'
_cell_volume   1699.06503948
_cell_formula_units_Z   2
loop_
 _symmetry_equiv_pos_site_id
 _symmetry_equiv_pos_as_xyz
  1  'x, y, z'
  2  'x, -y, z'
  3  'x+1/2, y+1/2, z'
  4  'x+1/2, -y+1/2, z'
loop_
 _atom_site_type_symbol
 _atom_site_label
 _atom_site_symmetry_multiplicity
 _atom_site_fract_x
 _atom_site_fract_y
 _atom_site_fract_z
 _atom_site_occupancy
  Zn  Zn0  4  0.24998500  0.25001500  0.96981000  1.0
  Zn  Zn1  2  0.49993500  0.00000000  0.08587000  1.0
  Zn  Zn2  2  0.49998000  0.50000000  0.09341000  1.0
  Ni  Ni3  4  0.49996500  0.25527500  0.03215000  1.0
  Ni  Ni4  4  0.49998500  0.25001500  0.90944000  1.0
  Ni  Ni5  2  0.24455000  0.00000000  0.03214000  1.0
  Ni  Ni6  2  0.24998500  0.50000000  0.90944000  1.0
  Ni  Ni7  2  0.24998500  0.00000000  0.90944000  1.0
  Ni  Ni8  2  0.25539000  0.50000000  0.03214000  1.0
  Ge  Ge9  4  0.24999000  0.25001000  0.09138000  1.0
  Ge  Ge10  2  0.49998500  0.00000000  0.96981000  1.0
  Ge  Ge11  2  0.49998500  0.50000000  0.96981000  1.0
  C  C12  2  0.00004000  0.00000000  0.17798000  1.0
  O  O13  2  0.00001000  0.00000000  0.22474000  1.0
