# generated using pymatgen
data_Fe16Co16CO
_symmetry_space_group_name_H-M   Pmm2
_cell_length_a   5.71351000
_cell_length_b   8.08012000
_cell_length_c   26.06010000
_cell_angle_alpha   90.00000000
_cell_angle_beta   90.00000000
_cell_angle_gamma   90.00000000
_symmetry_Int_Tables_number   25
_chemical_formula_structural   Fe16Co16CO
_chemical_formula_sum   'Fe16 Co16 C1 O1'
_cell_volume   1203.08657432
_cell_formula_units_Z   1
loop_
 _symmetry_equiv_pos_site_id
 _symmetry_equiv_pos_as_xyz
  1  'x, y, z'
  2  '-x, -y, z'
  3  '-x, y, z'
  4  'x, -y, z'
loop_
 _atom_site_type_symbol
 _atom_site_label
 _atom_site_symmetry_multiplicity
 _atom_site_fract_x
 _atom_site_fract_y
 _atom_site_fract_z
 _atom_site_occupancy
  Fe  Fe0  4  0.25000000  0.25000000  0.96124000  1.0
  Fe  Fe1  4  0.25303000  0.25270000  0.11829000  1.0
  Fe  Fe2  2  0.24882000  0.50000000  0.03913000  1.0
  Fe  Fe3  2  0.25000000  0.00000000  0.88373000  1.0
  Fe  Fe4  2  0.25000000  0.50000000  0.88373000  1.0
  Fe  Fe5  2  0.25162000  0.00000000  0.03923000  1.0
  Co  Co6  2  0.00000000  0.24720000  0.03996000  1.0
  Co  Co7  2  0.00000000  0.25000000  0.88373000  1.0
  Co  Co8  2  0.50000000  0.25000000  0.88373000  1.0
  Co  Co9  2  0.50000000  0.25020000  0.03969000  1.0
  Co  Co10  1  0.00000000  0.00000000  0.11630000  1.0
  Co  Co11  1  0.00000000  0.00000000  0.96124000  1.0
  Co  Co12  1  0.00000000  0.50000000  0.11233000  1.0
  Co  Co13  1  0.00000000  0.50000000  0.96124000  1.0
  Co  Co14  1  0.50000000  0.00000000  0.11249000  1.0
  Co  Co15  1  0.50000000  0.00000000  0.96124000  1.0
  Co  Co16  1  0.50000000  0.50000000  0.11198000  1.0
  Co  Co17  1  0.50000000  0.50000000  0.96124000  1.0
  C  C18  1  0.00000000  0.00000000  0.18383000  1.0
  O  O19  1  0.00000000  0.00000000  0.22846000  1.0
