# generated using pymatgen
data_MnGa
_symmetry_space_group_name_H-M   'P 1'
_cell_length_a   3.67853000
_cell_length_b   3.85069000
_cell_length_c   25.77600000
_cell_angle_alpha   90.00000000
_cell_angle_beta   90.00000000
_cell_angle_gamma   90.00000000
_symmetry_Int_Tables_number   1
_chemical_formula_structural   MnGa
_chemical_formula_sum   'Mn4 Ga4'
_cell_volume   365.11391300
_cell_formula_units_Z   4
loop_
 _symmetry_equiv_pos_site_id
 _symmetry_equiv_pos_as_xyz
  1  'x, y, z'
loop_
 _atom_site_type_symbol
 _atom_site_label
 _atom_site_symmetry_multiplicity
 _atom_site_fract_x
 _atom_site_fract_y
 _atom_site_fract_z
 _atom_site_occupancy
  Mn  Mn0  1  0.50000000  0.25000000  0.88796000  1.0
  Mn  Mn1  1  0.50000000  0.75000000  0.96265000  1.0
  Mn  Mn2  1  0.50000000  0.25000000  0.03735000  1.0
  Mn  Mn3  1  0.50000000  0.75000000  0.11204000  1.0
  Ga  Ga4  1  0.00000000  0.75000000  0.88796000  1.0
  Ga  Ga5  1  0.00000000  0.25000000  0.96265000  1.0
  Ga  Ga6  1  0.00000000  0.75000000  0.03735000  1.0
  Ga  Ga7  1  0.00000000  0.25000000  0.11204000  1.0
