# generated using pymatgen
data_Li8In8Pd8Pt8C
_symmetry_space_group_name_H-M   'P 1'
_cell_length_a   9.04392000
_cell_length_b   6.39502000
_cell_length_c   26.78290000
_cell_angle_alpha   90.00000000
_cell_angle_beta   90.00000000
_cell_angle_gamma   90.00000000
_symmetry_Int_Tables_number   1
_chemical_formula_structural   Li8In8Pd8Pt8C
_chemical_formula_sum   'Li8 In8 Pd8 Pt8 C1'
_cell_volume   1549.01712422
_cell_formula_units_Z   1
loop_
 _symmetry_equiv_pos_site_id
 _symmetry_equiv_pos_as_xyz
  1  'x, y, z'
loop_
 _atom_site_type_symbol
 _atom_site_label
 _atom_site_symmetry_multiplicity
 _atom_site_fract_x
 _atom_site_fract_y
 _atom_site_fract_z
 _atom_site_occupancy
  Li  Li0  1  0.25000000  1.00000000  0.04221000  1.0
  Li  Li1  1  0.75000000  1.00000000  0.04221000  1.0
  Li  Li2  1  0.50000000  0.50000000  0.12663000  1.0
  Li  Li3  1  0.00000000  0.50000000  0.12663000  1.0
  Li  Li4  1  0.74458000  0.00951000  0.86502000  1.0
  Li  Li5  1  0.25542000  0.00951000  0.86502000  1.0
  Li  Li6  1  0.00000000  0.50157000  0.95541000  1.0
  Li  Li7  1  0.50000000  0.49891000  0.95806000  1.0
  In  In8  1  0.00000000  0.00000000  0.12663000  1.0
  In  In9  1  0.50000000  1.00000000  0.12663000  1.0
  In  In10  1  0.75000000  0.50000000  0.04221000  1.0
  In  In11  1  0.25000000  0.50000000  0.04221000  1.0
  In  In12  1  0.50000000  0.00281000  0.95982000  1.0
  In  In13  1  0.00000000  0.99087000  0.96085000  1.0
  In  In14  1  0.26246000  0.50596000  0.86460000  1.0
  In  In15  1  0.73754000  0.50596000  0.86460000  1.0
  Pd  Pd16  1  0.00000000  0.75000000  0.04221000  1.0
  Pd  Pd17  1  0.50000000  0.75000000  0.04221000  1.0
  Pd  Pd18  1  0.25000000  0.25000000  0.12663000  1.0
  Pd  Pd19  1  0.75000000  0.25000000  0.12663000  1.0
  Pd  Pd20  1  0.50000000  0.76228000  0.87758000  1.0
  Pd  Pd21  1  0.00000000  0.77225000  0.87109000  1.0
  Pd  Pd22  1  0.75533000  0.25538000  0.95446000  1.0
  Pd  Pd23  1  0.24467000  0.25538000  0.95446000  1.0
  Pt  Pt24  1  0.00000000  0.25000000  0.04221000  1.0
  Pt  Pt25  1  0.50000000  0.25000000  0.04221000  1.0
  Pt  Pt26  1  0.25000000  0.75000000  0.12663000  1.0
  Pt  Pt27  1  0.75000000  0.75000000  0.12663000  1.0
  Pt  Pt28  1  0.50000000  0.25241000  0.87812000  1.0
  Pt  Pt29  1  0.00000000  0.23096000  0.87599000  1.0
  Pt  Pt30  1  0.74974000  0.74213000  0.95509000  1.0
  Pt  Pt31  1  0.25026000  0.74213000  0.95509000  1.0
  C  C32  1  0.00000000  0.48941000  0.84125000  1.0
