# generated using pymatgen
data_Li8Al4Pt4CO
_symmetry_space_group_name_H-M   P2
_cell_length_a   6.07419000
_cell_length_b   24.55560000
_cell_length_c   6.07419000
_cell_angle_alpha   90.00000000
_cell_angle_beta   90.00000000
_cell_angle_gamma   90.00000000
_symmetry_Int_Tables_number   3
_chemical_formula_structural   Li8Al4Pt4CO
_chemical_formula_sum   'Li8 Al4 Pt4 C1 O1'
_cell_volume   905.99811742
_cell_formula_units_Z   1
loop_
 _symmetry_equiv_pos_site_id
 _symmetry_equiv_pos_as_xyz
  1  'x, y, z'
  2  '-x, y, -z'
loop_
 _atom_site_type_symbol
 _atom_site_label
 _atom_site_symmetry_multiplicity
 _atom_site_fract_x
 _atom_site_fract_y
 _atom_site_fract_z
 _atom_site_occupancy
  Li  Li0  2  0.25000000  0.90724000  0.75000000  1.0
  Li  Li1  2  0.25165000  0.02668000  0.24798000  1.0
  Li  Li2  1  0.00000000  0.09991000  0.50000000  1.0
  Li  Li3  1  0.00000000  0.96908000  0.00000000  1.0
  Li  Li4  1  0.50000000  0.10316000  0.00000000  1.0
  Li  Li5  1  0.50000000  0.96908000  0.50000000  1.0
  Al  Al6  1  0.00000000  0.08407000  0.00000000  1.0
  Al  Al7  1  0.00000000  0.96908000  0.50000000  1.0
  Al  Al8  1  0.50000000  0.08405000  0.50000000  1.0
  Al  Al9  1  0.50000000  0.96908000  0.00000000  1.0
  Pt  Pt10  2  0.24976000  0.03097000  0.74982000  1.0
  Pt  Pt11  2  0.25000000  0.90724000  0.25000000  1.0
  C  C12  1  0.50000000  0.18784000  0.00000000  1.0
  O  O13  1  0.50000000  0.23438000  0.00000000  1.0
