# generated using pymatgen
data_Mn8Al8Co16CO
_symmetry_space_group_name_H-M   'P 1'
_cell_length_a   8.07854000
_cell_length_b   5.71239000
_cell_length_c   26.05890000
_cell_angle_alpha   90.00000000
_cell_angle_beta   90.00000000
_cell_angle_gamma   90.00000000
_symmetry_Int_Tables_number   1
_chemical_formula_structural   Mn8Al8Co16CO
_chemical_formula_sum   'Mn8 Al8 Co16 C1 O1'
_cell_volume   1202.56015259
_cell_formula_units_Z   1
loop_
 _symmetry_equiv_pos_site_id
 _symmetry_equiv_pos_as_xyz
  1  'x, y, z'
loop_
 _atom_site_type_symbol
 _atom_site_label
 _atom_site_symmetry_multiplicity
 _atom_site_fract_x
 _atom_site_fract_y
 _atom_site_fract_z
 _atom_site_occupancy
  Mn  Mn0  1  0.00000000  0.00000000  0.11625000  1.0
  Mn  Mn1  1  0.25000000  0.50000000  0.03875000  1.0
  Mn  Mn2  1  0.75000000  0.50000000  0.03875000  1.0
  Mn  Mn3  1  0.50000000  1.00000000  0.11625000  1.0
  Mn  Mn4  1  0.50000000  0.00004000  0.96104000  1.0
  Mn  Mn5  1  0.74504000  0.50219000  0.88233000  1.0
  Mn  Mn6  1  0.25496000  0.50219000  0.88233000  1.0
  Mn  Mn7  1  0.00000000  0.99893000  0.96038000  1.0
  Al  Al8  1  0.75000000  1.00000000  0.03875000  1.0
  Al  Al9  1  0.00000000  0.50000000  0.11625000  1.0
  Al  Al10  1  0.25000000  1.00000000  0.03875000  1.0
  Al  Al11  1  0.50000000  0.50000000  0.11625000  1.0
  Al  Al12  1  0.24487000  0.00128000  0.88275000  1.0
  Al  Al13  1  0.50000000  0.50058000  0.96083000  1.0
  Al  Al14  1  0.75513000  0.00128000  0.88275000  1.0
  Al  Al15  1  0.00000000  0.49948000  0.96131000  1.0
  Co  Co16  1  0.00000000  0.25000000  0.03875000  1.0
  Co  Co17  1  0.50000000  0.75000000  0.03875000  1.0
  Co  Co18  1  0.00000000  0.75000000  0.03875000  1.0
  Co  Co19  1  0.50000000  0.25000000  0.03875000  1.0
  Co  Co20  1  0.75000000  0.75000000  0.11625000  1.0
  Co  Co21  1  0.25000000  0.25000000  0.11625000  1.0
  Co  Co22  1  0.75000000  0.25000000  0.11625000  1.0
  Co  Co23  1  0.25000000  0.75000000  0.11625000  1.0
  Co  Co24  1  0.50000000  0.23924000  0.88463000  1.0
  Co  Co25  1  0.00000000  0.75194000  0.88458000  1.0
  Co  Co26  1  0.50000000  0.76468000  0.88473000  1.0
  Co  Co27  1  0.00000000  0.25322000  0.88186000  1.0
  Co  Co28  1  0.24932000  0.74957000  0.96091000  1.0
  Co  Co29  1  0.75054000  0.24955000  0.96080000  1.0
  Co  Co30  1  0.24946000  0.24955000  0.96080000  1.0
  Co  Co31  1  0.75068000  0.74957000  0.96091000  1.0
  C  C32  1  0.00000000  0.34220000  0.81787000  1.0
  O  O33  1  0.00000000  0.38939000  0.77424000  1.0
