# generated using pymatgen
data_Mn8Al8Co16CO
_symmetry_space_group_name_H-M   Pm
_cell_length_a   5.71239000
_cell_length_b   8.07854000
_cell_length_c   26.05890000
_cell_angle_alpha   90.00000000
_cell_angle_beta   90.00000000
_cell_angle_gamma   90.00000000
_symmetry_Int_Tables_number   6
_chemical_formula_structural   Mn8Al8Co16CO
_chemical_formula_sum   'Mn8 Al8 Co16 C1 O1'
_cell_volume   1202.56015259
_cell_formula_units_Z   1
loop_
 _symmetry_equiv_pos_site_id
 _symmetry_equiv_pos_as_xyz
  1  'x, y, z'
  2  'x, -y, z'
loop_
 _atom_site_type_symbol
 _atom_site_label
 _atom_site_symmetry_multiplicity
 _atom_site_fract_x
 _atom_site_fract_y
 _atom_site_fract_z
 _atom_site_occupancy
  Mn  Mn0  2  0.50000000  0.25000000  0.96125000  1.0
  Mn  Mn1  2  0.50219000  0.25496000  0.11767000  1.0
  Mn  Mn2  1  -0.00000000  0.50000000  0.88375000  1.0
  Mn  Mn3  1  0.00000000  0.00000000  0.88375000  1.0
  Mn  Mn4  1  0.00004000  0.50000000  0.03896000  1.0
  Mn  Mn5  1  0.99893000  0.00000000  0.03962000  1.0
  Al  Al6  2  -0.00000000  0.25000000  0.96125000  1.0
  Al  Al7  2  0.00128000  0.24487000  0.11725000  1.0
  Al  Al8  1  0.49948000  0.00000000  0.03869000  1.0
  Al  Al9  1  0.50000000  0.00000000  0.88375000  1.0
  Al  Al10  1  0.50000000  0.50000000  0.88375000  1.0
  Al  Al11  1  0.50058000  0.50000000  0.03917000  1.0
  Co  Co12  2  0.24955000  0.24946000  0.03920000  1.0
  Co  Co13  2  0.25000000  0.25000000  0.88375000  1.0
  Co  Co14  2  0.74957000  0.24932000  0.03909000  1.0
  Co  Co15  2  0.75000000  0.25000000  0.88375000  1.0
  Co  Co16  1  0.23924000  0.50000000  0.11537000  1.0
  Co  Co17  1  0.25000000  0.00000000  0.96125000  1.0
  Co  Co18  1  0.25000000  0.50000000  0.96125000  1.0
  Co  Co19  1  0.25322000  0.00000000  0.11814000  1.0
  Co  Co20  1  0.75000000  0.00000000  0.96125000  1.0
  Co  Co21  1  0.75000000  0.50000000  0.96125000  1.0
  Co  Co22  1  0.75194000  0.00000000  0.11542000  1.0
  Co  Co23  1  0.76468000  0.50000000  0.11527000  1.0
  C  C24  1  0.34220000  0.00000000  0.18213000  1.0
  O  O25  1  0.38939000  0.00000000  0.22576000  1.0
