# generated using pymatgen
data_Mn24Pt8CO
_symmetry_space_group_name_H-M   Pm
_cell_length_a   8.81047000
_cell_length_b   8.81047000
_cell_length_c   26.60790000
_cell_angle_alpha   90.00000000
_cell_angle_beta   90.00000000
_cell_angle_gamma   90.00000000
_symmetry_Int_Tables_number   6
_chemical_formula_structural   Mn24Pt8CO
_chemical_formula_sum   'Mn24 Pt8 C1 O1'
_cell_volume   2065.42178373
_cell_formula_units_Z   1
loop_
 _symmetry_equiv_pos_site_id
 _symmetry_equiv_pos_as_xyz
  1  'x, y, z'
  2  'x, -y, z'
loop_
 _atom_site_type_symbol
 _atom_site_label
 _atom_site_symmetry_multiplicity
 _atom_site_fract_x
 _atom_site_fract_y
 _atom_site_fract_z
 _atom_site_occupancy
  Mn  Mn0  2  -0.00000000  0.24999000  0.95861000  1.0
  Mn  Mn1  2  0.25000000  0.24999000  0.87583000  1.0
  Mn  Mn2  2  0.25001000  0.27786000  0.03047000  1.0
  Mn  Mn3  2  0.50000000  0.24999000  0.95861000  1.0
  Mn  Mn4  2  0.50219000  0.24654000  0.07718000  1.0
  Mn  Mn5  2  0.75000000  0.24999000  0.87583000  1.0
  Mn  Mn6  2  0.75001000  0.24907000  0.02525000  1.0
  Mn  Mn7  2  0.99783000  0.24659000  0.07718000  1.0
  Mn  Mn8  1  0.25000000  0.00000000  0.95861000  1.0
  Mn  Mn9  1  0.25000000  0.50000000  0.09055000  1.0
  Mn  Mn10  1  0.25000000  0.50000000  0.95861000  1.0
  Mn  Mn11  1  0.25001000  0.00000000  0.07006000  1.0
  Mn  Mn12  1  0.74997000  0.50000000  0.07176000  1.0
  Mn  Mn13  1  0.74998000  0.00000000  0.07696000  1.0
  Mn  Mn14  1  0.75000000  0.00000000  0.95861000  1.0
  Mn  Mn15  1  0.75000000  0.50000000  0.95861000  1.0
  Pt  Pt16  1  -0.00000000  0.00000000  0.87583000  1.0
  Pt  Pt17  1  0.00000000  0.50000000  0.87583000  1.0
  Pt  Pt18  1  0.01672000  0.50000000  0.02246000  1.0
  Pt  Pt19  1  0.48328000  0.50000000  0.02245000  1.0
  Pt  Pt20  1  0.50000000  0.00000000  0.87583000  1.0
  Pt  Pt21  1  0.50000000  0.50000000  0.87583000  1.0
  Pt  Pt22  1  0.50587000  0.00000000  0.02119000  1.0
  Pt  Pt23  1  0.99414000  0.00000000  0.02118000  1.0
  C  C24  1  0.25003000  0.50000000  0.16129000  1.0
  O  O25  1  0.25001000  0.50000000  0.20522000  1.0
