# generated using pymatgen
data_ScAl3
_symmetry_space_group_name_H-M   'P 1'
_cell_length_a   4.09135500
_cell_length_b   5.78605000
_cell_length_c   24.33950000
_cell_angle_alpha   90.00000000
_cell_angle_beta   90.00000000
_cell_angle_gamma   90.00000000
_symmetry_Int_Tables_number   1
_chemical_formula_structural   ScAl3
_chemical_formula_sum   'Sc2 Al6'
_cell_volume   576.18374072
_cell_formula_units_Z   2
loop_
 _symmetry_equiv_pos_site_id
 _symmetry_equiv_pos_as_xyz
  1  'x, y, z'
loop_
 _atom_site_type_symbol
 _atom_site_label
 _atom_site_symmetry_multiplicity
 _atom_site_fract_x
 _atom_site_fract_y
 _atom_site_fract_z
 _atom_site_occupancy
  Sc  Sc0  1  0.00000000  0.50000000  0.90933500  1.0
  Sc  Sc1  1  0.00000000  0.00000000  0.02972000  1.0
  Al  Al2  1  0.00000000  0.00000000  0.91004000  1.0
  Al  Al3  1  0.50000000  0.75161500  0.96795000  1.0
  Al  Al4  1  0.50000000  0.24838500  0.96795000  1.0
  Al  Al5  1  0.00000000  0.50000000  0.02972000  1.0
  Al  Al6  1  0.50000000  0.25000500  0.08915000  1.0
  Al  Al7  1  0.50000000  0.74999500  0.08915000  1.0
