# generated using pymatgen
data_InNi3
_symmetry_space_group_name_H-M   Pm
_cell_length_a   5.34265000
_cell_length_b   7.55564000
_cell_length_c   24.00700000
_cell_angle_alpha   90.00000000
_cell_angle_beta   90.00000000
_cell_angle_gamma   90.00000000
_symmetry_Int_Tables_number   6
_chemical_formula_structural   InNi3
_chemical_formula_sum   'In4 Ni12'
_cell_volume   969.09393108
_cell_formula_units_Z   4
loop_
 _symmetry_equiv_pos_site_id
 _symmetry_equiv_pos_as_xyz
  1  'x, y, z'
  2  '-x, -y, z'
  3  '-x, y, z'
  4  'x, -y, z'
loop_
 _atom_site_type_symbol
 _atom_site_label
 _atom_site_symmetry_multiplicity
 _atom_site_fract_x
 _atom_site_fract_y
 _atom_site_fract_z
 _atom_site_occupancy
  In  In0  2  0.00000000  0.25000000  0.08345000  1.0
  In  In1  2  0.50000000  0.25002000  0.96790000  1.0
  Ni  Ni2  2  0.00002000  0.24996000  0.97119000  1.0
  Ni  Ni3  2  0.22631000  0.00000000  0.92392000  1.0
  Ni  Ni4  2  0.22634000  0.50000000  0.92395000  1.0
  Ni  Ni5  2  0.25000000  0.00000000  0.02782000  1.0
  Ni  Ni6  2  0.25000000  0.50000000  0.02782000  1.0
  Ni  Ni7  2  0.50000000  0.25000000  0.08345000  1.0
