# generated using pymatgen
data_Sc8Ni16Sn8C
_symmetry_space_group_name_H-M   Pmm2
_cell_length_a   6.31539000
_cell_length_b   8.93131000
_cell_length_c   26.69850000
_cell_angle_alpha   90.00000000
_cell_angle_beta   90.00000000
_cell_angle_gamma   90.00000000
_symmetry_Int_Tables_number   25
_chemical_formula_structural   Sc8Ni16Sn8C
_chemical_formula_sum   'Sc8 Ni16 Sn8 C1'
_cell_volume   1505.92103943
_cell_formula_units_Z   1
loop_
 _symmetry_equiv_pos_site_id
 _symmetry_equiv_pos_as_xyz
  1  'x, y, z'
  2  '-x, -y, z'
  3  '-x, y, z'
  4  'x, -y, z'
loop_
 _atom_site_type_symbol
 _atom_site_label
 _atom_site_symmetry_multiplicity
 _atom_site_fract_x
 _atom_site_fract_y
 _atom_site_fract_z
 _atom_site_occupancy
  Sc  Sc0  2  0.00000000  0.24938000  0.12901000  1.0
  Sc  Sc1  2  0.00000000  0.25000000  0.95818000  1.0
  Sc  Sc2  1  0.50000000  0.00000000  0.04241000  1.0
  Sc  Sc3  1  0.50000000  0.00000000  0.87455000  1.0
  Sc  Sc4  1  0.50000000  0.50000000  0.04015000  1.0
  Sc  Sc5  1  0.50000000  0.50000000  0.87455000  1.0
  Ni  Ni6  4  0.24077000  0.25188000  0.04353000  1.0
  Ni  Ni7  4  0.25002000  0.25000000  0.87455000  1.0
  Ni  Ni8  2  0.24998000  0.00000000  0.95818000  1.0
  Ni  Ni9  2  0.25002000  0.50000000  0.95818000  1.0
  Ni  Ni10  2  0.26733000  0.50000000  0.11865000  1.0
  Ni  Ni11  2  0.28638000  0.00000000  0.12790000  1.0
  Sn  Sn12  2  0.50000000  0.25000000  0.95818000  1.0
  Sn  Sn13  2  0.50000000  0.25251000  0.12782000  1.0
  Sn  Sn14  1  0.00000000  0.00000000  0.04284000  1.0
  Sn  Sn15  1  0.00000000  0.00000000  0.87455000  1.0
  Sn  Sn16  1  0.00000000  0.50000000  0.04184000  1.0
  Sn  Sn17  1  0.00000000  0.50000000  0.87455000  1.0
  C  C18  1  0.00000000  0.00000000  0.14033000  1.0
