# generated using pymatgen
data_Ga16Ag16CO
_symmetry_space_group_name_H-M   P1
_cell_length_a   6.70510000
_cell_length_b   9.48244000
_cell_length_c   27.11180000
_cell_angle_alpha   90.00000000
_cell_angle_beta   90.00000000
_cell_angle_gamma   90.00000000
_symmetry_Int_Tables_number   1
_chemical_formula_structural   Ga16Ag16CO
_chemical_formula_sum   'Ga16 Ag16 C1 O1'
_cell_volume   1723.78745119
_cell_formula_units_Z   1
loop_
 _symmetry_equiv_pos_site_id
 _symmetry_equiv_pos_as_xyz
  1  'x, y, z'
loop_
 _atom_site_type_symbol
 _atom_site_label
 _atom_site_symmetry_multiplicity
 _atom_site_fract_x
 _atom_site_fract_y
 _atom_site_fract_z
 _atom_site_occupancy
  Ga  Ga0  1  0.25000000  0.00000000  0.95628000  1.0
  Ga  Ga1  1  0.25000000  0.25000000  0.86884000  1.0
  Ga  Ga2  1  0.25000000  0.50000000  0.95628000  1.0
  Ga  Ga3  1  0.25000000  0.75000000  0.86884000  1.0
  Ga  Ga4  1  0.25041000  0.75000000  0.04235000  1.0
  Ga  Ga5  1  0.25188000  0.00063000  0.14209000  1.0
  Ga  Ga6  1  0.25190000  0.49936000  0.14208000  1.0
  Ga  Ga7  1  0.25254000  0.25000000  0.04438000  1.0
  Ga  Ga8  1  0.74741000  0.25000000  0.04436000  1.0
  Ga  Ga9  1  0.74806000  0.00062000  0.14209000  1.0
  Ga  Ga10  1  0.74806000  0.49937000  0.14210000  1.0
  Ga  Ga11  1  0.74955000  0.75000000  0.04235000  1.0
  Ga  Ga12  1  0.75000000  0.00000000  0.95628000  1.0
  Ga  Ga13  1  0.75000000  0.25000000  0.86884000  1.0
  Ga  Ga14  1  0.75000000  0.50000000  0.95628000  1.0
  Ga  Ga15  1  0.75000000  0.75000000  0.86884000  1.0
  Ag  Ag16  1  0.00000000  0.00000000  0.86884000  1.0
  Ag  Ag17  1  0.00000000  0.50000000  0.86884000  1.0
  Ag  Ag18  1  0.00000000  0.25000000  0.95628000  1.0
  Ag  Ag19  1  0.00000000  0.75000000  0.95628000  1.0
  Ag  Ag20  1  0.49998000  0.49903000  0.04628000  1.0
  Ag  Ag21  1  0.49998000  0.75000000  0.12737000  1.0
  Ag  Ag22  1  0.49999000  0.00097000  0.04628000  1.0
  Ag  Ag23  1  0.50000000  0.00000000  0.86884000  1.0
  Ag  Ag24  1  0.50000000  0.25000000  0.95628000  1.0
  Ag  Ag25  1  0.50000000  0.50000000  0.86884000  1.0
  Ag  Ag26  1  0.50000000  0.75000000  0.95628000  1.0
  Ag  Ag27  1  0.50001000  0.24999000  0.13045000  1.0
  Ag  Ag28  1  0.99991000  0.25000000  0.12710000  1.0
  Ag  Ag29  1  0.99996000  0.99891000  0.04620000  1.0
  Ag  Ag30  1  0.99998000  0.50109000  0.04620000  1.0
  Ag  Ag31  1  0.99998000  0.74999000  0.12640000  1.0
  C  C32  1  0.00106000  0.25008000  0.26659000  1.0
  O  O33  1  0.99985000  0.24998000  0.30845000  1.0
