# generated using pymatgen
data_Li4Al4Pd4Pt4C
_symmetry_space_group_name_H-M   'P 1'
_cell_length_a   6.06122000
_cell_length_b   6.06122000
_cell_length_c   24.54590000
_cell_angle_alpha   90.00000000
_cell_angle_beta   90.00000000
_cell_angle_gamma   90.00000000
_symmetry_Int_Tables_number   1
_chemical_formula_structural   Li4Al4Pd4Pt4C
_chemical_formula_sum   'Li4 Al4 Pd4 Pt4 C1'
_cell_volume   901.77679527
_cell_formula_units_Z   1
loop_
 _symmetry_equiv_pos_site_id
 _symmetry_equiv_pos_as_xyz
  1  'x, y, z'
loop_
 _atom_site_type_symbol
 _atom_site_label
 _atom_site_symmetry_multiplicity
 _atom_site_fract_x
 _atom_site_fract_y
 _atom_site_fract_z
 _atom_site_occupancy
  Li  Li0  1  0.25000000  0.75000000  0.09260000  1
  Li  Li1  1  0.75000000  0.75000000  0.96913000  1
  Li  Li2  1  0.25000000  0.25000000  0.96913000  1
  Li  Li3  1  0.75000000  0.25000000  0.09260000  1
  Al  Al4  1  0.75000000  0.75000000  0.09260000  1
  Al  Al5  1  0.25000000  0.75000000  0.96913000  1
  Al  Al6  1  0.75000000  0.25000000  0.96913000  1
  Al  Al7  1  0.25000000  0.25000000  0.09260000  1
  Pd  Pd8  1  0.50000000  0.50000000  0.03087000  1
  Pd  Pd9  1  1.00000000  0.50000000  0.90740000  1
  Pd  Pd10  1  0.50000000  0.00000000  0.90740000  1
  Pd  Pd11  1  0.00000000  0.00000000  0.03087000  1
  Pt  Pt12  1  0.50000000  0.00000000  0.03087000  1
  Pt  Pt13  1  0.00000000  0.00000000  0.90740000  1
  Pt  Pt14  1  0.50000000  0.50000000  0.90740000  1
  Pt  Pt15  1  1.00000000  0.50000000  0.03087000  1
  C  C16  1  0.50000000  0.50000000  0.12519000  1
