# generated using pymatgen
data_Li8Sc8Al8In8CO
_symmetry_space_group_name_H-M   P1
_cell_length_a   8.37392000
_cell_length_b   8.49254000
_cell_length_c   26.53520000
_cell_angle_alpha   90.00000000
_cell_angle_beta   90.00000000
_cell_angle_gamma   90.00000000
_symmetry_Int_Tables_number   1
_chemical_formula_structural   Li8Sc8Al8In8CO
_chemical_formula_sum   'Li8 Sc8 Al8 In8 C1 O1'
_cell_volume   1887.07331769
_cell_formula_units_Z   1
loop_
 _symmetry_equiv_pos_site_id
 _symmetry_equiv_pos_as_xyz
  1  'x, y, z'
loop_
 _atom_site_type_symbol
 _atom_site_label
 _atom_site_symmetry_multiplicity
 _atom_site_fract_x
 _atom_site_fract_y
 _atom_site_fract_z
 _atom_site_occupancy
  Li  Li0  1  0.00000000  0.25000000  0.95895000  1.0
  Li  Li1  1  0.00000000  0.75000000  0.95895000  1.0
  Li  Li2  1  0.00099000  0.24890000  0.13835000  1.0
  Li  Li3  1  0.00099000  0.75112000  0.13835000  1.0
  Li  Li4  1  0.49899000  0.75115000  0.13835000  1.0
  Li  Li5  1  0.49900000  0.24888000  0.13835000  1.0
  Li  Li6  1  0.50000000  0.25000000  0.95895000  1.0
  Li  Li7  1  0.50000000  0.75000000  0.95895000  1.0
  Sc  Sc8  1  0.24999000  0.25068000  0.04434000  1.0
  Sc  Sc9  1  0.25000000  0.25000000  0.87686000  1.0
  Sc  Sc10  1  0.25000000  0.74933000  0.04433000  1.0
  Sc  Sc11  1  0.25000000  0.75000000  0.87686000  1.0
  Sc  Sc12  1  0.74999000  0.75066000  0.04442000  1.0
  Sc  Sc13  1  0.75000000  0.25000000  0.87686000  1.0
  Sc  Sc14  1  0.75000000  0.75000000  0.87686000  1.0
  Sc  Sc15  1  0.75001000  0.24935000  0.04442000  1.0
  Al  Al16  1  0.00000000  0.00000000  0.87686000  1.0
  Al  Al17  1  0.00000000  0.50000000  0.87686000  1.0
  Al  Al18  1  0.00030000  0.50001000  0.04313000  1.0
  Al  Al19  1  0.49970000  0.50000000  0.04312000  1.0
  Al  Al20  1  0.50000000  0.00000000  0.87686000  1.0
  Al  Al21  1  0.50000000  0.50000000  0.87686000  1.0
  Al  Al22  1  0.50108000  0.00001000  0.04333000  1.0
  Al  Al23  1  0.99890000  0.00000000  0.04333000  1.0
  In  In24  1  0.24996000  0.00001000  0.12772000  1.0
  In  In25  1  0.25000000  0.00000000  0.95895000  1.0
  In  In26  1  0.25000000  0.50000000  0.95895000  1.0
  In  In27  1  0.25001000  0.50001000  0.12792000  1.0
  In  In28  1  0.74998000  0.50002000  0.12766000  1.0
  In  In29  1  0.75000000  0.00000000  0.95895000  1.0
  In  In30  1  0.75000000  0.50000000  0.95895000  1.0
  In  In31  1  0.75001000  0.00001000  0.12839000  1.0
  C  C32  1  0.25042000  0.99965000  0.28806000  1.0
  O  O33  1  0.24983000  0.00008000  0.33083000  1.0
