# generated using pymatgen
data_Mn8Ni16Sb8C
_symmetry_space_group_name_H-M   'P 1'
_cell_length_a   8.63046000
_cell_length_b   6.10266000
_cell_length_c   26.47280000
_cell_angle_alpha   90.00000000
_cell_angle_beta   90.00000000
_cell_angle_gamma   90.00000000
_symmetry_Int_Tables_number   1
_chemical_formula_structural   Mn8Ni16Sb8C
_chemical_formula_sum   'Mn8 Ni16 Sb8 C1'
_cell_volume   1394.28962977
_cell_formula_units_Z   1
loop_
 _symmetry_equiv_pos_site_id
 _symmetry_equiv_pos_as_xyz
  1  'x, y, z'
loop_
 _atom_site_type_symbol
 _atom_site_label
 _atom_site_symmetry_multiplicity
 _atom_site_fract_x
 _atom_site_fract_y
 _atom_site_fract_z
 _atom_site_occupancy
  Mn  Mn0  1  0.75003000  0.00000000  0.12225000  1.0
  Mn  Mn1  1  0.00000000  0.50000000  0.04075000  1.0
  Mn  Mn2  1  0.50000000  0.50000000  0.04075000  1.0
  Mn  Mn3  1  0.24997000  0.00000000  0.12225000  1.0
  Mn  Mn4  1  0.25521000  0.99992000  0.96231000  1.0
  Mn  Mn5  1  0.50000000  0.49620000  0.87653000  1.0
  Mn  Mn6  1  0.00000000  0.52685000  0.88503000  1.0
  Mn  Mn7  1  0.74479000  0.99992000  0.96231000  1.0
  Ni  Ni8  1  0.75003000  0.25000000  0.04075000  1.0
  Ni  Ni9  1  0.25003000  0.75000000  0.04075000  1.0
  Ni  Ni10  1  0.74997000  0.75000000  0.04075000  1.0
  Ni  Ni11  1  0.24997000  0.25000000  0.04075000  1.0
  Ni  Ni12  1  0.50000000  0.75000000  0.12225000  1.0
  Ni  Ni13  1  0.00000000  0.25000000  0.12225000  1.0
  Ni  Ni14  1  0.50000000  0.25000000  0.12225000  1.0
  Ni  Ni15  1  0.00000000  0.75000000  0.12225000  1.0
  Ni  Ni16  1  0.22358000  0.21345000  0.88388000  1.0
  Ni  Ni17  1  0.75299000  0.76665000  0.88600000  1.0
  Ni  Ni18  1  0.24701000  0.76665000  0.88600000  1.0
  Ni  Ni19  1  0.77642000  0.21345000  0.88388000  1.0
  Ni  Ni20  1  0.00000000  0.80077000  0.95302000  1.0
  Ni  Ni21  1  0.50000000  0.25082000  0.95709000  1.0
  Ni  Ni22  1  0.00000000  0.22561000  0.95206000  1.0
  Ni  Ni23  1  0.50000000  0.75055000  0.95639000  1.0
  Sb  Sb24  1  0.50000000  1.00000000  0.04075000  1.0
  Sb  Sb25  1  0.75003000  0.50000000  0.12225000  1.0
  Sb  Sb26  1  0.00000000  1.00000000  0.04075000  1.0
  Sb  Sb27  1  0.24997000  0.50000000  0.12225000  1.0
  Sb  Sb28  1  0.00000000  0.90834000  0.83554000  1.0
  Sb  Sb29  1  0.24535000  0.49986000  0.96035000  1.0
  Sb  Sb30  1  0.50000000  0.00648000  0.86838000  1.0
  Sb  Sb31  1  0.75465000  0.49986000  0.96035000  1.0
  C  C32  1  0.00000000  0.22277000  0.87573000  1.0
