# generated using pymatgen
data_Mn8Ni16Sb8C
_symmetry_space_group_name_H-M   Pm
_cell_length_a   6.10266000
_cell_length_b   8.63046000
_cell_length_c   26.47280000
_cell_angle_alpha   90.00000000
_cell_angle_beta   90.00000000
_cell_angle_gamma   90.00000000
_symmetry_Int_Tables_number   6
_chemical_formula_structural   Mn8Ni16Sb8C
_chemical_formula_sum   'Mn8 Ni16 Sb8 C1'
_cell_volume   1394.28962977
_cell_formula_units_Z   1
loop_
 _symmetry_equiv_pos_site_id
 _symmetry_equiv_pos_as_xyz
  1  'x, y, z'
  2  'x, -y, z'
loop_
 _atom_site_type_symbol
 _atom_site_label
 _atom_site_symmetry_multiplicity
 _atom_site_fract_x
 _atom_site_fract_y
 _atom_site_fract_z
 _atom_site_occupancy
  Mn  Mn0  2  0.00000000  0.24997000  0.87775000  1.0
  Mn  Mn1  2  0.99992000  0.25521000  0.03769000  1.0
  Mn  Mn2  1  0.49620000  0.50000000  0.12347000  1.0
  Mn  Mn3  1  0.50000000  0.00000000  0.95925000  1.0
  Mn  Mn4  1  0.50000000  0.50000000  0.95925000  1.0
  Mn  Mn5  1  0.52685000  0.00000000  0.11497000  1.0
  Ni  Ni6  2  0.21345000  0.22358000  0.11612000  1.0
  Ni  Ni7  2  0.25000000  0.24997000  0.95925000  1.0
  Ni  Ni8  2  0.75000000  0.25003000  0.95925000  1.0
  Ni  Ni9  2  0.76665000  0.24701000  0.11400000  1.0
  Ni  Ni10  1  0.22561000  0.00000000  0.04794000  1.0
  Ni  Ni11  1  0.25000000  0.00000000  0.87775000  1.0
  Ni  Ni12  1  0.25000000  0.50000000  0.87775000  1.0
  Ni  Ni13  1  0.25082000  0.50000000  0.04291000  1.0
  Ni  Ni14  1  0.75000000  0.00000000  0.87775000  1.0
  Ni  Ni15  1  0.75000000  0.50000000  0.87775000  1.0
  Ni  Ni16  1  0.75055000  0.50000000  0.04361000  1.0
  Ni  Ni17  1  0.80077000  0.00000000  0.04698000  1.0
  Sb  Sb18  2  0.49986000  0.24535000  0.03965000  1.0
  Sb  Sb19  2  0.50000000  0.24997000  0.87775000  1.0
  Sb  Sb20  1  -0.00000000  0.50000000  0.95925000  1.0
  Sb  Sb21  1  -0.00000000  0.00000000  0.95925000  1.0
  Sb  Sb22  1  0.00648000  0.50000000  0.13162000  1.0
  Sb  Sb23  1  0.90834000  0.00000000  0.16446000  1.0
  C  C24  1  0.22277000  0.00000000  0.12427000  1.0
