# generated using pymatgen
data_K12Sb4CO
_symmetry_space_group_name_H-M   P1
_cell_length_a   8.65338000
_cell_length_b   8.65338000
_cell_length_c   26.49000000
_cell_angle_alpha   90.00000000
_cell_angle_beta   90.00000000
_cell_angle_gamma   90.00000000
_symmetry_Int_Tables_number   1
_chemical_formula_structural   K12Sb4CO
_chemical_formula_sum   'K12 Sb4 C1 O1'
_cell_volume   1983.59730389
_cell_formula_units_Z   1
loop_
 _symmetry_equiv_pos_site_id
 _symmetry_equiv_pos_as_xyz
  1  'x, y, z'
loop_
 _atom_site_type_symbol
 _atom_site_label
 _atom_site_symmetry_multiplicity
 _atom_site_fract_x
 _atom_site_fract_y
 _atom_site_fract_z
 _atom_site_occupancy
  K  K0  1  0.00000000  0.00000000  0.95917000  1.0
  K  K1  1  0.25000000  0.25000000  0.87750000  1.0
  K  K2  1  0.25000000  0.75000000  0.87750000  1.0
  K  K3  1  0.25696000  0.24322000  0.05108000  1.0
  K  K4  1  0.25701000  0.75681000  0.05109000  1.0
  K  K5  1  0.50000000  0.50000000  0.95917000  1.0
  K  K6  1  0.50001000  0.00005000  0.17106000  1.0
  K  K7  1  0.74301000  0.24317000  0.05108000  1.0
  K  K8  1  0.74303000  0.75680000  0.05107000  1.0
  K  K9  1  0.75000000  0.25000000  0.87750000  1.0
  K  K10  1  0.75000000  0.75000000  0.87750000  1.0
  K  K11  1  0.99997000  0.49997000  0.15235000  1.0
  Sb  Sb12  1  0.00000000  0.50000000  0.95917000  1.0
  Sb  Sb13  1  0.49998000  0.50000000  0.11846000  1.0
  Sb  Sb14  1  0.50000000  0.00000000  0.95917000  1.0
  Sb  Sb15  1  0.99999000  0.00003000  0.11851000  1.0
  C  C16  1  0.00009000  0.49986000  0.26817000  1.0
  O  O17  1  0.00002000  0.49996000  0.31103000  1.0
