data_image0
_chemical_formula_structural       Be8Ni8
_chemical_formula_sum              "Be8 Ni8"
_cell_length_a       5.23991
_cell_length_b       5.23991
_cell_length_c       23.9299
_cell_angle_alpha    90
_cell_angle_beta     90
_cell_angle_gamma    90

_space_group_name_H-M_alt    "P 1"
_space_group_IT_number       1

loop_
  _space_group_symop_operation_xyz
  'x, y, z'

loop_
  _atom_site_type_symbol
  _atom_site_label
  _atom_site_symmetry_multiplicity
  _atom_site_fract_x
  _atom_site_fract_y
  _atom_site_fract_z
  _atom_site_occupancy
  Be  Be1       1.0  0.25000  0.25000  0.95254  1.0000
  Be  Be2       1.0  0.24969  0.25033  0.05725  1.0000
  Be  Be3       1.0  0.25000  0.75000  0.95254  1.0000
  Be  Be4       1.0  0.24983  0.74971  0.05723  1.0000
  Be  Be5       1.0  0.75000  0.25000  0.95254  1.0000
  Be  Be6       1.0  0.75034  0.25032  0.05719  1.0000
  Be  Be7       1.0  0.75000  0.75000  0.95254  1.0000
  Be  Be8       1.0  0.75020  0.74971  0.05717  1.0000
  Ni  Ni1       1.0  0.00000  0.00000  0.89780  1.0000
  Ni  Ni2       1.0  0.99970  0.00015  0.01074  1.0000
  Ni  Ni3       1.0  0.00000  0.50000  0.89780  1.0000
  Ni  Ni4       1.0  0.00045  0.50056  0.01065  1.0000
  Ni  Ni5       1.0  0.50000  0.00000  0.89780  1.0000
  Ni  Ni6       1.0  0.49964  0.99983  0.01080  1.0000
  Ni  Ni7       1.0  0.50000  0.50000  0.89780  1.0000
  Ni  Ni8       1.0  0.49988  0.49969  0.01073  1.0000
