# generated using pymatgen
data_Li8V8Ge8Pd8CO
_symmetry_space_group_name_H-M   'P 1'
_cell_length_a   8.64114000
_cell_length_b   9.40562000
_cell_length_c   24.26620000
_cell_angle_alpha   90.00000000
_cell_angle_beta   90.00000000
_cell_angle_gamma   90.00000000
_symmetry_Int_Tables_number   1
_chemical_formula_structural   Li8V8Ge8Pd8CO
_chemical_formula_sum   'Li8 V8 Ge8 Pd8 C1 O1'
_cell_volume   1972.24218029
_cell_formula_units_Z   1
loop_
 _symmetry_equiv_pos_site_id
 _symmetry_equiv_pos_as_xyz
  1  'x, y, z'
loop_
 _atom_site_type_symbol
 _atom_site_label
 _atom_site_symmetry_multiplicity
 _atom_site_fract_x
 _atom_site_fract_y
 _atom_site_fract_z
 _atom_site_occupancy
  Li  Li0  1  0.75000000  0.25000000  0.97070000  1.0
  Li  Li1  1  0.75160000  0.23864000  0.09759000  1.0
  Li  Li2  1  0.75000000  0.75000000  0.97070000  1.0
  Li  Li3  1  0.75160000  0.76136000  0.09759000  1.0
  Li  Li4  1  0.25000000  0.25000000  0.97070000  1.0
  Li  Li5  1  0.24840000  0.23864000  0.09759000  1.0
  Li  Li6  1  0.25000000  0.75000000  0.97070000  1.0
  Li  Li7  1  0.24840000  0.76136000  0.09759000  1.0
  V  V8  1  0.00000000  0.00000000  0.97070000  1.0
  V  V9  1  0.00000000  0.00000000  0.07989000  1.0
  V  V10  1  0.00000000  0.50000000  0.97070000  1.0
  V  V11  1  0.00000000  0.50000000  0.06515000  1.0
  V  V12  1  0.50000000  0.00000000  0.97070000  1.0
  V  V13  1  0.50000000  0.00000000  0.06673000  1.0
  V  V14  1  0.50000000  0.50000000  0.97070000  1.0
  V  V15  1  0.50000000  0.50000000  0.06758000  1.0
  Ge  Ge16  1  0.75000000  0.00000000  0.91210000  1.0
  Ge  Ge17  1  0.75622000  0.00000000  0.02619000  1.0
  Ge  Ge18  1  0.75000000  0.50000000  0.91210000  1.0
  Ge  Ge19  1  0.74882000  0.50000000  0.02322000  1.0
  Ge  Ge20  1  0.25000000  0.00000000  0.91210000  1.0
  Ge  Ge21  1  0.24378000  0.00000000  0.02619000  1.0
  Ge  Ge22  1  0.25000000  0.50000000  0.91210000  1.0
  Ge  Ge23  1  0.25118000  0.50000000  0.02322000  1.0
  Pd  Pd24  1  0.00000000  0.25000000  0.91210000  1.0
  Pd  Pd25  1  0.00000000  0.24452000  0.03596000  1.0
  Pd  Pd26  1  0.00000000  0.75000000  0.91210000  1.0
  Pd  Pd27  1  0.00000000  0.75548000  0.03596000  1.0
  Pd  Pd28  1  0.50000000  0.25000000  0.91210000  1.0
  Pd  Pd29  1  0.50000000  0.25063000  0.03481000  1.0
  Pd  Pd30  1  0.50000000  0.75000000  0.91210000  1.0
  Pd  Pd31  1  0.50000000  0.74937000  0.03481000  1.0
  C  C32  1  0.00000000  0.00000000  0.16235000  1.0
  O  O33  1  0.00000000  0.00000000  0.21064000  1.0
