# generated using pymatgen
data_Sc8In8Pt16CO
_symmetry_space_group_name_H-M   'P 1'
_cell_length_a   9.38295000
_cell_length_b   6.63475000
_cell_length_c   27.03720000
_cell_angle_alpha   90.00000000
_cell_angle_beta   90.00000000
_cell_angle_gamma   90.00000000
_symmetry_Int_Tables_number   1
_chemical_formula_structural   Sc8In8Pt16CO
_chemical_formula_sum   'Sc8 In8 Pt16 C1 O1'
_cell_volume   1683.16107406
_cell_formula_units_Z   1
loop_
 _symmetry_equiv_pos_site_id
 _symmetry_equiv_pos_as_xyz
  1  'x, y, z'
loop_
 _atom_site_type_symbol
 _atom_site_label
 _atom_site_symmetry_multiplicity
 _atom_site_fract_x
 _atom_site_fract_y
 _atom_site_fract_z
 _atom_site_occupancy
  Sc  Sc0  1  0.00000000  0.00000000  0.13014000  1.0
  Sc  Sc1  1  0.25000000  0.50000000  0.04338000  1.0
  Sc  Sc2  1  0.75000000  0.50000000  0.04338000  1.0
  Sc  Sc3  1  0.50000000  1.00000000  0.13014000  1.0
  Sc  Sc4  1  0.50000000  0.99997000  0.95613000  1.0
  Sc  Sc5  1  0.74579000  0.50609000  0.87389000  1.0
  Sc  Sc6  1  0.25421000  0.50609000  0.87389000  1.0
  Sc  Sc7  1  0.00000000  0.99891000  0.95681000  1.0
  In  In8  1  0.75000000  1.00000000  0.04338000  1.0
  In  In9  1  0.00000000  0.50000000  0.13014000  1.0
  In  In10  1  0.25000000  1.00000000  0.04338000  1.0
  In  In11  1  0.50000000  0.50000000  0.13014000  1.0
  In  In12  1  0.25150000  0.99449000  0.86276000  1.0
  In  In13  1  0.50000000  0.49551000  0.95787000  1.0
  In  In14  1  0.74850000  0.99449000  0.86276000  1.0
  In  In15  1  0.00000000  0.49454000  0.95660000  1.0
  Pt  Pt16  1  0.00000000  0.25000000  0.04338000  1.0
  Pt  Pt17  1  0.50000000  0.75000000  0.04338000  1.0
  Pt  Pt18  1  0.00000000  0.75000000  0.04338000  1.0
  Pt  Pt19  1  0.50000000  0.25000000  0.04338000  1.0
  Pt  Pt20  1  0.75000000  0.75000000  0.13014000  1.0
  Pt  Pt21  1  0.25000000  0.25000000  0.13014000  1.0
  Pt  Pt22  1  0.75000000  0.25000000  0.13014000  1.0
  Pt  Pt23  1  0.25000000  0.75000000  0.13014000  1.0
  Pt  Pt24  1  0.50000000  0.24365000  0.87531000  1.0
  Pt  Pt25  1  0.00000000  0.75870000  0.87763000  1.0
  Pt  Pt26  1  0.50000000  0.75356000  0.87590000  1.0
  Pt  Pt27  1  0.00000000  0.25978000  0.86367000  1.0
  Pt  Pt28  1  0.25238000  0.75176000  0.95696000  1.0
  Pt  Pt29  1  0.75610000  0.24245000  0.95322000  1.0
  Pt  Pt30  1  0.24390000  0.24245000  0.95322000  1.0
  Pt  Pt31  1  0.74762000  0.75176000  0.95696000  1.0
  C  C32  1  0.00000000  0.30631000  0.79439000  1.0
  O  O33  1  0.00000000  0.32273000  0.75170000  1.0
