# generated using pymatgen
data_Sc8In8Pt16CO
_symmetry_space_group_name_H-M   Pm
_cell_length_a   6.63475000
_cell_length_b   9.38295000
_cell_length_c   27.03720000
_cell_angle_alpha   90.00000000
_cell_angle_beta   90.00000000
_cell_angle_gamma   90.00000000
_symmetry_Int_Tables_number   6
_chemical_formula_structural   Sc8In8Pt16CO
_chemical_formula_sum   'Sc8 In8 Pt16 C1 O1'
_cell_volume   1683.16107406
_cell_formula_units_Z   1
loop_
 _symmetry_equiv_pos_site_id
 _symmetry_equiv_pos_as_xyz
  1  'x, y, z'
  2  'x, -y, z'
loop_
 _atom_site_type_symbol
 _atom_site_label
 _atom_site_symmetry_multiplicity
 _atom_site_fract_x
 _atom_site_fract_y
 _atom_site_fract_z
 _atom_site_occupancy
  Sc  Sc0  2  0.50000000  0.25000000  0.95662000  1.0
  Sc  Sc1  2  0.50609000  0.25421000  0.12611000  1.0
  Sc  Sc2  1  -0.00000000  0.50000000  0.86986000  1.0
  Sc  Sc3  1  0.00000000  0.00000000  0.86986000  1.0
  Sc  Sc4  1  0.99891000  0.00000000  0.04319000  1.0
  Sc  Sc5  1  0.99997000  0.50000000  0.04387000  1.0
  In  In6  2  -0.00000000  0.25000000  0.95662000  1.0
  In  In7  2  0.99449000  0.25150000  0.13724000  1.0
  In  In8  1  0.49454000  0.00000000  0.04340000  1.0
  In  In9  1  0.49551000  0.50000000  0.04213000  1.0
  In  In10  1  0.50000000  0.00000000  0.86986000  1.0
  In  In11  1  0.50000000  0.50000000  0.86986000  1.0
  Pt  Pt12  2  0.24245000  0.24390000  0.04678000  1.0
  Pt  Pt13  2  0.25000000  0.25000000  0.86986000  1.0
  Pt  Pt14  2  0.75000000  0.25000000  0.86986000  1.0
  Pt  Pt15  2  0.75176000  0.25238000  0.04304000  1.0
  Pt  Pt16  1  0.24365000  0.50000000  0.12469000  1.0
  Pt  Pt17  1  0.25000000  0.00000000  0.95662000  1.0
  Pt  Pt18  1  0.25000000  0.50000000  0.95662000  1.0
  Pt  Pt19  1  0.25978000  0.00000000  0.13633000  1.0
  Pt  Pt20  1  0.75000000  0.00000000  0.95662000  1.0
  Pt  Pt21  1  0.75000000  0.50000000  0.95662000  1.0
  Pt  Pt22  1  0.75356000  0.50000000  0.12410000  1.0
  Pt  Pt23  1  0.75870000  0.00000000  0.12237000  1.0
  C  C24  1  0.30631000  0.00000000  0.20561000  1.0
  O  O25  1  0.32273000  0.00000000  0.24830000  1.0
