data_image0
_chemical_formula_structural       Y4Cu4Ge4Pd4C
_chemical_formula_sum              "Y4 Cu4 Ge4 Pd4 C1"
_cell_length_a       6.58158
_cell_length_b       6.58158
_cell_length_c       24.9362
_cell_angle_alpha    90
_cell_angle_beta     90
_cell_angle_gamma    90

_space_group_name_H-M_alt    "P 1"
_space_group_IT_number       1

loop_
  _space_group_symop_operation_xyz
  'x, y, z'

loop_
  _atom_site_type_symbol
  _atom_site_label
  _atom_site_symmetry_multiplicity
  _atom_site_fract_x
  _atom_site_fract_y
  _atom_site_fract_z
  _atom_site_occupancy
  Y   Y1        1.0  0.74993  0.24996  0.03864  1.0000
  Y   Y2        1.0  0.75000  0.75000  0.90102  1.0000
  Y   Y3        1.0  0.25000  0.25000  0.90102  1.0000
  Y   Y4        1.0  0.25004  0.75008  0.03857  1.0000
  Cu  Cu1       1.0  0.03919  0.03884  0.11114  1.0000
  Cu  Cu2       1.0  0.00000  0.50000  0.96701  1.0000
  Cu  Cu3       1.0  0.50000  0.00000  0.96701  1.0000
  Cu  Cu4       1.0  0.46085  0.46121  0.11113  1.0000
  Ge  Ge1       1.0  0.24996  0.25006  0.02059  1.0000
  Ge  Ge2       1.0  0.25000  0.75000  0.90102  1.0000
  Ge  Ge3       1.0  0.75000  0.25000  0.90102  1.0000
  Ge  Ge4       1.0  0.75002  0.74996  0.06684  1.0000
  Pd  Pd1       1.0  0.01954  0.48066  0.10083  1.0000
  Pd  Pd2       1.0  0.00000  0.00000  0.96701  1.0000
  Pd  Pd3       1.0  0.50000  0.50000  0.96701  1.0000
  Pd  Pd4       1.0  0.48055  0.01921  0.10086  1.0000
  C   C1        1.0  0.25014  0.24993  0.10190  1.0000
