# generated using pymatgen
data_Y4Cu4Ge4Pd4C
_symmetry_space_group_name_H-M   P1
_cell_length_a   6.58158000
_cell_length_b   6.58158000
_cell_length_c   24.93620000
_cell_angle_alpha   90.00000000
_cell_angle_beta   90.00000000
_cell_angle_gamma   90.00000000
_symmetry_Int_Tables_number   1
_chemical_formula_structural   Y4Cu4Ge4Pd4C
_chemical_formula_sum   'Y4 Cu4 Ge4 Pd4 C1'
_cell_volume   1080.16624535
_cell_formula_units_Z   1
loop_
 _symmetry_equiv_pos_site_id
 _symmetry_equiv_pos_as_xyz
  1  'x, y, z'
loop_
 _atom_site_type_symbol
 _atom_site_label
 _atom_site_symmetry_multiplicity
 _atom_site_fract_x
 _atom_site_fract_y
 _atom_site_fract_z
 _atom_site_occupancy
  Y  Y0  1  0.25000000  0.25000000  0.90102000  1.0
  Y  Y1  1  0.25004000  0.75008000  0.03857000  1.0
  Y  Y2  1  0.74993000  0.24996000  0.03864000  1.0
  Y  Y3  1  0.75000000  0.75000000  0.90102000  1.0
  Cu  Cu4  1  0.00000000  0.50000000  0.96701000  1.0
  Cu  Cu5  1  0.03919000  0.03884000  0.11114000  1.0
  Cu  Cu6  1  0.46085000  0.46121000  0.11113000  1.0
  Cu  Cu7  1  0.50000000  0.00000000  0.96701000  1.0
  Ge  Ge8  1  0.24996000  0.25006000  0.02059000  1.0
  Ge  Ge9  1  0.25000000  0.75000000  0.90102000  1.0
  Ge  Ge10  1  0.75000000  0.25000000  0.90102000  1.0
  Ge  Ge11  1  0.75002000  0.74996000  0.06684000  1.0
  Pd  Pd12  1  0.00000000  0.00000000  0.96701000  1.0
  Pd  Pd13  1  0.01954000  0.48066000  0.10083000  1.0
  Pd  Pd14  1  0.48055000  0.01921000  0.10086000  1.0
  Pd  Pd15  1  0.50000000  0.50000000  0.96701000  1.0
  C  C16  1  0.25014000  0.24993000  0.10190000  1.0
