# generated using pymatgen
data_K12Bi4CO
_symmetry_space_group_name_H-M   P4mm
_cell_length_a   8.83903000
_cell_length_b   8.83903000
_cell_length_c   26.62930000
_cell_angle_alpha   90.00000000
_cell_angle_beta   90.00000000
_cell_angle_gamma   90.00000000
_symmetry_Int_Tables_number   99
_chemical_formula_structural   K12Bi4CO
_chemical_formula_sum   'K12 Bi4 C1 O1'
_cell_volume   2080.50596929
_cell_formula_units_Z   1
loop_
 _symmetry_equiv_pos_site_id
 _symmetry_equiv_pos_as_xyz
  1  'x, y, z'
  2  '-y, x, z'
  3  '-x, -y, z'
  4  'y, -x, z'
  5  '-x, y, z'
  6  'y, x, z'
  7  'x, -y, z'
  8  '-y, -x, z'
loop_
 _atom_site_type_symbol
 _atom_site_label
 _atom_site_symmetry_multiplicity
 _atom_site_fract_x
 _atom_site_fract_y
 _atom_site_fract_z
 _atom_site_occupancy
  K  K0  4  0.25000000  0.25000000  0.87553000  1.0
  K  K1  4  0.26165500  0.26165500  0.04619000  1.0
  K  K2  2  0.00000000  0.50000000  0.15773000  1.0
  K  K3  1  0.00000000  0.00000000  0.95851000  1.0
  K  K4  1  0.50000000  0.50000000  0.95851000  1.0
  Bi  Bi5  2  0.00000000  0.50000000  0.95851000  1.0
  Bi  Bi6  1  0.00000000  0.00000000  0.11693000  1.0
  Bi  Bi7  1  0.50000000  0.50000000  0.12051000  1.0
  C  C8  1  0.00000000  0.00000000  0.19799000  1.0
  O  O9  1  0.00000000  0.00000000  0.24192000  1.0
