data_image0
_chemical_formula_structural       Ti4Ga4Ni8C
_chemical_formula_sum              "Ti4 Ga4 Ni8 C1"
_cell_length_a       5.9441
_cell_length_b       5.9441
_cell_length_c       24.4581
_cell_angle_alpha    90
_cell_angle_beta     90
_cell_angle_gamma    90

_space_group_name_H-M_alt    "P 1"
_space_group_IT_number       1

loop_
  _space_group_symop_operation_xyz
  'x, y, z'

loop_
  _atom_site_type_symbol
  _atom_site_label
  _atom_site_symmetry_multiplicity
  _atom_site_fract_x
  _atom_site_fract_y
  _atom_site_fract_z
  _atom_site_occupancy
  Ti  Ti1       1.0  0.00000  0.00000  0.90886  1.0000
  Ti  Ti2       1.0  0.50000  0.50000  0.90886  1.0000
  Ti  Ti3       1.0  0.49992  0.99998  0.03409  1.0000
  Ti  Ti4       1.0  0.00002  0.50008  0.03409  1.0000
  Ga  Ga1       1.0  0.99984  0.00019  0.02093  1.0000
  Ga  Ga2       1.0  0.50000  0.00000  0.90886  1.0000
  Ga  Ga3       1.0  0.00000  0.50000  0.90886  1.0000
  Ga  Ga4       1.0  0.50022  0.49974  0.04155  1.0000
  Ni  Ni1       1.0  0.25000  0.25000  0.96962  1.0000
  Ni  Ni2       1.0  0.78062  0.78080  0.09155  1.0000
  Ni  Ni3       1.0  0.75000  0.25000  0.96962  1.0000
  Ni  Ni4       1.0  0.21940  0.78059  0.09159  1.0000
  Ni  Ni5       1.0  0.75000  0.75000  0.96962  1.0000
  Ni  Ni6       1.0  0.21935  0.21954  0.09171  1.0000
  Ni  Ni7       1.0  0.25000  0.75000  0.96962  1.0000
  Ni  Ni8       1.0  0.78059  0.21947  0.09165  1.0000
  C   C1        1.0  0.99999  0.00001  0.11277  1.0000
