# generated using pymatgen
data_Ti4Ga4Ni8C
_symmetry_space_group_name_H-M   P1
_cell_length_a   5.94410000
_cell_length_b   5.94410000
_cell_length_c   24.45810000
_cell_angle_alpha   90.00000000
_cell_angle_beta   90.00000000
_cell_angle_gamma   90.00000000
_symmetry_Int_Tables_number   1
_chemical_formula_structural   Ti4Ga4Ni8C
_chemical_formula_sum   'Ti4 Ga4 Ni8 C1'
_cell_volume   864.16153344
_cell_formula_units_Z   1
loop_
 _symmetry_equiv_pos_site_id
 _symmetry_equiv_pos_as_xyz
  1  'x, y, z'
loop_
 _atom_site_type_symbol
 _atom_site_label
 _atom_site_symmetry_multiplicity
 _atom_site_fract_x
 _atom_site_fract_y
 _atom_site_fract_z
 _atom_site_occupancy
  Ti  Ti0  1  0.00000000  0.00000000  0.90886000  1.0
  Ti  Ti1  1  0.00002000  0.50008000  0.03409000  1.0
  Ti  Ti2  1  0.49992000  0.99998000  0.03409000  1.0
  Ti  Ti3  1  0.50000000  0.50000000  0.90886000  1.0
  Ga  Ga4  1  0.00000000  0.50000000  0.90886000  1.0
  Ga  Ga5  1  0.50000000  0.00000000  0.90886000  1.0
  Ga  Ga6  1  0.50022000  0.49974000  0.04155000  1.0
  Ga  Ga7  1  0.99984000  0.00019000  0.02093000  1.0
  Ni  Ni8  1  0.21935000  0.21954000  0.09171000  1.0
  Ni  Ni9  1  0.21940000  0.78059000  0.09159000  1.0
  Ni  Ni10  1  0.25000000  0.25000000  0.96962000  1.0
  Ni  Ni11  1  0.25000000  0.75000000  0.96962000  1.0
  Ni  Ni12  1  0.75000000  0.25000000  0.96962000  1.0
  Ni  Ni13  1  0.75000000  0.75000000  0.96962000  1.0
  Ni  Ni14  1  0.78059000  0.21947000  0.09165000  1.0
  Ni  Ni15  1  0.78062000  0.78080000  0.09155000  1.0
  C  C16  1  0.99999000  0.00001000  0.11277000  1.0
