# generated using pymatgen
data_Li8Ni16Ge8CO
_symmetry_space_group_name_H-M   'P 1'
_cell_length_a   8.10846000
_cell_length_b   5.73354000
_cell_length_c   26.08130000
_cell_angle_alpha   90.00000000
_cell_angle_beta   90.00000000
_cell_angle_gamma   90.00000000
_symmetry_Int_Tables_number   1
_chemical_formula_structural   Li8Ni16Ge8CO
_chemical_formula_sum   'Li8 Ni16 Ge8 C1 O1'
_cell_volume   1212.52432507
_cell_formula_units_Z   1
loop_
 _symmetry_equiv_pos_site_id
 _symmetry_equiv_pos_as_xyz
  1  'x, y, z'
loop_
 _atom_site_type_symbol
 _atom_site_label
 _atom_site_symmetry_multiplicity
 _atom_site_fract_x
 _atom_site_fract_y
 _atom_site_fract_z
 _atom_site_occupancy
  Li  Li0  1  0.00000000  0.50000000  0.11658000  1.0
  Li  Li1  1  0.25000000  0.00000000  0.03886000  1.0
  Li  Li2  1  0.75000000  0.00000000  0.03886000  1.0
  Li  Li3  1  0.50000000  0.50000000  0.11658000  1.0
  Li  Li4  1  0.49954000  0.50000000  0.96646000  1.0
  Li  Li5  1  0.74998000  0.00000000  0.86728000  1.0
  Li  Li6  1  0.25004000  0.00000000  0.86379000  1.0
  Li  Li7  1  0.00045000  0.50000000  0.96644000  1.0
  Ni  Ni8  1  0.00000000  0.25003000  0.03886000  1.0
  Ni  Ni9  1  0.50000000  0.75003000  0.03886000  1.0
  Ni  Ni10  1  0.00000000  0.74997000  0.03886000  1.0
  Ni  Ni11  1  0.50000000  0.24997000  0.03886000  1.0
  Ni  Ni12  1  0.75000000  0.75003000  0.11658000  1.0
  Ni  Ni13  1  0.25000000  0.25003000  0.11658000  1.0
  Ni  Ni14  1  0.75000000  0.24997000  0.11658000  1.0
  Ni  Ni15  1  0.25000000  0.74997000  0.11658000  1.0
  Ni  Ni16  1  0.50072000  0.27543000  0.89118000  1.0
  Ni  Ni17  1  0.99933000  0.72466000  0.89114000  1.0
  Ni  Ni18  1  0.50072000  0.72457000  0.89118000  1.0
  Ni  Ni19  1  0.99933000  0.27534000  0.89114000  1.0
  Ni  Ni20  1  0.25002000  0.75260000  0.95965000  1.0
  Ni  Ni21  1  0.74999000  0.24942000  0.95983000  1.0
  Ni  Ni22  1  0.25002000  0.24740000  0.95965000  1.0
  Ni  Ni23  1  0.74999000  0.75058000  0.95983000  1.0
  Ge  Ge24  1  0.75000000  0.50000000  0.03886000  1.0
  Ge  Ge25  1  0.00000000  0.00000000  0.11658000  1.0
  Ge  Ge26  1  0.25000000  0.50000000  0.03886000  1.0
  Ge  Ge27  1  0.50000000  0.00000000  0.11658000  1.0
  Ge  Ge28  1  0.25009000  0.50000000  0.88171000  1.0
  Ge  Ge29  1  0.50023000  0.00000000  0.96067000  1.0
  Ge  Ge30  1  0.74995000  0.50000000  0.88031000  1.0
  Ge  Ge31  1  0.99978000  0.00000000  0.96067000  1.0
  C  C32  1  0.25003000  0.00000000  0.78150000  1.0
  O  O33  1  0.25000000  0.00000000  0.73791000  1.0
