# generated using pymatgen
data_Li8Ni16Ge8CO
_symmetry_space_group_name_H-M   Pm
_cell_length_a   8.10846000
_cell_length_b   5.73354000
_cell_length_c   26.08130000
_cell_angle_alpha   90.00000000
_cell_angle_beta   90.00000000
_cell_angle_gamma   90.00000000
_symmetry_Int_Tables_number   6
_chemical_formula_structural   Li8Ni16Ge8CO
_chemical_formula_sum   'Li8 Ni16 Ge8 C1 O1'
_cell_volume   1212.52432507
_cell_formula_units_Z   1
loop_
 _symmetry_equiv_pos_site_id
 _symmetry_equiv_pos_as_xyz
  1  'x, y, z'
  2  'x, -y, z'
loop_
 _atom_site_type_symbol
 _atom_site_label
 _atom_site_symmetry_multiplicity
 _atom_site_fract_x
 _atom_site_fract_y
 _atom_site_fract_z
 _atom_site_occupancy
  Li  Li0  1  0.00000000  0.50000000  0.88342000  1.0
  Li  Li1  1  0.00045000  0.50000000  0.03356000  1.0
  Li  Li2  1  0.25000000  0.00000000  0.96114000  1.0
  Li  Li3  1  0.25004000  0.00000000  0.13621000  1.0
  Li  Li4  1  0.49954000  0.50000000  0.03354000  1.0
  Li  Li5  1  0.50000000  0.50000000  0.88342000  1.0
  Li  Li6  1  0.74998000  0.00000000  0.13272000  1.0
  Li  Li7  1  0.75000000  0.00000000  0.96114000  1.0
  Ni  Ni8  2  0.00000000  0.25003000  0.96114000  1.0
  Ni  Ni9  2  0.25000000  0.25003000  0.88342000  1.0
  Ni  Ni10  2  0.25002000  0.24740000  0.04035000  1.0
  Ni  Ni11  2  0.50000000  0.24997000  0.96114000  1.0
  Ni  Ni12  2  0.50072000  0.27543000  0.10882000  1.0
  Ni  Ni13  2  0.74999000  0.24942000  0.04017000  1.0
  Ni  Ni14  2  0.75000000  0.24997000  0.88342000  1.0
  Ni  Ni15  2  0.99933000  0.27534000  0.10886000  1.0
  Ge  Ge16  1  0.00000000  0.00000000  0.88342000  1.0
  Ge  Ge17  1  0.25000000  0.50000000  0.96114000  1.0
  Ge  Ge18  1  0.25009000  0.50000000  0.11829000  1.0
  Ge  Ge19  1  0.50000000  0.00000000  0.88342000  1.0
  Ge  Ge20  1  0.50023000  0.00000000  0.03933000  1.0
  Ge  Ge21  1  0.74995000  0.50000000  0.11969000  1.0
  Ge  Ge22  1  0.75000000  0.50000000  0.96114000  1.0
  Ge  Ge23  1  0.99978000  0.00000000  0.03933000  1.0
  C  C24  1  0.25003000  0.00000000  0.21850000  1.0
  O  O25  1  0.25000000  0.00000000  0.26209000  1.0
