data_image0
_chemical_formula_structural       Mn8Ga8Ni16CO
_chemical_formula_sum              "Mn8 Ga8 Ni16 C1 O1"
_cell_length_a       5.88011
_cell_length_b       8.31574
_cell_length_c       26.2368
_cell_angle_alpha    90
_cell_angle_beta     90
_cell_angle_gamma    90

_space_group_name_H-M_alt    "P 1"
_space_group_IT_number       1

loop_
  _space_group_symop_operation_xyz
  'x, y, z'

loop_
  _atom_site_type_symbol
  _atom_site_label
  _atom_site_symmetry_multiplicity
  _atom_site_fract_x
  _atom_site_fract_y
  _atom_site_fract_z
  _atom_site_occupancy
  Mn  Mn1       1.0  0.00000  0.00000  0.88114  1.0000
  Mn  Mn2       1.0  0.50000  0.25000  0.96038  1.0000
  Mn  Mn3       1.0  0.50000  0.75000  0.96038  1.0000
  Mn  Mn4       1.0  0.00000  0.50000  0.88114  1.0000
  Mn  Mn5       1.0  1.00000  0.50005  0.03701  1.0000
  Mn  Mn6       1.0  0.50000  0.74997  0.11949  1.0000
  Mn  Mn7       1.0  0.50000  0.25002  0.11951  1.0000
  Mn  Mn8       1.0  1.00000  0.99994  0.03701  1.0000
  Ga  Ga1       1.0  0.00000  0.75000  0.96038  1.0000
  Ga  Ga2       1.0  0.50000  0.00000  0.88114  1.0000
  Ga  Ga3       1.0  0.00000  0.25000  0.96038  1.0000
  Ga  Ga4       1.0  0.50000  0.50000  0.88114  1.0000
  Ga  Ga5       1.0  1.00000  0.24992  0.12059  1.0000
  Ga  Ga6       1.0  0.50000  0.50027  0.03902  1.0000
  Ga  Ga7       1.0  1.00000  0.75014  0.12085  1.0000
  Ga  Ga8       1.0  0.50000  0.99971  0.03894  1.0000
  Ni  Ni1       1.0  0.25000  0.00000  0.96038  1.0000
  Ni  Ni2       1.0  0.75000  0.50000  0.96038  1.0000
  Ni  Ni3       1.0  0.75000  0.00000  0.96038  1.0000
  Ni  Ni4       1.0  0.25000  0.50000  0.96038  1.0000
  Ni  Ni5       1.0  0.75000  0.75000  0.88114  1.0000
  Ni  Ni6       1.0  0.25000  0.25000  0.88114  1.0000
  Ni  Ni7       1.0  0.25000  0.75000  0.88114  1.0000
  Ni  Ni8       1.0  0.75000  0.25000  0.88114  1.0000
  Ni  Ni9       1.0  0.23591  0.49988  0.11275  1.0000
  Ni  Ni10      1.0  0.76386  0.00014  0.11271  1.0000
  Ni  Ni11      1.0  0.76409  0.49988  0.11275  1.0000
  Ni  Ni12      1.0  0.23614  0.00014  0.11271  1.0000
  Ni  Ni13      1.0  0.75035  0.24994  0.03901  1.0000
  Ni  Ni14      1.0  0.24979  0.75006  0.03907  1.0000
  Ni  Ni15      1.0  0.24965  0.24994  0.03901  1.0000
  Ni  Ni16      1.0  0.75021  0.75006  0.03907  1.0000
  C   C1        1.0  0.00009  0.25001  0.27159  1.0000
  O   O1        1.0  0.99999  0.24998  0.31485  1.0000
