# generated using pymatgen
data_Y8In8Ag16CO
_symmetry_space_group_name_H-M   P1
_cell_length_a   7.06522000
_cell_length_b   9.99173000
_cell_length_c   27.49380000
_cell_angle_alpha   90.00000000
_cell_angle_beta   90.00000000
_cell_angle_gamma   90.00000000
_symmetry_Int_Tables_number   1
_chemical_formula_structural   Y8In8Ag16CO
_chemical_formula_sum   'Y8 In8 Ag16 C1 O1'
_cell_volume   1940.89101096
_cell_formula_units_Z   1
loop_
 _symmetry_equiv_pos_site_id
 _symmetry_equiv_pos_as_xyz
  1  'x, y, z'
loop_
 _atom_site_type_symbol
 _atom_site_label
 _atom_site_symmetry_multiplicity
 _atom_site_fract_x
 _atom_site_fract_y
 _atom_site_fract_z
 _atom_site_occupancy
  Y  Y0  1  0.00000000  0.00000000  0.86372000  1.0
  Y  Y1  1  0.00000000  0.50000000  0.86372000  1.0
  Y  Y2  1  0.00441000  0.00538000  0.04607000  1.0
  Y  Y3  1  0.47302000  0.21075000  0.14486000  1.0
  Y  Y4  1  0.48883000  0.76520000  0.13921000  1.0
  Y  Y5  1  0.50000000  0.25000000  0.95457000  1.0
  Y  Y6  1  0.50000000  0.75000000  0.95457000  1.0
  Y  Y7  1  0.99971000  0.50126000  0.04494000  1.0
  In  In8  1  -0.00000000  0.25000000  0.95457000  1.0
  In  In9  1  -0.00000000  0.75000000  0.95457000  1.0
  In  In10  1  0.47664000  0.00044000  0.04457000  1.0
  In  In11  1  0.49596000  0.50365000  0.04070000  1.0
  In  In12  1  0.50000000  0.00000000  0.86372000  1.0
  In  In13  1  0.50000000  0.50000000  0.86372000  1.0
  In  In14  1  0.98291000  0.73433000  0.13603000  1.0
  In  In15  1  0.98566000  0.25747000  0.13305000  1.0
  Ag  Ag16  1  0.17381000  0.99168000  0.15398000  1.0
  Ag  Ag17  1  0.24253000  0.74816000  0.04350000  1.0
  Ag  Ag18  1  0.24975000  0.25807000  0.04656000  1.0
  Ag  Ag19  1  0.25000000  0.00000000  0.95457000  1.0
  Ag  Ag20  1  0.25000000  0.25000000  0.86372000  1.0
  Ag  Ag21  1  0.25000000  0.50000000  0.95457000  1.0
  Ag  Ag22  1  0.25000000  0.75000000  0.86372000  1.0
  Ag  Ag23  1  0.25113000  0.49539000  0.13576000  1.0
  Ag  Ag24  1  0.70263000  0.49638000  0.13516000  1.0
  Ag  Ag25  1  0.73247000  0.25170000  0.04822000  1.0
  Ag  Ag26  1  0.74009000  0.75666000  0.04730000  1.0
  Ag  Ag27  1  0.75000000  0.00000000  0.95457000  1.0
  Ag  Ag28  1  0.75000000  0.25000000  0.86372000  1.0
  Ag  Ag29  1  0.75000000  0.50000000  0.95457000  1.0
  Ag  Ag30  1  0.75000000  0.75000000  0.86372000  1.0
  Ag  Ag31  1  0.77677000  0.99225000  0.13074000  1.0
  C  C32  1  0.51007000  0.95982000  0.18821000  1.0
  O  O33  1  0.52798000  0.06679000  0.21247000  1.0
