data_image0
_chemical_formula_structural       Zn16Au16CO
_chemical_formula_sum              "Zn16 Au16 C1 O1"
_cell_length_a       6.43103
_cell_length_b       9.09485
_cell_length_c       26.8211
_cell_angle_alpha    90
_cell_angle_beta     90
_cell_angle_gamma    90

_space_group_name_H-M_alt    "P 1"
_space_group_IT_number       1

loop_
  _space_group_symop_operation_xyz
  'x, y, z'

loop_
  _atom_site_type_symbol
  _atom_site_label
  _atom_site_symmetry_multiplicity
  _atom_site_fract_x
  _atom_site_fract_y
  _atom_site_fract_z
  _atom_site_occupancy
  Zn  Zn1       1.0  0.25000  0.25000  0.87284  1.0000
  Zn  Zn2       1.0  0.25000  0.00000  0.95761  1.0000
  Zn  Zn3       1.0  0.25000  0.25088  0.04510  1.0000
  Zn  Zn4       1.0  0.25000  0.50000  0.13114  1.0000
  Zn  Zn5       1.0  0.25000  0.75000  0.87284  1.0000
  Zn  Zn6       1.0  0.25000  0.50000  0.95761  1.0000
  Zn  Zn7       1.0  0.25000  0.74912  0.04510  1.0000
  Zn  Zn8       1.0  0.25000  1.00000  0.12801  1.0000
  Zn  Zn9       1.0  0.75000  0.25000  0.87284  1.0000
  Zn  Zn10      1.0  0.75000  0.00000  0.95761  1.0000
  Zn  Zn11      1.0  0.75000  0.25018  0.04204  1.0000
  Zn  Zn12      1.0  0.75000  0.50000  0.13551  1.0000
  Zn  Zn13      1.0  0.75000  0.75000  0.87284  1.0000
  Zn  Zn14      1.0  0.75000  0.50000  0.95761  1.0000
  Zn  Zn15      1.0  0.75000  0.74982  0.04204  1.0000
  Zn  Zn16      1.0  0.75000  0.00000  0.13074  1.0000
  Au  Au1       1.0  0.00000  0.00000  0.87284  1.0000
  Au  Au2       1.0  0.00000  0.25000  0.95761  1.0000
  Au  Au3       1.0  0.99868  0.50000  0.04105  1.0000
  Au  Au4       1.0  0.99314  0.25542  0.12806  1.0000
  Au  Au5       1.0  0.00000  0.50000  0.87284  1.0000
  Au  Au6       1.0  0.00000  0.75000  0.95761  1.0000
  Au  Au7       1.0  0.00081  0.00000  0.04299  1.0000
  Au  Au8       1.0  0.99314  0.74458  0.12806  1.0000
  Au  Au9       1.0  0.50000  0.00000  0.87284  1.0000
  Au  Au10      1.0  0.50000  0.25000  0.95761  1.0000
  Au  Au11      1.0  0.50132  0.50000  0.04105  1.0000
  Au  Au12      1.0  0.50686  0.25542  0.12806  1.0000
  Au  Au13      1.0  0.50000  0.50000  0.87284  1.0000
  Au  Au14      1.0  0.50000  0.75000  0.95761  1.0000
  Au  Au15      1.0  0.49919  0.00000  0.04299  1.0000
  Au  Au16      1.0  0.50686  0.74458  0.12806  1.0000
  C   C1        1.0  0.25000  1.00000  0.20716  1.0000
  O   O1        1.0  0.25000  1.00000  0.24972  1.0000
