# generated using pymatgen
data_Zn16Au16CO
_symmetry_space_group_name_H-M   'P 1'
_cell_length_a   6.43103000
_cell_length_b   9.09485000
_cell_length_c   26.82110000
_cell_angle_alpha   90.00000000
_cell_angle_beta   90.00000000
_cell_angle_gamma   90.00000000
_symmetry_Int_Tables_number   1
_chemical_formula_structural   Zn16Au16CO
_chemical_formula_sum   'Zn16 Au16 C1 O1'
_cell_volume   1568.74610888
_cell_formula_units_Z   1
loop_
 _symmetry_equiv_pos_site_id
 _symmetry_equiv_pos_as_xyz
  1  'x, y, z'
loop_
 _atom_site_type_symbol
 _atom_site_label
 _atom_site_symmetry_multiplicity
 _atom_site_fract_x
 _atom_site_fract_y
 _atom_site_fract_z
 _atom_site_occupancy
  Zn  Zn0  1  0.00000000  0.25000000  0.87284000  1.0
  Zn  Zn1  1  0.00000000  0.00000000  0.95761000  1.0
  Zn  Zn2  1  0.00000000  0.25088000  0.04510000  1.0
  Zn  Zn3  1  0.00000000  0.50000000  0.13114000  1.0
  Zn  Zn4  1  0.00000000  0.75000000  0.87284000  1.0
  Zn  Zn5  1  0.00000000  0.50000000  0.95761000  1.0
  Zn  Zn6  1  0.00000000  0.74912000  0.04510000  1.0
  Zn  Zn7  1  0.00000000  0.00000000  0.12801000  1.0
  Zn  Zn8  1  0.50000000  0.25000000  0.87284000  1.0
  Zn  Zn9  1  0.50000000  0.00000000  0.95761000  1.0
  Zn  Zn10  1  0.50000000  0.25018000  0.04204000  1.0
  Zn  Zn11  1  0.50000000  0.50000000  0.13551000  1.0
  Zn  Zn12  1  0.50000000  0.75000000  0.87284000  1.0
  Zn  Zn13  1  0.50000000  0.50000000  0.95761000  1.0
  Zn  Zn14  1  0.50000000  0.74982000  0.04204000  1.0
  Zn  Zn15  1  0.50000000  0.00000000  0.13074000  1.0
  Au  Au16  1  0.75000000  0.00000000  0.87284000  1.0
  Au  Au17  1  0.75000000  0.25000000  0.95761000  1.0
  Au  Au18  1  0.74868000  0.50000000  0.04105000  1.0
  Au  Au19  1  0.74314000  0.25542000  0.12806000  1.0
  Au  Au20  1  0.75000000  0.50000000  0.87284000  1.0
  Au  Au21  1  0.75000000  0.75000000  0.95761000  1.0
  Au  Au22  1  0.75081000  0.00000000  0.04299000  1.0
  Au  Au23  1  0.74314000  0.74458000  0.12806000  1.0
  Au  Au24  1  0.25000000  0.00000000  0.87284000  1.0
  Au  Au25  1  0.25000000  0.25000000  0.95761000  1.0
  Au  Au26  1  0.25132000  0.50000000  0.04105000  1.0
  Au  Au27  1  0.25686000  0.25542000  0.12806000  1.0
  Au  Au28  1  0.25000000  0.50000000  0.87284000  1.0
  Au  Au29  1  0.25000000  0.75000000  0.95761000  1.0
  Au  Au30  1  0.24919000  0.00000000  0.04299000  1.0
  Au  Au31  1  0.25686000  0.74458000  0.12806000  1.0
  C  C32  1  0.00000000  0.00000000  0.20716000  1.0
  O  O33  1  0.00000000  0.00000000  0.24972000  1.0
