# generated using pymatgen
data_Y8In8Pd16C
_symmetry_space_group_name_H-M   'P 1'
_cell_length_a   6.85111000
_cell_length_b   9.68893000
_cell_length_c   27.26670000
_cell_angle_alpha   90.00000000
_cell_angle_beta   90.00000000
_cell_angle_gamma   90.00000000
_symmetry_Int_Tables_number   1
_chemical_formula_structural   Y8In8Pd16C
_chemical_formula_sum   'Y8 In8 Pd16 C1'
_cell_volume   1809.96150679
_cell_formula_units_Z   1
loop_
 _symmetry_equiv_pos_site_id
 _symmetry_equiv_pos_as_xyz
  1  'x, y, z'
loop_
 _atom_site_type_symbol
 _atom_site_label
 _atom_site_symmetry_multiplicity
 _atom_site_fract_x
 _atom_site_fract_y
 _atom_site_fract_z
 _atom_site_occupancy
  Y  Y0  1  0.00000000  0.00000000  0.86675000  1.0
  Y  Y1  1  0.50000000  0.25000000  0.95558000  1.0
  Y  Y2  1  0.50000000  0.75000000  0.95558000  1.0
  Y  Y3  1  0.00000000  0.50000000  0.86675000  1.0
  Y  Y4  1  0.00000000  0.50000000  0.04322000  1.0
  Y  Y5  1  0.50000000  0.75738000  0.13678000  1.0
  Y  Y6  1  0.50000000  0.24262000  0.13678000  1.0
  Y  Y7  1  0.00000000  0.00000000  0.04551000  1.0
  In  In8  1  0.00000000  0.75000000  0.95558000  1.0
  In  In9  1  0.50000000  0.00000000  0.86675000  1.0
  In  In10  1  0.00000000  0.25000000  0.95558000  1.0
  In  In11  1  0.50000000  0.50000000  0.86675000  1.0
  In  In12  1  0.00000000  0.25713000  0.13394000  1.0
  In  In13  1  0.50000000  0.50000000  0.04659000  1.0
  In  In14  1  0.00000000  0.74287000  0.13394000  1.0
  In  In15  1  0.50000000  0.00000000  0.04823000  1.0
  Pd  Pd16  1  0.25000000  0.00000000  0.95558000  1.0
  Pd  Pd17  1  0.75000000  0.50000000  0.95558000  1.0
  Pd  Pd18  1  0.75000000  0.00000000  0.95558000  1.0
  Pd  Pd19  1  0.25000000  0.50000000  0.95558000  1.0
  Pd  Pd20  1  0.75000000  0.75000000  0.86675000  1.0
  Pd  Pd21  1  0.25000000  0.25000000  0.86675000  1.0
  Pd  Pd22  1  0.25000000  0.75000000  0.86675000  1.0
  Pd  Pd23  1  0.75000000  0.25000000  0.86675000  1.0
  Pd  Pd24  1  0.23840000  0.50000000  0.12698000  1.0
  Pd  Pd25  1  0.79919000  0.00000000  0.13609000  1.0
  Pd  Pd26  1  0.76160000  0.50000000  0.12698000  1.0
  Pd  Pd27  1  0.20081000  0.00000000  0.13609000  1.0
  Pd  Pd28  1  0.74136000  0.25182000  0.04556000  1.0
  Pd  Pd29  1  0.25864000  0.74818000  0.04556000  1.0
  Pd  Pd30  1  0.25864000  0.25182000  0.04556000  1.0
  Pd  Pd31  1  0.74136000  0.74818000  0.04556000  1.0
  C  C32  1  0.50000000  0.00000000  0.13898000  1.0
