# generated using pymatgen
data_LiYGaPd
_symmetry_space_group_name_H-M   'P 1'
_cell_length_a   6.61884000
_cell_length_b   4.68023000
_cell_length_c   27.02030000
_cell_angle_alpha   90.00000000
_cell_angle_beta   90.00000000
_cell_angle_gamma   90.00000000
_symmetry_Int_Tables_number   1
_chemical_formula_structural   LiYGaPd
_chemical_formula_sum   'Li4 Y4 Ga4 Pd4'
_cell_volume   837.02657258
_cell_formula_units_Z   4
loop_
 _symmetry_equiv_pos_site_id
 _symmetry_equiv_pos_as_xyz
  1  'x, y, z'
loop_
 _atom_site_type_symbol
 _atom_site_label
 _atom_site_symmetry_multiplicity
 _atom_site_fract_x
 _atom_site_fract_y
 _atom_site_fract_z
 _atom_site_occupancy
  Li  Li0  1  0.25000000  0.00000000  0.95670000  1.0
  Li  Li1  1  0.75000000  0.50000000  0.87009000  1.0
  Li  Li2  1  0.48116500  0.00000000  0.18089000  1.0
  Li  Li3  1  0.77289500  0.50000000  0.04737000  1.0
  Y  Y4  1  1.00000000  0.50000000  0.95670000  1.0
  Y  Y5  1  0.50000000  0.00000000  0.87009000  1.0
  Y  Y6  1  0.08562000  0.50000000  0.12914000  1.0
  Y  Y7  1  0.49140000  0.00000000  0.05396000  1.0
  Ga  Ga8  1  1.00000000  0.00000000  0.87009000  1.0
  Ga  Ga9  1  0.50000000  0.50000000  0.95670000  1.0
  Ga  Ga10  1  0.00847000  0.00000000  0.04004000  1.0
  Ga  Ga11  1  0.57903000  0.50000000  0.13366000  1.0
  Pd  Pd12  1  0.75000000  0.00000000  0.95670000  1.0
  Pd  Pd13  1  0.25000000  0.50000000  0.87009000  1.0
  Pd  Pd14  1  0.80540500  0.00000000  0.12238500  1.0
  Pd  Pd15  1  0.26040500  0.50000000  0.03700500  1.0
