# generated using pymatgen
data_Li8Al16Pt8C
_symmetry_space_group_name_H-M   Pmm2
_cell_length_a   6.09904000
_cell_length_b   8.62534000
_cell_length_c   26.46900000
_cell_angle_alpha   90.00000000
_cell_angle_beta   90.00000000
_cell_angle_gamma   90.00000000
_symmetry_Int_Tables_number   25
_chemical_formula_structural   Li8Al16Pt8C
_chemical_formula_sum   'Li8 Al16 Pt8 C1'
_cell_volume   1392.43598725
_cell_formula_units_Z   1
loop_
 _symmetry_equiv_pos_site_id
 _symmetry_equiv_pos_as_xyz
  1  'x, y, z'
  2  '-x, -y, z'
  3  '-x, y, z'
  4  'x, -y, z'
loop_
 _atom_site_type_symbol
 _atom_site_label
 _atom_site_symmetry_multiplicity
 _atom_site_fract_x
 _atom_site_fract_y
 _atom_site_fract_z
 _atom_site_occupancy
  Li  Li0  2  0.50000000  0.25000000  0.95927000  1.0
  Li  Li1  2  0.50000000  0.27617000  0.16602000  1.0
  Li  Li2  1  0.00000000  0.00000000  0.04607000  1.0
  Li  Li3  1  0.00000000  0.00000000  0.87780000  1.0
  Li  Li4  1  0.00000000  0.50000000  0.03909000  1.0
  Li  Li5  1  0.00000000  0.50000000  0.87780000  1.0
  Al  Al6  4  0.25000000  0.25000000  0.87780000  1.0
  Al  Al7  4  0.26150000  0.25221000  0.04332000  1.0
  Al  Al8  2  0.23913000  0.50000000  0.12061000  1.0
  Al  Al9  2  0.25000000  0.00000000  0.95927000  1.0
  Al  Al10  2  0.25000000  0.50000000  0.95927000  1.0
  Al  Al11  2  0.29768000  0.00000000  0.12378000  1.0
  Pt  Pt12  2  0.00000000  0.24406000  0.11768000  1.0
  Pt  Pt13  2  0.00000000  0.25000000  0.95927000  1.0
  Pt  Pt14  1  0.50000000  0.00000000  0.03576000  1.0
  Pt  Pt15  1  0.50000000  0.00000000  0.87780000  1.0
  Pt  Pt16  1  0.50000000  0.50000000  0.03700000  1.0
  Pt  Pt17  1  0.50000000  0.50000000  0.87780000  1.0
  C  C18  1  0.00000000  0.00000000  0.14494000  1.0
