# generated using pymatgen
data_CuSnRh2
_symmetry_space_group_name_H-M   Pmm2
_cell_length_a   4.42637000
_cell_length_b   6.25984000
_cell_length_c   26.63960000
_cell_angle_alpha   90.00000000
_cell_angle_beta   90.00000000
_cell_angle_gamma   90.00000000
_symmetry_Int_Tables_number   25
_chemical_formula_structural   CuSnRh2
_chemical_formula_sum   'Cu4 Sn4 Rh8'
_cell_volume   738.13983966
_cell_formula_units_Z   4
loop_
 _symmetry_equiv_pos_site_id
 _symmetry_equiv_pos_as_xyz
  1  'x, y, z'
  2  '-x, -y, z'
  3  '-x, y, z'
  4  'x, -y, z'
loop_
 _atom_site_type_symbol
 _atom_site_label
 _atom_site_symmetry_multiplicity
 _atom_site_fract_x
 _atom_site_fract_y
 _atom_site_fract_z
 _atom_site_occupancy
  Cu  Cu0  1  0.00000000  0.00000000  0.12462000  1.0
  Cu  Cu1  1  0.00000000  0.00000000  0.95793500  1.0
  Cu  Cu2  1  0.50000000  0.50000000  0.04154000  1.0
  Cu  Cu3  1  0.50000000  0.50000000  0.87516500  1.0
  Sn  Sn4  1  0.00000000  0.50000000  0.12462000  1.0
  Sn  Sn5  1  0.00000000  0.50000000  0.96010500  1.0
  Sn  Sn6  1  0.50000000  0.00000000  0.04154000  1.0
  Sn  Sn7  1  0.50000000  0.00000000  0.87129000  1.0
  Rh  Rh8  2  0.00000000  0.25000000  0.04154000  1.0
  Rh  Rh9  2  0.00000000  0.25431500  0.87897000  1.0
  Rh  Rh10  2  0.50000000  0.24716500  0.95811000  1.0
  Rh  Rh11  2  0.50000000  0.25000000  0.12462000  1.0
