# generated using pymatgen
data_Zr8Co16Sn8C
_symmetry_space_group_name_H-M   Pmm2
_cell_length_a   6.31315000
_cell_length_b   8.92814000
_cell_length_c   26.69610000
_cell_angle_alpha   90.00000000
_cell_angle_beta   90.00000000
_cell_angle_gamma   90.00000000
_symmetry_Int_Tables_number   25
_chemical_formula_structural   Zr8Co16Sn8C
_chemical_formula_sum   'Zr8 Co16 Sn8 C1'
_cell_volume   1504.71732172
_cell_formula_units_Z   1
loop_
 _symmetry_equiv_pos_site_id
 _symmetry_equiv_pos_as_xyz
  1  'x, y, z'
  2  '-x, -y, z'
  3  '-x, y, z'
  4  'x, -y, z'
loop_
 _atom_site_type_symbol
 _atom_site_label
 _atom_site_symmetry_multiplicity
 _atom_site_fract_x
 _atom_site_fract_y
 _atom_site_fract_z
 _atom_site_occupancy
  Zr  Zr0  2  0.50000000  0.25000000  0.95820000  1.0
  Zr  Zr1  2  0.50000000  0.26006000  0.12685000  1.0
  Zr  Zr2  1  0.00000000  0.00000000  0.04120000  1.0
  Zr  Zr3  1  0.00000000  0.00000000  0.87459000  1.0
  Zr  Zr4  1  0.00000000  0.50000000  0.04119000  1.0
  Zr  Zr5  1  0.00000000  0.50000000  0.87459000  1.0
  Co  Co6  4  0.25000000  0.25000000  0.87459000  1.0
  Co  Co7  4  0.25510000  0.24858000  0.04470000  1.0
  Co  Co8  2  0.22832000  0.50000000  0.11928000  1.0
  Co  Co9  2  0.22922000  0.00000000  0.12272000  1.0
  Co  Co10  2  0.25000000  0.00000000  0.95820000  1.0
  Co  Co11  2  0.25000000  0.50000000  0.95820000  1.0
  Sn  Sn12  2  0.00000000  0.24763000  0.13168000  1.0
  Sn  Sn13  2  0.00000000  0.25000000  0.95820000  1.0
  Sn  Sn14  1  0.50000000  0.00000000  0.04146000  1.0
  Sn  Sn15  1  0.50000000  0.00000000  0.87459000  1.0
  Sn  Sn16  1  0.50000000  0.50000000  0.04182000  1.0
  Sn  Sn17  1  0.50000000  0.50000000  0.87459000  1.0
  C  C18  1  0.50000000  0.00000000  0.14068000  1.0
