# generated using pymatgen
data_GaFe2Co
_symmetry_space_group_name_H-M   'P 1'
_cell_length_a   4.10027181
_cell_length_b   4.10027181
_cell_length_c   24.34900000
_cell_angle_alpha   90.00000000
_cell_angle_beta   90.00000000
_cell_angle_gamma   90.00000000
_symmetry_Int_Tables_number   1
_chemical_formula_structural   GaFe2Co
_chemical_formula_sum   'Ga2 Fe4 Co2'
_cell_volume   409.36096143
_cell_formula_units_Z   2
loop_
 _symmetry_equiv_pos_site_id
 _symmetry_equiv_pos_as_xyz
  1  'x, y, z'
loop_
 _atom_site_type_symbol
 _atom_site_label
 _atom_site_symmetry_multiplicity
 _atom_site_fract_x
 _atom_site_fract_y
 _atom_site_fract_z
 _atom_site_occupancy
  Ga  Ga0  1  0.00000000  0.00000000  0.91069000  1.0
  Ga  Ga1  1  0.50000000  0.50000000  0.02977000  1.0
  Fe  Fe2  1  0.50000000  0.00000000  0.97023000  1.0
  Fe  Fe3  1  0.50000000  0.00000000  0.08931000  1.0
  Fe  Fe4  1  0.00000000  0.50000000  0.97023000  1.0
  Fe  Fe5  1  0.00000000  0.50000000  0.08931000  1.0
  Co  Co6  1  0.00000000  0.00000000  0.02977000  1.0
  Co  Co7  1  0.50000000  0.50000000  0.91069000  1.0
