# generated using pymatgen
data_V4Ga4Co8CO
_symmetry_space_group_name_H-M   'P 1'
_cell_length_a   5.77968000
_cell_length_b   5.77968000
_cell_length_c   24.33480000
_cell_angle_alpha   90.00000000
_cell_angle_beta   90.00000000
_cell_angle_gamma   90.00000000
_symmetry_Int_Tables_number   1
_chemical_formula_structural   V4Ga4Co8CO
_chemical_formula_sum   'V4 Ga4 Co8 C1 O1'
_cell_volume   812.89671552
_cell_formula_units_Z   1
loop_
 _symmetry_equiv_pos_site_id
 _symmetry_equiv_pos_as_xyz
  1  'x, y, z'
loop_
 _atom_site_type_symbol
 _atom_site_label
 _atom_site_symmetry_multiplicity
 _atom_site_fract_x
 _atom_site_fract_y
 _atom_site_fract_z
 _atom_site_occupancy
  V  V0  1  0.00000000  0.00000000  0.08907000  1.0
  V  V1  1  0.50000000  0.50000000  0.08907000  1.0
  V  V2  1  0.50000000  0.00000000  0.97031000  1.0
  V  V3  1  0.00000000  0.50000000  0.97031000  1.0
  Ga  Ga4  1  0.00000000  0.00000000  0.97031000  1.0
  Ga  Ga5  1  0.50000000  0.00000000  0.08907000  1.0
  Ga  Ga6  1  0.00000000  0.50000000  0.08907000  1.0
  Ga  Ga7  1  0.50000000  0.50000000  0.97031000  1.0
  Co  Co8  1  0.25000000  0.25000000  0.02969000  1.0
  Co  Co9  1  0.75000000  0.75000000  0.91093000  1.0
  Co  Co10  1  0.75000000  0.25000000  0.02969000  1.0
  Co  Co11  1  0.25000000  0.75000000  0.91093000  1.0
  Co  Co12  1  0.75000000  0.75000000  0.02969000  1.0
  Co  Co13  1  0.25000000  0.25000000  0.91093000  1.0
  Co  Co14  1  0.25000000  0.75000000  0.02969000  1.0
  Co  Co15  1  0.75000000  0.25000000  0.91093000  1.0
  C  C16  1  0.00000000  0.00000000  0.16714000  1.0
  O  O17  1  0.00000000  0.00000000  0.21440000  1.0
