# generated using pymatgen
data_Sc8Ga8Ge8Pd8C
_symmetry_space_group_name_H-M   Pmm2
_cell_length_a   8.08666000
_cell_length_b   8.58414000
_cell_length_c   25.87790000
_cell_angle_alpha   90.00000000
_cell_angle_beta   90.00000000
_cell_angle_gamma   90.00000000
_symmetry_Int_Tables_number   25
_chemical_formula_structural   Sc8Ga8Ge8Pd8C
_chemical_formula_sum   'Sc8 Ga8 Ge8 Pd8 C1'
_cell_volume   1796.36674255
_cell_formula_units_Z   1
loop_
 _symmetry_equiv_pos_site_id
 _symmetry_equiv_pos_as_xyz
  1  'x, y, z'
  2  '-x, -y, z'
  3  '-x, y, z'
  4  'x, -y, z'
loop_
 _atom_site_type_symbol
 _atom_site_label
 _atom_site_symmetry_multiplicity
 _atom_site_fract_x
 _atom_site_fract_y
 _atom_site_fract_z
 _atom_site_occupancy
  Sc  Sc0  4  0.25000000  0.24999000  0.88643000  1.0
  Sc  Sc1  4  0.25674000  0.24954000  0.04300000  1.0
  Ga  Ga2  1  0.00000000  0.00000000  0.02578000  1.0
  Ga  Ga3  1  0.00000000  0.00000000  0.88643000  1.0
  Ga  Ga4  1  0.00000000  0.50000000  0.03905000  1.0
  Ga  Ga5  1  0.00000000  0.50000000  0.88643000  1.0
  Ga  Ga6  1  0.50000000  0.00000000  0.08564000  1.0
  Ga  Ga7  1  0.50000000  0.00000000  0.88643000  1.0
  Ga  Ga8  1  0.50000000  0.50000000  0.03469000  1.0
  Ga  Ga9  1  0.50000000  0.50000000  0.88643000  1.0
  Ge  Ge10  2  0.00000000  0.24999000  0.96214000  1.0
  Ge  Ge11  2  0.00000000  0.27777000  0.12966000  1.0
  Ge  Ge12  2  0.50000000  0.24999000  0.96214000  1.0
  Ge  Ge13  2  0.50000000  0.31903000  0.12267000  1.0
  Pd  Pd14  2  0.17923000  0.00000000  0.10702000  1.0
  Pd  Pd15  2  0.24620000  0.50000000  0.11879000  1.0
  Pd  Pd16  2  0.25000000  0.00000000  0.96214000  1.0
  Pd  Pd17  2  0.25000000  0.50000000  0.96214000  1.0
  C  C18  1  0.00000000  0.50000000  0.14833000  1.0
