# generated using pymatgen
data_Li16Zn8Ge8C
_symmetry_space_group_name_H-M   'P 1'
_cell_length_a   8.75246000
_cell_length_b   6.18893000
_cell_length_c   26.56430000
_cell_angle_alpha   90.00000000
_cell_angle_beta   90.00000000
_cell_angle_gamma   90.00000000
_symmetry_Int_Tables_number   1
_chemical_formula_structural   Li16Zn8Ge8C
_chemical_formula_sum   'Li16 Zn8 Ge8 C1'
_cell_volume   1438.94462579
_cell_formula_units_Z   1
loop_
 _symmetry_equiv_pos_site_id
 _symmetry_equiv_pos_as_xyz
  1  'x, y, z'
loop_
 _atom_site_type_symbol
 _atom_site_label
 _atom_site_symmetry_multiplicity
 _atom_site_fract_x
 _atom_site_fract_y
 _atom_site_fract_z
 _atom_site_occupancy
  Li  Li0  1  0.50000000  0.00000000  0.12356000  1.0
  Li  Li1  1  0.75002000  0.50000000  0.04119000  1.0
  Li  Li2  1  0.24998000  0.50000000  0.04119000  1.0
  Li  Li3  1  0.00000000  1.00000000  0.12356000  1.0
  Li  Li4  1  0.75002000  0.25000000  0.12356000  1.0
  Li  Li5  1  0.24998000  0.25000000  0.12356000  1.0
  Li  Li6  1  0.00000000  0.75000000  0.04119000  1.0
  Li  Li7  1  0.50000000  0.75000000  0.04119000  1.0
  Li  Li8  1  0.00000000  0.00698000  0.95854000  1.0
  Li  Li9  1  0.26830000  0.47070000  0.86340000  1.0
  Li  Li10  1  0.73170000  0.47070000  0.86340000  1.0
  Li  Li11  1  0.50000000  0.97201000  0.95766000  1.0
  Li  Li12  1  0.26091000  0.25357000  0.95154000  1.0
  Li  Li13  1  0.73909000  0.25357000  0.95154000  1.0
  Li  Li14  1  0.50000000  0.75430000  0.85012000  1.0
  Li  Li15  1  0.00000000  0.73156000  0.87051000  1.0
  Zn  Zn16  1  0.50000000  0.25000000  0.04119000  1.0
  Zn  Zn17  1  0.00000000  0.25000000  0.04119000  1.0
  Zn  Zn18  1  0.25002000  0.75000000  0.12356000  1.0
  Zn  Zn19  1  0.74998000  0.75000000  0.12356000  1.0
  Zn  Zn20  1  0.00000000  0.21776000  0.87445000  1.0
  Zn  Zn21  1  0.50000000  0.15625000  0.86947000  1.0
  Zn  Zn22  1  0.76367000  0.75178000  0.95525000  1.0
  Zn  Zn23  1  0.23633000  0.75178000  0.95525000  1.0
  Ge  Ge24  1  0.25002000  1.00000000  0.04119000  1.0
  Ge  Ge25  1  0.50000000  0.50000000  0.12356000  1.0
  Ge  Ge26  1  0.74998000  1.00000000  0.04119000  1.0
  Ge  Ge27  1  0.00000000  0.50000000  0.12356000  1.0
  Ge  Ge28  1  0.76054000  0.96943000  0.87115000  1.0
  Ge  Ge29  1  0.00000000  0.48819000  0.95635000  1.0
  Ge  Ge30  1  0.23946000  0.96943000  0.87115000  1.0
  Ge  Ge31  1  0.50000000  0.53437000  0.95553000  1.0
  C  C32  1  0.50000000  0.46079000  0.88548000  1.0
