# generated using pymatgen
data_Li16Zn8Ge8C
_symmetry_space_group_name_H-M   Pm
_cell_length_a   6.18893000
_cell_length_b   8.75246000
_cell_length_c   26.56430000
_cell_angle_alpha   90.00000000
_cell_angle_beta   90.00000000
_cell_angle_gamma   90.00000000
_symmetry_Int_Tables_number   6
_chemical_formula_structural   Li16Zn8Ge8C
_chemical_formula_sum   'Li16 Zn8 Ge8 C1'
_cell_volume   1438.94462579
_cell_formula_units_Z   1
loop_
 _symmetry_equiv_pos_site_id
 _symmetry_equiv_pos_as_xyz
  1  'x, y, z'
  2  'x, -y, z'
loop_
 _atom_site_type_symbol
 _atom_site_label
 _atom_site_symmetry_multiplicity
 _atom_site_fract_x
 _atom_site_fract_y
 _atom_site_fract_z
 _atom_site_occupancy
  Li  Li0  2  0.25000000  0.24998000  0.87644000  1.0
  Li  Li1  2  0.25357000  0.26091000  0.04846000  1.0
  Li  Li2  2  0.47070000  0.26830000  0.13660000  1.0
  Li  Li3  2  0.50000000  0.24998000  0.95881000  1.0
  Li  Li4  1  -0.00000000  0.00000000  0.87644000  1.0
  Li  Li5  1  0.00000000  0.50000000  0.87644000  1.0
  Li  Li6  1  0.00698000  0.00000000  0.04146000  1.0
  Li  Li7  1  0.73156000  0.00000000  0.12949000  1.0
  Li  Li8  1  0.75000000  0.00000000  0.95881000  1.0
  Li  Li9  1  0.75000000  0.50000000  0.95881000  1.0
  Li  Li10  1  0.75430000  0.50000000  0.14988000  1.0
  Li  Li11  1  0.97201000  0.50000000  0.04234000  1.0
  Zn  Zn12  2  0.75000000  0.25002000  0.87644000  1.0
  Zn  Zn13  2  0.75178000  0.23633000  0.04475000  1.0
  Zn  Zn14  1  0.15625000  0.50000000  0.13053000  1.0
  Zn  Zn15  1  0.21776000  0.00000000  0.12555000  1.0
  Zn  Zn16  1  0.25000000  0.00000000  0.95881000  1.0
  Zn  Zn17  1  0.25000000  0.50000000  0.95881000  1.0
  Ge  Ge18  2  -0.00000000  0.25002000  0.95881000  1.0
  Ge  Ge19  2  0.96943000  0.23946000  0.12885000  1.0
  Ge  Ge20  1  0.48819000  0.00000000  0.04365000  1.0
  Ge  Ge21  1  0.50000000  0.00000000  0.87644000  1.0
  Ge  Ge22  1  0.50000000  0.50000000  0.87644000  1.0
  Ge  Ge23  1  0.53437000  0.50000000  0.04447000  1.0
  C  C24  1  0.46079000  0.50000000  0.11452000  1.0
