# generated using pymatgen
data_Li4Y4In4Ge4CO
_symmetry_space_group_name_H-M   P1
_cell_length_a   6.33235000
_cell_length_b   8.49364000
_cell_length_c   24.73290000
_cell_angle_alpha   90.00000000
_cell_angle_beta   90.00000000
_cell_angle_gamma   90.00000000
_symmetry_Int_Tables_number   1
_chemical_formula_structural   Li4Y4In4Ge4CO
_chemical_formula_sum   'Li4 Y4 In4 Ge4 C1 O1'
_cell_volume   1330.25163765
_cell_formula_units_Z   1
loop_
 _symmetry_equiv_pos_site_id
 _symmetry_equiv_pos_as_xyz
  1  'x, y, z'
loop_
 _atom_site_type_symbol
 _atom_site_label
 _atom_site_symmetry_multiplicity
 _atom_site_fract_x
 _atom_site_fract_y
 _atom_site_fract_z
 _atom_site_occupancy
  Li  Li0  1  0.07482000  0.49938000  0.97286000  1.0
  Li  Li1  1  0.07496000  0.00071000  0.97299000  1.0
  Li  Li2  1  0.50000000  -0.00000000  0.09568000  1.0
  Li  Li3  1  0.50000000  0.50000000  0.09568000  1.0
  Y  Y4  1  0.41044000  0.24994000  0.90205000  1.0
  Y  Y5  1  0.41764000  0.74999000  0.90123000  1.0
  Y  Y6  1  0.77071000  0.25000000  0.03189000  1.0
  Y  Y7  1  0.77071000  0.75000000  0.03189000  1.0
  In  In8  1  0.27071000  0.25000000  0.03189000  1.0
  In  In9  1  0.27071000  0.75000000  0.03189000  1.0
  In  In10  1  0.91268000  0.24983000  0.89434000  1.0
  In  In11  1  0.91362000  0.75015000  0.89463000  1.0
  Ge  Ge12  1  0.00000000  0.00000000  0.09568000  1.0
  Ge  Ge13  1  0.00000000  0.50000000  0.09568000  1.0
  Ge  Ge14  1  0.64078000  0.00314000  0.95196000  1.0
  Ge  Ge15  1  0.64093000  0.49677000  0.95187000  1.0
  C  C16  1  0.55225000  0.75005000  0.80718000  1.0
  O  O17  1  0.61028000  0.75008000  0.76297000  1.0
