data_image0
_chemical_formula_structural       Li8Ag8Ge8Pd8C
_chemical_formula_sum              "Li8 Ag8 Ge8 Pd8 C1"
_cell_length_a       6.28256
_cell_length_b       8.88488
_cell_length_c       26.6637
_cell_angle_alpha    90
_cell_angle_beta     90
_cell_angle_gamma    90

_space_group_name_H-M_alt    "P 1"
_space_group_IT_number       1

loop_
  _space_group_symop_operation_xyz
  'x, y, z'

loop_
  _atom_site_type_symbol
  _atom_site_label
  _atom_site_symmetry_multiplicity
  _atom_site_fract_x
  _atom_site_fract_y
  _atom_site_fract_z
  _atom_site_occupancy
  Li  Li1       1.0  0.25000  0.00000  0.95835  1.0000
  Li  Li2       1.0  0.25000  0.50000  0.95835  1.0000
  Li  Li3       1.0  0.75000  0.25000  0.87504  1.0000
  Li  Li4       1.0  0.75000  0.75000  0.87504  1.0000
  Li  Li5       1.0  0.21660  0.49102  0.14201  1.0000
  Li  Li6       1.0  0.21661  0.00897  0.14201  1.0000
  Li  Li7       1.0  0.73861  0.75000  0.03969  1.0000
  Li  Li8       1.0  0.76005  0.25000  0.04504  1.0000
  Ag  Ag1       1.0  0.00000  0.00000  0.87504  1.0000
  Ag  Ag2       1.0  0.00000  0.50000  0.87504  1.0000
  Ag  Ag3       1.0  0.50000  0.75000  0.95835  1.0000
  Ag  Ag4       1.0  0.50000  0.25000  0.95835  1.0000
  Ag  Ag5       1.0  0.99799  0.50044  0.04382  1.0000
  Ag  Ag6       1.0  0.99799  0.99955  0.04382  1.0000
  Ag  Ag7       1.0  0.49472  0.25000  0.12438  1.0000
  Ag  Ag8       1.0  0.49548  0.75000  0.12756  1.0000
  Ge  Ge1       1.0  0.75000  0.00000  0.95835  1.0000
  Ge  Ge2       1.0  0.75000  0.50000  0.95835  1.0000
  Ge  Ge3       1.0  0.25000  0.25000  0.87504  1.0000
  Ge  Ge4       1.0  0.25000  0.75000  0.87504  1.0000
  Ge  Ge5       1.0  0.75275  0.50420  0.12908  1.0000
  Ge  Ge6       1.0  0.75275  0.99580  0.12908  1.0000
  Ge  Ge7       1.0  0.25143  0.75000  0.04291  1.0000
  Ge  Ge8       1.0  0.24805  0.25000  0.03824  1.0000
  Pd  Pd1       1.0  0.00000  0.25000  0.95835  1.0000
  Pd  Pd2       1.0  0.00000  0.75000  0.95835  1.0000
  Pd  Pd3       1.0  0.50000  0.50000  0.87504  1.0000
  Pd  Pd4       1.0  0.50000  0.00000  0.87504  1.0000
  Pd  Pd5       1.0  0.98186  0.75000  0.11649  1.0000
  Pd  Pd6       1.0  0.91188  0.25000  0.15185  1.0000
  Pd  Pd7       1.0  0.48989  0.00153  0.04846  1.0000
  Pd  Pd8       1.0  0.48989  0.49847  0.04846  1.0000
  C   C1        1.0  0.20221  0.25000  0.15866  1.0000
