# generated using pymatgen
data_Li8Ag8Ge8Pd8C
_symmetry_space_group_name_H-M   Pm
_cell_length_a   6.28256000
_cell_length_b   8.88488000
_cell_length_c   26.66370000
_cell_angle_alpha   90.00000000
_cell_angle_beta   90.00000000
_cell_angle_gamma   90.00000000
_symmetry_Int_Tables_number   6
_chemical_formula_structural   Li8Ag8Ge8Pd8C
_chemical_formula_sum   'Li8 Ag8 Ge8 Pd8 C1'
_cell_volume   1488.36217976
_cell_formula_units_Z   1
loop_
 _symmetry_equiv_pos_site_id
 _symmetry_equiv_pos_as_xyz
  1  'x, y, z'
  2  'x, -y, z'
loop_
 _atom_site_type_symbol
 _atom_site_label
 _atom_site_symmetry_multiplicity
 _atom_site_fract_x
 _atom_site_fract_y
 _atom_site_fract_z
 _atom_site_occupancy
  Li  Li0  2  0.21660000  0.24102000  0.14201000  1.0
  Li  Li1  2  0.25000000  0.25000000  0.95835000  1.0
  Li  Li2  1  0.73861000  0.50000000  0.03969000  1.0
  Li  Li3  1  0.75000000  0.00000000  0.87504000  1.0
  Li  Li4  1  0.75000000  0.50000000  0.87504000  1.0
  Li  Li5  1  0.76005000  0.00000000  0.04504000  1.0
  Ag  Ag6  2  0.00000000  0.25000000  0.87504000  1.0
  Ag  Ag7  2  0.99799000  0.25044000  0.04382000  1.0
  Ag  Ag8  1  0.49472000  0.00000000  0.12438000  1.0
  Ag  Ag9  1  0.49548000  0.50000000  0.12756000  1.0
  Ag  Ag10  1  0.50000000  0.00000000  0.95835000  1.0
  Ag  Ag11  1  0.50000000  0.50000000  0.95835000  1.0
  Ge  Ge12  2  0.75000000  0.25000000  0.95835000  1.0
  Ge  Ge13  2  0.75275000  0.25420000  0.12908000  1.0
  Ge  Ge14  1  0.24805000  0.00000000  0.03824000  1.0
  Ge  Ge15  1  0.25000000  0.00000000  0.87504000  1.0
  Ge  Ge16  1  0.25000000  0.50000000  0.87504000  1.0
  Ge  Ge17  1  0.25143000  0.50000000  0.04291000  1.0
  Pd  Pd18  2  0.48989000  0.24847000  0.04846000  1.0
  Pd  Pd19  2  0.50000000  0.25000000  0.87504000  1.0
  Pd  Pd20  1  0.00000000  0.00000000  0.95835000  1.0
  Pd  Pd21  1  0.00000000  0.50000000  0.95835000  1.0
  Pd  Pd22  1  0.91188000  0.00000000  0.15185000  1.0
  Pd  Pd23  1  0.98186000  0.50000000  0.11649000  1.0
  C  C24  1  0.20221000  0.00000000  0.15866000  1.0
