# generated using pymatgen
data_Li4Mg4In4Ag4C
_symmetry_space_group_name_H-M   Cm
_cell_length_a   9.46135743
_cell_length_b   9.46135743
_cell_length_c   25.01760000
_cell_angle_alpha   90.00000000
_cell_angle_beta   90.00000000
_cell_angle_gamma   90.00000000
_symmetry_Int_Tables_number   8
_chemical_formula_structural   Li4Mg4In4Ag4C
_chemical_formula_sum   'Li8 Mg8 In8 Ag8 C2'
_cell_volume   2239.50761601
_cell_formula_units_Z   2
loop_
 _symmetry_equiv_pos_site_id
 _symmetry_equiv_pos_as_xyz
  1  'x, y, z'
  2  'x, -y, z'
  3  'x+1/2, y+1/2, z'
  4  'x+1/2, -y+1/2, z'
loop_
 _atom_site_type_symbol
 _atom_site_label
 _atom_site_symmetry_multiplicity
 _atom_site_fract_x
 _atom_site_fract_y
 _atom_site_fract_z
 _atom_site_occupancy
  Li  Li0  4  0.25031000  0.22099000  0.12574000  1.0
  Li  Li1  2  0.49999500  0.00000000  0.96657000  1.0
  Li  Li2  2  0.49999500  0.50000000  0.96657000  1.0
  Mg  Mg3  4  0.00005500  0.25084500  0.03917000  1.0
  Mg  Mg4  2  0.24999500  0.00000000  0.89972000  1.0
  Mg  Mg5  2  0.24999500  0.50000000  0.89972000  1.0
  In  In6  4  0.49999500  0.25000500  0.89972000  1.0
  In  In7  2  0.24997000  0.00000000  0.02739000  1.0
  In  In8  2  0.25036000  0.50000000  0.05076000  1.0
  Ag  Ag9  4  0.24999500  0.25000500  0.96657000  1.0
  Ag  Ag10  2  0.01657500  0.00000000  0.10522000  1.0
  Ag  Ag11  2  0.48432500  0.00000000  0.10557000  1.0
  C  C12  2  0.25031000  0.00000000  0.11717000  1.0
