# generated using pymatgen
data_MgScInPd
_symmetry_space_group_name_H-M   'P 1'
_cell_length_a   9.57114000
_cell_length_b   6.76782000
_cell_length_c   27.17840000
_cell_angle_alpha   90.00000000
_cell_angle_beta   90.00000000
_cell_angle_gamma   90.00000000
_symmetry_Int_Tables_number   1
_chemical_formula_structural   MgScInPd
_chemical_formula_sum   'Mg8 Sc8 In8 Pd8'
_cell_volume   1760.50131758
_cell_formula_units_Z   8
loop_
 _symmetry_equiv_pos_site_id
 _symmetry_equiv_pos_as_xyz
  1  'x, y, z'
loop_
 _atom_site_type_symbol
 _atom_site_label
 _atom_site_symmetry_multiplicity
 _atom_site_fract_x
 _atom_site_fract_y
 _atom_site_fract_z
 _atom_site_occupancy
  Mg  Mg0  1  0.75000000  0.25000000  0.04402000  1.0
  Mg  Mg1  1  0.25000000  0.25000000  0.04402000  1.0
  Mg  Mg2  1  0.00000000  0.75000000  0.13206000  1.0
  Mg  Mg3  1  0.50000000  0.75000000  0.13206000  1.0
  Mg  Mg4  1  0.25001000  0.24709000  0.86575000  1.0
  Mg  Mg5  1  0.74999000  0.24709000  0.86575000  1.0
  Mg  Mg6  1  0.50000000  0.73661000  0.95261000  1.0
  Mg  Mg7  1  0.00000000  0.73654000  0.95260000  1.0
  Sc  Sc8  1  0.75000000  0.75000000  0.04402000  1.0
  Sc  Sc9  1  0.25000000  0.75000000  0.04402000  1.0
  Sc  Sc10  1  0.00000000  0.25000000  0.13206000  1.0
  Sc  Sc11  1  0.50000000  0.25000000  0.13206000  1.0
  Sc  Sc12  1  0.24998000  0.74844000  0.86568000  1.0
  Sc  Sc13  1  0.75002000  0.74844000  0.86568000  1.0
  Sc  Sc14  1  0.50000000  0.25873000  0.95268000  1.0
  Sc  Sc15  1  0.00000000  0.25879000  0.95267000  1.0
  In  In16  1  0.75000000  0.00000000  0.13206000  1.0
  In  In17  1  0.25000000  0.00000000  0.13206000  1.0
  In  In18  1  0.50000000  0.50000000  0.04402000  1.0
  In  In19  1  0.00000000  0.50000000  0.04402000  1.0
  In  In20  1  0.24998000  0.99556000  0.95457000  1.0
  In  In21  1  0.75002000  0.99556000  0.95457000  1.0
  In  In22  1  0.00000000  0.49250000  0.85077000  1.0
  In  In23  1  0.50000000  0.49259000  0.85084000  1.0
  Pd  Pd24  1  0.00000000  1.00000000  0.04402000  1.0
  Pd  Pd25  1  0.50000000  1.00000000  0.04402000  1.0
  Pd  Pd26  1  0.25000000  0.50000000  0.13206000  1.0
  Pd  Pd27  1  0.75000000  0.50000000  0.13206000  1.0
  Pd  Pd28  1  0.50000000  0.00440000  0.87706000  1.0
  Pd  Pd29  1  0.00000000  0.00443000  0.87706000  1.0
  Pd  Pd30  1  0.74998000  0.50802000  0.95482000  1.0
  Pd  Pd31  1  0.25002000  0.50802000  0.95482000  1.0
