# generated using pymatgen
data_MgScInPd
_symmetry_space_group_name_H-M   Pm
_cell_length_a   6.76782000
_cell_length_b   9.57114000
_cell_length_c   27.17840000
_cell_angle_alpha   90.00000000
_cell_angle_beta   90.00000000
_cell_angle_gamma   90.00000000
_symmetry_Int_Tables_number   6
_chemical_formula_structural   MgScInPd
_chemical_formula_sum   'Mg8 Sc8 In8 Pd8'
_cell_volume   1760.50131758
_cell_formula_units_Z   8
loop_
 _symmetry_equiv_pos_site_id
 _symmetry_equiv_pos_as_xyz
  1  'x, y, z'
  2  'x, -y, z'
loop_
 _atom_site_type_symbol
 _atom_site_label
 _atom_site_symmetry_multiplicity
 _atom_site_fract_x
 _atom_site_fract_y
 _atom_site_fract_z
 _atom_site_occupancy
  Mg  Mg0  2  0.24709000  0.25001000  0.13425000  1.0
  Mg  Mg1  2  0.25000000  0.25000000  0.95598000  1.0
  Mg  Mg2  1  0.73654000  0.00000000  0.04740000  1.0
  Mg  Mg3  1  0.73661000  0.50000000  0.04739000  1.0
  Mg  Mg4  1  0.75000000  0.00000000  0.86794000  1.0
  Mg  Mg5  1  0.75000000  0.50000000  0.86794000  1.0
  Sc  Sc6  2  0.74844000  0.24998000  0.13432000  1.0
  Sc  Sc7  2  0.75000000  0.25000000  0.95598000  1.0
  Sc  Sc8  1  0.25000000  0.00000000  0.86794000  1.0
  Sc  Sc9  1  0.25000000  0.50000000  0.86794000  1.0
  Sc  Sc10  1  0.25873000  0.50000000  0.04732000  1.0
  Sc  Sc11  1  0.25879000  0.00000000  0.04733000  1.0
  In  In12  2  0.00000000  0.25000000  0.86794000  1.0
  In  In13  2  0.99556000  0.24998000  0.04543000  1.0
  In  In14  1  0.49250000  0.00000000  0.14923000  1.0
  In  In15  1  0.49259000  0.50000000  0.14916000  1.0
  In  In16  1  0.50000000  0.00000000  0.95598000  1.0
  In  In17  1  0.50000000  0.50000000  0.95598000  1.0
  Pd  Pd18  2  0.50000000  0.25000000  0.86794000  1.0
  Pd  Pd19  2  0.50802000  0.25002000  0.04518000  1.0
  Pd  Pd20  1  -0.00000000  0.50000000  0.95598000  1.0
  Pd  Pd21  1  -0.00000000  0.00000000  0.95598000  1.0
  Pd  Pd22  1  0.00440000  0.50000000  0.12294000  1.0
  Pd  Pd23  1  0.00443000  0.00000000  0.12294000  1.0
