# generated using pymatgen
data_Li8Y8Ge8Pb8CO
_symmetry_space_group_name_H-M   'P 1'
_cell_length_a   8.65500000
_cell_length_b   9.86128000
_cell_length_c   26.41550000
_cell_angle_alpha   90.00000000
_cell_angle_beta   90.00000000
_cell_angle_gamma   90.00000000
_symmetry_Int_Tables_number   1
_chemical_formula_structural   Li8Y8Ge8Pb8CO
_chemical_formula_sum   'Li8 Y8 Ge8 Pb8 C1 O1'
_cell_volume   2254.54650513
_cell_formula_units_Z   1
loop_
 _symmetry_equiv_pos_site_id
 _symmetry_equiv_pos_as_xyz
  1  'x, y, z'
loop_
 _atom_site_type_symbol
 _atom_site_label
 _atom_site_symmetry_multiplicity
 _atom_site_fract_x
 _atom_site_fract_y
 _atom_site_fract_z
 _atom_site_occupancy
  Li  Li0  1  0.99923000  0.23934000  0.05452000  1.0
  Li  Li1  1  0.00000000  0.25000000  0.87856000  1.0
  Li  Li2  1  0.99995000  0.73913000  0.05497000  1.0
  Li  Li3  1  0.00000000  0.75000000  0.87856000  1.0
  Li  Li4  1  0.50022000  0.23882000  0.05444000  1.0
  Li  Li5  1  0.50000000  0.25000000  0.87856000  1.0
  Li  Li6  1  0.50073000  0.73843000  0.05593000  1.0
  Li  Li7  1  0.50000000  0.75000000  0.87856000  1.0
  Y  Y8  1  0.24990000  0.99747000  0.03840000  1.0
  Y  Y9  1  0.25000000  0.00000000  0.87856000  1.0
  Y  Y10  1  0.24993000  0.49846000  0.03833000  1.0
  Y  Y11  1  0.25000000  0.50000000  0.87856000  1.0
  Y  Y12  1  0.74999000  0.99795000  0.03826000  1.0
  Y  Y13  1  0.75000000  0.00000000  0.87856000  1.0
  Y  Y14  1  0.74967000  0.49747000  0.03811000  1.0
  Y  Y15  1  0.75000000  0.50000000  0.87856000  1.0
  Ge  Ge16  1  0.00006000  0.97074000  0.11030000  1.0
  Ge  Ge17  1  0.00000000  0.00000000  0.95952000  1.0
  Ge  Ge18  1  0.99992000  0.46926000  0.11014000  1.0
  Ge  Ge19  1  0.00000000  0.50000000  0.95952000  1.0
  Ge  Ge20  1  0.49962000  0.97090000  0.11028000  1.0
  Ge  Ge21  1  0.50000000  0.00000000  0.95952000  1.0
  Ge  Ge22  1  0.49937000  0.46862000  0.11023000  1.0
  Ge  Ge23  1  0.50000000  0.50000000  0.95952000  1.0
  Pb  Pb24  1  0.24933000  0.30044000  0.14842000  1.0
  Pb  Pb25  1  0.25000000  0.25000000  0.95952000  1.0
  Pb  Pb26  1  0.24973000  0.80366000  0.14958000  1.0
  Pb  Pb27  1  0.25000000  0.75000000  0.95952000  1.0
  Pb  Pb28  1  0.74956000  0.30452000  0.14972000  1.0
  Pb  Pb29  1  0.75000000  0.25000000  0.95952000  1.0
  Pb  Pb30  1  0.75002000  0.80631000  0.15011000  1.0
  Pb  Pb31  1  0.75000000  0.75000000  0.95952000  1.0
  C  C32  1  0.27999000  0.22537000  0.29559000  1.0
  O  O33  1  0.23446000  0.26464000  0.33320000  1.0
