# generated using pymatgen
data_Sb16CO
_symmetry_space_group_name_H-M   'P 1'
_cell_length_a   7.62927000
_cell_length_b   7.62927000
_cell_length_c   25.72200000
_cell_angle_alpha   90.00000000
_cell_angle_beta   90.00000000
_cell_angle_gamma   90.00000000
_symmetry_Int_Tables_number   1
_chemical_formula_structural   Sb16CO
_chemical_formula_sum   'Sb16 C1 O1'
_cell_volume   1497.16857757
_cell_formula_units_Z   1
loop_
 _symmetry_equiv_pos_site_id
 _symmetry_equiv_pos_as_xyz
  1  'x, y, z'
loop_
 _atom_site_type_symbol
 _atom_site_label
 _atom_site_symmetry_multiplicity
 _atom_site_fract_x
 _atom_site_fract_y
 _atom_site_fract_z
 _atom_site_occupancy
  Sb  Sb0  1  0.75000000  0.75000000  0.88877000  1.0
  Sb  Sb1  1  0.00000000  0.00000000  0.96292000  1.0
  Sb  Sb2  1  0.75000000  0.75000000  0.03708000  1.0
  Sb  Sb3  1  0.00000000  0.00000000  0.11123000  1.0
  Sb  Sb4  1  0.75000000  0.25000000  0.88877000  1.0
  Sb  Sb5  1  0.00000000  0.50000000  0.96292000  1.0
  Sb  Sb6  1  0.75000000  0.25000000  0.03708000  1.0
  Sb  Sb7  1  0.00000000  0.50000000  0.11123000  1.0
  Sb  Sb8  1  0.25000000  0.75000000  0.88877000  1.0
  Sb  Sb9  1  0.50000000  0.00000000  0.96292000  1.0
  Sb  Sb10  1  0.25000000  0.75000000  0.03708000  1.0
  Sb  Sb11  1  0.50000000  0.00000000  0.11123000  1.0
  Sb  Sb12  1  0.25000000  0.25000000  0.88877000  1.0
  Sb  Sb13  1  0.50000000  0.50000000  0.96292000  1.0
  Sb  Sb14  1  0.25000000  0.25000000  0.03708000  1.0
  Sb  Sb15  1  0.50000000  0.50000000  0.11123000  1.0
  C  C16  1  0.00000000  0.00000000  0.18509000  1.0
  O  O17  1  0.00000000  0.00000000  0.22980000  1.0
