# generated using pymatgen
data_Co16Pt16CO
_symmetry_space_group_name_H-M   'P 1'
_cell_length_a   7.47602000
_cell_length_b   7.70701000
_cell_length_c   25.78030000
_cell_angle_alpha   90.00000000
_cell_angle_beta   90.00000000
_cell_angle_gamma   90.00000000
_symmetry_Int_Tables_number   1
_chemical_formula_structural   Co16Pt16CO
_chemical_formula_sum   'Co16 Pt16 C1 O1'
_cell_volume   1485.40316134
_cell_formula_units_Z   1
loop_
 _symmetry_equiv_pos_site_id
 _symmetry_equiv_pos_as_xyz
  1  'x, y, z'
loop_
 _atom_site_type_symbol
 _atom_site_label
 _atom_site_symmetry_multiplicity
 _atom_site_fract_x
 _atom_site_fract_y
 _atom_site_fract_z
 _atom_site_occupancy
  Co  Co0  1  0.00000000  0.75000000  0.11211000  1.0
  Co  Co1  1  0.00000000  0.00000000  0.03737000  1.0
  Co  Co2  1  0.00000000  0.75000000  0.96263000  1.0
  Co  Co3  1  0.00000000  0.00000000  0.88789000  1.0
  Co  Co4  1  0.50000000  0.75000000  0.11211000  1.0
  Co  Co5  1  0.50000000  0.00000000  0.03737000  1.0
  Co  Co6  1  0.50000000  0.75000000  0.96263000  1.0
  Co  Co7  1  0.50000000  0.00000000  0.88789000  1.0
  Co  Co8  1  0.00000000  0.25000000  0.11211000  1.0
  Co  Co9  1  0.00000000  0.50000000  0.03737000  1.0
  Co  Co10  1  0.00000000  0.25000000  0.96263000  1.0
  Co  Co11  1  0.00000000  0.50000000  0.88789000  1.0
  Co  Co12  1  0.50000000  0.25000000  0.11211000  1.0
  Co  Co13  1  0.50000000  0.50000000  0.03737000  1.0
  Co  Co14  1  0.50000000  0.25000000  0.96263000  1.0
  Co  Co15  1  0.50000000  0.50000000  0.88789000  1.0
  Pt  Pt16  1  0.25000000  0.00000000  0.11211000  1.0
  Pt  Pt17  1  0.25000000  0.25000000  0.03737000  1.0
  Pt  Pt18  1  0.25000000  0.00000000  0.96263000  1.0
  Pt  Pt19  1  0.25000000  0.25000000  0.88789000  1.0
  Pt  Pt20  1  0.75000000  0.00000000  0.11211000  1.0
  Pt  Pt21  1  0.75000000  0.25000000  0.03737000  1.0
  Pt  Pt22  1  0.75000000  0.00000000  0.96263000  1.0
  Pt  Pt23  1  0.75000000  0.25000000  0.88789000  1.0
  Pt  Pt24  1  0.25000000  0.50000000  0.11211000  1.0
  Pt  Pt25  1  0.25000000  0.75000000  0.03737000  1.0
  Pt  Pt26  1  0.25000000  0.50000000  0.96263000  1.0
  Pt  Pt27  1  0.25000000  0.75000000  0.88789000  1.0
  Pt  Pt28  1  0.75000000  0.50000000  0.11211000  1.0
  Pt  Pt29  1  0.75000000  0.75000000  0.03737000  1.0
  Pt  Pt30  1  0.75000000  0.50000000  0.96263000  1.0
  Pt  Pt31  1  0.75000000  0.75000000  0.88789000  1.0
  C  C32  1  0.00000000  0.00000000  0.81419000  1.0
  O  O33  1  0.00000000  0.00000000  0.76959000  1.0
