data_image0
_chemical_formula_structural       Y16In16CO
_chemical_formula_sum              "Y16 In16 C1 O1"
_cell_length_a       7.55034
_cell_length_b       10.6778
_cell_length_c       28.0083
_cell_angle_alpha    90
_cell_angle_beta     90
_cell_angle_gamma    90

_space_group_name_H-M_alt    "P 1"
_space_group_IT_number       1

loop_
  _space_group_symop_operation_xyz
  'x, y, z'

loop_
  _atom_site_type_symbol
  _atom_site_label
  _atom_site_symmetry_multiplicity
  _atom_site_fract_x
  _atom_site_fract_y
  _atom_site_fract_z
  _atom_site_occupancy
  Y   Y1        1.0  0.25000  0.25000  0.85704  1.0000
  Y   Y2        1.0  0.25000  0.00000  0.95235  1.0000
  Y   Y3        1.0  0.25066  0.24946  0.04712  1.0000
  Y   Y4        1.0  0.24994  0.00308  0.14420  1.0000
  Y   Y5        1.0  0.25000  0.75000  0.85704  1.0000
  Y   Y6        1.0  0.25000  0.50000  0.95235  1.0000
  Y   Y7        1.0  0.24880  0.74957  0.04714  1.0000
  Y   Y8        1.0  0.25045  0.50312  0.14394  1.0000
  Y   Y9        1.0  0.75000  0.25000  0.85704  1.0000
  Y   Y10       1.0  0.75000  0.00000  0.95235  1.0000
  Y   Y11       1.0  0.74936  0.24946  0.04712  1.0000
  Y   Y12       1.0  0.75005  0.00308  0.14420  1.0000
  Y   Y13       1.0  0.75000  0.75000  0.85704  1.0000
  Y   Y14       1.0  0.75000  0.50000  0.95235  1.0000
  Y   Y15       1.0  0.75119  0.74957  0.04714  1.0000
  Y   Y16       1.0  0.74955  0.50310  0.14394  1.0000
  In  In1       1.0  0.00000  0.00000  0.85704  1.0000
  In  In2       1.0  0.00000  0.25000  0.95235  1.0000
  In  In3       1.0  0.00000  0.99941  0.04960  1.0000
  In  In4       1.0  0.99999  0.25553  0.14665  1.0000
  In  In5       1.0  0.00000  0.50000  0.85704  1.0000
  In  In6       1.0  0.00000  0.75000  0.95235  1.0000
  In  In7       1.0  0.00000  0.49915  0.04949  1.0000
  In  In8       1.0  0.99999  0.75481  0.14712  1.0000
  In  In9       1.0  0.50000  0.00000  0.85704  1.0000
  In  In10      1.0  0.50000  0.25000  0.95235  1.0000
  In  In11      1.0  0.50000  0.99917  0.04948  1.0000
  In  In12      1.0  0.50001  0.25357  0.14717  1.0000
  In  In13      1.0  0.50000  0.50000  0.85704  1.0000
  In  In14      1.0  0.50000  0.75000  0.95235  1.0000
  In  In15      1.0  0.50000  0.49946  0.04932  1.0000
  In  In16      1.0  0.50000  0.75323  0.14676  1.0000
  C   C1        1.0  0.00000  0.19149  0.29982  1.0000
  O   O1        1.0  0.00002  0.27846  0.32321  1.0000
