# generated using pymatgen
data_Y16In16CO
_symmetry_space_group_name_H-M   Pm
_cell_length_a   10.67780000
_cell_length_b   7.55034000
_cell_length_c   28.00830000
_cell_angle_alpha   90.00000000
_cell_angle_beta   90.00000000
_cell_angle_gamma   90.00000000
_symmetry_Int_Tables_number   6
_chemical_formula_structural   Y16In16CO
_chemical_formula_sum   'Y16 In16 C1 O1'
_cell_volume   2258.05772713
_cell_formula_units_Z   1
loop_
 _symmetry_equiv_pos_site_id
 _symmetry_equiv_pos_as_xyz
  1  'x, y, z'
  2  'x, -y, z'
loop_
 _atom_site_type_symbol
 _atom_site_label
 _atom_site_symmetry_multiplicity
 _atom_site_fract_x
 _atom_site_fract_y
 _atom_site_fract_z
 _atom_site_occupancy
  Y  Y0  2  0.00000000  0.25000000  0.95235000  1.0
  Y  Y1  2  0.00264000  0.25016000  0.14440000  1.0
  Y  Y2  2  0.25000000  0.25000000  0.85704000  1.0
  Y  Y3  2  0.25045000  0.25000000  0.04728000  1.0
  Y  Y4  2  0.50000000  0.25000000  0.95235000  1.0
  Y  Y5  2  0.50267000  0.25038000  0.14407000  1.0
  Y  Y6  2  0.75000000  0.25000000  0.85704000  1.0
  Y  Y7  2  0.75057000  0.25011000  0.04717000  1.0
  In  In8  1  0.00000000  0.00000000  0.85704000  1.0
  In  In9  1  0.00000000  0.50000000  0.85704000  1.0
  In  In10  1  0.00041000  0.00000000  0.04962000  1.0
  In  In11  1  0.00064000  0.50000000  0.04955000  1.0
  In  In12  1  0.25000000  0.00000000  0.95235000  1.0
  In  In13  1  0.25000000  0.50000000  0.95235000  1.0
  In  In14  1  0.25292000  0.50000000  0.14724000  1.0
  In  In15  1  0.25351000  0.00000000  0.14707000  1.0
  In  In16  1  0.50000000  0.00000000  0.85704000  1.0
  In  In17  1  0.50000000  0.50000000  0.85704000  1.0
  In  In18  1  0.50037000  0.50000000  0.04935000  1.0
  In  In19  1  0.50054000  0.00000000  0.04946000  1.0
  In  In20  1  0.75000000  0.00000000  0.95235000  1.0
  In  In21  1  0.75000000  0.50000000  0.95235000  1.0
  In  In22  1  0.75318000  0.50000000  0.14722000  1.0
  In  In23  1  0.75332000  0.00000000  0.14663000  1.0
  C  C24  1  0.18014000  0.00000000  0.29949000  1.0
  O  O25  1  0.27844000  0.00000000  0.31492000  1.0
