# generated using pymatgen
data_Fe16Co8Ge8CO
_symmetry_space_group_name_H-M   P1
_cell_length_a   5.77744000
_cell_length_b   8.17053000
_cell_length_c   26.12790000
_cell_angle_alpha   90.00000000
_cell_angle_beta   90.00000000
_cell_angle_gamma   90.00000000
_symmetry_Int_Tables_number   1
_chemical_formula_structural   Fe16Co8Ge8CO
_chemical_formula_sum   'Fe16 Co8 Ge8 C1 O1'
_cell_volume   1233.36090504
_cell_formula_units_Z   1
loop_
 _symmetry_equiv_pos_site_id
 _symmetry_equiv_pos_as_xyz
  1  'x, y, z'
loop_
 _atom_site_type_symbol
 _atom_site_label
 _atom_site_symmetry_multiplicity
 _atom_site_fract_x
 _atom_site_fract_y
 _atom_site_fract_z
 _atom_site_occupancy
  Fe  Fe0  1  0.23800000  0.50002000  0.11300000  1.0
  Fe  Fe1  1  0.24539000  0.74023000  0.04102000  1.0
  Fe  Fe2  1  0.24552000  0.25983000  0.04103000  1.0
  Fe  Fe3  1  0.25000000  0.00000000  0.96091000  1.0
  Fe  Fe4  1  0.25000000  0.25000000  0.88273000  1.0
  Fe  Fe5  1  0.25000000  0.50000000  0.96091000  1.0
  Fe  Fe6  1  0.25000000  0.75000000  0.88273000  1.0
  Fe  Fe7  1  0.26902000  0.00001000  0.12177000  1.0
  Fe  Fe8  1  0.74875000  0.00002000  0.11548000  1.0
  Fe  Fe9  1  0.75000000  0.00000000  0.96091000  1.0
  Fe  Fe10  1  0.75000000  0.25000000  0.88273000  1.0
  Fe  Fe11  1  0.75000000  0.50000000  0.96091000  1.0
  Fe  Fe12  1  0.75000000  0.75000000  0.88273000  1.0
  Fe  Fe13  1  0.75946000  0.24058000  0.04126000  1.0
  Fe  Fe14  1  0.75949000  0.75943000  0.04130000  1.0
  Fe  Fe15  1  0.77489000  0.49999000  0.11737000  1.0
  Co  Co16  1  0.00000000  0.00000000  0.88273000  1.0
  Co  Co17  1  0.00000000  0.50000000  0.88273000  1.0
  Co  Co18  1  0.01782000  0.00032000  0.04385000  1.0
  Co  Co19  1  0.50000000  0.25000000  0.96091000  1.0
  Co  Co20  1  0.50000000  0.75000000  0.96091000  1.0
  Co  Co21  1  0.51483000  0.73805000  0.11255000  1.0
  Co  Co22  1  0.51498000  0.26189000  0.11253000  1.0
  Co  Co23  1  0.97530000  0.50009000  0.03510000  1.0
  Ge  Ge24  1  0.00000000  0.25000000  0.96091000  1.0
  Ge  Ge25  1  0.00000000  0.75000000  0.96091000  1.0
  Ge  Ge26  1  0.01757000  0.76274000  0.12678000  1.0
  Ge  Ge27  1  0.01763000  0.23737000  0.12678000  1.0
  Ge  Ge28  1  0.48384000  0.99999000  0.03993000  1.0
  Ge  Ge29  1  0.50000000  0.00000000  0.88273000  1.0
  Ge  Ge30  1  0.50000000  0.50000000  0.88273000  1.0
  Ge  Ge31  1  0.51144000  0.50000000  0.03903000  1.0
  C  C32  1  0.39586000  0.00006000  0.18301000  1.0
  O  O33  1  0.46571000  0.00012000  0.22499000  1.0
