# generated using pymatgen
data_Li8In8Ir8Pd8CO
_symmetry_space_group_name_H-M   'P 1'
_cell_length_a   8.95988000
_cell_length_b   6.33559000
_cell_length_c   26.71990000
_cell_angle_alpha   90.00000000
_cell_angle_beta   90.00000000
_cell_angle_gamma   90.00000000
_symmetry_Int_Tables_number   1
_chemical_formula_structural   Li8In8Ir8Pd8CO
_chemical_formula_sum   'Li8 In8 Ir8 Pd8 C1 O1'
_cell_volume   1516.78521356
_cell_formula_units_Z   1
loop_
 _symmetry_equiv_pos_site_id
 _symmetry_equiv_pos_as_xyz
  1  'x, y, z'
loop_
 _atom_site_type_symbol
 _atom_site_label
 _atom_site_symmetry_multiplicity
 _atom_site_fract_x
 _atom_site_fract_y
 _atom_site_fract_z
 _atom_site_occupancy
  Li  Li0  1  0.00000000  0.00000000  0.04192000  1.0
  Li  Li1  1  0.50000000  0.00000000  0.04192000  1.0
  Li  Li2  1  0.25000000  0.50000000  0.12575000  1.0
  Li  Li3  1  0.75000000  0.50000000  0.12575000  1.0
  Li  Li4  1  0.50000000  0.00467000  0.86807000  1.0
  Li  Li5  1  0.00000000  0.00074000  0.86547000  1.0
  Li  Li6  1  0.75214000  0.49786000  0.95954000  1.0
  Li  Li7  1  0.24786000  0.49786000  0.95954000  1.0
  In  In8  1  0.75000000  0.00000000  0.12575000  1.0
  In  In9  1  0.25000000  0.00000000  0.12575000  1.0
  In  In10  1  0.50000000  0.50000000  0.04192000  1.0
  In  In11  1  0.00000000  0.50000000  0.04192000  1.0
  In  In12  1  0.25117000  0.99812000  0.95974000  1.0
  In  In13  1  0.74883000  0.99812000  0.95974000  1.0
  In  In14  1  0.00000000  0.49352000  0.86827000  1.0
  In  In15  1  0.50000000  0.49237000  0.86570000  1.0
  Ir  Ir16  1  0.75000000  0.25000000  0.04192000  1.0
  Ir  Ir17  1  0.25000000  0.25000000  0.04192000  1.0
  Ir  Ir18  1  0.00000000  0.75000000  0.12575000  1.0
  Ir  Ir19  1  0.50000000  0.75000000  0.12575000  1.0
  Ir  Ir20  1  0.25091000  0.26081000  0.88103000  1.0
  Ir  Ir21  1  0.74909000  0.26081000  0.88103000  1.0
  Ir  Ir22  1  0.50000000  0.74430000  0.95492000  1.0
  Ir  Ir23  1  0.00000000  0.74878000  0.95536000  1.0
  Pd  Pd24  1  0.75000000  0.75000000  0.04192000  1.0
  Pd  Pd25  1  0.25000000  0.75000000  0.04192000  1.0
  Pd  Pd26  1  0.00000000  0.25000000  0.12575000  1.0
  Pd  Pd27  1  0.50000000  0.25000000  0.12575000  1.0
  Pd  Pd28  1  0.25191000  0.74038000  0.87963000  1.0
  Pd  Pd29  1  0.74809000  0.74038000  0.87963000  1.0
  Pd  Pd30  1  0.50000000  0.25348000  0.95665000  1.0
  Pd  Pd31  1  0.00000000  0.24870000  0.95702000  1.0
  C  C32  1  0.00000000  0.99529000  0.78451000  1.0
  O  O33  1  0.00000000  0.00513000  0.74199000  1.0
