# generated using pymatgen
data_GaCo
_symmetry_space_group_name_H-M   Pmm2
_cell_length_a   2.88470500
_cell_length_b   4.07959000
_cell_length_c   26.11940000
_cell_angle_alpha   90.00000000
_cell_angle_beta   90.00000000
_cell_angle_gamma   90.00000000
_symmetry_Int_Tables_number   25
_chemical_formula_structural   GaCo
_chemical_formula_sum   'Ga4 Co4'
_cell_volume   307.38390404
_cell_formula_units_Z   4
loop_
 _symmetry_equiv_pos_site_id
 _symmetry_equiv_pos_as_xyz
  1  'x, y, z'
  2  '-x, -y, z'
  3  '-x, y, z'
  4  'x, -y, z'
loop_
 _atom_site_type_symbol
 _atom_site_label
 _atom_site_symmetry_multiplicity
 _atom_site_fract_x
 _atom_site_fract_y
 _atom_site_fract_z
 _atom_site_occupancy
  Ga  Ga0  1  0.50000000  0.00000000  0.12468500  1.0
  Ga  Ga1  1  0.50000000  0.00000000  0.96095000  1.0
  Ga  Ga2  1  0.50000000  0.50000000  0.03929000  1.0
  Ga  Ga3  1  0.50000000  0.50000000  0.88286000  1.0
  Co  Co4  1  0.00000000  0.00000000  0.03775000  1.0
  Co  Co5  1  0.00000000  0.00000000  0.88286000  1.0
  Co  Co6  1  0.00000000  0.50000000  0.11378000  1.0
  Co  Co7  1  0.00000000  0.50000000  0.96095000  1.0
