# generated using pymatgen
data_Zr4In4Au8CO
_symmetry_space_group_name_H-M   'P 1'
_cell_length_a   6.87009000
_cell_length_b   6.87009000
_cell_length_c   25.15260000
_cell_angle_alpha   90.00000000
_cell_angle_beta   90.00000000
_cell_angle_gamma   90.00000000
_symmetry_Int_Tables_number   1
_chemical_formula_structural   Zr4In4Au8CO
_chemical_formula_sum   'Zr4 In4 Au8 C1 O1'
_cell_volume   1187.15585085
_cell_formula_units_Z   1
loop_
 _symmetry_equiv_pos_site_id
 _symmetry_equiv_pos_as_xyz
  1  'x, y, z'
loop_
 _atom_site_type_symbol
 _atom_site_label
 _atom_site_symmetry_multiplicity
 _atom_site_fract_x
 _atom_site_fract_y
 _atom_site_fract_z
 _atom_site_occupancy
  Zr  Zr0  1  0.00000000  0.99998000  0.90621000  1.0
  Zr  Zr1  1  0.50000000  0.50003000  0.90620000  1.0
  Zr  Zr2  1  0.00000000  0.50000000  0.03414000  1.0
  Zr  Zr3  1  0.50000000  0.00000000  0.03414000  1.0
  In  In4  1  0.00000000  0.00000000  0.03414000  1.0
  In  In5  1  0.00000000  0.50000000  0.88517000  1.0
  In  In6  1  0.50000000  0.99996000  0.88330000  1.0
  In  In7  1  0.50000000  0.50000000  0.03414000  1.0
  Au  Au8  1  0.25052000  0.24949000  0.96280000  1.0
  Au  Au9  1  0.74999000  0.75000000  0.10243000  1.0
  Au  Au10  1  0.25050000  0.75049000  0.96282000  1.0
  Au  Au11  1  0.74999000  0.25000000  0.10243000  1.0
  Au  Au12  1  0.74950000  0.75049000  0.96282000  1.0
  Au  Au13  1  0.25001000  0.25000000  0.10243000  1.0
  Au  Au14  1  0.74948000  0.24949000  0.96280000  1.0
  Au  Au15  1  0.25001000  0.75000000  0.10243000  1.0
  C  C16  1  0.50000000  0.00042000  0.72542000  1.0
  O  O17  1  0.50000000  0.99974000  0.68033000  1.0
