# generated using pymatgen
data_Zr4In4Au8CO
_symmetry_space_group_name_H-M   Pm
_cell_length_a   6.87009000
_cell_length_b   6.87009000
_cell_length_c   25.15260000
_cell_angle_alpha   90.00000000
_cell_angle_beta   90.00000000
_cell_angle_gamma   90.00000000
_symmetry_Int_Tables_number   6
_chemical_formula_structural   Zr4In4Au8CO
_chemical_formula_sum   'Zr4 In4 Au8 C1 O1'
_cell_volume   1187.15585085
_cell_formula_units_Z   1
loop_
 _symmetry_equiv_pos_site_id
 _symmetry_equiv_pos_as_xyz
  1  'x, y, z'
  2  'x, -y, z'
loop_
 _atom_site_type_symbol
 _atom_site_label
 _atom_site_symmetry_multiplicity
 _atom_site_fract_x
 _atom_site_fract_y
 _atom_site_fract_z
 _atom_site_occupancy
  Zr  Zr0  1  0.00000000  0.50000000  0.96586000  1.0
  Zr  Zr1  1  0.50000000  0.00000000  0.96586000  1.0
  Zr  Zr2  1  0.50003000  0.50000000  0.09380000  1.0
  Zr  Zr3  1  0.99998000  0.00000000  0.09379000  1.0
  In  In4  1  0.00000000  0.00000000  0.96586000  1.0
  In  In5  1  0.50000000  0.00000000  0.11483000  1.0
  In  In6  1  0.50000000  0.50000000  0.96586000  1.0
  In  In7  1  0.99996000  0.50000000  0.11670000  1.0
  Au  Au8  2  0.24949000  0.25052000  0.03720000  1.0
  Au  Au9  2  0.25000000  0.25001000  0.89757000  1.0
  Au  Au10  2  0.75000000  0.25001000  0.89757000  1.0
  Au  Au11  2  0.75049000  0.25050000  0.03718000  1.0
  C  C12  1  0.00042000  0.50000000  0.27458000  1.0
  O  O13  1  0.99974000  0.50000000  0.31967000  1.0
