# generated using pymatgen
data_Li4Mg4Sb4Pd4CO
_symmetry_space_group_name_H-M   'P 1'
_cell_length_a   6.57147000
_cell_length_b   6.57147000
_cell_length_c   24.92860000
_cell_angle_alpha   90.00000000
_cell_angle_beta   90.00000000
_cell_angle_gamma   90.00000000
_symmetry_Int_Tables_number   1
_chemical_formula_structural   Li4Mg4Sb4Pd4CO
_chemical_formula_sum   'Li4 Mg4 Sb4 Pd4 C1 O1'
_cell_volume   1076.52209586
_cell_formula_units_Z   1
loop_
 _symmetry_equiv_pos_site_id
 _symmetry_equiv_pos_as_xyz
  1  'x, y, z'
loop_
 _atom_site_type_symbol
 _atom_site_label
 _atom_site_symmetry_multiplicity
 _atom_site_fract_x
 _atom_site_fract_y
 _atom_site_fract_z
 _atom_site_occupancy
  Li  Li0  1  0.00002000  0.99998000  0.89117000  1
  Li  Li1  1  0.50000000  0.99998000  0.03295000  1
  Li  Li2  1  0.00002000  0.50000000  0.03295000  1
  Li  Li3  1  0.50001000  0.49999000  0.89168000  1
  Mg  Mg4  1  0.24960500  0.75039500  0.97011000  1
  Mg  Mg5  1  0.75000000  0.74998000  0.09885000  1
  Mg  Mg6  1  0.25002000  0.25000000  0.09885000  1
  Mg  Mg7  1  0.75049500  0.24950500  0.97009000  1
  Sb  Sb8  1  0.25089000  0.25088000  0.96013000  1
  Sb  Sb9  1  0.75001000  0.24999000  0.09885000  1
  Sb  Sb10  1  0.25001000  0.74999000  0.09885000  1
  Sb  Sb11  1  0.74912000  0.74911000  0.96013000  1
  Pd  Pd12  1  0.49999000  0.99999000  0.91277000  1
  Pd  Pd13  1  0.00001000  0.99999000  0.03295000  1
  Pd  Pd14  1  0.50001000  0.49999000  0.03295000  1
  Pd  Pd15  1  0.00001000  0.50001000  0.91277000  1
  C  C16  1  0.99999000  0.00001000  0.80680000  1
  O  O17  1  0.99999500  0.00000500  0.76110000  1
