# generated using pymatgen
data_Li4Mg4Sb4Pd4CO
_symmetry_space_group_name_H-M   Cm
_cell_length_a   9.29346200
_cell_length_b   9.29346200
_cell_length_c   24.92860000
_cell_angle_alpha   90.00000000
_cell_angle_beta   90.00000000
_cell_angle_gamma   90.00000000
_symmetry_Int_Tables_number   8
_chemical_formula_structural   Li4Mg4Sb4Pd4CO
_chemical_formula_sum   'Li8 Mg8 Sb8 Pd8 C2 O2'
_cell_volume   2153.04419172
_cell_formula_units_Z   2
loop_
 _symmetry_equiv_pos_site_id
 _symmetry_equiv_pos_as_xyz
  1  'x, y, z'
  2  'x, -y, z'
  3  'x+1/2, y+1/2, z'
  4  'x+1/2, -y+1/2, z'
loop_
 _atom_site_type_symbol
 _atom_site_label
 _atom_site_symmetry_multiplicity
 _atom_site_fract_x
 _atom_site_fract_y
 _atom_site_fract_z
 _atom_site_occupancy
  Li  Li0  4  0.25001000  0.24999000  0.96705000  1.0
  Li  Li1  2  0.00001000  0.50000000  0.10832000  1.0
  Li  Li2  2  0.00002000  0.00000000  0.10883000  1.0
  Mg  Mg3  4  0.00001000  0.25001000  0.90115000  1.0
  Mg  Mg4  2  0.24960500  0.00000000  0.02989000  1.0
  Mg  Mg5  2  0.25049500  0.50000000  0.02991000  1.0
  Sb  Sb6  4  0.00000500  0.25088500  0.03987000  1.0
  Sb  Sb7  2  0.25001000  0.00000000  0.90115000  1.0
  Sb  Sb8  2  0.25001000  0.50000000  0.90115000  1.0
  Pd  Pd9  4  0.25000000  0.24999000  0.08723000  1.0
  Pd  Pd10  2  0.00001000  0.00000000  0.96705000  1.0
  Pd  Pd11  2  0.00001000  0.50000000  0.96705000  1.0
  C  C12  2  0.49999000  0.50000000  0.19320000  1.0
  O  O13  2  0.49999500  0.50000000  0.23890000  1.0
