data_image0
_chemical_formula_structural       Li16Ag16CO
_chemical_formula_sum              "Li16 Ag16 C1 O1"
_cell_length_a       6.44966
_cell_length_b       9.1212
_cell_length_c       26.8409
_cell_angle_alpha    90
_cell_angle_beta     90
_cell_angle_gamma    90

_space_group_name_H-M_alt    "P 1"
_space_group_IT_number       1

loop_
  _space_group_symop_operation_xyz
  'x, y, z'

loop_
  _atom_site_type_symbol
  _atom_site_label
  _atom_site_symmetry_multiplicity
  _atom_site_fract_x
  _atom_site_fract_y
  _atom_site_fract_z
  _atom_site_occupancy
  Li  Li1       1.0  0.25000  0.25000  0.87257  1.0000
  Li  Li2       1.0  0.25000  0.00000  0.95752  1.0000
  Li  Li3       1.0  0.24380  0.25000  0.04104  1.0000
  Li  Li4       1.0  0.25450  0.99912  0.12950  1.0000
  Li  Li5       1.0  0.25000  0.75000  0.87257  1.0000
  Li  Li6       1.0  0.25000  0.50000  0.95752  1.0000
  Li  Li7       1.0  0.24838  0.75000  0.04127  1.0000
  Li  Li8       1.0  0.25450  0.50087  0.12949  1.0000
  Li  Li9       1.0  0.75000  0.25000  0.87257  1.0000
  Li  Li10      1.0  0.75000  0.00000  0.95752  1.0000
  Li  Li11      1.0  0.75620  0.25000  0.04104  1.0000
  Li  Li12      1.0  0.74550  0.99912  0.12950  1.0000
  Li  Li13      1.0  0.75000  0.75000  0.87257  1.0000
  Li  Li14      1.0  0.75000  0.50000  0.95752  1.0000
  Li  Li15      1.0  0.75162  0.75000  0.04127  1.0000
  Li  Li16      1.0  0.74550  0.50087  0.12949  1.0000
  Ag  Ag1       1.0  0.00000  0.00000  0.87257  1.0000
  Ag  Ag2       1.0  0.00000  0.25000  0.95752  1.0000
  Ag  Ag3       1.0  1.00000  0.00298  0.04471  1.0000
  Ag  Ag4       1.0  1.00000  0.25000  0.12382  1.0000
  Ag  Ag5       1.0  0.00000  0.50000  0.87257  1.0000
  Ag  Ag6       1.0  0.00000  0.75000  0.95752  1.0000
  Ag  Ag7       1.0  0.00000  0.49702  0.04471  1.0000
  Ag  Ag8       1.0  0.00000  0.75000  0.12278  1.0000
  Ag  Ag9       1.0  0.50000  0.00000  0.87257  1.0000
  Ag  Ag10      1.0  0.50000  0.25000  0.95752  1.0000
  Ag  Ag11      1.0  0.50000  0.00089  0.04215  1.0000
  Ag  Ag12      1.0  0.50000  0.25000  0.12006  1.0000
  Ag  Ag13      1.0  0.50000  0.50000  0.87257  1.0000
  Ag  Ag14      1.0  0.50000  0.75000  0.95752  1.0000
  Ag  Ag15      1.0  0.50000  0.49911  0.04215  1.0000
  Ag  Ag16      1.0  0.50000  0.75000  0.12224  1.0000
  C   C1        1.0  0.00000  0.25000  0.20797  1.0000
  O   O1        1.0  1.00000  0.25000  0.25077  1.0000
