# generated using pymatgen
data_Li8Sc8Ge8Pd8CO
_symmetry_space_group_name_H-M   'P 1'
_cell_length_a   6.30999000
_cell_length_b   8.92368000
_cell_length_c   26.69280000
_cell_angle_alpha   90.00000000
_cell_angle_beta   90.00000000
_cell_angle_gamma   90.00000000
_symmetry_Int_Tables_number   1
_chemical_formula_structural   Li8Sc8Ge8Pd8CO
_chemical_formula_sum   'Li8 Sc8 Ge8 Pd8 C1 O1'
_cell_volume   1503.02703275
_cell_formula_units_Z   1
loop_
 _symmetry_equiv_pos_site_id
 _symmetry_equiv_pos_as_xyz
  1  'x, y, z'
loop_
 _atom_site_type_symbol
 _atom_site_label
 _atom_site_symmetry_multiplicity
 _atom_site_fract_x
 _atom_site_fract_y
 _atom_site_fract_z
 _atom_site_occupancy
  Li  Li0  1  0.75000000  0.00000000  0.95821000  1.0
  Li  Li1  1  0.75000000  0.50000000  0.95821000  1.0
  Li  Li2  1  0.25000000  0.25000000  0.87463000  1.0
  Li  Li3  1  0.25000000  0.75000000  0.87463000  1.0
  Li  Li4  1  0.59253000  0.49910000  0.17299000  1.0
  Li  Li5  1  0.59247000  0.00083000  0.17300000  1.0
  Li  Li6  1  0.24168000  0.74997000  0.04484000  1.0
  Li  Li7  1  0.24542000  0.24997000  0.04360000  1.0
  Sc  Sc8  1  0.00000000  0.25000000  0.95821000  1.0
  Sc  Sc9  1  0.00000000  0.75000000  0.95821000  1.0
  Sc  Sc10  1  0.50000000  0.50000000  0.87463000  1.0
  Sc  Sc11  1  0.50000000  0.00000000  0.87463000  1.0
  Sc  Sc12  1  0.96052000  0.74998000  0.12546000  1.0
  Sc  Sc13  1  0.96142000  0.24995000  0.12486000  1.0
  Sc  Sc14  1  0.50765000  0.99835000  0.04797000  1.0
  Sc  Sc15  1  0.50763000  0.50160000  0.04797000  1.0
  Ge  Ge16  1  0.00000000  0.00000000  0.87463000  1.0
  Ge  Ge17  1  0.00000000  0.50000000  0.87463000  1.0
  Ge  Ge18  1  0.50000000  0.75000000  0.95821000  1.0
  Ge  Ge19  1  0.50000000  0.25000000  0.95821000  1.0
  Ge  Ge20  1  0.99029000  0.49929000  0.04184000  1.0
  Ge  Ge21  1  0.99028000  0.00065000  0.04184000  1.0
  Ge  Ge22  1  0.49592000  0.24996000  0.12517000  1.0
  Ge  Ge23  1  0.49390000  0.74997000  0.12630000  1.0
  Pd  Pd24  1  0.25000000  0.00000000  0.95821000  1.0
  Pd  Pd25  1  0.25000000  0.50000000  0.95821000  1.0
  Pd  Pd26  1  0.75000000  0.25000000  0.87463000  1.0
  Pd  Pd27  1  0.75000000  0.75000000  0.87463000  1.0
  Pd  Pd28  1  0.22580000  0.50300000  0.12171000  1.0
  Pd  Pd29  1  0.22581000  0.99694000  0.12169000  1.0
  Pd  Pd30  1  0.75107000  0.74996000  0.03941000  1.0
  Pd  Pd31  1  0.74439000  0.24997000  0.03807000  1.0
  C  C32  1  0.09250000  0.25054000  0.20509000  1.0
  O  O33  1  0.15994000  0.25062000  0.24543000  1.0
