# generated using pymatgen
data_Cu8Ni16Sb8CO
_symmetry_space_group_name_H-M   P1
_cell_length_a   6.01864000
_cell_length_b   8.51164000
_cell_length_c   26.38370000
_cell_angle_alpha   90.00000000
_cell_angle_beta   90.00000000
_cell_angle_gamma   90.00000000
_symmetry_Int_Tables_number   1
_chemical_formula_structural   Cu8Ni16Sb8CO
_chemical_formula_sum   'Cu8 Ni16 Sb8 C1 O1'
_cell_volume   1351.59729550
_cell_formula_units_Z   1
loop_
 _symmetry_equiv_pos_site_id
 _symmetry_equiv_pos_as_xyz
  1  'x, y, z'
loop_
 _atom_site_type_symbol
 _atom_site_label
 _atom_site_symmetry_multiplicity
 _atom_site_fract_x
 _atom_site_fract_y
 _atom_site_fract_z
 _atom_site_occupancy
  Cu  Cu0  1  0.00000000  0.00000000  0.87902000  1.0
  Cu  Cu1  1  0.00000000  0.50000000  0.87902000  1.0
  Cu  Cu2  1  0.00003000  0.00674000  0.03504000  1.0
  Cu  Cu3  1  0.50000000  0.25000000  0.95967000  1.0
  Cu  Cu4  1  0.50000000  0.75000000  0.95967000  1.0
  Cu  Cu5  1  0.50003000  0.24992000  0.12745000  1.0
  Cu  Cu6  1  0.50005000  0.75009000  0.11994000  1.0
  Cu  Cu7  1  0.99999000  0.49320000  0.03505000  1.0
  Ni  Ni8  1  0.22544000  0.75026000  0.04551000  1.0
  Ni  Ni9  1  0.22638000  0.99370000  0.11237000  1.0
  Ni  Ni10  1  0.22652000  0.50606000  0.11233000  1.0
  Ni  Ni11  1  0.25000000  0.00000000  0.95967000  1.0
  Ni  Ni12  1  0.25000000  0.25000000  0.87902000  1.0
  Ni  Ni13  1  0.25000000  0.50000000  0.95967000  1.0
  Ni  Ni14  1  0.25000000  0.75000000  0.87902000  1.0
  Ni  Ni15  1  0.25353000  0.24986000  0.04716000  1.0
  Ni  Ni16  1  0.74651000  0.24990000  0.04715000  1.0
  Ni  Ni17  1  0.75000000  0.00000000  0.95967000  1.0
  Ni  Ni18  1  0.75000000  0.25000000  0.87902000  1.0
  Ni  Ni19  1  0.75000000  0.50000000  0.95967000  1.0
  Ni  Ni20  1  0.75000000  0.75000000  0.87902000  1.0
  Ni  Ni21  1  0.77338000  0.50615000  0.11236000  1.0
  Ni  Ni22  1  0.77354000  0.99384000  0.11236000  1.0
  Ni  Ni23  1  0.77445000  0.74989000  0.04565000  1.0
  Sb  Sb24  1  0.00000000  0.25000000  0.95967000  1.0
  Sb  Sb25  1  0.00000000  0.75000000  0.95967000  1.0
  Sb  Sb26  1  0.00001000  0.74990000  0.13847000  1.0
  Sb  Sb27  1  0.00004000  0.24999000  0.13028000  1.0
  Sb  Sb28  1  0.50000000  0.00000000  0.87902000  1.0
  Sb  Sb29  1  0.50000000  0.50000000  0.87902000  1.0
  Sb  Sb30  1  0.50000000  0.50446000  0.03983000  1.0
  Sb  Sb31  1  0.50006000  0.99550000  0.03984000  1.0
  C  C32  1  0.50001000  0.24998000  0.19872000  1.0
  O  O33  1  0.50002000  0.25003000  0.24214000  1.0
