# generated using pymatgen
data_Li4Sc4Al4In4C
_symmetry_space_group_name_H-M   'P 1'
_cell_length_a   8.49254000
_cell_length_b   6.04255000
_cell_length_c   24.52830000
_cell_angle_alpha   90.00000000
_cell_angle_beta   90.00000000
_cell_angle_gamma   90.00000000
_symmetry_Int_Tables_number   1
_chemical_formula_structural   Li4Sc4Al4In4C
_chemical_formula_sum   'Li4 Sc4 Al4 In4 C1'
_cell_volume   1258.70890035
_cell_formula_units_Z   1
loop_
 _symmetry_equiv_pos_site_id
 _symmetry_equiv_pos_as_xyz
  1  'x, y, z'
loop_
 _atom_site_type_symbol
 _atom_site_label
 _atom_site_symmetry_multiplicity
 _atom_site_fract_x
 _atom_site_fract_y
 _atom_site_fract_z
 _atom_site_occupancy
  Li  Li0  1  0.75001000  0.74006000  0.03077000  1.0
  Li  Li1  1  0.66397000  0.19143000  0.89922000  1.0
  Li  Li2  1  0.24999000  0.74006000  0.03077000  1.0
  Li  Li3  1  0.33603000  0.19143000  0.89922000  1.0
  Sc  Sc4  1  0.75001000  0.24006000  0.03077000  1.0
  Sc  Sc5  1  0.70176000  0.71898000  0.90580000  1.0
  Sc  Sc6  1  0.24999000  0.24006000  0.03077000  1.0
  Sc  Sc7  1  0.29824000  0.71898000  0.90580000  1.0
  Al  Al8  1  0.50000000  0.00000000  0.09231000  1.0
  Al  Al9  1  0.50000000  0.46915000  0.97423000  1.0
  Al  Al10  1  0.00000000  1.00000000  0.09231000  1.0
  Al  Al11  1  0.00000000  0.48280000  0.96350000  1.0
  In  In12  1  0.50000000  0.50000000  0.09231000  1.0
  In  In13  1  0.50000000  0.95993000  0.98181000  1.0
  In  In14  1  0.00000000  0.50000000  0.09231000  1.0
  In  In15  1  0.00000000  0.97734000  0.95943000  1.0
  C  C16  1  0.50000000  0.90980000  0.88823000  1.0
