# generated using pymatgen
data_Li4Sc4Al4In4C
_symmetry_space_group_name_H-M   Pm
_cell_length_a   6.04255000
_cell_length_b   8.49254000
_cell_length_c   24.52830000
_cell_angle_alpha   90.00000000
_cell_angle_beta   90.00000000
_cell_angle_gamma   90.00000000
_symmetry_Int_Tables_number   6
_chemical_formula_structural   Li4Sc4Al4In4C
_chemical_formula_sum   'Li4 Sc4 Al4 In4 C1'
_cell_volume   1258.70890035
_cell_formula_units_Z   1
loop_
 _symmetry_equiv_pos_site_id
 _symmetry_equiv_pos_as_xyz
  1  'x, y, z'
  2  'x, -y, z'
loop_
 _atom_site_type_symbol
 _atom_site_label
 _atom_site_symmetry_multiplicity
 _atom_site_fract_x
 _atom_site_fract_y
 _atom_site_fract_z
 _atom_site_occupancy
  Li  Li0  2  0.19143000  0.33603000  0.10078000  1.0
  Li  Li1  2  0.74006000  0.24999000  0.96923000  1.0
  Sc  Sc2  2  0.24006000  0.24999000  0.96923000  1.0
  Sc  Sc3  2  0.71898000  0.29824000  0.09420000  1.0
  Al  Al4  1  -0.00000000  0.00000000  0.90769000  1.0
  Al  Al5  1  0.00000000  0.50000000  0.90769000  1.0
  Al  Al6  1  0.46915000  0.50000000  0.02577000  1.0
  Al  Al7  1  0.48280000  0.00000000  0.03650000  1.0
  In  In8  1  0.50000000  0.00000000  0.90769000  1.0
  In  In9  1  0.50000000  0.50000000  0.90769000  1.0
  In  In10  1  0.95993000  0.50000000  0.01819000  1.0
  In  In11  1  0.97734000  0.00000000  0.04057000  1.0
  C  C12  1  0.90980000  0.50000000  0.11177000  1.0
