# generated using pymatgen
data_Li8Zr8Ge8Pd8CO
_symmetry_space_group_name_H-M   'P 1'
_cell_length_a   9.16240000
_cell_length_b   6.47880000
_cell_length_c   26.87180000
_cell_angle_alpha   90.00000000
_cell_angle_beta   90.00000000
_cell_angle_gamma   90.00000000
_symmetry_Int_Tables_number   1
_chemical_formula_structural   Li8Zr8Ge8Pd8CO
_chemical_formula_sum   'Li8 Zr8 Ge8 Pd8 C1 O1'
_cell_volume   1595.14651626
_cell_formula_units_Z   1
loop_
 _symmetry_equiv_pos_site_id
 _symmetry_equiv_pos_as_xyz
  1  'x, y, z'
loop_
 _atom_site_type_symbol
 _atom_site_label
 _atom_site_symmetry_multiplicity
 _atom_site_fract_x
 _atom_site_fract_y
 _atom_site_fract_z
 _atom_site_occupancy
  Li  Li0  1  0.74999000  0.25000000  0.04262000  1.0
  Li  Li1  1  0.25001000  0.25000000  0.04262000  1.0
  Li  Li2  1  0.00000000  0.75000000  0.12786000  1.0
  Li  Li3  1  0.50000000  0.75000000  0.12786000  1.0
  Li  Li4  1  0.24904000  0.22309000  0.86261000  1.0
  Li  Li5  1  0.75096000  0.22309000  0.86261000  1.0
  Li  Li6  1  0.50000000  0.75077000  0.96039000  1.0
  Li  Li7  1  0.00000000  0.74896000  0.96141000  1.0
  Zr  Zr8  1  0.74999000  0.75000000  0.04262000  1.0
  Zr  Zr9  1  0.25001000  0.75000000  0.04262000  1.0
  Zr  Zr10  1  0.00000000  0.25000000  0.12786000  1.0
  Zr  Zr11  1  0.50000000  0.25000000  0.12786000  1.0
  Zr  Zr12  1  0.26463000  0.70009000  0.87897000  1.0
  Zr  Zr13  1  0.73537000  0.70009000  0.87897000  1.0
  Zr  Zr14  1  0.50000000  0.26051000  0.95054000  1.0
  Zr  Zr15  1  0.00000000  0.24755000  0.95041000  1.0
  Ge  Ge16  1  0.74999000  0.00000000  0.12786000  1.0
  Ge  Ge17  1  0.25001000  0.00000000  0.12786000  1.0
  Ge  Ge18  1  0.50000000  0.50000000  0.04262000  1.0
  Ge  Ge19  1  0.00000000  0.50000000  0.04262000  1.0
  Ge  Ge20  1  0.25062000  0.99605000  0.95338000  1.0
  Ge  Ge21  1  0.74938000  0.99605000  0.95338000  1.0
  Ge  Ge22  1  0.00000000  0.48827000  0.85618000  1.0
  Ge  Ge23  1  0.50000000  0.45758000  0.85588000  1.0
  Pd  Pd24  1  0.00000000  0.00000000  0.04262000  1.0
  Pd  Pd25  1  0.50000000  0.00000000  0.04262000  1.0
  Pd  Pd26  1  0.24999000  0.50000000  0.12786000  1.0
  Pd  Pd27  1  0.75001000  0.50000000  0.12786000  1.0
  Pd  Pd28  1  0.50000000  0.97678000  0.87701000  1.0
  Pd  Pd29  1  0.00000000  0.93383000  0.87827000  1.0
  Pd  Pd30  1  0.75639000  0.48553000  0.96454000  1.0
  Pd  Pd31  1  0.24361000  0.48553000  0.96454000  1.0
  C  C32  1  0.00000000  0.41631000  0.78450000  1.0
  O  O33  1  0.00000000  0.41194000  0.74141000  1.0
