# generated using pymatgen
data_LiYSnPb
_symmetry_space_group_name_H-M   Pm
_cell_length_a   6.55220000
_cell_length_b   4.68414000
_cell_length_c   24.89710000
_cell_angle_alpha   90.00000000
_cell_angle_beta   90.00000000
_cell_angle_gamma   90.00000000
_symmetry_Int_Tables_number   6
_chemical_formula_structural   LiYSnPb
_chemical_formula_sum   'Li2 Y2 Sn2 Pb2'
_cell_volume   764.12740537
_cell_formula_units_Z   2
loop_
 _symmetry_equiv_pos_site_id
 _symmetry_equiv_pos_as_xyz
  1  'x, y, z'
  2  'x, -y, z'
loop_
 _atom_site_type_symbol
 _atom_site_label
 _atom_site_symmetry_multiplicity
 _atom_site_fract_x
 _atom_site_fract_y
 _atom_site_fract_z
 _atom_site_occupancy
  Li  Li0  1  0.54167000  0.00000000  0.03278000  1.0
  Li  Li1  1  0.97638000  0.00000000  0.89791000  1.0
  Y  Y2  1  0.25489500  0.50000000  0.96727000  1.0
  Y  Y3  1  0.81251000  0.50000000  0.09835000  1.0
  Sn  Sn4  1  0.04167000  0.00000000  0.03278000  1.0
  Sn  Sn5  1  0.49259000  0.00000000  0.90509500  1.0
  Pb  Pb6  1  0.31251000  0.50000000  0.09835000  1.0
  Pb  Pb7  1  0.75996500  0.50000000  0.94962000  1.0
