# generated using pymatgen
data_Y4In4Cu4Sn4CO
_symmetry_space_group_name_H-M   'P 1'
_cell_length_a   6.35598000
_cell_length_b   8.84740000
_cell_length_c   24.76400000
_cell_angle_alpha   90.00000000
_cell_angle_beta   90.00000000
_cell_angle_gamma   90.00000000
_symmetry_Int_Tables_number   1
_chemical_formula_structural   Y4In4Cu4Sn4CO
_chemical_formula_sum   'Y4 In4 Cu4 Sn4 C1 O1'
_cell_volume   1392.57623650
_cell_formula_units_Z   1
loop_
 _symmetry_equiv_pos_site_id
 _symmetry_equiv_pos_as_xyz
  1  'x, y, z'
loop_
 _atom_site_type_symbol
 _atom_site_label
 _atom_site_symmetry_multiplicity
 _atom_site_fract_x
 _atom_site_fract_y
 _atom_site_fract_z
 _atom_site_occupancy
  Y  Y0  1  0.51861000  0.99997000  0.09699000  1.0
  Y  Y1  1  0.98234000  0.00000000  0.96794000  1.0
  Y  Y2  1  0.51717000  0.50005000  0.08647000  1.0
  Y  Y3  1  0.98234000  0.50000000  0.96794000  1.0
  In  In4  1  0.28980000  0.24410000  0.02466000  1.0
  In  In5  1  0.72350000  0.25000000  0.90381000  1.0
  In  In6  1  0.29008000  0.75596000  0.02462000  1.0
  In  In7  1  0.72350000  0.75000000  0.90381000  1.0
  Cu  Cu8  1  0.01522000  0.99995000  0.08406000  1.0
  Cu  Cu9  1  0.48234000  0.00000000  0.96794000  1.0
  Cu  Cu10  1  0.03537000  0.49995000  0.07720000  1.0
  Cu  Cu11  1  0.48234000  0.50000000  0.96794000  1.0
  Sn  Sn12  1  0.79505000  0.24710000  0.04658000  1.0
  Sn  Sn13  1  0.22350000  0.25000000  0.90381000  1.0
  Sn  Sn14  1  0.79534000  0.75286000  0.04661000  1.0
  Sn  Sn15  1  0.22350000  0.75000000  0.90381000  1.0
  C  C16  1  0.15626000  0.00006000  0.14829000  1.0
  O  O17  1  0.30724000  0.00010000  0.17829000  1.0
