data_image0
_chemical_formula_structural       Sc4Co8Sn4CO
_chemical_formula_sum              "Sc4 Co8 Sn4 C1 O1"
_cell_length_a       6.22913
_cell_length_b       6.22913
_cell_length_c       24.6718
_cell_angle_alpha    90
_cell_angle_beta     90
_cell_angle_gamma    90

_space_group_name_H-M_alt    "P 1"
_space_group_IT_number       1

loop_
  _space_group_symop_operation_xyz
  'x, y, z'

loop_
  _atom_site_type_symbol
  _atom_site_label
  _atom_site_symmetry_multiplicity
  _atom_site_fract_x
  _atom_site_fract_y
  _atom_site_fract_z
  _atom_site_occupancy
  Sc  Sc1       1.0  0.00241  0.00179  0.09414  1.0000
  Sc  Sc2       1.0  0.49981  0.49901  0.09411  1.0000
  Sc  Sc3       1.0  0.50000  0.00000  0.96844  1.0000
  Sc  Sc4       1.0  0.00000  0.50000  0.96844  1.0000
  Co  Co1       1.0  0.25133  0.24886  0.03376  1.0000
  Co  Co2       1.0  0.75000  0.75000  0.90532  1.0000
  Co  Co3       1.0  0.75007  0.24972  0.03433  1.0000
  Co  Co4       1.0  0.25000  0.75000  0.90532  1.0000
  Co  Co5       1.0  0.75041  0.75006  0.03449  1.0000
  Co  Co6       1.0  0.25000  0.25000  0.90532  1.0000
  Co  Co7       1.0  0.25145  0.75129  0.03390  1.0000
  Co  Co8       1.0  0.75000  0.25000  0.90532  1.0000
  Sn  Sn1       1.0  0.00000  0.00000  0.96844  1.0000
  Sn  Sn2       1.0  0.50196  0.99879  0.09893  1.0000
  Sn  Sn3       1.0  0.00149  0.50138  0.09635  1.0000
  Sn  Sn4       1.0  0.50000  0.50000  0.96844  1.0000
  C   C1        1.0  0.95517  0.49913  0.26405  1.0000
  O   O1        1.0  0.03254  0.50037  0.30584  1.0000
