# generated using pymatgen
data_Sc4Co8Sn4CO
_symmetry_space_group_name_H-M   P1
_cell_length_a   6.22913000
_cell_length_b   6.22913000
_cell_length_c   24.67180000
_cell_angle_alpha   90.00000000
_cell_angle_beta   90.00000000
_cell_angle_gamma   90.00000000
_symmetry_Int_Tables_number   1
_chemical_formula_structural   Sc4Co8Sn4CO
_chemical_formula_sum   'Sc4 Co8 Sn4 C1 O1'
_cell_volume   957.31667765
_cell_formula_units_Z   1
loop_
 _symmetry_equiv_pos_site_id
 _symmetry_equiv_pos_as_xyz
  1  'x, y, z'
loop_
 _atom_site_type_symbol
 _atom_site_label
 _atom_site_symmetry_multiplicity
 _atom_site_fract_x
 _atom_site_fract_y
 _atom_site_fract_z
 _atom_site_occupancy
  Sc  Sc0  1  0.00000000  0.50000000  0.96844000  1.0
  Sc  Sc1  1  0.50000000  0.00000000  0.96844000  1.0
  Sc  Sc2  1  0.50309000  0.50233000  0.09531000  1.0
  Sc  Sc3  1  0.99828000  0.99868000  0.09475000  1.0
  Co  Co4  1  0.25000000  0.25000000  0.90532000  1.0
  Co  Co5  1  0.25000000  0.75000000  0.90532000  1.0
  Co  Co6  1  0.25105000  0.75035000  0.03386000  1.0
  Co  Co7  1  0.25113000  0.24943000  0.03396000  1.0
  Co  Co8  1  0.74968000  0.24991000  0.03393000  1.0
  Co  Co9  1  0.74987000  0.74979000  0.03382000  1.0
  Co  Co10  1  0.75000000  0.25000000  0.90532000  1.0
  Co  Co11  1  0.75000000  0.75000000  0.90532000  1.0
  Sn  Sn12  1  0.00000000  0.00000000  0.96844000  1.0
  Sn  Sn13  1  0.00234000  0.49973000  0.09745000  1.0
  Sn  Sn14  1  0.50000000  0.50000000  0.96844000  1.0
  Sn  Sn15  1  0.50006000  0.99926000  0.09814000  1.0
  C  C16  1  0.89136000  0.50055000  0.26978000  1.0
  O  O17  1  0.05588000  0.50211000  0.28976000  1.0
