data_image0
_chemical_formula_structural       Nb12Ge4C
_chemical_formula_sum              "Nb12 Ge4 C1"
_cell_length_a       8.21286
_cell_length_b       5.80737
_cell_length_c       24.3555
_cell_angle_alpha    90
_cell_angle_beta     90
_cell_angle_gamma    90

_space_group_name_H-M_alt    "P 1"
_space_group_IT_number       1

loop_
  _space_group_symop_operation_xyz
  'x, y, z'

loop_
  _atom_site_type_symbol
  _atom_site_label
  _atom_site_symmetry_multiplicity
  _atom_site_fract_x
  _atom_site_fract_y
  _atom_site_fract_z
  _atom_site_occupancy
  Nb  Nb1       1.0  0.00684  0.46259  0.09105  1.0000
  Nb  Nb2       1.0  0.25000  0.73049  0.03178  1.0000
  Nb  Nb3       1.0  0.25000  0.21908  0.03237  1.0000
  Nb  Nb4       1.0  0.00000  0.00000  0.97019  1.0000
  Nb  Nb5       1.0  0.25000  0.25000  0.91058  1.0000
  Nb  Nb6       1.0  0.25000  0.75000  0.91058  1.0000
  Nb  Nb7       1.0  0.49316  0.46258  0.09105  1.0000
  Nb  Nb8       1.0  0.75000  0.72927  0.02972  1.0000
  Nb  Nb9       1.0  0.75000  0.22341  0.02986  1.0000
  Nb  Nb10      1.0  0.50000  0.00000  0.97019  1.0000
  Nb  Nb11      1.0  0.75000  0.25000  0.91058  1.0000
  Nb  Nb12      1.0  0.75000  0.75000  0.91058  1.0000
  Ge  Ge1       1.0  0.98839  0.96882  0.08724  1.0000
  Ge  Ge2       1.0  0.00000  0.50000  0.97019  1.0000
  Ge  Ge3       1.0  0.51161  0.96882  0.08724  1.0000
  Ge  Ge4       1.0  0.50000  0.50000  0.97019  1.0000
  C   C1        1.0  0.25000  0.47648  0.09964  1.0000
