# generated using pymatgen
data_In4Ni12C
_symmetry_space_group_name_H-M   Pm
_cell_length_a   5.34265000
_cell_length_b   7.55564000
_cell_length_c   24.00700000
_cell_angle_alpha   90.00000000
_cell_angle_beta   90.00000000
_cell_angle_gamma   90.00000000
_symmetry_Int_Tables_number   6
_chemical_formula_structural   In4Ni12C
_chemical_formula_sum   'In4 Ni12 C1'
_cell_volume   969.09393108
_cell_formula_units_Z   1
loop_
 _symmetry_equiv_pos_site_id
 _symmetry_equiv_pos_as_xyz
  1  'x, y, z'
  2  'x, -y, z'
loop_
 _atom_site_type_symbol
 _atom_site_label
 _atom_site_symmetry_multiplicity
 _atom_site_fract_x
 _atom_site_fract_y
 _atom_site_fract_z
 _atom_site_occupancy
  In  In0  2  0.00040000  0.22969000  0.91053000  1.0
  In  In1  2  0.50000000  0.25000000  0.02782000  1.0
  Ni  Ni2  2  0.00000000  0.25000000  0.02782000  1.0
  Ni  Ni3  2  0.50030000  0.25994000  0.91768000  1.0
  Ni  Ni4  1  0.23704000  0.50000000  0.97078000  1.0
  Ni  Ni5  1  0.24972000  0.00000000  0.97322000  1.0
  Ni  Ni6  1  0.25000000  0.00000000  0.08345000  1.0
  Ni  Ni7  1  0.25000000  0.50000000  0.08345000  1.0
  Ni  Ni8  1  0.75000000  0.00000000  0.08345000  1.0
  Ni  Ni9  1  0.75000000  0.50000000  0.08345000  1.0
  Ni  Ni10  1  0.75205000  0.00000000  0.97344000  1.0
  Ni  Ni11  1  0.76321000  0.50000000  0.97081000  1.0
  C  C12  1  0.49995000  0.50000000  0.92019000  1.0
