# generated using pymatgen
data_Li8Ga8Cu8Pd8C
_symmetry_space_group_name_H-M   Pm
_cell_length_a   6.02537000
_cell_length_b   8.52116000
_cell_length_c   26.39090000
_cell_angle_alpha   90.00000000
_cell_angle_beta   90.00000000
_cell_angle_gamma   90.00000000
_symmetry_Int_Tables_number   6
_chemical_formula_structural   Li8Ga8Cu8Pd8C
_chemical_formula_sum   'Li8 Ga8 Cu8 Pd8 C1'
_cell_volume   1354.99172170
_cell_formula_units_Z   1
loop_
 _symmetry_equiv_pos_site_id
 _symmetry_equiv_pos_as_xyz
  1  'x, y, z'
  2  'x, -y, z'
loop_
 _atom_site_type_symbol
 _atom_site_label
 _atom_site_symmetry_multiplicity
 _atom_site_fract_x
 _atom_site_fract_y
 _atom_site_fract_z
 _atom_site_occupancy
  Li  Li0  2  0.24445000  0.26827000  0.13348000  1.0
  Li  Li1  2  0.25000000  0.25000000  0.95964000  1.0
  Li  Li2  1  0.74888000  0.00000000  0.04097000  1.0
  Li  Li3  1  0.75000000  0.00000000  0.87892000  1.0
  Li  Li4  1  0.75000000  0.50000000  0.87892000  1.0
  Li  Li5  1  0.75259000  0.50000000  0.03498000  1.0
  Ga  Ga6  2  0.74755000  0.23711000  0.13142000  1.0
  Ga  Ga7  2  0.75000000  0.25000000  0.95964000  1.0
  Ga  Ga8  1  0.24656000  0.50000000  0.04265000  1.0
  Ga  Ga9  1  0.25000000  0.00000000  0.87892000  1.0
  Ga  Ga10  1  0.25000000  0.50000000  0.87892000  1.0
  Ga  Ga11  1  0.26104000  0.00000000  0.03348000  1.0
  Cu  Cu12  2  0.00000000  0.25000000  0.87892000  1.0
  Cu  Cu13  2  0.00063000  0.25068000  0.04279000  1.0
  Cu  Cu14  1  0.45874000  0.00000000  0.11463000  1.0
  Cu  Cu15  1  0.50000000  0.00000000  0.95964000  1.0
  Cu  Cu16  1  0.50000000  0.50000000  0.95964000  1.0
  Cu  Cu17  1  0.52993000  0.50000000  0.11485000  1.0
  Pd  Pd18  2  0.50000000  0.25000000  0.87892000  1.0
  Pd  Pd19  2  0.50304000  0.25541000  0.04350000  1.0
  Pd  Pd20  1  -0.00000000  0.50000000  0.95964000  1.0
  Pd  Pd21  1  0.00000000  0.00000000  0.95964000  1.0
  Pd  Pd22  1  0.04070000  0.00000000  0.11231000  1.0
  Pd  Pd23  1  0.96227000  0.50000000  0.11571000  1.0
  C  C24  1  0.73792000  0.00000000  0.14579000  1.0
