# generated using pymatgen
data_Li8Sc8Ga8Pd8CO
_symmetry_space_group_name_H-M   'P 1'
_cell_length_a   6.35289000
_cell_length_b   8.98434000
_cell_length_c   26.73830000
_cell_angle_alpha   90.00000000
_cell_angle_beta   90.00000000
_cell_angle_gamma   90.00000000
_symmetry_Int_Tables_number   1
_chemical_formula_structural   Li8Sc8Ga8Pd8CO
_chemical_formula_sum   'Li8 Sc8 Ga8 Pd8 C1 O1'
_cell_volume   1526.12921479
_cell_formula_units_Z   1
loop_
 _symmetry_equiv_pos_site_id
 _symmetry_equiv_pos_as_xyz
  1  'x, y, z'
loop_
 _atom_site_type_symbol
 _atom_site_label
 _atom_site_symmetry_multiplicity
 _atom_site_fract_x
 _atom_site_fract_y
 _atom_site_fract_z
 _atom_site_occupancy
  Li  Li0  1  0.75000000  0.00000000  0.95800000  1.0
  Li  Li1  1  0.75000000  0.50000000  0.95800000  1.0
  Li  Li2  1  0.25000000  0.25000000  0.87400000  1.0
  Li  Li3  1  0.25000000  0.75000000  0.87400000  1.0
  Li  Li4  1  0.56501000  0.49999000  0.17519000  1.0
  Li  Li5  1  0.56146000  0.99995000  0.18512000  1.0
  Li  Li6  1  0.23944000  0.74771000  0.04349000  1.0
  Li  Li7  1  0.23955000  0.25206000  0.04348000  1.0
  Sc  Sc8  1  0.00000000  0.25000000  0.95800000  1.0
  Sc  Sc9  1  0.00000000  0.75000000  0.95800000  1.0
  Sc  Sc10  1  0.50000000  0.50000000  0.87400000  1.0
  Sc  Sc11  1  0.50000000  0.00000000  0.87400000  1.0
  Sc  Sc12  1  0.94164000  0.74439000  0.12483000  1.0
  Sc  Sc13  1  0.94189000  0.25588000  0.12482000  1.0
  Sc  Sc14  1  0.50659000  0.99993000  0.04930000  1.0
  Sc  Sc15  1  0.52622000  0.49987000  0.05404000  1.0
  Ga  Ga16  1  0.00000000  0.00000000  0.87400000  1.0
  Ga  Ga17  1  0.00000000  0.50000000  0.87400000  1.0
  Ga  Ga18  1  0.50000000  0.75000000  0.95800000  1.0
  Ga  Ga19  1  0.50000000  0.25000000  0.95800000  1.0
  Ga  Ga20  1  0.99470000  0.49989000  0.03959000  1.0
  Ga  Ga21  1  0.00047000  0.00000000  0.04173000  1.0
  Ga  Ga22  1  0.46602000  0.24673000  0.12453000  1.0
  Ga  Ga23  1  0.46592000  0.75323000  0.12455000  1.0
  Pd  Pd24  1  0.25000000  0.00000000  0.95800000  1.0
  Pd  Pd25  1  0.25000000  0.50000000  0.95800000  1.0
  Pd  Pd26  1  0.75000000  0.25000000  0.87400000  1.0
  Pd  Pd27  1  0.75000000  0.75000000  0.87400000  1.0
  Pd  Pd28  1  0.21642000  0.50018000  0.12014000  1.0
  Pd  Pd29  1  0.22258000  0.00022000  0.12919000  1.0
  Pd  Pd30  1  0.74640000  0.75389000  0.03877000  1.0
  Pd  Pd31  1  0.74645000  0.24591000  0.03878000  1.0
  C  C32  1  0.01020000  0.00007000  0.18051000  1.0
  O  O33  1  0.85019000  0.99902000  0.20520000  1.0
