# generated using pymatgen
data_MnAu
_symmetry_space_group_name_H-M   'P 1'
_cell_length_a   3.22534000
_cell_length_b   3.22534000
_cell_length_c   25.03480000
_cell_angle_alpha   90.00000000
_cell_angle_beta   90.00000000
_cell_angle_gamma   90.00000000
_symmetry_Int_Tables_number   1
_chemical_formula_structural   MnAu
_chemical_formula_sum   'Mn2 Au2'
_cell_volume   260.43247096
_cell_formula_units_Z   2
loop_
 _symmetry_equiv_pos_site_id
 _symmetry_equiv_pos_as_xyz
  1  'x, y, z'
loop_
 _atom_site_type_symbol
 _atom_site_label
 _atom_site_symmetry_multiplicity
 _atom_site_fract_x
 _atom_site_fract_y
 _atom_site_fract_z
 _atom_site_occupancy
  Mn  Mn0  1  0.00000000  0.00000000  0.08166000  1.0
  Mn  Mn1  1  0.00000000  0.00000000  0.94758000  1.0
  Au  Au2  1  0.50000000  0.50000000  0.01462000  1.0
  Au  Au3  1  0.50000000  0.50000000  0.88055000  1.0
