# generated using pymatgen
data_Li16Ga8Pd8CO
_symmetry_space_group_name_H-M   'P 1'
_cell_length_a   8.69561000
_cell_length_b   6.14873000
_cell_length_c   26.52170000
_cell_angle_alpha   90.00000000
_cell_angle_beta   90.00000000
_cell_angle_gamma   90.00000000
_symmetry_Int_Tables_number   1
_chemical_formula_structural   Li16Ga8Pd8CO
_chemical_formula_sum   'Li16 Ga8 Pd8 C1 O1'
_cell_volume   1418.03462199
_cell_formula_units_Z   1
loop_
 _symmetry_equiv_pos_site_id
 _symmetry_equiv_pos_as_xyz
  1  'x, y, z'
loop_
 _atom_site_type_symbol
 _atom_site_label
 _atom_site_symmetry_multiplicity
 _atom_site_fract_x
 _atom_site_fract_y
 _atom_site_fract_z
 _atom_site_occupancy
  Li  Li0  1  0.50000000  1.00000000  0.04098000  1.0
  Li  Li1  1  0.75000000  0.50000000  0.12295000  1.0
  Li  Li2  1  0.00000000  0.00000000  0.04098000  1.0
  Li  Li3  1  0.25000000  0.50000000  0.12295000  1.0
  Li  Li4  1  0.00000000  0.25000000  0.12295000  1.0
  Li  Li5  1  0.50000000  0.25000000  0.12295000  1.0
  Li  Li6  1  0.25000000  0.75000000  0.04098000  1.0
  Li  Li7  1  0.75000000  0.75000000  0.04098000  1.0
  Li  Li8  1  0.00000000  0.99268000  0.87470000  1.0
  Li  Li9  1  0.24974000  0.50633000  0.96097000  1.0
  Li  Li10  1  0.50000000  0.01238000  0.87677000  1.0
  Li  Li11  1  0.75026000  0.50633000  0.96097000  1.0
  Li  Li12  1  0.50000000  0.24048000  0.96385000  1.0
  Li  Li13  1  0.00000000  0.25353000  0.95803000  1.0
  Li  Li14  1  0.74353000  0.72650000  0.87224000  1.0
  Li  Li15  1  0.25647000  0.72650000  0.87224000  1.0
  Ga  Ga16  1  0.75000000  0.25000000  0.04098000  1.0
  Ga  Ga17  1  0.25000000  0.25000000  0.04098000  1.0
  Ga  Ga18  1  0.50000000  0.75000000  0.12295000  1.0
  Ga  Ga19  1  0.00000000  0.75000000  0.12295000  1.0
  Ga  Ga20  1  0.24676000  0.25424000  0.88052000  1.0
  Ga  Ga21  1  0.75324000  0.25424000  0.88052000  1.0
  Ga  Ga22  1  0.00000000  0.74504000  0.95842000  1.0
  Ga  Ga23  1  0.50000000  0.75287000  0.95844000  1.0
  Pd  Pd24  1  0.75000000  0.00000000  0.12295000  1.0
  Pd  Pd25  1  0.00000000  0.50000000  0.04098000  1.0
  Pd  Pd26  1  0.50000000  0.50000000  0.04098000  1.0
  Pd  Pd27  1  0.25000000  0.00000000  0.12295000  1.0
  Pd  Pd28  1  0.24821000  0.99177000  0.95822000  1.0
  Pd  Pd29  1  0.50000000  0.47251000  0.88641000  1.0
  Pd  Pd30  1  0.00000000  0.50024000  0.87423000  1.0
  Pd  Pd31  1  0.75179000  0.99177000  0.95822000  1.0
  C  C32  1  0.00000000  0.59319000  0.80355000  1.0
  O  O33  1  0.00000000  0.61490000  0.76014000  1.0
