# generated using pymatgen
data_YCuSnPd
_symmetry_space_group_name_H-M   'P 1'
_cell_length_a   6.76496000
_cell_length_b   4.78355000
_cell_length_c   27.17530000
_cell_angle_alpha   90.00000000
_cell_angle_beta   90.00000000
_cell_angle_gamma   90.00000000
_symmetry_Int_Tables_number   1
_chemical_formula_structural   YCuSnPd
_chemical_formula_sum   'Y4 Cu4 Sn4 Pd4'
_cell_volume   879.40695894
_cell_formula_units_Z   4
loop_
 _symmetry_equiv_pos_site_id
 _symmetry_equiv_pos_as_xyz
  1  'x, y, z'
loop_
 _atom_site_type_symbol
 _atom_site_label
 _atom_site_symmetry_multiplicity
 _atom_site_fract_x
 _atom_site_fract_y
 _atom_site_fract_z
 _atom_site_occupancy
  Y  Y0  1  0.75000000  0.00000000  0.95599000  1.0
  Y  Y1  1  0.25000000  0.50000000  0.86798000  1.0
  Y  Y2  1  0.74542500  0.00000000  0.13640000  1.0
  Y  Y3  1  0.25026000  0.50000000  0.04292000  1.0
  Cu  Cu4  1  0.00000000  0.00000000  0.86798000  1.0
  Cu  Cu5  1  0.50000000  0.50000000  0.95599000  1.0
  Cu  Cu6  1  0.99510500  0.00000000  0.04890000  1.0
  Cu  Cu7  1  0.48060000  0.50000000  0.13227000  1.0
  Sn  Sn8  1  0.25000000  0.00000000  0.95599000  1.0
  Sn  Sn9  1  0.75000000  0.50000000  0.86798000  1.0
  Sn  Sn10  1  0.25109000  0.00000000  0.13369000  1.0
  Sn  Sn11  1  0.75080000  0.50000000  0.04488000  1.0
  Pd  Pd12  1  0.00000000  0.50000000  0.95599000  1.0
  Pd  Pd13  1  0.50000000  0.00000000  0.86798000  1.0
  Pd  Pd14  1  0.99896000  0.50000000  0.12829000  1.0
  Pd  Pd15  1  0.51344000  0.00000000  0.04603000  1.0
