# generated using pymatgen
data_Ti8Ga8Fe16CO
_symmetry_space_group_name_H-M   P1
_cell_length_a   5.88011000
_cell_length_b   8.31574000
_cell_length_c   26.23680000
_cell_angle_alpha   90.00000000
_cell_angle_beta   90.00000000
_cell_angle_gamma   90.00000000
_symmetry_Int_Tables_number   1
_chemical_formula_structural   Ti8Ga8Fe16CO
_chemical_formula_sum   'Ti8 Ga8 Fe16 C1 O1'
_cell_volume   1282.91303415
_cell_formula_units_Z   1
loop_
 _symmetry_equiv_pos_site_id
 _symmetry_equiv_pos_as_xyz
  1  'x, y, z'
loop_
 _atom_site_type_symbol
 _atom_site_label
 _atom_site_symmetry_multiplicity
 _atom_site_fract_x
 _atom_site_fract_y
 _atom_site_fract_z
 _atom_site_occupancy
  Ti  Ti0  1  0.00000000  0.00000000  0.88114000  1.0
  Ti  Ti1  1  0.00000000  0.50000000  0.88114000  1.0
  Ti  Ti2  1  0.00110000  0.99998000  0.03871000  1.0
  Ti  Ti3  1  0.00144000  0.50002000  0.03586000  1.0
  Ti  Ti4  1  0.49269000  0.25793000  0.11794000  1.0
  Ti  Ti5  1  0.49269000  0.74207000  0.11791000  1.0
  Ti  Ti6  1  0.50000000  0.25000000  0.96038000  1.0
  Ti  Ti7  1  0.50000000  0.75000000  0.96038000  1.0
  Ga  Ga8  1  0.00000000  0.25000000  0.96038000  1.0
  Ga  Ga9  1  0.00000000  0.75000000  0.96038000  1.0
  Ga  Ga10  1  0.00396000  0.23984000  0.12248000  1.0
  Ga  Ga11  1  0.00398000  0.76015000  0.12251000  1.0
  Ga  Ga12  1  0.49677000  0.00014000  0.03793000  1.0
  Ga  Ga13  1  0.50000000  0.00000000  0.88114000  1.0
  Ga  Ga14  1  0.50000000  0.50000000  0.88114000  1.0
  Ga  Ga15  1  0.50015000  0.49987000  0.03865000  1.0
  Fe  Fe16  1  0.22361000  0.49995000  0.11445000  1.0
  Fe  Fe17  1  0.25000000  0.00000000  0.96038000  1.0
  Fe  Fe18  1  0.25000000  0.25000000  0.88114000  1.0
  Fe  Fe19  1  0.25000000  0.50000000  0.96038000  1.0
  Fe  Fe20  1  0.25000000  0.75000000  0.88114000  1.0
  Fe  Fe21  1  0.25207000  0.25036000  0.04072000  1.0
  Fe  Fe22  1  0.25214000  0.74964000  0.04072000  1.0
  Fe  Fe23  1  0.26966000  0.00004000  0.11942000  1.0
  Fe  Fe24  1  0.74502000  0.00005000  0.11653000  1.0
  Fe  Fe25  1  0.74780000  0.74992000  0.04143000  1.0
  Fe  Fe26  1  0.74787000  0.25008000  0.04142000  1.0
  Fe  Fe27  1  0.75000000  0.00000000  0.96038000  1.0
  Fe  Fe28  1  0.75000000  0.25000000  0.88114000  1.0
  Fe  Fe29  1  0.75000000  0.50000000  0.96038000  1.0
  Fe  Fe30  1  0.75000000  0.75000000  0.88114000  1.0
  Fe  Fe31  1  0.78021000  0.49994000  0.11466000  1.0
  C  C32  1  0.33669000  0.99999000  0.18496000  1.0
  O  O33  1  0.37186000  0.00000000  0.22894000  1.0
