# generated using pymatgen
data_Cu24Sb8C
_symmetry_space_group_name_H-M   P1
_cell_length_a   6.30953000
_cell_length_b   8.92302000
_cell_length_c   26.69230000
_cell_angle_alpha   90.00000000
_cell_angle_beta   90.00000000
_cell_angle_gamma   90.00000000
_symmetry_Int_Tables_number   1
_chemical_formula_structural   Cu24Sb8C
_chemical_formula_sum   'Cu24 Sb8 C1'
_cell_volume   1502.77815508
_cell_formula_units_Z   1
loop_
 _symmetry_equiv_pos_site_id
 _symmetry_equiv_pos_as_xyz
  1  'x, y, z'
loop_
 _atom_site_type_symbol
 _atom_site_label
 _atom_site_symmetry_multiplicity
 _atom_site_fract_x
 _atom_site_fract_y
 _atom_site_fract_z
 _atom_site_occupancy
  Cu  Cu0  1  0.00000000  0.25000000  0.95821000  1.0
  Cu  Cu1  1  0.00000000  0.75000000  0.95821000  1.0
  Cu  Cu2  1  0.02388000  0.74990000  0.11244000  1.0
  Cu  Cu3  1  0.23784000  0.25002000  0.04419000  1.0
  Cu  Cu4  1  0.25000000  0.00000000  0.95821000  1.0
  Cu  Cu5  1  0.25000000  0.25000000  0.87464000  1.0
  Cu  Cu6  1  0.25000000  0.50000000  0.95821000  1.0
  Cu  Cu7  1  0.25000000  0.75000000  0.87464000  1.0
  Cu  Cu8  1  0.26734000  0.75006000  0.04040000  1.0
  Cu  Cu9  1  0.27502000  0.47128000  0.11574000  1.0
  Cu  Cu10  1  0.27506000  0.02875000  0.11573000  1.0
  Cu  Cu11  1  0.49858000  0.49991000  0.03417000  1.0
  Cu  Cu12  1  0.49862000  0.00017000  0.03417000  1.0
  Cu  Cu13  1  0.50000000  0.00000000  0.87464000  1.0
  Cu  Cu14  1  0.50000000  0.50000000  0.87464000  1.0
  Cu  Cu15  1  0.60971000  0.25006000  0.07768000  1.0
  Cu  Cu16  1  0.67078000  0.75003000  0.06759000  1.0
  Cu  Cu17  1  0.68809000  0.50310000  0.12399000  1.0
  Cu  Cu18  1  0.68811000  0.99698000  0.12399000  1.0
  Cu  Cu19  1  0.75000000  0.00000000  0.95821000  1.0
  Cu  Cu20  1  0.75000000  0.25000000  0.87464000  1.0
  Cu  Cu21  1  0.75000000  0.50000000  0.95821000  1.0
  Cu  Cu22  1  0.75000000  0.75000000  0.87464000  1.0
  Cu  Cu23  1  0.96999000  0.25002000  0.12448000  1.0
  Sb  Sb24  1  0.00000000  0.00000000  0.87464000  1.0
  Sb  Sb25  1  0.00000000  0.50000000  0.87464000  1.0
  Sb  Sb26  1  0.41960000  0.75002000  0.14631000  1.0
  Sb  Sb27  1  0.50000000  0.25000000  0.95821000  1.0
  Sb  Sb28  1  0.50000000  0.75000000  0.95821000  1.0
  Sb  Sb29  1  0.57741000  0.25003000  0.17672000  1.0
  Sb  Sb30  1  0.95260000  0.50347000  0.04506000  1.0
  Sb  Sb31  1  0.95263000  0.99648000  0.04507000  1.0
  C  C32  1  0.29389000  0.25001000  0.12242000  1.0
