data_image0
_chemical_formula_structural       Cu3AuCu3AuCu3AuCu3AuCu3AuCu3AuCu3AuCu3AuCO
_chemical_formula_sum              "Cu24 Au8 C1 O1"
_cell_length_a       7.64441
_cell_length_b       7.64441
_cell_length_c       25.7333
_cell_angle_alpha    90
_cell_angle_beta     90
_cell_angle_gamma    90

_space_group_name_H-M_alt    "P 1"
_space_group_IT_number       1

loop_
  _space_group_symop_operation_xyz
  'x, y, z'

loop_
  _atom_site_type_symbol
  _atom_site_label
  _atom_site_symmetry_multiplicity
  _atom_site_fract_x
  _atom_site_fract_y
  _atom_site_fract_z
  _atom_site_occupancy
  Cu  Cu1       1.0  0.00000  0.25000  0.03713  1.0000
  Cu  Cu2       1.0  0.25000  0.00000  0.03713  1.0000
  Cu  Cu3       1.0  0.25000  0.25000  0.11140  1.0000
  Au  Au1       1.0  0.00000  0.00000  0.11140  1.0000
  Cu  Cu4       1.0  0.00000  0.25000  0.88860  1.0000
  Cu  Cu5       1.0  0.25000  0.00000  0.88860  1.0000
  Cu  Cu6       1.0  0.25000  0.25000  0.96287  1.0000
  Au  Au2       1.0  0.00000  0.00000  0.96287  1.0000
  Cu  Cu7       1.0  0.00000  0.75000  0.03713  1.0000
  Cu  Cu8       1.0  0.25000  0.50000  0.03713  1.0000
  Cu  Cu9       1.0  0.25000  0.75000  0.11140  1.0000
  Au  Au3       1.0  0.00000  0.50000  0.11140  1.0000
  Cu  Cu10      1.0  0.00000  0.75000  0.88860  1.0000
  Cu  Cu11      1.0  0.25000  0.50000  0.88860  1.0000
  Cu  Cu12      1.0  0.25000  0.75000  0.96287  1.0000
  Au  Au4       1.0  0.00000  0.50000  0.96287  1.0000
  Cu  Cu13      1.0  0.50000  0.25000  0.03713  1.0000
  Cu  Cu14      1.0  0.75000  0.00000  0.03713  1.0000
  Cu  Cu15      1.0  0.75000  0.25000  0.11140  1.0000
  Au  Au5       1.0  0.50000  0.00000  0.11140  1.0000
  Cu  Cu16      1.0  0.50000  0.25000  0.88860  1.0000
  Cu  Cu17      1.0  0.75000  0.00000  0.88860  1.0000
  Cu  Cu18      1.0  0.75000  0.25000  0.96287  1.0000
  Au  Au6       1.0  0.50000  0.00000  0.96287  1.0000
  Cu  Cu19      1.0  0.50000  0.75000  0.03713  1.0000
  Cu  Cu20      1.0  0.75000  0.50000  0.03713  1.0000
  Cu  Cu21      1.0  0.75000  0.75000  0.11140  1.0000
  Au  Au7       1.0  0.50000  0.50000  0.11140  1.0000
  Cu  Cu22      1.0  0.50000  0.75000  0.88860  1.0000
  Cu  Cu23      1.0  0.75000  0.50000  0.88860  1.0000
  Cu  Cu24      1.0  0.75000  0.75000  0.96287  1.0000
  Au  Au8       1.0  0.50000  0.50000  0.96287  1.0000
  C   C1        1.0  0.00000  0.00000  0.18523  1.0000
  O   O1        1.0  0.00000  0.00000  0.22992  1.0000
