# generated using pymatgen
data_Cu24Au8CO
_symmetry_space_group_name_H-M   P4mm
_cell_length_a   7.64441000
_cell_length_b   7.64441000
_cell_length_c   25.73330000
_cell_angle_alpha   90.00000000
_cell_angle_beta   90.00000000
_cell_angle_gamma   90.00000000
_symmetry_Int_Tables_number   99
_chemical_formula_structural   Cu24Au8CO
_chemical_formula_sum   'Cu24 Au8 C1 O1'
_cell_volume   1503.77696142
_cell_formula_units_Z   1
loop_
 _symmetry_equiv_pos_site_id
 _symmetry_equiv_pos_as_xyz
  1  'x, y, z'
  2  '-y, x, z'
  3  '-x, -y, z'
  4  'y, -x, z'
  5  '-x, y, z'
  6  'y, x, z'
  7  'x, -y, z'
  8  '-y, -x, z'
loop_
 _atom_site_type_symbol
 _atom_site_label
 _atom_site_symmetry_multiplicity
 _atom_site_fract_x
 _atom_site_fract_y
 _atom_site_fract_z
 _atom_site_occupancy
  Cu  Cu0  4  0.00000000  0.25000000  0.03713000  1.0
  Cu  Cu1  4  0.00000000  0.25000000  0.88860000  1.0
  Cu  Cu2  4  0.25000000  0.25000000  0.11140000  1.0
  Cu  Cu3  4  0.25000000  0.25000000  0.96287000  1.0
  Cu  Cu4  4  0.25000000  0.50000000  0.03713000  1.0
  Cu  Cu5  4  0.25000000  0.50000000  0.88860000  1.0
  Au  Au6  2  0.00000000  0.50000000  0.11140000  1.0
  Au  Au7  2  0.00000000  0.50000000  0.96287000  1.0
  Au  Au8  1  0.00000000  0.00000000  0.11140000  1.0
  Au  Au9  1  0.00000000  0.00000000  0.96287000  1.0
  Au  Au10  1  0.50000000  0.50000000  0.11140000  1.0
  Au  Au11  1  0.50000000  0.50000000  0.96287000  1.0
  C  C12  1  0.00000000  0.00000000  0.18523000  1.0
  O  O13  1  0.00000000  0.00000000  0.22992000  1.0
