# generated using pymatgen
data_Li8Mg8Ag8Pd8C
_symmetry_space_group_name_H-M   'P 1'
_cell_length_a   9.02734000
_cell_length_b   6.38329000
_cell_length_c   26.77050000
_cell_angle_alpha   90.00000000
_cell_angle_beta   90.00000000
_cell_angle_gamma   90.00000000
_symmetry_Int_Tables_number   1
_chemical_formula_structural   Li8Mg8Ag8Pd8C
_chemical_formula_sum   'Li8 Mg8 Ag8 Pd8 C1'
_cell_volume   1542.62674937
_cell_formula_units_Z   1
loop_
 _symmetry_equiv_pos_site_id
 _symmetry_equiv_pos_as_xyz
  1  'x, y, z'
loop_
 _atom_site_type_symbol
 _atom_site_label
 _atom_site_symmetry_multiplicity
 _atom_site_fract_x
 _atom_site_fract_y
 _atom_site_fract_z
 _atom_site_occupancy
  Li  Li0  1  0.00000000  0.75000000  0.04215000  1.0
  Li  Li1  1  0.50000000  0.75000000  0.04215000  1.0
  Li  Li2  1  0.25000000  0.25000000  0.12645000  1.0
  Li  Li3  1  0.75000000  0.25000000  0.12645000  1.0
  Li  Li4  1  0.50000000  0.75417000  0.86689000  1.0
  Li  Li5  1  0.00000000  0.76615000  0.86321000  1.0
  Li  Li6  1  0.75022000  0.25419000  0.95571000  1.0
  Li  Li7  1  0.24978000  0.25419000  0.95571000  1.0
  Mg  Mg8  1  0.00000000  0.25000000  0.04215000  1.0
  Mg  Mg9  1  0.50000000  0.25000000  0.04215000  1.0
  Mg  Mg10  1  0.25000000  0.75000000  0.12645000  1.0
  Mg  Mg11  1  0.75000000  0.75000000  0.12645000  1.0
  Mg  Mg12  1  0.50000000  0.24842000  0.86861000  1.0
  Mg  Mg13  1  0.00000000  0.18581000  0.84710000  1.0
  Mg  Mg14  1  0.75287000  0.75339000  0.95735000  1.0
  Mg  Mg15  1  0.24713000  0.75339000  0.95735000  1.0
  Ag  Ag16  1  0.00000000  0.00000000  0.12645000  1.0
  Ag  Ag17  1  0.50000000  0.00000000  0.12645000  1.0
  Ag  Ag18  1  0.75000000  0.50000000  0.04215000  1.0
  Ag  Ag19  1  0.25000000  0.50000000  0.04215000  1.0
  Ag  Ag20  1  0.50000000  0.00116000  0.95594000  1.0
  Ag  Ag21  1  0.00000000  0.02063000  0.95140000  1.0
  Ag  Ag22  1  0.24557000  0.49851000  0.87150000  1.0
  Ag  Ag23  1  0.75443000  0.49851000  0.87150000  1.0
  Pd  Pd24  1  0.25000000  0.00000000  0.04215000  1.0
  Pd  Pd25  1  0.75000000  0.00000000  0.04215000  1.0
  Pd  Pd26  1  0.50000000  0.50000000  0.12645000  1.0
  Pd  Pd27  1  0.00000000  0.50000000  0.12645000  1.0
  Pd  Pd28  1  0.74215000  0.99980000  0.87642000  1.0
  Pd  Pd29  1  0.25785000  0.99980000  0.87642000  1.0
  Pd  Pd30  1  0.00000000  0.50506000  0.96115000  1.0
  Pd  Pd31  1  0.50000000  0.50344000  0.95417000  1.0
  C  C32  1  0.00000000  0.46799000  0.88735000  1.0
