# generated using pymatgen
data_LiMgAgGe
_symmetry_space_group_name_H-M   'P 1'
_cell_length_a   6.50572000
_cell_length_b   9.20048000
_cell_length_c   26.90040000
_cell_angle_alpha   90.00000000
_cell_angle_beta   90.00000000
_cell_angle_gamma   90.00000000
_symmetry_Int_Tables_number   1
_chemical_formula_structural   LiMgAgGe
_chemical_formula_sum   'Li8 Mg8 Ag8 Ge8'
_cell_volume   1610.14352976
_cell_formula_units_Z   8
loop_
 _symmetry_equiv_pos_site_id
 _symmetry_equiv_pos_as_xyz
  1  'x, y, z'
loop_
 _atom_site_type_symbol
 _atom_site_label
 _atom_site_symmetry_multiplicity
 _atom_site_fract_x
 _atom_site_fract_y
 _atom_site_fract_z
 _atom_site_occupancy
  Li  Li0  1  0.75000000  0.00000000  0.95725000  1.0
  Li  Li1  1  0.75000000  0.50000000  0.95725000  1.0
  Li  Li2  1  0.25000000  0.25000000  0.87174000  1.0
  Li  Li3  1  0.25000000  0.75000000  0.87174000  1.0
  Li  Li4  1  0.76129000  0.50001000  0.13473000  1.0
  Li  Li5  1  0.76131000  0.99997000  0.13473000  1.0
  Li  Li6  1  0.25004000  0.74999000  0.04469000  1.0
  Li  Li7  1  0.25006000  0.25002000  0.04469000  1.0
  Mg  Mg8  1  0.25000000  0.00000000  0.95725000  1.0
  Mg  Mg9  1  0.25000000  0.50000000  0.95725000  1.0
  Mg  Mg10  1  0.75000000  0.25000000  0.87174000  1.0
  Mg  Mg11  1  0.75000000  0.75000000  0.87174000  1.0
  Mg  Mg12  1  0.23208000  0.50001000  0.13750000  1.0
  Mg  Mg13  1  0.23206000  0.99999000  0.13751000  1.0
  Mg  Mg14  1  0.75191000  0.75002000  0.04419000  1.0
  Mg  Mg15  1  0.75199000  0.24999000  0.04419000  1.0
  Ag  Ag16  1  0.00000000  0.00000000  0.87174000  1.0
  Ag  Ag17  1  0.00000000  0.50000000  0.87174000  1.0
  Ag  Ag18  1  0.50000000  0.75000000  0.95725000  1.0
  Ag  Ag19  1  0.50000000  0.25000000  0.95725000  1.0
  Ag  Ag20  1  0.00739000  0.50005000  0.04780000  1.0
  Ag  Ag21  1  0.00755000  0.99999000  0.04780000  1.0
  Ag  Ag22  1  0.50047000  0.24999000  0.12975000  1.0
  Ag  Ag23  1  0.50010000  0.74999000  0.12977000  1.0
  Ge  Ge24  1  0.00000000  0.25000000  0.95725000  1.0
  Ge  Ge25  1  0.00000000  0.75000000  0.95725000  1.0
  Ge  Ge26  1  0.50000000  0.50000000  0.87174000  1.0
  Ge  Ge27  1  0.50000000  0.00000000  0.87174000  1.0
  Ge  Ge28  1  0.98926000  0.74999000  0.13326000  1.0
  Ge  Ge29  1  0.98919000  0.25001000  0.13328000  1.0
  Ge  Ge30  1  0.49410000  0.00002000  0.05096000  1.0
  Ge  Ge31  1  0.49418000  0.50002000  0.05096000  1.0
