# generated using pymatgen
data_Li16In8Pt8CO
_symmetry_space_group_name_H-M   'P 1'
_cell_length_a   9.09870000
_cell_length_b   6.43375000
_cell_length_c   26.82400000
_cell_angle_alpha   90.00000000
_cell_angle_beta   90.00000000
_cell_angle_gamma   90.00000000
_symmetry_Int_Tables_number   1
_chemical_formula_structural   Li16In8Pt8CO
_chemical_formula_sum   'Li16 In8 Pt8 C1 O1'
_cell_volume   1570.24372842
_cell_formula_units_Z   1
loop_
 _symmetry_equiv_pos_site_id
 _symmetry_equiv_pos_as_xyz
  1  'x, y, z'
loop_
 _atom_site_type_symbol
 _atom_site_label
 _atom_site_symmetry_multiplicity
 _atom_site_fract_x
 _atom_site_fract_y
 _atom_site_fract_z
 _atom_site_occupancy
  Li  Li0  1  0.50000000  1.00000000  0.04240000  1.0
  Li  Li1  1  0.74998000  0.50000000  0.12720000  1.0
  Li  Li2  1  0.00000000  0.00000000  0.04240000  1.0
  Li  Li3  1  0.25002000  0.50000000  0.12720000  1.0
  Li  Li4  1  0.00000000  0.25000000  0.12720000  1.0
  Li  Li5  1  0.50000000  0.25000000  0.12720000  1.0
  Li  Li6  1  0.24998000  0.75000000  0.04240000  1.0
  Li  Li7  1  0.75002000  0.75000000  0.04240000  1.0
  Li  Li8  1  0.00000000  0.02504000  0.87749000  1.0
  Li  Li9  1  0.24954000  0.49371000  0.95670000  1.0
  Li  Li10  1  0.50000000  0.96230000  0.87129000  1.0
  Li  Li11  1  0.75046000  0.49371000  0.95670000  1.0
  Li  Li12  1  0.50000000  0.24901000  0.95829000  1.0
  Li  Li13  1  0.00000000  0.24694000  0.96248000  1.0
  Li  Li14  1  0.76605000  0.72518000  0.87173000  1.0
  Li  Li15  1  0.23395000  0.72518000  0.87173000  1.0
  In  In16  1  0.74998000  0.25000000  0.04240000  1.0
  In  In17  1  0.25002000  0.25000000  0.04240000  1.0
  In  In18  1  0.50000000  0.75000000  0.12720000  1.0
  In  In19  1  0.00000000  0.75000000  0.12720000  1.0
  In  In20  1  0.25999000  0.25232000  0.86623000  1.0
  In  In21  1  0.74001000  0.25232000  0.86623000  1.0
  In  In22  1  0.00000000  0.75335000  0.95859000  1.0
  In  In23  1  0.50000000  0.75741000  0.96028000  1.0
  Pt  Pt24  1  0.74998000  0.00000000  0.12720000  1.0
  Pt  Pt25  1  0.00000000  0.50000000  0.04240000  1.0
  Pt  Pt26  1  0.50000000  0.50000000  0.04240000  1.0
  Pt  Pt27  1  0.25002000  0.00000000  0.12720000  1.0
  Pt  Pt28  1  0.24911000  0.00403000  0.95463000  1.0
  Pt  Pt29  1  0.50000000  0.50322000  0.88074000  1.0
  Pt  Pt30  1  0.00000000  0.46468000  0.88393000  1.0
  Pt  Pt31  1  0.75089000  0.00403000  0.95463000  1.0
  C  C32  1  0.00000000  0.88970000  0.80737000  1.0
  O  O33  1  0.00000000  0.83877000  0.76632000  1.0
