# generated using pymatgen
data_Li16In8Pt8CO
_symmetry_space_group_name_H-M   Pm
_cell_length_a   6.43375000
_cell_length_b   9.09870000
_cell_length_c   26.82400000
_cell_angle_alpha   90.00000000
_cell_angle_beta   90.00000000
_cell_angle_gamma   90.00000000
_symmetry_Int_Tables_number   6
_chemical_formula_structural   Li16In8Pt8CO
_chemical_formula_sum   'Li16 In8 Pt8 C1 O1'
_cell_volume   1570.24372842
_cell_formula_units_Z   1
loop_
 _symmetry_equiv_pos_site_id
 _symmetry_equiv_pos_as_xyz
  1  'x, y, z'
  2  'x, -y, z'
loop_
 _atom_site_type_symbol
 _atom_site_label
 _atom_site_symmetry_multiplicity
 _atom_site_fract_x
 _atom_site_fract_y
 _atom_site_fract_z
 _atom_site_occupancy
  Li  Li0  2  0.49371000  0.24954000  0.04330000  1.0
  Li  Li1  2  0.50000000  0.25002000  0.87280000  1.0
  Li  Li2  2  0.72518000  0.23395000  0.12827000  1.0
  Li  Li3  2  0.75000000  0.24998000  0.95760000  1.0
  Li  Li4  1  -0.00000000  0.50000000  0.95760000  1.0
  Li  Li5  1  0.00000000  0.00000000  0.95760000  1.0
  Li  Li6  1  0.02504000  0.00000000  0.12251000  1.0
  Li  Li7  1  0.24694000  0.00000000  0.03752000  1.0
  Li  Li8  1  0.24901000  0.50000000  0.04171000  1.0
  Li  Li9  1  0.25000000  0.00000000  0.87280000  1.0
  Li  Li10  1  0.25000000  0.50000000  0.87280000  1.0
  Li  Li11  1  0.96230000  0.50000000  0.12871000  1.0
  In  In12  2  0.25000000  0.25002000  0.95760000  1.0
  In  In13  2  0.25232000  0.25999000  0.13377000  1.0
  In  In14  1  0.75000000  0.00000000  0.87280000  1.0
  In  In15  1  0.75000000  0.50000000  0.87280000  1.0
  In  In16  1  0.75335000  0.00000000  0.04141000  1.0
  In  In17  1  0.75741000  0.50000000  0.03972000  1.0
  Pt  Pt18  2  0.00000000  0.25002000  0.87280000  1.0
  Pt  Pt19  2  0.00403000  0.24911000  0.04537000  1.0
  Pt  Pt20  1  0.46468000  0.00000000  0.11607000  1.0
  Pt  Pt21  1  0.50000000  0.00000000  0.95760000  1.0
  Pt  Pt22  1  0.50000000  0.50000000  0.95760000  1.0
  Pt  Pt23  1  0.50322000  0.50000000  0.11926000  1.0
  C  C24  1  0.88970000  0.00000000  0.19263000  1.0
  O  O25  1  0.83877000  0.00000000  0.23368000  1.0
