# generated using pymatgen
data_Li8Al8Cu8Ag8CO
_symmetry_space_group_name_H-M   Pm
_cell_length_a   6.15237000
_cell_length_b   8.70076000
_cell_length_c   26.52560000
_cell_angle_alpha   90.00000000
_cell_angle_beta   90.00000000
_cell_angle_gamma   90.00000000
_symmetry_Int_Tables_number   6
_chemical_formula_structural   Li8Al8Cu8Ag8CO
_chemical_formula_sum   'Li8 Al8 Cu8 Ag8 C1 O1'
_cell_volume   1419.92318778
_cell_formula_units_Z   1
loop_
 _symmetry_equiv_pos_site_id
 _symmetry_equiv_pos_as_xyz
  1  'x, y, z'
  2  'x, -y, z'
loop_
 _atom_site_type_symbol
 _atom_site_label
 _atom_site_symmetry_multiplicity
 _atom_site_fract_x
 _atom_site_fract_y
 _atom_site_fract_z
 _atom_site_occupancy
  Li  Li0  2  0.25000000  0.25000000  0.87699000  1.0
  Li  Li1  2  0.25332000  0.24699000  0.03836000  1.0
  Li  Li2  1  0.75000000  0.00000000  0.95900000  1.0
  Li  Li3  1  0.75000000  0.50000000  0.95900000  1.0
  Li  Li4  1  0.75370000  0.00000000  0.12993000  1.0
  Li  Li5  1  0.75968000  0.50000000  0.12996000  1.0
  Al  Al6  2  0.74660000  0.25480000  0.04139000  1.0
  Al  Al7  2  0.75000000  0.25000000  0.87699000  1.0
  Al  Al8  1  0.23526000  0.50000000  0.12675000  1.0
  Al  Al9  1  0.24271000  0.00000000  0.12225000  1.0
  Al  Al10  1  0.25000000  0.00000000  0.95900000  1.0
  Al  Al11  1  0.25000000  0.50000000  0.95900000  1.0
  Cu  Cu12  2  -0.00000000  0.25000000  0.95900000  1.0
  Cu  Cu13  2  0.01535000  0.25305000  0.11568000  1.0
  Cu  Cu14  1  0.49524000  0.50000000  0.04256000  1.0
  Cu  Cu15  1  0.50000000  0.00000000  0.87699000  1.0
  Cu  Cu16  1  0.50000000  0.50000000  0.87699000  1.0
  Cu  Cu17  1  0.50864000  0.00000000  0.04293000  1.0
  Ag  Ag18  2  0.48824000  0.25558000  0.12212000  1.0
  Ag  Ag19  2  0.50000000  0.25000000  0.95900000  1.0
  Ag  Ag20  1  -0.00000000  0.50000000  0.87699000  1.0
  Ag  Ag21  1  0.00000000  0.00000000  0.87699000  1.0
  Ag  Ag22  1  0.00404000  0.50000000  0.04085000  1.0
  Ag  Ag23  1  0.98985000  0.00000000  0.04181000  1.0
  C  C24  1  0.24352000  0.00000000  0.19686000  1.0
  O  O25  1  0.24259000  0.00000000  0.24047000  1.0
