# generated using pymatgen
data_Li8Mg8In8Pd8C
_symmetry_space_group_name_H-M   Pm
_cell_length_a   6.52273000
_cell_length_b   9.22454000
_cell_length_c   26.91840000
_cell_angle_alpha   90.00000000
_cell_angle_beta   90.00000000
_cell_angle_gamma   90.00000000
_symmetry_Int_Tables_number   6
_chemical_formula_structural   Li8Mg8In8Pd8C
_chemical_formula_sum   'Li8 Mg8 In8 Pd8 C1'
_cell_volume   1619.65815705
_cell_formula_units_Z   1
loop_
 _symmetry_equiv_pos_site_id
 _symmetry_equiv_pos_as_xyz
  1  'x, y, z'
  2  'x, -y, z'
loop_
 _atom_site_type_symbol
 _atom_site_label
 _atom_site_symmetry_multiplicity
 _atom_site_fract_x
 _atom_site_fract_y
 _atom_site_fract_z
 _atom_site_occupancy
  Li  Li0  2  0.74227000  0.24797000  0.04692000  1.0
  Li  Li1  2  0.75000000  0.25000000  0.87149000  1.0
  Li  Li2  1  0.20246000  0.00000000  0.14364000  1.0
  Li  Li3  1  0.25000000  0.00000000  0.95716000  1.0
  Li  Li4  1  0.25000000  0.50000000  0.95716000  1.0
  Li  Li5  1  0.28515000  0.50000000  0.13443000  1.0
  Mg  Mg6  2  -0.00000000  0.25000000  0.95716000  1.0
  Mg  Mg7  2  0.98305000  0.26906000  0.13328000  1.0
  Mg  Mg8  1  0.48408000  0.00000000  0.04820000  1.0
  Mg  Mg9  1  0.49495000  0.50000000  0.04095000  1.0
  Mg  Mg10  1  0.50000000  0.00000000  0.87149000  1.0
  Mg  Mg11  1  0.50000000  0.50000000  0.87149000  1.0
  In  In12  2  0.48976000  0.24302000  0.14234000  1.0
  In  In13  2  0.50000000  0.25000000  0.95716000  1.0
  In  In14  1  -0.00000000  0.50000000  0.87149000  1.0
  In  In15  1  0.00000000  0.00000000  0.87149000  1.0
  In  In16  1  0.01595000  0.00000000  0.03961000  1.0
  In  In17  1  0.99545000  0.50000000  0.04491000  1.0
  Pd  Pd18  2  0.24867000  0.25710000  0.04320000  1.0
  Pd  Pd19  2  0.25000000  0.25000000  0.87149000  1.0
  Pd  Pd20  1  0.71877000  0.50000000  0.12361000  1.0
  Pd  Pd21  1  0.75000000  0.00000000  0.95716000  1.0
  Pd  Pd22  1  0.75000000  0.50000000  0.95716000  1.0
  Pd  Pd23  1  0.80510000  0.00000000  0.12339000  1.0
  C  C24  1  0.50175000  0.00000000  0.13394000  1.0
