# generated using pymatgen
data_Zn4Pt12C
_symmetry_space_group_name_H-M   Pm
_cell_length_a   5.59226000
_cell_length_b   7.90864000
_cell_length_c   24.19420000
_cell_angle_alpha   90.00000000
_cell_angle_beta   90.00000000
_cell_angle_gamma   90.00000000
_symmetry_Int_Tables_number   6
_chemical_formula_structural   Zn4Pt12C
_chemical_formula_sum   'Zn4 Pt12 C1'
_cell_volume   1070.04102367
_cell_formula_units_Z   1
loop_
 _symmetry_equiv_pos_site_id
 _symmetry_equiv_pos_as_xyz
  1  'x, y, z'
  2  'x, -y, z'
loop_
 _atom_site_type_symbol
 _atom_site_label
 _atom_site_symmetry_multiplicity
 _atom_site_fract_x
 _atom_site_fract_y
 _atom_site_fract_z
 _atom_site_occupancy
  Zn  Zn0  2  0.00097000  0.23462000  0.91711000  1.0
  Zn  Zn1  2  0.50000000  0.25000000  0.02889000  1.0
  Pt  Pt2  2  0.00000000  0.25000000  0.02889000  1.0
  Pt  Pt3  2  0.50040000  0.24940000  0.91245000  1.0
  Pt  Pt4  1  0.24249000  0.50000000  0.96746000  1.0
  Pt  Pt5  1  0.25000000  0.00000000  0.08668000  1.0
  Pt  Pt6  1  0.25000000  0.50000000  0.08668000  1.0
  Pt  Pt7  1  0.25207000  0.00000000  0.96754000  1.0
  Pt  Pt8  1  0.74846000  0.00000000  0.96758000  1.0
  Pt  Pt9  1  0.75000000  0.00000000  0.08668000  1.0
  Pt  Pt10  1  0.75000000  0.50000000  0.08668000  1.0
  Pt  Pt11  1  0.76206000  0.50000000  0.96671000  1.0
  C  C12  1  0.50090000  0.50000000  0.90872000  1.0
