# generated using pymatgen
data_Y4Al4In4Pd4CO
_symmetry_space_group_name_H-M   Pm
_cell_length_a   6.02485000
_cell_length_b   9.21652000
_cell_length_c   24.50330000
_cell_angle_alpha   90.00000000
_cell_angle_beta   90.00000000
_cell_angle_gamma   90.00000000
_symmetry_Int_Tables_number   6
_chemical_formula_structural   Y4Al4In4Pd4CO
_chemical_formula_sum   'Y4 Al4 In4 Pd4 C1 O1'
_cell_volume   1360.62293069
_cell_formula_units_Z   1
loop_
 _symmetry_equiv_pos_site_id
 _symmetry_equiv_pos_as_xyz
  1  'x, y, z'
  2  'x, -y, z'
loop_
 _atom_site_type_symbol
 _atom_site_label
 _atom_site_symmetry_multiplicity
 _atom_site_fract_x
 _atom_site_fract_y
 _atom_site_fract_z
 _atom_site_occupancy
  Y  Y0  2  0.21832000  0.24869000  0.02812000  1.0
  Y  Y1  2  0.68818000  0.25000000  0.90811000  1.0
  Al  Al2  1  0.45879000  0.00000000  0.96937000  1.0
  Al  Al3  1  0.45879000  0.50000000  0.96937000  1.0
  Al  Al4  1  0.93123000  0.50000000  0.08286000  1.0
  Al  Al5  1  0.94278000  0.00000000  0.08747000  1.0
  In  In6  1  0.47714000  0.50000000  0.09273000  1.0
  In  In7  1  0.48472000  0.00000000  0.09102000  1.0
  In  In8  1  0.95879000  0.00000000  0.96937000  1.0
  In  In9  1  0.95879000  0.50000000  0.96937000  1.0
  Pd  Pd10  2  0.18818000  0.25000000  0.90811000  1.0
  Pd  Pd11  2  0.72627000  0.24959000  0.03810000  1.0
  C  C12  1  0.96370000  0.00000000  0.16952000  1.0
  O  O13  1  0.97691000  0.00000000  0.21652000  1.0
