# generated using pymatgen
data_Zn16Pd16CO
_symmetry_space_group_name_H-M   'P 1'
_cell_length_a   6.89988000
_cell_length_b   8.19602000
_cell_length_c   26.14700000
_cell_angle_alpha   90.00000000
_cell_angle_beta   90.00000000
_cell_angle_gamma   90.00000000
_symmetry_Int_Tables_number   1
_chemical_formula_structural   Zn16Pd16CO
_chemical_formula_sum   'Zn16 Pd16 C1 O1'
_cell_volume   1478.65349493
_cell_formula_units_Z   1
loop_
 _symmetry_equiv_pos_site_id
 _symmetry_equiv_pos_as_xyz
  1  'x, y, z'
loop_
 _atom_site_type_symbol
 _atom_site_label
 _atom_site_symmetry_multiplicity
 _atom_site_fract_x
 _atom_site_fract_y
 _atom_site_fract_z
 _atom_site_occupancy
  Zn  Zn0  1  0.00000000  0.25000000  0.11755000  1.0
  Zn  Zn1  1  0.00000000  0.50000000  0.03918000  1.0
  Zn  Zn2  1  0.00000000  0.25000000  0.96082000  1.0
  Zn  Zn3  1  0.00000000  0.50000000  0.88245000  1.0
  Zn  Zn4  1  0.50000000  0.25000000  0.11755000  1.0
  Zn  Zn5  1  0.50000000  0.50000000  0.03918000  1.0
  Zn  Zn6  1  0.50000000  0.25000000  0.96082000  1.0
  Zn  Zn7  1  0.50000000  0.50000000  0.88245000  1.0
  Zn  Zn8  1  0.00000000  0.75000000  0.11755000  1.0
  Zn  Zn9  1  0.00000000  0.00000000  0.03918000  1.0
  Zn  Zn10  1  0.00000000  0.75000000  0.96082000  1.0
  Zn  Zn11  1  0.00000000  0.00000000  0.88245000  1.0
  Zn  Zn12  1  0.50000000  0.75000000  0.11755000  1.0
  Zn  Zn13  1  0.50000000  0.00000000  0.03918000  1.0
  Zn  Zn14  1  0.50000000  0.75000000  0.96082000  1.0
  Zn  Zn15  1  0.50000000  0.00000000  0.88245000  1.0
  Pd  Pd16  1  0.75000000  0.00000000  0.11755000  1.0
  Pd  Pd17  1  0.75000000  0.25000000  0.03918000  1.0
  Pd  Pd18  1  0.75000000  0.50000000  0.96082000  1.0
  Pd  Pd19  1  0.75000000  0.25000000  0.88245000  1.0
  Pd  Pd20  1  0.25000000  0.00000000  0.11755000  1.0
  Pd  Pd21  1  0.25000000  0.25000000  0.03918000  1.0
  Pd  Pd22  1  0.25000000  0.50000000  0.96082000  1.0
  Pd  Pd23  1  0.25000000  0.25000000  0.88245000  1.0
  Pd  Pd24  1  0.75000000  0.50000000  0.11755000  1.0
  Pd  Pd25  1  0.75000000  0.75000000  0.03918000  1.0
  Pd  Pd26  1  0.75000000  0.00000000  0.96082000  1.0
  Pd  Pd27  1  0.75000000  0.75000000  0.88245000  1.0
  Pd  Pd28  1  0.25000000  0.50000000  0.11755000  1.0
  Pd  Pd29  1  0.25000000  0.75000000  0.03918000  1.0
  Pd  Pd30  1  0.25000000  0.00000000  0.96082000  1.0
  Pd  Pd31  1  0.25000000  0.75000000  0.88245000  1.0
  C  C32  1  0.00000000  0.00000000  0.80979000  1.0
  O  O33  1  0.00000000  0.00000000  0.76580000  1.0
