# generated using pymatgen
data_V24Au8C
_symmetry_space_group_name_H-M   'P 1'
_cell_length_a   7.78093000
_cell_length_b   7.78093000
_cell_length_c   25.83570000
_cell_angle_alpha   90.00000000
_cell_angle_beta   90.00000000
_cell_angle_gamma   90.00000000
_symmetry_Int_Tables_number   1
_chemical_formula_structural   V24Au8C
_chemical_formula_sum   'V24 Au8 C1'
_cell_volume   1564.16746947
_cell_formula_units_Z   1
loop_
 _symmetry_equiv_pos_site_id
 _symmetry_equiv_pos_as_xyz
  1  'x, y, z'
loop_
 _atom_site_type_symbol
 _atom_site_label
 _atom_site_symmetry_multiplicity
 _atom_site_fract_x
 _atom_site_fract_y
 _atom_site_fract_z
 _atom_site_occupancy
  V  V0  1  0.75000000  0.00000000  0.96235000  1.0
  V  V1  1  0.00000000  0.75000000  0.96235000  1.0
  V  V2  1  0.00000000  0.00000000  0.88706000  1.0
  V  V3  1  0.75000000  0.00000000  0.11294000  1.0
  V  V4  1  0.00000000  0.75000000  0.11294000  1.0
  V  V5  1  0.00000000  0.00000000  0.03765000  1.0
  V  V6  1  0.75000000  0.50000000  0.96235000  1.0
  V  V7  1  0.00000000  0.25000000  0.96235000  1.0
  V  V8  1  0.00000000  0.50000000  0.88706000  1.0
  V  V9  1  0.75000000  0.50000000  0.11294000  1.0
  V  V10  1  0.00000000  0.25000000  0.11294000  1.0
  V  V11  1  0.00000000  0.50000000  0.03765000  1.0
  V  V12  1  0.25000000  0.00000000  0.96235000  1.0
  V  V13  1  0.50000000  0.75000000  0.96235000  1.0
  V  V14  1  0.50000000  0.00000000  0.88706000  1.0
  V  V15  1  0.25000000  0.00000000  0.11294000  1.0
  V  V16  1  0.50000000  0.75000000  0.11294000  1.0
  V  V17  1  0.50000000  0.00000000  0.03765000  1.0
  V  V18  1  0.25000000  0.50000000  0.96235000  1.0
  V  V19  1  0.50000000  0.25000000  0.96235000  1.0
  V  V20  1  0.50000000  0.50000000  0.88706000  1.0
  V  V21  1  0.25000000  0.50000000  0.11294000  1.0
  V  V22  1  0.50000000  0.25000000  0.11294000  1.0
  V  V23  1  0.50000000  0.50000000  0.03765000  1.0
  Au  Au24  1  0.75000000  0.75000000  0.88706000  1.0
  Au  Au25  1  0.75000000  0.75000000  0.03765000  1.0
  Au  Au26  1  0.75000000  0.25000000  0.88706000  1.0
  Au  Au27  1  0.75000000  0.25000000  0.03765000  1.0
  Au  Au28  1  0.25000000  0.75000000  0.88706000  1.0
  Au  Au29  1  0.25000000  0.75000000  0.03765000  1.0
  Au  Au30  1  0.25000000  0.25000000  0.88706000  1.0
  Au  Au31  1  0.25000000  0.25000000  0.03765000  1.0
  C  C32  1  0.00000000  0.00000000  0.14390000  1.0
