# generated using pymatgen
data_Ca4Pb12C
_symmetry_space_group_name_H-M   P1
_cell_length_a   7.10117000
_cell_length_b   10.04260000
_cell_length_c   25.32590000
_cell_angle_alpha   90.00000000
_cell_angle_beta   90.00000000
_cell_angle_gamma   90.00000000
_symmetry_Int_Tables_number   1
_chemical_formula_structural   Ca4Pb12C
_chemical_formula_sum   'Ca4 Pb12 C1'
_cell_volume   1806.09654704
_cell_formula_units_Z   1
loop_
 _symmetry_equiv_pos_site_id
 _symmetry_equiv_pos_as_xyz
  1  'x, y, z'
loop_
 _atom_site_type_symbol
 _atom_site_label
 _atom_site_symmetry_multiplicity
 _atom_site_fract_x
 _atom_site_fract_y
 _atom_site_fract_z
 _atom_site_occupancy
  Ca  Ca0  1  0.00000000  0.00000000  0.10515000  1.0
  Ca  Ca1  1  0.00000000  0.50000000  0.10515000  1.0
  Ca  Ca2  1  0.50002000  0.50000000  0.96596000  1.0
  Ca  Ca3  1  0.50006000  0.99999000  0.97102000  1.0
  Pb  Pb4  1  0.00001000  0.00004000  0.97619000  1.0
  Pb  Pb5  1  0.22145000  0.19904000  0.89048000  1.0
  Pb  Pb6  1  0.22146000  0.80099000  0.89051000  1.0
  Pb  Pb7  1  0.25000000  0.25000000  0.03505000  1.0
  Pb  Pb8  1  0.25000000  0.75000000  0.03505000  1.0
  Pb  Pb9  1  0.50000000  -0.00000000  0.10515000  1.0
  Pb  Pb10  1  0.50000000  0.50000000  0.10515000  1.0
  Pb  Pb11  1  0.75000000  0.25000000  0.03505000  1.0
  Pb  Pb12  1  0.75000000  0.75000000  0.03505000  1.0
  Pb  Pb13  1  0.77851000  0.19915000  0.89050000  1.0
  Pb  Pb14  1  0.77859000  0.80091000  0.89049000  1.0
  Pb  Pb15  1  0.99998000  0.49991000  0.95075000  1.0
  C  C16  1  0.99985000  0.00008000  0.87947000  1.0
