data_image0
_chemical_formula_structural       V16Os16CO
_chemical_formula_sum              "V16 Os16 C1 O1"
_cell_length_a       6.04788
_cell_length_b       8.55299
_cell_length_c       26.4147
_cell_angle_alpha    90
_cell_angle_beta     90
_cell_angle_gamma    90

_space_group_name_H-M_alt    "P 1"
_space_group_IT_number       1

loop_
  _space_group_symop_operation_xyz
  'x, y, z'

loop_
  _atom_site_type_symbol
  _atom_site_label
  _atom_site_symmetry_multiplicity
  _atom_site_fract_x
  _atom_site_fract_y
  _atom_site_fract_z
  _atom_site_occupancy
  V   V1        1.0  0.00000  0.00000  0.87858  1.0000
  V   V2        1.0  0.00000  0.25000  0.95953  1.0000
  V   V3        1.0  1.00000  0.00175  0.04240  1.0000
  V   V4        1.0  1.00000  0.25000  0.12774  1.0000
  V   V5        1.0  0.00000  0.50000  0.87858  1.0000
  V   V6        1.0  0.00000  0.75000  0.95953  1.0000
  V   V7        1.0  0.00000  0.49825  0.04240  1.0000
  V   V8        1.0  1.00000  0.75000  0.12671  1.0000
  V   V9        1.0  0.50000  0.00000  0.87858  1.0000
  V   V10       1.0  0.50000  0.25000  0.95953  1.0000
  V   V11       1.0  0.50000  0.99896  0.04276  1.0000
  V   V12       1.0  0.50000  0.25000  0.12448  1.0000
  V   V13       1.0  0.50000  0.50000  0.87858  1.0000
  V   V14       1.0  0.50000  0.75000  0.95953  1.0000
  V   V15       1.0  0.50000  0.50104  0.04276  1.0000
  V   V16       1.0  0.50000  0.75000  0.12716  1.0000
  Os  Os1       1.0  0.25000  0.25000  0.87858  1.0000
  Os  Os2       1.0  0.25000  0.00000  0.95953  1.0000
  Os  Os3       1.0  0.25103  0.25000  0.04171  1.0000
  Os  Os4       1.0  0.24902  0.50235  0.11708  1.0000
  Os  Os5       1.0  0.25000  0.75000  0.87858  1.0000
  Os  Os6       1.0  0.25000  0.50000  0.95953  1.0000
  Os  Os7       1.0  0.24992  0.75000  0.04295  1.0000
  Os  Os8       1.0  0.24902  0.99765  0.11708  1.0000
  Os  Os9       1.0  0.75000  0.25000  0.87858  1.0000
  Os  Os10      1.0  0.75000  0.00000  0.95953  1.0000
  Os  Os11      1.0  0.74897  0.25000  0.04171  1.0000
  Os  Os12      1.0  0.75098  0.50235  0.11708  1.0000
  Os  Os13      1.0  0.75000  0.75000  0.87858  1.0000
  Os  Os14      1.0  0.75000  0.50000  0.95953  1.0000
  Os  Os15      1.0  0.75008  0.75000  0.04295  1.0000
  Os  Os16      1.0  0.75098  0.99765  0.11708  1.0000
  C   C1        1.0  1.00000  0.25000  0.20344  1.0000
  O   O1        1.0  1.00000  0.25000  0.24714  1.0000
