# generated using pymatgen
data_V16Os16CO
_symmetry_space_group_name_H-M   'P 1'
_cell_length_a   6.04788000
_cell_length_b   8.55299000
_cell_length_c   26.41470000
_cell_angle_alpha   90.00000000
_cell_angle_beta   90.00000000
_cell_angle_gamma   90.00000000
_symmetry_Int_Tables_number   1
_chemical_formula_structural   V16Os16CO
_chemical_formula_sum   'V16 Os16 C1 O1'
_cell_volume   1366.36526268
_cell_formula_units_Z   1
loop_
 _symmetry_equiv_pos_site_id
 _symmetry_equiv_pos_as_xyz
  1  'x, y, z'
loop_
 _atom_site_type_symbol
 _atom_site_label
 _atom_site_symmetry_multiplicity
 _atom_site_fract_x
 _atom_site_fract_y
 _atom_site_fract_z
 _atom_site_occupancy
  V  V0  1  0.00000000  0.75000000  0.87858000  1.0
  V  V1  1  0.00000000  0.00000000  0.95953000  1.0
  V  V2  1  0.00000000  0.75175000  0.04240000  1.0
  V  V3  1  0.00000000  0.00000000  0.12774000  1.0
  V  V4  1  0.00000000  0.25000000  0.87858000  1.0
  V  V5  1  0.00000000  0.50000000  0.95953000  1.0
  V  V6  1  0.00000000  0.24825000  0.04240000  1.0
  V  V7  1  0.00000000  0.50000000  0.12671000  1.0
  V  V8  1  0.50000000  0.75000000  0.87858000  1.0
  V  V9  1  0.50000000  0.00000000  0.95953000  1.0
  V  V10  1  0.50000000  0.74896000  0.04276000  1.0
  V  V11  1  0.50000000  0.00000000  0.12448000  1.0
  V  V12  1  0.50000000  0.25000000  0.87858000  1.0
  V  V13  1  0.50000000  0.50000000  0.95953000  1.0
  V  V14  1  0.50000000  0.25104000  0.04276000  1.0
  V  V15  1  0.50000000  0.50000000  0.12716000  1.0
  Os  Os16  1  0.25000000  0.00000000  0.87858000  1.0
  Os  Os17  1  0.25000000  0.75000000  0.95953000  1.0
  Os  Os18  1  0.25103000  0.00000000  0.04171000  1.0
  Os  Os19  1  0.24902000  0.25235000  0.11708000  1.0
  Os  Os20  1  0.25000000  0.50000000  0.87858000  1.0
  Os  Os21  1  0.25000000  0.25000000  0.95953000  1.0
  Os  Os22  1  0.24992000  0.50000000  0.04295000  1.0
  Os  Os23  1  0.24902000  0.74765000  0.11708000  1.0
  Os  Os24  1  0.75000000  0.00000000  0.87858000  1.0
  Os  Os25  1  0.75000000  0.75000000  0.95953000  1.0
  Os  Os26  1  0.74897000  0.00000000  0.04171000  1.0
  Os  Os27  1  0.75098000  0.25235000  0.11708000  1.0
  Os  Os28  1  0.75000000  0.50000000  0.87858000  1.0
  Os  Os29  1  0.75000000  0.25000000  0.95953000  1.0
  Os  Os30  1  0.75008000  0.50000000  0.04295000  1.0
  Os  Os31  1  0.75098000  0.74765000  0.11708000  1.0
  C  C32  1  0.00000000  0.00000000  0.20344000  1.0
  O  O33  1  0.00000000  0.00000000  0.24714000  1.0
