# generated using pymatgen
data_Li8Mg8Al8Pd8CO
_symmetry_space_group_name_H-M   'P 1'
_cell_length_a   6.28130000
_cell_length_b   8.88310000
_cell_length_c   26.66230000
_cell_angle_alpha   90.00000000
_cell_angle_beta   90.00000000
_cell_angle_gamma   90.00000000
_symmetry_Int_Tables_number   1
_chemical_formula_structural   Li8Mg8Al8Pd8CO
_chemical_formula_sum   'Li8 Mg8 Al8 Pd8 C1 O1'
_cell_volume   1487.68744542
_cell_formula_units_Z   1
loop_
 _symmetry_equiv_pos_site_id
 _symmetry_equiv_pos_as_xyz
  1  'x, y, z'
loop_
 _atom_site_type_symbol
 _atom_site_label
 _atom_site_symmetry_multiplicity
 _atom_site_fract_x
 _atom_site_fract_y
 _atom_site_fract_z
 _atom_site_occupancy
  Li  Li0  1  0.25000000  0.00000000  0.95835000  1.0
  Li  Li1  1  0.25000000  0.50000000  0.95835000  1.0
  Li  Li2  1  0.75000000  0.25000000  0.87506000  1.0
  Li  Li3  1  0.75000000  0.75000000  0.87506000  1.0
  Li  Li4  1  0.28263000  0.50189000  0.14026000  1.0
  Li  Li5  1  0.28242000  0.99808000  0.14037000  1.0
  Li  Li6  1  0.75459000  0.74991000  0.03996000  1.0
  Li  Li7  1  0.75454000  0.24988000  0.03993000  1.0
  Mg  Mg8  1  0.00000000  0.25000000  0.95835000  1.0
  Mg  Mg9  1  0.00000000  0.75000000  0.95835000  1.0
  Mg  Mg10  1  0.50000000  0.50000000  0.87506000  1.0
  Mg  Mg11  1  0.50000000  0.00000000  0.87506000  1.0
  Mg  Mg12  1  0.99508000  0.74990000  0.12803000  1.0
  Mg  Mg13  1  0.99291000  0.24997000  0.12685000  1.0
  Mg  Mg14  1  0.49141000  0.00000000  0.04125000  1.0
  Mg  Mg15  1  0.49130000  0.49979000  0.04122000  1.0
  Al  Al16  1  0.00000000  0.00000000  0.87506000  1.0
  Al  Al17  1  0.00000000  0.50000000  0.87506000  1.0
  Al  Al18  1  0.50000000  0.75000000  0.95835000  1.0
  Al  Al19  1  0.50000000  0.25000000  0.95835000  1.0
  Al  Al20  1  0.00662000  0.50136000  0.04407000  1.0
  Al  Al21  1  0.00675000  0.99835000  0.04412000  1.0
  Al  Al22  1  0.51933000  0.24979000  0.12114000  1.0
  Al  Al23  1  0.52155000  0.75016000  0.12247000  1.0
  Pd  Pd24  1  0.75000000  0.00000000  0.95835000  1.0
  Pd  Pd25  1  0.75000000  0.50000000  0.95835000  1.0
  Pd  Pd26  1  0.25000000  0.25000000  0.87506000  1.0
  Pd  Pd27  1  0.25000000  0.75000000  0.87506000  1.0
  Pd  Pd28  1  0.74338000  0.50137000  0.11878000  1.0
  Pd  Pd29  1  0.74301000  0.99847000  0.11868000  1.0
  Pd  Pd30  1  0.25014000  0.74996000  0.04136000  1.0
  Pd  Pd31  1  0.24740000  0.24994000  0.04257000  1.0
  C  C32  1  0.39174000  0.24999000  0.18856000  1.0
  O  O33  1  0.35300000  0.25001000  0.23176000  1.0
