# generated using pymatgen
data_Cu8Ni16Sb8CO
_symmetry_space_group_name_H-M   P1
_cell_length_a   6.01864000
_cell_length_b   8.51164000
_cell_length_c   26.38370000
_cell_angle_alpha   90.00000000
_cell_angle_beta   90.00000000
_cell_angle_gamma   90.00000000
_symmetry_Int_Tables_number   1
_chemical_formula_structural   Cu8Ni16Sb8CO
_chemical_formula_sum   'Cu8 Ni16 Sb8 C1 O1'
_cell_volume   1351.59729550
_cell_formula_units_Z   1
loop_
 _symmetry_equiv_pos_site_id
 _symmetry_equiv_pos_as_xyz
  1  'x, y, z'
loop_
 _atom_site_type_symbol
 _atom_site_label
 _atom_site_symmetry_multiplicity
 _atom_site_fract_x
 _atom_site_fract_y
 _atom_site_fract_z
 _atom_site_occupancy
  Cu  Cu0  1  0.00000000  0.00000000  0.87902000  1.0
  Cu  Cu1  1  0.00000000  0.00102000  0.03578000  1.0
  Cu  Cu2  1  0.00000000  0.49898000  0.03579000  1.0
  Cu  Cu3  1  0.00000000  0.50000000  0.87902000  1.0
  Cu  Cu4  1  0.50000000  0.25000000  0.95967000  1.0
  Cu  Cu5  1  0.50000000  0.25030000  0.12018000  1.0
  Cu  Cu6  1  0.50000000  0.74971000  0.12068000  1.0
  Cu  Cu7  1  0.50000000  0.75000000  0.95967000  1.0
  Ni  Ni8  1  0.22909000  0.74982000  0.04621000  1.0
  Ni  Ni9  1  0.23046000  0.50008000  0.11266000  1.0
  Ni  Ni10  1  0.23060000  0.99991000  0.11265000  1.0
  Ni  Ni11  1  0.23695000  0.25018000  0.04447000  1.0
  Ni  Ni12  1  0.25000000  0.00000000  0.95967000  1.0
  Ni  Ni13  1  0.25000000  0.25000000  0.87902000  1.0
  Ni  Ni14  1  0.25000000  0.50000000  0.95967000  1.0
  Ni  Ni15  1  0.25000000  0.75000000  0.87902000  1.0
  Ni  Ni16  1  0.75000000  0.00000000  0.95967000  1.0
  Ni  Ni17  1  0.75000000  0.25000000  0.87902000  1.0
  Ni  Ni18  1  0.75000000  0.50000000  0.95967000  1.0
  Ni  Ni19  1  0.75000000  0.75000000  0.87902000  1.0
  Ni  Ni20  1  0.76305000  0.25018000  0.04447000  1.0
  Ni  Ni21  1  0.76940000  0.99991000  0.11265000  1.0
  Ni  Ni22  1  0.76954000  0.50007000  0.11267000  1.0
  Ni  Ni23  1  0.77091000  0.74982000  0.04621000  1.0
  Sb  Sb24  1  0.00000000  0.24995000  0.13335000  1.0
  Sb  Sb25  1  0.00000000  0.25000000  0.95967000  1.0
  Sb  Sb26  1  0.00000000  0.75000000  0.95967000  1.0
  Sb  Sb27  1  0.00000000  0.75003000  0.13611000  1.0
  Sb  Sb28  1  0.50000000  0.00000000  0.87902000  1.0
  Sb  Sb29  1  0.50000000  0.50000000  0.87902000  1.0
  Sb  Sb30  1  0.50000000  0.50201000  0.03955000  1.0
  Sb  Sb31  1  0.50000000  0.99801000  0.03956000  1.0
  C  C32  1  0.00008000  0.24993000  0.29038000  1.0
  O  O33  1  0.99999000  0.25003000  0.33338000  1.0
