data_image0
_chemical_formula_structural       Zr4In4Cu8
_chemical_formula_sum              "Zr4 In4 Cu8"
_cell_length_a       6.47982
_cell_length_b       6.47982
_cell_length_c       24.8599
_cell_angle_alpha    90
_cell_angle_beta     90
_cell_angle_gamma    90

_space_group_name_H-M_alt    "P 1"
_space_group_IT_number       1

loop_
  _space_group_symop_operation_xyz
  'x, y, z'

loop_
  _atom_site_type_symbol
  _atom_site_label
  _atom_site_symmetry_multiplicity
  _atom_site_fract_x
  _atom_site_fract_y
  _atom_site_fract_z
  _atom_site_occupancy
  Zr  Zr1       1.0  0.00000  0.00000  0.09775  1.0000
  Zr  Zr2       1.0  0.50000  0.50000  0.09775  1.0000
  Zr  Zr3       1.0  0.50000  0.00000  0.96742  1.0000
  Zr  Zr4       1.0  0.00000  0.50000  0.96742  1.0000
  In  In1       1.0  0.00000  0.00000  0.96742  1.0000
  In  In2       1.0  0.50000  0.00000  0.09775  1.0000
  In  In3       1.0  0.00000  0.50000  0.09775  1.0000
  In  In4       1.0  0.50000  0.50000  0.96742  1.0000
  Cu  Cu1       1.0  0.25000  0.25000  0.03258  1.0000
  Cu  Cu2       1.0  0.75000  0.75000  0.90225  1.0000
  Cu  Cu3       1.0  0.75000  0.25000  0.03258  1.0000
  Cu  Cu4       1.0  0.25000  0.75000  0.90225  1.0000
  Cu  Cu5       1.0  0.75000  0.75000  0.03258  1.0000
  Cu  Cu6       1.0  0.25000  0.25000  0.90225  1.0000
  Cu  Cu7       1.0  0.25000  0.75000  0.03258  1.0000
  Cu  Cu8       1.0  0.75000  0.25000  0.90225  1.0000
