# generated using pymatgen
data_ZrInCu2
_symmetry_space_group_name_H-M   P4mm
_cell_length_a   4.58192466
_cell_length_b   4.58192466
_cell_length_c   24.85990000
_cell_angle_alpha   90.00000000
_cell_angle_beta   90.00000000
_cell_angle_gamma   90.00000000
_symmetry_Int_Tables_number   99
_chemical_formula_structural   ZrInCu2
_chemical_formula_sum   'Zr2 In2 Cu4'
_cell_volume   521.90957630
_cell_formula_units_Z   2
loop_
 _symmetry_equiv_pos_site_id
 _symmetry_equiv_pos_as_xyz
  1  'x, y, z'
  2  '-y, x, z'
  3  '-x, -y, z'
  4  'y, -x, z'
  5  '-x, y, z'
  6  'y, x, z'
  7  'x, -y, z'
  8  '-y, -x, z'
loop_
 _atom_site_type_symbol
 _atom_site_label
 _atom_site_symmetry_multiplicity
 _atom_site_fract_x
 _atom_site_fract_y
 _atom_site_fract_z
 _atom_site_occupancy
  Zr  Zr0  1  0.00000000  0.00000000  0.90225000  1.0
  Zr  Zr1  1  0.50000000  0.50000000  0.03258000  1.0
  In  In2  1  0.00000000  0.00000000  0.03258000  1.0
  In  In3  1  0.50000000  0.50000000  0.90225000  1.0
  Cu  Cu4  2  0.00000000  0.50000000  0.09775000  1.0
  Cu  Cu5  2  0.00000000  0.50000000  0.96742000  1.0
