# generated using pymatgen
data_Fe4Co8Si4C
_symmetry_space_group_name_H-M   'P 1'
_cell_length_a   5.64511000
_cell_length_b   5.64511000
_cell_length_c   24.23380000
_cell_angle_alpha   90.00000000
_cell_angle_beta   90.00000000
_cell_angle_gamma   90.00000000
_symmetry_Int_Tables_number   1
_chemical_formula_structural   Fe4Co8Si4C
_chemical_formula_sum   'Fe4 Co8 Si4 C1'
_cell_volume   772.26497289
_cell_formula_units_Z   1
loop_
 _symmetry_equiv_pos_site_id
 _symmetry_equiv_pos_as_xyz
  1  'x, y, z'
loop_
 _atom_site_type_symbol
 _atom_site_label
 _atom_site_symmetry_multiplicity
 _atom_site_fract_x
 _atom_site_fract_y
 _atom_site_fract_z
 _atom_site_occupancy
  Fe  Fe0  1  0.75000000  0.25000000  0.08735000  1
  Fe  Fe1  1  0.25000000  0.75000000  0.08735000  1
  Fe  Fe2  1  0.75000000  0.75000000  0.97088000  1
  Fe  Fe3  1  0.25000000  0.25000000  0.97088000  1
  Co  Co4  1  0.50000000  0.50000000  0.02912000  1
  Co  Co5  1  0.00000000  0.00000000  0.91265000  1
  Co  Co6  1  0.50000000  0.00000000  0.02912000  1
  Co  Co7  1  0.00000000  0.50000000  0.91265000  1
  Co  Co8  1  0.00000000  0.00000000  0.02912000  1
  Co  Co9  1  0.50000000  0.50000000  0.91265000  1
  Co  Co10  1  0.00000000  0.50000000  0.02912000  1
  Co  Co11  1  0.50000000  0.00000000  0.91265000  1
  Si  Si12  1  0.75000000  0.25000000  0.97088000  1
  Si  Si13  1  0.75000000  0.75000000  0.08735000  1
  Si  Si14  1  0.25000000  0.25000000  0.08735000  1
  Si  Si15  1  0.25000000  0.75000000  0.97088000  1
  C  C16  1  0.50000000  0.50000000  0.12037000  1
