# generated using pymatgen
data_Li8Ti8Al8Pd8CO
_symmetry_space_group_name_H-M   'P 1'
_cell_length_a   6.17553000
_cell_length_b   8.73352000
_cell_length_c   26.55010000
_cell_angle_alpha   90.00000000
_cell_angle_beta   90.00000000
_cell_angle_gamma   90.00000000
_symmetry_Int_Tables_number   1
_chemical_formula_structural   Li8Ti8Al8Pd8CO
_chemical_formula_sum   'Li8 Ti8 Al8 Pd8 C1 O1'
_cell_volume   1431.95614044
_cell_formula_units_Z   1
loop_
 _symmetry_equiv_pos_site_id
 _symmetry_equiv_pos_as_xyz
  1  'x, y, z'
loop_
 _atom_site_type_symbol
 _atom_site_label
 _atom_site_symmetry_multiplicity
 _atom_site_fract_x
 _atom_site_fract_y
 _atom_site_fract_z
 _atom_site_occupancy
  Li  Li0  1  0.75000000  0.00000000  0.95888000  1.0
  Li  Li1  1  0.75000000  0.50000000  0.95888000  1.0
  Li  Li2  1  0.25000000  0.25000000  0.87665000  1.0
  Li  Li3  1  0.25000000  0.75000000  0.87665000  1.0
  Li  Li4  1  0.67948000  0.50012000  0.16686000  1.0
  Li  Li5  1  0.66175000  0.99999000  0.16749000  1.0
  Li  Li6  1  0.24737000  0.75041000  0.04148000  1.0
  Li  Li7  1  0.24743000  0.24959000  0.04150000  1.0
  Ti  Ti8  1  1.00000000  0.25000000  0.95888000  1.0
  Ti  Ti9  1  1.00000000  0.75000000  0.95888000  1.0
  Ti  Ti10  1  0.50000000  0.50000000  0.87665000  1.0
  Ti  Ti11  1  0.50000000  0.00000000  0.87665000  1.0
  Ti  Ti12  1  0.97202000  0.74805000  0.11930000  1.0
  Ti  Ti13  1  0.97186000  0.25204000  0.11931000  1.0
  Ti  Ti14  1  0.50399000  0.99993000  0.04539000  1.0
  Ti  Ti15  1  0.50809000  0.50003000  0.04507000  1.0
  Al  Al16  1  0.00000000  0.00000000  0.87665000  1.0
  Al  Al17  1  0.00000000  0.50000000  0.87665000  1.0
  Al  Al18  1  0.50000000  0.75000000  0.95888000  1.0
  Al  Al19  1  0.50000000  0.25000000  0.95888000  1.0
  Al  Al20  1  0.99300000  0.50002000  0.04197000  1.0
  Al  Al21  1  0.99585000  0.00000000  0.04168000  1.0
  Al  Al22  1  0.49761000  0.25220000  0.12204000  1.0
  Al  Al23  1  0.49760000  0.74779000  0.12203000  1.0
  Pd  Pd24  1  0.25000000  0.00000000  0.95888000  1.0
  Pd  Pd25  1  0.25000000  0.50000000  0.95888000  1.0
  Pd  Pd26  1  0.75000000  0.25000000  0.87665000  1.0
  Pd  Pd27  1  0.75000000  0.75000000  0.87665000  1.0
  Pd  Pd28  1  0.23538000  0.49994000  0.11872000  1.0
  Pd  Pd29  1  0.23492000  0.00007000  0.12379000  1.0
  Pd  Pd30  1  0.75095000  0.75049000  0.03830000  1.0
  Pd  Pd31  1  0.75091000  0.24950000  0.03828000  1.0
  C  C32  1  0.11174000  0.99995000  0.19233000  1.0
  O  O33  1  0.07538000  0.00007000  0.23561000  1.0
