data_image0
_chemical_formula_structural       Li16Sn8Au8C
_chemical_formula_sum              "Li16 Sn8 Au8 C1"
_cell_length_a       6.60404
_cell_length_b       9.33952
_cell_length_c       27.0046
_cell_angle_alpha    90
_cell_angle_beta     90
_cell_angle_gamma    90

_space_group_name_H-M_alt    "P 1"
_space_group_IT_number       1

loop_
  _space_group_symop_operation_xyz
  'x, y, z'

loop_
  _atom_site_type_symbol
  _atom_site_label
  _atom_site_symmetry_multiplicity
  _atom_site_fract_x
  _atom_site_fract_y
  _atom_site_fract_z
  _atom_site_occupancy
  Li  Li1       1.0  0.00000  0.75000  0.95677  1.0000
  Li  Li2       1.0  0.50000  0.00000  0.87031  1.0000
  Li  Li3       1.0  0.00000  0.25000  0.95677  1.0000
  Li  Li4       1.0  0.50000  0.50000  0.87031  1.0000
  Li  Li5       1.0  0.25000  0.25000  0.87031  1.0000
  Li  Li6       1.0  0.25000  0.75000  0.87031  1.0000
  Li  Li7       1.0  0.75000  0.50000  0.95677  1.0000
  Li  Li8       1.0  0.75000  0.00000  0.95677  1.0000
  Li  Li9       1.0  0.02679  0.22712  0.13353  1.0000
  Li  Li10      1.0  0.50084  0.50000  0.04127  1.0000
  Li  Li11      1.0  0.02678  0.77288  0.13352  1.0000
  Li  Li12      1.0  0.51607  0.00000  0.04345  1.0000
  Li  Li13      1.0  0.27587  0.75945  0.05306  1.0000
  Li  Li14      1.0  0.27587  0.24055  0.05306  1.0000
  Li  Li15      1.0  0.75455  1.00000  0.14439  1.0000
  Li  Li16      1.0  0.78067  0.50000  0.13034  1.0000
  Sn  Sn1       1.0  0.00000  0.00000  0.87031  1.0000
  Sn  Sn2       1.0  0.50000  0.25000  0.95677  1.0000
  Sn  Sn3       1.0  0.50000  0.75000  0.95677  1.0000
  Sn  Sn4       1.0  0.00000  0.50000  0.87031  1.0000
  Sn  Sn5       1.0  0.00511  0.50000  0.04192  1.0000
  Sn  Sn6       1.0  0.52752  0.73463  0.14542  1.0000
  Sn  Sn7       1.0  0.52752  0.26537  0.14542  1.0000
  Sn  Sn8       1.0  0.96812  0.00000  0.03973  1.0000
  Au  Au1       1.0  0.25000  0.00000  0.95677  1.0000
  Au  Au2       1.0  0.25000  0.50000  0.95677  1.0000
  Au  Au3       1.0  0.75000  0.75000  0.87031  1.0000
  Au  Au4       1.0  0.75000  0.25000  0.87031  1.0000
  Au  Au5       1.0  0.26383  0.50000  0.12210  1.0000
  Au  Au6       1.0  0.34277  0.00000  0.13468  1.0000
  Au  Au7       1.0  0.72245  0.26050  0.04938  1.0000
  Au  Au8       1.0  0.72245  0.73951  0.04938  1.0000
  C   C1        1.0  0.04368  0.00000  0.11661  1.0000
