# generated using pymatgen
data_Li16Sn8Au8C
_symmetry_space_group_name_H-M   'P 1'
_cell_length_a   9.33952000
_cell_length_b   6.60404000
_cell_length_c   27.00460000
_cell_angle_alpha   90.00000000
_cell_angle_beta   90.00000000
_cell_angle_gamma   90.00000000
_symmetry_Int_Tables_number   1
_chemical_formula_structural   Li16Sn8Au8C
_chemical_formula_sum   'Li16 Sn8 Au8 C1'
_cell_volume   1665.60494023
_cell_formula_units_Z   1
loop_
 _symmetry_equiv_pos_site_id
 _symmetry_equiv_pos_as_xyz
  1  'x, y, z'
loop_
 _atom_site_type_symbol
 _atom_site_label
 _atom_site_symmetry_multiplicity
 _atom_site_fract_x
 _atom_site_fract_y
 _atom_site_fract_z
 _atom_site_occupancy
  Li  Li0  1  0.75000000  1.00000000  0.04323000  1.0
  Li  Li1  1  0.00000000  0.50000000  0.12969000  1.0
  Li  Li2  1  0.25000000  1.00000000  0.04323000  1.0
  Li  Li3  1  0.50000000  0.50000000  0.12969000  1.0
  Li  Li4  1  0.25000000  0.25000000  0.12969000  1.0
  Li  Li5  1  0.75000000  0.25000000  0.12969000  1.0
  Li  Li6  1  0.50000000  0.75000000  0.04323000  1.0
  Li  Li7  1  0.00000000  0.75000000  0.04323000  1.0
  Li  Li8  1  0.22712000  0.02679000  0.86647000  1.0
  Li  Li9  1  0.50000000  0.50084000  0.95873000  1.0
  Li  Li10  1  0.77288000  0.02679000  0.86647000  1.0
  Li  Li11  1  0.00000000  0.51607000  0.95655000  1.0
  Li  Li12  1  0.75945000  0.27587000  0.94694000  1.0
  Li  Li13  1  0.24055000  0.27587000  0.94694000  1.0
  Li  Li14  1  0.00000000  0.75455000  0.85561000  1.0
  Li  Li15  1  0.50000000  0.78067000  0.86966000  1.0
  Sn  Sn16  1  0.00000000  0.00000000  0.12969000  1.0
  Sn  Sn17  1  0.25000000  0.50000000  0.04323000  1.0
  Sn  Sn18  1  0.75000000  0.50000000  0.04323000  1.0
  Sn  Sn19  1  0.50000000  1.00000000  0.12969000  1.0
  Sn  Sn20  1  0.50000000  0.00511000  0.95808000  1.0
  Sn  Sn21  1  0.73463000  0.52752000  0.85458000  1.0
  Sn  Sn22  1  0.26537000  0.52752000  0.85458000  1.0
  Sn  Sn23  1  0.00000000  0.96812000  0.96027000  1.0
  Au  Au24  1  0.00000000  0.25000000  0.04323000  1.0
  Au  Au25  1  0.50000000  0.25000000  0.04323000  1.0
  Au  Au26  1  0.75000000  0.75000000  0.12969000  1.0
  Au  Au27  1  0.25000000  0.75000000  0.12969000  1.0
  Au  Au28  1  0.50000000  0.26383000  0.87790000  1.0
  Au  Au29  1  0.00000000  0.34277000  0.86532000  1.0
  Au  Au30  1  0.26050000  0.72245000  0.95062000  1.0
  Au  Au31  1  0.73950000  0.72245000  0.95062000  1.0
  C  C32  1  0.00000000  0.04368000  0.88339000  1.0
