# generated using pymatgen
data_Li16Sn8Au8C
_symmetry_space_group_name_H-M   Pm
_cell_length_a   6.60404000
_cell_length_b   9.33952000
_cell_length_c   27.00460000
_cell_angle_alpha   90.00000000
_cell_angle_beta   90.00000000
_cell_angle_gamma   90.00000000
_symmetry_Int_Tables_number   6
_chemical_formula_structural   Li16Sn8Au8C
_chemical_formula_sum   'Li16 Sn8 Au8 C1'
_cell_volume   1665.60494023
_cell_formula_units_Z   1
loop_
 _symmetry_equiv_pos_site_id
 _symmetry_equiv_pos_as_xyz
  1  'x, y, z'
  2  'x, -y, z'
loop_
 _atom_site_type_symbol
 _atom_site_label
 _atom_site_symmetry_multiplicity
 _atom_site_fract_x
 _atom_site_fract_y
 _atom_site_fract_z
 _atom_site_occupancy
  Li  Li0  2  -0.00000000  0.25000000  0.95677000  1.0
  Li  Li1  2  0.02679000  0.22712000  0.13353000  1.0
  Li  Li2  2  0.25000000  0.25000000  0.87031000  1.0
  Li  Li3  2  0.27587000  0.24055000  0.05306000  1.0
  Li  Li4  1  0.50000000  0.00000000  0.87031000  1.0
  Li  Li5  1  0.50000000  0.50000000  0.87031000  1.0
  Li  Li6  1  0.50084000  0.50000000  0.04127000  1.0
  Li  Li7  1  0.51607000  0.00000000  0.04345000  1.0
  Li  Li8  1  0.75000000  0.00000000  0.95677000  1.0
  Li  Li9  1  0.75000000  0.50000000  0.95677000  1.0
  Li  Li10  1  0.75455000  0.00000000  0.14439000  1.0
  Li  Li11  1  0.78067000  0.50000000  0.13034000  1.0
  Sn  Sn12  2  0.50000000  0.25000000  0.95677000  1.0
  Sn  Sn13  2  0.52752000  0.26537000  0.14542000  1.0
  Sn  Sn14  1  -0.00000000  0.50000000  0.87031000  1.0
  Sn  Sn15  1  0.00000000  0.00000000  0.87031000  1.0
  Sn  Sn16  1  0.00511000  0.50000000  0.04192000  1.0
  Sn  Sn17  1  0.96812000  0.00000000  0.03973000  1.0
  Au  Au18  2  0.72245000  0.26050000  0.04938000  1.0
  Au  Au19  2  0.75000000  0.25000000  0.87031000  1.0
  Au  Au20  1  0.25000000  0.00000000  0.95677000  1.0
  Au  Au21  1  0.25000000  0.50000000  0.95677000  1.0
  Au  Au22  1  0.26383000  0.50000000  0.12210000  1.0
  Au  Au23  1  0.34277000  0.00000000  0.13468000  1.0
  C  C24  1  0.04368000  0.00000000  0.11661000  1.0
