# generated using pymatgen
data_Y8Cu8Ge8Pd8C
_symmetry_space_group_name_H-M   Pm
_cell_length_a   6.58158000
_cell_length_b   9.30776000
_cell_length_c   26.98080000
_cell_angle_alpha   90.00000000
_cell_angle_beta   90.00000000
_cell_angle_gamma   90.00000000
_symmetry_Int_Tables_number   6
_chemical_formula_structural   Y8Cu8Ge8Pd8C
_chemical_formula_sum   'Y8 Cu8 Ge8 Pd8 C1'
_cell_volume   1652.83752311
_cell_formula_units_Z   1
loop_
 _symmetry_equiv_pos_site_id
 _symmetry_equiv_pos_as_xyz
  1  'x, y, z'
  2  'x, -y, z'
loop_
 _atom_site_type_symbol
 _atom_site_label
 _atom_site_symmetry_multiplicity
 _atom_site_fract_x
 _atom_site_fract_y
 _atom_site_fract_z
 _atom_site_occupancy
  Y  Y0  2  0.66758000  0.25030000  0.13767000  1.0
  Y  Y1  2  0.75000000  0.25000000  0.95688000  1.0
  Y  Y2  1  0.22690000  0.00000000  0.04644000  1.0
  Y  Y3  1  0.24253000  0.50000000  0.04641000  1.0
  Y  Y4  1  0.25000000  0.00000000  0.87063000  1.0
  Y  Y5  1  0.25000000  0.50000000  0.87063000  1.0
  Cu  Cu6  2  0.00000000  0.25000000  0.87063000  1.0
  Cu  Cu7  2  0.94353000  0.25781000  0.05598000  1.0
  Cu  Cu8  1  0.32384000  0.50000000  0.15316000  1.0
  Cu  Cu9  1  0.37243000  0.00000000  0.14645000  1.0
  Cu  Cu10  1  0.50000000  0.00000000  0.95688000  1.0
  Cu  Cu11  1  0.50000000  0.50000000  0.95688000  1.0
  Ge  Ge12  2  0.19844000  0.24972000  0.12777000  1.0
  Ge  Ge13  2  0.25000000  0.25000000  0.95688000  1.0
  Ge  Ge14  1  0.72484000  0.00000000  0.05114000  1.0
  Ge  Ge15  1  0.73191000  0.50000000  0.03867000  1.0
  Ge  Ge16  1  0.75000000  0.00000000  0.87063000  1.0
  Ge  Ge17  1  0.75000000  0.50000000  0.87063000  1.0
  Pd  Pd18  2  0.49281000  0.24784000  0.03963000  1.0
  Pd  Pd19  2  0.50000000  0.25000000  0.87063000  1.0
  Pd  Pd20  1  0.00000000  0.00000000  0.95688000  1.0
  Pd  Pd21  1  0.00000000  0.50000000  0.95688000  1.0
  Pd  Pd22  1  0.94039000  0.50000000  0.12131000  1.0
  Pd  Pd23  1  0.98482000  0.00000000  0.13536000  1.0
  C  C24  1  0.65912000  0.00000000  0.12993000  1.0
