# generated using pymatgen
data_Li16In8Ag8CO
_symmetry_space_group_name_H-M   'P 1'
_cell_length_a   9.43981000
_cell_length_b   6.67495000
_cell_length_c   27.07990000
_cell_angle_alpha   90.00000000
_cell_angle_beta   90.00000000
_cell_angle_gamma   90.00000000
_symmetry_Int_Tables_number   1
_chemical_formula_structural   Li16In8Ag8CO
_chemical_formula_sum   'Li16 In8 Ag8 C1 O1'
_cell_volume   1706.31153326
_cell_formula_units_Z   1
loop_
 _symmetry_equiv_pos_site_id
 _symmetry_equiv_pos_as_xyz
  1  'x, y, z'
loop_
 _atom_site_type_symbol
 _atom_site_label
 _atom_site_symmetry_multiplicity
 _atom_site_fract_x
 _atom_site_fract_y
 _atom_site_fract_z
 _atom_site_occupancy
  Li  Li0  1  0.50000000  0.00000000  0.04357000  1.0
  Li  Li1  1  0.75000000  0.50000000  0.13072000  1.0
  Li  Li2  1  0.00000000  0.00000000  0.04357000  1.0
  Li  Li3  1  0.25000000  0.50000000  0.13072000  1.0
  Li  Li4  1  0.75000000  0.25000000  0.04357000  1.0
  Li  Li5  1  0.25000000  0.25000000  0.04357000  1.0
  Li  Li6  1  0.50000000  0.75000000  0.13072000  1.0
  Li  Li7  1  0.00000000  0.75000000  0.13072000  1.0
  Li  Li8  1  0.00000000  0.98189000  0.87253000  1.0
  Li  Li9  1  0.24631000  0.49383000  0.96358000  1.0
  Li  Li10  1  0.50000000  0.98258000  0.87219000  1.0
  Li  Li11  1  0.75369000  0.49383000  0.96358000  1.0
  Li  Li12  1  0.25836000  0.26680000  0.87505000  1.0
  Li  Li13  1  0.74164000  0.26680000  0.87505000  1.0
  Li  Li14  1  0.00000000  0.75981000  0.95812000  1.0
  Li  Li15  1  0.50000000  0.72335000  0.95275000  1.0
  In  In16  1  0.75000000  0.00000000  0.13072000  1.0
  In  In17  1  0.00000000  0.50000000  0.04357000  1.0
  In  In18  1  0.50000000  0.50000000  0.04357000  1.0
  In  In19  1  0.25000000  0.00000000  0.13072000  1.0
  In  In20  1  0.26245000  0.00600000  0.95913000  1.0
  In  In21  1  0.50000000  0.50557000  0.85138000  1.0
  In  In22  1  0.00000000  0.50105000  0.86932000  1.0
  In  In23  1  0.73755000  0.00600000  0.95913000  1.0
  Ag  Ag24  1  0.00000000  0.25000000  0.13072000  1.0
  Ag  Ag25  1  0.50000000  0.25000000  0.13072000  1.0
  Ag  Ag26  1  0.25000000  0.75000000  0.04357000  1.0
  Ag  Ag27  1  0.75000000  0.75000000  0.04357000  1.0
  Ag  Ag28  1  0.50000000  0.27887000  0.94967000  1.0
  Ag  Ag29  1  0.00000000  0.23381000  0.95664000  1.0
  Ag  Ag30  1  0.74574000  0.72656000  0.87952000  1.0
  Ag  Ag31  1  0.25426000  0.72656000  0.87952000  1.0
  C  C32  1  0.00000000  0.48722000  0.77813000  1.0
  O  O33  1  0.00000000  0.49685000  0.73587000  1.0
