data_image0
_chemical_formula_structural       Ti16Os16CO
_chemical_formula_sum              "Ti16 Os16 C1 O1"
_cell_length_a       6.19423
_cell_length_b       8.75996
_cell_length_c       26.57
_cell_angle_alpha    90
_cell_angle_beta     90
_cell_angle_gamma    90

_space_group_name_H-M_alt    "P 1"
_space_group_IT_number       1

loop_
  _space_group_symop_operation_xyz
  'x, y, z'

loop_
  _atom_site_type_symbol
  _atom_site_label
  _atom_site_symmetry_multiplicity
  _atom_site_fract_x
  _atom_site_fract_y
  _atom_site_fract_z
  _atom_site_occupancy
  Ti  Ti1       1.0  0.25000  0.25000  0.87636  1.0000
  Ti  Ti2       1.0  0.25000  0.00000  0.95879  1.0000
  Ti  Ti3       1.0  0.25000  0.25000  0.04121  1.0000
  Ti  Ti4       1.0  0.25000  0.50000  0.12364  1.0000
  Ti  Ti5       1.0  0.25000  0.75000  0.87636  1.0000
  Ti  Ti6       1.0  0.25000  0.50000  0.95879  1.0000
  Ti  Ti7       1.0  0.25000  0.75000  0.04121  1.0000
  Ti  Ti8       1.0  0.25000  0.00000  0.12364  1.0000
  Ti  Ti9       1.0  0.75000  0.25000  0.87636  1.0000
  Ti  Ti10      1.0  0.75000  0.00000  0.95879  1.0000
  Ti  Ti11      1.0  0.75000  0.25000  0.04121  1.0000
  Ti  Ti12      1.0  0.75000  0.50000  0.12364  1.0000
  Ti  Ti13      1.0  0.75000  0.75000  0.87636  1.0000
  Ti  Ti14      1.0  0.75000  0.50000  0.95879  1.0000
  Ti  Ti15      1.0  0.75000  0.75000  0.04121  1.0000
  Ti  Ti16      1.0  0.75000  0.00000  0.12364  1.0000
  Os  Os1       1.0  0.00000  0.00000  0.87636  1.0000
  Os  Os2       1.0  0.00000  0.25000  0.95879  1.0000
  Os  Os3       1.0  0.00000  0.00000  0.04121  1.0000
  Os  Os4       1.0  0.00000  0.25000  0.12364  1.0000
  Os  Os5       1.0  0.00000  0.50000  0.87636  1.0000
  Os  Os6       1.0  0.00000  0.75000  0.95879  1.0000
  Os  Os7       1.0  0.00000  0.50000  0.04121  1.0000
  Os  Os8       1.0  0.00000  0.75000  0.12364  1.0000
  Os  Os9       1.0  0.50000  0.00000  0.87636  1.0000
  Os  Os10      1.0  0.50000  0.25000  0.95879  1.0000
  Os  Os11      1.0  0.50000  0.00000  0.04121  1.0000
  Os  Os12      1.0  0.50000  0.25000  0.12364  1.0000
  Os  Os13      1.0  0.50000  0.50000  0.87636  1.0000
  Os  Os14      1.0  0.50000  0.75000  0.95879  1.0000
  Os  Os15      1.0  0.50000  0.50000  0.04121  1.0000
  Os  Os16      1.0  0.50000  0.75000  0.12364  1.0000
  C   C1        1.0  0.00000  0.25000  0.19514  1.0000
  O   O1        1.0  0.00000  0.25000  0.23843  1.0000
