# generated using pymatgen
data_Ti16Os16CO
_symmetry_space_group_name_H-M   Pmm2
_cell_length_a   6.19423000
_cell_length_b   8.75996000
_cell_length_c   26.57000000
_cell_angle_alpha   90.00000000
_cell_angle_beta   90.00000000
_cell_angle_gamma   90.00000000
_symmetry_Int_Tables_number   25
_chemical_formula_structural   Ti16Os16CO
_chemical_formula_sum   'Ti16 Os16 C1 O1'
_cell_volume   1441.72027081
_cell_formula_units_Z   1
loop_
 _symmetry_equiv_pos_site_id
 _symmetry_equiv_pos_as_xyz
  1  'x, y, z'
  2  '-x, -y, z'
  3  '-x, y, z'
  4  'x, -y, z'
loop_
 _atom_site_type_symbol
 _atom_site_label
 _atom_site_symmetry_multiplicity
 _atom_site_fract_x
 _atom_site_fract_y
 _atom_site_fract_z
 _atom_site_occupancy
  Ti  Ti0  4  0.25000000  0.25000000  0.95879000  1.0
  Ti  Ti1  4  0.25199000  0.25099000  0.12570000  1.0
  Ti  Ti2  2  0.24915000  0.50000000  0.04263000  1.0
  Ti  Ti3  2  0.25000000  0.00000000  0.87636000  1.0
  Ti  Ti4  2  0.25000000  0.50000000  0.87636000  1.0
  Ti  Ti5  2  0.25397000  0.00000000  0.04184000  1.0
  Os  Os6  2  0.00000000  0.24593000  0.04173000  1.0
  Os  Os7  2  0.00000000  0.25000000  0.87636000  1.0
  Os  Os8  2  0.50000000  0.25000000  0.87636000  1.0
  Os  Os9  2  0.50000000  0.25129000  0.04135000  1.0
  Os  Os10  1  0.00000000  0.00000000  0.12419000  1.0
  Os  Os11  1  0.00000000  0.00000000  0.95879000  1.0
  Os  Os12  1  0.00000000  0.50000000  0.11870000  1.0
  Os  Os13  1  0.00000000  0.50000000  0.95879000  1.0
  Os  Os14  1  0.50000000  0.00000000  0.11827000  1.0
  Os  Os15  1  0.50000000  0.00000000  0.95879000  1.0
  Os  Os16  1  0.50000000  0.50000000  0.11907000  1.0
  Os  Os17  1  0.50000000  0.50000000  0.95879000  1.0
  C  C18  1  0.00000000  0.00000000  0.19523000  1.0
  O  O19  1  0.00000000  0.00000000  0.23929000  1.0
