# generated using pymatgen
data_Li4Al4Ge4Pd4CO
_symmetry_space_group_name_H-M   Pm
_cell_length_a   5.69495000
_cell_length_b   7.42946000
_cell_length_c   24.27100000
_cell_angle_alpha   90.00000000
_cell_angle_beta   90.00000000
_cell_angle_gamma   90.00000000
_symmetry_Int_Tables_number   6
_chemical_formula_structural   Li4Al4Ge4Pd4CO
_chemical_formula_sum   'Li4 Al4 Ge4 Pd4 C1 O1'
_cell_volume   1026.91579672
_cell_formula_units_Z   1
loop_
 _symmetry_equiv_pos_site_id
 _symmetry_equiv_pos_as_xyz
  1  'x, y, z'
  2  'x, -y, z'
loop_
 _atom_site_type_symbol
 _atom_site_label
 _atom_site_symmetry_multiplicity
 _atom_site_fract_x
 _atom_site_fract_y
 _atom_site_fract_z
 _atom_site_occupancy
  Li  Li0  2  0.01476000  0.25524000  0.96607000  1.0
  Li  Li1  2  0.50000000  0.25000000  0.08799000  1.0
  Al  Al2  2  0.00000000  0.25000000  0.08799000  1.0
  Al  Al3  2  0.52515000  0.25735000  0.96511000  1.0
  Ge  Ge4  1  0.25264000  0.00000000  0.02933000  1.0
  Ge  Ge5  1  0.25264000  0.50000000  0.02933000  1.0
  Ge  Ge6  1  0.76389000  0.00000000  0.91118000  1.0
  Ge  Ge7  1  0.79044000  0.50000000  0.90545000  1.0
  Pd  Pd8  1  0.28548000  0.00000000  0.92042000  1.0
  Pd  Pd9  1  0.29239000  0.50000000  0.91502000  1.0
  Pd  Pd10  1  0.75264000  0.00000000  0.02933000  1.0
  Pd  Pd11  1  0.75264000  0.50000000  0.02933000  1.0
  C  C12  1  0.74872000  0.50000000  0.82236000  1.0
  O  O13  1  0.72832000  0.50000000  0.77510000  1.0
