# generated using pymatgen
data_Li4Sc4Al4In4CO
_symmetry_space_group_name_H-M   'P 1'
_cell_length_a   6.04255000
_cell_length_b   8.49254000
_cell_length_c   24.52830000
_cell_angle_alpha   90.00000000
_cell_angle_beta   90.00000000
_cell_angle_gamma   90.00000000
_symmetry_Int_Tables_number   1
_chemical_formula_structural   Li4Sc4Al4In4CO
_chemical_formula_sum   'Li4 Sc4 Al4 In4 C1 O1'
_cell_volume   1258.70890035
_cell_formula_units_Z   1
loop_
 _symmetry_equiv_pos_site_id
 _symmetry_equiv_pos_as_xyz
  1  'x, y, z'
loop_
 _atom_site_type_symbol
 _atom_site_label
 _atom_site_symmetry_multiplicity
 _atom_site_fract_x
 _atom_site_fract_y
 _atom_site_fract_z
 _atom_site_occupancy
  Li  Li0  1  0.76017000  0.24591000  0.03935000  1.0
  Li  Li1  1  0.22019000  0.25000000  0.90769000  1.0
  Li  Li2  1  0.76016000  0.75411000  0.03938000  1.0
  Li  Li3  1  0.22019000  0.75000000  0.90769000  1.0
  Sc  Sc4  1  0.25189000  0.25037000  0.03099000  1.0
  Sc  Sc5  1  0.72019000  0.25000000  0.90769000  1.0
  Sc  Sc6  1  0.25188000  0.74961000  0.03103000  1.0
  Sc  Sc7  1  0.72019000  0.75000000  0.90769000  1.0
  Al  Al8  1  0.01020000  0.00001000  0.09269000  1.0
  Al  Al9  1  0.48013000  0.00000000  0.96923000  1.0
  Al  Al10  1  0.00399000  0.49999000  0.08857000  1.0
  Al  Al11  1  0.48013000  0.50000000  0.96923000  1.0
  In  In12  1  0.51965000  0.00004000  0.09290000  1.0
  In  In13  1  0.98013000  0.00000000  0.96923000  1.0
  In  In14  1  0.52276000  0.49994000  0.09311000  1.0
  In  In15  1  0.98013000  0.50000000  0.96923000  1.0
  C  C16  1  0.99925000  0.00001000  0.17395000  1.0
  O  O17  1  0.99463000  0.00001000  0.22097000  1.0
