# generated using pymatgen
data_Y8In8Cu16CO
_symmetry_space_group_name_H-M   Pm
_cell_length_a   6.69979000
_cell_length_b   9.47494000
_cell_length_c   27.10620000
_cell_angle_alpha   90.00000000
_cell_angle_beta   90.00000000
_cell_angle_gamma   90.00000000
_symmetry_Int_Tables_number   6
_chemical_formula_structural   Y8In8Cu16CO
_chemical_formula_sum   'Y8 In8 Cu16 C1 O1'
_cell_volume   1720.70451059
_cell_formula_units_Z   1
loop_
 _symmetry_equiv_pos_site_id
 _symmetry_equiv_pos_as_xyz
  1  'x, y, z'
  2  'x, -y, z'
loop_
 _atom_site_type_symbol
 _atom_site_label
 _atom_site_symmetry_multiplicity
 _atom_site_fract_x
 _atom_site_fract_y
 _atom_site_fract_z
 _atom_site_occupancy
  Y  Y0  2  -0.00000000  0.24769000  0.04224000  1.0
  Y  Y1  2  0.00000000  0.25003000  0.86892000  1.0
  Y  Y2  1  0.50000000  0.00000000  0.95631000  1.0
  Y  Y3  1  0.50000000  0.50000000  0.95631000  1.0
  Y  Y4  1  0.50001000  0.50000000  0.13790000  1.0
  Y  Y5  1  0.50002000  0.00000000  0.13376000  1.0
  In  In6  2  0.50000000  0.25003000  0.86892000  1.0
  In  In7  2  0.50003000  0.25183000  0.04215000  1.0
  In  In8  1  -0.00000000  0.50000000  0.95631000  1.0
  In  In9  1  -0.00000000  0.00000000  0.95631000  1.0
  In  In10  1  0.00001000  0.50000000  0.13024000  1.0
  In  In11  1  0.00003000  0.00000000  0.12952000  1.0
  Cu  Cu12  2  0.25000000  0.25003000  0.95631000  1.0
  Cu  Cu13  2  0.25546000  0.25204000  0.12743000  1.0
  Cu  Cu14  2  0.74462000  0.25210000  0.12743000  1.0
  Cu  Cu15  2  0.75000000  0.24997000  0.95631000  1.0
  Cu  Cu16  1  0.25000000  0.00000000  0.86892000  1.0
  Cu  Cu17  1  0.25000000  0.50000000  0.86892000  1.0
  Cu  Cu18  1  0.26140000  0.00000000  0.04447000  1.0
  Cu  Cu19  1  0.26688000  0.50000000  0.04737000  1.0
  Cu  Cu20  1  0.73314000  0.50000000  0.04737000  1.0
  Cu  Cu21  1  0.73863000  0.00000000  0.04447000  1.0
  Cu  Cu22  1  0.75000000  0.00000000  0.86892000  1.0
  Cu  Cu23  1  0.75000000  0.50000000  0.86892000  1.0
  C  C24  1  0.99958000  0.00000000  0.28441000  1.0
  O  O25  1  0.00004000  0.00000000  0.32622000  1.0
