# generated using pymatgen
data_Y4In4Cu4Pd4CO
_symmetry_space_group_name_H-M   'P 1'
_cell_length_a   6.76944000
_cell_length_b   6.76944000
_cell_length_c   25.07710000
_cell_angle_alpha   90.00000000
_cell_angle_beta   90.00000000
_cell_angle_gamma   90.00000000
_symmetry_Int_Tables_number   1
_chemical_formula_structural   Y4In4Cu4Pd4CO
_chemical_formula_sum   'Y4 In4 Cu4 Pd4 C1 O1'
_cell_volume   1149.16607985
_cell_formula_units_Z   1
loop_
 _symmetry_equiv_pos_site_id
 _symmetry_equiv_pos_as_xyz
  1  'x, y, z'
loop_
 _atom_site_type_symbol
 _atom_site_label
 _atom_site_symmetry_multiplicity
 _atom_site_fract_x
 _atom_site_fract_y
 _atom_site_fract_z
 _atom_site_occupancy
  Y  Y0  1  0.75000500  0.75000500  0.03374000  1
  Y  Y1  1  0.75002000  0.24993000  0.89723000  1
  Y  Y2  1  0.24993000  0.75002000  0.89723000  1
  Y  Y3  1  0.25000500  0.25000500  0.03374000  1
  In  In4  1  0.25000000  0.75001000  0.03374000  1
  In  In5  1  0.25029500  0.25029500  0.89351000  1
  In  In6  1  0.75050500  0.75050500  0.90775000  1
  In  In7  1  0.75001000  0.25000000  0.03374000  1
  Cu  Cu8  1  0.00000500  0.00000500  0.10123000  1
  Cu  Cu9  1  0.01018000  0.48961000  0.96225000  1
  Cu  Cu10  1  0.48961000  0.01018000  0.96225000  1
  Cu  Cu11  1  0.50000500  0.50000500  0.10123000  1
  Pd  Pd12  1  0.00000000  0.50001000  0.10123000  1
  Pd  Pd13  1  0.00499500  0.00499500  0.96368000  1
  Pd  Pd14  1  0.49604500  0.49604500  0.96353000  1
  Pd  Pd15  1  0.50001000  0.00000000  0.10123000  1
  C  C16  1  0.74707000  0.74707000  0.81719000  1
  O  O17  1  0.75021500  0.75021500  0.77079000  1
