# generated using pymatgen
data_Y4In4Cu4Pd4CO
_symmetry_space_group_name_H-M   Cm
_cell_length_a   9.57343386
_cell_length_b   9.57343386
_cell_length_c   25.07710000
_cell_angle_alpha   90.00000000
_cell_angle_beta   90.00000000
_cell_angle_gamma   90.00000000
_symmetry_Int_Tables_number   8
_chemical_formula_structural   Y4In4Cu4Pd4CO
_chemical_formula_sum   'Y8 In8 Cu8 Pd8 C2 O2'
_cell_volume   2298.33215970
_cell_formula_units_Z   2
loop_
 _symmetry_equiv_pos_site_id
 _symmetry_equiv_pos_as_xyz
  1  'x, y, z'
  2  'x, -y, z'
  3  'x+1/2, y+1/2, z'
  4  'x+1/2, -y+1/2, z'
loop_
 _atom_site_type_symbol
 _atom_site_label
 _atom_site_symmetry_multiplicity
 _atom_site_fract_x
 _atom_site_fract_y
 _atom_site_fract_z
 _atom_site_occupancy
  Y  Y0  4  0.49997500  0.25004500  0.10277000  1.0
  Y  Y1  2  0.25000500  0.00000000  0.96626000  1.0
  Y  Y2  2  0.25000500  0.50000000  0.96626000  1.0
  In  In3  4  0.00000500  0.24999500  0.96626000  1.0
  In  In4  2  0.25029500  0.00000000  0.10649000  1.0
  In  In5  2  0.25050500  0.50000000  0.09225000  1.0
  Cu  Cu6  4  0.24989500  0.23971500  0.03775000  1.0
  Cu  Cu7  2  0.00000500  0.00000000  0.89877000  1.0
  Cu  Cu8  2  0.00000500  0.50000000  0.89877000  1.0
  Pd  Pd9  4  0.25000500  0.25000500  0.89877000  1.0
  Pd  Pd10  2  0.00499500  0.00000000  0.03632000  1.0
  Pd  Pd11  2  0.49604500  0.00000000  0.03647000  1.0
  C  C12  2  0.24707000  0.50000000  0.18281000  1.0
  O  O13  2  0.25021500  0.50000000  0.22921000  1.0
