# generated using pymatgen
data_Y24Al8C
_symmetry_space_group_name_H-M   P4mm
_cell_length_a   9.55034000
_cell_length_b   9.55034000
_cell_length_c   27.16280000
_cell_angle_alpha   90.00000000
_cell_angle_beta   90.00000000
_cell_angle_gamma   90.00000000
_symmetry_Int_Tables_number   99
_chemical_formula_structural   Y24Al8C
_chemical_formula_sum   'Y24 Al8 C1'
_cell_volume   2477.49166536
_cell_formula_units_Z   1
loop_
 _symmetry_equiv_pos_site_id
 _symmetry_equiv_pos_as_xyz
  1  'x, y, z'
  2  '-y, x, z'
  3  '-x, -y, z'
  4  'y, -x, z'
  5  '-x, y, z'
  6  'y, x, z'
  7  'x, -y, z'
  8  '-y, -x, z'
loop_
 _atom_site_type_symbol
 _atom_site_label
 _atom_site_symmetry_multiplicity
 _atom_site_fract_x
 _atom_site_fract_y
 _atom_site_fract_z
 _atom_site_occupancy
  Y  Y0  4  0.00000000  0.24627000  0.12922000  1.0
  Y  Y1  4  0.00000000  0.24999000  0.95605000  1.0
  Y  Y2  4  0.24997000  0.50000000  0.13318000  1.0
  Y  Y3  4  0.24999500  0.24999500  0.86815000  1.0
  Y  Y4  4  0.25000000  0.50000000  0.95605000  1.0
  Y  Y5  4  0.26139500  0.26139500  0.04374000  1.0
  Al  Al6  2  0.00000000  0.50000000  0.04626000  1.0
  Al  Al7  2  0.00000000  0.50000000  0.86815000  1.0
  Al  Al8  1  0.00000000  0.00000000  0.04693000  1.0
  Al  Al9  1  0.00000000  0.00000000  0.86815000  1.0
  Al  Al10  1  0.50000000  0.50000000  0.04996000  1.0
  Al  Al11  1  0.50000000  0.50000000  0.86815000  1.0
  C  C12  1  0.00000000  0.00000000  0.12561000  1.0
