# generated using pymatgen
data_Li4Cu4Sn4Ge4C
_symmetry_space_group_name_H-M   'P 1'
_cell_length_a   6.57410000
_cell_length_b   6.57410000
_cell_length_c   24.93060000
_cell_angle_alpha   90.00000000
_cell_angle_beta   90.00000000
_cell_angle_gamma   90.00000000
_symmetry_Int_Tables_number   1
_chemical_formula_structural   Li4Cu4Sn4Ge4C
_chemical_formula_sum   'Li4 Cu4 Sn4 Ge4 C1'
_cell_volume   1077.47038617
_cell_formula_units_Z   1
loop_
 _symmetry_equiv_pos_site_id
 _symmetry_equiv_pos_as_xyz
  1  'x, y, z'
loop_
 _atom_site_type_symbol
 _atom_site_label
 _atom_site_symmetry_multiplicity
 _atom_site_fract_x
 _atom_site_fract_y
 _atom_site_fract_z
 _atom_site_occupancy
  Li  Li0  1  0.00000000  0.50000000  0.90111000  1
  Li  Li1  1  0.50000000  0.50000000  0.02696000  1
  Li  Li2  1  0.00000000  0.00000000  0.03226000  1
  Li  Li3  1  0.50000000  0.00000000  0.90111000  1
  Cu  Cu4  1  0.50000000  0.50000000  0.90111000  1
  Cu  Cu5  1  0.00000000  0.50000000  0.03073000  1
  Cu  Cu6  1  0.50000000  0.00000000  0.03073000  1
  Cu  Cu7  1  0.00000000  0.00000000  0.90111000  1
  Sn  Sn8  1  0.25000500  0.25000500  0.96704000  1
  Sn  Sn9  1  0.75030500  0.24969500  0.10765000  1
  Sn  Sn10  1  0.24969500  0.75030500  0.10765000  1
  Sn  Sn11  1  0.74999500  0.74999500  0.96704000  1
  Ge  Ge12  1  0.25000500  0.74999500  0.96704000  1
  Ge  Ge13  1  0.71597500  0.71597500  0.10248000  1
  Ge  Ge14  1  0.28402500  0.28402500  0.10248000  1
  Ge  Ge15  1  0.74999500  0.25000500  0.96704000  1
  C  C16  1  0.50000000  0.50000000  0.11066000  1
