# generated using pymatgen
data_Li8Ag8Ge8Pd8C
_symmetry_space_group_name_H-M   'P 1'
_cell_length_a   8.88488000
_cell_length_b   6.28256000
_cell_length_c   26.66370000
_cell_angle_alpha   90.00000000
_cell_angle_beta   90.00000000
_cell_angle_gamma   90.00000000
_symmetry_Int_Tables_number   1
_chemical_formula_structural   Li8Ag8Ge8Pd8C
_chemical_formula_sum   'Li8 Ag8 Ge8 Pd8 C1'
_cell_volume   1488.36217976
_cell_formula_units_Z   1
loop_
 _symmetry_equiv_pos_site_id
 _symmetry_equiv_pos_as_xyz
  1  'x, y, z'
loop_
 _atom_site_type_symbol
 _atom_site_label
 _atom_site_symmetry_multiplicity
 _atom_site_fract_x
 _atom_site_fract_y
 _atom_site_fract_z
 _atom_site_occupancy
  Li  Li0  1  0.00000000  0.25000000  0.04165000  1.0
  Li  Li1  1  0.50000000  0.25000000  0.04165000  1.0
  Li  Li2  1  0.25000000  0.75000000  0.12496000  1.0
  Li  Li3  1  0.75000000  0.75000000  0.12496000  1.0
  Li  Li4  1  0.50000000  0.23241000  0.86601000  1.0
  Li  Li5  1  0.00000000  0.27373000  0.86319000  1.0
  Li  Li6  1  0.74648000  0.74662000  0.96011000  1.0
  Li  Li7  1  0.25352000  0.74662000  0.96011000  1.0
  Ag  Ag8  1  0.00000000  0.00000000  0.12496000  1.0
  Ag  Ag9  1  0.50000000  0.00000000  0.12496000  1.0
  Ag  Ag10  1  0.75000000  0.50000000  0.04165000  1.0
  Ag  Ag11  1  0.25000000  0.50000000  0.04165000  1.0
  Ag  Ag12  1  0.50000000  0.99538000  0.95347000  1.0
  Ag  Ag13  1  0.00000000  0.98836000  0.95756000  1.0
  Ag  Ag14  1  0.27850000  0.52235000  0.87508000  1.0
  Ag  Ag15  1  0.72150000  0.52235000  0.87508000  1.0
  Ge  Ge16  1  0.00000000  0.75000000  0.04165000  1.0
  Ge  Ge17  1  0.50000000  0.75000000  0.04165000  1.0
  Ge  Ge18  1  0.25000000  0.25000000  0.12496000  1.0
  Ge  Ge19  1  0.75000000  0.25000000  0.12496000  1.0
  Ge  Ge20  1  0.50000000  0.80796000  0.86030000  1.0
  Ge  Ge21  1  0.00000000  0.66818000  0.85894000  1.0
  Ge  Ge22  1  0.74793000  0.25551000  0.95747000  1.0
  Ge  Ge23  1  0.25207000  0.25551000  0.95747000  1.0
  Pd  Pd24  1  0.25000000  0.00000000  0.04165000  1.0
  Pd  Pd25  1  0.75000000  0.00000000  0.04165000  1.0
  Pd  Pd26  1  0.50000000  0.50000000  0.12496000  1.0
  Pd  Pd27  1  0.00000000  0.50000000  0.12496000  1.0
  Pd  Pd28  1  0.76184000  0.99729000  0.88266000  1.0
  Pd  Pd29  1  0.23816000  0.99729000  0.88266000  1.0
  Pd  Pd30  1  0.00000000  0.49955000  0.95806000  1.0
  Pd  Pd31  1  0.50000000  0.49823000  0.95724000  1.0
  C  C32  1  0.00000000  0.96100000  0.86879000  1.0
