data_image0
_chemical_formula_structural       Ga8Fe16Co8CO
_chemical_formula_sum              "Ga8 Fe16 Co8 C1 O1"
_cell_length_a       5.79866
_cell_length_b       8.20054
_cell_length_c       26.1504
_cell_angle_alpha    90
_cell_angle_beta     90
_cell_angle_gamma    90

_space_group_name_H-M_alt    "P 1"
_space_group_IT_number       1

loop_
  _space_group_symop_operation_xyz
  'x, y, z'

loop_
  _atom_site_type_symbol
  _atom_site_label
  _atom_site_symmetry_multiplicity
  _atom_site_fract_x
  _atom_site_fract_y
  _atom_site_fract_z
  _atom_site_occupancy
  Ga  Ga1       1.0  0.00000  0.00000  0.88240  1.0000
  Ga  Ga2       1.0  0.50000  0.25000  0.96080  1.0000
  Ga  Ga3       1.0  0.50000  0.75000  0.96080  1.0000
  Ga  Ga4       1.0  0.00000  0.50000  0.88240  1.0000
  Ga  Ga5       1.0  0.99732  0.49994  0.03883  1.0000
  Ga  Ga6       1.0  0.49160  0.75270  0.13205  1.0000
  Ga  Ga7       1.0  0.49164  0.24713  0.13213  1.0000
  Ga  Ga8       1.0  0.01001  0.00027  0.03946  1.0000
  Fe  Fe1       1.0  0.25000  0.00000  0.96080  1.0000
  Fe  Fe2       1.0  0.75000  0.50000  0.96080  1.0000
  Fe  Fe3       1.0  0.75000  0.00000  0.96080  1.0000
  Fe  Fe4       1.0  0.25000  0.50000  0.96080  1.0000
  Fe  Fe5       1.0  0.75000  0.75000  0.88240  1.0000
  Fe  Fe6       1.0  0.25000  0.25000  0.88240  1.0000
  Fe  Fe7       1.0  0.25000  0.75000  0.88240  1.0000
  Fe  Fe8       1.0  0.75000  0.25000  0.88240  1.0000
  Fe  Fe9       1.0  0.25816  0.49988  0.11541  1.0000
  Fe  Fe10      1.0  0.73838  0.99995  0.11429  1.0000
  Fe  Fe11      1.0  0.73694  0.49989  0.11612  1.0000
  Fe  Fe12      1.0  0.25259  0.99999  0.11855  1.0000
  Fe  Fe13      1.0  0.74049  0.24828  0.04234  1.0000
  Fe  Fe14      1.0  0.26106  0.74740  0.04206  1.0000
  Fe  Fe15      1.0  0.26133  0.25286  0.04207  1.0000
  Fe  Fe16      1.0  0.74071  0.75196  0.04234  1.0000
  Co  Co1       1.0  0.00000  0.75000  0.96080  1.0000
  Co  Co2       1.0  0.50000  0.00000  0.88240  1.0000
  Co  Co3       1.0  0.00000  0.25000  0.96080  1.0000
  Co  Co4       1.0  0.50000  0.50000  0.88240  1.0000
  Co  Co5       1.0  0.99703  0.25349  0.11244  1.0000
  Co  Co6       1.0  0.50277  0.50013  0.03673  1.0000
  Co  Co7       1.0  0.99706  0.74635  0.11246  1.0000
  Co  Co8       1.0  0.49760  0.00013  0.03635  1.0000
  C   C1        1.0  0.13480  0.99994  0.18130  1.0000
  O   O1        1.0  0.07075  0.99988  0.22364  1.0000
