# generated using pymatgen
data_Ga8Fe16Co8CO
_symmetry_space_group_name_H-M   P1
_cell_length_a   5.79866000
_cell_length_b   8.20054000
_cell_length_c   26.15040000
_cell_angle_alpha   90.00000000
_cell_angle_beta   90.00000000
_cell_angle_gamma   90.00000000
_symmetry_Int_Tables_number   1
_chemical_formula_structural   Ga8Fe16Co8CO
_chemical_formula_sum   'Ga8 Fe16 Co8 C1 O1'
_cell_volume   1243.50756754
_cell_formula_units_Z   1
loop_
 _symmetry_equiv_pos_site_id
 _symmetry_equiv_pos_as_xyz
  1  'x, y, z'
loop_
 _atom_site_type_symbol
 _atom_site_label
 _atom_site_symmetry_multiplicity
 _atom_site_fract_x
 _atom_site_fract_y
 _atom_site_fract_z
 _atom_site_occupancy
  Ga  Ga0  1  0.00000000  0.00000000  0.88240000  1.0
  Ga  Ga1  1  0.00000000  0.50000000  0.88240000  1.0
  Ga  Ga2  1  0.01001000  0.00027000  0.03946000  1.0
  Ga  Ga3  1  0.49160000  0.75270000  0.13205000  1.0
  Ga  Ga4  1  0.49164000  0.24713000  0.13213000  1.0
  Ga  Ga5  1  0.50000000  0.25000000  0.96080000  1.0
  Ga  Ga6  1  0.50000000  0.75000000  0.96080000  1.0
  Ga  Ga7  1  0.99732000  0.49994000  0.03883000  1.0
  Fe  Fe8  1  0.25000000  0.00000000  0.96080000  1.0
  Fe  Fe9  1  0.25000000  0.25000000  0.88240000  1.0
  Fe  Fe10  1  0.25000000  0.50000000  0.96080000  1.0
  Fe  Fe11  1  0.25000000  0.75000000  0.88240000  1.0
  Fe  Fe12  1  0.25259000  0.99999000  0.11855000  1.0
  Fe  Fe13  1  0.25816000  0.49988000  0.11541000  1.0
  Fe  Fe14  1  0.26106000  0.74740000  0.04206000  1.0
  Fe  Fe15  1  0.26133000  0.25286000  0.04207000  1.0
  Fe  Fe16  1  0.73694000  0.49989000  0.11612000  1.0
  Fe  Fe17  1  0.73838000  0.99995000  0.11429000  1.0
  Fe  Fe18  1  0.74049000  0.24828000  0.04234000  1.0
  Fe  Fe19  1  0.74071000  0.75196000  0.04234000  1.0
  Fe  Fe20  1  0.75000000  0.00000000  0.96080000  1.0
  Fe  Fe21  1  0.75000000  0.25000000  0.88240000  1.0
  Fe  Fe22  1  0.75000000  0.50000000  0.96080000  1.0
  Fe  Fe23  1  0.75000000  0.75000000  0.88240000  1.0
  Co  Co24  1  0.00000000  0.25000000  0.96080000  1.0
  Co  Co25  1  0.00000000  0.75000000  0.96080000  1.0
  Co  Co26  1  0.49760000  0.00013000  0.03635000  1.0
  Co  Co27  1  0.50000000  0.00000000  0.88240000  1.0
  Co  Co28  1  0.50000000  0.50000000  0.88240000  1.0
  Co  Co29  1  0.50277000  0.50013000  0.03673000  1.0
  Co  Co30  1  0.99703000  0.25349000  0.11244000  1.0
  Co  Co31  1  0.99706000  0.74635000  0.11246000  1.0
  C  C32  1  0.13480000  0.99994000  0.18130000  1.0
  O  O33  1  0.07075000  0.99988000  0.22364000  1.0
