# generated using pymatgen
data_Y8In8Cu16CO
_symmetry_space_group_name_H-M   Pmm2
_cell_length_a   6.69979000
_cell_length_b   9.47494000
_cell_length_c   27.10620000
_cell_angle_alpha   90.00000000
_cell_angle_beta   90.00000000
_cell_angle_gamma   90.00000000
_symmetry_Int_Tables_number   25
_chemical_formula_structural   Y8In8Cu16CO
_chemical_formula_sum   'Y8 In8 Cu16 C1 O1'
_cell_volume   1720.70451059
_cell_formula_units_Z   1
loop_
 _symmetry_equiv_pos_site_id
 _symmetry_equiv_pos_as_xyz
  1  'x, y, z'
  2  '-x, -y, z'
  3  '-x, y, z'
  4  'x, -y, z'
loop_
 _atom_site_type_symbol
 _atom_site_label
 _atom_site_symmetry_multiplicity
 _atom_site_fract_x
 _atom_site_fract_y
 _atom_site_fract_z
 _atom_site_occupancy
  Y  Y0  2  0.00000000  0.25000000  0.86892000  1.0
  Y  Y1  2  0.00000000  0.25431000  0.04265000  1.0
  Y  Y2  1  0.50000000  0.00000000  0.13177000  1.0
  Y  Y3  1  0.50000000  0.00000000  0.95631000  1.0
  Y  Y4  1  0.50000000  0.50000000  0.13683000  1.0
  Y  Y5  1  0.50000000  0.50000000  0.95631000  1.0
  In  In6  2  0.50000000  0.24761000  0.04430000  1.0
  In  In7  2  0.50000000  0.25000000  0.86892000  1.0
  In  In8  1  0.00000000  0.00000000  0.13208000  1.0
  In  In9  1  0.00000000  0.00000000  0.95631000  1.0
  In  In10  1  0.00000000  0.50000000  0.13130000  1.0
  In  In11  1  0.00000000  0.50000000  0.95631000  1.0
  Cu  Cu12  4  0.23193000  0.25121000  0.13078000  1.0
  Cu  Cu13  4  0.25000000  0.25000000  0.95631000  1.0
  Cu  Cu14  2  0.24656000  0.00000000  0.04399000  1.0
  Cu  Cu15  2  0.25000000  0.50000000  0.86892000  1.0
  Cu  Cu16  2  0.25000000  0.00000000  0.86892000  1.0
  Cu  Cu17  2  0.27104000  0.50000000  0.04710000  1.0
  C  C18  1  0.50000000  0.00000000  0.22382000  1.0
  O  O19  1  0.50000000  0.00000000  0.26610000  1.0
