data_image0
_chemical_formula_structural       Li8Ag16Sn8C
_chemical_formula_sum              "Li8 Ag16 Sn8 C1"
_cell_length_a       6.77071
_cell_length_b       9.57522
_cell_length_c       27.1814
_cell_angle_alpha    90
_cell_angle_beta     90
_cell_angle_gamma    90

_space_group_name_H-M_alt    "P 1"
_space_group_IT_number       1

loop_
  _space_group_symop_operation_xyz
  'x, y, z'

loop_
  _atom_site_type_symbol
  _atom_site_label
  _atom_site_symmetry_multiplicity
  _atom_site_fract_x
  _atom_site_fract_y
  _atom_site_fract_z
  _atom_site_occupancy
  Li  Li1       1.0  0.00000  0.00000  0.86790  1.0000
  Li  Li2       1.0  0.50000  0.25000  0.95597  1.0000
  Li  Li3       1.0  0.50000  0.75000  0.95597  1.0000
  Li  Li4       1.0  0.00000  0.50000  0.86790  1.0000
  Li  Li5       1.0  0.00000  0.50000  0.04452  1.0000
  Li  Li6       1.0  0.50000  0.77582  0.13562  1.0000
  Li  Li7       1.0  0.50000  0.22418  0.13562  1.0000
  Li  Li8       1.0  1.00000  0.00000  0.04557  1.0000
  Ag  Ag1       1.0  0.25000  0.00000  0.95597  1.0000
  Ag  Ag2       1.0  0.75000  0.50000  0.95597  1.0000
  Ag  Ag3       1.0  0.75000  0.00000  0.95597  1.0000
  Ag  Ag4       1.0  0.25000  0.50000  0.95597  1.0000
  Ag  Ag5       1.0  0.75000  0.75000  0.86790  1.0000
  Ag  Ag6       1.0  0.25000  0.25000  0.86790  1.0000
  Ag  Ag7       1.0  0.25000  0.75000  0.86790  1.0000
  Ag  Ag8       1.0  0.75000  0.25000  0.86790  1.0000
  Ag  Ag9       1.0  0.27003  0.50000  0.13056  1.0000
  Ag  Ag10      1.0  0.79774  1.00000  0.14263  1.0000
  Ag  Ag11      1.0  0.72997  0.50000  0.13056  1.0000
  Ag  Ag12      1.0  0.20226  1.00000  0.14263  1.0000
  Ag  Ag13      1.0  0.77181  0.25219  0.04967  1.0000
  Ag  Ag14      1.0  0.22819  0.74782  0.04967  1.0000
  Ag  Ag15      1.0  0.22819  0.25219  0.04967  1.0000
  Ag  Ag16      1.0  0.77181  0.74781  0.04967  1.0000
  Sn  Sn1       1.0  0.00000  0.75000  0.95597  1.0000
  Sn  Sn2       1.0  0.50000  0.00000  0.86790  1.0000
  Sn  Sn3       1.0  0.00000  0.25000  0.95597  1.0000
  Sn  Sn4       1.0  0.50000  0.50000  0.86790  1.0000
  Sn  Sn5       1.0  1.00000  0.26611  0.14421  1.0000
  Sn  Sn6       1.0  0.50000  0.50000  0.04234  1.0000
  Sn  Sn7       1.0  0.00000  0.73389  0.14421  1.0000
  Sn  Sn8       1.0  0.50000  0.00000  0.04118  1.0000
  C   C1        1.0  0.50000  0.00000  0.12044  1.0000
