# generated using pymatgen
data_Li8Ag16Sn8C
_symmetry_space_group_name_H-M   'P 1'
_cell_length_a   6.77071000
_cell_length_b   9.57522000
_cell_length_c   27.18140000
_cell_angle_alpha   90.00000000
_cell_angle_beta   90.00000000
_cell_angle_gamma   90.00000000
_symmetry_Int_Tables_number   1
_chemical_formula_structural   Li8Ag16Sn8C
_chemical_formula_sum   'Li8 Ag16 Sn8 C1'
_cell_volume   1762.19837103
_cell_formula_units_Z   1
loop_
 _symmetry_equiv_pos_site_id
 _symmetry_equiv_pos_as_xyz
  1  'x, y, z'
loop_
 _atom_site_type_symbol
 _atom_site_label
 _atom_site_symmetry_multiplicity
 _atom_site_fract_x
 _atom_site_fract_y
 _atom_site_fract_z
 _atom_site_occupancy
  Li  Li0  1  0.00000000  0.00000000  0.86790000  1.0
  Li  Li1  1  0.50000000  0.25000000  0.95597000  1.0
  Li  Li2  1  0.50000000  0.75000000  0.95597000  1.0
  Li  Li3  1  0.00000000  0.50000000  0.86790000  1.0
  Li  Li4  1  0.00000000  0.50000000  0.04452000  1.0
  Li  Li5  1  0.50000000  0.77582000  0.13562000  1.0
  Li  Li6  1  0.50000000  0.22418000  0.13562000  1.0
  Li  Li7  1  0.00000000  0.00000000  0.04557000  1.0
  Ag  Ag8  1  0.25000000  0.00000000  0.95597000  1.0
  Ag  Ag9  1  0.75000000  0.50000000  0.95597000  1.0
  Ag  Ag10  1  0.75000000  0.00000000  0.95597000  1.0
  Ag  Ag11  1  0.25000000  0.50000000  0.95597000  1.0
  Ag  Ag12  1  0.75000000  0.75000000  0.86790000  1.0
  Ag  Ag13  1  0.25000000  0.25000000  0.86790000  1.0
  Ag  Ag14  1  0.25000000  0.75000000  0.86790000  1.0
  Ag  Ag15  1  0.75000000  0.25000000  0.86790000  1.0
  Ag  Ag16  1  0.27003000  0.50000000  0.13056000  1.0
  Ag  Ag17  1  0.79774000  0.00000000  0.14263000  1.0
  Ag  Ag18  1  0.72997000  0.50000000  0.13056000  1.0
  Ag  Ag19  1  0.20226000  0.00000000  0.14263000  1.0
  Ag  Ag20  1  0.77181000  0.25219000  0.04967000  1.0
  Ag  Ag21  1  0.22819000  0.74781000  0.04967000  1.0
  Ag  Ag22  1  0.22819000  0.25219000  0.04967000  1.0
  Ag  Ag23  1  0.77181000  0.74781000  0.04967000  1.0
  Sn  Sn24  1  0.00000000  0.75000000  0.95597000  1.0
  Sn  Sn25  1  0.50000000  0.00000000  0.86790000  1.0
  Sn  Sn26  1  0.00000000  0.25000000  0.95597000  1.0
  Sn  Sn27  1  0.50000000  0.50000000  0.86790000  1.0
  Sn  Sn28  1  0.00000000  0.26611000  0.14421000  1.0
  Sn  Sn29  1  0.50000000  0.50000000  0.04234000  1.0
  Sn  Sn30  1  0.00000000  0.73389000  0.14421000  1.0
  Sn  Sn31  1  0.50000000  0.00000000  0.04118000  1.0
  C  C32  1  0.50000000  0.00000000  0.12044000  1.0
