# generated using pymatgen
data_K24Bi8C
_symmetry_space_group_name_H-M   'P 1'
_cell_length_a   8.83903000
_cell_length_b   12.50030000
_cell_length_c   29.37520000
_cell_angle_alpha   90.00000000
_cell_angle_beta   90.00000000
_cell_angle_gamma   90.00000000
_symmetry_Int_Tables_number   1
_chemical_formula_structural   K24Bi8C
_chemical_formula_sum   'K24 Bi8 C1'
_cell_volume   3245.68132018
_cell_formula_units_Z   1
loop_
 _symmetry_equiv_pos_site_id
 _symmetry_equiv_pos_as_xyz
  1  'x, y, z'
loop_
 _atom_site_type_symbol
 _atom_site_label
 _atom_site_symmetry_multiplicity
 _atom_site_fract_x
 _atom_site_fract_y
 _atom_site_fract_z
 _atom_site_occupancy
  K  K0  1  0.25000000  0.00000000  0.94681000  1.0
  K  K1  1  0.75000000  0.50000000  0.94681000  1.0
  K  K2  1  0.75000000  0.00000000  0.94681000  1.0
  K  K3  1  0.25000000  0.50000000  0.94681000  1.0
  K  K4  1  0.75000000  0.75000000  0.84042000  1.0
  K  K5  1  0.25000000  0.25000000  0.84042000  1.0
  K  K6  1  0.25000000  0.75000000  0.84042000  1.0
  K  K7  1  0.75000000  0.25000000  0.84042000  1.0
  K  K8  1  0.00000000  0.75000000  0.94681000  1.0
  K  K9  1  0.50000000  0.00000000  0.84042000  1.0
  K  K10  1  0.00000000  0.25000000  0.94681000  1.0
  K  K11  1  0.50000000  0.50000000  0.84042000  1.0
  K  K12  1  0.27456000  0.50000000  0.17175000  1.0
  K  K13  1  0.72118000  0.00000000  0.18531000  1.0
  K  K14  1  0.72544000  0.50000000  0.17175000  1.0
  K  K15  1  0.27882000  0.00000000  0.18531000  1.0
  K  K16  1  0.74825000  0.25589000  0.05498000  1.0
  K  K17  1  0.25175000  0.74411000  0.05498000  1.0
  K  K18  1  0.25175000  0.25589000  0.05498000  1.0
  K  K19  1  0.74825000  0.74411000  0.05498000  1.0
  K  K20  1  0.00000000  0.23010000  0.15806000  1.0
  K  K21  1  0.50000000  0.50000000  0.05791000  1.0
  K  K22  1  0.00000000  0.76990000  0.15806000  1.0
  K  K23  1  0.50000000  0.00000000  0.07011000  1.0
  Bi  Bi24  1  0.00000000  0.00000000  0.84042000  1.0
  Bi  Bi25  1  0.50000000  0.25000000  0.94681000  1.0
  Bi  Bi26  1  0.50000000  0.75000000  0.94681000  1.0
  Bi  Bi27  1  0.00000000  0.50000000  0.84042000  1.0
  Bi  Bi28  1  0.00000000  0.50000000  0.06346000  1.0
  Bi  Bi29  1  0.50000000  0.75427000  0.15357000  1.0
  Bi  Bi30  1  0.50000000  0.24573000  0.15357000  1.0
  Bi  Bi31  1  0.00000000  0.00000000  0.05719000  1.0
  C  C32  1  0.00000000  0.00000000  0.13150000  1.0
