# generated using pymatgen
data_K24Bi8C
_symmetry_space_group_name_H-M   Pmm2
_cell_length_a   8.83903000
_cell_length_b   12.50030000
_cell_length_c   29.37520000
_cell_angle_alpha   90.00000000
_cell_angle_beta   90.00000000
_cell_angle_gamma   90.00000000
_symmetry_Int_Tables_number   25
_chemical_formula_structural   K24Bi8C
_chemical_formula_sum   'K24 Bi8 C1'
_cell_volume   3245.68132018
_cell_formula_units_Z   1
loop_
 _symmetry_equiv_pos_site_id
 _symmetry_equiv_pos_as_xyz
  1  'x, y, z'
  2  '-x, -y, z'
  3  '-x, y, z'
  4  'x, -y, z'
loop_
 _atom_site_type_symbol
 _atom_site_label
 _atom_site_symmetry_multiplicity
 _atom_site_fract_x
 _atom_site_fract_y
 _atom_site_fract_z
 _atom_site_occupancy
  K  K0  4  0.25000000  0.25000000  0.84042000  1.0
  K  K1  4  0.25175000  0.25589000  0.05498000  1.0
  K  K2  2  0.00000000  0.23010000  0.15806000  1.0
  K  K3  2  0.00000000  0.25000000  0.94681000  1.0
  K  K4  2  0.25000000  0.00000000  0.94681000  1.0
  K  K5  2  0.25000000  0.50000000  0.94681000  1.0
  K  K6  2  0.27456000  0.50000000  0.17175000  1.0
  K  K7  2  0.27882000  0.00000000  0.18531000  1.0
  K  K8  1  0.50000000  0.00000000  0.07011000  1.0
  K  K9  1  0.50000000  0.00000000  0.84042000  1.0
  K  K10  1  0.50000000  0.50000000  0.05791000  1.0
  K  K11  1  0.50000000  0.50000000  0.84042000  1.0
  Bi  Bi12  2  0.50000000  0.24573000  0.15357000  1.0
  Bi  Bi13  2  0.50000000  0.25000000  0.94681000  1.0
  Bi  Bi14  1  0.00000000  0.00000000  0.05719000  1.0
  Bi  Bi15  1  0.00000000  0.00000000  0.84042000  1.0
  Bi  Bi16  1  0.00000000  0.50000000  0.06346000  1.0
  Bi  Bi17  1  0.00000000  0.50000000  0.84042000  1.0
  C  C18  1  0.00000000  0.00000000  0.13150000  1.0
