# generated using pymatgen
data_Li8Mg8Al8Ag8CO
_symmetry_space_group_name_H-M   P1
_cell_length_a   6.43596000
_cell_length_b   9.10182000
_cell_length_c   26.82640000
_cell_angle_alpha   90.00000000
_cell_angle_beta   90.00000000
_cell_angle_gamma   90.00000000
_symmetry_Int_Tables_number   1
_chemical_formula_structural   Li8Mg8Al8Ag8CO
_chemical_formula_sum   'Li8 Mg8 Al8 Ag8 C1 O1'
_cell_volume   1571.46232945
_cell_formula_units_Z   1
loop_
 _symmetry_equiv_pos_site_id
 _symmetry_equiv_pos_as_xyz
  1  'x, y, z'
loop_
 _atom_site_type_symbol
 _atom_site_label
 _atom_site_symmetry_multiplicity
 _atom_site_fract_x
 _atom_site_fract_y
 _atom_site_fract_z
 _atom_site_occupancy
  Li  Li0  1  0.00000000  0.25000000  0.95759000  1.0
  Li  Li1  1  0.00000000  0.75000000  0.95759000  1.0
  Li  Li2  1  0.06190000  0.75000000  0.16504000  1.0
  Li  Li3  1  0.06293000  0.25000000  0.16608000  1.0
  Li  Li4  1  0.50000000  0.00000000  0.87277000  1.0
  Li  Li5  1  0.50000000  0.50000000  0.87277000  1.0
  Li  Li6  1  0.51140000  0.00008000  0.04477000  1.0
  Li  Li7  1  0.51140000  0.49992000  0.04477000  1.0
  Mg  Mg8  1  0.24438000  0.25000000  0.04813000  1.0
  Mg  Mg9  1  0.24520000  0.75001000  0.04806000  1.0
  Mg  Mg10  1  0.25000000  0.25000000  0.87277000  1.0
  Mg  Mg11  1  0.25000000  0.75000000  0.87277000  1.0
  Mg  Mg12  1  0.75000000  0.00000000  0.95759000  1.0
  Mg  Mg13  1  0.75000000  0.50000000  0.95759000  1.0
  Mg  Mg14  1  0.77975000  0.50074000  0.13201000  1.0
  Mg  Mg15  1  0.77983000  0.99921000  0.13197000  1.0
  Al  Al16  1  0.25000000  0.00000000  0.95759000  1.0
  Al  Al17  1  0.25000000  0.50000000  0.95759000  1.0
  Al  Al18  1  0.25781000  0.50031000  0.12901000  1.0
  Al  Al19  1  0.25783000  0.99969000  0.12901000  1.0
  Al  Al20  1  0.75000000  0.25000000  0.87277000  1.0
  Al  Al21  1  0.75000000  0.75000000  0.87277000  1.0
  Al  Al22  1  0.76268000  0.74999000  0.04926000  1.0
  Al  Al23  1  0.76339000  0.25001000  0.04974000  1.0
  Ag  Ag24  1  0.00000000  0.00000000  0.87277000  1.0
  Ag  Ag25  1  0.00000000  0.50000000  0.87277000  1.0
  Ag  Ag26  1  0.00346000  0.99975000  0.03949000  1.0
  Ag  Ag27  1  0.00350000  0.50027000  0.03949000  1.0
  Ag  Ag28  1  0.50000000  0.25000000  0.95759000  1.0
  Ag  Ag29  1  0.50000000  0.75000000  0.95759000  1.0
  Ag  Ag30  1  0.50150000  0.24997000  0.12922000  1.0
  Ag  Ag31  1  0.50209000  0.75005000  0.12941000  1.0
  C  C32  1  0.97771000  0.25000000  0.24121000  1.0
  O  O33  1  0.92543000  0.25000000  0.28184000  1.0
