# generated using pymatgen
data_Li4Al4Ga4Pd4C
_symmetry_space_group_name_H-M   'P 1'
_cell_length_a   6.14517000
_cell_length_b   6.14517000
_cell_length_c   24.60890000
_cell_angle_alpha   90.00000000
_cell_angle_beta   90.00000000
_cell_angle_gamma   90.00000000
_symmetry_Int_Tables_number   1
_chemical_formula_structural   Li4Al4Ga4Pd4C
_chemical_formula_sum   'Li4 Al4 Ga4 Pd4 C1'
_cell_volume   929.30870421
_cell_formula_units_Z   1
loop_
 _symmetry_equiv_pos_site_id
 _symmetry_equiv_pos_as_xyz
  1  'x, y, z'
loop_
 _atom_site_type_symbol
 _atom_site_label
 _atom_site_symmetry_multiplicity
 _atom_site_fract_x
 _atom_site_fract_y
 _atom_site_fract_z
 _atom_site_occupancy
  Li  Li0  1  0.75017000  0.75017000  0.97413000  1
  Li  Li1  1  0.75000000  0.25000000  0.09364000  1
  Li  Li2  1  0.25000000  0.75000000  0.09364000  1
  Li  Li3  1  0.24993500  0.24993500  0.95596000  1
  Al  Al4  1  0.97021000  0.97021000  0.90480000  1
  Al  Al5  1  1.00000000  0.50000000  0.03121000  1
  Al  Al6  1  0.50000000  0.00000000  0.03121000  1
  Al  Al7  1  0.53043000  0.53043000  0.90468000  1
  Ga  Ga8  1  0.98901000  0.51122000  0.90006000  1
  Ga  Ga9  1  0.00000000  0.00000000  0.03121000  1
  Ga  Ga10  1  0.50000000  0.50000000  0.03121000  1
  Ga  Ga11  1  0.51122000  0.98901000  0.90006000  1
  Pd  Pd12  1  0.25017000  0.74994000  0.96573000  1
  Pd  Pd13  1  0.25000000  0.25000000  0.09364000  1
  Pd  Pd14  1  0.75000000  0.75000000  0.09364000  1
  Pd  Pd15  1  0.74994000  0.25017000  0.96573000  1
  C  C16  1  0.75052000  0.75052000  0.88277000  1
