# generated using pymatgen
data_Mg8Sc8In8Pd8CO
_symmetry_space_group_name_H-M   'P 1'
_cell_length_a   9.57114000
_cell_length_b   6.76782000
_cell_length_c   27.17840000
_cell_angle_alpha   90.00000000
_cell_angle_beta   90.00000000
_cell_angle_gamma   90.00000000
_symmetry_Int_Tables_number   1
_chemical_formula_structural   Mg8Sc8In8Pd8CO
_chemical_formula_sum   'Mg8 Sc8 In8 Pd8 C1 O1'
_cell_volume   1760.50131758
_cell_formula_units_Z   1
loop_
 _symmetry_equiv_pos_site_id
 _symmetry_equiv_pos_as_xyz
  1  'x, y, z'
loop_
 _atom_site_type_symbol
 _atom_site_label
 _atom_site_symmetry_multiplicity
 _atom_site_fract_x
 _atom_site_fract_y
 _atom_site_fract_z
 _atom_site_occupancy
  Mg  Mg0  1  0.75003000  0.25000000  0.04402000  1.0
  Mg  Mg1  1  0.24997000  0.25000000  0.04402000  1.0
  Mg  Mg2  1  0.00000000  0.75000000  0.13206000  1.0
  Mg  Mg3  1  0.50000000  0.75000000  0.13206000  1.0
  Mg  Mg4  1  0.24218000  0.24373000  0.86456000  1.0
  Mg  Mg5  1  0.75782000  0.24373000  0.86456000  1.0
  Mg  Mg6  1  0.50000000  0.73650000  0.95219000  1.0
  Mg  Mg7  1  0.00000000  0.73782000  0.95416000  1.0
  Sc  Sc8  1  0.75003000  0.75000000  0.04402000  1.0
  Sc  Sc9  1  0.24997000  0.75000000  0.04402000  1.0
  Sc  Sc10  1  0.00000000  0.25000000  0.13206000  1.0
  Sc  Sc11  1  0.50000000  0.25000000  0.13206000  1.0
  Sc  Sc12  1  0.26042000  0.74318000  0.86621000  1.0
  Sc  Sc13  1  0.73958000  0.74318000  0.86621000  1.0
  Sc  Sc14  1  0.50000000  0.26089000  0.95206000  1.0
  Sc  Sc15  1  0.00000000  0.25793000  0.95192000  1.0
  In  In16  1  0.75003000  0.00000000  0.13206000  1.0
  In  In17  1  0.24997000  0.00000000  0.13206000  1.0
  In  In18  1  0.50000000  0.50000000  0.04402000  1.0
  In  In19  1  0.00000000  0.50000000  0.04402000  1.0
  In  In20  1  0.25032000  0.99653000  0.95426000  1.0
  In  In21  1  0.74968000  0.99653000  0.95426000  1.0
  In  In22  1  0.00000000  0.51191000  0.85293000  1.0
  In  In23  1  0.50000000  0.46946000  0.84682000  1.0
  Pd  Pd24  1  0.00000000  1.00000000  0.04402000  1.0
  Pd  Pd25  1  0.50000000  1.00000000  0.04402000  1.0
  Pd  Pd26  1  0.25003000  0.50000000  0.13206000  1.0
  Pd  Pd27  1  0.74997000  0.50000000  0.13206000  1.0
  Pd  Pd28  1  0.50000000  0.01177000  0.87659000  1.0
  Pd  Pd29  1  0.00000000  0.98721000  0.87723000  1.0
  Pd  Pd30  1  0.75116000  0.50538000  0.95539000  1.0
  Pd  Pd31  1  0.24884000  0.50538000  0.95539000  1.0
  C  C32  1  0.00000000  0.41601000  0.71598000  1.0
  O  O33  1  0.00000000  0.55413000  0.69220000  1.0
