# generated using pymatgen
data_Mg8Sc8In8Pd8CO
_symmetry_space_group_name_H-M   Pm
_cell_length_a   6.76782000
_cell_length_b   9.57114000
_cell_length_c   27.17840000
_cell_angle_alpha   90.00000000
_cell_angle_beta   90.00000000
_cell_angle_gamma   90.00000000
_symmetry_Int_Tables_number   6
_chemical_formula_structural   Mg8Sc8In8Pd8CO
_chemical_formula_sum   'Mg8 Sc8 In8 Pd8 C1 O1'
_cell_volume   1760.50131758
_cell_formula_units_Z   1
loop_
 _symmetry_equiv_pos_site_id
 _symmetry_equiv_pos_as_xyz
  1  'x, y, z'
  2  'x, -y, z'
loop_
 _atom_site_type_symbol
 _atom_site_label
 _atom_site_symmetry_multiplicity
 _atom_site_fract_x
 _atom_site_fract_y
 _atom_site_fract_z
 _atom_site_occupancy
  Mg  Mg0  2  0.24373000  0.24218000  0.13544000  1.0
  Mg  Mg1  2  0.25000000  0.24997000  0.95598000  1.0
  Mg  Mg2  1  0.73650000  0.50000000  0.04781000  1.0
  Mg  Mg3  1  0.73782000  0.00000000  0.04584000  1.0
  Mg  Mg4  1  0.75000000  0.00000000  0.86794000  1.0
  Mg  Mg5  1  0.75000000  0.50000000  0.86794000  1.0
  Sc  Sc6  2  0.74318000  0.26042000  0.13379000  1.0
  Sc  Sc7  2  0.75000000  0.24997000  0.95598000  1.0
  Sc  Sc8  1  0.25000000  0.00000000  0.86794000  1.0
  Sc  Sc9  1  0.25000000  0.50000000  0.86794000  1.0
  Sc  Sc10  1  0.25793000  0.00000000  0.04808000  1.0
  Sc  Sc11  1  0.26089000  0.50000000  0.04794000  1.0
  In  In12  2  0.00000000  0.24997000  0.86794000  1.0
  In  In13  2  0.99653000  0.25032000  0.04574000  1.0
  In  In14  1  0.46946000  0.50000000  0.15318000  1.0
  In  In15  1  0.50000000  0.00000000  0.95598000  1.0
  In  In16  1  0.50000000  0.50000000  0.95598000  1.0
  In  In17  1  0.51191000  0.00000000  0.14707000  1.0
  Pd  Pd18  2  0.50000000  0.25003000  0.86794000  1.0
  Pd  Pd19  2  0.50538000  0.24884000  0.04461000  1.0
  Pd  Pd20  1  -0.00000000  0.50000000  0.95598000  1.0
  Pd  Pd21  1  -0.00000000  0.00000000  0.95598000  1.0
  Pd  Pd22  1  0.01177000  0.50000000  0.12341000  1.0
  Pd  Pd23  1  0.98721000  0.00000000  0.12277000  1.0
  C  C24  1  0.41601000  0.00000000  0.28402000  1.0
  O  O25  1  0.55413000  0.00000000  0.30780000  1.0
