data_image0
_chemical_formula_structural       Pb16C
_chemical_formula_sum              "Pb16 C1"
_cell_length_a       8.09136
_cell_length_b       8.09136
_cell_length_c       26.0685
_cell_angle_alpha    90
_cell_angle_beta     90
_cell_angle_gamma    90

_space_group_name_H-M_alt    "P 1"
_space_group_IT_number       1

loop_
  _space_group_symop_operation_xyz
  'x, y, z'

loop_
  _atom_site_type_symbol
  _atom_site_label
  _atom_site_symmetry_multiplicity
  _atom_site_fract_x
  _atom_site_fract_y
  _atom_site_fract_z
  _atom_site_occupancy
  Pb  Pb1       1.0  0.00000  0.00000  0.88360  1.0000
  Pb  Pb2       1.0  0.25000  0.25000  0.96120  1.0000
  Pb  Pb3       1.0  0.00000  1.00000  0.04009  1.0000
  Pb  Pb4       1.0  0.20792  0.20792  0.13087  1.0000
  Pb  Pb5       1.0  0.00000  0.50000  0.88360  1.0000
  Pb  Pb6       1.0  0.25000  0.75000  0.96120  1.0000
  Pb  Pb7       1.0  1.00000  0.50000  0.04012  1.0000
  Pb  Pb8       1.0  0.20792  0.79206  0.13087  1.0000
  Pb  Pb9       1.0  0.50000  0.00000  0.88360  1.0000
  Pb  Pb10      1.0  0.75000  0.25000  0.96120  1.0000
  Pb  Pb11      1.0  0.50000  0.00000  0.04012  1.0000
  Pb  Pb12      1.0  0.79208  0.20793  0.13087  1.0000
  Pb  Pb13      1.0  0.50000  0.50000  0.88360  1.0000
  Pb  Pb14      1.0  0.75000  0.75000  0.96120  1.0000
  Pb  Pb15      1.0  0.50000  0.50000  0.03060  1.0000
  Pb  Pb16      1.0  0.79207  0.79207  0.13087  1.0000
  C   C1        1.0  1.00000  0.99999  0.14816  1.0000
