# generated using pymatgen
data_Pb16C
_symmetry_space_group_name_H-M   'P 1'
_cell_length_a   8.09136000
_cell_length_b   8.09136000
_cell_length_c   26.06850000
_cell_angle_alpha   90.00000000
_cell_angle_beta   90.00000000
_cell_angle_gamma   90.00000000
_symmetry_Int_Tables_number   1
_chemical_formula_structural   Pb16C
_chemical_formula_sum   'Pb16 C1'
_cell_volume   1706.70747520
_cell_formula_units_Z   1
loop_
 _symmetry_equiv_pos_site_id
 _symmetry_equiv_pos_as_xyz
  1  'x, y, z'
loop_
 _atom_site_type_symbol
 _atom_site_label
 _atom_site_symmetry_multiplicity
 _atom_site_fract_x
 _atom_site_fract_y
 _atom_site_fract_z
 _atom_site_occupancy
  Pb  Pb0  1  0.00000000  0.00000000  0.88360000  1.0
  Pb  Pb1  1  0.25000500  0.25000500  0.96120000  1.0
  Pb  Pb2  1  0.00000000  0.00000000  0.04009000  1.0
  Pb  Pb3  1  0.20792500  0.20792500  0.13087000  1.0
  Pb  Pb4  1  0.00000000  0.50000000  0.88360000  1.0
  Pb  Pb5  1  0.25000500  0.74999500  0.96120000  1.0
  Pb  Pb6  1  0.00000000  0.50000000  0.04012000  1.0
  Pb  Pb7  1  0.20792500  0.79207500  0.13087000  1.0
  Pb  Pb8  1  0.50000000  0.00000000  0.88360000  1.0
  Pb  Pb9  1  0.74999500  0.25000500  0.96120000  1.0
  Pb  Pb10  1  0.50000000  0.00000000  0.04012000  1.0
  Pb  Pb11  1  0.79207500  0.20792500  0.13087000  1.0
  Pb  Pb12  1  0.50000000  0.50000000  0.88360000  1.0
  Pb  Pb13  1  0.74999500  0.74999500  0.96120000  1.0
  Pb  Pb14  1  0.50000000  0.50000000  0.03060000  1.0
  Pb  Pb15  1  0.79207500  0.79207500  0.13087000  1.0
  C  C16  1  0.00000000  0.00000000  0.14816000  1.0
