# generated using pymatgen
data_Li4Y4In4Ag4CO
_symmetry_space_group_name_H-M   Cmm2
_cell_length_a   9.76810035
_cell_length_b   9.76810035
_cell_length_c   25.18030000
_cell_angle_alpha   90.00000000
_cell_angle_beta   90.00000000
_cell_angle_gamma   90.00000000
_symmetry_Int_Tables_number   35
_chemical_formula_structural   Li4Y4In4Ag4CO
_chemical_formula_sum   'Li8 Y8 In8 Ag8 C2 O2'
_cell_volume   2402.59807936
_cell_formula_units_Z   2
loop_
 _symmetry_equiv_pos_site_id
 _symmetry_equiv_pos_as_xyz
  1  'x, y, z'
  2  '-x, -y, z'
  3  '-x, y, z'
  4  'x, -y, z'
  5  'x+1/2, y+1/2, z'
  6  '-x+1/2, -y+1/2, z'
  7  '-x+1/2, y+1/2, z'
  8  'x+1/2, -y+1/2, z'
loop_
 _atom_site_type_symbol
 _atom_site_label
 _atom_site_symmetry_multiplicity
 _atom_site_fract_x
 _atom_site_fract_y
 _atom_site_fract_z
 _atom_site_occupancy
  Li  Li0  4  0.00000000  0.24953500  0.03820000  1.0
  Li  Li1  4  0.24999500  0.00000000  0.89714000  1.0
  Y  Y2  4  0.25000000  0.25000000  0.96571000  1.0
  Y  Y3  2  0.00000000  0.00000000  0.11197000  1.0
  Y  Y4  2  0.00000000  0.50000000  0.11257000  1.0
  In  In5  4  0.25000000  0.25000000  0.10726000  1.0
  In  In6  2  0.00000000  0.00000000  0.96571000  1.0
  In  In7  2  0.00000000  0.50000000  0.96571000  1.0
  Ag  Ag8  4  0.00000000  0.25001500  0.89714000  1.0
  Ag  Ag9  4  0.24882000  0.00000000  0.03702000  1.0
  C  C10  2  0.00000000  0.50000000  0.21125000  1.0
  O  O11  2  0.00000000  0.50000000  0.25685000  1.0
