# generated using pymatgen
data_Al16Fe16CO
_symmetry_space_group_name_H-M   Pmm2
_cell_length_a   5.75078000
_cell_length_b   8.13283000
_cell_length_c   26.09960000
_cell_angle_alpha   90.00000000
_cell_angle_beta   90.00000000
_cell_angle_gamma   90.00000000
_symmetry_Int_Tables_number   25
_chemical_formula_structural   Al16Fe16CO
_chemical_formula_sum   'Al16 Fe16 C1 O1'
_cell_volume   1220.68132236
_cell_formula_units_Z   1
loop_
 _symmetry_equiv_pos_site_id
 _symmetry_equiv_pos_as_xyz
  1  'x, y, z'
  2  '-x, -y, z'
  3  '-x, y, z'
  4  'x, -y, z'
loop_
 _atom_site_type_symbol
 _atom_site_label
 _atom_site_symmetry_multiplicity
 _atom_site_fract_x
 _atom_site_fract_y
 _atom_site_fract_z
 _atom_site_occupancy
  Al  Al0  4  0.25000000  0.25000000  0.11685000  1.0
  Al  Al1  4  0.25000000  0.25000000  0.96105000  1.0
  Al  Al2  2  0.25000000  0.00000000  0.03895000  1.0
  Al  Al3  2  0.25000000  0.00000000  0.88315000  1.0
  Al  Al4  2  0.25000000  0.50000000  0.03895000  1.0
  Al  Al5  2  0.25000000  0.50000000  0.88315000  1.0
  Fe  Fe6  2  0.00000000  0.25000000  0.03895000  1.0
  Fe  Fe7  2  0.00000000  0.25000000  0.88315000  1.0
  Fe  Fe8  2  0.50000000  0.25000000  0.03895000  1.0
  Fe  Fe9  2  0.50000000  0.25000000  0.88315000  1.0
  Fe  Fe10  1  0.00000000  0.00000000  0.11685000  1.0
  Fe  Fe11  1  0.00000000  0.00000000  0.96105000  1.0
  Fe  Fe12  1  0.00000000  0.50000000  0.11685000  1.0
  Fe  Fe13  1  0.00000000  0.50000000  0.96105000  1.0
  Fe  Fe14  1  0.50000000  0.00000000  0.11685000  1.0
  Fe  Fe15  1  0.50000000  0.00000000  0.96105000  1.0
  Fe  Fe16  1  0.50000000  0.50000000  0.11685000  1.0
  Fe  Fe17  1  0.50000000  0.50000000  0.96105000  1.0
  C  C18  1  0.00000000  0.00000000  0.18965000  1.0
  O  O19  1  0.00000000  0.00000000  0.23371000  1.0
