# generated using pymatgen
data_K24Sb8C
_symmetry_space_group_name_H-M   'P 1'
_cell_length_a   12.23770000
_cell_length_b   8.65338000
_cell_length_c   29.17830000
_cell_angle_alpha   90.00000000
_cell_angle_beta   90.00000000
_cell_angle_gamma   90.00000000
_symmetry_Int_Tables_number   1
_chemical_formula_structural   K24Sb8C
_chemical_formula_sum   'K24 Sb8 C1'
_cell_volume   3089.90810297
_cell_formula_units_Z   1
loop_
 _symmetry_equiv_pos_site_id
 _symmetry_equiv_pos_as_xyz
  1  'x, y, z'
loop_
 _atom_site_type_symbol
 _atom_site_label
 _atom_site_symmetry_multiplicity
 _atom_site_fract_x
 _atom_site_fract_y
 _atom_site_fract_z
 _atom_site_occupancy
  K  K0  1  0.75000000  0.25000000  0.05243000  1.0
  K  K1  1  0.25000000  0.75000000  0.05243000  1.0
  K  K2  1  0.75000000  0.75000000  0.05243000  1.0
  K  K3  1  0.25000000  0.25000000  0.05243000  1.0
  K  K4  1  0.50000000  0.75000000  0.15728000  1.0
  K  K5  1  0.00000000  0.25000000  0.15728000  1.0
  K  K6  1  0.50000000  0.25000000  0.15728000  1.0
  K  K7  1  0.00000000  0.75000000  0.15728000  1.0
  K  K8  1  0.50000000  0.00000000  0.05243000  1.0
  K  K9  1  0.75000000  0.50000000  0.15728000  1.0
  K  K10  1  0.00000000  0.00000000  0.05243000  1.0
  K  K11  1  0.25000000  0.50000000  0.15728000  1.0
  K  K12  1  0.23506000  0.26873000  0.82846000  1.0
  K  K13  1  0.71528000  0.72709000  0.82687000  1.0
  K  K14  1  0.28472000  0.72709000  0.82687000  1.0
  K  K15  1  0.76494000  0.26873000  0.82846000  1.0
  K  K16  1  0.00000000  0.75022000  0.95191000  1.0
  K  K17  1  0.50000000  0.24307000  0.95477000  1.0
  K  K18  1  0.00000000  0.23932000  0.94301000  1.0
  K  K19  1  0.50000000  0.75135000  0.94628000  1.0
  K  K20  1  0.00000000  0.97300000  0.84725000  1.0
  K  K21  1  0.25972000  0.49556000  0.94170000  1.0
  K  K22  1  0.50000000  0.05530000  0.85192000  1.0
  K  K23  1  0.74028000  0.49556000  0.94170000  1.0
  Sb  Sb24  1  0.75000000  0.00000000  0.15728000  1.0
  Sb  Sb25  1  0.00000000  0.50000000  0.05243000  1.0
  Sb  Sb26  1  0.50000000  0.50000000  0.05243000  1.0
  Sb  Sb27  1  0.25000000  0.00000000  0.15728000  1.0
  Sb  Sb28  1  0.25043000  0.99199000  0.93853000  1.0
  Sb  Sb29  1  0.50000000  0.47322000  0.85438000  1.0
  Sb  Sb30  1  0.00000000  0.53825000  0.84487000  1.0
  Sb  Sb31  1  0.74957000  0.99199000  0.93853000  1.0
  C  C32  1  0.00000000  0.30226000  0.84247000  1.0
