# generated using pymatgen
data_K24Sb8C
_symmetry_space_group_name_H-M   Pm
_cell_length_a   8.65338000
_cell_length_b   12.23770000
_cell_length_c   29.17830000
_cell_angle_alpha   90.00000000
_cell_angle_beta   90.00000000
_cell_angle_gamma   90.00000000
_symmetry_Int_Tables_number   6
_chemical_formula_structural   K24Sb8C
_chemical_formula_sum   'K24 Sb8 C1'
_cell_volume   3089.90810297
_cell_formula_units_Z   1
loop_
 _symmetry_equiv_pos_site_id
 _symmetry_equiv_pos_as_xyz
  1  'x, y, z'
  2  'x, -y, z'
loop_
 _atom_site_type_symbol
 _atom_site_label
 _atom_site_symmetry_multiplicity
 _atom_site_fract_x
 _atom_site_fract_y
 _atom_site_fract_z
 _atom_site_occupancy
  K  K0  2  0.25000000  0.25000000  0.94757000  1.0
  K  K1  2  0.26873000  0.23506000  0.17154000  1.0
  K  K2  2  0.49556000  0.25972000  0.05830000  1.0
  K  K3  2  0.50000000  0.25000000  0.84272000  1.0
  K  K4  2  0.72709000  0.28472000  0.17313000  1.0
  K  K5  2  0.75000000  0.25000000  0.94757000  1.0
  K  K6  1  0.00000000  0.00000000  0.94757000  1.0
  K  K7  1  0.00000000  0.50000000  0.94757000  1.0
  K  K8  1  0.05530000  0.50000000  0.14808000  1.0
  K  K9  1  0.23932000  0.00000000  0.05699000  1.0
  K  K10  1  0.24307000  0.50000000  0.04523000  1.0
  K  K11  1  0.25000000  0.00000000  0.84272000  1.0
  K  K12  1  0.25000000  0.50000000  0.84272000  1.0
  K  K13  1  0.75000000  0.00000000  0.84272000  1.0
  K  K14  1  0.75000000  0.50000000  0.84272000  1.0
  K  K15  1  0.75022000  0.00000000  0.04809000  1.0
  K  K16  1  0.75135000  0.50000000  0.05372000  1.0
  K  K17  1  0.97300000  0.00000000  0.15275000  1.0
  Sb  Sb18  2  0.00000000  0.25000000  0.84272000  1.0
  Sb  Sb19  2  0.99199000  0.25043000  0.06147000  1.0
  Sb  Sb20  1  0.47322000  0.50000000  0.14562000  1.0
  Sb  Sb21  1  0.50000000  0.00000000  0.94757000  1.0
  Sb  Sb22  1  0.50000000  0.50000000  0.94757000  1.0
  Sb  Sb23  1  0.53825000  0.00000000  0.15513000  1.0
  C  C24  1  0.30226000  0.00000000  0.15753000  1.0
