# generated using pymatgen
data_Na4Pb12CO
_symmetry_space_group_name_H-M   'P 1'
_cell_length_a   7.08799000
_cell_length_b   10.02390000
_cell_length_c   25.31600000
_cell_angle_alpha   90.00000000
_cell_angle_beta   90.00000000
_cell_angle_gamma   90.00000000
_symmetry_Int_Tables_number   1
_chemical_formula_structural   Na4Pb12CO
_chemical_formula_sum   'Na4 Pb12 C1 O1'
_cell_volume   1798.68415376
_cell_formula_units_Z   1
loop_
 _symmetry_equiv_pos_site_id
 _symmetry_equiv_pos_as_xyz
  1  'x, y, z'
loop_
 _atom_site_type_symbol
 _atom_site_label
 _atom_site_symmetry_multiplicity
 _atom_site_fract_x
 _atom_site_fract_y
 _atom_site_fract_z
 _atom_site_occupancy
  Na  Na0  1  0.00000000  0.00000000  0.10499000  1.0
  Na  Na1  1  0.49865000  0.99995000  0.96697000  1.0
  Na  Na2  1  0.00000000  0.50000000  0.10499000  1.0
  Na  Na3  1  0.49863000  0.50009000  0.96698000  1.0
  Pb  Pb4  1  0.50000000  1.00000000  0.10499000  1.0
  Pb  Pb5  1  0.25000000  0.75000000  0.03500000  1.0
  Pb  Pb6  1  0.75000000  0.75000000  0.03500000  1.0
  Pb  Pb7  1  0.99902000  0.99965000  0.95712000  1.0
  Pb  Pb8  1  0.75707000  0.75001000  0.90404000  1.0
  Pb  Pb9  1  0.23909000  0.75003000  0.90309000  1.0
  Pb  Pb10  1  0.50000000  0.50000000  0.10499000  1.0
  Pb  Pb11  1  0.25000000  0.25000000  0.03500000  1.0
  Pb  Pb12  1  0.75000000  0.25000000  0.03500000  1.0
  Pb  Pb13  1  0.99902000  0.50044000  0.95712000  1.0
  Pb  Pb14  1  0.75806000  0.25004000  0.90377000  1.0
  Pb  Pb15  1  0.23991000  0.25003000  0.90357000  1.0
  C  C16  1  0.82072000  0.74865000  0.76010000  1.0
  O  O17  1  0.72335000  0.75023000  0.72446000  1.0
