data_image0
_chemical_formula_structural       Li8Y8Sn8Ge8CO
_chemical_formula_sum              "Li8 Y8 Sn8 Ge8 C1 O1"
_cell_length_a       9.43388
_cell_length_b       8.60818
_cell_length_c       26.3956
_cell_angle_alpha    90
_cell_angle_beta     90
_cell_angle_gamma    90

_space_group_name_H-M_alt    "P 1"
_space_group_IT_number       1

loop_
  _space_group_symop_operation_xyz
  'x, y, z'

loop_
  _atom_site_type_symbol
  _atom_site_label
  _atom_site_symmetry_multiplicity
  _atom_site_fract_x
  _atom_site_fract_y
  _atom_site_fract_z
  _atom_site_occupancy
  Li  Li1       1.0  0.25000  0.00000  0.95962  1.0000
  Li  Li2       1.0  0.25008  0.99884  0.05566  1.0000
  Li  Li3       1.0  0.25000  0.50000  0.95962  1.0000
  Li  Li4       1.0  0.24969  0.49890  0.12283  1.0000
  Li  Li5       1.0  0.75000  0.00000  0.95962  1.0000
  Li  Li6       1.0  0.75000  0.00061  0.11715  1.0000
  Li  Li7       1.0  0.75000  0.50000  0.95962  1.0000
  Li  Li8       1.0  0.74999  0.49976  0.12530  1.0000
  Y   Y1        1.0  0.00000  0.25000  0.95962  1.0000
  Y   Y2        1.0  0.05742  0.19414  0.12497  1.0000
  Y   Y3        1.0  0.00000  0.75000  0.95962  1.0000
  Y   Y4        1.0  0.05449  0.80210  0.12431  1.0000
  Y   Y5        1.0  0.50000  0.25000  0.95962  1.0000
  Y   Y6        1.0  0.44341  0.19491  0.12468  1.0000
  Y   Y7        1.0  0.50000  0.75000  0.95962  1.0000
  Y   Y8        1.0  0.44635  0.80129  0.12405  1.0000
  Sn  Sn1       1.0  0.25000  0.25000  0.87885  1.0000
  Sn  Sn2       1.0  0.24997  0.29965  0.03554  1.0000
  Sn  Sn3       1.0  0.25000  0.75000  0.87885  1.0000
  Sn  Sn4       1.0  0.24997  0.69877  0.03513  1.0000
  Sn  Sn5       1.0  0.75000  0.25000  0.87885  1.0000
  Sn  Sn6       1.0  0.75009  0.25743  0.04714  1.0000
  Sn  Sn7       1.0  0.75000  0.75000  0.87885  1.0000
  Sn  Sn8       1.0  0.75007  0.74282  0.04733  1.0000
  Ge  Ge1       1.0  0.00000  0.00000  0.87885  1.0000
  Ge  Ge2       1.0  0.97354  0.00053  0.03798  1.0000
  Ge  Ge3       1.0  0.00000  0.50000  0.87885  1.0000
  Ge  Ge4       1.0  0.98978  0.49918  0.04664  1.0000
  Ge  Ge5       1.0  0.50000  0.00000  0.87885  1.0000
  Ge  Ge6       1.0  0.52688  0.00053  0.03787  1.0000
  Ge  Ge7       1.0  0.50000  0.50000  0.87885  1.0000
  Ge  Ge8       1.0  0.51115  0.49922  0.04684  1.0000
  C   C1        1.0  0.25121  0.99196  0.12484  1.0000
  O   O1        1.0  0.24623  0.00911  0.17627  1.0000
