# generated using pymatgen
data_Li8Y8Sn8Ge8CO
_symmetry_space_group_name_H-M   'P 1'
_cell_length_a   8.60818000
_cell_length_b   9.43388000
_cell_length_c   26.39560000
_cell_angle_alpha   90.00000000
_cell_angle_beta   90.00000000
_cell_angle_gamma   90.00000000
_symmetry_Int_Tables_number   1
_chemical_formula_structural   Li8Y8Sn8Ge8CO
_chemical_formula_sum   'Li8 Y8 Sn8 Ge8 C1 O1'
_cell_volume   2143.54806289
_cell_formula_units_Z   1
loop_
 _symmetry_equiv_pos_site_id
 _symmetry_equiv_pos_as_xyz
  1  'x, y, z'
loop_
 _atom_site_type_symbol
 _atom_site_label
 _atom_site_symmetry_multiplicity
 _atom_site_fract_x
 _atom_site_fract_y
 _atom_site_fract_z
 _atom_site_occupancy
  Li  Li0  1  0.00000000  0.75000000  0.04038000  1.0
  Li  Li1  1  0.00116000  0.74992000  0.94434000  1.0
  Li  Li2  1  0.50000000  0.75000000  0.04038000  1.0
  Li  Li3  1  0.50110000  0.75031000  0.87717000  1.0
  Li  Li4  1  0.00000000  0.25000000  0.04038000  1.0
  Li  Li5  1  0.99939000  0.25000000  0.88285000  1.0
  Li  Li6  1  0.50000000  0.25000000  0.04038000  1.0
  Li  Li7  1  0.50024000  0.25001000  0.87470000  1.0
  Y  Y8  1  0.75000000  0.00000000  0.04038000  1.0
  Y  Y9  1  0.80586000  0.94258000  0.87503000  1.0
  Y  Y10  1  0.25000000  0.00000000  0.04038000  1.0
  Y  Y11  1  0.19790000  0.94551000  0.87569000  1.0
  Y  Y12  1  0.75000000  0.50000000  0.04038000  1.0
  Y  Y13  1  0.80509000  0.55659000  0.87532000  1.0
  Y  Y14  1  0.25000000  0.50000000  0.04038000  1.0
  Y  Y15  1  0.19871000  0.55365000  0.87595000  1.0
  Sn  Sn16  1  0.75000000  0.75000000  0.12115000  1.0
  Sn  Sn17  1  0.70035000  0.75003000  0.96446000  1.0
  Sn  Sn18  1  0.25000000  0.75000000  0.12115000  1.0
  Sn  Sn19  1  0.30123000  0.75003000  0.96487000  1.0
  Sn  Sn20  1  0.75000000  0.25000000  0.12115000  1.0
  Sn  Sn21  1  0.74257000  0.24991000  0.95286000  1.0
  Sn  Sn22  1  0.25000000  0.25000000  0.12115000  1.0
  Sn  Sn23  1  0.25718000  0.24993000  0.95267000  1.0
  Ge  Ge24  1  0.00000000  0.00000000  0.12115000  1.0
  Ge  Ge25  1  0.99947000  0.02646000  0.96202000  1.0
  Ge  Ge26  1  0.50000000  0.00000000  0.12115000  1.0
  Ge  Ge27  1  0.50082000  0.01022000  0.95336000  1.0
  Ge  Ge28  1  0.00000000  0.50000000  0.12115000  1.0
  Ge  Ge29  1  0.99947000  0.47312000  0.96213000  1.0
  Ge  Ge30  1  0.50000000  0.50000000  0.12115000  1.0
  Ge  Ge31  1  0.50078000  0.48885000  0.95316000  1.0
  C  C32  1  0.00804000  0.74879000  0.87516000  1.0
  O  O33  1  0.99089000  0.75377000  0.82373000  1.0
