# generated using pymatgen
data_Ti16Os16C
_symmetry_space_group_name_H-M   'P 1'
_cell_length_a   8.75996000
_cell_length_b   6.19423000
_cell_length_c   26.57000000
_cell_angle_alpha   90.00000000
_cell_angle_beta   90.00000000
_cell_angle_gamma   90.00000000
_symmetry_Int_Tables_number   1
_chemical_formula_structural   Ti16Os16C
_chemical_formula_sum   'Ti16 Os16 C1'
_cell_volume   1441.72027081
_cell_formula_units_Z   1
loop_
 _symmetry_equiv_pos_site_id
 _symmetry_equiv_pos_as_xyz
  1  'x, y, z'
loop_
 _atom_site_type_symbol
 _atom_site_label
 _atom_site_symmetry_multiplicity
 _atom_site_fract_x
 _atom_site_fract_y
 _atom_site_fract_z
 _atom_site_occupancy
  Ti  Ti0  1  0.00000000  0.25000000  0.12364000  1.0
  Ti  Ti1  1  0.75000000  0.25000000  0.04121000  1.0
  Ti  Ti2  1  0.00000000  0.24999000  0.95859000  1.0
  Ti  Ti3  1  0.25666000  0.25002000  0.87174000  1.0
  Ti  Ti4  1  0.50000000  0.25000000  0.12364000  1.0
  Ti  Ti5  1  0.25000000  0.25000000  0.04121000  1.0
  Ti  Ti6  1  0.50000000  0.25001000  0.95699000  1.0
  Ti  Ti7  1  0.74334000  0.25002000  0.87174000  1.0
  Ti  Ti8  1  0.00000000  0.75000000  0.12364000  1.0
  Ti  Ti9  1  0.75000000  0.75000000  0.04121000  1.0
  Ti  Ti10  1  0.00000000  0.74991000  0.96036000  1.0
  Ti  Ti11  1  0.25158000  0.74992000  0.87481000  1.0
  Ti  Ti12  1  0.50000000  0.75000000  0.12364000  1.0
  Ti  Ti13  1  0.25000000  0.75000000  0.04121000  1.0
  Ti  Ti14  1  0.50000000  0.74999000  0.95754000  1.0
  Ti  Ti15  1  0.74842000  0.74992000  0.87481000  1.0
  Os  Os16  1  0.75000000  0.00000000  0.12364000  1.0
  Os  Os17  1  0.00000000  1.00000000  0.04121000  1.0
  Os  Os18  1  0.75227000  0.99865000  0.95823000  1.0
  Os  Os19  1  0.00000000  0.00360000  0.87896000  1.0
  Os  Os20  1  0.25000000  0.00000000  0.12364000  1.0
  Os  Os21  1  0.50000000  1.00000000  0.04121000  1.0
  Os  Os22  1  0.24773000  0.99865000  0.95823000  1.0
  Os  Os23  1  0.50000000  0.99964000  0.88127000  1.0
  Os  Os24  1  0.75000000  0.50000000  0.12364000  1.0
  Os  Os25  1  0.00000000  0.50000000  0.04121000  1.0
  Os  Os26  1  0.75226000  0.50127000  0.95822000  1.0
  Os  Os27  1  0.00000000  0.49611000  0.87893000  1.0
  Os  Os28  1  0.25000000  0.50000000  0.12364000  1.0
  Os  Os29  1  0.50000000  0.50000000  0.04121000  1.0
  Os  Os30  1  0.24774000  0.50127000  0.95822000  1.0
  Os  Os31  1  0.50000000  0.50035000  0.88126000  1.0
  C  C32  1  0.00000000  0.24963000  0.83539000  1.0
