# generated using pymatgen
data_In4Fe4Co8CO
_symmetry_space_group_name_H-M   'P 1'
_cell_length_a   6.01864000
_cell_length_b   6.01864000
_cell_length_c   24.51400000
_cell_angle_alpha   90.00000000
_cell_angle_beta   90.00000000
_cell_angle_gamma   90.00000000
_symmetry_Int_Tables_number   1
_chemical_formula_structural   In4Fe4Co8CO
_chemical_formula_sum   'In4 Fe4 Co8 C1 O1'
_cell_volume   887.99580890
_cell_formula_units_Z   1
loop_
 _symmetry_equiv_pos_site_id
 _symmetry_equiv_pos_as_xyz
  1  'x, y, z'
loop_
 _atom_site_type_symbol
 _atom_site_label
 _atom_site_symmetry_multiplicity
 _atom_site_fract_x
 _atom_site_fract_y
 _atom_site_fract_z
 _atom_site_occupancy
  In  In0  1  0.00000000  0.50000000  0.09207000  1.0
  In  In1  1  0.50000000  0.00000000  0.09207000  1.0
  In  In2  1  0.50000000  0.50000000  0.96931000  1.0
  In  In3  1  0.00000000  0.00000000  0.96931000  1.0
  Fe  Fe4  1  0.00000000  0.50000000  0.96931000  1.0
  Fe  Fe5  1  0.50000000  0.50000000  0.09207000  1.0
  Fe  Fe6  1  0.00000000  0.00000000  0.09207000  1.0
  Fe  Fe7  1  0.50000000  0.00000000  0.96931000  1.0
  Co  Co8  1  0.25000000  0.75000000  0.03069000  1.0
  Co  Co9  1  0.75000000  0.25000000  0.90793000  1.0
  Co  Co10  1  0.75000000  0.75000000  0.03069000  1.0
  Co  Co11  1  0.25000000  0.25000000  0.90793000  1.0
  Co  Co12  1  0.75000000  0.25000000  0.03069000  1.0
  Co  Co13  1  0.25000000  0.75000000  0.90793000  1.0
  Co  Co14  1  0.25000000  0.25000000  0.03069000  1.0
  Co  Co15  1  0.75000000  0.75000000  0.90793000  1.0
  C  C16  1  0.00000000  0.00000000  0.16958000  1.0
  O  O17  1  0.00000000  0.00000000  0.21649000  1.0
