data_image0
_chemical_formula_structural       Sc8Ru8CO
_chemical_formula_sum              "Sc8 Ru8 C1 O1"
_cell_length_a       6.43815
_cell_length_b       6.43815
_cell_length_c       24.8286
_cell_angle_alpha    90
_cell_angle_beta     90
_cell_angle_gamma    90

_space_group_name_H-M_alt    "P 1"
_space_group_IT_number       1

loop_
  _space_group_symop_operation_xyz
  'x, y, z'

loop_
  _atom_site_type_symbol
  _atom_site_label
  _atom_site_symmetry_multiplicity
  _atom_site_fract_x
  _atom_site_fract_y
  _atom_site_fract_z
  _atom_site_occupancy
  Sc  Sc1       1.0  0.00000  0.00000  0.91522  1.0000
  Sc  Sc2       1.0  0.99802  0.99795  0.04746  1.0000
  Sc  Sc3       1.0  0.00000  0.50000  0.91522  1.0000
  Sc  Sc4       1.0  0.99798  0.50205  0.04747  1.0000
  Sc  Sc5       1.0  0.50000  0.00000  0.91522  1.0000
  Sc  Sc6       1.0  0.50197  0.99793  0.04747  1.0000
  Sc  Sc7       1.0  0.50000  0.50000  0.91522  1.0000
  Sc  Sc8       1.0  0.50203  0.50207  0.04748  1.0000
  Ru  Ru1       1.0  0.25000  0.25000  0.98004  1.0000
  Ru  Ru2       1.0  0.24999  0.25000  0.10737  1.0000
  Ru  Ru3       1.0  0.25000  0.75000  0.98004  1.0000
  Ru  Ru4       1.0  0.25001  0.75001  0.10561  1.0000
  Ru  Ru5       1.0  0.75000  0.25000  0.98004  1.0000
  Ru  Ru6       1.0  0.75000  0.25003  0.10560  1.0000
  Ru  Ru7       1.0  0.75000  0.75000  0.98004  1.0000
  Ru  Ru8       1.0  0.74999  0.74998  0.10467  1.0000
  C   C1        1.0  0.25000  0.25000  0.18287  1.0000
  O   O1        1.0  0.25000  0.25000  0.22969  1.0000
