# generated using pymatgen
data_Sc8Ru8CO
_symmetry_space_group_name_H-M   'P 1'
_cell_length_a   6.43815000
_cell_length_b   6.43815000
_cell_length_c   24.82860000
_cell_angle_alpha   90.00000000
_cell_angle_beta   90.00000000
_cell_angle_gamma   90.00000000
_symmetry_Int_Tables_number   1
_chemical_formula_structural   Sc8Ru8CO
_chemical_formula_sum   'Sc8 Ru8 C1 O1'
_cell_volume   1029.13989406
_cell_formula_units_Z   1
loop_
 _symmetry_equiv_pos_site_id
 _symmetry_equiv_pos_as_xyz
  1  'x, y, z'
loop_
 _atom_site_type_symbol
 _atom_site_label
 _atom_site_symmetry_multiplicity
 _atom_site_fract_x
 _atom_site_fract_y
 _atom_site_fract_z
 _atom_site_occupancy
  Sc  Sc0  1  0.75000000  0.75000000  0.91522000  1.0
  Sc  Sc1  1  0.74798500  0.74798500  0.04746000  1.0
  Sc  Sc2  1  0.75000000  0.25000000  0.91522000  1.0
  Sc  Sc3  1  0.74798500  0.25201500  0.04746000  1.0
  Sc  Sc4  1  0.25000000  0.75000000  0.91522000  1.0
  Sc  Sc5  1  0.25201500  0.74798500  0.04746000  1.0
  Sc  Sc6  1  0.25000000  0.25000000  0.91522000  1.0
  Sc  Sc7  1  0.25201500  0.25201500  0.04746000  1.0
  Ru  Ru8  1  0.00000000  0.00000000  0.98004000  1.0
  Ru  Ru9  1  0.00000000  0.00000000  0.10737000  1.0
  Ru  Ru10  1  0.00000000  0.50000000  0.98004000  1.0
  Ru  Ru11  1  0.00000000  0.50000000  0.10561000  1.0
  Ru  Ru12  1  0.50000000  0.00000000  0.98004000  1.0
  Ru  Ru13  1  0.50000000  0.00000000  0.10561000  1.0
  Ru  Ru14  1  0.50000000  0.50000000  0.98004000  1.0
  Ru  Ru15  1  0.50000000  0.50000000  0.10467000  1.0
  C  C16  1  0.00000000  0.00000000  0.18287000  1.0
  O  O17  1  0.00000000  0.00000000  0.22969000  1.0
