# generated using pymatgen
data_Li16Ga8Ir8CO
_symmetry_space_group_name_H-M   P1
_cell_length_a   6.01864000
_cell_length_b   8.51164000
_cell_length_c   26.38370000
_cell_angle_alpha   90.00000000
_cell_angle_beta   90.00000000
_cell_angle_gamma   90.00000000
_symmetry_Int_Tables_number   1
_chemical_formula_structural   Li16Ga8Ir8CO
_chemical_formula_sum   'Li16 Ga8 Ir8 C1 O1'
_cell_volume   1351.59729550
_cell_formula_units_Z   1
loop_
 _symmetry_equiv_pos_site_id
 _symmetry_equiv_pos_as_xyz
  1  'x, y, z'
loop_
 _atom_site_type_symbol
 _atom_site_label
 _atom_site_symmetry_multiplicity
 _atom_site_fract_x
 _atom_site_fract_y
 _atom_site_fract_z
 _atom_site_occupancy
  Li  Li0  1  0.00000000  0.25000000  0.95967000  1.0
  Li  Li1  1  0.00000000  0.75000000  0.95967000  1.0
  Li  Li2  1  0.25000000  0.00000000  0.95967000  1.0
  Li  Li3  1  0.25000000  0.50000000  0.95967000  1.0
  Li  Li4  1  0.25146000  0.51365000  0.13820000  1.0
  Li  Li5  1  0.25151000  0.98619000  0.13838000  1.0
  Li  Li6  1  0.48341000  0.99923000  0.03881000  1.0
  Li  Li7  1  0.48375000  0.50032000  0.03874000  1.0
  Li  Li8  1  0.50000000  0.00000000  0.87902000  1.0
  Li  Li9  1  0.50000000  0.50000000  0.87902000  1.0
  Li  Li10  1  0.74429000  0.74988000  0.03796000  1.0
  Li  Li11  1  0.74564000  0.24960000  0.04177000  1.0
  Li  Li12  1  0.75000000  0.25000000  0.87902000  1.0
  Li  Li13  1  0.75000000  0.75000000  0.87902000  1.0
  Li  Li14  1  0.97655000  0.74997000  0.11911000  1.0
  Li  Li15  1  0.98305000  0.25024000  0.12415000  1.0
  Ga  Ga16  1  0.23973000  0.75067000  0.03865000  1.0
  Ga  Ga17  1  0.24054000  0.24952000  0.03843000  1.0
  Ga  Ga18  1  0.25000000  0.25000000  0.87902000  1.0
  Ga  Ga19  1  0.25000000  0.75000000  0.87902000  1.0
  Ga  Ga20  1  0.71301000  0.49740000  0.11811000  1.0
  Ga  Ga21  1  0.71355000  0.00283000  0.11811000  1.0
  Ga  Ga22  1  0.75000000  0.00000000  0.95967000  1.0
  Ga  Ga23  1  0.75000000  0.50000000  0.95967000  1.0
  Ir  Ir24  1  0.00000000  0.00000000  0.87902000  1.0
  Ir  Ir25  1  0.00000000  0.50000000  0.87902000  1.0
  Ir  Ir26  1  0.46719000  0.24978000  0.11991000  1.0
  Ir  Ir27  1  0.49952000  0.75032000  0.11303000  1.0
  Ir  Ir28  1  0.50000000  0.25000000  0.95967000  1.0
  Ir  Ir29  1  0.50000000  0.75000000  0.95967000  1.0
  Ir  Ir30  1  0.99809000  0.49849000  0.04536000  1.0
  Ir  Ir31  1  0.99815000  0.00114000  0.04543000  1.0
  C  C32  1  0.32303000  0.24999000  0.18296000  1.0
  O  O33  1  0.28929000  0.24993000  0.22736000  1.0
