# generated using pymatgen
data_Zr16Zn16CO
_symmetry_space_group_name_H-M   Pm
_cell_length_a   6.67495000
_cell_length_b   9.43980000
_cell_length_c   27.07990000
_cell_angle_alpha   90.00000000
_cell_angle_beta   90.00000000
_cell_angle_gamma   90.00000000
_symmetry_Int_Tables_number   6
_chemical_formula_structural   Zr16Zn16CO
_chemical_formula_sum   'Zr16 Zn16 C1 O1'
_cell_volume   1706.30972569
_cell_formula_units_Z   1
loop_
 _symmetry_equiv_pos_site_id
 _symmetry_equiv_pos_as_xyz
  1  'x, y, z'
  2  'x, -y, z'
loop_
 _atom_site_type_symbol
 _atom_site_label
 _atom_site_symmetry_multiplicity
 _atom_site_fract_x
 _atom_site_fract_y
 _atom_site_fract_z
 _atom_site_occupancy
  Zr  Zr0  2  0.24992000  0.25134000  0.04425000  1.0
  Zr  Zr1  2  0.25000000  0.25000000  0.86928000  1.0
  Zr  Zr2  2  0.74983000  0.24929000  0.04521000  1.0
  Zr  Zr3  2  0.75000000  0.25000000  0.86928000  1.0
  Zr  Zr4  1  0.25000000  0.00000000  0.95643000  1.0
  Zr  Zr5  1  0.25000000  0.50000000  0.95643000  1.0
  Zr  Zr6  1  0.25012000  0.50000000  0.13098000  1.0
  Zr  Zr7  1  0.25062000  0.00000000  0.12872000  1.0
  Zr  Zr8  1  0.74973000  0.00000000  0.13315000  1.0
  Zr  Zr9  1  0.74997000  0.50000000  0.12743000  1.0
  Zr  Zr10  1  0.75000000  0.00000000  0.95643000  1.0
  Zr  Zr11  1  0.75000000  0.50000000  0.95643000  1.0
  Zn  Zn12  2  0.00000000  0.25000000  0.95643000  1.0
  Zn  Zn13  2  0.00128000  0.25009000  0.13531000  1.0
  Zn  Zn14  2  0.49900000  0.25025000  0.13542000  1.0
  Zn  Zn15  2  0.50000000  0.25000000  0.95643000  1.0
  Zn  Zn16  1  0.00000000  0.00000000  0.86928000  1.0
  Zn  Zn17  1  0.00000000  0.50000000  0.86928000  1.0
  Zn  Zn18  1  0.00129000  0.50000000  0.04329000  1.0
  Zn  Zn19  1  0.49869000  0.50000000  0.04329000  1.0
  Zn  Zn20  1  0.50000000  0.00000000  0.86928000  1.0
  Zn  Zn21  1  0.50000000  0.50000000  0.86928000  1.0
  Zn  Zn22  1  0.50288000  0.00000000  0.04337000  1.0
  Zn  Zn23  1  0.99675000  0.00000000  0.04347000  1.0
  C  C24  1  0.25225000  0.00000000  0.21180000  1.0
  O  O25  1  0.25244000  0.00000000  0.25455000  1.0
