# generated using pymatgen
data_Sn4Pt12CO
_symmetry_space_group_name_H-M   'P 1'
_cell_length_a   8.18271000
_cell_length_b   5.78605000
_cell_length_c   24.33950000
_cell_angle_alpha   90.00000000
_cell_angle_beta   90.00000000
_cell_angle_gamma   90.00000000
_symmetry_Int_Tables_number   1
_chemical_formula_structural   Sn4Pt12CO
_chemical_formula_sum   'Sn4 Pt12 C1 O1'
_cell_volume   1152.36748143
_cell_formula_units_Z   1
loop_
 _symmetry_equiv_pos_site_id
 _symmetry_equiv_pos_as_xyz
  1  'x, y, z'
loop_
 _atom_site_type_symbol
 _atom_site_label
 _atom_site_symmetry_multiplicity
 _atom_site_fract_x
 _atom_site_fract_y
 _atom_site_fract_z
 _atom_site_occupancy
  Sn  Sn0  1  0.00008000  0.00000000  0.91302000  1.0
  Sn  Sn1  1  0.00000000  0.50000000  0.02972000  1.0
  Sn  Sn2  1  0.50001000  0.00000000  0.91096000  1.0
  Sn  Sn3  1  0.50000000  0.50000000  0.02972000  1.0
  Pt  Pt4  1  0.00002000  0.50000000  0.90906000  1.0
  Pt  Pt5  1  0.24968000  0.75456000  0.96747000  1.0
  Pt  Pt6  1  0.24968000  0.24544000  0.96747000  1.0
  Pt  Pt7  1  0.00000000  0.00000000  0.02972000  1.0
  Pt  Pt8  1  0.25000000  0.25000000  0.08915000  1.0
  Pt  Pt9  1  0.25000000  0.75000000  0.08915000  1.0
  Pt  Pt10  1  0.49997000  0.50000000  0.91898000  1.0
  Pt  Pt11  1  0.75031000  0.75455000  0.96745000  1.0
  Pt  Pt12  1  0.75031000  0.24545000  0.96745000  1.0
  Pt  Pt13  1  0.50000000  0.00000000  0.02972000  1.0
  Pt  Pt14  1  0.75000000  0.25000000  0.08915000  1.0
  Pt  Pt15  1  0.75000000  0.75000000  0.08915000  1.0
  C  C16  1  0.00001000  0.50000000  0.83094000  1.0
  O  O17  1  0.99999000  0.50000000  0.78346000  1.0
