# generated using pymatgen
data_Y4Pb12C
_symmetry_space_group_name_H-M   'P 1'
_cell_length_a   9.91485000
_cell_length_b   7.01086000
_cell_length_c   25.25810000
_cell_angle_alpha   90.00000000
_cell_angle_beta   90.00000000
_cell_angle_gamma   90.00000000
_symmetry_Int_Tables_number   1
_chemical_formula_structural   Y4Pb12C
_chemical_formula_sum   'Y4 Pb12 C1'
_cell_volume   1755.73158226
_cell_formula_units_Z   1
loop_
 _symmetry_equiv_pos_site_id
 _symmetry_equiv_pos_as_xyz
  1  'x, y, z'
loop_
 _atom_site_type_symbol
 _atom_site_label
 _atom_site_symmetry_multiplicity
 _atom_site_fract_x
 _atom_site_fract_y
 _atom_site_fract_z
 _atom_site_occupancy
  Y  Y0  1  0.71837000  0.97445000  0.09533000  1.0
  Y  Y1  1  0.75000000  0.50000000  0.96530000  1.0
  Y  Y2  1  0.28163000  0.97445000  0.09533000  1.0
  Y  Y3  1  0.25000000  0.50000000  0.96530000  1.0
  Pb  Pb4  1  0.75742000  0.48725000  0.10249000  1.0
  Pb  Pb5  1  0.50000000  0.24833000  0.03402000  1.0
  Pb  Pb6  1  0.50000000  0.71714000  0.03116000  1.0
  Pb  Pb7  1  0.75000000  0.00000000  0.96530000  1.0
  Pb  Pb8  1  0.50000000  0.75000000  0.89591000  1.0
  Pb  Pb9  1  0.50000000  0.25000000  0.89591000  1.0
  Pb  Pb10  1  0.24258000  0.48725000  0.10249000  1.0
  Pb  Pb11  1  0.00000000  0.25427000  0.04122000  1.0
  Pb  Pb12  1  0.00000000  0.74643000  0.04243000  1.0
  Pb  Pb13  1  0.25000000  0.00000000  0.96530000  1.0
  Pb  Pb14  1  0.00000000  0.75000000  0.89591000  1.0
  Pb  Pb15  1  0.00000000  0.25000000  0.89591000  1.0
  C  C16  1  0.50000000  0.90872000  0.10916000  1.0
