# generated using pymatgen
data_Y8Al24CO
_symmetry_space_group_name_H-M   P4mm
_cell_length_a   8.49845000
_cell_length_b   8.49845000
_cell_length_c   26.37380000
_cell_angle_alpha   90.00000000
_cell_angle_beta   90.00000000
_cell_angle_gamma   90.00000000
_symmetry_Int_Tables_number   99
_chemical_formula_structural   Y8Al24CO
_chemical_formula_sum   'Y8 Al24 C1 O1'
_cell_volume   1904.81216373
_cell_formula_units_Z   1
loop_
 _symmetry_equiv_pos_site_id
 _symmetry_equiv_pos_as_xyz
  1  'x, y, z'
  2  '-y, x, z'
  3  '-x, -y, z'
  4  'y, -x, z'
  5  '-x, y, z'
  6  'y, x, z'
  7  'x, -y, z'
  8  '-y, -x, z'
loop_
 _atom_site_type_symbol
 _atom_site_label
 _atom_site_symmetry_multiplicity
 _atom_site_fract_x
 _atom_site_fract_y
 _atom_site_fract_z
 _atom_site_occupancy
  Y  Y0  4  0.25000000  0.25000000  0.12084000  1.0
  Y  Y1  4  0.25000000  0.25000000  0.95972000  1.0
  Al  Al2  4  0.00000000  0.25000000  0.04028000  1.0
  Al  Al3  4  0.00000000  0.25000000  0.87916000  1.0
  Al  Al4  4  0.25000000  0.50000000  0.04028000  1.0
  Al  Al5  4  0.25000000  0.50000000  0.87916000  1.0
  Al  Al6  2  0.00000000  0.50000000  0.12084000  1.0
  Al  Al7  2  0.00000000  0.50000000  0.95972000  1.0
  Al  Al8  1  0.00000000  0.00000000  0.12084000  1.0
  Al  Al9  1  0.00000000  0.00000000  0.95972000  1.0
  Al  Al10  1  0.50000000  0.50000000  0.12084000  1.0
  Al  Al11  1  0.50000000  0.50000000  0.95972000  1.0
  C  C12  1  0.00000000  0.00000000  0.19288000  1.0
  O  O13  1  0.00000000  0.00000000  0.23648000  1.0
