# generated using pymatgen
data_Li16Ga8Rh8CO
_symmetry_space_group_name_H-M   Pm
_cell_length_a   6.03399000
_cell_length_b   8.53335000
_cell_length_c   26.40000000
_cell_angle_alpha   90.00000000
_cell_angle_beta   90.00000000
_cell_angle_gamma   90.00000000
_symmetry_Int_Tables_number   6
_chemical_formula_structural   Li16Ga8Rh8CO
_chemical_formula_sum   'Li16 Ga8 Rh8 C1 O1'
_cell_volume   1359.33992216
_cell_formula_units_Z   1
loop_
 _symmetry_equiv_pos_site_id
 _symmetry_equiv_pos_as_xyz
  1  'x, y, z'
  2  'x, -y, z'
loop_
 _atom_site_type_symbol
 _atom_site_label
 _atom_site_symmetry_multiplicity
 _atom_site_fract_x
 _atom_site_fract_y
 _atom_site_fract_z
 _atom_site_occupancy
  Li  Li0  2  -0.00000000  0.25000000  0.95960000  1.0
  Li  Li1  2  0.01150000  0.25019000  0.12081000  1.0
  Li  Li2  2  0.24640000  0.25022000  0.03824000  1.0
  Li  Li3  2  0.25000000  0.25000000  0.87879000  1.0
  Li  Li4  1  0.50000000  0.00000000  0.87879000  1.0
  Li  Li5  1  0.50000000  0.50000000  0.87879000  1.0
  Li  Li6  1  0.50596000  0.00000000  0.03986000  1.0
  Li  Li7  1  0.51232000  0.50000000  0.03833000  1.0
  Li  Li8  1  0.72714000  0.50000000  0.14152000  1.0
  Li  Li9  1  0.73167000  0.00000000  0.13603000  1.0
  Li  Li10  1  0.75000000  0.00000000  0.95960000  1.0
  Li  Li11  1  0.75000000  0.50000000  0.95960000  1.0
  Ga  Ga12  2  0.75000000  0.25000000  0.87879000  1.0
  Ga  Ga13  2  0.75667000  0.24679000  0.03798000  1.0
  Ga  Ga14  1  0.25000000  0.00000000  0.95960000  1.0
  Ga  Ga15  1  0.25000000  0.50000000  0.95960000  1.0
  Ga  Ga16  1  0.27405000  0.50000000  0.11846000  1.0
  Ga  Ga17  1  0.28296000  0.00000000  0.12139000  1.0
  Rh  Rh18  2  0.50000000  0.25000000  0.95960000  1.0
  Rh  Rh19  2  0.50412000  0.25601000  0.11230000  1.0
  Rh  Rh20  1  -0.00000000  0.50000000  0.87879000  1.0
  Rh  Rh21  1  0.00000000  0.00000000  0.87879000  1.0
  Rh  Rh22  1  0.98754000  0.50000000  0.04623000  1.0
  Rh  Rh23  1  0.99508000  0.00000000  0.04790000  1.0
  C  C24  1  0.21785000  0.00000000  0.20005000  1.0
  O  O25  1  0.22825000  0.00000000  0.24384000  1.0
