data_image0
_chemical_formula_structural       Mn4Ni12CO
_chemical_formula_sum              "Mn4 Ni12 C1 O1"
_cell_length_a       7.18728
_cell_length_b       5.08218
_cell_length_c       23.8116
_cell_angle_alpha    90
_cell_angle_beta     90
_cell_angle_gamma    90

_space_group_name_H-M_alt    "P 1"
_space_group_IT_number       1

loop_
  _space_group_symop_operation_xyz
  'x, y, z'

loop_
  _atom_site_type_symbol
  _atom_site_label
  _atom_site_symmetry_multiplicity
  _atom_site_fract_x
  _atom_site_fract_y
  _atom_site_fract_z
  _atom_site_occupancy
  Mn  Mn1       1.0  0.00003  1.00000  0.08138  1.0000
  Mn  Mn2       1.0  0.00000  0.50000  0.97332  1.0000
  Mn  Mn3       1.0  0.49997  1.00000  0.07899  1.0000
  Mn  Mn4       1.0  0.50000  0.50000  0.97332  1.0000
  Ni  Ni1       1.0  0.00014  0.50000  0.08154  1.0000
  Ni  Ni2       1.0  0.24852  0.75032  0.02578  1.0000
  Ni  Ni3       1.0  0.24851  0.24969  0.02581  1.0000
  Ni  Ni4       1.0  0.00000  0.00000  0.97332  1.0000
  Ni  Ni5       1.0  0.25000  0.25000  0.91996  1.0000
  Ni  Ni6       1.0  0.25000  0.75000  0.91996  1.0000
  Ni  Ni7       1.0  0.49986  0.50000  0.07445  1.0000
  Ni  Ni8       1.0  0.75151  0.75039  0.02598  1.0000
  Ni  Ni9       1.0  0.75151  0.24959  0.02595  1.0000
  Ni  Ni10      1.0  0.50000  0.00000  0.97332  1.0000
  Ni  Ni11      1.0  0.75000  0.25000  0.91996  1.0000
  Ni  Ni12      1.0  0.75000  0.75000  0.91996  1.0000
  C   C1        1.0  0.00003  0.49999  0.15563  1.0000
  O   O1        1.0  0.99993  0.49999  0.20437  1.0000
