# generated using pymatgen
data_Mn4Ni12CO
_symmetry_space_group_name_H-M   Pm
_cell_length_a   7.18728000
_cell_length_b   5.08218000
_cell_length_c   23.81160000
_cell_angle_alpha   90.00000000
_cell_angle_beta   90.00000000
_cell_angle_gamma   90.00000000
_symmetry_Int_Tables_number   6
_chemical_formula_structural   Mn4Ni12CO
_chemical_formula_sum   'Mn4 Ni12 C1 O1'
_cell_volume   869.76751974
_cell_formula_units_Z   1
loop_
 _symmetry_equiv_pos_site_id
 _symmetry_equiv_pos_as_xyz
  1  'x, y, z'
  2  'x, -y, z'
loop_
 _atom_site_type_symbol
 _atom_site_label
 _atom_site_symmetry_multiplicity
 _atom_site_fract_x
 _atom_site_fract_y
 _atom_site_fract_z
 _atom_site_occupancy
  Mn  Mn0  1  -0.00000000  0.00000000  0.97332000  1.0
  Mn  Mn1  1  0.00003000  0.50000000  0.08138000  1.0
  Mn  Mn2  1  0.49997000  0.50000000  0.07899000  1.0
  Mn  Mn3  1  0.50000000  0.00000000  0.97332000  1.0
  Ni  Ni4  2  0.24852000  0.25033000  0.02578000  1.0
  Ni  Ni5  2  0.25000000  0.24999000  0.91996000  1.0
  Ni  Ni6  2  0.75000000  0.24999000  0.91996000  1.0
  Ni  Ni7  2  0.75151000  0.25040000  0.02598000  1.0
  Ni  Ni8  1  0.00000000  0.50000000  0.97332000  1.0
  Ni  Ni9  1  0.00014000  0.00000000  0.08154000  1.0
  Ni  Ni10  1  0.49986000  0.00000000  0.07445000  1.0
  Ni  Ni11  1  0.50000000  0.50000000  0.97332000  1.0
  C  C12  1  0.00003000  0.00000000  0.15563000  1.0
  O  O13  1  0.99993000  0.00000000  0.20437000  1.0
