# generated using pymatgen
data_Li4Mg4In4Ge4C
_symmetry_space_group_name_H-M   Pm
_cell_length_a   6.07136000
_cell_length_b   8.40992000
_cell_length_c   24.55010000
_cell_angle_alpha   90.00000000
_cell_angle_beta   90.00000000
_cell_angle_gamma   90.00000000
_symmetry_Int_Tables_number   6
_chemical_formula_structural   Li4Mg4In4Ge4C
_chemical_formula_sum   'Li4 Mg4 In4 Ge4 C1'
_cell_volume   1253.51955989
_cell_formula_units_Z   1
loop_
 _symmetry_equiv_pos_site_id
 _symmetry_equiv_pos_as_xyz
  1  'x, y, z'
  2  'x, -y, z'
loop_
 _atom_site_type_symbol
 _atom_site_label
 _atom_site_symmetry_multiplicity
 _atom_site_fract_x
 _atom_site_fract_y
 _atom_site_fract_z
 _atom_site_occupancy
  Li  Li0  1  0.22099000  0.00000000  0.90733000  1.0
  Li  Li1  1  0.22099000  0.50000000  0.90733000  1.0
  Li  Li2  1  0.74293000  0.00000000  0.02797000  1.0
  Li  Li3  1  0.75768000  0.50000000  0.03948000  1.0
  Mg  Mg4  1  0.26920000  0.00000000  0.02457000  1.0
  Mg  Mg5  1  0.27171000  0.50000000  0.03251000  1.0
  Mg  Mg6  1  0.72099000  0.00000000  0.90733000  1.0
  Mg  Mg7  1  0.72099000  0.50000000  0.90733000  1.0
  In  In8  2  0.50494000  0.21800000  0.10697000  1.0
  In  In9  2  0.98066000  0.25000000  0.96911000  1.0
  Ge  Ge10  2  0.00050000  0.22299000  0.09987000  1.0
  Ge  Ge11  2  0.48066000  0.25000000  0.96911000  1.0
  C  C12  1  0.00085000  0.00000000  0.08797000  1.0
