# generated using pymatgen
data_Li8Y8In8Au8CO
_symmetry_space_group_name_H-M   'P 1'
_cell_length_a   6.89380000
_cell_length_b   9.74930000
_cell_length_c   27.31200000
_cell_angle_alpha   90.00000000
_cell_angle_beta   90.00000000
_cell_angle_gamma   90.00000000
_symmetry_Int_Tables_number   1
_chemical_formula_structural   Li8Y8In8Au8CO
_chemical_formula_sum   'Li8 Y8 In8 Au8 C1 O1'
_cell_volume   1835.63199117
_cell_formula_units_Z   1
loop_
 _symmetry_equiv_pos_site_id
 _symmetry_equiv_pos_as_xyz
  1  'x, y, z'
loop_
 _atom_site_type_symbol
 _atom_site_label
 _atom_site_symmetry_multiplicity
 _atom_site_fract_x
 _atom_site_fract_y
 _atom_site_fract_z
 _atom_site_occupancy
  Li  Li0  1  0.00000000  0.25000000  0.95538000  1.0
  Li  Li1  1  0.00000000  0.75000000  0.95538000  1.0
  Li  Li2  1  0.50000000  0.50000000  0.86614000  1.0
  Li  Li3  1  0.50000000  0.00000000  0.86614000  1.0
  Li  Li4  1  0.18179000  0.75000000  0.18199000  1.0
  Li  Li5  1  0.17043000  0.24996000  0.18116000  1.0
  Li  Li6  1  0.51836000  0.00060000  0.05009000  1.0
  Li  Li7  1  0.51833000  0.49940000  0.05009000  1.0
  Y  Y8  1  0.75000000  0.00000000  0.95538000  1.0
  Y  Y9  1  0.75000000  0.50000000  0.95538000  1.0
  Y  Y10  1  0.25000000  0.25000000  0.86614000  1.0
  Y  Y11  1  0.25000000  0.75000000  0.86614000  1.0
  Y  Y12  1  0.79297000  0.48046000  0.13784000  1.0
  Y  Y13  1  0.79303000  0.01958000  0.13784000  1.0
  Y  Y14  1  0.24682000  0.75000000  0.05175000  1.0
  Y  Y15  1  0.24192000  0.25000000  0.04732000  1.0
  In  In16  1  0.25000000  0.00000000  0.95538000  1.0
  In  In17  1  0.25000000  0.50000000  0.95538000  1.0
  In  In18  1  0.75000000  0.25000000  0.86614000  1.0
  In  In19  1  0.75000000  0.75000000  0.86614000  1.0
  In  In20  1  0.27204000  0.49958000  0.13699000  1.0
  In  In21  1  0.27211000  0.00039000  0.13699000  1.0
  In  In22  1  0.75831000  0.75000000  0.04493000  1.0
  In  In23  1  0.75516000  0.25001000  0.04269000  1.0
  Au  Au24  1  0.00000000  0.00000000  0.86614000  1.0
  Au  Au25  1  0.00000000  0.50000000  0.86614000  1.0
  Au  Au26  1  0.50000000  0.75000000  0.95538000  1.0
  Au  Au27  1  0.50000000  0.25000000  0.95538000  1.0
  Au  Au28  1  0.00066000  0.50052000  0.04411000  1.0
  Au  Au29  1  0.00066000  0.99949000  0.04411000  1.0
  Au  Au30  1  0.50894000  0.25000000  0.12814000  1.0
  Au  Au31  1  0.53831000  0.75000000  0.13320000  1.0
  C  C32  1  0.85910000  0.24986000  0.19512000  1.0
  O  O33  1  0.80095000  0.25005000  0.23618000  1.0
