# generated using pymatgen
data_Na4Pb12C
_symmetry_space_group_name_H-M   P1
_cell_length_a   7.08799000
_cell_length_b   10.02390000
_cell_length_c   25.31600000
_cell_angle_alpha   90.00000000
_cell_angle_beta   90.00000000
_cell_angle_gamma   90.00000000
_symmetry_Int_Tables_number   1
_chemical_formula_structural   Na4Pb12C
_chemical_formula_sum   'Na4 Pb12 C1'
_cell_volume   1798.68415376
_cell_formula_units_Z   1
loop_
 _symmetry_equiv_pos_site_id
 _symmetry_equiv_pos_as_xyz
  1  'x, y, z'
loop_
 _atom_site_type_symbol
 _atom_site_label
 _atom_site_symmetry_multiplicity
 _atom_site_fract_x
 _atom_site_fract_y
 _atom_site_fract_z
 _atom_site_occupancy
  Na  Na0  1  0.50000000  -0.00000000  0.03500000  1.0
  Na  Na1  1  0.50000000  0.50000000  0.03500000  1.0
  Na  Na2  1  0.99266000  0.93928000  0.89308000  1.0
  Na  Na3  1  0.99489000  0.56034000  0.89267000  1.0
  Pb  Pb4  1  0.00000000  0.00000000  0.03500000  1.0
  Pb  Pb5  1  0.00000000  0.50000000  0.03500000  1.0
  Pb  Pb6  1  0.22970000  0.25019000  0.97211000  1.0
  Pb  Pb7  1  0.25000000  0.25000000  0.10499000  1.0
  Pb  Pb8  1  0.25000000  0.75000000  0.10499000  1.0
  Pb  Pb9  1  0.26018000  0.74965000  0.97770000  1.0
  Pb  Pb10  1  0.50710000  0.57689000  0.88785000  1.0
  Pb  Pb11  1  0.50798000  0.92011000  0.88700000  1.0
  Pb  Pb12  1  0.73515000  0.25088000  0.96473000  1.0
  Pb  Pb13  1  0.75000000  0.25000000  0.10499000  1.0
  Pb  Pb14  1  0.75000000  0.75000000  0.10499000  1.0
  Pb  Pb15  1  0.75160000  0.75031000  0.97818000  1.0
  C  C16  1  0.74252000  0.74980000  0.88597000  1.0
