# generated using pymatgen
data_Y4Sc4Ga4Pd4C
_symmetry_space_group_name_H-M   P1
_cell_length_a   5.91305000
_cell_length_b   9.85606000
_cell_length_c   24.24990000
_cell_angle_alpha   90.00000000
_cell_angle_beta   90.00000000
_cell_angle_gamma   90.00000000
_symmetry_Int_Tables_number   1
_chemical_formula_structural   Y4Sc4Ga4Pd4C
_chemical_formula_sum   'Y4 Sc4 Ga4 Pd4 C1'
_cell_volume   1413.26902995
_cell_formula_units_Z   1
loop_
 _symmetry_equiv_pos_site_id
 _symmetry_equiv_pos_as_xyz
  1  'x, y, z'
loop_
 _atom_site_type_symbol
 _atom_site_label
 _atom_site_symmetry_multiplicity
 _atom_site_fract_x
 _atom_site_fract_y
 _atom_site_fract_z
 _atom_site_occupancy
  Y  Y0  1  0.16395000  0.25001000  0.03374000  1.0
  Y  Y1  1  0.21366000  0.75001000  0.02842000  1.0
  Y  Y2  1  0.53570000  0.25000000  0.91237000  1.0
  Y  Y3  1  0.53570000  0.75000000  0.91237000  1.0
  Sc  Sc4  1  0.55128000  0.04081000  0.08961000  1.0
  Sc  Sc5  1  0.55135000  0.45916000  0.08965000  1.0
  Sc  Sc6  1  0.85713000  0.00000000  0.97079000  1.0
  Sc  Sc7  1  0.85713000  0.50000000  0.97079000  1.0
  Ga  Ga8  1  0.04021000  0.98244000  0.08607000  1.0
  Ga  Ga9  1  0.04024000  0.51756000  0.08606000  1.0
  Ga  Ga10  1  0.35713000  0.00000000  0.97079000  1.0
  Ga  Ga11  1  0.35713000  0.50000000  0.97079000  1.0
  Pd  Pd12  1  0.03570000  0.25000000  0.91237000  1.0
  Pd  Pd13  1  0.03570000  0.75000000  0.91237000  1.0
  Pd  Pd14  1  0.68936000  0.24999000  0.01447000  1.0
  Pd  Pd15  1  0.71168000  0.75002000  0.02278000  1.0
  C  C16  1  0.48504000  0.25000000  0.08840000  1.0
