# generated using pymatgen
data_Hf8Al8Pd16C
_symmetry_space_group_name_H-M   'P 1'
_cell_length_a   9.11212000
_cell_length_b   6.44324000
_cell_length_c   26.83410000
_cell_angle_alpha   90.00000000
_cell_angle_beta   90.00000000
_cell_angle_gamma   90.00000000
_symmetry_Int_Tables_number   1
_chemical_formula_structural   Hf8Al8Pd16C
_chemical_formula_sum   'Hf8 Al8 Pd16 C1'
_cell_volume   1575.47230339
_cell_formula_units_Z   1
loop_
 _symmetry_equiv_pos_site_id
 _symmetry_equiv_pos_as_xyz
  1  'x, y, z'
loop_
 _atom_site_type_symbol
 _atom_site_label
 _atom_site_symmetry_multiplicity
 _atom_site_fract_x
 _atom_site_fract_y
 _atom_site_fract_z
 _atom_site_occupancy
  Hf  Hf0  1  0.75000000  0.00000000  0.12734000  1.0
  Hf  Hf1  1  0.00000000  0.50000000  0.04245000  1.0
  Hf  Hf2  1  0.50000000  0.50000000  0.04245000  1.0
  Hf  Hf3  1  0.25000000  0.00000000  0.12734000  1.0
  Hf  Hf4  1  0.25162000  0.00243000  0.95684000  1.0
  Hf  Hf5  1  0.50000000  0.48162000  0.87282000  1.0
  Hf  Hf6  1  0.00000000  0.52483000  0.87212000  1.0
  Hf  Hf7  1  0.74838000  0.00243000  0.95684000  1.0
  Al  Al8  1  0.50000000  0.00000000  0.04245000  1.0
  Al  Al9  1  0.75000000  0.50000000  0.12734000  1.0
  Al  Al10  1  0.00000000  0.00000000  0.04245000  1.0
  Al  Al11  1  0.25000000  0.50000000  0.12734000  1.0
  Al  Al12  1  0.00000000  0.95379000  0.86712000  1.0
  Al  Al13  1  0.24833000  0.49900000  0.95517000  1.0
  Al  Al14  1  0.50000000  0.00290000  0.87555000  1.0
  Al  Al15  1  0.75167000  0.49900000  0.95517000  1.0
  Pd  Pd16  1  0.75000000  0.25000000  0.04245000  1.0
  Pd  Pd17  1  0.25000000  0.75000000  0.04245000  1.0
  Pd  Pd18  1  0.75000000  0.75000000  0.04245000  1.0
  Pd  Pd19  1  0.25000000  0.25000000  0.04245000  1.0
  Pd  Pd20  1  0.50000000  0.75000000  0.12734000  1.0
  Pd  Pd21  1  0.00000000  0.25000000  0.12734000  1.0
  Pd  Pd22  1  0.50000000  0.25000000  0.12734000  1.0
  Pd  Pd23  1  0.00000000  0.75000000  0.12734000  1.0
  Pd  Pd24  1  0.24773000  0.23293000  0.87269000  1.0
  Pd  Pd25  1  0.73882000  0.74778000  0.87698000  1.0
  Pd  Pd26  1  0.26118000  0.74778000  0.87698000  1.0
  Pd  Pd27  1  0.75227000  0.23293000  0.87269000  1.0
  Pd  Pd28  1  0.00000000  0.75513000  0.96074000  1.0
  Pd  Pd29  1  0.50000000  0.26433000  0.95959000  1.0
  Pd  Pd30  1  0.00000000  0.26000000  0.95766000  1.0
  Pd  Pd31  1  0.50000000  0.73924000  0.95573000  1.0
  C  C32  1  0.00000000  0.23178000  0.84640000  1.0
