# generated using pymatgen
data_Hf8Al8Pd16C
_symmetry_space_group_name_H-M   Pm
_cell_length_a   6.44324000
_cell_length_b   9.11212000
_cell_length_c   26.83410000
_cell_angle_alpha   90.00000000
_cell_angle_beta   90.00000000
_cell_angle_gamma   90.00000000
_symmetry_Int_Tables_number   6
_chemical_formula_structural   Hf8Al8Pd16C
_chemical_formula_sum   'Hf8 Al8 Pd16 C1'
_cell_volume   1575.47230339
_cell_formula_units_Z   1
loop_
 _symmetry_equiv_pos_site_id
 _symmetry_equiv_pos_as_xyz
  1  'x, y, z'
  2  'x, -y, z'
loop_
 _atom_site_type_symbol
 _atom_site_label
 _atom_site_symmetry_multiplicity
 _atom_site_fract_x
 _atom_site_fract_y
 _atom_site_fract_z
 _atom_site_occupancy
  Hf  Hf0  2  0.00000000  0.25000000  0.87266000  1.0
  Hf  Hf1  2  0.00243000  0.25162000  0.04316000  1.0
  Hf  Hf2  1  0.48162000  0.50000000  0.12718000  1.0
  Hf  Hf3  1  0.50000000  0.00000000  0.95755000  1.0
  Hf  Hf4  1  0.50000000  0.50000000  0.95755000  1.0
  Hf  Hf5  1  0.52483000  0.00000000  0.12788000  1.0
  Al  Al6  2  0.49900000  0.24833000  0.04483000  1.0
  Al  Al7  2  0.50000000  0.25000000  0.87266000  1.0
  Al  Al8  1  0.00000000  0.00000000  0.95755000  1.0
  Al  Al9  1  0.00000000  0.50000000  0.95755000  1.0
  Al  Al10  1  0.00290000  0.50000000  0.12445000  1.0
  Al  Al11  1  0.95379000  0.00000000  0.13288000  1.0
  Pd  Pd12  2  0.23293000  0.24773000  0.12731000  1.0
  Pd  Pd13  2  0.25000000  0.25000000  0.95755000  1.0
  Pd  Pd14  2  0.74778000  0.26118000  0.12302000  1.0
  Pd  Pd15  2  0.75000000  0.25000000  0.95755000  1.0
  Pd  Pd16  1  0.25000000  0.00000000  0.87266000  1.0
  Pd  Pd17  1  0.25000000  0.50000000  0.87266000  1.0
  Pd  Pd18  1  0.26000000  0.00000000  0.04234000  1.0
  Pd  Pd19  1  0.26433000  0.50000000  0.04041000  1.0
  Pd  Pd20  1  0.73924000  0.50000000  0.04427000  1.0
  Pd  Pd21  1  0.75000000  0.00000000  0.87266000  1.0
  Pd  Pd22  1  0.75000000  0.50000000  0.87266000  1.0
  Pd  Pd23  1  0.75513000  0.00000000  0.03926000  1.0
  C  C24  1  0.23178000  0.00000000  0.15360000  1.0
