# generated using pymatgen
data_Sc8In8Ag16CO
_symmetry_space_group_name_H-M   Pm
_cell_length_a   9.69405000
_cell_length_b   6.85473000
_cell_length_c   27.27050000
_cell_angle_alpha   90.00000000
_cell_angle_beta   90.00000000
_cell_angle_gamma   90.00000000
_symmetry_Int_Tables_number   6
_chemical_formula_structural   Sc8In8Ag16CO
_chemical_formula_sum   'Sc8 In8 Ag16 C1 O1'
_cell_volume   1812.12732542
_cell_formula_units_Z   1
loop_
 _symmetry_equiv_pos_site_id
 _symmetry_equiv_pos_as_xyz
  1  'x, y, z'
  2  'x, -y, z'
loop_
 _atom_site_type_symbol
 _atom_site_label
 _atom_site_symmetry_multiplicity
 _atom_site_fract_x
 _atom_site_fract_y
 _atom_site_fract_z
 _atom_site_occupancy
  Sc  Sc0  1  0.00000000  0.50000000  0.86670000  1.0
  Sc  Sc1  1  0.00054000  0.50000000  0.04880000  1.0
  Sc  Sc2  1  0.25000000  0.00000000  0.95557000  1.0
  Sc  Sc3  1  0.25001000  0.00000000  0.13010000  1.0
  Sc  Sc4  1  0.49948000  0.50000000  0.04880000  1.0
  Sc  Sc5  1  0.50000000  0.50000000  0.86670000  1.0
  Sc  Sc6  1  0.75000000  0.00000000  0.95557000  1.0
  Sc  Sc7  1  0.75001000  0.00000000  0.13025000  1.0
  In  In8  1  0.00000000  0.00000000  0.86670000  1.0
  In  In9  1  0.25000000  0.50000000  0.13537000  1.0
  In  In10  1  0.25000000  0.50000000  0.95557000  1.0
  In  In11  1  0.50000000  0.00000000  0.86670000  1.0
  In  In12  1  0.50018000  0.00000000  0.04490000  1.0
  In  In13  1  0.75000000  0.50000000  0.95557000  1.0
  In  In14  1  0.75001000  0.50000000  0.13606000  1.0
  In  In15  1  0.99984000  0.00000000  0.04490000  1.0
  Ag  Ag16  2  0.00000000  0.25004000  0.95557000  1.0
  Ag  Ag17  2  0.00015000  0.24062000  0.13896000  1.0
  Ag  Ag18  2  0.25000000  0.25004000  0.86670000  1.0
  Ag  Ag19  2  0.25000000  0.25217000  0.04343000  1.0
  Ag  Ag20  2  0.49986000  0.24071000  0.13895000  1.0
  Ag  Ag21  2  0.50000000  0.24996000  0.95557000  1.0
  Ag  Ag22  2  0.75000000  0.24996000  0.86670000  1.0
  Ag  Ag23  2  0.75001000  0.25346000  0.04413000  1.0
  C  C24  1  0.24978000  0.50000000  0.28711000  1.0
  O  O25  1  0.25000000  0.50000000  0.32873000  1.0
