# generated using pymatgen
data_Li8Ge8Pd16C
_symmetry_space_group_name_H-M   'P 1'
_cell_length_a   6.13924000
_cell_length_b   8.68219000
_cell_length_c   26.51160000
_cell_angle_alpha   90.00000000
_cell_angle_beta   90.00000000
_cell_angle_gamma   90.00000000
_symmetry_Int_Tables_number   1
_chemical_formula_structural   Li8Ge8Pd16C
_chemical_formula_sum   'Li8 Ge8 Pd16 C1'
_cell_volume   1413.12257935
_cell_formula_units_Z   1
loop_
 _symmetry_equiv_pos_site_id
 _symmetry_equiv_pos_as_xyz
  1  'x, y, z'
loop_
 _atom_site_type_symbol
 _atom_site_label
 _atom_site_symmetry_multiplicity
 _atom_site_fract_x
 _atom_site_fract_y
 _atom_site_fract_z
 _atom_site_occupancy
  Li  Li0  1  0.00000000  0.00000000  0.87719000  1.0
  Li  Li1  1  0.50000000  0.25000000  0.95906000  1.0
  Li  Li2  1  0.50000000  0.75000000  0.95906000  1.0
  Li  Li3  1  0.00000000  0.50000000  0.87719000  1.0
  Li  Li4  1  0.00000000  0.50000000  0.03725000  1.0
  Li  Li5  1  0.50000000  0.74805000  0.13847000  1.0
  Li  Li6  1  0.50000000  0.25195000  0.13847000  1.0
  Li  Li7  1  0.00000000  0.00000000  0.03841000  1.0
  Ge  Ge8  1  0.00000000  0.75000000  0.95906000  1.0
  Ge  Ge9  1  0.50000000  0.00000000  0.87719000  1.0
  Ge  Ge10  1  0.00000000  0.25000000  0.95906000  1.0
  Ge  Ge11  1  0.50000000  0.50000000  0.87719000  1.0
  Ge  Ge12  1  0.00000000  0.25752000  0.12303000  1.0
  Ge  Ge13  1  0.50000000  0.50000000  0.04109000  1.0
  Ge  Ge14  1  0.00000000  0.74248000  0.12303000  1.0
  Ge  Ge15  1  0.50000000  0.00000000  0.03915000  1.0
  Pd  Pd16  1  0.25000000  0.00000000  0.95906000  1.0
  Pd  Pd17  1  0.75000000  0.50000000  0.95906000  1.0
  Pd  Pd18  1  0.75000000  0.00000000  0.95906000  1.0
  Pd  Pd19  1  0.25000000  0.50000000  0.95906000  1.0
  Pd  Pd20  1  0.75000000  0.75000000  0.87719000  1.0
  Pd  Pd21  1  0.25000000  0.25000000  0.87719000  1.0
  Pd  Pd22  1  0.25000000  0.75000000  0.87719000  1.0
  Pd  Pd23  1  0.75000000  0.25000000  0.87719000  1.0
  Pd  Pd24  1  0.23818000  0.50000000  0.11561000  1.0
  Pd  Pd25  1  0.77802000  0.00000000  0.12449000  1.0
  Pd  Pd26  1  0.76182000  0.50000000  0.11561000  1.0
  Pd  Pd27  1  0.22198000  0.00000000  0.12449000  1.0
  Pd  Pd28  1  0.74820000  0.24383000  0.04162000  1.0
  Pd  Pd29  1  0.25180000  0.75617000  0.04162000  1.0
  Pd  Pd30  1  0.25180000  0.24383000  0.04162000  1.0
  Pd  Pd31  1  0.74820000  0.75617000  0.04162000  1.0
  C  C32  1  0.50000000  0.00000000  0.15356000  1.0
