# generated using pymatgen
data_LiYGePb
_symmetry_space_group_name_H-M   'P 1'
_cell_length_a   9.86128000
_cell_length_b   6.08443000
_cell_length_c   24.56300000
_cell_angle_alpha   90.00000000
_cell_angle_beta   90.00000000
_cell_angle_gamma   90.00000000
_symmetry_Int_Tables_number   1
_chemical_formula_structural   LiYGePb
_chemical_formula_sum   'Li4 Y4 Ge4 Pb4'
_cell_volume   1473.78657970
_cell_formula_units_Z   4
loop_
 _symmetry_equiv_pos_site_id
 _symmetry_equiv_pos_as_xyz
  1  'x, y, z'
loop_
 _atom_site_type_symbol
 _atom_site_label
 _atom_site_symmetry_multiplicity
 _atom_site_fract_x
 _atom_site_fract_y
 _atom_site_fract_z
 _atom_site_occupancy
  Li  Li0  1  0.25000000  0.24707000  0.03096000  1.0
  Li  Li1  1  0.24998000  0.73467000  0.90499000  1.0
  Li  Li2  1  0.75000000  0.24707000  0.03096000  1.0
  Li  Li3  1  0.75002000  0.73467000  0.90499000  1.0
  Y  Y4  1  0.00000000  0.50000000  0.09288000  1.0
  Y  Y5  1  0.00000000  0.00051000  0.97212000  1.0
  Y  Y6  1  0.50000000  0.50000000  0.09288000  1.0
  Y  Y7  1  0.50000000  0.00053000  0.97211000  1.0
  Ge  Ge8  1  0.00000000  0.00000000  0.09288000  1.0
  Ge  Ge9  1  0.00000000  0.49711000  0.96013000  1.0
  Ge  Ge10  1  0.50000000  0.00000000  0.09288000  1.0
  Ge  Ge11  1  0.50000000  0.49710000  0.96015000  1.0
  Pb  Pb12  1  0.25000000  0.74707000  0.03096000  1.0
  Pb  Pb13  1  0.25016000  0.26899000  0.90290000  1.0
  Pb  Pb14  1  0.75000000  0.74707000  0.03096000  1.0
  Pb  Pb15  1  0.74984000  0.26899000  0.90290000  1.0
