# generated using pymatgen
data_Li2AlRh
_symmetry_space_group_name_H-M   Pm
_cell_length_a   6.01864000
_cell_length_b   4.25582000
_cell_length_c   26.38370000
_cell_angle_alpha   90.00000000
_cell_angle_beta   90.00000000
_cell_angle_gamma   90.00000000
_symmetry_Int_Tables_number   6
_chemical_formula_structural   Li2AlRh
_chemical_formula_sum   'Li8 Al4 Rh4'
_cell_volume   675.79864775
_cell_formula_units_Z   4
loop_
 _symmetry_equiv_pos_site_id
 _symmetry_equiv_pos_as_xyz
  1  'x, y, z'
  2  'x, -y, z'
loop_
 _atom_site_type_symbol
 _atom_site_label
 _atom_site_symmetry_multiplicity
 _atom_site_fract_x
 _atom_site_fract_y
 _atom_site_fract_z
 _atom_site_occupancy
  Li  Li0  1  0.00000000  0.50000000  0.04033000  1.0
  Li  Li1  1  0.25000000  0.00000000  0.04033000  1.0
  Li  Li2  1  0.25841000  0.00000000  0.87514000  1.0
  Li  Li3  1  0.49680000  0.00000000  0.96112000  1.0
  Li  Li4  1  0.50000000  0.00000000  0.12098000  1.0
  Li  Li5  1  0.75000000  0.50000000  0.12098000  1.0
  Li  Li6  1  0.76361000  0.50000000  0.96170000  1.0
  Li  Li7  1  0.98447000  0.50000000  0.86711000  1.0
  Al  Al8  1  0.00000000  0.00000000  0.12098000  1.0
  Al  Al9  1  0.00438000  0.00000000  0.95969000  1.0
  Al  Al10  1  0.50000000  0.50000000  0.04033000  1.0
  Al  Al11  1  0.52380000  0.50000000  0.88305000  1.0
  Rh  Rh12  1  0.24480000  0.50000000  0.95541000  1.0
  Rh  Rh13  1  0.25000000  0.50000000  0.12098000  1.0
  Rh  Rh14  1  0.74290000  0.00000000  0.88641000  1.0
  Rh  Rh15  1  0.75000000  0.00000000  0.04033000  1.0
