# generated using pymatgen
data_Al16Ru16CO
_symmetry_space_group_name_H-M   Pmm2
_cell_length_a   6.00621000
_cell_length_b   8.49407000
_cell_length_c   26.37050000
_cell_angle_alpha   90.00000000
_cell_angle_beta   90.00000000
_cell_angle_gamma   90.00000000
_symmetry_Int_Tables_number   25
_chemical_formula_structural   Al16Ru16CO
_chemical_formula_sum   'Al16 Ru16 C1 O1'
_cell_volume   1345.34823335
_cell_formula_units_Z   1
loop_
 _symmetry_equiv_pos_site_id
 _symmetry_equiv_pos_as_xyz
  1  'x, y, z'
  2  '-x, -y, z'
  3  '-x, y, z'
  4  'x, -y, z'
loop_
 _atom_site_type_symbol
 _atom_site_label
 _atom_site_symmetry_multiplicity
 _atom_site_fract_x
 _atom_site_fract_y
 _atom_site_fract_z
 _atom_site_occupancy
  Al  Al0  2  0.00000000  0.25000000  0.87921000  1.0
  Al  Al1  2  0.00000000  0.25008000  0.04012000  1.0
  Al  Al2  2  0.50000000  0.24997000  0.04000000  1.0
  Al  Al3  2  0.50000000  0.25000000  0.87921000  1.0
  Al  Al4  1  0.00000000  0.00000000  0.11892000  1.0
  Al  Al5  1  0.00000000  0.00000000  0.95974000  1.0
  Al  Al6  1  0.00000000  0.50000000  0.11951000  1.0
  Al  Al7  1  0.00000000  0.50000000  0.95974000  1.0
  Al  Al8  1  0.50000000  0.00000000  0.11908000  1.0
  Al  Al9  1  0.50000000  0.00000000  0.95974000  1.0
  Al  Al10  1  0.50000000  0.50000000  0.11977000  1.0
  Al  Al11  1  0.50000000  0.50000000  0.95974000  1.0
  Ru  Ru12  4  0.25000000  0.25000000  0.95974000  1.0
  Ru  Ru13  4  0.25137000  0.25277000  0.12037000  1.0
  Ru  Ru14  2  0.24956000  0.00000000  0.03978000  1.0
  Ru  Ru15  2  0.24973000  0.50000000  0.03925000  1.0
  Ru  Ru16  2  0.25000000  0.00000000  0.87921000  1.0
  Ru  Ru17  2  0.25000000  0.50000000  0.87921000  1.0
  C  C18  1  0.00000000  0.00000000  0.19499000  1.0
  O  O19  1  0.00000000  0.00000000  0.23877000  1.0
