# generated using pymatgen
data_Sc8Ga8Pd16CO
_symmetry_space_group_name_H-M   Pmm2
_cell_length_a   6.43013000
_cell_length_b   9.09357000
_cell_length_c   26.82020000
_cell_angle_alpha   90.00000000
_cell_angle_beta   90.00000000
_cell_angle_gamma   90.00000000
_symmetry_Int_Tables_number   25
_chemical_formula_structural   Sc8Ga8Pd16CO
_chemical_formula_sum   'Sc8 Ga8 Pd16 C1 O1'
_cell_volume   1568.25318999
_cell_formula_units_Z   1
loop_
 _symmetry_equiv_pos_site_id
 _symmetry_equiv_pos_as_xyz
  1  'x, y, z'
  2  '-x, -y, z'
  3  '-x, y, z'
  4  'x, -y, z'
loop_
 _atom_site_type_symbol
 _atom_site_label
 _atom_site_symmetry_multiplicity
 _atom_site_fract_x
 _atom_site_fract_y
 _atom_site_fract_z
 _atom_site_occupancy
  Sc  Sc0  2  0.00000000  0.25000000  0.87285000  1.0
  Sc  Sc1  2  0.00000000  0.25038000  0.04207000  1.0
  Sc  Sc2  1  0.50000000  0.00000000  0.12736000  1.0
  Sc  Sc3  1  0.50000000  0.00000000  0.95762000  1.0
  Sc  Sc4  1  0.50000000  0.50000000  0.12707000  1.0
  Sc  Sc5  1  0.50000000  0.50000000  0.95762000  1.0
  Ga  Ga6  2  0.50000000  0.24944000  0.04534000  1.0
  Ga  Ga7  2  0.50000000  0.25000000  0.87285000  1.0
  Ga  Ga8  1  0.00000000  0.00000000  0.12610000  1.0
  Ga  Ga9  1  0.00000000  0.00000000  0.95762000  1.0
  Ga  Ga10  1  0.00000000  0.50000000  0.12699000  1.0
  Ga  Ga11  1  0.00000000  0.50000000  0.95762000  1.0
  Pd  Pd12  4  0.23652000  0.25128000  0.12349000  1.0
  Pd  Pd13  4  0.25000000  0.25000000  0.95762000  1.0
  Pd  Pd14  2  0.25000000  0.00000000  0.87285000  1.0
  Pd  Pd15  2  0.25000000  0.50000000  0.87285000  1.0
  Pd  Pd16  2  0.25356000  0.00000000  0.04172000  1.0
  Pd  Pd17  2  0.25595000  0.50000000  0.04251000  1.0
  C  C18  1  0.50000000  0.00000000  0.21545000  1.0
  O  O19  1  0.50000000  0.00000000  0.25807000  1.0
