# generated using pymatgen
data_Mn8Ni16Sn8C
_symmetry_space_group_name_H-M   'P 1'
_cell_length_a   8.63046000
_cell_length_b   6.10266000
_cell_length_c   26.47280000
_cell_angle_alpha   90.00000000
_cell_angle_beta   90.00000000
_cell_angle_gamma   90.00000000
_symmetry_Int_Tables_number   1
_chemical_formula_structural   Mn8Ni16Sn8C
_chemical_formula_sum   'Mn8 Ni16 Sn8 C1'
_cell_volume   1394.28962977
_cell_formula_units_Z   1
loop_
 _symmetry_equiv_pos_site_id
 _symmetry_equiv_pos_as_xyz
  1  'x, y, z'
loop_
 _atom_site_type_symbol
 _atom_site_label
 _atom_site_symmetry_multiplicity
 _atom_site_fract_x
 _atom_site_fract_y
 _atom_site_fract_z
 _atom_site_occupancy
  Mn  Mn0  1  0.00000000  0.00000000  0.12225000  1.0
  Mn  Mn1  1  0.25000000  0.50000000  0.04075000  1.0
  Mn  Mn2  1  0.75000000  0.50000000  0.04075000  1.0
  Mn  Mn3  1  0.50000000  0.00000000  0.12225000  1.0
  Mn  Mn4  1  0.49999000  0.00000000  0.95974000  1.0
  Mn  Mn5  1  0.74299000  0.50000000  0.87728000  1.0
  Mn  Mn6  1  0.25707000  0.50000000  0.87727000  1.0
  Mn  Mn7  1  0.99997000  0.00000000  0.95413000  1.0
  Ni  Ni8  1  0.00000000  0.75000000  0.04075000  1.0
  Ni  Ni9  1  0.50000000  0.25000000  0.04075000  1.0
  Ni  Ni10  1  0.00000000  0.25000000  0.04075000  1.0
  Ni  Ni11  1  0.50000000  0.75000000  0.04075000  1.0
  Ni  Ni12  1  0.75000000  0.25000000  0.12225000  1.0
  Ni  Ni13  1  0.25000000  0.75000000  0.12225000  1.0
  Ni  Ni14  1  0.75000000  0.75000000  0.12225000  1.0
  Ni  Ni15  1  0.25000000  0.25000000  0.12225000  1.0
  Ni  Ni16  1  0.49994000  0.74307000  0.88342000  1.0
  Ni  Ni17  1  0.00013000  0.29320000  0.87891000  1.0
  Ni  Ni18  1  0.49994000  0.25693000  0.88342000  1.0
  Ni  Ni19  1  0.00013000  0.70680000  0.87891000  1.0
  Ni  Ni20  1  0.25284000  0.23828000  0.95640000  1.0
  Ni  Ni21  1  0.74713000  0.76168000  0.95641000  1.0
  Ni  Ni22  1  0.25284000  0.76172000  0.95640000  1.0
  Ni  Ni23  1  0.74713000  0.23832000  0.95641000  1.0
  Sn  Sn24  1  0.75000000  0.00000000  0.04075000  1.0
  Sn  Sn25  1  0.00000000  0.50000000  0.12225000  1.0
  Sn  Sn26  1  0.25000000  0.00000000  0.04075000  1.0
  Sn  Sn27  1  0.50000000  0.50000000  0.12225000  1.0
  Sn  Sn28  1  0.26379000  0.00000000  0.86474000  1.0
  Sn  Sn29  1  0.50001000  0.50000000  0.96195000  1.0
  Sn  Sn30  1  0.73615000  0.00000000  0.86475000  1.0
  Sn  Sn31  1  0.99992000  0.50000000  0.96233000  1.0
  C  C32  1  0.99996000  0.00000000  0.87379000  1.0
