# generated using pymatgen
data_Mn8Ni16Sn8C
_symmetry_space_group_name_H-M   Pm
_cell_length_a   8.63046000
_cell_length_b   6.10266000
_cell_length_c   26.47280000
_cell_angle_alpha   90.00000000
_cell_angle_beta   90.00000000
_cell_angle_gamma   90.00000000
_symmetry_Int_Tables_number   6
_chemical_formula_structural   Mn8Ni16Sn8C
_chemical_formula_sum   'Mn8 Ni16 Sn8 C1'
_cell_volume   1394.28962977
_cell_formula_units_Z   1
loop_
 _symmetry_equiv_pos_site_id
 _symmetry_equiv_pos_as_xyz
  1  'x, y, z'
  2  'x, -y, z'
loop_
 _atom_site_type_symbol
 _atom_site_label
 _atom_site_symmetry_multiplicity
 _atom_site_fract_x
 _atom_site_fract_y
 _atom_site_fract_z
 _atom_site_occupancy
  Mn  Mn0  1  0.00000000  0.00000000  0.87775000  1.0
  Mn  Mn1  1  0.25000000  0.50000000  0.95925000  1.0
  Mn  Mn2  1  0.25707000  0.50000000  0.12273000  1.0
  Mn  Mn3  1  0.49999000  0.00000000  0.04026000  1.0
  Mn  Mn4  1  0.50000000  0.00000000  0.87775000  1.0
  Mn  Mn5  1  0.74299000  0.50000000  0.12272000  1.0
  Mn  Mn6  1  0.75000000  0.50000000  0.95925000  1.0
  Mn  Mn7  1  0.99997000  0.00000000  0.04587000  1.0
  Ni  Ni8  2  0.00000000  0.25000000  0.95925000  1.0
  Ni  Ni9  2  0.00013000  0.29320000  0.12109000  1.0
  Ni  Ni10  2  0.25000000  0.25000000  0.87775000  1.0
  Ni  Ni11  2  0.25284000  0.23828000  0.04360000  1.0
  Ni  Ni12  2  0.49994000  0.25693000  0.11658000  1.0
  Ni  Ni13  2  0.50000000  0.25000000  0.95925000  1.0
  Ni  Ni14  2  0.74713000  0.23832000  0.04359000  1.0
  Ni  Ni15  2  0.75000000  0.25000000  0.87775000  1.0
  Sn  Sn16  1  0.00000000  0.50000000  0.87775000  1.0
  Sn  Sn17  1  0.25000000  0.00000000  0.95925000  1.0
  Sn  Sn18  1  0.26379000  0.00000000  0.13526000  1.0
  Sn  Sn19  1  0.50000000  0.50000000  0.87775000  1.0
  Sn  Sn20  1  0.50001000  0.50000000  0.03805000  1.0
  Sn  Sn21  1  0.73615000  0.00000000  0.13525000  1.0
  Sn  Sn22  1  0.75000000  0.00000000  0.95925000  1.0
  Sn  Sn23  1  0.99992000  0.50000000  0.03767000  1.0
  C  C24  1  0.99996000  0.00000000  0.12621000  1.0
