# generated using pymatgen
data_LiCuSbPd
_symmetry_space_group_name_H-M   'P 1'
_cell_length_a   6.37250000
_cell_length_b   4.50604000
_cell_length_c   26.75910000
_cell_angle_alpha   90.00000000
_cell_angle_beta   90.00000000
_cell_angle_gamma   90.00000000
_symmetry_Int_Tables_number   1
_chemical_formula_structural   LiCuSbPd
_chemical_formula_sum   'Li4 Cu4 Sb4 Pd4'
_cell_volume   768.38059646
_cell_formula_units_Z   4
loop_
 _symmetry_equiv_pos_site_id
 _symmetry_equiv_pos_as_xyz
  1  'x, y, z'
loop_
 _atom_site_type_symbol
 _atom_site_label
 _atom_site_symmetry_multiplicity
 _atom_site_fract_x
 _atom_site_fract_y
 _atom_site_fract_z
 _atom_site_occupancy
  Li  Li0  1  0.75000000  0.00000000  0.95790000  1.0
  Li  Li1  1  0.25000000  0.50000000  0.87371000  1.0
  Li  Li2  1  0.75300500  0.00000000  0.13016000  1.0
  Li  Li3  1  0.25004000  0.50000000  0.03484000  1.0
  Cu  Cu4  1  0.00000000  0.00000000  0.87371000  1.0
  Cu  Cu5  1  0.50000000  0.50000000  0.95790000  1.0
  Cu  Cu6  1  0.02415000  0.00000000  0.05176000  1.0
  Cu  Cu7  1  0.46026500  0.50000000  0.11382000  1.0
  Sb  Sb8  1  0.25000000  0.00000000  0.95790000  1.0
  Sb  Sb9  1  0.75000000  0.50000000  0.87371000  1.0
  Sb  Sb10  1  0.25653000  0.00000000  0.14059000  1.0
  Sb  Sb11  1  0.74715500  0.50000000  0.04225000  1.0
  Pd  Pd12  1  0.00000000  0.50000000  0.95790000  1.0
  Pd  Pd13  1  0.50000000  0.00000000  0.87371000  1.0
  Pd  Pd14  1  0.03109500  0.50000000  0.11503000  1.0
  Pd  Pd15  1  0.48185000  0.00000000  0.04981000  1.0
