# generated using pymatgen
data_Nb4Ni8Sn4CO
_symmetry_space_group_name_H-M   'P 1'
_cell_length_a   6.22550000
_cell_length_b   6.22550000
_cell_length_c   24.66910000
_cell_angle_alpha   90.00000000
_cell_angle_beta   90.00000000
_cell_angle_gamma   90.00000000
_symmetry_Int_Tables_number   1
_chemical_formula_structural   Nb4Ni8Sn4CO
_chemical_formula_sum   'Nb4 Ni8 Sn4 C1 O1'
_cell_volume   956.09661450
_cell_formula_units_Z   1
loop_
 _symmetry_equiv_pos_site_id
 _symmetry_equiv_pos_as_xyz
  1  'x, y, z'
loop_
 _atom_site_type_symbol
 _atom_site_label
 _atom_site_symmetry_multiplicity
 _atom_site_fract_x
 _atom_site_fract_y
 _atom_site_fract_z
 _atom_site_occupancy
  Nb  Nb0  1  0.00032000  0.99984000  0.08845000  1.0
  Nb  Nb1  1  0.49990000  0.50048000  0.08811000  1.0
  Nb  Nb2  1  0.50000000  0.00000000  0.96845000  1.0
  Nb  Nb3  1  0.00000000  0.50000000  0.96845000  1.0
  Ni  Ni4  1  0.25154000  0.24679000  0.03365000  1.0
  Ni  Ni5  1  0.75000000  0.75000000  0.90536000  1.0
  Ni  Ni6  1  0.74887000  0.24707000  0.03361000  1.0
  Ni  Ni7  1  0.25000000  0.75000000  0.90536000  1.0
  Ni  Ni8  1  0.74857000  0.75321000  0.03353000  1.0
  Ni  Ni9  1  0.25000000  0.25000000  0.90536000  1.0
  Ni  Ni10  1  0.25167000  0.75359000  0.03357000  1.0
  Ni  Ni11  1  0.75000000  0.25000000  0.90536000  1.0
  Sn  Sn12  1  0.00000000  0.00000000  0.96845000  1.0
  Sn  Sn13  1  0.50084000  0.00057000  0.10378000  1.0
  Sn  Sn14  1  0.00004000  0.50008000  0.10223000  1.0
  Sn  Sn15  1  0.50000000  0.50000000  0.96845000  1.0
  C  C16  1  0.00916000  0.49987000  0.26651000  1.0
  O  O17  1  0.99369000  0.49998000  0.31234000  1.0
