# generated using pymatgen
data_Ga16Ni16CO
_symmetry_space_group_name_H-M   'P 1'
_cell_length_a   5.82971000
_cell_length_b   8.24446000
_cell_length_c   26.18330000
_cell_angle_alpha   90.00000000
_cell_angle_beta   90.00000000
_cell_angle_gamma   90.00000000
_symmetry_Int_Tables_number   1
_chemical_formula_structural   Ga16Ni16CO
_chemical_formula_sum   'Ga16 Ni16 C1 O1'
_cell_volume   1258.44299681
_cell_formula_units_Z   1
loop_
 _symmetry_equiv_pos_site_id
 _symmetry_equiv_pos_as_xyz
  1  'x, y, z'
loop_
 _atom_site_type_symbol
 _atom_site_label
 _atom_site_symmetry_multiplicity
 _atom_site_fract_x
 _atom_site_fract_y
 _atom_site_fract_z
 _atom_site_occupancy
  Ga  Ga0  1  0.75000000  0.00000000  0.88192000  1.0
  Ga  Ga1  1  0.75000000  0.25000000  0.96064000  1.0
  Ga  Ga2  1  0.75734000  0.00000000  0.04211000  1.0
  Ga  Ga3  1  0.74396000  0.25516000  0.12458000  1.0
  Ga  Ga4  1  0.75000000  0.50000000  0.88192000  1.0
  Ga  Ga5  1  0.75000000  0.75000000  0.96064000  1.0
  Ga  Ga6  1  0.74984000  0.50000000  0.03993000  1.0
  Ga  Ga7  1  0.74396000  0.74484000  0.12458000  1.0
  Ga  Ga8  1  0.25000000  0.00000000  0.88192000  1.0
  Ga  Ga9  1  0.25000000  0.25000000  0.96064000  1.0
  Ga  Ga10  1  0.24266000  0.00000000  0.04211000  1.0
  Ga  Ga11  1  0.25604000  0.25516000  0.12458000  1.0
  Ga  Ga12  1  0.25000000  0.50000000  0.88192000  1.0
  Ga  Ga13  1  0.25000000  0.75000000  0.96064000  1.0
  Ga  Ga14  1  0.25016000  0.50000000  0.03993000  1.0
  Ga  Ga15  1  0.25604000  0.74484000  0.12458000  1.0
  Ni  Ni16  1  0.00000000  0.25000000  0.88192000  1.0
  Ni  Ni17  1  0.00000000  0.00000000  0.96064000  1.0
  Ni  Ni18  1  0.00000000  0.24845000  0.04045000  1.0
  Ni  Ni19  1  0.00000000  0.50000000  0.11539000  1.0
  Ni  Ni20  1  0.00000000  0.75000000  0.88192000  1.0
  Ni  Ni21  1  0.00000000  0.50000000  0.96064000  1.0
  Ni  Ni22  1  0.00000000  0.75155000  0.04045000  1.0
  Ni  Ni23  1  0.00000000  0.00000000  0.12860000  1.0
  Ni  Ni24  1  0.50000000  0.25000000  0.88192000  1.0
  Ni  Ni25  1  0.50000000  0.00000000  0.96064000  1.0
  Ni  Ni26  1  0.50000000  0.24756000  0.03723000  1.0
  Ni  Ni27  1  0.50000000  0.50000000  0.11574000  1.0
  Ni  Ni28  1  0.50000000  0.75000000  0.88192000  1.0
  Ni  Ni29  1  0.50000000  0.50000000  0.96064000  1.0
  Ni  Ni30  1  0.50000000  0.75244000  0.03723000  1.0
  Ni  Ni31  1  0.50000000  0.00000000  0.11407000  1.0
  C  C32  1  0.00000000  0.00000000  0.19667000  1.0
  O  O33  1  0.00000000  0.00000000  0.24069000  1.0
