# generated using pymatgen
data_Ga16Ni16CO
_symmetry_space_group_name_H-M   Pmm2
_cell_length_a   5.82971000
_cell_length_b   8.24446000
_cell_length_c   26.18330000
_cell_angle_alpha   90.00000000
_cell_angle_beta   90.00000000
_cell_angle_gamma   90.00000000
_symmetry_Int_Tables_number   25
_chemical_formula_structural   Ga16Ni16CO
_chemical_formula_sum   'Ga16 Ni16 C1 O1'
_cell_volume   1258.44299681
_cell_formula_units_Z   1
loop_
 _symmetry_equiv_pos_site_id
 _symmetry_equiv_pos_as_xyz
  1  'x, y, z'
  2  '-x, -y, z'
  3  '-x, y, z'
  4  'x, -y, z'
loop_
 _atom_site_type_symbol
 _atom_site_label
 _atom_site_symmetry_multiplicity
 _atom_site_fract_x
 _atom_site_fract_y
 _atom_site_fract_z
 _atom_site_occupancy
  Ga  Ga0  4  0.25000000  0.25000000  0.96064000  1.0
  Ga  Ga1  4  0.25604000  0.25516000  0.12458000  1.0
  Ga  Ga2  2  0.24266000  0.00000000  0.04211000  1.0
  Ga  Ga3  2  0.25000000  0.00000000  0.88192000  1.0
  Ga  Ga4  2  0.25000000  0.50000000  0.88192000  1.0
  Ga  Ga5  2  0.25016000  0.50000000  0.03993000  1.0
  Ni  Ni6  2  0.00000000  0.24845000  0.04045000  1.0
  Ni  Ni7  2  0.00000000  0.25000000  0.88192000  1.0
  Ni  Ni8  2  0.50000000  0.24756000  0.03723000  1.0
  Ni  Ni9  2  0.50000000  0.25000000  0.88192000  1.0
  Ni  Ni10  1  0.00000000  0.00000000  0.12860000  1.0
  Ni  Ni11  1  0.00000000  0.00000000  0.96064000  1.0
  Ni  Ni12  1  0.00000000  0.50000000  0.11539000  1.0
  Ni  Ni13  1  0.00000000  0.50000000  0.96064000  1.0
  Ni  Ni14  1  0.50000000  0.00000000  0.11407000  1.0
  Ni  Ni15  1  0.50000000  0.00000000  0.96064000  1.0
  Ni  Ni16  1  0.50000000  0.50000000  0.11574000  1.0
  Ni  Ni17  1  0.50000000  0.50000000  0.96064000  1.0
  C  C18  1  0.00000000  0.00000000  0.19667000  1.0
  O  O19  1  0.00000000  0.00000000  0.24069000  1.0
