# generated using pymatgen
data_Li8Cu16Si8CO
_symmetry_space_group_name_H-M   'P 1'
_cell_length_a   5.78917000
_cell_length_b   8.18712000
_cell_length_c   26.14030000
_cell_angle_alpha   90.00000000
_cell_angle_beta   90.00000000
_cell_angle_gamma   90.00000000
_symmetry_Int_Tables_number   1
_chemical_formula_structural   Li8Cu16Si8CO
_chemical_formula_sum   'Li8 Cu16 Si8 C1 O1'
_cell_volume   1238.96211387
_cell_formula_units_Z   1
loop_
 _symmetry_equiv_pos_site_id
 _symmetry_equiv_pos_as_xyz
  1  'x, y, z'
loop_
 _atom_site_type_symbol
 _atom_site_label
 _atom_site_symmetry_multiplicity
 _atom_site_fract_x
 _atom_site_fract_y
 _atom_site_fract_z
 _atom_site_occupancy
  Li  Li0  1  0.00000000  0.75000000  0.88255000  1.0
  Li  Li1  1  0.50000000  0.00000000  0.96085000  1.0
  Li  Li2  1  0.50000000  0.50000000  0.96085000  1.0
  Li  Li3  1  0.00000000  0.25000000  0.88255000  1.0
  Li  Li4  1  0.00000000  0.25192000  0.03312000  1.0
  Li  Li5  1  0.50000000  0.50000000  0.13289000  1.0
  Li  Li6  1  0.50000000  0.00000000  0.13010000  1.0
  Li  Li7  1  0.00000000  0.74808000  0.03312000  1.0
  Cu  Cu8  1  0.25000000  0.75000000  0.96085000  1.0
  Cu  Cu9  1  0.75000000  0.25000000  0.96085000  1.0
  Cu  Cu10  1  0.75000000  0.75000000  0.96085000  1.0
  Cu  Cu11  1  0.25000000  0.25000000  0.96085000  1.0
  Cu  Cu12  1  0.75000000  0.50000000  0.88255000  1.0
  Cu  Cu13  1  0.25000000  0.00000000  0.88255000  1.0
  Cu  Cu14  1  0.25000000  0.50000000  0.88255000  1.0
  Cu  Cu15  1  0.75000000  0.00000000  0.88255000  1.0
  Cu  Cu16  1  0.22686000  0.25444000  0.11042000  1.0
  Cu  Cu17  1  0.77314000  0.74556000  0.11042000  1.0
  Cu  Cu18  1  0.77314000  0.25444000  0.11042000  1.0
  Cu  Cu19  1  0.22686000  0.74556000  0.11042000  1.0
  Cu  Cu20  1  0.73576000  0.00000000  0.04148000  1.0
  Cu  Cu21  1  0.25561000  0.50000000  0.04230000  1.0
  Cu  Cu22  1  0.26424000  0.00000000  0.04148000  1.0
  Cu  Cu23  1  0.74439000  0.50000000  0.04230000  1.0
  Si  Si24  1  0.00000000  0.50000000  0.96085000  1.0
  Si  Si25  1  0.50000000  0.75000000  0.88255000  1.0
  Si  Si26  1  0.00000000  0.00000000  0.96085000  1.0
  Si  Si27  1  0.50000000  0.25000000  0.88255000  1.0
  Si  Si28  1  0.00000000  0.00000000  0.11853000  1.0
  Si  Si29  1  0.50000000  0.25219000  0.04067000  1.0
  Si  Si30  1  0.00000000  0.50000000  0.11991000  1.0
  Si  Si31  1  0.50000000  0.74781000  0.04067000  1.0
  C  C32  1  0.00000000  0.00000000  0.18784000  1.0
  O  O33  1  0.00000000  0.00000000  0.23248000  1.0
