# generated using pymatgen
data_Li8Cu16Si8CO
_symmetry_space_group_name_H-M   Pmm2
_cell_length_a   5.78917000
_cell_length_b   8.18712000
_cell_length_c   26.14030000
_cell_angle_alpha   90.00000000
_cell_angle_beta   90.00000000
_cell_angle_gamma   90.00000000
_symmetry_Int_Tables_number   25
_chemical_formula_structural   Li8Cu16Si8CO
_chemical_formula_sum   'Li8 Cu16 Si8 C1 O1'
_cell_volume   1238.96211387
_cell_formula_units_Z   1
loop_
 _symmetry_equiv_pos_site_id
 _symmetry_equiv_pos_as_xyz
  1  'x, y, z'
  2  '-x, -y, z'
  3  '-x, y, z'
  4  'x, -y, z'
loop_
 _atom_site_type_symbol
 _atom_site_label
 _atom_site_symmetry_multiplicity
 _atom_site_fract_x
 _atom_site_fract_y
 _atom_site_fract_z
 _atom_site_occupancy
  Li  Li0  2  0.00000000  0.25000000  0.88255000  1.0
  Li  Li1  2  0.00000000  0.25192000  0.03312000  1.0
  Li  Li2  1  0.50000000  0.00000000  0.13010000  1.0
  Li  Li3  1  0.50000000  0.00000000  0.96085000  1.0
  Li  Li4  1  0.50000000  0.50000000  0.13289000  1.0
  Li  Li5  1  0.50000000  0.50000000  0.96085000  1.0
  Cu  Cu6  4  0.22686000  0.25444000  0.11042000  1.0
  Cu  Cu7  4  0.25000000  0.25000000  0.96085000  1.0
  Cu  Cu8  2  0.25000000  0.00000000  0.88255000  1.0
  Cu  Cu9  2  0.25000000  0.50000000  0.88255000  1.0
  Cu  Cu10  2  0.25561000  0.50000000  0.04230000  1.0
  Cu  Cu11  2  0.26424000  0.00000000  0.04148000  1.0
  Si  Si12  2  0.50000000  0.25000000  0.88255000  1.0
  Si  Si13  2  0.50000000  0.25219000  0.04067000  1.0
  Si  Si14  1  0.00000000  0.00000000  0.11853000  1.0
  Si  Si15  1  0.00000000  0.00000000  0.96085000  1.0
  Si  Si16  1  0.00000000  0.50000000  0.11991000  1.0
  Si  Si17  1  0.00000000  0.50000000  0.96085000  1.0
  C  C18  1  0.00000000  0.00000000  0.18784000  1.0
  O  O19  1  0.00000000  0.00000000  0.23248000  1.0
