# generated using pymatgen
data_Y8In8Cu8Sn8CO
_symmetry_space_group_name_H-M   Pmm2
_cell_length_a   8.82850000
_cell_length_b   8.84740000
_cell_length_c   26.85960000
_cell_angle_alpha   90.00000000
_cell_angle_beta   90.00000000
_cell_angle_gamma   90.00000000
_symmetry_Int_Tables_number   25
_chemical_formula_structural   Y8In8Cu8Sn8CO
_chemical_formula_sum   'Y8 In8 Cu8 Sn8 C1 O1'
_cell_volume   2097.98377267
_cell_formula_units_Z   1
loop_
 _symmetry_equiv_pos_site_id
 _symmetry_equiv_pos_as_xyz
  1  'x, y, z'
  2  '-x, -y, z'
  3  '-x, y, z'
  4  'x, -y, z'
loop_
 _atom_site_type_symbol
 _atom_site_label
 _atom_site_symmetry_multiplicity
 _atom_site_fract_x
 _atom_site_fract_y
 _atom_site_fract_z
 _atom_site_occupancy
  Y  Y0  2  0.24514000  0.50000000  0.04426000  1.0
  Y  Y1  2  0.25000000  0.00000000  0.87231000  1.0
  Y  Y2  2  0.25000000  0.50000000  0.87231000  1.0
  Y  Y3  2  0.25049000  0.00000000  0.04380000  1.0
  In  In4  4  0.25000000  0.24999000  0.95744000  1.0
  In  In5  4  0.29002000  0.24933000  0.14287000  1.0
  Cu  Cu6  1  0.00000000  0.00000000  0.12601000  1.0
  Cu  Cu7  1  0.00000000  0.00000000  0.95744000  1.0
  Cu  Cu8  1  0.00000000  0.50000000  0.11818000  1.0
  Cu  Cu9  1  0.00000000  0.50000000  0.95744000  1.0
  Cu  Cu10  1  0.50000000  0.00000000  0.12069000  1.0
  Cu  Cu11  1  0.50000000  0.00000000  0.95744000  1.0
  Cu  Cu12  1  0.50000000  0.50000000  0.11883000  1.0
  Cu  Cu13  1  0.50000000  0.50000000  0.95744000  1.0
  Sn  Sn14  2  0.00000000  0.24369000  0.06099000  1.0
  Sn  Sn15  2  0.00000000  0.24999000  0.87231000  1.0
  Sn  Sn16  2  0.50000000  0.24999000  0.87231000  1.0
  Sn  Sn17  2  0.50000000  0.25188000  0.04472000  1.0
  C  C18  1  0.00000000  0.00000000  0.19585000  1.0
  O  O19  1  0.00000000  0.00000000  0.23870000  1.0
