# generated using pymatgen
data_Mn4Ni8Sb4CO
_symmetry_space_group_name_H-M   'P 1'
_cell_length_a   6.10266000
_cell_length_b   6.10266000
_cell_length_c   24.57700000
_cell_angle_alpha   90.00000000
_cell_angle_beta   90.00000000
_cell_angle_gamma   90.00000000
_symmetry_Int_Tables_number   1
_chemical_formula_structural   Mn4Ni8Sb4CO
_chemical_formula_sum   'Mn4 Ni8 Sb4 C1 O1'
_cell_volume   915.30791670
_cell_formula_units_Z   1
loop_
 _symmetry_equiv_pos_site_id
 _symmetry_equiv_pos_as_xyz
  1  'x, y, z'
loop_
 _atom_site_type_symbol
 _atom_site_label
 _atom_site_symmetry_multiplicity
 _atom_site_fract_x
 _atom_site_fract_y
 _atom_site_fract_z
 _atom_site_occupancy
  Mn  Mn0  1  0.00001500  0.99998500  0.09312000  1
  Mn  Mn1  1  0.50001500  0.49998500  0.09312000  1
  Mn  Mn2  1  0.99807000  0.49817000  0.96801000  1
  Mn  Mn3  1  0.50183000  0.00193000  0.96801000  1
  Ni  Ni4  1  0.25001500  0.74998500  0.03104000  1
  Ni  Ni5  1  0.75027500  0.24972500  0.91279000  1
  Ni  Ni6  1  0.25000000  0.24997000  0.03104000  1
  Ni  Ni7  1  0.75004000  0.75003000  0.91261000  1
  Ni  Ni8  1  0.75001500  0.24998500  0.03104000  1
  Ni  Ni9  1  0.25121000  0.74879000  0.90609000  1
  Ni  Ni10  1  0.75003000  0.75000000  0.03104000  1
  Ni  Ni11  1  0.24997000  0.24996000  0.91261000  1
  Sb  Sb12  1  0.00165000  0.99835000  0.96595000  1
  Sb  Sb13  1  0.00000000  0.49997000  0.09312000  1
  Sb  Sb14  1  0.50003000  1.00000000  0.09312000  1
  Sb  Sb15  1  0.49919500  0.50080500  0.96605000  1
  C  C16  1  0.24990000  0.75010000  0.83359000  1
  O  O17  1  0.24961500  0.75038500  0.78667000  1
