# generated using pymatgen
data_Mn4Ni8Sb4CO
_symmetry_space_group_name_H-M   Cm
_cell_length_a   8.63046454
_cell_length_b   8.63046454
_cell_length_c   24.57700000
_cell_angle_alpha   90.00000000
_cell_angle_beta   90.00000000
_cell_angle_gamma   90.00000000
_symmetry_Int_Tables_number   8
_chemical_formula_structural   Mn4Ni8Sb4CO
_chemical_formula_sum   'Mn8 Ni16 Sb8 C2 O2'
_cell_volume   1830.61583340
_cell_formula_units_Z   2
loop_
 _symmetry_equiv_pos_site_id
 _symmetry_equiv_pos_as_xyz
  1  'x, y, z'
  2  'x, -y, z'
  3  'x+1/2, y+1/2, z'
  4  'x+1/2, -y+1/2, z'
loop_
 _atom_site_type_symbol
 _atom_site_label
 _atom_site_symmetry_multiplicity
 _atom_site_fract_x
 _atom_site_fract_y
 _atom_site_fract_z
 _atom_site_occupancy
  Mn  Mn0  4  0.24995000  0.25188000  0.03199000  1.0
  Mn  Mn1  2  0.00001500  0.50000000  0.90688000  1.0
  Mn  Mn2  2  0.00001500  0.00000000  0.90688000  1.0
  Ni  Ni3  4  0.00000500  0.24996500  0.08739000  1.0
  Ni  Ni4  4  0.00001500  0.24998500  0.96896000  1.0
  Ni  Ni5  2  0.25001500  0.50000000  0.96896000  1.0
  Ni  Ni6  2  0.25001500  0.00000000  0.96896000  1.0
  Ni  Ni7  2  0.25027500  0.50000000  0.08721000  1.0
  Ni  Ni8  2  0.25121000  0.00000000  0.09391000  1.0
  Sb  Sb9  4  0.25001500  0.25001500  0.90688000  1.0
  Sb  Sb10  2  0.00165000  0.00000000  0.03405000  1.0
  Sb  Sb11  2  0.49919500  0.00000000  0.03395000  1.0
  C  C12  2  0.24990000  0.00000000  0.16641000  1.0
  O  O13  2  0.24961500  0.00000000  0.21333000  1.0
