# generated using pymatgen
data_Li8Sc8Al8Pd8C
_symmetry_space_group_name_H-M   Pm
_cell_length_a   6.37868000
_cell_length_b   9.02082000
_cell_length_c   26.76560000
_cell_angle_alpha   90.00000000
_cell_angle_beta   90.00000000
_cell_angle_gamma   90.00000000
_symmetry_Int_Tables_number   6
_chemical_formula_structural   Li8Sc8Al8Pd8C
_chemical_formula_sum   'Li8 Sc8 Al8 Pd8 C1'
_cell_volume   1540.11735856
_cell_formula_units_Z   1
loop_
 _symmetry_equiv_pos_site_id
 _symmetry_equiv_pos_as_xyz
  1  'x, y, z'
  2  'x, -y, z'
loop_
 _atom_site_type_symbol
 _atom_site_label
 _atom_site_symmetry_multiplicity
 _atom_site_fract_x
 _atom_site_fract_y
 _atom_site_fract_z
 _atom_site_occupancy
  Li  Li0  2  0.59433000  0.26975000  0.18065000  1.0
  Li  Li1  2  0.75000000  0.25000000  0.95787000  1.0
  Li  Li2  1  0.24582000  0.00000000  0.05247000  1.0
  Li  Li3  1  0.24758000  0.50000000  0.04182000  1.0
  Li  Li4  1  0.25000000  0.00000000  0.87361000  1.0
  Li  Li5  1  0.25000000  0.50000000  0.87361000  1.0
  Sc  Sc6  2  0.50000000  0.25000000  0.87361000  1.0
  Sc  Sc7  2  0.51629000  0.25264000  0.04845000  1.0
  Sc  Sc8  1  -0.00000000  0.00000000  0.95787000  1.0
  Sc  Sc9  1  0.00000000  0.50000000  0.95787000  1.0
  Sc  Sc10  1  0.90748000  0.00000000  0.12328000  1.0
  Sc  Sc11  1  0.96414000  0.50000000  0.12303000  1.0
  Al  Al12  2  0.00000000  0.25000000  0.87361000  1.0
  Al  Al13  2  0.99696000  0.25162000  0.04156000  1.0
  Al  Al14  1  0.45810000  0.50000000  0.12510000  1.0
  Al  Al15  1  0.50000000  0.00000000  0.95787000  1.0
  Al  Al16  1  0.50000000  0.50000000  0.95787000  1.0
  Al  Al17  1  0.50504000  0.00000000  0.13786000  1.0
  Pd  Pd18  2  0.23699000  0.24115000  0.12105000  1.0
  Pd  Pd19  2  0.25000000  0.25000000  0.95787000  1.0
  Pd  Pd20  1  0.73911000  0.00000000  0.03393000  1.0
  Pd  Pd21  1  0.75000000  0.00000000  0.87361000  1.0
  Pd  Pd22  1  0.75000000  0.50000000  0.87361000  1.0
  Pd  Pd23  1  0.75018000  0.50000000  0.03873000  1.0
  C  C24  1  0.21297000  0.00000000  0.13906000  1.0
