# generated using pymatgen
data_LiMgInPd
_symmetry_space_group_name_H-M   Pm
_cell_length_a   6.52273000
_cell_length_b   4.61227000
_cell_length_c   26.91840000
_cell_angle_alpha   90.00000000
_cell_angle_beta   90.00000000
_cell_angle_gamma   90.00000000
_symmetry_Int_Tables_number   6
_chemical_formula_structural   LiMgInPd
_chemical_formula_sum   'Li4 Mg4 In4 Pd4'
_cell_volume   809.82907852
_cell_formula_units_Z   4
loop_
 _symmetry_equiv_pos_site_id
 _symmetry_equiv_pos_as_xyz
  1  'x, y, z'
  2  'x, -y, z'
loop_
 _atom_site_type_symbol
 _atom_site_label
 _atom_site_symmetry_multiplicity
 _atom_site_fract_x
 _atom_site_fract_y
 _atom_site_fract_z
 _atom_site_occupancy
  Li  Li0  1  0.25000000  0.50000000  0.12851000  1.0
  Li  Li1  1  0.25732500  0.50000000  0.95557000  1.0
  Li  Li2  1  0.74164000  0.00000000  0.86439000  1.0
  Li  Li3  1  0.75000000  0.00000000  0.04284000  1.0
  Mg  Mg4  1  0.00000000  0.50000000  0.04284000  1.0
  Mg  Mg5  1  0.01708000  0.50000000  0.86876500  1.0
  Mg  Mg6  1  0.50000000  0.00000000  0.12851000  1.0
  Mg  Mg7  1  0.50630500  0.00000000  0.95743000  1.0
  In  In8  1  0.00000000  0.00000000  0.12851000  1.0
  In  In9  1  0.49746000  0.50000000  0.86259000  1.0
  In  In10  1  0.50000000  0.50000000  0.04284000  1.0
  In  In11  1  0.99568000  0.00000000  0.95623000  1.0
  Pd  Pd12  1  0.25000000  0.00000000  0.04284000  1.0
  Pd  Pd13  1  0.26114500  0.00000000  0.87702000  1.0
  Pd  Pd14  1  0.74781000  0.50000000  0.95566000  1.0
  Pd  Pd15  1  0.75000000  0.50000000  0.12851000  1.0
