data_image0
_chemical_formula_structural       Al8Fe8Co16CO
_chemical_formula_sum              "Al8 Fe8 Co16 C1 O1"
_cell_length_a       5.71826
_cell_length_b       8.08683
_cell_length_c       26.0651
_cell_angle_alpha    90
_cell_angle_beta     90
_cell_angle_gamma    90

_space_group_name_H-M_alt    "P 1"
_space_group_IT_number       1

loop_
  _space_group_symop_operation_xyz
  'x, y, z'

loop_
  _atom_site_type_symbol
  _atom_site_label
  _atom_site_symmetry_multiplicity
  _atom_site_fract_x
  _atom_site_fract_y
  _atom_site_fract_z
  _atom_site_occupancy
  Al  Al1       1.0  0.00000  0.00000  0.88365  1.0000
  Al  Al2       1.0  0.50000  0.25000  0.96122  1.0000
  Al  Al3       1.0  0.50000  0.75000  0.96122  1.0000
  Al  Al4       1.0  0.00000  0.50000  0.88365  1.0000
  Al  Al5       1.0  0.99986  0.50001  0.03811  1.0000
  Al  Al6       1.0  0.49685  0.75398  0.11939  1.0000
  Al  Al7       1.0  0.49685  0.24602  0.11939  1.0000
  Al  Al8       1.0  0.00194  0.99999  0.03821  1.0000
  Fe  Fe1       1.0  0.00000  0.75000  0.96122  1.0000
  Fe  Fe2       1.0  0.50000  0.00000  0.88365  1.0000
  Fe  Fe3       1.0  0.00000  0.25000  0.96122  1.0000
  Fe  Fe4       1.0  0.50000  0.50000  0.88365  1.0000
  Fe  Fe5       1.0  0.99794  0.25681  0.11485  1.0000
  Fe  Fe6       1.0  0.50027  0.50000  0.03887  1.0000
  Fe  Fe7       1.0  0.99794  0.74318  0.11485  1.0000
  Fe  Fe8       1.0  0.50129  0.00000  0.03936  1.0000
  Co  Co1       1.0  0.25000  0.00000  0.96122  1.0000
  Co  Co2       1.0  0.75000  0.50000  0.96122  1.0000
  Co  Co3       1.0  0.75000  0.00000  0.96122  1.0000
  Co  Co4       1.0  0.25000  0.50000  0.96122  1.0000
  Co  Co5       1.0  0.75000  0.75000  0.88365  1.0000
  Co  Co6       1.0  0.25000  0.25000  0.88365  1.0000
  Co  Co7       1.0  0.25000  0.75000  0.88365  1.0000
  Co  Co8       1.0  0.75000  0.25000  0.88365  1.0000
  Co  Co9       1.0  0.25481  0.49999  0.11321  1.0000
  Co  Co10      1.0  0.75283  0.00001  0.11392  1.0000
  Co  Co11      1.0  0.74305  0.50000  0.11404  1.0000
  Co  Co12      1.0  0.24369  0.00000  0.11734  1.0000
  Co  Co13      1.0  0.75019  0.24949  0.03930  1.0000
  Co  Co14      1.0  0.25135  0.75112  0.03932  1.0000
  Co  Co15      1.0  0.25134  0.24888  0.03931  1.0000
  Co  Co16      1.0  0.75018  0.75051  0.03930  1.0000
  C   C1        1.0  0.15898  0.00002  0.18175  1.0000
  O   O1        1.0  0.11165  0.00002  0.22525  1.0000
