# generated using pymatgen
data_Al8Fe8Co16CO
_symmetry_space_group_name_H-M   'P 1'
_cell_length_a   8.08683000
_cell_length_b   5.71826000
_cell_length_c   26.06510000
_cell_angle_alpha   90.00000000
_cell_angle_beta   90.00000000
_cell_angle_gamma   90.00000000
_symmetry_Int_Tables_number   1
_chemical_formula_structural   Al8Fe8Co16CO
_chemical_formula_sum   'Al8 Fe8 Co16 C1 O1'
_cell_volume   1205.31790244
_cell_formula_units_Z   1
loop_
 _symmetry_equiv_pos_site_id
 _symmetry_equiv_pos_as_xyz
  1  'x, y, z'
loop_
 _atom_site_type_symbol
 _atom_site_label
 _atom_site_symmetry_multiplicity
 _atom_site_fract_x
 _atom_site_fract_y
 _atom_site_fract_z
 _atom_site_occupancy
  Al  Al0  1  0.00000000  0.00000000  0.11635000  1.0
  Al  Al1  1  0.24998000  0.50000000  0.03878000  1.0
  Al  Al2  1  0.75002000  0.50000000  0.03878000  1.0
  Al  Al3  1  0.50000000  0.00000000  0.11635000  1.0
  Al  Al4  1  0.50000000  0.99986000  0.96189000  1.0
  Al  Al5  1  0.75396000  0.49685000  0.88061000  1.0
  Al  Al6  1  0.24604000  0.49685000  0.88061000  1.0
  Al  Al7  1  0.00000000  0.00194000  0.96179000  1.0
  Fe  Fe8  1  0.74998000  0.00000000  0.03878000  1.0
  Fe  Fe9  1  0.00000000  0.50000000  0.11635000  1.0
  Fe  Fe10  1  0.25002000  0.00000000  0.03878000  1.0
  Fe  Fe11  1  0.50000000  0.50000000  0.11635000  1.0
  Fe  Fe12  1  0.25679000  0.99794000  0.88515000  1.0
  Fe  Fe13  1  0.50000000  0.50027000  0.96113000  1.0
  Fe  Fe14  1  0.74321000  0.99794000  0.88515000  1.0
  Fe  Fe15  1  0.00000000  0.50129000  0.96064000  1.0
  Co  Co16  1  0.00000000  0.25000000  0.03878000  1.0
  Co  Co17  1  0.50000000  0.75000000  0.03878000  1.0
  Co  Co18  1  0.00000000  0.75000000  0.03878000  1.0
  Co  Co19  1  0.50000000  0.25000000  0.03878000  1.0
  Co  Co20  1  0.74998000  0.75000000  0.11635000  1.0
  Co  Co21  1  0.24998000  0.25000000  0.11635000  1.0
  Co  Co22  1  0.75002000  0.25000000  0.11635000  1.0
  Co  Co23  1  0.25002000  0.75000000  0.11635000  1.0
  Co  Co24  1  0.50000000  0.25481000  0.88679000  1.0
  Co  Co25  1  0.00000000  0.75283000  0.88608000  1.0
  Co  Co26  1  0.50000000  0.74305000  0.88596000  1.0
  Co  Co27  1  0.00000000  0.24369000  0.88266000  1.0
  Co  Co28  1  0.24947000  0.75019000  0.96070000  1.0
  Co  Co29  1  0.75110000  0.25135000  0.96068000  1.0
  Co  Co30  1  0.24890000  0.25135000  0.96068000  1.0
  Co  Co31  1  0.75053000  0.75019000  0.96070000  1.0
  C  C32  1  0.00000000  0.15898000  0.81825000  1.0
  O  O33  1  0.00000000  0.11165000  0.77475000  1.0
