# generated using pymatgen
data_Li8Sc8Al8Pd8CO
_symmetry_space_group_name_H-M   P1
_cell_length_a   6.37868000
_cell_length_b   9.02082000
_cell_length_c   26.76560000
_cell_angle_alpha   90.00000000
_cell_angle_beta   90.00000000
_cell_angle_gamma   90.00000000
_symmetry_Int_Tables_number   1
_chemical_formula_structural   Li8Sc8Al8Pd8CO
_chemical_formula_sum   'Li8 Sc8 Al8 Pd8 C1 O1'
_cell_volume   1540.11735856
_cell_formula_units_Z   1
loop_
 _symmetry_equiv_pos_site_id
 _symmetry_equiv_pos_as_xyz
  1  'x, y, z'
loop_
 _atom_site_type_symbol
 _atom_site_label
 _atom_site_symmetry_multiplicity
 _atom_site_fract_x
 _atom_site_fract_y
 _atom_site_fract_z
 _atom_site_occupancy
  Li  Li0  1  0.23714000  0.25032000  0.04215000  1.0
  Li  Li1  1  0.23716000  0.74969000  0.04215000  1.0
  Li  Li2  1  0.25000000  0.25000000  0.87361000  1.0
  Li  Li3  1  0.25000000  0.75000000  0.87361000  1.0
  Li  Li4  1  0.56398000  0.00001000  0.18571000  1.0
  Li  Li5  1  0.58560000  0.50001000  0.17405000  1.0
  Li  Li6  1  0.75000000  0.00000000  0.95787000  1.0
  Li  Li7  1  0.75000000  0.50000000  0.95787000  1.0
  Sc  Sc8  1  -0.00000000  0.25000000  0.95787000  1.0
  Sc  Sc9  1  -0.00000000  0.75000000  0.95787000  1.0
  Sc  Sc10  1  0.50000000  0.00000000  0.87361000  1.0
  Sc  Sc11  1  0.50000000  0.50000000  0.87361000  1.0
  Sc  Sc12  1  0.50848000  0.00001000  0.04639000  1.0
  Sc  Sc13  1  0.51844000  0.50000000  0.04936000  1.0
  Sc  Sc14  1  0.95020000  0.25401000  0.12630000  1.0
  Sc  Sc15  1  0.95023000  0.74595000  0.12630000  1.0
  Al  Al16  1  0.00000000  0.00000000  0.87361000  1.0
  Al  Al17  1  0.00000000  0.50000000  0.87361000  1.0
  Al  Al18  1  0.46365000  0.24685000  0.12236000  1.0
  Al  Al19  1  0.46368000  0.75315000  0.12235000  1.0
  Al  Al20  1  0.50000000  0.25000000  0.95787000  1.0
  Al  Al21  1  0.50000000  0.75000000  0.95787000  1.0
  Al  Al22  1  0.99672000  0.50000000  0.04094000  1.0
  Al  Al23  1  0.99991000  0.00000000  0.04204000  1.0
  Pd  Pd24  1  0.22896000  0.49998000  0.11954000  1.0
  Pd  Pd25  1  0.23644000  0.99999000  0.12596000  1.0
  Pd  Pd26  1  0.25000000  0.00000000  0.95787000  1.0
  Pd  Pd27  1  0.25000000  0.50000000  0.95787000  1.0
  Pd  Pd28  1  0.75000000  0.25000000  0.87361000  1.0
  Pd  Pd29  1  0.75000000  0.75000000  0.87361000  1.0
  Pd  Pd30  1  0.75038000  0.75262000  0.03949000  1.0
  Pd  Pd31  1  0.75040000  0.24738000  0.03950000  1.0
  C  C32  1  0.01692000  0.00000000  0.17608000  1.0
  O  O33  1  0.85238000  0.00007000  0.19918000  1.0
