# generated using pymatgen
data_Ca8Ni8CO
_symmetry_space_group_name_H-M   'P 1'
_cell_length_a   6.93038000
_cell_length_b   6.93038000
_cell_length_c   25.19780000
_cell_angle_alpha   90.00000000
_cell_angle_beta   90.00000000
_cell_angle_gamma   90.00000000
_symmetry_Int_Tables_number   1
_chemical_formula_structural   Ca8Ni8CO
_chemical_formula_sum   'Ca8 Ni8 C1 O1'
_cell_volume   1210.25454063
_cell_formula_units_Z   1
loop_
 _symmetry_equiv_pos_site_id
 _symmetry_equiv_pos_as_xyz
  1  'x, y, z'
loop_
 _atom_site_type_symbol
 _atom_site_label
 _atom_site_symmetry_multiplicity
 _atom_site_fract_x
 _atom_site_fract_y
 _atom_site_fract_z
 _atom_site_occupancy
  Ca  Ca0  1  0.25000000  0.25000000  0.95914000  1.0
  Ca  Ca1  1  0.24986000  0.24996000  0.09013000  1.0
  Ca  Ca2  1  0.25000000  0.75000000  0.95914000  1.0
  Ca  Ca3  1  0.25008000  0.74998000  0.09553000  1.0
  Ca  Ca4  1  0.75000000  0.25000000  0.95914000  1.0
  Ca  Ca5  1  0.75013000  0.24994000  0.09550000  1.0
  Ca  Ca6  1  0.75000000  0.75000000  0.95914000  1.0
  Ca  Ca7  1  0.74997000  0.75005000  0.09901000  1.0
  Ni  Ni8  1  0.00000000  0.00000000  0.89038000  1.0
  Ni  Ni9  1  0.98856000  0.98839000  0.03301000  1.0
  Ni  Ni10  1  0.00000000  0.50000000  0.89038000  1.0
  Ni  Ni11  1  0.98870000  0.51151000  0.03315000  1.0
  Ni  Ni12  1  0.50000000  0.00000000  0.89038000  1.0
  Ni  Ni13  1  0.51131000  0.98852000  0.03330000  1.0
  Ni  Ni14  1  0.50000000  0.50000000  0.89038000  1.0
  Ni  Ni15  1  0.51126000  0.51154000  0.03321000  1.0
  C  C16  1  0.25002000  0.25001000  0.19292000  1.0
  O  O17  1  0.25004000  0.25004000  0.23869000  1.0
