# generated using pymatgen
data_Li4Y4Sn4Ge4CO
_symmetry_space_group_name_H-M   'P 1'
_cell_length_a   6.05842000
_cell_length_b   9.43388000
_cell_length_c   24.54360000
_cell_angle_alpha   90.00000000
_cell_angle_beta   90.00000000
_cell_angle_gamma   90.00000000
_symmetry_Int_Tables_number   1
_chemical_formula_structural   Li4Y4Sn4Ge4CO
_chemical_formula_sum   'Li4 Y4 Sn4 Ge4 C1 O1'
_cell_volume   1402.77491026
_cell_formula_units_Z   1
loop_
 _symmetry_equiv_pos_site_id
 _symmetry_equiv_pos_as_xyz
  1  'x, y, z'
loop_
 _atom_site_type_symbol
 _atom_site_label
 _atom_site_symmetry_multiplicity
 _atom_site_fract_x
 _atom_site_fract_y
 _atom_site_fract_z
 _atom_site_occupancy
  Li  Li0  1  0.70981000  0.25081000  0.02570000  1.0
  Li  Li1  1  0.25707000  0.25000000  0.90744000  1.0
  Li  Li2  1  0.70371000  0.74924000  0.02486000  1.0
  Li  Li3  1  0.25707000  0.75000000  0.90744000  1.0
  Y  Y4  1  0.47454000  0.99945000  0.09554000  1.0
  Y  Y5  1  0.00471000  0.00000000  0.96915000  1.0
  Y  Y6  1  0.47966000  0.50027000  0.09313000  1.0
  Y  Y7  1  0.00471000  0.50000000  0.96915000  1.0
  Sn  Sn8  1  0.20496000  0.25035000  0.04513000  1.0
  Sn  Sn9  1  0.75707000  0.25000000  0.90744000  1.0
  Sn  Sn10  1  0.19910000  0.74905000  0.04630000  1.0
  Sn  Sn11  1  0.75707000  0.75000000  0.90744000  1.0
  Ge  Ge12  1  0.97688000  0.99982000  0.09532000  1.0
  Ge  Ge13  1  0.50471000  0.00000000  0.96915000  1.0
  Ge  Ge14  1  0.98335000  0.49743000  0.09673000  1.0
  Ge  Ge15  1  0.50471000  0.50000000  0.96915000  1.0
  C  C16  1  0.30234000  0.00105000  0.18673000  1.0
  O  O17  1  0.22641000  0.00214000  0.22979000  1.0
