# generated using pymatgen
data_Li8Ni16Sn8CO
_symmetry_space_group_name_H-M   'P 1'
_cell_length_a   6.05884000
_cell_length_b   8.56849000
_cell_length_c   26.42640000
_cell_angle_alpha   90.00000000
_cell_angle_beta   90.00000000
_cell_angle_gamma   90.00000000
_symmetry_Int_Tables_number   1
_chemical_formula_structural   Li8Ni16Sn8CO
_chemical_formula_sum   'Li8 Ni16 Sn8 C1 O1'
_cell_volume   1371.92946162
_cell_formula_units_Z   1
loop_
 _symmetry_equiv_pos_site_id
 _symmetry_equiv_pos_as_xyz
  1  'x, y, z'
loop_
 _atom_site_type_symbol
 _atom_site_label
 _atom_site_symmetry_multiplicity
 _atom_site_fract_x
 _atom_site_fract_y
 _atom_site_fract_z
 _atom_site_occupancy
  Li  Li0  1  0.00000000  0.00000000  0.87841000  1.0
  Li  Li1  1  0.50000000  0.25000000  0.95947000  1.0
  Li  Li2  1  0.50000000  0.75000000  0.95947000  1.0
  Li  Li3  1  1.00000000  0.50000000  0.87841000  1.0
  Li  Li4  1  0.99940000  0.49999000  0.03335000  1.0
  Li  Li5  1  0.49956000  0.72963000  0.13132000  1.0
  Li  Li6  1  0.49960000  0.27031000  0.13131000  1.0
  Li  Li7  1  0.99950000  0.99999000  0.04222000  1.0
  Ni  Ni8  1  0.25000000  0.00000000  0.95947000  1.0
  Ni  Ni9  1  0.75000000  0.50000000  0.95947000  1.0
  Ni  Ni10  1  0.75000000  0.00000000  0.95947000  1.0
  Ni  Ni11  1  0.25000000  0.50000000  0.95947000  1.0
  Ni  Ni12  1  0.75000000  0.75000000  0.87841000  1.0
  Ni  Ni13  1  0.25000000  0.25000000  0.87841000  1.0
  Ni  Ni14  1  0.25000000  0.75000000  0.87841000  1.0
  Ni  Ni15  1  0.75000000  0.25000000  0.87841000  1.0
  Ni  Ni16  1  0.20558000  0.49997000  0.11038000  1.0
  Ni  Ni17  1  0.71755000  0.99996000  0.12169000  1.0
  Ni  Ni18  1  0.79058000  0.49997000  0.11038000  1.0
  Ni  Ni19  1  0.28128000  0.99990000  0.12165000  1.0
  Ni  Ni20  1  0.75336000  0.24963000  0.04262000  1.0
  Ni  Ni21  1  0.24464000  0.75053000  0.04276000  1.0
  Ni  Ni22  1  0.24462000  0.24948000  0.04278000  1.0
  Ni  Ni23  1  0.75347000  0.75038000  0.04262000  1.0
  Sn  Sn24  1  1.00000000  0.75000000  0.95947000  1.0
  Sn  Sn25  1  0.50000000  0.00000000  0.87841000  1.0
  Sn  Sn26  1  1.00000000  0.25000000  0.95947000  1.0
  Sn  Sn27  1  0.50000000  0.50000000  0.87841000  1.0
  Sn  Sn28  1  0.99887000  0.23841000  0.12696000  1.0
  Sn  Sn29  1  0.49886000  0.49993000  0.04072000  1.0
  Sn  Sn30  1  0.99892000  0.76154000  0.12694000  1.0
  Sn  Sn31  1  0.49961000  0.00005000  0.03759000  1.0
  C  C32  1  0.49935000  0.00001000  0.17324000  1.0
  O  O33  1  0.49901000  0.00006000  0.21812000  1.0
