data_image0
_chemical_formula_structural       Li8Mg8In8Ge8CO
_chemical_formula_sum              "Li8 Mg8 In8 Ge8 C1 O1"
_cell_length_a       8.4185
_cell_length_b       8.40992
_cell_length_c       26.563
_cell_angle_alpha    90
_cell_angle_beta     90
_cell_angle_gamma    90

_space_group_name_H-M_alt    "P 1"
_space_group_IT_number       1

loop_
  _space_group_symop_operation_xyz
  'x, y, z'

loop_
  _atom_site_type_symbol
  _atom_site_label
  _atom_site_symmetry_multiplicity
  _atom_site_fract_x
  _atom_site_fract_y
  _atom_site_fract_z
  _atom_site_occupancy
  Li  Li1       1.0  0.00000  0.25000  0.95882  1.0000
  Li  Li2       1.0  0.99999  0.25000  0.13069  1.0000
  Li  Li3       1.0  0.00000  0.75000  0.95882  1.0000
  Li  Li4       1.0  0.00000  0.75000  0.12659  1.0000
  Li  Li5       1.0  0.50000  0.25000  0.95882  1.0000
  Li  Li6       1.0  0.50000  0.25000  0.12409  1.0000
  Li  Li7       1.0  0.50000  0.75000  0.95882  1.0000
  Li  Li8       1.0  0.49999  0.75000  0.12323  1.0000
  Mg  Mg1       1.0  0.25000  0.25000  0.87646  1.0000
  Mg  Mg2       1.0  0.24627  0.25000  0.04542  1.0000
  Mg  Mg3       1.0  0.25000  0.75000  0.87646  1.0000
  Mg  Mg4       1.0  0.24817  0.75000  0.04465  1.0000
  Mg  Mg5       1.0  0.75000  0.25000  0.87646  1.0000
  Mg  Mg6       1.0  0.75372  0.25000  0.04542  1.0000
  Mg  Mg7       1.0  0.75000  0.75000  0.87646  1.0000
  Mg  Mg8       1.0  0.75185  0.75000  0.04466  1.0000
  In  In1       1.0  0.25000  0.00000  0.95882  1.0000
  In  In2       1.0  0.25466  0.99726  0.13617  1.0000
  In  In3       1.0  0.25000  0.50000  0.95882  1.0000
  In  In4       1.0  0.25466  0.50274  0.13617  1.0000
  In  In5       1.0  0.75000  0.00000  0.95882  1.0000
  In  In6       1.0  0.74533  0.99728  0.13617  1.0000
  In  In7       1.0  0.75000  0.50000  0.95882  1.0000
  In  In8       1.0  0.74533  0.50272  0.13617  1.0000
  Ge  Ge1       1.0  0.00000  0.00000  0.87646  1.0000
  Ge  Ge2       1.0  1.00000  0.00066  0.05175  1.0000
  Ge  Ge3       1.0  0.00000  0.50000  0.87646  1.0000
  Ge  Ge4       1.0  1.00000  0.49934  0.05175  1.0000
  Ge  Ge5       1.0  0.50000  0.00000  0.87646  1.0000
  Ge  Ge6       1.0  0.50000  0.00029  0.04895  1.0000
  Ge  Ge7       1.0  0.50000  0.50000  0.87646  1.0000
  Ge  Ge8       1.0  0.50000  0.49971  0.04895  1.0000
  C   C1        1.0  0.00001  0.25000  0.20964  1.0000
  O   O1        1.0  0.00001  0.25000  0.25267  1.0000
