# generated using pymatgen
data_Li8Mg8In8Ge8CO
_symmetry_space_group_name_H-M   Pmm2
_cell_length_a   8.40992000
_cell_length_b   8.41850000
_cell_length_c   26.56300000
_cell_angle_alpha   90.00000000
_cell_angle_beta   90.00000000
_cell_angle_gamma   90.00000000
_symmetry_Int_Tables_number   25
_chemical_formula_structural   Li8Mg8In8Ge8CO
_chemical_formula_sum   'Li8 Mg8 In8 Ge8 C1 O1'
_cell_volume   1880.63148671
_cell_formula_units_Z   1
loop_
 _symmetry_equiv_pos_site_id
 _symmetry_equiv_pos_as_xyz
  1  'x, y, z'
  2  '-x, -y, z'
  3  '-x, y, z'
  4  'x, -y, z'
loop_
 _atom_site_type_symbol
 _atom_site_label
 _atom_site_symmetry_multiplicity
 _atom_site_fract_x
 _atom_site_fract_y
 _atom_site_fract_z
 _atom_site_occupancy
  Li  Li0  1  0.00000000  0.00000000  0.04118000  1.0
  Li  Li1  1  0.00000000  0.00000000  0.86931000  1.0
  Li  Li2  1  0.00000000  0.50000000  0.04118000  1.0
  Li  Li3  1  0.00000000  0.50000000  0.87591000  1.0
  Li  Li4  1  0.50000000  0.00000000  0.04118000  1.0
  Li  Li5  1  0.50000000  0.00000000  0.87341000  1.0
  Li  Li6  1  0.50000000  0.50000000  0.04118000  1.0
  Li  Li7  1  0.50000000  0.50000000  0.87677000  1.0
  Mg  Mg8  2  0.00000000  0.24626000  0.95458000  1.0
  Mg  Mg9  2  0.00000000  0.24999000  0.12354000  1.0
  Mg  Mg10  2  0.50000000  0.24816000  0.95535000  1.0
  Mg  Mg11  2  0.50000000  0.24999000  0.12354000  1.0
  In  In12  4  0.25000000  0.24999000  0.04118000  1.0
  In  In13  4  0.25274000  0.25465000  0.86383000  1.0
  Ge  Ge14  2  0.24934000  0.00000000  0.94825000  1.0
  Ge  Ge15  2  0.24971000  0.50000000  0.95105000  1.0
  Ge  Ge16  2  0.25000000  0.00000000  0.12354000  1.0
  Ge  Ge17  2  0.25000000  0.50000000  0.12354000  1.0
  C  C18  1  0.00000000  0.00000000  0.79036000  1.0
  O  O19  1  0.00000000  0.00000000  0.74733000  1.0
