# generated using pymatgen
data_Li8Y8Ge8Pd8CO
_symmetry_space_group_name_H-M   'P 1'
_cell_length_a   6.55453000
_cell_length_b   9.26950000
_cell_length_c   26.95210000
_cell_angle_alpha   90.00000000
_cell_angle_beta   90.00000000
_cell_angle_gamma   90.00000000
_symmetry_Int_Tables_number   1
_chemical_formula_structural   Li8Y8Ge8Pd8CO
_chemical_formula_sum   'Li8 Y8 Ge8 Pd8 C1 O1'
_cell_volume   1637.53455691
_cell_formula_units_Z   1
loop_
 _symmetry_equiv_pos_site_id
 _symmetry_equiv_pos_as_xyz
  1  'x, y, z'
loop_
 _atom_site_type_symbol
 _atom_site_label
 _atom_site_symmetry_multiplicity
 _atom_site_fract_x
 _atom_site_fract_y
 _atom_site_fract_z
 _atom_site_occupancy
  Li  Li0  1  0.75000000  0.00000000  0.95701000  1.0
  Li  Li1  1  0.75000000  0.50000000  0.95701000  1.0
  Li  Li2  1  0.25000000  0.25000000  0.87103000  1.0
  Li  Li3  1  0.25000000  0.75000000  0.87103000  1.0
  Li  Li4  1  0.54160000  0.49819000  0.17665000  1.0
  Li  Li5  1  0.54120000  0.00264000  0.17666000  1.0
  Li  Li6  1  0.22375000  0.74975000  0.04872000  1.0
  Li  Li7  1  0.22209000  0.24999000  0.04796000  1.0
  Y  Y8  1  1.00000000  0.25000000  0.95701000  1.0
  Y  Y9  1  1.00000000  0.75000000  0.95701000  1.0
  Y  Y10  1  0.50000000  0.50000000  0.87103000  1.0
  Y  Y11  1  0.50000000  0.00000000  0.87103000  1.0
  Y  Y12  1  0.94117000  0.74999000  0.13224000  1.0
  Y  Y13  1  0.94244000  0.24999000  0.13311000  1.0
  Y  Y14  1  0.50247000  0.99795000  0.04876000  1.0
  Y  Y15  1  0.50318000  0.50202000  0.04872000  1.0
  Ge  Ge16  1  0.00000000  0.00000000  0.87103000  1.0
  Ge  Ge17  1  1.00000000  0.50000000  0.87103000  1.0
  Ge  Ge18  1  0.50000000  0.75000000  0.95701000  1.0
  Ge  Ge19  1  0.50000000  0.25000000  0.95701000  1.0
  Ge  Ge20  1  0.98532000  0.49963000  0.04183000  1.0
  Ge  Ge21  1  0.98474000  0.00049000  0.04169000  1.0
  Ge  Ge22  1  0.46333000  0.24995000  0.12739000  1.0
  Ge  Ge23  1  0.47176000  0.75031000  0.12886000  1.0
  Pd  Pd24  1  0.25000000  0.00000000  0.95701000  1.0
  Pd  Pd25  1  0.25000000  0.50000000  0.95701000  1.0
  Pd  Pd26  1  0.75000000  0.25000000  0.87103000  1.0
  Pd  Pd27  1  0.75000000  0.75000000  0.87103000  1.0
  Pd  Pd28  1  0.20756000  0.50287000  0.12234000  1.0
  Pd  Pd29  1  0.20767000  0.99722000  0.12240000  1.0
  Pd  Pd30  1  0.75245000  0.75007000  0.04114000  1.0
  Pd  Pd31  1  0.74525000  0.24977000  0.03935000  1.0
  C  C32  1  0.82845000  0.24991000  0.22069000  1.0
  O  O33  1  0.78425000  0.24980000  0.26238000  1.0
