data_image0
_chemical_formula_structural       Zr16Ir16CO
_chemical_formula_sum              "Zr16 Ir16 C1 O1"
_cell_length_a       6.65024
_cell_length_b       9.40485
_cell_length_c       27.0536
_cell_angle_alpha    90
_cell_angle_beta     90
_cell_angle_gamma    90

_space_group_name_H-M_alt    "P 1"
_space_group_IT_number       1

loop_
  _space_group_symop_operation_xyz
  'x, y, z'

loop_
  _atom_site_type_symbol
  _atom_site_label
  _atom_site_symmetry_multiplicity
  _atom_site_fract_x
  _atom_site_fract_y
  _atom_site_fract_z
  _atom_site_occupancy
  Zr  Zr1       1.0  0.25000  0.25000  0.86964  1.0000
  Zr  Zr2       1.0  0.25000  0.00000  0.95655  1.0000
  Zr  Zr3       1.0  0.25505  0.25000  0.04268  1.0000
  Zr  Zr4       1.0  0.25552  0.99550  0.13063  1.0000
  Zr  Zr5       1.0  0.25000  0.75000  0.86964  1.0000
  Zr  Zr6       1.0  0.25000  0.50000  0.95655  1.0000
  Zr  Zr7       1.0  0.24600  0.75000  0.04235  1.0000
  Zr  Zr8       1.0  0.25552  0.50450  0.13063  1.0000
  Zr  Zr9       1.0  0.75000  0.25000  0.86964  1.0000
  Zr  Zr10      1.0  0.75000  0.00000  0.95655  1.0000
  Zr  Zr11      1.0  0.74495  0.25000  0.04268  1.0000
  Zr  Zr12      1.0  0.74448  0.99550  0.13063  1.0000
  Zr  Zr13      1.0  0.75000  0.75000  0.86964  1.0000
  Zr  Zr14      1.0  0.75000  0.50000  0.95655  1.0000
  Zr  Zr15      1.0  0.75400  0.75000  0.04235  1.0000
  Zr  Zr16      1.0  0.74448  0.50450  0.13063  1.0000
  Ir  Ir1       1.0  0.00000  0.00000  0.86964  1.0000
  Ir  Ir2       1.0  0.00000  0.25000  0.95655  1.0000
  Ir  Ir3       1.0  1.00000  0.01438  0.04958  1.0000
  Ir  Ir4       1.0  1.00000  0.24999  0.13077  1.0000
  Ir  Ir5       1.0  0.00000  0.50000  0.86964  1.0000
  Ir  Ir6       1.0  0.00000  0.75000  0.95655  1.0000
  Ir  Ir7       1.0  1.00000  0.48562  0.04958  1.0000
  Ir  Ir8       1.0  0.00000  0.75000  0.12223  1.0000
  Ir  Ir9       1.0  0.50000  0.00000  0.86964  1.0000
  Ir  Ir10      1.0  0.50000  0.25000  0.95655  1.0000
  Ir  Ir11      1.0  0.50000  0.99328  0.04209  1.0000
  Ir  Ir12      1.0  0.50000  0.25000  0.12076  1.0000
  Ir  Ir13      1.0  0.50000  0.50000  0.86964  1.0000
  Ir  Ir14      1.0  0.50000  0.75000  0.95655  1.0000
  Ir  Ir15      1.0  0.50000  0.50672  0.04209  1.0000
  Ir  Ir16      1.0  0.50000  0.75000  0.12027  1.0000
  C   C1        1.0  1.00000  0.25000  0.19983  1.0000
  O   O1        1.0  1.00000  0.25000  0.24310  1.0000
