# generated using pymatgen
data_Zr16Ir16CO
_symmetry_space_group_name_H-M   'P 1'
_cell_length_a   6.65024000
_cell_length_b   9.40485000
_cell_length_c   27.05360000
_cell_angle_alpha   90.00000000
_cell_angle_beta   90.00000000
_cell_angle_gamma   90.00000000
_symmetry_Int_Tables_number   1
_chemical_formula_structural   Zr16Ir16CO
_chemical_formula_sum   'Zr16 Ir16 C1 O1'
_cell_volume   1692.05414665
_cell_formula_units_Z   1
loop_
 _symmetry_equiv_pos_site_id
 _symmetry_equiv_pos_as_xyz
  1  'x, y, z'
loop_
 _atom_site_type_symbol
 _atom_site_label
 _atom_site_symmetry_multiplicity
 _atom_site_fract_x
 _atom_site_fract_y
 _atom_site_fract_z
 _atom_site_occupancy
  Zr  Zr0  1  0.25000000  0.00000000  0.86964000  1.0
  Zr  Zr1  1  0.25000000  0.75000000  0.95655000  1.0
  Zr  Zr2  1  0.25505000  0.00000000  0.04268000  1.0
  Zr  Zr3  1  0.25552000  0.74550000  0.13063000  1.0
  Zr  Zr4  1  0.25000000  0.50000000  0.86964000  1.0
  Zr  Zr5  1  0.25000000  0.25000000  0.95655000  1.0
  Zr  Zr6  1  0.24600000  0.50000000  0.04235000  1.0
  Zr  Zr7  1  0.25552000  0.25450000  0.13063000  1.0
  Zr  Zr8  1  0.75000000  0.00000000  0.86964000  1.0
  Zr  Zr9  1  0.75000000  0.75000000  0.95655000  1.0
  Zr  Zr10  1  0.74495000  0.00000000  0.04268000  1.0
  Zr  Zr11  1  0.74448000  0.74550000  0.13063000  1.0
  Zr  Zr12  1  0.75000000  0.50000000  0.86964000  1.0
  Zr  Zr13  1  0.75000000  0.25000000  0.95655000  1.0
  Zr  Zr14  1  0.75400000  0.50000000  0.04235000  1.0
  Zr  Zr15  1  0.74448000  0.25450000  0.13063000  1.0
  Ir  Ir16  1  0.00000000  0.75000000  0.86964000  1.0
  Ir  Ir17  1  0.00000000  0.00000000  0.95655000  1.0
  Ir  Ir18  1  0.00000000  0.76438000  0.04958000  1.0
  Ir  Ir19  1  0.00000000  0.00000000  0.13077000  1.0
  Ir  Ir20  1  0.00000000  0.25000000  0.86964000  1.0
  Ir  Ir21  1  0.00000000  0.50000000  0.95655000  1.0
  Ir  Ir22  1  0.00000000  0.23562000  0.04958000  1.0
  Ir  Ir23  1  0.00000000  0.50000000  0.12223000  1.0
  Ir  Ir24  1  0.50000000  0.75000000  0.86964000  1.0
  Ir  Ir25  1  0.50000000  0.00000000  0.95655000  1.0
  Ir  Ir26  1  0.50000000  0.74328000  0.04209000  1.0
  Ir  Ir27  1  0.50000000  0.00000000  0.12076000  1.0
  Ir  Ir28  1  0.50000000  0.25000000  0.86964000  1.0
  Ir  Ir29  1  0.50000000  0.50000000  0.95655000  1.0
  Ir  Ir30  1  0.50000000  0.25672000  0.04209000  1.0
  Ir  Ir31  1  0.50000000  0.50000000  0.12027000  1.0
  C  C32  1  0.00000000  0.00000000  0.19983000  1.0
  O  O33  1  0.00000000  0.00000000  0.24310000  1.0
