# generated using pymatgen
data_Zr16Ir16CO
_symmetry_space_group_name_H-M   Pmm2
_cell_length_a   6.65024000
_cell_length_b   9.40485000
_cell_length_c   27.05360000
_cell_angle_alpha   90.00000000
_cell_angle_beta   90.00000000
_cell_angle_gamma   90.00000000
_symmetry_Int_Tables_number   25
_chemical_formula_structural   Zr16Ir16CO
_chemical_formula_sum   'Zr16 Ir16 C1 O1'
_cell_volume   1692.05414665
_cell_formula_units_Z   1
loop_
 _symmetry_equiv_pos_site_id
 _symmetry_equiv_pos_as_xyz
  1  'x, y, z'
  2  '-x, -y, z'
  3  '-x, y, z'
  4  'x, -y, z'
loop_
 _atom_site_type_symbol
 _atom_site_label
 _atom_site_symmetry_multiplicity
 _atom_site_fract_x
 _atom_site_fract_y
 _atom_site_fract_z
 _atom_site_occupancy
  Zr  Zr0  4  0.25000000  0.25000000  0.95655000  1.0
  Zr  Zr1  4  0.25552000  0.25450000  0.13063000  1.0
  Zr  Zr2  2  0.24600000  0.50000000  0.04235000  1.0
  Zr  Zr3  2  0.25000000  0.00000000  0.86964000  1.0
  Zr  Zr4  2  0.25000000  0.50000000  0.86964000  1.0
  Zr  Zr5  2  0.25505000  0.00000000  0.04268000  1.0
  Ir  Ir6  2  0.00000000  0.23562000  0.04958000  1.0
  Ir  Ir7  2  0.00000000  0.25000000  0.86964000  1.0
  Ir  Ir8  2  0.50000000  0.25000000  0.86964000  1.0
  Ir  Ir9  2  0.50000000  0.25672000  0.04209000  1.0
  Ir  Ir10  1  0.00000000  0.00000000  0.13077000  1.0
  Ir  Ir11  1  0.00000000  0.00000000  0.95655000  1.0
  Ir  Ir12  1  0.00000000  0.50000000  0.12223000  1.0
  Ir  Ir13  1  0.00000000  0.50000000  0.95655000  1.0
  Ir  Ir14  1  0.50000000  0.00000000  0.12076000  1.0
  Ir  Ir15  1  0.50000000  0.00000000  0.95655000  1.0
  Ir  Ir16  1  0.50000000  0.50000000  0.12027000  1.0
  Ir  Ir17  1  0.50000000  0.50000000  0.95655000  1.0
  C  C18  1  0.00000000  0.00000000  0.19983000  1.0
  O  O19  1  0.00000000  0.00000000  0.24310000  1.0
