# generated using pymatgen
data_Hf8Al8Au16CO
_symmetry_space_group_name_H-M   'P 1'
_cell_length_a   6.63475000
_cell_length_b   9.38295000
_cell_length_c   27.03720000
_cell_angle_alpha   90.00000000
_cell_angle_beta   90.00000000
_cell_angle_gamma   90.00000000
_symmetry_Int_Tables_number   1
_chemical_formula_structural   Hf8Al8Au16CO
_chemical_formula_sum   'Hf8 Al8 Au16 C1 O1'
_cell_volume   1683.16107406
_cell_formula_units_Z   1
loop_
 _symmetry_equiv_pos_site_id
 _symmetry_equiv_pos_as_xyz
  1  'x, y, z'
loop_
 _atom_site_type_symbol
 _atom_site_label
 _atom_site_symmetry_multiplicity
 _atom_site_fract_x
 _atom_site_fract_y
 _atom_site_fract_z
 _atom_site_occupancy
  Hf  Hf0  1  0.00000000  0.75000000  0.86986000  1.0
  Hf  Hf1  1  0.50000000  0.00000000  0.95662000  1.0
  Hf  Hf2  1  0.50000000  0.50000000  0.95662000  1.0
  Hf  Hf3  1  0.00000000  0.25000000  0.86986000  1.0
  Hf  Hf4  1  0.00000000  0.25143000  0.04742000  1.0
  Hf  Hf5  1  0.50000000  0.50000000  0.12637000  1.0
  Hf  Hf6  1  0.50000000  0.00000000  0.12820000  1.0
  Hf  Hf7  1  0.00000000  0.74857000  0.04742000  1.0
  Al  Al8  1  0.00000000  0.50000000  0.95662000  1.0
  Al  Al9  1  0.50000000  0.75000000  0.86986000  1.0
  Al  Al10  1  0.00000000  0.00000000  0.95662000  1.0
  Al  Al11  1  0.50000000  0.25000000  0.86986000  1.0
  Al  Al12  1  0.00000000  0.00000000  0.13019000  1.0
  Al  Al13  1  0.50000000  0.24786000  0.04357000  1.0
  Al  Al14  1  0.00000000  0.50000000  0.12967000  1.0
  Al  Al15  1  0.50000000  0.75214000  0.04357000  1.0
  Au  Au16  1  0.25000000  0.75000000  0.95662000  1.0
  Au  Au17  1  0.75000000  0.25000000  0.95662000  1.0
  Au  Au18  1  0.75000000  0.75000000  0.95662000  1.0
  Au  Au19  1  0.25000000  0.25000000  0.95662000  1.0
  Au  Au20  1  0.75000000  0.50000000  0.86986000  1.0
  Au  Au21  1  0.25000000  0.00000000  0.86986000  1.0
  Au  Au22  1  0.25000000  0.50000000  0.86986000  1.0
  Au  Au23  1  0.75000000  0.00000000  0.86986000  1.0
  Au  Au24  1  0.25121000  0.25108000  0.13386000  1.0
  Au  Au25  1  0.74879000  0.74892000  0.13386000  1.0
  Au  Au26  1  0.74879000  0.25108000  0.13386000  1.0
  Au  Au27  1  0.25121000  0.74892000  0.13386000  1.0
  Au  Au28  1  0.75455000  0.00000000  0.04145000  1.0
  Au  Au29  1  0.25286000  0.50000000  0.04179000  1.0
  Au  Au30  1  0.24545000  0.00000000  0.04145000  1.0
  Au  Au31  1  0.74714000  0.50000000  0.04179000  1.0
  C  C32  1  0.50000000  0.00000000  0.21000000  1.0
  O  O33  1  0.50000000  0.00000000  0.25264000  1.0
