data_image0
_chemical_formula_structural       Sc8Ga8Cu16CO
_chemical_formula_sum              "Sc8 Ga8 Cu16 C1 O1"
_cell_length_a       6.23499
_cell_length_b       8.81761
_cell_length_c       26.6132
_cell_angle_alpha    90
_cell_angle_beta     90
_cell_angle_gamma    90

_space_group_name_H-M_alt    "P 1"
_space_group_IT_number       1

loop_
  _space_group_symop_operation_xyz
  'x, y, z'

loop_
  _atom_site_type_symbol
  _atom_site_label
  _atom_site_symmetry_multiplicity
  _atom_site_fract_x
  _atom_site_fract_y
  _atom_site_fract_z
  _atom_site_occupancy
  Sc  Sc1       1.0  0.00000  0.00000  0.87575  1.0000
  Sc  Sc2       1.0  0.50000  0.25000  0.95858  1.0000
  Sc  Sc3       1.0  0.50000  0.75000  0.95858  1.0000
  Sc  Sc4       1.0  0.00000  0.50000  0.87575  1.0000
  Sc  Sc5       1.0  0.99304  0.49999  0.04222  1.0000
  Sc  Sc6       1.0  0.46087  0.77840  0.13001  1.0000
  Sc  Sc7       1.0  0.46085  0.22161  0.13002  1.0000
  Sc  Sc8       1.0  0.01395  0.99999  0.04266  1.0000
  Ga  Ga1       1.0  0.00000  0.75000  0.95858  1.0000
  Ga  Ga2       1.0  0.50000  0.00000  0.87575  1.0000
  Ga  Ga3       1.0  0.00000  0.25000  0.95858  1.0000
  Ga  Ga4       1.0  0.50000  0.50000  0.87575  1.0000
  Ga  Ga5       1.0  0.98810  0.26190  0.12047  1.0000
  Ga  Ga6       1.0  0.49765  0.50001  0.03805  1.0000
  Ga  Ga7       1.0  0.98808  0.73810  0.12047  1.0000
  Ga  Ga8       1.0  0.50332  0.00000  0.03917  1.0000
  Cu  Cu1       1.0  0.25000  0.00000  0.95858  1.0000
  Cu  Cu2       1.0  0.75000  0.50000  0.95858  1.0000
  Cu  Cu3       1.0  0.75000  0.00000  0.95858  1.0000
  Cu  Cu4       1.0  0.25000  0.50000  0.95858  1.0000
  Cu  Cu5       1.0  0.75000  0.75000  0.87575  1.0000
  Cu  Cu6       1.0  0.25000  0.25000  0.87575  1.0000
  Cu  Cu7       1.0  0.25000  0.75000  0.87575  1.0000
  Cu  Cu8       1.0  0.75000  0.25000  0.87575  1.0000
  Cu  Cu9       1.0  0.25988  0.50000  0.12273  1.0000
  Cu  Cu10      1.0  0.75412  0.00001  0.11990  1.0000
  Cu  Cu11      1.0  0.70190  0.50001  0.12139  1.0000
  Cu  Cu12      1.0  0.11944  1.00000  0.15310  1.0000
  Cu  Cu13      1.0  0.73009  0.24994  0.04666  1.0000
  Cu  Cu14      1.0  0.25803  0.74336  0.04188  1.0000
  Cu  Cu15      1.0  0.25800  0.25663  0.04188  1.0000
  Cu  Cu16      1.0  0.73006  0.75006  0.04666  1.0000
  C   C1        1.0  0.37545  0.99999  0.19391  1.0000
  O   O1        1.0  0.42063  1.00000  0.23730  1.0000
