# generated using pymatgen
data_Sc8Ga8Cu16CO
_symmetry_space_group_name_H-M   'P 1'
_cell_length_a   8.81761000
_cell_length_b   6.23499000
_cell_length_c   26.61320000
_cell_angle_alpha   90.00000000
_cell_angle_beta   90.00000000
_cell_angle_gamma   90.00000000
_symmetry_Int_Tables_number   1
_chemical_formula_structural   Sc8Ga8Cu16CO
_chemical_formula_sum   'Sc8 Ga8 Cu16 C1 O1'
_cell_volume   1463.13279640
_cell_formula_units_Z   1
loop_
 _symmetry_equiv_pos_site_id
 _symmetry_equiv_pos_as_xyz
  1  'x, y, z'
loop_
 _atom_site_type_symbol
 _atom_site_label
 _atom_site_symmetry_multiplicity
 _atom_site_fract_x
 _atom_site_fract_y
 _atom_site_fract_z
 _atom_site_occupancy
  Sc  Sc0  1  0.50000000  0.00000000  0.12425000  1.0
  Sc  Sc1  1  0.75001000  0.50000000  0.04142000  1.0
  Sc  Sc2  1  0.24999000  0.50000000  0.04142000  1.0
  Sc  Sc3  1  0.00000000  0.00000000  0.12425000  1.0
  Sc  Sc4  1  0.00000000  0.99304000  0.95778000  1.0
  Sc  Sc5  1  0.27841000  0.46087000  0.86999000  1.0
  Sc  Sc6  1  0.72159000  0.46087000  0.86999000  1.0
  Sc  Sc7  1  0.50000000  0.01395000  0.95734000  1.0
  Ga  Ga8  1  0.25001000  0.00000000  0.04142000  1.0
  Ga  Ga9  1  0.50000000  0.50000000  0.12425000  1.0
  Ga  Ga10  1  0.74999000  0.00000000  0.04142000  1.0
  Ga  Ga11  1  0.00000000  0.50000000  0.12425000  1.0
  Ga  Ga12  1  0.76191000  0.98810000  0.87953000  1.0
  Ga  Ga13  1  0.00000000  0.49765000  0.96195000  1.0
  Ga  Ga14  1  0.23809000  0.98810000  0.87953000  1.0
  Ga  Ga15  1  0.50000000  0.50332000  0.96083000  1.0
  Cu  Cu16  1  0.50000000  0.25000000  0.04142000  1.0
  Cu  Cu17  1  0.00000000  0.75000000  0.04142000  1.0
  Cu  Cu18  1  0.50000000  0.75000000  0.04142000  1.0
  Cu  Cu19  1  0.00000000  0.25000000  0.04142000  1.0
  Cu  Cu20  1  0.25001000  0.75000000  0.12425000  1.0
  Cu  Cu21  1  0.75001000  0.25000000  0.12425000  1.0
  Cu  Cu22  1  0.24999000  0.25000000  0.12425000  1.0
  Cu  Cu23  1  0.74999000  0.75000000  0.12425000  1.0
  Cu  Cu24  1  0.00000000  0.25988000  0.87727000  1.0
  Cu  Cu25  1  0.50000000  0.75412000  0.88010000  1.0
  Cu  Cu26  1  0.00000000  0.70190000  0.87861000  1.0
  Cu  Cu27  1  0.50000000  0.11944000  0.84690000  1.0
  Cu  Cu28  1  0.74995000  0.73009000  0.95334000  1.0
  Cu  Cu29  1  0.24337000  0.25803000  0.95812000  1.0
  Cu  Cu30  1  0.75663000  0.25803000  0.95812000  1.0
  Cu  Cu31  1  0.25005000  0.73009000  0.95334000  1.0
  C  C32  1  0.50000000  0.37545000  0.80609000  1.0
  O  O33  1  0.50000000  0.42063000  0.76270000  1.0
