# generated using pymatgen
data_Sc8Ga8Cu16CO
_symmetry_space_group_name_H-M   Pm
_cell_length_a   6.23499000
_cell_length_b   8.81761000
_cell_length_c   26.61320000
_cell_angle_alpha   90.00000000
_cell_angle_beta   90.00000000
_cell_angle_gamma   90.00000000
_symmetry_Int_Tables_number   6
_chemical_formula_structural   Sc8Ga8Cu16CO
_chemical_formula_sum   'Sc8 Ga8 Cu16 C1 O1'
_cell_volume   1463.13279640
_cell_formula_units_Z   1
loop_
 _symmetry_equiv_pos_site_id
 _symmetry_equiv_pos_as_xyz
  1  'x, y, z'
  2  'x, -y, z'
loop_
 _atom_site_type_symbol
 _atom_site_label
 _atom_site_symmetry_multiplicity
 _atom_site_fract_x
 _atom_site_fract_y
 _atom_site_fract_z
 _atom_site_occupancy
  Sc  Sc0  2  0.46087000  0.27841000  0.13001000  1.0
  Sc  Sc1  2  0.50000000  0.24999000  0.95858000  1.0
  Sc  Sc2  1  0.00000000  0.00000000  0.87575000  1.0
  Sc  Sc3  1  0.00000000  0.50000000  0.87575000  1.0
  Sc  Sc4  1  0.01395000  0.50000000  0.04266000  1.0
  Sc  Sc5  1  0.99304000  0.00000000  0.04222000  1.0
  Ga  Ga6  2  0.00000000  0.25001000  0.95858000  1.0
  Ga  Ga7  2  0.98810000  0.23809000  0.12047000  1.0
  Ga  Ga8  1  0.49765000  0.00000000  0.03805000  1.0
  Ga  Ga9  1  0.50000000  0.00000000  0.87575000  1.0
  Ga  Ga10  1  0.50000000  0.50000000  0.87575000  1.0
  Ga  Ga11  1  0.50332000  0.50000000  0.03917000  1.0
  Cu  Cu12  2  0.25000000  0.24999000  0.87575000  1.0
  Cu  Cu13  2  0.25803000  0.24337000  0.04188000  1.0
  Cu  Cu14  2  0.73009000  0.25005000  0.04666000  1.0
  Cu  Cu15  2  0.75000000  0.25001000  0.87575000  1.0
  Cu  Cu16  1  0.11944000  0.50000000  0.15310000  1.0
  Cu  Cu17  1  0.25000000  0.00000000  0.95858000  1.0
  Cu  Cu18  1  0.25000000  0.50000000  0.95858000  1.0
  Cu  Cu19  1  0.25988000  0.00000000  0.12273000  1.0
  Cu  Cu20  1  0.70190000  0.00000000  0.12139000  1.0
  Cu  Cu21  1  0.75000000  0.00000000  0.95858000  1.0
  Cu  Cu22  1  0.75000000  0.50000000  0.95858000  1.0
  Cu  Cu23  1  0.75412000  0.50000000  0.11990000  1.0
  C  C24  1  0.37545000  0.50000000  0.19391000  1.0
  O  O25  1  0.42063000  0.50000000  0.23730000  1.0
