# generated using pymatgen
data_Li8Sb4Pt4CO
_symmetry_space_group_name_H-M   'P 1'
_cell_length_a   6.40528000
_cell_length_b   6.40528000
_cell_length_c   24.80400000
_cell_angle_alpha   90.00000000
_cell_angle_beta   90.00000000
_cell_angle_gamma   90.00000000
_symmetry_Int_Tables_number   1
_chemical_formula_structural   Li8Sb4Pt4CO
_chemical_formula_sum   'Li8 Sb4 Pt4 C1 O1'
_cell_volume   1017.64888503
_cell_formula_units_Z   1
loop_
 _symmetry_equiv_pos_site_id
 _symmetry_equiv_pos_as_xyz
  1  'x, y, z'
loop_
 _atom_site_type_symbol
 _atom_site_label
 _atom_site_symmetry_multiplicity
 _atom_site_fract_x
 _atom_site_fract_y
 _atom_site_fract_z
 _atom_site_occupancy
  Li  Li0  1  0.50000000  0.00000000  0.96772000  1
  Li  Li1  1  0.50000000  0.50000000  0.09835000  1
  Li  Li2  1  0.00000000  0.00000000  0.10163000  1
  Li  Li3  1  0.00000000  0.50000000  0.96772000  1
  Li  Li4  1  0.24999500  0.24999500  0.90316000  1
  Li  Li5  1  0.75089500  0.24910500  0.03225000  1
  Li  Li6  1  0.75000500  0.75000500  0.90316000  1
  Li  Li7  1  0.24910500  0.75089500  0.03225000  1
  Sb  Sb8  1  0.50000000  0.00000000  0.09690000  1
  Sb  Sb9  1  0.00000000  0.50000000  0.09690000  1
  Sb  Sb10  1  0.50000000  0.50000000  0.96772000  1
  Sb  Sb11  1  0.00000000  0.00000000  0.96772000  1
  Pt  Pt12  1  0.25014000  0.25014000  0.03113000  1
  Pt  Pt13  1  0.75001500  0.24998500  0.90316000  1
  Pt  Pt14  1  0.74986000  0.74986000  0.03113000  1
  Pt  Pt15  1  0.24998500  0.75001500  0.90316000  1
  C  C16  1  0.00000000  0.00000000  0.18755000  1
  O  O17  1  0.00000000  0.00000000  0.23339000  1
