# generated using pymatgen
data_V8Sn8Rh16CO
_symmetry_space_group_name_H-M   'P 1'
_cell_length_a   6.32488000
_cell_length_b   8.94473000
_cell_length_c   26.70850000
_cell_angle_alpha   90.00000000
_cell_angle_beta   90.00000000
_cell_angle_gamma   90.00000000
_symmetry_Int_Tables_number   1
_chemical_formula_structural   V8Sn8Rh16CO
_chemical_formula_sum   'V8 Sn8 Rh16 C1 O1'
_cell_volume   1511.01586358
_cell_formula_units_Z   1
loop_
 _symmetry_equiv_pos_site_id
 _symmetry_equiv_pos_as_xyz
  1  'x, y, z'
loop_
 _atom_site_type_symbol
 _atom_site_label
 _atom_site_symmetry_multiplicity
 _atom_site_fract_x
 _atom_site_fract_y
 _atom_site_fract_z
 _atom_site_occupancy
  V  V0  1  0.00000000  0.74999000  0.87441000  1.0
  V  V1  1  0.50000000  0.00000000  0.95814000  1.0
  V  V2  1  0.50000000  0.50000000  0.95814000  1.0
  V  V3  1  0.00000000  0.25001000  0.87441000  1.0
  V  V4  1  0.00000000  0.25225000  0.04700000  1.0
  V  V5  1  0.50000000  0.50000000  0.11649000  1.0
  V  V6  1  0.50000000  0.00000000  0.12228000  1.0
  V  V7  1  0.00000000  0.74775000  0.04700000  1.0
  Sn  Sn8  1  0.00000000  0.50000000  0.95814000  1.0
  Sn  Sn9  1  0.50000000  0.74999000  0.87441000  1.0
  Sn  Sn10  1  0.00000000  0.00000000  0.95814000  1.0
  Sn  Sn11  1  0.50000000  0.25001000  0.87441000  1.0
  Sn  Sn12  1  0.00000000  0.00000000  0.13460000  1.0
  Sn  Sn13  1  0.50000000  0.24719000  0.03867000  1.0
  Sn  Sn14  1  0.00000000  0.50000000  0.13841000  1.0
  Sn  Sn15  1  0.50000000  0.75281000  0.03867000  1.0
  Rh  Rh16  1  0.25000000  0.74999000  0.95814000  1.0
  Rh  Rh17  1  0.75000000  0.25001000  0.95814000  1.0
  Rh  Rh18  1  0.75000000  0.74999000  0.95814000  1.0
  Rh  Rh19  1  0.25000000  0.25001000  0.95814000  1.0
  Rh  Rh20  1  0.75000000  0.50000000  0.87441000  1.0
  Rh  Rh21  1  0.25000000  0.00000000  0.87441000  1.0
  Rh  Rh22  1  0.25000000  0.50000000  0.87441000  1.0
  Rh  Rh23  1  0.75000000  0.00000000  0.87441000  1.0
  Rh  Rh24  1  0.25331000  0.25127000  0.11869000  1.0
  Rh  Rh25  1  0.74669000  0.74873000  0.11869000  1.0
  Rh  Rh26  1  0.74669000  0.25127000  0.11869000  1.0
  Rh  Rh27  1  0.25331000  0.74873000  0.11869000  1.0
  Rh  Rh28  1  0.76292000  0.00000000  0.04211000  1.0
  Rh  Rh29  1  0.23944000  0.50000000  0.04476000  1.0
  Rh  Rh30  1  0.23708000  0.00000000  0.04211000  1.0
  Rh  Rh31  1  0.76056000  0.50000000  0.04476000  1.0
  C  C32  1  0.50000000  0.00000000  0.19610000  1.0
  O  O33  1  0.50000000  0.00000000  0.23950000  1.0
