# generated using pymatgen
data_V8Sn8Rh16CO
_symmetry_space_group_name_H-M   Pmm2
_cell_length_a   6.32488000
_cell_length_b   8.94473000
_cell_length_c   26.70850000
_cell_angle_alpha   90.00000000
_cell_angle_beta   90.00000000
_cell_angle_gamma   90.00000000
_symmetry_Int_Tables_number   25
_chemical_formula_structural   V8Sn8Rh16CO
_chemical_formula_sum   'V8 Sn8 Rh16 C1 O1'
_cell_volume   1511.01586358
_cell_formula_units_Z   1
loop_
 _symmetry_equiv_pos_site_id
 _symmetry_equiv_pos_as_xyz
  1  'x, y, z'
  2  '-x, -y, z'
  3  '-x, y, z'
  4  'x, -y, z'
loop_
 _atom_site_type_symbol
 _atom_site_label
 _atom_site_symmetry_multiplicity
 _atom_site_fract_x
 _atom_site_fract_y
 _atom_site_fract_z
 _atom_site_occupancy
  V  V0  2  0.00000000  0.25001000  0.87441000  1.0
  V  V1  2  0.00000000  0.25225000  0.04700000  1.0
  V  V2  1  0.50000000  0.00000000  0.12228000  1.0
  V  V3  1  0.50000000  0.00000000  0.95814000  1.0
  V  V4  1  0.50000000  0.50000000  0.11649000  1.0
  V  V5  1  0.50000000  0.50000000  0.95814000  1.0
  Sn  Sn6  2  0.50000000  0.24719000  0.03867000  1.0
  Sn  Sn7  2  0.50000000  0.25001000  0.87441000  1.0
  Sn  Sn8  1  0.00000000  0.00000000  0.13460000  1.0
  Sn  Sn9  1  0.00000000  0.00000000  0.95814000  1.0
  Sn  Sn10  1  0.00000000  0.50000000  0.13841000  1.0
  Sn  Sn11  1  0.00000000  0.50000000  0.95814000  1.0
  Rh  Rh12  4  0.25000000  0.25001000  0.95814000  1.0
  Rh  Rh13  4  0.25331000  0.25127000  0.11869000  1.0
  Rh  Rh14  2  0.23708000  0.00000000  0.04211000  1.0
  Rh  Rh15  2  0.23944000  0.50000000  0.04476000  1.0
  Rh  Rh16  2  0.25000000  0.00000000  0.87441000  1.0
  Rh  Rh17  2  0.25000000  0.50000000  0.87441000  1.0
  C  C18  1  0.50000000  0.00000000  0.19610000  1.0
  O  O19  1  0.50000000  0.00000000  0.23950000  1.0
