# generated using pymatgen
data_Fe16Co8Ge8C
_symmetry_space_group_name_H-M   'P 1'
_cell_length_a   8.17053000
_cell_length_b   5.77744000
_cell_length_c   26.12790000
_cell_angle_alpha   90.00000000
_cell_angle_beta   90.00000000
_cell_angle_gamma   90.00000000
_symmetry_Int_Tables_number   1
_chemical_formula_structural   Fe16Co8Ge8C
_chemical_formula_sum   'Fe16 Co8 Ge8 C1'
_cell_volume   1233.36090504
_cell_formula_units_Z   1
loop_
 _symmetry_equiv_pos_site_id
 _symmetry_equiv_pos_as_xyz
  1  'x, y, z'
loop_
 _atom_site_type_symbol
 _atom_site_label
 _atom_site_symmetry_multiplicity
 _atom_site_fract_x
 _atom_site_fract_y
 _atom_site_fract_z
 _atom_site_occupancy
  Fe  Fe0  1  0.74999000  0.25000000  0.03909000  1.0
  Fe  Fe1  1  0.24999000  0.75000000  0.03909000  1.0
  Fe  Fe2  1  0.75001000  0.75000000  0.03909000  1.0
  Fe  Fe3  1  0.25001000  0.25000000  0.03909000  1.0
  Fe  Fe4  1  0.50000000  0.75000000  0.11727000  1.0
  Fe  Fe5  1  0.00000000  0.25000000  0.11727000  1.0
  Fe  Fe6  1  0.50000000  0.25000000  0.11727000  1.0
  Fe  Fe7  1  0.00000000  0.75000000  0.11727000  1.0
  Fe  Fe8  1  0.23125000  0.22584000  0.88417000  1.0
  Fe  Fe9  1  0.73544000  0.75348000  0.88128000  1.0
  Fe  Fe10  1  0.26456000  0.75348000  0.88128000  1.0
  Fe  Fe11  1  0.76875000  0.22584000  0.88417000  1.0
  Fe  Fe12  1  0.00000000  0.78426000  0.95977000  1.0
  Fe  Fe13  1  0.50000000  0.25118000  0.96114000  1.0
  Fe  Fe14  1  0.00000000  0.22304000  0.95435000  1.0
  Fe  Fe15  1  0.50000000  0.74019000  0.95784000  1.0
  Co  Co16  1  0.74999000  0.00000000  0.11727000  1.0
  Co  Co17  1  0.00000000  0.50000000  0.03909000  1.0
  Co  Co18  1  0.50000000  0.50000000  0.03909000  1.0
  Co  Co19  1  0.25001000  0.00000000  0.11727000  1.0
  Co  Co20  1  0.26770000  0.98586000  0.95985000  1.0
  Co  Co21  1  0.50000000  0.47557000  0.88742000  1.0
  Co  Co22  1  0.00000000  0.54779000  0.88752000  1.0
  Co  Co23  1  0.73230000  0.98586000  0.95985000  1.0
  Ge  Ge24  1  0.50000000  0.00000000  0.03909000  1.0
  Ge  Ge25  1  0.74999000  0.50000000  0.11727000  1.0
  Ge  Ge26  1  0.00000000  0.00000000  0.03909000  1.0
  Ge  Ge27  1  0.25001000  0.50000000  0.11727000  1.0
  Ge  Ge28  1  0.00000000  0.91707000  0.84439000  1.0
  Ge  Ge29  1  0.23946000  0.49878000  0.96036000  1.0
  Ge  Ge30  1  0.50000000  0.02997000  0.87121000  1.0
  Ge  Ge31  1  0.76054000  0.49878000  0.96036000  1.0
  C  C32  1  0.00000000  0.23295000  0.87677000  1.0
