# generated using pymatgen
data_Fe16Co8Ge8C
_symmetry_space_group_name_H-M   Pm
_cell_length_a   5.77744000
_cell_length_b   8.17053000
_cell_length_c   26.12790000
_cell_angle_alpha   90.00000000
_cell_angle_beta   90.00000000
_cell_angle_gamma   90.00000000
_symmetry_Int_Tables_number   6
_chemical_formula_structural   Fe16Co8Ge8C
_chemical_formula_sum   'Fe16 Co8 Ge8 C1'
_cell_volume   1233.36090504
_cell_formula_units_Z   1
loop_
 _symmetry_equiv_pos_site_id
 _symmetry_equiv_pos_as_xyz
  1  'x, y, z'
  2  'x, -y, z'
loop_
 _atom_site_type_symbol
 _atom_site_label
 _atom_site_symmetry_multiplicity
 _atom_site_fract_x
 _atom_site_fract_y
 _atom_site_fract_z
 _atom_site_occupancy
  Fe  Fe0  2  0.22584000  0.23125000  0.11583000  1.0
  Fe  Fe1  2  0.25000000  0.25001000  0.96091000  1.0
  Fe  Fe2  2  0.75000000  0.24999000  0.96091000  1.0
  Fe  Fe3  2  0.75348000  0.26456000  0.11872000  1.0
  Fe  Fe4  1  0.22304000  0.00000000  0.04565000  1.0
  Fe  Fe5  1  0.25000000  0.00000000  0.88273000  1.0
  Fe  Fe6  1  0.25000000  0.50000000  0.88273000  1.0
  Fe  Fe7  1  0.25118000  0.50000000  0.03886000  1.0
  Fe  Fe8  1  0.74019000  0.50000000  0.04216000  1.0
  Fe  Fe9  1  0.75000000  0.00000000  0.88273000  1.0
  Fe  Fe10  1  0.75000000  0.50000000  0.88273000  1.0
  Fe  Fe11  1  0.78426000  0.00000000  0.04023000  1.0
  Co  Co12  2  0.00000000  0.25001000  0.88273000  1.0
  Co  Co13  2  0.98586000  0.26770000  0.04015000  1.0
  Co  Co14  1  0.47557000  0.50000000  0.11258000  1.0
  Co  Co15  1  0.50000000  0.00000000  0.96091000  1.0
  Co  Co16  1  0.50000000  0.50000000  0.96091000  1.0
  Co  Co17  1  0.54779000  0.00000000  0.11248000  1.0
  Ge  Ge18  2  0.49878000  0.23946000  0.03964000  1.0
  Ge  Ge19  2  0.50000000  0.25001000  0.88273000  1.0
  Ge  Ge20  1  0.00000000  0.00000000  0.96091000  1.0
  Ge  Ge21  1  0.00000000  0.50000000  0.96091000  1.0
  Ge  Ge22  1  0.02997000  0.50000000  0.12879000  1.0
  Ge  Ge23  1  0.91707000  0.00000000  0.15561000  1.0
  C  C24  1  0.23295000  0.00000000  0.12323000  1.0
