# generated using pymatgen
data_Mn8Ga8Ni16C
_symmetry_space_group_name_H-M   'P 1'
_cell_length_a   5.88011000
_cell_length_b   8.31574000
_cell_length_c   26.23680000
_cell_angle_alpha   90.00000000
_cell_angle_beta   90.00000000
_cell_angle_gamma   90.00000000
_symmetry_Int_Tables_number   1
_chemical_formula_structural   Mn8Ga8Ni16C
_chemical_formula_sum   'Mn8 Ga8 Ni16 C1'
_cell_volume   1282.91303415
_cell_formula_units_Z   1
loop_
 _symmetry_equiv_pos_site_id
 _symmetry_equiv_pos_as_xyz
  1  'x, y, z'
loop_
 _atom_site_type_symbol
 _atom_site_label
 _atom_site_symmetry_multiplicity
 _atom_site_fract_x
 _atom_site_fract_y
 _atom_site_fract_z
 _atom_site_occupancy
  Mn  Mn0  1  0.00000000  0.00000000  0.88114000  1.0
  Mn  Mn1  1  0.50000000  0.25000000  0.96038000  1.0
  Mn  Mn2  1  0.50000000  0.75000000  0.96038000  1.0
  Mn  Mn3  1  0.00000000  0.50000000  0.88114000  1.0
  Mn  Mn4  1  0.00000000  0.50000000  0.03831000  1.0
  Mn  Mn5  1  0.50000000  0.76389000  0.12293000  1.0
  Mn  Mn6  1  0.50000000  0.23611000  0.12293000  1.0
  Mn  Mn7  1  0.00000000  0.00000000  0.03637000  1.0
  Ga  Ga8  1  0.00000000  0.75000000  0.96038000  1.0
  Ga  Ga9  1  0.50000000  0.00000000  0.88114000  1.0
  Ga  Ga10  1  0.00000000  0.25000000  0.96038000  1.0
  Ga  Ga11  1  0.50000000  0.50000000  0.88114000  1.0
  Ga  Ga12  1  0.00000000  0.26040000  0.11955000  1.0
  Ga  Ga13  1  0.50000000  0.50000000  0.03827000  1.0
  Ga  Ga14  1  0.00000000  0.73960000  0.11955000  1.0
  Ga  Ga15  1  0.50000000  0.00000000  0.03901000  1.0
  Ni  Ni16  1  0.25000000  0.00000000  0.96038000  1.0
  Ni  Ni17  1  0.75000000  0.50000000  0.96038000  1.0
  Ni  Ni18  1  0.75000000  0.00000000  0.96038000  1.0
  Ni  Ni19  1  0.25000000  0.50000000  0.96038000  1.0
  Ni  Ni20  1  0.75000000  0.75000000  0.88114000  1.0
  Ni  Ni21  1  0.25000000  0.25000000  0.88114000  1.0
  Ni  Ni22  1  0.25000000  0.75000000  0.88114000  1.0
  Ni  Ni23  1  0.75000000  0.25000000  0.88114000  1.0
  Ni  Ni24  1  0.25252000  0.50000000  0.11288000  1.0
  Ni  Ni25  1  0.79210000  0.00000000  0.11558000  1.0
  Ni  Ni26  1  0.74748000  0.50000000  0.11288000  1.0
  Ni  Ni27  1  0.20790000  0.00000000  0.11558000  1.0
  Ni  Ni28  1  0.74638000  0.24900000  0.03980000  1.0
  Ni  Ni29  1  0.25362000  0.75100000  0.03980000  1.0
  Ni  Ni30  1  0.25362000  0.24900000  0.03980000  1.0
  Ni  Ni31  1  0.74638000  0.75100000  0.03980000  1.0
  C  C32  1  0.50000000  0.00000000  0.13850000  1.0
