# generated using pymatgen
data_Li8Mg8Cu8Ge8CO
_symmetry_space_group_name_H-M   Pm
_cell_length_a   6.17522000
_cell_length_b   8.73308000
_cell_length_c   26.54980000
_cell_angle_alpha   90.00000000
_cell_angle_beta   90.00000000
_cell_angle_gamma   90.00000000
_symmetry_Int_Tables_number   6
_chemical_formula_structural   Li8Mg8Cu8Ge8CO
_chemical_formula_sum   'Li8 Mg8 Cu8 Ge8 C1 O1'
_cell_volume   1431.79594113
_cell_formula_units_Z   1
loop_
 _symmetry_equiv_pos_site_id
 _symmetry_equiv_pos_as_xyz
  1  'x, y, z'
  2  'x, -y, z'
loop_
 _atom_site_type_symbol
 _atom_site_label
 _atom_site_symmetry_multiplicity
 _atom_site_fract_x
 _atom_site_fract_y
 _atom_site_fract_z
 _atom_site_occupancy
  Li  Li0  2  0.00000000  0.25000000  0.95888000  1.0
  Li  Li1  2  0.12335000  0.25001000  0.16766000  1.0
  Li  Li2  1  0.50000000  0.00000000  0.87665000  1.0
  Li  Li3  1  0.50000000  0.50000000  0.87665000  1.0
  Li  Li4  1  0.51098000  0.00000000  0.04414000  1.0
  Li  Li5  1  0.51165000  0.50000000  0.04416000  1.0
  Mg  Mg6  2  0.22884000  0.25033000  0.05093000  1.0
  Mg  Mg7  2  0.25000000  0.25000000  0.87665000  1.0
  Mg  Mg8  1  0.75000000  0.00000000  0.95888000  1.0
  Mg  Mg9  1  0.75000000  0.50000000  0.95888000  1.0
  Mg  Mg10  1  0.79178000  0.00000000  0.12930000  1.0
  Mg  Mg11  1  0.79203000  0.50000000  0.12930000  1.0
  Cu  Cu12  2  0.50000000  0.25000000  0.95888000  1.0
  Cu  Cu13  2  0.51341000  0.24969000  0.12167000  1.0
  Cu  Cu14  1  0.00000000  0.00000000  0.87665000  1.0
  Cu  Cu15  1  0.00000000  0.50000000  0.87665000  1.0
  Cu  Cu16  1  0.99782000  0.50000000  0.03798000  1.0
  Cu  Cu17  1  0.99803000  0.00000000  0.03812000  1.0
  Ge  Ge18  2  0.75000000  0.25000000  0.87665000  1.0
  Ge  Ge19  2  0.76186000  0.24948000  0.04527000  1.0
  Ge  Ge20  1  0.25000000  0.00000000  0.95888000  1.0
  Ge  Ge21  1  0.25000000  0.50000000  0.95888000  1.0
  Ge  Ge22  1  0.28030000  0.00000000  0.12730000  1.0
  Ge  Ge23  1  0.28158000  0.50000000  0.12762000  1.0
  C  C24  1  0.46636000  0.00000000  0.28877000  1.0
  O  O25  1  0.28234000  0.00000000  0.28721000  1.0
