data_image0
_chemical_formula_structural       Li16Pd16C
_chemical_formula_sum              "Li16 Pd16 C1"
_cell_length_a       6.06651
_cell_length_b       8.57934
_cell_length_c       26.4345
_cell_angle_alpha    90
_cell_angle_beta     90
_cell_angle_gamma    90

_space_group_name_H-M_alt    "P 1"
_space_group_IT_number       1

loop_
  _space_group_symop_operation_xyz
  'x, y, z'

loop_
  _atom_site_type_symbol
  _atom_site_label
  _atom_site_symmetry_multiplicity
  _atom_site_fract_x
  _atom_site_fract_y
  _atom_site_fract_z
  _atom_site_occupancy
  Li  Li1       1.0  0.00000  0.00000  0.87829  1.0000
  Li  Li2       1.0  0.00000  0.25000  0.95943  1.0000
  Li  Li3       1.0  0.99628  0.99693  0.04041  1.0000
  Li  Li4       1.0  0.95364  0.25001  0.13794  1.0000
  Li  Li5       1.0  0.00000  0.50000  0.87829  1.0000
  Li  Li6       1.0  0.00000  0.75000  0.95943  1.0000
  Li  Li7       1.0  0.99627  0.50307  0.04042  1.0000
  Li  Li8       1.0  0.95467  0.74999  0.14245  1.0000
  Li  Li9       1.0  0.50000  0.00000  0.87829  1.0000
  Li  Li10      1.0  0.50000  0.25000  0.95943  1.0000
  Li  Li11      1.0  0.50769  0.99367  0.03960  1.0000
  Li  Li12      1.0  0.53217  0.25000  0.17312  1.0000
  Li  Li13      1.0  0.50000  0.50000  0.87829  1.0000
  Li  Li14      1.0  0.50000  0.75000  0.95943  1.0000
  Li  Li15      1.0  0.50768  0.50635  0.03959  1.0000
  Li  Li16      1.0  0.47254  0.75000  0.14619  1.0000
  Pd  Pd1       1.0  0.25000  0.25000  0.87829  1.0000
  Pd  Pd2       1.0  0.25000  0.00000  0.95943  1.0000
  Pd  Pd3       1.0  0.25633  0.25001  0.04093  1.0000
  Pd  Pd4       1.0  0.25477  0.02440  0.12297  1.0000
  Pd  Pd5       1.0  0.25000  0.75000  0.87829  1.0000
  Pd  Pd6       1.0  0.25000  0.50000  0.95943  1.0000
  Pd  Pd7       1.0  0.24617  0.75000  0.05756  1.0000
  Pd  Pd8       1.0  0.25475  0.47560  0.12298  1.0000
  Pd  Pd9       1.0  0.75000  0.25000  0.87829  1.0000
  Pd  Pd10      1.0  0.75000  0.00000  0.95943  1.0000
  Pd  Pd11      1.0  0.75360  0.25001  0.03846  1.0000
  Pd  Pd12      1.0  0.74174  0.00153  0.12247  1.0000
  Pd  Pd13      1.0  0.75000  0.75000  0.87829  1.0000
  Pd  Pd14      1.0  0.75000  0.50000  0.95943  1.0000
  Pd  Pd15      1.0  0.75455  0.75001  0.04659  1.0000
  Pd  Pd16      1.0  0.74168  0.49847  0.12247  1.0000
  C   C1        1.0  0.28916  0.25000  0.11558  1.0000
