# generated using pymatgen
data_Li16Pd16C
_symmetry_space_group_name_H-M   Pm
_cell_length_a   6.06651000
_cell_length_b   8.57934000
_cell_length_c   26.43450000
_cell_angle_alpha   90.00000000
_cell_angle_beta   90.00000000
_cell_angle_gamma   90.00000000
_symmetry_Int_Tables_number   6
_chemical_formula_structural   Li16Pd16C
_chemical_formula_sum   'Li16 Pd16 C1'
_cell_volume   1375.82721974
_cell_formula_units_Z   1
loop_
 _symmetry_equiv_pos_site_id
 _symmetry_equiv_pos_as_xyz
  1  'x, y, z'
  2  'x, -y, z'
loop_
 _atom_site_type_symbol
 _atom_site_label
 _atom_site_symmetry_multiplicity
 _atom_site_fract_x
 _atom_site_fract_y
 _atom_site_fract_z
 _atom_site_occupancy
  Li  Li0  2  0.00000000  0.25000000  0.87829000  1.0
  Li  Li1  2  0.50000000  0.25000000  0.87829000  1.0
  Li  Li2  2  0.50769000  0.25633000  0.03960000  1.0
  Li  Li3  2  0.99628000  0.25307000  0.04041000  1.0
  Li  Li4  1  0.00000000  0.00000000  0.95943000  1.0
  Li  Li5  1  0.00000000  0.50000000  0.95943000  1.0
  Li  Li6  1  0.47254000  0.50000000  0.14619000  1.0
  Li  Li7  1  0.50000000  0.00000000  0.95943000  1.0
  Li  Li8  1  0.50000000  0.50000000  0.95943000  1.0
  Li  Li9  1  0.53217000  0.00000000  0.17312000  1.0
  Li  Li10  1  0.95364000  0.00000000  0.13794000  1.0
  Li  Li11  1  0.95467000  0.50000000  0.14245000  1.0
  Pd  Pd12  2  0.25000000  0.25000000  0.95943000  1.0
  Pd  Pd13  2  0.25477000  0.22560000  0.12297000  1.0
  Pd  Pd14  2  0.74174000  0.24847000  0.12247000  1.0
  Pd  Pd15  2  0.75000000  0.25000000  0.95943000  1.0
  Pd  Pd16  1  0.24617000  0.50000000  0.05756000  1.0
  Pd  Pd17  1  0.25000000  0.00000000  0.87829000  1.0
  Pd  Pd18  1  0.25000000  0.50000000  0.87829000  1.0
  Pd  Pd19  1  0.25633000  0.00000000  0.04093000  1.0
  Pd  Pd20  1  0.75000000  0.00000000  0.87829000  1.0
  Pd  Pd21  1  0.75000000  0.50000000  0.87829000  1.0
  Pd  Pd22  1  0.75360000  0.00000000  0.03846000  1.0
  Pd  Pd23  1  0.75455000  0.50000000  0.04659000  1.0
  C  C24  1  0.28916000  0.00000000  0.11558000  1.0
