# generated using pymatgen
data_Li8In8Cu8Ge8CO
_symmetry_space_group_name_H-M   'P 1'
_cell_length_a   9.18370000
_cell_length_b   6.49386000
_cell_length_c   26.88780000
_cell_angle_alpha   90.00000000
_cell_angle_beta   90.00000000
_cell_angle_gamma   90.00000000
_symmetry_Int_Tables_number   1
_chemical_formula_structural   Li8In8Cu8Ge8CO
_chemical_formula_sum   'Li8 In8 Cu8 Ge8 C1 O1'
_cell_volume   1603.52553053
_cell_formula_units_Z   1
loop_
 _symmetry_equiv_pos_site_id
 _symmetry_equiv_pos_as_xyz
  1  'x, y, z'
loop_
 _atom_site_type_symbol
 _atom_site_label
 _atom_site_symmetry_multiplicity
 _atom_site_fract_x
 _atom_site_fract_y
 _atom_site_fract_z
 _atom_site_occupancy
  Li  Li0  1  0.00000000  0.00000000  0.04269000  1.0
  Li  Li1  1  0.50000000  0.00000000  0.04269000  1.0
  Li  Li2  1  0.25000000  0.50000000  0.12808000  1.0
  Li  Li3  1  0.75000000  0.50000000  0.12808000  1.0
  Li  Li4  1  0.50000000  0.87982000  0.83004000  1.0
  Li  Li5  1  0.00000000  0.97402000  0.86087000  1.0
  Li  Li6  1  0.74530000  0.46279000  0.95276000  1.0
  Li  Li7  1  0.25470000  0.46279000  0.95276000  1.0
  In  In8  1  0.75000000  0.25000000  0.04269000  1.0
  In  In9  1  0.25000000  0.25000000  0.04269000  1.0
  In  In10  1  0.00000000  0.75000000  0.12808000  1.0
  In  In11  1  0.50000000  0.75000000  0.12808000  1.0
  In  In12  1  0.28207000  0.22245000  0.85556000  1.0
  In  In13  1  0.71793000  0.22245000  0.85556000  1.0
  In  In14  1  0.50000000  0.75861000  0.95786000  1.0
  In  In15  1  0.00000000  0.72798000  0.95302000  1.0
  Cu  Cu16  1  0.75000000  0.00000000  0.12808000  1.0
  Cu  Cu17  1  0.25000000  0.00000000  0.12808000  1.0
  Cu  Cu18  1  0.50000000  0.50000000  0.04269000  1.0
  Cu  Cu19  1  0.00000000  0.50000000  0.04269000  1.0
  Cu  Cu20  1  0.24581000  0.00614000  0.95740000  1.0
  Cu  Cu21  1  0.75419000  0.00614000  0.95740000  1.0
  Cu  Cu22  1  0.00000000  0.43540000  0.87282000  1.0
  Cu  Cu23  1  0.50000000  0.50812000  0.88034000  1.0
  Ge  Ge24  1  0.75000000  0.75000000  0.04269000  1.0
  Ge  Ge25  1  0.25000000  0.75000000  0.04269000  1.0
  Ge  Ge26  1  0.00000000  0.25000000  0.12808000  1.0
  Ge  Ge27  1  0.50000000  0.25000000  0.12808000  1.0
  Ge  Ge28  1  0.26208000  0.73870000  0.87834000  1.0
  Ge  Ge29  1  0.73792000  0.73870000  0.87834000  1.0
  Ge  Ge30  1  0.50000000  0.22218000  0.95075000  1.0
  Ge  Ge31  1  0.00000000  0.21899000  0.94989000  1.0
  C  C32  1  0.00000000  0.51784000  0.80573000  1.0
  O  O33  1  0.00000000  0.56172000  0.76406000  1.0
