# generated using pymatgen
data_Li8In8Cu8Ge8CO
_symmetry_space_group_name_H-M   Pm
_cell_length_a   6.49386000
_cell_length_b   9.18370000
_cell_length_c   26.88780000
_cell_angle_alpha   90.00000000
_cell_angle_beta   90.00000000
_cell_angle_gamma   90.00000000
_symmetry_Int_Tables_number   6
_chemical_formula_structural   Li8In8Cu8Ge8CO
_chemical_formula_sum   'Li8 In8 Cu8 Ge8 C1 O1'
_cell_volume   1603.52553053
_cell_formula_units_Z   1
loop_
 _symmetry_equiv_pos_site_id
 _symmetry_equiv_pos_as_xyz
  1  'x, y, z'
  2  'x, -y, z'
loop_
 _atom_site_type_symbol
 _atom_site_label
 _atom_site_symmetry_multiplicity
 _atom_site_fract_x
 _atom_site_fract_y
 _atom_site_fract_z
 _atom_site_occupancy
  Li  Li0  2  0.46279000  0.25470000  0.04724000  1.0
  Li  Li1  2  0.50000000  0.25000000  0.87192000  1.0
  Li  Li2  1  0.00000000  0.00000000  0.95731000  1.0
  Li  Li3  1  0.00000000  0.50000000  0.95731000  1.0
  Li  Li4  1  0.87982000  0.50000000  0.16996000  1.0
  Li  Li5  1  0.97402000  0.00000000  0.13913000  1.0
  In  In6  2  0.22245000  0.28207000  0.14444000  1.0
  In  In7  2  0.25000000  0.25000000  0.95731000  1.0
  In  In8  1  0.72798000  0.00000000  0.04698000  1.0
  In  In9  1  0.75000000  0.00000000  0.87192000  1.0
  In  In10  1  0.75000000  0.50000000  0.87192000  1.0
  In  In11  1  0.75861000  0.50000000  0.04214000  1.0
  Cu  Cu12  2  0.00000000  0.25000000  0.87192000  1.0
  Cu  Cu13  2  0.00614000  0.24581000  0.04260000  1.0
  Cu  Cu14  1  0.43540000  0.00000000  0.12718000  1.0
  Cu  Cu15  1  0.50000000  0.00000000  0.95731000  1.0
  Cu  Cu16  1  0.50000000  0.50000000  0.95731000  1.0
  Cu  Cu17  1  0.50812000  0.50000000  0.11966000  1.0
  Ge  Ge18  2  0.73870000  0.26208000  0.12166000  1.0
  Ge  Ge19  2  0.75000000  0.25000000  0.95731000  1.0
  Ge  Ge20  1  0.21899000  0.00000000  0.05011000  1.0
  Ge  Ge21  1  0.22218000  0.50000000  0.04925000  1.0
  Ge  Ge22  1  0.25000000  0.00000000  0.87192000  1.0
  Ge  Ge23  1  0.25000000  0.50000000  0.87192000  1.0
  C  C24  1  0.51784000  0.00000000  0.19427000  1.0
  O  O25  1  0.56172000  0.00000000  0.23594000  1.0
