# generated using pymatgen
data_Ge32C
_symmetry_space_group_name_H-M   'P 1'
_cell_length_a   8.62086000
_cell_length_b   8.62086000
_cell_length_c   26.46560000
_cell_angle_alpha   90.00000000
_cell_angle_beta   90.00000000
_cell_angle_gamma   90.00000000
_symmetry_Int_Tables_number   1
_chemical_formula_structural   Ge32C
_chemical_formula_sum   'Ge32 C1'
_cell_volume   1966.90293779
_cell_formula_units_Z   1
loop_
 _symmetry_equiv_pos_site_id
 _symmetry_equiv_pos_as_xyz
  1  'x, y, z'
loop_
 _atom_site_type_symbol
 _atom_site_label
 _atom_site_symmetry_multiplicity
 _atom_site_fract_x
 _atom_site_fract_y
 _atom_site_fract_z
 _atom_site_occupancy
  Ge  Ge0  1  0.00000000  0.00000000  0.87785000  1.0
  Ge  Ge1  1  0.24999000  0.25000000  0.87785000  1.0
  Ge  Ge2  1  0.24999000  0.00000000  0.95928000  1.0
  Ge  Ge3  1  0.00000000  0.25000000  0.95928000  1.0
  Ge  Ge4  1  0.00000000  0.00000000  0.05580000  1.0
  Ge  Ge5  1  0.24303000  0.24309000  0.04861000  1.0
  Ge  Ge6  1  0.24429000  0.00000000  0.13262000  1.0
  Ge  Ge7  1  0.00000000  0.24442000  0.13262000  1.0
  Ge  Ge8  1  0.00000000  0.50000000  0.87785000  1.0
  Ge  Ge9  1  0.24999000  0.75000000  0.87785000  1.0
  Ge  Ge10  1  0.24999000  0.50000000  0.95928000  1.0
  Ge  Ge11  1  0.00000000  0.75000000  0.95928000  1.0
  Ge  Ge12  1  0.00000000  0.50000000  0.04454000  1.0
  Ge  Ge13  1  0.24303000  0.75691000  0.04861000  1.0
  Ge  Ge14  1  0.25970000  0.50000000  0.12027000  1.0
  Ge  Ge15  1  0.00000000  0.75558000  0.13262000  1.0
  Ge  Ge16  1  0.50000000  0.00000000  0.87785000  1.0
  Ge  Ge17  1  0.75001000  0.25000000  0.87785000  1.0
  Ge  Ge18  1  0.75001000  0.00000000  0.95928000  1.0
  Ge  Ge19  1  0.50000000  0.25000000  0.95928000  1.0
  Ge  Ge20  1  0.50000000  0.00000000  0.04454000  1.0
  Ge  Ge21  1  0.75697000  0.24309000  0.04861000  1.0
  Ge  Ge22  1  0.75571000  0.00000000  0.13262000  1.0
  Ge  Ge23  1  0.50000000  0.25977000  0.12026000  1.0
  Ge  Ge24  1  0.50000000  0.50000000  0.87785000  1.0
  Ge  Ge25  1  0.75001000  0.75000000  0.87785000  1.0
  Ge  Ge26  1  0.75001000  0.50000000  0.95928000  1.0
  Ge  Ge27  1  0.50000000  0.75000000  0.95928000  1.0
  Ge  Ge28  1  0.50000000  0.50000000  0.04559000  1.0
  Ge  Ge29  1  0.75697000  0.75691000  0.04861000  1.0
  Ge  Ge30  1  0.74030000  0.50000000  0.12027000  1.0
  Ge  Ge31  1  0.50000000  0.74023000  0.12026000  1.0
  C  C32  1  0.00000000  0.00000000  0.13892000  1.0
