# generated using pymatgen
data_Li4Ti4Al4Pd4C
_symmetry_space_group_name_H-M   P2
_cell_length_a   6.17553000
_cell_length_b   24.63160000
_cell_length_c   6.17553000
_cell_angle_alpha   90.00000000
_cell_angle_beta   90.00000000
_cell_angle_gamma   90.00000000
_symmetry_Int_Tables_number   3
_chemical_formula_structural   Li4Ti4Al4Pd4C
_chemical_formula_sum   'Li4 Ti4 Al4 Pd4 C1'
_cell_volume   939.37953581
_cell_formula_units_Z   1
loop_
 _symmetry_equiv_pos_site_id
 _symmetry_equiv_pos_as_xyz
  1  'x, y, z'
  2  '-x, y, -z'
loop_
 _atom_site_type_symbol
 _atom_site_label
 _atom_site_symmetry_multiplicity
 _atom_site_fract_x
 _atom_site_fract_y
 _atom_site_fract_z
 _atom_site_occupancy
  Li  Li0  2  0.24810000  0.12172000  0.25229000  1.0
  Li  Li1  2  0.25000000  0.96866000  0.75000000  1.0
  Ti  Ti2  1  0.00000000  0.03234000  0.00000000  1.0
  Ti  Ti3  1  0.00000000  0.90598000  0.50000000  1.0
  Ti  Ti4  1  0.50000000  0.03233000  0.50000000  1.0
  Ti  Ti5  1  0.50000000  0.90598000  0.00000000  1.0
  Al  Al6  1  0.00000000  0.03782000  0.50000000  1.0
  Al  Al7  1  0.00000000  0.90598000  0.00000000  1.0
  Al  Al8  1  0.50000000  0.02610000  0.00000000  1.0
  Al  Al9  1  0.50000000  0.90598000  0.50000000  1.0
  Pd  Pd10  2  0.25000000  0.96866000  0.25000000  1.0
  Pd  Pd11  2  0.27497000  0.08897000  0.77498000  1.0
  C  C12  1  0.50000000  0.11317000  0.00000000  1.0
