# generated using pymatgen
data_Sc8Ga8Ni16CO
_symmetry_space_group_name_H-M   'P 1'
_cell_length_a   6.08368000
_cell_length_b   8.60362000
_cell_length_c   26.45270000
_cell_angle_alpha   90.00000000
_cell_angle_beta   90.00000000
_cell_angle_gamma   90.00000000
_symmetry_Int_Tables_number   1
_chemical_formula_structural   Sc8Ga8Ni16CO
_chemical_formula_sum   'Sc8 Ga8 Ni16 C1 O1'
_cell_volume   1384.57851839
_cell_formula_units_Z   1
loop_
 _symmetry_equiv_pos_site_id
 _symmetry_equiv_pos_as_xyz
  1  'x, y, z'
loop_
 _atom_site_type_symbol
 _atom_site_label
 _atom_site_symmetry_multiplicity
 _atom_site_fract_x
 _atom_site_fract_y
 _atom_site_fract_z
 _atom_site_occupancy
  Sc  Sc0  1  0.00000000  0.00000000  0.87803000  1.0
  Sc  Sc1  1  0.50000000  0.25000000  0.95934000  1.0
  Sc  Sc2  1  0.50000000  0.75000000  0.95934000  1.0
  Sc  Sc3  1  0.00000000  0.50000000  0.87803000  1.0
  Sc  Sc4  1  0.00543000  0.49809000  0.03851000  1.0
  Sc  Sc5  1  0.50976000  0.74863000  0.12583000  1.0
  Sc  Sc6  1  0.51785000  0.25261000  0.13001000  1.0
  Sc  Sc7  1  0.00477000  0.00068000  0.03914000  1.0
  Ga  Ga8  1  0.00000000  0.75000000  0.95934000  1.0
  Ga  Ga9  1  0.50000000  0.00000000  0.87803000  1.0
  Ga  Ga10  1  0.00000000  0.25000000  0.95934000  1.0
  Ga  Ga11  1  0.50000000  0.50000000  0.87803000  1.0
  Ga  Ga12  1  0.01392000  0.24946000  0.12125000  1.0
  Ga  Ga13  1  0.50670000  0.49952000  0.04535000  1.0
  Ga  Ga14  1  0.00811000  0.75042000  0.12201000  1.0
  Ga  Ga15  1  0.50656000  0.99904000  0.04563000  1.0
  Ni  Ni16  1  0.25000000  0.00000000  0.95934000  1.0
  Ni  Ni17  1  0.75000000  0.50000000  0.95934000  1.0
  Ni  Ni18  1  0.75000000  0.00000000  0.95934000  1.0
  Ni  Ni19  1  0.25000000  0.50000000  0.95934000  1.0
  Ni  Ni20  1  0.75000000  0.75000000  0.87803000  1.0
  Ni  Ni21  1  0.25000000  0.25000000  0.87803000  1.0
  Ni  Ni22  1  0.25000000  0.75000000  0.87803000  1.0
  Ni  Ni23  1  0.75000000  0.25000000  0.87803000  1.0
  Ni  Ni24  1  0.23270000  0.49983000  0.11721000  1.0
  Ni  Ni25  1  0.78466000  0.99948000  0.11885000  1.0
  Ni  Ni26  1  0.78718000  0.50068000  0.11831000  1.0
  Ni  Ni27  1  0.23460000  0.99944000  0.11763000  1.0
  Ni  Ni28  1  0.74085000  0.24923000  0.04370000  1.0
  Ni  Ni29  1  0.26745000  0.74950000  0.04346000  1.0
  Ni  Ni30  1  0.27255000  0.24886000  0.04406000  1.0
  Ni  Ni31  1  0.74604000  0.74918000  0.04222000  1.0
  C  C32  1  0.68561000  0.24890000  0.21051000  1.0
  O  O33  1  0.75801000  0.24515000  0.25064000  1.0
