# generated using pymatgen
data_Zr8Al8Ni16C
_symmetry_space_group_name_H-M   Pm
_cell_length_a   6.14888000
_cell_length_b   8.69583000
_cell_length_c   26.52190000
_cell_angle_alpha   90.00000000
_cell_angle_beta   90.00000000
_cell_angle_gamma   90.00000000
_symmetry_Int_Tables_number   6
_chemical_formula_structural   Zr8Al8Ni16C
_chemical_formula_sum   'Zr8 Al8 Ni16 C1'
_cell_volume   1418.11578659
_cell_formula_units_Z   1
loop_
 _symmetry_equiv_pos_site_id
 _symmetry_equiv_pos_as_xyz
  1  'x, y, z'
  2  'x, -y, z'
loop_
 _atom_site_type_symbol
 _atom_site_label
 _atom_site_symmetry_multiplicity
 _atom_site_fract_x
 _atom_site_fract_y
 _atom_site_fract_z
 _atom_site_occupancy
  Zr  Zr0  2  0.00000000  0.24997000  0.87705000  1.0
  Zr  Zr1  2  0.00279000  0.25454000  0.03886000  1.0
  Zr  Zr2  1  0.48940000  0.50000000  0.12727000  1.0
  Zr  Zr3  1  0.50000000  0.00000000  0.95902000  1.0
  Zr  Zr4  1  0.50000000  0.50000000  0.95902000  1.0
  Zr  Zr5  1  0.55486000  0.00000000  0.13873000  1.0
  Al  Al6  2  0.49859000  0.24804000  0.04451000  1.0
  Al  Al7  2  0.50000000  0.24997000  0.87705000  1.0
  Al  Al8  1  0.00000000  0.00000000  0.95902000  1.0
  Al  Al9  1  0.00000000  0.50000000  0.95902000  1.0
  Al  Al10  1  0.96327000  0.00000000  0.11131000  1.0
  Al  Al11  1  0.99970000  0.50000000  0.12050000  1.0
  Ni  Ni12  2  0.22387000  0.22956000  0.12280000  1.0
  Ni  Ni13  2  0.25000000  0.24997000  0.95902000  1.0
  Ni  Ni14  2  0.75000000  0.25003000  0.95902000  1.0
  Ni  Ni15  2  0.75873000  0.26198000  0.11634000  1.0
  Ni  Ni16  1  0.25000000  0.00000000  0.87705000  1.0
  Ni  Ni17  1  0.25000000  0.50000000  0.87705000  1.0
  Ni  Ni18  1  0.27567000  0.50000000  0.04320000  1.0
  Ni  Ni19  1  0.28187000  0.00000000  0.05223000  1.0
  Ni  Ni20  1  0.72689000  0.00000000  0.04114000  1.0
  Ni  Ni21  1  0.72697000  0.50000000  0.04498000  1.0
  Ni  Ni22  1  0.75000000  0.00000000  0.87705000  1.0
  Ni  Ni23  1  0.75000000  0.50000000  0.87705000  1.0
  C  C24  1  0.23279000  0.00000000  0.14372000  1.0
