data_image0
_chemical_formula_structural       Ti16Pt16C
_chemical_formula_sum              "Ti16 Pt16 C1"
_cell_length_a       6.37073
_cell_length_b       9.00957
_cell_length_c       26.7572
_cell_angle_alpha    90
_cell_angle_beta     90
_cell_angle_gamma    90

_space_group_name_H-M_alt    "P 1"
_space_group_IT_number       1

loop_
  _space_group_symop_operation_xyz
  'x, y, z'

loop_
  _atom_site_type_symbol
  _atom_site_label
  _atom_site_symmetry_multiplicity
  _atom_site_fract_x
  _atom_site_fract_y
  _atom_site_fract_z
  _atom_site_occupancy
  Ti  Ti1       1.0  0.25000  0.25000  0.87373  1.0000
  Ti  Ti2       1.0  0.25000  0.00000  0.95791  1.0000
  Ti  Ti3       1.0  0.25000  0.24998  0.04345  1.0000
  Ti  Ti4       1.0  0.25000  0.02098  0.13364  1.0000
  Ti  Ti5       1.0  0.25000  0.75000  0.87373  1.0000
  Ti  Ti6       1.0  0.25000  0.50000  0.95791  1.0000
  Ti  Ti7       1.0  0.25000  0.74998  0.04053  1.0000
  Ti  Ti8       1.0  0.25000  0.47902  0.13364  1.0000
  Ti  Ti9       1.0  0.75000  0.25000  0.87373  1.0000
  Ti  Ti10      1.0  0.75000  0.00000  0.95791  1.0000
  Ti  Ti11      1.0  0.75000  0.24997  0.03711  1.0000
  Ti  Ti12      1.0  0.75000  0.98475  0.12173  1.0000
  Ti  Ti13      1.0  0.75000  0.75000  0.87373  1.0000
  Ti  Ti14      1.0  0.75000  0.50000  0.95791  1.0000
  Ti  Ti15      1.0  0.75000  0.75000  0.04077  1.0000
  Ti  Ti16      1.0  0.75000  0.51524  0.12173  1.0000
  Pt  Pt1       1.0  0.00000  0.00000  0.87373  1.0000
  Pt  Pt2       1.0  0.00000  0.25000  0.95791  1.0000
  Pt  Pt3       1.0  0.02753  0.99776  0.04563  1.0000
  Pt  Pt4       1.0  0.95668  0.25002  0.12001  1.0000
  Pt  Pt5       1.0  0.00000  0.50000  0.87373  1.0000
  Pt  Pt6       1.0  0.00000  0.75000  0.95791  1.0000
  Pt  Pt7       1.0  0.02752  0.50220  0.04561  1.0000
  Pt  Pt8       1.0  0.01741  0.74996  0.12045  1.0000
  Pt  Pt9       1.0  0.50000  0.00000  0.87373  1.0000
  Pt  Pt10      1.0  0.50000  0.25000  0.95791  1.0000
  Pt  Pt11      1.0  0.47247  0.99776  0.04563  1.0000
  Pt  Pt12      1.0  0.54332  0.25002  0.12001  1.0000
  Pt  Pt13      1.0  0.50000  0.50000  0.87373  1.0000
  Pt  Pt14      1.0  0.50000  0.75000  0.95791  1.0000
  Pt  Pt15      1.0  0.47248  0.50220  0.04561  1.0000
  Pt  Pt16      1.0  0.48259  0.74996  0.12045  1.0000
  C   C1        1.0  0.25000  0.24999  0.14811  1.0000
