# generated using pymatgen
data_Hf4In4Cu8C
_symmetry_space_group_name_H-M   'P 1'
_cell_length_a   6.35005000
_cell_length_b   6.35005000
_cell_length_c   24.76250000
_cell_angle_alpha   90.00000000
_cell_angle_beta   90.00000000
_cell_angle_gamma   90.00000000
_symmetry_Int_Tables_number   1
_chemical_formula_structural   Hf4In4Cu8C
_chemical_formula_sum   'Hf4 In4 Cu8 C1'
_cell_volume   998.50163050
_cell_formula_units_Z   1
loop_
 _symmetry_equiv_pos_site_id
 _symmetry_equiv_pos_as_xyz
  1  'x, y, z'
loop_
 _atom_site_type_symbol
 _atom_site_label
 _atom_site_symmetry_multiplicity
 _atom_site_fract_x
 _atom_site_fract_y
 _atom_site_fract_z
 _atom_site_occupancy
  Hf  Hf0  1  0.00000000  0.00000000  0.90384000  1.0
  Hf  Hf1  1  0.50000000  0.50000000  0.90384000  1.0
  Hf  Hf2  1  0.50000000  0.00000000  0.03205000  1.0
  Hf  Hf3  1  0.00000000  0.50000000  0.03205000  1.0
  In  In4  1  0.00000000  0.00000000  0.03205000  1.0
  In  In5  1  0.50000000  0.00000000  0.90384000  1.0
  In  In6  1  0.00000000  0.50000000  0.90384000  1.0
  In  In7  1  0.50000000  0.50000000  0.03205000  1.0
  Cu  Cu8  1  0.25000000  0.25000000  0.96795000  1.0
  Cu  Cu9  1  0.75000000  0.75000000  0.09616000  1.0
  Cu  Cu10  1  0.75000000  0.25000000  0.96795000  1.0
  Cu  Cu11  1  0.25000000  0.75000000  0.09616000  1.0
  Cu  Cu12  1  0.75000000  0.75000000  0.96795000  1.0
  Cu  Cu13  1  0.25000000  0.25000000  0.09616000  1.0
  Cu  Cu14  1  0.25000000  0.75000000  0.96795000  1.0
  Cu  Cu15  1  0.75000000  0.25000000  0.09616000  1.0
  C  C16  1  0.00000000  0.00000000  0.12847000  1.0
