# generated using pymatgen
data_Y4In4Cu4Sn4C
_symmetry_space_group_name_H-M   'P 1'
_cell_length_a   8.84740000
_cell_length_b   6.35598000
_cell_length_c   24.76400000
_cell_angle_alpha   90.00000000
_cell_angle_beta   90.00000000
_cell_angle_gamma   90.00000000
_symmetry_Int_Tables_number   1
_chemical_formula_structural   Y4In4Cu4Sn4C
_chemical_formula_sum   'Y4 In4 Cu4 Sn4 C1'
_cell_volume   1392.57623650
_cell_formula_units_Z   1
loop_
 _symmetry_equiv_pos_site_id
 _symmetry_equiv_pos_as_xyz
  1  'x, y, z'
loop_
 _atom_site_type_symbol
 _atom_site_label
 _atom_site_symmetry_multiplicity
 _atom_site_fract_x
 _atom_site_fract_y
 _atom_site_fract_z
 _atom_site_occupancy
  Y  Y0  1  0.74605000  0.51971000  0.90451000  1.0
  Y  Y1  1  0.75000000  0.98234000  0.03206000  1.0
  Y  Y2  1  0.25395000  0.51971000  0.90451000  1.0
  Y  Y3  1  0.25000000  0.98234000  0.03206000  1.0
  In  In4  1  0.00000000  0.25337000  0.96617000  1.0
  In  In5  1  0.00000000  0.72350000  0.09619000  1.0
  In  In6  1  0.50000000  0.32542000  0.98007000  1.0
  In  In7  1  0.50000000  0.72350000  0.09619000  1.0
  Cu  Cu8  1  0.76345000  0.03336000  0.92101000  1.0
  Cu  Cu9  1  0.75000000  0.48234000  0.03206000  1.0
  Cu  Cu10  1  0.23655000  0.03336000  0.92101000  1.0
  Cu  Cu11  1  0.25000000  0.48234000  0.03206000  1.0
  Sn  Sn12  1  0.00000000  0.76304000  0.96606000  1.0
  Sn  Sn13  1  0.00000000  0.22350000  0.09619000  1.0
  Sn  Sn14  1  0.50000000  0.85777000  0.93281000  1.0
  Sn  Sn15  1  0.50000000  0.22350000  0.09619000  1.0
  C  C16  1  0.00000000  0.51946000  0.90197000  1.0
