# generated using pymatgen
data_Hf8In8Au16C
_symmetry_space_group_name_H-M   Pm
_cell_length_a   6.82626000
_cell_length_b   9.65379000
_cell_length_c   27.24030000
_cell_angle_alpha   90.00000000
_cell_angle_beta   90.00000000
_cell_angle_gamma   90.00000000
_symmetry_Int_Tables_number   6
_chemical_formula_structural   Hf8In8Au16C
_chemical_formula_sum   'Hf8 In8 Au16 C1'
_cell_volume   1795.11617130
_cell_formula_units_Z   1
loop_
 _symmetry_equiv_pos_site_id
 _symmetry_equiv_pos_as_xyz
  1  'x, y, z'
  2  'x, -y, z'
loop_
 _atom_site_type_symbol
 _atom_site_label
 _atom_site_symmetry_multiplicity
 _atom_site_fract_x
 _atom_site_fract_y
 _atom_site_fract_z
 _atom_site_occupancy
  Hf  Hf0  2  0.00000000  0.25000000  0.86710000  1.0
  Hf  Hf1  2  0.00214000  0.25699000  0.04936000  1.0
  Hf  Hf2  1  0.47814000  0.50000000  0.12439000  1.0
  Hf  Hf3  1  0.50000000  0.00000000  0.95570000  1.0
  Hf  Hf4  1  0.50000000  0.50000000  0.95570000  1.0
  Hf  Hf5  1  0.51849000  0.00000000  0.12665000  1.0
  In  In6  2  0.49838000  0.24179000  0.04237000  1.0
  In  In7  2  0.50000000  0.25000000  0.86710000  1.0
  In  In8  1  0.00000000  0.00000000  0.95570000  1.0
  In  In9  1  0.00000000  0.50000000  0.95570000  1.0
  In  In10  1  0.01248000  0.50000000  0.14410000  1.0
  In  In11  1  0.92352000  0.00000000  0.16309000  1.0
  Au  Au12  2  0.25000000  0.25000000  0.95570000  1.0
  Au  Au13  2  0.26879000  0.25194000  0.14089000  1.0
  Au  Au14  2  0.73162000  0.26262000  0.13398000  1.0
  Au  Au15  2  0.75000000  0.25000000  0.95570000  1.0
  Au  Au16  1  0.22359000  0.00000000  0.05030000  1.0
  Au  Au17  1  0.24392000  0.50000000  0.04203000  1.0
  Au  Au18  1  0.25000000  0.00000000  0.86710000  1.0
  Au  Au19  1  0.25000000  0.50000000  0.86710000  1.0
  Au  Au20  1  0.75000000  0.00000000  0.86710000  1.0
  Au  Au21  1  0.75000000  0.50000000  0.86710000  1.0
  Au  Au22  1  0.75070000  0.50000000  0.04376000  1.0
  Au  Au23  1  0.77919000  0.00000000  0.04368000  1.0
  C  C24  1  0.23183000  0.00000000  0.14676000  1.0
