# generated using pymatgen
data_Li16Sb8Pd8C
_symmetry_space_group_name_H-M   'P 1'
_cell_length_a   9.09870000
_cell_length_b   6.43375000
_cell_length_c   26.82400000
_cell_angle_alpha   90.00000000
_cell_angle_beta   90.00000000
_cell_angle_gamma   90.00000000
_symmetry_Int_Tables_number   1
_chemical_formula_structural   Li16Sb8Pd8C
_chemical_formula_sum   'Li16 Sb8 Pd8 C1'
_cell_volume   1570.24372842
_cell_formula_units_Z   1
loop_
 _symmetry_equiv_pos_site_id
 _symmetry_equiv_pos_as_xyz
  1  'x, y, z'
loop_
 _atom_site_type_symbol
 _atom_site_label
 _atom_site_symmetry_multiplicity
 _atom_site_fract_x
 _atom_site_fract_y
 _atom_site_fract_z
 _atom_site_occupancy
  Li  Li0  1  0.75000000  1.00000000  0.04240000  1.0
  Li  Li1  1  0.00000000  0.50000000  0.12720000  1.0
  Li  Li2  1  0.25000000  1.00000000  0.04240000  1.0
  Li  Li3  1  0.50000000  0.50000000  0.12720000  1.0
  Li  Li4  1  0.25000000  0.25000000  0.12720000  1.0
  Li  Li5  1  0.75000000  0.25000000  0.12720000  1.0
  Li  Li6  1  0.50000000  0.75000000  0.04240000  1.0
  Li  Li7  1  0.00000000  0.75000000  0.04240000  1.0
  Li  Li8  1  0.26033000  0.02806000  0.87525000  1.0
  Li  Li9  1  0.50000000  0.49916000  0.96456000  1.0
  Li  Li10  1  0.73967000  0.02806000  0.87525000  1.0
  Li  Li11  1  0.00000000  0.51732000  0.95537000  1.0
  Li  Li12  1  0.75771000  0.26570000  0.95600000  1.0
  Li  Li13  1  0.24229000  0.26570000  0.95600000  1.0
  Li  Li14  1  0.00000000  0.79537000  0.86404000  1.0
  Li  Li15  1  0.50000000  0.71688000  0.87719000  1.0
  Sb  Sb16  1  0.00000000  0.00000000  0.12720000  1.0
  Sb  Sb17  1  0.25000000  0.50000000  0.04240000  1.0
  Sb  Sb18  1  0.75000000  0.50000000  0.04240000  1.0
  Sb  Sb19  1  0.50000000  1.00000000  0.12720000  1.0
  Sb  Sb20  1  0.50000000  0.00667000  0.95508000  1.0
  Sb  Sb21  1  0.76644000  0.50446000  0.86309000  1.0
  Sb  Sb22  1  0.23356000  0.50446000  0.86309000  1.0
  Sb  Sb23  1  0.00000000  0.97784000  0.95980000  1.0
  Pd  Pd24  1  0.00000000  0.25000000  0.04240000  1.0
  Pd  Pd25  1  0.50000000  0.25000000  0.04240000  1.0
  Pd  Pd26  1  0.75000000  0.75000000  0.12720000  1.0
  Pd  Pd27  1  0.25000000  0.75000000  0.12720000  1.0
  Pd  Pd28  1  0.50000000  0.28456000  0.88083000  1.0
  Pd  Pd29  1  0.00000000  0.22956000  0.88251000  1.0
  Pd  Pd30  1  0.25698000  0.74076000  0.95166000  1.0
  Pd  Pd31  1  0.74302000  0.74076000  0.95166000  1.0
  C  C32  1  0.00000000  0.48552000  0.83797000  1.0
