# generated using pymatgen
data_Li16Sb8Pd8C
_symmetry_space_group_name_H-M   Pm
_cell_length_a   6.43375000
_cell_length_b   9.09870000
_cell_length_c   26.82400000
_cell_angle_alpha   90.00000000
_cell_angle_beta   90.00000000
_cell_angle_gamma   90.00000000
_symmetry_Int_Tables_number   6
_chemical_formula_structural   Li16Sb8Pd8C
_chemical_formula_sum   'Li16 Sb8 Pd8 C1'
_cell_volume   1570.24372842
_cell_formula_units_Z   1
loop_
 _symmetry_equiv_pos_site_id
 _symmetry_equiv_pos_as_xyz
  1  'x, y, z'
  2  'x, -y, z'
loop_
 _atom_site_type_symbol
 _atom_site_label
 _atom_site_symmetry_multiplicity
 _atom_site_fract_x
 _atom_site_fract_y
 _atom_site_fract_z
 _atom_site_occupancy
  Li  Li0  2  -0.00000000  0.25000000  0.95760000  1.0
  Li  Li1  2  0.02806000  0.26033000  0.12475000  1.0
  Li  Li2  2  0.25000000  0.25000000  0.87280000  1.0
  Li  Li3  2  0.26570000  0.24229000  0.04400000  1.0
  Li  Li4  1  0.49916000  0.50000000  0.03544000  1.0
  Li  Li5  1  0.50000000  0.00000000  0.87280000  1.0
  Li  Li6  1  0.50000000  0.50000000  0.87280000  1.0
  Li  Li7  1  0.51732000  0.00000000  0.04463000  1.0
  Li  Li8  1  0.71688000  0.50000000  0.12281000  1.0
  Li  Li9  1  0.75000000  0.00000000  0.95760000  1.0
  Li  Li10  1  0.75000000  0.50000000  0.95760000  1.0
  Li  Li11  1  0.79537000  0.00000000  0.13596000  1.0
  Sb  Sb12  2  0.50000000  0.25000000  0.95760000  1.0
  Sb  Sb13  2  0.50446000  0.23356000  0.13691000  1.0
  Sb  Sb14  1  -0.00000000  0.50000000  0.87280000  1.0
  Sb  Sb15  1  0.00000000  0.00000000  0.87280000  1.0
  Sb  Sb16  1  0.00667000  0.50000000  0.04492000  1.0
  Sb  Sb17  1  0.97784000  0.00000000  0.04020000  1.0
  Pd  Pd18  2  0.74076000  0.25698000  0.04834000  1.0
  Pd  Pd19  2  0.75000000  0.25000000  0.87280000  1.0
  Pd  Pd20  1  0.22956000  0.00000000  0.11749000  1.0
  Pd  Pd21  1  0.25000000  0.00000000  0.95760000  1.0
  Pd  Pd22  1  0.25000000  0.50000000  0.95760000  1.0
  Pd  Pd23  1  0.28456000  0.50000000  0.11917000  1.0
  C  C24  1  0.48552000  0.00000000  0.16203000  1.0
