data_image0
_chemical_formula_structural       In16Ag16CO
_chemical_formula_sum              "In16 Ag16 C1 O1"
_cell_length_a       7.14855
_cell_length_b       10.1096
_cell_length_c       27.5822
_cell_angle_alpha    90
_cell_angle_beta     90
_cell_angle_gamma    90

_space_group_name_H-M_alt    "P 1"
_space_group_IT_number       1

loop_
  _space_group_symop_operation_xyz
  'x, y, z'

loop_
  _atom_site_type_symbol
  _atom_site_label
  _atom_site_symmetry_multiplicity
  _atom_site_fract_x
  _atom_site_fract_y
  _atom_site_fract_z
  _atom_site_occupancy
  In  In1       1.0  0.25000  0.25000  0.86255  1.0000
  In  In2       1.0  0.25000  0.00000  0.95418  1.0000
  In  In3       1.0  0.25056  0.25008  0.04508  1.0000
  In  In4       1.0  0.25681  0.50542  0.14341  1.0000
  In  In5       1.0  0.25000  0.75000  0.86255  1.0000
  In  In6       1.0  0.25000  0.50000  0.95418  1.0000
  In  In7       1.0  0.24501  0.74997  0.04412  1.0000
  In  In8       1.0  0.25612  0.99482  0.14356  1.0000
  In  In9       1.0  0.75000  0.25000  0.86255  1.0000
  In  In10      1.0  0.75000  0.00000  0.95418  1.0000
  In  In11      1.0  0.74944  0.25008  0.04508  1.0000
  In  In12      1.0  0.74319  0.50542  0.14341  1.0000
  In  In13      1.0  0.75000  0.75000  0.86255  1.0000
  In  In14      1.0  0.75000  0.50000  0.95418  1.0000
  In  In15      1.0  0.75499  0.74997  0.04412  1.0000
  In  In16      1.0  0.74388  0.99482  0.14356  1.0000
  Ag  Ag1       1.0  0.00000  0.00000  0.86255  1.0000
  Ag  Ag2       1.0  0.00000  0.25000  0.95418  1.0000
  Ag  Ag3       1.0  0.00001  0.49681  0.04881  1.0000
  Ag  Ag4       1.0  0.99999  0.24902  0.13176  1.0000
  Ag  Ag5       1.0  0.00000  0.50000  0.86255  1.0000
  Ag  Ag6       1.0  0.00000  0.75000  0.95418  1.0000
  Ag  Ag7       1.0  1.00000  0.00296  0.04855  1.0000
  Ag  Ag8       1.0  0.00000  0.74991  0.13344  1.0000
  Ag  Ag9       1.0  0.50000  0.00000  0.86255  1.0000
  Ag  Ag10      1.0  0.50000  0.25000  0.95418  1.0000
  Ag  Ag11      1.0  0.50001  0.50306  0.04576  1.0000
  Ag  Ag12      1.0  0.50001  0.24997  0.13176  1.0000
  Ag  Ag13      1.0  0.50000  0.50000  0.86255  1.0000
  Ag  Ag14      1.0  0.50000  0.75000  0.95418  1.0000
  Ag  Ag15      1.0  0.50000  0.99711  0.04589  1.0000
  Ag  Ag16      1.0  0.50000  0.75048  0.12961  1.0000
  C   C1        1.0  0.00000  0.25222  0.22097  1.0000
  O   O1        1.0  1.00000  0.24877  0.26227  1.0000
