# generated using pymatgen
data_In16Ag16CO
_symmetry_space_group_name_H-M   'P 1'
_cell_length_a   10.10960000
_cell_length_b   7.14855000
_cell_length_c   27.58220000
_cell_angle_alpha   90.00000000
_cell_angle_beta   90.00000000
_cell_angle_gamma   90.00000000
_symmetry_Int_Tables_number   1
_chemical_formula_structural   In16Ag16CO
_chemical_formula_sum   'In16 Ag16 C1 O1'
_cell_volume   1993.33748994
_cell_formula_units_Z   1
loop_
 _symmetry_equiv_pos_site_id
 _symmetry_equiv_pos_as_xyz
  1  'x, y, z'
loop_
 _atom_site_type_symbol
 _atom_site_label
 _atom_site_symmetry_multiplicity
 _atom_site_fract_x
 _atom_site_fract_y
 _atom_site_fract_z
 _atom_site_occupancy
  In  In0  1  0.25000000  0.75000000  0.13745000  1.0
  In  In1  1  0.00000000  0.75000000  0.04582000  1.0
  In  In2  1  0.25008000  0.74944000  0.95492000  1.0
  In  In3  1  0.50542000  0.74319000  0.85659000  1.0
  In  In4  1  0.75000000  0.75000000  0.13745000  1.0
  In  In5  1  0.50000000  0.75000000  0.04582000  1.0
  In  In6  1  0.74997000  0.75499000  0.95588000  1.0
  In  In7  1  0.99482000  0.74388000  0.85644000  1.0
  In  In8  1  0.25000000  0.25000000  0.13745000  1.0
  In  In9  1  0.00000000  0.25000000  0.04582000  1.0
  In  In10  1  0.25008000  0.25056000  0.95492000  1.0
  In  In11  1  0.50542000  0.25681000  0.85659000  1.0
  In  In12  1  0.75000000  0.25000000  0.13745000  1.0
  In  In13  1  0.50000000  0.25000000  0.04582000  1.0
  In  In14  1  0.74997000  0.24501000  0.95588000  1.0
  In  In15  1  0.99482000  0.25612000  0.85644000  1.0
  Ag  Ag16  1  0.00000000  0.00000000  0.13745000  1.0
  Ag  Ag17  1  0.25000000  0.00000000  0.04582000  1.0
  Ag  Ag18  1  0.49681000  0.00000000  0.95119000  1.0
  Ag  Ag19  1  0.24902000  0.00000000  0.86824000  1.0
  Ag  Ag20  1  0.50000000  0.00000000  0.13745000  1.0
  Ag  Ag21  1  0.75000000  0.00000000  0.04582000  1.0
  Ag  Ag22  1  0.00296000  0.00000000  0.95145000  1.0
  Ag  Ag23  1  0.74991000  0.00000000  0.86656000  1.0
  Ag  Ag24  1  0.00000000  0.50000000  0.13745000  1.0
  Ag  Ag25  1  0.25000000  0.50000000  0.04582000  1.0
  Ag  Ag26  1  0.50306000  0.50000000  0.95424000  1.0
  Ag  Ag27  1  0.24997000  0.50000000  0.86824000  1.0
  Ag  Ag28  1  0.50000000  0.50000000  0.13745000  1.0
  Ag  Ag29  1  0.75000000  0.50000000  0.04582000  1.0
  Ag  Ag30  1  0.99711000  0.50000000  0.95411000  1.0
  Ag  Ag31  1  0.75048000  0.50000000  0.87039000  1.0
  C  C32  1  0.25222000  0.00000000  0.77903000  1.0
  O  O33  1  0.24877000  0.00000000  0.73773000  1.0
