data_image0
_chemical_formula_structural       Li16Mg8In8C
_chemical_formula_sum              "Li16 Mg8 In8 C1"
_cell_length_a       6.75535
_cell_length_b       9.55351
_cell_length_c       27.1651
_cell_angle_alpha    90
_cell_angle_beta     90
_cell_angle_gamma    90

_space_group_name_H-M_alt    "P 1"
_space_group_IT_number       1

loop_
  _space_group_symop_operation_xyz
  'x, y, z'

loop_
  _atom_site_type_symbol
  _atom_site_label
  _atom_site_symmetry_multiplicity
  _atom_site_fract_x
  _atom_site_fract_y
  _atom_site_fract_z
  _atom_site_occupancy
  Li  Li1       1.0  0.25000  0.00000  0.95604  1.0000
  Li  Li2       1.0  0.75000  0.50000  0.95604  1.0000
  Li  Li3       1.0  0.75000  0.00000  0.95604  1.0000
  Li  Li4       1.0  0.25000  0.50000  0.95604  1.0000
  Li  Li5       1.0  0.75000  0.75000  0.86812  1.0000
  Li  Li6       1.0  0.25000  0.25000  0.86812  1.0000
  Li  Li7       1.0  0.25000  0.75000  0.86812  1.0000
  Li  Li8       1.0  0.75000  0.25000  0.86812  1.0000
  Li  Li9       1.0  0.23187  0.47118  0.13807  1.0000
  Li  Li10      1.0  0.75561  0.97629  0.13426  1.0000
  Li  Li11      1.0  0.75562  0.52372  0.13426  1.0000
  Li  Li12      1.0  0.23180  0.02884  0.13806  1.0000
  Li  Li13      1.0  0.75878  0.25000  0.04148  1.0000
  Li  Li14      1.0  0.25496  0.75000  0.03882  1.0000
  Li  Li15      1.0  0.24117  0.25000  0.05318  1.0000
  Li  Li16      1.0  0.74662  0.75000  0.04520  1.0000
  Mg  Mg1       1.0  0.00000  0.00000  0.86812  1.0000
  Mg  Mg2       1.0  0.50000  0.25000  0.95604  1.0000
  Mg  Mg3       1.0  0.50000  0.75000  0.95604  1.0000
  Mg  Mg4       1.0  0.00000  0.50000  0.86812  1.0000
  Mg  Mg5       1.0  0.00474  0.51011  0.04306  1.0000
  Mg  Mg6       1.0  0.46854  0.75001  0.13080  1.0000
  Mg  Mg7       1.0  0.52670  0.25001  0.12859  1.0000
  Mg  Mg8       1.0  0.00476  0.98990  0.04306  1.0000
  In  In1       1.0  0.00000  0.75000  0.95604  1.0000
  In  In2       1.0  0.50000  0.00000  0.86812  1.0000
  In  In3       1.0  0.00000  0.25000  0.95604  1.0000
  In  In4       1.0  0.50000  0.50000  0.86812  1.0000
  In  In5       1.0  0.92886  0.25000  0.15313  1.0000
  In  In6       1.0  0.50341  0.49905  0.04559  1.0000
  In  In7       1.0  0.01990  0.75000  0.13211  1.0000
  In  In8       1.0  0.50341  0.00095  0.04559  1.0000
  C   C1        1.0  0.22381  0.25001  0.13281  1.0000
