# generated using pymatgen
data_Li16Mg8In8C
_symmetry_space_group_name_H-M   'P 1'
_cell_length_a   9.55351000
_cell_length_b   6.75535000
_cell_length_c   27.16510000
_cell_angle_alpha   90.00000000
_cell_angle_beta   90.00000000
_cell_angle_gamma   90.00000000
_symmetry_Int_Tables_number   1
_chemical_formula_structural   Li16Mg8In8C
_chemical_formula_sum   'Li16 Mg8 In8 C1'
_cell_volume   1753.16231087
_cell_formula_units_Z   1
loop_
 _symmetry_equiv_pos_site_id
 _symmetry_equiv_pos_as_xyz
  1  'x, y, z'
loop_
 _atom_site_type_symbol
 _atom_site_label
 _atom_site_symmetry_multiplicity
 _atom_site_fract_x
 _atom_site_fract_y
 _atom_site_fract_z
 _atom_site_occupancy
  Li  Li0  1  0.74999000  0.25000000  0.04396000  1.0
  Li  Li1  1  0.24999000  0.75000000  0.04396000  1.0
  Li  Li2  1  0.75001000  0.75000000  0.04396000  1.0
  Li  Li3  1  0.25001000  0.25000000  0.04396000  1.0
  Li  Li4  1  0.50000000  0.75000000  0.13188000  1.0
  Li  Li5  1  0.00000000  0.25000000  0.13188000  1.0
  Li  Li6  1  0.50000000  0.25000000  0.13188000  1.0
  Li  Li7  1  0.00000000  0.75000000  0.13188000  1.0
  Li  Li8  1  0.22117000  0.23187000  0.86193000  1.0
  Li  Li9  1  0.72628000  0.75561000  0.86574000  1.0
  Li  Li10  1  0.27372000  0.75561000  0.86574000  1.0
  Li  Li11  1  0.77883000  0.23187000  0.86193000  1.0
  Li  Li12  1  0.00000000  0.75878000  0.95852000  1.0
  Li  Li13  1  0.50000000  0.25496000  0.96118000  1.0
  Li  Li14  1  0.00000000  0.24117000  0.94682000  1.0
  Li  Li15  1  0.50000000  0.74662000  0.95480000  1.0
  Mg  Mg16  1  0.74999000  0.00000000  0.13188000  1.0
  Mg  Mg17  1  0.00000000  0.50000000  0.04396000  1.0
  Mg  Mg18  1  0.50000000  0.50000000  0.04396000  1.0
  Mg  Mg19  1  0.25001000  0.00000000  0.13188000  1.0
  Mg  Mg20  1  0.26010000  0.00474000  0.95694000  1.0
  Mg  Mg21  1  0.50000000  0.46854000  0.86920000  1.0
  Mg  Mg22  1  0.00000000  0.52670000  0.87141000  1.0
  Mg  Mg23  1  0.73990000  0.00474000  0.95694000  1.0
  In  In24  1  0.50000000  0.00000000  0.04396000  1.0
  In  In25  1  0.74999000  0.50000000  0.13188000  1.0
  In  In26  1  0.00000000  0.00000000  0.04396000  1.0
  In  In27  1  0.25001000  0.50000000  0.13188000  1.0
  In  In28  1  0.00000000  0.92886000  0.84687000  1.0
  In  In29  1  0.24904000  0.50341000  0.95441000  1.0
  In  In30  1  0.50000000  0.01990000  0.86789000  1.0
  In  In31  1  0.75096000  0.50341000  0.95441000  1.0
  C  C32  1  0.00000000  0.22381000  0.86719000  1.0
