# generated using pymatgen
data_Li16Mg8In8C
_symmetry_space_group_name_H-M   Pm
_cell_length_a   6.75535000
_cell_length_b   9.55351000
_cell_length_c   27.16510000
_cell_angle_alpha   90.00000000
_cell_angle_beta   90.00000000
_cell_angle_gamma   90.00000000
_symmetry_Int_Tables_number   6
_chemical_formula_structural   Li16Mg8In8C
_chemical_formula_sum   'Li16 Mg8 In8 C1'
_cell_volume   1753.16231087
_cell_formula_units_Z   1
loop_
 _symmetry_equiv_pos_site_id
 _symmetry_equiv_pos_as_xyz
  1  'x, y, z'
  2  'x, -y, z'
loop_
 _atom_site_type_symbol
 _atom_site_label
 _atom_site_symmetry_multiplicity
 _atom_site_fract_x
 _atom_site_fract_y
 _atom_site_fract_z
 _atom_site_occupancy
  Li  Li0  2  0.23187000  0.22117000  0.13807000  1.0
  Li  Li1  2  0.25000000  0.25001000  0.95604000  1.0
  Li  Li2  2  0.75000000  0.24999000  0.95604000  1.0
  Li  Li3  2  0.75561000  0.27372000  0.13426000  1.0
  Li  Li4  1  0.24117000  0.00000000  0.05318000  1.0
  Li  Li5  1  0.25000000  0.00000000  0.86812000  1.0
  Li  Li6  1  0.25000000  0.50000000  0.86812000  1.0
  Li  Li7  1  0.25496000  0.50000000  0.03882000  1.0
  Li  Li8  1  0.74662000  0.50000000  0.04520000  1.0
  Li  Li9  1  0.75000000  0.00000000  0.86812000  1.0
  Li  Li10  1  0.75000000  0.50000000  0.86812000  1.0
  Li  Li11  1  0.75878000  0.00000000  0.04148000  1.0
  Mg  Mg12  2  0.00000000  0.25001000  0.86812000  1.0
  Mg  Mg13  2  0.00474000  0.26010000  0.04306000  1.0
  Mg  Mg14  1  0.46854000  0.50000000  0.13080000  1.0
  Mg  Mg15  1  0.50000000  0.00000000  0.95604000  1.0
  Mg  Mg16  1  0.50000000  0.50000000  0.95604000  1.0
  Mg  Mg17  1  0.52670000  0.00000000  0.12859000  1.0
  In  In18  2  0.50000000  0.25001000  0.86812000  1.0
  In  In19  2  0.50341000  0.24904000  0.04559000  1.0
  In  In20  1  0.00000000  0.00000000  0.95604000  1.0
  In  In21  1  0.00000000  0.50000000  0.95604000  1.0
  In  In22  1  0.01990000  0.50000000  0.13211000  1.0
  In  In23  1  0.92886000  0.00000000  0.15313000  1.0
  C  C24  1  0.22381000  0.00000000  0.13281000  1.0
