# generated using pymatgen
data_Fe12Pt4CO
_symmetry_space_group_name_H-M   P1
_cell_length_a   5.32300000
_cell_length_b   7.52786000
_cell_length_c   23.99230000
_cell_angle_alpha   90.00000000
_cell_angle_beta   90.00000000
_cell_angle_gamma   90.00000000
_symmetry_Int_Tables_number   1
_chemical_formula_structural   Fe12Pt4CO
_chemical_formula_sum   'Fe12 Pt4 C1 O1'
_cell_volume   961.39062557
_cell_formula_units_Z   1
loop_
 _symmetry_equiv_pos_site_id
 _symmetry_equiv_pos_as_xyz
  1  'x, y, z'
loop_
 _atom_site_type_symbol
 _atom_site_label
 _atom_site_symmetry_multiplicity
 _atom_site_fract_x
 _atom_site_fract_y
 _atom_site_fract_z
 _atom_site_occupancy
  Fe  Fe0  1  0.18817000  0.75016000  0.92427000  1.0
  Fe  Fe1  1  0.20161000  0.24979000  0.92739000  1.0
  Fe  Fe2  1  0.25000000  0.25000000  0.02773000  1.0
  Fe  Fe3  1  0.25000000  0.75000000  0.02773000  1.0
  Fe  Fe4  1  0.50000000  0.00000000  0.08320000  1.0
  Fe  Fe5  1  0.50000000  0.50000000  0.08320000  1.0
  Fe  Fe6  1  0.73378000  0.24972000  0.92307000  1.0
  Fe  Fe7  1  0.73936000  0.75027000  0.91810000  1.0
  Fe  Fe8  1  0.75000000  0.25000000  0.02773000  1.0
  Fe  Fe9  1  0.75000000  0.75000000  0.02773000  1.0
  Fe  Fe10  1  0.98223000  0.49853000  0.97490000  1.0
  Fe  Fe11  1  0.98275000  0.00152000  0.97491000  1.0
  Pt  Pt12  1  0.00000000  0.00000000  0.08320000  1.0
  Pt  Pt13  1  0.00000000  0.50000000  0.08320000  1.0
  Pt  Pt14  1  0.48579000  0.50457000  0.96774000  1.0
  Pt  Pt15  1  0.48614000  0.99552000  0.96792000  1.0
  C  C16  1  0.94859000  0.75010000  0.85463000  1.0
  O  O17  1  0.00542000  0.74982000  0.80729000  1.0
