# generated using pymatgen
data_Li8Al8Fe8Pd8C
_symmetry_space_group_name_H-M   'P 1'
_cell_length_a   8.84236000
_cell_length_b   5.67696000
_cell_length_c   26.45530000
_cell_angle_alpha   90.00000000
_cell_angle_beta   90.00000000
_cell_angle_gamma   90.00000000
_symmetry_Int_Tables_number   1
_chemical_formula_structural   Li8Al8Fe8Pd8C
_chemical_formula_sum   'Li8 Al8 Fe8 Pd8 C1'
_cell_volume   1327.99584841
_cell_formula_units_Z   1
loop_
 _symmetry_equiv_pos_site_id
 _symmetry_equiv_pos_as_xyz
  1  'x, y, z'
loop_
 _atom_site_type_symbol
 _atom_site_label
 _atom_site_symmetry_multiplicity
 _atom_site_fract_x
 _atom_site_fract_y
 _atom_site_fract_z
 _atom_site_occupancy
  Li  Li0  1  0.23856000  0.00000000  0.95719000  1.0
  Li  Li1  1  0.25000000  0.00000000  0.12200000  1.0
  Li  Li2  1  0.25862000  0.50000000  0.95810000  1.0
  Li  Li3  1  0.25000000  0.50000000  0.12200000  1.0
  Li  Li4  1  0.75633000  0.00000000  0.95974000  1.0
  Li  Li5  1  0.75000000  0.00000000  0.12200000  1.0
  Li  Li6  1  0.73733000  0.50000000  0.95966000  1.0
  Li  Li7  1  0.75000000  0.50000000  0.12200000  1.0
  Al  Al8  1  0.98530000  0.00000000  0.88262000  1.0
  Al  Al9  1  0.00000000  0.00000000  0.04067000  1.0
  Al  Al10  1  0.98716000  0.50000000  0.87480000  1.0
  Al  Al11  1  1.00000000  0.50000000  0.04067000  1.0
  Al  Al12  1  0.51780000  0.00000000  0.87307000  1.0
  Al  Al13  1  0.50000000  0.00000000  0.04067000  1.0
  Al  Al14  1  0.49516000  0.50000000  0.88249000  1.0
  Al  Al15  1  0.50000000  0.50000000  0.04067000  1.0
  Fe  Fe16  1  0.99986000  0.27713000  0.95918000  1.0
  Fe  Fe17  1  1.00000000  0.25000000  0.12200000  1.0
  Fe  Fe18  1  0.99986000  0.72287000  0.95918000  1.0
  Fe  Fe19  1  1.00000000  0.75000000  0.12200000  1.0
  Fe  Fe20  1  0.49667000  0.22504000  0.95863000  1.0
  Fe  Fe21  1  0.50000000  0.25000000  0.12200000  1.0
  Fe  Fe22  1  0.49667000  0.77496000  0.95863000  1.0
  Fe  Fe23  1  0.50000000  0.75000000  0.12200000  1.0
  Pd  Pd24  1  0.23167000  0.25257000  0.87327000  1.0
  Pd  Pd25  1  0.25000000  0.25000000  0.04067000  1.0
  Pd  Pd26  1  0.23167000  0.74743000  0.87327000  1.0
  Pd  Pd27  1  0.25000000  0.75000000  0.04067000  1.0
  Pd  Pd28  1  0.74677000  0.25377000  0.87996000  1.0
  Pd  Pd29  1  0.75000000  0.25000000  0.04067000  1.0
  Pd  Pd30  1  0.74677000  0.74623000  0.87996000  1.0
  Pd  Pd31  1  0.75000000  0.75000000  0.04067000  1.0
  C  C32  1  0.33031000  0.00000000  0.83325000  1.0
