# generated using pymatgen
data_Sc8Al8Ga8Pd8CO
_symmetry_space_group_name_H-M   'P 1'
_cell_length_a   9.12370000
_cell_length_b   6.45143000
_cell_length_c   26.84280000
_cell_angle_alpha   90.00000000
_cell_angle_beta   90.00000000
_cell_angle_gamma   90.00000000
_symmetry_Int_Tables_number   1
_chemical_formula_structural   Sc8Al8Ga8Pd8CO
_chemical_formula_sum   'Sc8 Al8 Ga8 Pd8 C1 O1'
_cell_volume   1579.99168571
_cell_formula_units_Z   1
loop_
 _symmetry_equiv_pos_site_id
 _symmetry_equiv_pos_as_xyz
  1  'x, y, z'
loop_
 _atom_site_type_symbol
 _atom_site_label
 _atom_site_symmetry_multiplicity
 _atom_site_fract_x
 _atom_site_fract_y
 _atom_site_fract_z
 _atom_site_occupancy
  Sc  Sc0  1  0.75001000  0.00000000  0.04249000  1.0
  Sc  Sc1  1  0.24999000  0.00000000  0.04249000  1.0
  Sc  Sc2  1  0.00000000  0.50000000  0.12746000  1.0
  Sc  Sc3  1  0.50000000  0.50000000  0.12746000  1.0
  Sc  Sc4  1  0.25245000  0.96973000  0.87028000  1.0
  Sc  Sc5  1  0.74755000  0.96973000  0.87028000  1.0
  Sc  Sc6  1  0.50000000  0.50286000  0.95632000  1.0
  Sc  Sc7  1  0.00000000  0.50256000  0.95627000  1.0
  Al  Al8  1  0.50000000  0.00000000  0.12746000  1.0
  Al  Al9  1  0.00000000  0.00000000  0.12746000  1.0
  Al  Al10  1  0.25001000  0.50000000  0.04249000  1.0
  Al  Al11  1  0.74999000  0.50000000  0.04249000  1.0
  Al  Al12  1  0.00000000  0.98599000  0.95405000  1.0
  Al  Al13  1  0.50000000  0.98657000  0.95408000  1.0
  Al  Al14  1  0.75135000  0.49313000  0.87489000  1.0
  Al  Al15  1  0.24865000  0.49313000  0.87489000  1.0
  Ga  Ga16  1  0.50000000  0.75000000  0.04249000  1.0
  Ga  Ga17  1  0.00000000  0.75000000  0.04249000  1.0
  Ga  Ga18  1  0.75001000  0.25000000  0.12746000  1.0
  Ga  Ga19  1  0.24999000  0.25000000  0.12746000  1.0
  Ga  Ga20  1  0.00000000  0.70644000  0.85105000  1.0
  Ga  Ga21  1  0.50000000  0.69647000  0.85026000  1.0
  Ga  Ga22  1  0.25039000  0.23687000  0.95576000  1.0
  Ga  Ga23  1  0.74961000  0.23687000  0.95576000  1.0
  Pd  Pd24  1  0.50000000  0.25000000  0.04249000  1.0
  Pd  Pd25  1  0.00000000  0.25000000  0.04249000  1.0
  Pd  Pd26  1  0.75001000  0.75000000  0.12746000  1.0
  Pd  Pd27  1  0.24999000  0.75000000  0.12746000  1.0
  Pd  Pd28  1  0.00000000  0.24982000  0.87902000  1.0
  Pd  Pd29  1  0.50000000  0.25227000  0.87933000  1.0
  Pd  Pd30  1  0.24954000  0.75354000  0.95874000  1.0
  Pd  Pd31  1  0.75046000  0.75354000  0.95874000  1.0
  C  C32  1  0.50000000  0.64584000  0.74218000  1.0
  O  O33  1  0.50000000  0.76981000  0.71192000  1.0
