# generated using pymatgen
data_Li4Mg4Al4Pd4C
_symmetry_space_group_name_H-M   Cm
_cell_length_a   8.88309965
_cell_length_b   8.88309965
_cell_length_c   24.71100000
_cell_angle_alpha   90.00000000
_cell_angle_beta   90.00000000
_cell_angle_gamma   90.00000000
_symmetry_Int_Tables_number   8
_chemical_formula_structural   Li4Mg4Al4Pd4C
_chemical_formula_sum   'Li8 Mg8 Al8 Pd8 C2'
_cell_volume   1949.93165074
_cell_formula_units_Z   2
loop_
 _symmetry_equiv_pos_site_id
 _symmetry_equiv_pos_as_xyz
  1  'x, y, z'
  2  'x, -y, z'
  3  'x+1/2, y+1/2, z'
  4  'x+1/2, -y+1/2, z'
loop_
 _atom_site_type_symbol
 _atom_site_label
 _atom_site_symmetry_multiplicity
 _atom_site_fract_x
 _atom_site_fract_y
 _atom_site_fract_z
 _atom_site_occupancy
  Li  Li0  4  0.00026500  0.24902500  0.03392000  1.0
  Li  Li1  2  0.25000000  0.50000000  0.90468000  1.0
  Li  Li2  2  0.25000000  0.00000000  0.90468000  1.0
  Mg  Mg3  4  0.25010000  0.25021000  0.10834000  1.0
  Mg  Mg4  2  0.00000000  0.00000000  0.96823000  1.0
  Mg  Mg5  2  0.00000000  0.50000000  0.96823000  1.0
  Al  Al6  4  0.25000000  0.25000000  0.96823000  1.0
  Al  Al7  2  0.02928000  0.50000000  0.09873000  1.0
  Al  Al8  2  0.47206000  0.50000000  0.09899000  1.0
  Pd  Pd9  4  0.00000000  0.25000000  0.90468000  1.0
  Pd  Pd10  2  0.24979000  0.00000000  0.04452000  1.0
  Pd  Pd11  2  0.25023000  0.50000000  0.02225000  1.0
  C  C12  2  0.25098000  0.50000000  0.11708000  1.0
