# generated using pymatgen
data_Li16Ge8Au8C
_symmetry_space_group_name_H-M   'P 1'
_cell_length_a   8.92302000
_cell_length_b   6.30953000
_cell_length_c   26.69230000
_cell_angle_alpha   90.00000000
_cell_angle_beta   90.00000000
_cell_angle_gamma   90.00000000
_symmetry_Int_Tables_number   1
_chemical_formula_structural   Li16Ge8Au8C
_chemical_formula_sum   'Li16 Ge8 Au8 C1'
_cell_volume   1502.77815508
_cell_formula_units_Z   1
loop_
 _symmetry_equiv_pos_site_id
 _symmetry_equiv_pos_as_xyz
  1  'x, y, z'
loop_
 _atom_site_type_symbol
 _atom_site_label
 _atom_site_symmetry_multiplicity
 _atom_site_fract_x
 _atom_site_fract_y
 _atom_site_fract_z
 _atom_site_occupancy
  Li  Li0  1  0.75000000  1.00000000  0.04179000  1.0
  Li  Li1  1  0.00000000  0.50000000  0.12536000  1.0
  Li  Li2  1  0.25000000  1.00000000  0.04179000  1.0
  Li  Li3  1  0.50000000  0.50000000  0.12536000  1.0
  Li  Li4  1  0.25000000  0.25000000  0.12536000  1.0
  Li  Li5  1  0.75000000  0.25000000  0.12536000  1.0
  Li  Li6  1  0.50000000  0.75000000  0.04179000  1.0
  Li  Li7  1  0.00000000  0.75000000  0.04179000  1.0
  Li  Li8  1  0.26312000  0.01497000  0.86875000  1.0
  Li  Li9  1  0.50000000  0.50035000  0.96509000  1.0
  Li  Li10  1  0.73688000  0.01497000  0.86875000  1.0
  Li  Li11  1  0.00000000  0.52292000  0.95498000  1.0
  Li  Li12  1  0.75161000  0.26117000  0.95407000  1.0
  Li  Li13  1  0.24839000  0.26117000  0.95407000  1.0
  Li  Li14  1  0.00000000  0.80379000  0.87797000  1.0
  Li  Li15  1  0.50000000  0.68703000  0.87426000  1.0
  Ge  Ge16  1  0.00000000  0.00000000  0.12536000  1.0
  Ge  Ge17  1  0.25000000  0.50000000  0.04179000  1.0
  Ge  Ge18  1  0.75000000  0.50000000  0.04179000  1.0
  Ge  Ge19  1  0.50000000  1.00000000  0.12536000  1.0
  Ge  Ge20  1  0.50000000  0.00035000  0.95715000  1.0
  Ge  Ge21  1  0.78319000  0.52970000  0.85871000  1.0
  Ge  Ge22  1  0.21681000  0.52970000  0.85871000  1.0
  Ge  Ge23  1  0.00000000  0.98368000  0.96408000  1.0
  Au  Au24  1  0.00000000  0.25000000  0.04179000  1.0
  Au  Au25  1  0.50000000  0.25000000  0.04179000  1.0
  Au  Au26  1  0.75000000  0.75000000  0.12536000  1.0
  Au  Au27  1  0.25000000  0.75000000  0.12536000  1.0
  Au  Au28  1  0.50000000  0.25303000  0.87891000  1.0
  Au  Au29  1  0.00000000  0.21168000  0.88701000  1.0
  Au  Au30  1  0.25625000  0.74579000  0.95304000  1.0
  Au  Au31  1  0.74375000  0.74579000  0.95304000  1.0
  C  C32  1  0.00000000  0.51000000  0.85032000  1.0
