# generated using pymatgen
data_Ti8Al8Ni16CO
_symmetry_space_group_name_H-M   'P 1'
_cell_length_a   5.94410000
_cell_length_b   8.40623000
_cell_length_c   26.30470000
_cell_angle_alpha   90.00000000
_cell_angle_beta   90.00000000
_cell_angle_gamma   90.00000000
_symmetry_Int_Tables_number   1
_chemical_formula_structural   Ti8Al8Ni16CO
_chemical_formula_sum   'Ti8 Al8 Ni16 C1 O1'
_cell_volume   1314.37935396
_cell_formula_units_Z   1
loop_
 _symmetry_equiv_pos_site_id
 _symmetry_equiv_pos_as_xyz
  1  'x, y, z'
loop_
 _atom_site_type_symbol
 _atom_site_label
 _atom_site_symmetry_multiplicity
 _atom_site_fract_x
 _atom_site_fract_y
 _atom_site_fract_z
 _atom_site_occupancy
  Ti  Ti0  1  0.00000000  0.00000000  0.88016000  1.0
  Ti  Ti1  1  0.50000000  0.25000000  0.96005000  1.0
  Ti  Ti2  1  0.50000000  0.75000000  0.96005000  1.0
  Ti  Ti3  1  0.00000000  0.50000000  0.88016000  1.0
  Ti  Ti4  1  0.99946000  0.50000000  0.03853000  1.0
  Ti  Ti5  1  0.50060000  0.74982000  0.12024000  1.0
  Ti  Ti6  1  0.50055000  0.25015000  0.12022000  1.0
  Ti  Ti7  1  0.99960000  0.00000000  0.03955000  1.0
  Al  Al8  1  0.00000000  0.75000000  0.96005000  1.0
  Al  Al9  1  0.50000000  0.00000000  0.88016000  1.0
  Al  Al10  1  0.00000000  0.25000000  0.96005000  1.0
  Al  Al11  1  0.50000000  0.50000000  0.88016000  1.0
  Al  Al12  1  0.99617000  0.25405000  0.11724000  1.0
  Al  Al13  1  0.49922000  0.50000000  0.03878000  1.0
  Al  Al14  1  0.99614000  0.74591000  0.11725000  1.0
  Al  Al15  1  0.49556000  0.00000000  0.04066000  1.0
  Ni  Ni16  1  0.25000000  0.00000000  0.96005000  1.0
  Ni  Ni17  1  0.75000000  0.50000000  0.96005000  1.0
  Ni  Ni18  1  0.75000000  0.00000000  0.96005000  1.0
  Ni  Ni19  1  0.25000000  0.50000000  0.96005000  1.0
  Ni  Ni20  1  0.75000000  0.75000000  0.88016000  1.0
  Ni  Ni21  1  0.25000000  0.25000000  0.88016000  1.0
  Ni  Ni22  1  0.25000000  0.75000000  0.88016000  1.0
  Ni  Ni23  1  0.75000000  0.25000000  0.88016000  1.0
  Ni  Ni24  1  0.24757000  0.50000000  0.11287000  1.0
  Ni  Ni25  1  0.76186000  0.99999000  0.11252000  1.0
  Ni  Ni26  1  0.74913000  0.49999000  0.11327000  1.0
  Ni  Ni27  1  0.23623000  0.99996000  0.12354000  1.0
  Ni  Ni28  1  0.73666000  0.24985000  0.04030000  1.0
  Ni  Ni29  1  0.26211000  0.75132000  0.04120000  1.0
  Ni  Ni30  1  0.26218000  0.24877000  0.04118000  1.0
  Ni  Ni31  1  0.73667000  0.75014000  0.04027000  1.0
  C  C32  1  0.31611000  0.99995000  0.18840000  1.0
  O  O33  1  0.34614000  0.00000000  0.23214000  1.0
