# generated using pymatgen
data_Li16Ga8Ir8CO
_symmetry_space_group_name_H-M   Pmm2
_cell_length_a   5.92875000
_cell_length_b   8.38451000
_cell_length_c   26.28840000
_cell_angle_alpha   90.00000000
_cell_angle_beta   90.00000000
_cell_angle_gamma   90.00000000
_symmetry_Int_Tables_number   25
_chemical_formula_structural   Li16Ga8Ir8CO
_chemical_formula_sum   'Li16 Ga8 Ir8 C1 O1'
_cell_volume   1306.78752223
_cell_formula_units_Z   1
loop_
 _symmetry_equiv_pos_site_id
 _symmetry_equiv_pos_as_xyz
  1  'x, y, z'
  2  '-x, -y, z'
  3  '-x, y, z'
  4  'x, -y, z'
loop_
 _atom_site_type_symbol
 _atom_site_label
 _atom_site_symmetry_multiplicity
 _atom_site_fract_x
 _atom_site_fract_y
 _atom_site_fract_z
 _atom_site_occupancy
  Li  Li0  4  0.23807000  0.25492000  0.14526000  1.0
  Li  Li1  4  0.24999000  0.25000000  0.96013000  1.0
  Li  Li2  2  0.24450000  0.00000000  0.03654000  1.0
  Li  Li3  2  0.24999000  0.00000000  0.88040000  1.0
  Li  Li4  2  0.25001000  0.50000000  0.88040000  1.0
  Li  Li5  2  0.25162000  0.50000000  0.03594000  1.0
  Ga  Ga6  2  0.00000000  0.25000000  0.88040000  1.0
  Ga  Ga7  2  0.00000000  0.25246000  0.05328000  1.0
  Ga  Ga8  1  0.50000000  0.00000000  0.11272000  1.0
  Ga  Ga9  1  0.50000000  0.00000000  0.96013000  1.0
  Ga  Ga10  1  0.50000000  0.50000000  0.11413000  1.0
  Ga  Ga11  1  0.50000000  0.50000000  0.96013000  1.0
  Ir  Ir12  2  0.50000000  0.24839000  0.05749000  1.0
  Ir  Ir13  2  0.50000000  0.25000000  0.88040000  1.0
  Ir  Ir14  1  0.00000000  0.00000000  0.12357000  1.0
  Ir  Ir15  1  0.00000000  0.00000000  0.96013000  1.0
  Ir  Ir16  1  0.00000000  0.50000000  0.11312000  1.0
  Ir  Ir17  1  0.00000000  0.50000000  0.96013000  1.0
  C  C18  1  0.00000000  0.00000000  0.19376000  1.0
  O  O19  1  0.00000000  0.00000000  0.23856000  1.0
