# generated using pymatgen
data_Li8Mg8Ge8Pd8C
_symmetry_space_group_name_H-M   Pm
_cell_length_a   6.25843000
_cell_length_b   8.85076000
_cell_length_c   26.63810000
_cell_angle_alpha   90.00000000
_cell_angle_beta   90.00000000
_cell_angle_gamma   90.00000000
_symmetry_Int_Tables_number   6
_chemical_formula_structural   Li8Mg8Ge8Pd8C
_chemical_formula_sum   'Li8 Mg8 Ge8 Pd8 C1'
_cell_volume   1475.53395666
_cell_formula_units_Z   1
loop_
 _symmetry_equiv_pos_site_id
 _symmetry_equiv_pos_as_xyz
  1  'x, y, z'
  2  'x, -y, z'
loop_
 _atom_site_type_symbol
 _atom_site_label
 _atom_site_symmetry_multiplicity
 _atom_site_fract_x
 _atom_site_fract_y
 _atom_site_fract_z
 _atom_site_occupancy
  Li  Li0  2  0.25000000  0.24999000  0.95847000  1.0
  Li  Li1  2  0.32371000  0.23539000  0.16094000  1.0
  Li  Li2  1  0.75000000  0.00000000  0.87540000  1.0
  Li  Li3  1  0.75000000  0.50000000  0.87540000  1.0
  Li  Li4  1  0.75689000  0.00000000  0.03934000  1.0
  Li  Li5  1  0.75826000  0.50000000  0.04546000  1.0
  Mg  Mg6  2  0.48522000  0.25563000  0.04396000  1.0
  Mg  Mg7  2  0.50000000  0.25001000  0.87540000  1.0
  Mg  Mg8  1  -0.00000000  0.50000000  0.95847000  1.0
  Mg  Mg9  1  -0.00000000  0.00000000  0.95847000  1.0
  Mg  Mg10  1  0.03605000  0.50000000  0.12839000  1.0
  Mg  Mg11  1  0.98397000  0.00000000  0.12919000  1.0
  Ge  Ge12  2  0.00000000  0.24999000  0.87540000  1.0
  Ge  Ge13  2  0.01115000  0.24837000  0.04444000  1.0
  Ge  Ge14  1  0.49723000  0.50000000  0.13202000  1.0
  Ge  Ge15  1  0.50000000  0.00000000  0.95847000  1.0
  Ge  Ge16  1  0.50000000  0.50000000  0.95847000  1.0
  Ge  Ge17  1  0.55597000  0.00000000  0.12481000  1.0
  Pd  Pd18  2  0.74893000  0.26817000  0.11861000  1.0
  Pd  Pd19  2  0.75000000  0.24999000  0.95847000  1.0
  Pd  Pd20  1  0.24319000  0.50000000  0.03793000  1.0
  Pd  Pd21  1  0.25000000  0.00000000  0.87540000  1.0
  Pd  Pd22  1  0.25000000  0.50000000  0.87540000  1.0
  Pd  Pd23  1  0.25382000  0.00000000  0.04439000  1.0
  C  C24  1  0.29302000  0.00000000  0.15367000  1.0
