# generated using pymatgen
data_Y8Mg8In8Pd8C
_symmetry_space_group_name_H-M   P1
_cell_length_a   6.99626000
_cell_length_b   9.89420000
_cell_length_c   27.42070000
_cell_angle_alpha   90.00000000
_cell_angle_beta   90.00000000
_cell_angle_gamma   90.00000000
_symmetry_Int_Tables_number   1
_chemical_formula_structural   Y8Mg8In8Pd8C
_chemical_formula_sum   'Y8 Mg8 In8 Pd8 C1'
_cell_volume   1898.12654555
_cell_formula_units_Z   1
loop_
 _symmetry_equiv_pos_site_id
 _symmetry_equiv_pos_as_xyz
  1  'x, y, z'
loop_
 _atom_site_type_symbol
 _atom_site_label
 _atom_site_symmetry_multiplicity
 _atom_site_fract_x
 _atom_site_fract_y
 _atom_site_fract_z
 _atom_site_occupancy
  Y  Y0  1  0.25000000  0.25000000  0.86469000  1.0
  Y  Y1  1  0.25000000  0.75000000  0.86469000  1.0
  Y  Y2  1  0.25403000  0.24616000  0.04644000  1.0
  Y  Y3  1  0.25403000  0.75385000  0.04644000  1.0
  Y  Y4  1  0.71249000  0.00001000  0.15080000  1.0
  Y  Y5  1  0.75000000  0.00000000  0.95490000  1.0
  Y  Y6  1  0.75000000  0.50000000  0.95490000  1.0
  Y  Y7  1  0.75539000  0.50000000  0.14236000  1.0
  Mg  Mg8  1  0.23688000  0.50000000  0.13318000  1.0
  Mg  Mg9  1  0.25000000  0.00000000  0.95490000  1.0
  Mg  Mg10  1  0.25000000  0.50000000  0.95490000  1.0
  Mg  Mg11  1  0.29441000  0.00001000  0.13355000  1.0
  Mg  Mg12  1  0.72893000  0.25495000  0.05205000  1.0
  Mg  Mg13  1  0.72893000  0.74505000  0.05205000  1.0
  Mg  Mg14  1  0.75000000  0.25000000  0.86469000  1.0
  Mg  Mg15  1  0.75000000  0.75000000  0.86469000  1.0
  In  In16  1  0.00000000  0.00000000  0.86469000  1.0
  In  In17  1  0.00000000  0.50000000  0.86469000  1.0
  In  In18  1  0.46524000  0.26522000  0.15535000  1.0
  In  In19  1  0.46525000  0.73479000  0.15535000  1.0
  In  In20  1  0.50000000  0.25000000  0.95490000  1.0
  In  In21  1  0.50000000  0.75000000  0.95490000  1.0
  In  In22  1  0.95965000  0.00000000  0.05020000  1.0
  In  In23  1  0.98939000  0.50000000  0.04731000  1.0
  Pd  Pd24  1  0.00000000  0.25000000  0.95490000  1.0
  Pd  Pd25  1  0.00000000  0.75000000  0.95490000  1.0
  Pd  Pd26  1  0.01489000  0.75601000  0.12680000  1.0
  Pd  Pd27  1  0.01490000  0.24398000  0.12680000  1.0
  Pd  Pd28  1  0.50000000  0.00000000  0.86469000  1.0
  Pd  Pd29  1  0.50000000  0.50000000  0.86469000  1.0
  Pd  Pd30  1  0.51506000  0.50000000  0.05191000  1.0
  Pd  Pd31  1  0.51946000  0.00000000  0.04632000  1.0
  C  C32  1  0.00501000  0.99991000  0.13129000  1.0
