data_image0
_chemical_formula_structural       In8Ni8CO
_chemical_formula_sum              "In8 Ni8 C1 O1"
_cell_length_a       6.3521
_cell_length_b       6.3521
_cell_length_c       24.7641
_cell_angle_alpha    90
_cell_angle_beta     90
_cell_angle_gamma    90

_space_group_name_H-M_alt    "P 1"
_space_group_IT_number       1

loop_
  _space_group_symop_operation_xyz
  'x, y, z'

loop_
  _atom_site_type_symbol
  _atom_site_label
  _atom_site_symmetry_multiplicity
  _atom_site_fract_x
  _atom_site_fract_y
  _atom_site_fract_z
  _atom_site_occupancy
  In  In1       1.0  0.00000  0.00000  0.91418  1.0000
  In  In2       1.0  0.00130  0.00081  0.04469  1.0000
  In  In3       1.0  0.00000  0.50000  0.91418  1.0000
  In  In4       1.0  0.00129  0.49919  0.04468  1.0000
  In  In5       1.0  0.50000  0.00000  0.91418  1.0000
  In  In6       1.0  0.49870  0.00079  0.04469  1.0000
  In  In7       1.0  0.50000  0.50000  0.91418  1.0000
  In  In8       1.0  0.49871  0.49920  0.04469  1.0000
  Ni  Ni1       1.0  0.25000  0.25000  0.97831  1.0000
  Ni  Ni2       1.0  0.25001  0.25001  0.10501  1.0000
  Ni  Ni3       1.0  0.25000  0.75000  0.97831  1.0000
  Ni  Ni4       1.0  0.24999  0.74999  0.09943  1.0000
  Ni  Ni5       1.0  0.75000  0.25000  0.97831  1.0000
  Ni  Ni6       1.0  0.74999  0.25000  0.09932  1.0000
  Ni  Ni7       1.0  0.75000  0.75000  0.97831  1.0000
  Ni  Ni8       1.0  0.75000  0.75000  0.09837  1.0000
  C   C1        1.0  0.25000  0.25000  0.17655  1.0000
  O   O1        1.0  0.25000  0.25000  0.22309  1.0000
