# generated using pymatgen
data_In8Ni8CO
_symmetry_space_group_name_H-M   Pmm2
_cell_length_a   6.35210000
_cell_length_b   6.35210000
_cell_length_c   24.76410000
_cell_angle_alpha   90.00000000
_cell_angle_beta   90.00000000
_cell_angle_gamma   90.00000000
_symmetry_Int_Tables_number   25
_chemical_formula_structural   In8Ni8CO
_chemical_formula_sum   'In8 Ni8 C1 O1'
_cell_volume   999.21099001
_cell_formula_units_Z   1
loop_
 _symmetry_equiv_pos_site_id
 _symmetry_equiv_pos_as_xyz
  1  'x, y, z'
  2  '-x, -y, z'
  3  '-x, y, z'
  4  'x, -y, z'
loop_
 _atom_site_type_symbol
 _atom_site_label
 _atom_site_symmetry_multiplicity
 _atom_site_fract_x
 _atom_site_fract_y
 _atom_site_fract_z
 _atom_site_occupancy
  In  In0  4  0.24870000  0.24919000  0.04469000  1.0
  In  In1  4  0.25000000  0.25000000  0.91418000  1.0
  Ni  Ni2  1  0.00000000  0.00000000  0.10501000  1.0
  Ni  Ni3  1  0.00000000  0.00000000  0.97831000  1.0
  Ni  Ni4  1  0.00000000  0.50000000  0.09943000  1.0
  Ni  Ni5  1  0.00000000  0.50000000  0.97831000  1.0
  Ni  Ni6  1  0.50000000  0.00000000  0.09932000  1.0
  Ni  Ni7  1  0.50000000  0.00000000  0.97831000  1.0
  Ni  Ni8  1  0.50000000  0.50000000  0.09837000  1.0
  Ni  Ni9  1  0.50000000  0.50000000  0.97831000  1.0
  C  C10  1  0.00000000  0.00000000  0.17655000  1.0
  O  O11  1  0.00000000  0.00000000  0.22309000  1.0
