# generated using pymatgen
data_Mg8Zn8Ag16C
_symmetry_space_group_name_H-M   Pm
_cell_length_a   6.56971000
_cell_length_b   9.29097000
_cell_length_c   26.96820000
_cell_angle_alpha   90.00000000
_cell_angle_beta   90.00000000
_cell_angle_gamma   90.00000000
_symmetry_Int_Tables_number   6
_chemical_formula_structural   Mg8Zn8Ag16C
_chemical_formula_sum   'Mg8 Zn8 Ag16 C1'
_cell_volume   1646.11138049
_cell_formula_units_Z   1
loop_
 _symmetry_equiv_pos_site_id
 _symmetry_equiv_pos_as_xyz
  1  'x, y, z'
  2  'x, -y, z'
loop_
 _atom_site_type_symbol
 _atom_site_label
 _atom_site_symmetry_multiplicity
 _atom_site_fract_x
 _atom_site_fract_y
 _atom_site_fract_z
 _atom_site_occupancy
  Mg  Mg0  2  0.00000000  0.25000000  0.87081000  1.0
  Mg  Mg1  2  0.00274000  0.24900000  0.04262000  1.0
  Mg  Mg2  1  0.47862000  0.50000000  0.13526000  1.0
  Mg  Mg3  1  0.50000000  0.00000000  0.95694000  1.0
  Mg  Mg4  1  0.50000000  0.50000000  0.95694000  1.0
  Mg  Mg5  1  0.54201000  0.00000000  0.14442000  1.0
  Zn  Zn6  2  0.50000000  0.25000000  0.87081000  1.0
  Zn  Zn7  2  0.50166000  0.25111000  0.04407000  1.0
  Zn  Zn8  1  0.00000000  0.00000000  0.95694000  1.0
  Zn  Zn9  1  0.00000000  0.50000000  0.95694000  1.0
  Zn  Zn10  1  0.02491000  0.50000000  0.13097000  1.0
  Zn  Zn11  1  0.94132000  0.00000000  0.13996000  1.0
  Ag  Ag12  2  0.23794000  0.24486000  0.13175000  1.0
  Ag  Ag13  2  0.25000000  0.25000000  0.95694000  1.0
  Ag  Ag14  2  0.75000000  0.25000000  0.95694000  1.0
  Ag  Ag15  2  0.75992000  0.26711000  0.12982000  1.0
  Ag  Ag16  1  0.25000000  0.00000000  0.87081000  1.0
  Ag  Ag17  1  0.25000000  0.50000000  0.87081000  1.0
  Ag  Ag18  1  0.25533000  0.50000000  0.04201000  1.0
  Ag  Ag19  1  0.25632000  0.00000000  0.04600000  1.0
  Ag  Ag20  1  0.74318000  0.00000000  0.04316000  1.0
  Ag  Ag21  1  0.74696000  0.50000000  0.04558000  1.0
  Ag  Ag22  1  0.75000000  0.00000000  0.87081000  1.0
  Ag  Ag23  1  0.75000000  0.50000000  0.87081000  1.0
  C  C24  1  0.23092000  0.00000000  0.13294000  1.0
