# generated using pymatgen
data_ScAlInPd
_symmetry_space_group_name_H-M   Pm
_cell_length_a   5.99150000
_cell_length_b   8.30234000
_cell_length_c   24.49130000
_cell_angle_alpha   90.00000000
_cell_angle_beta   90.00000000
_cell_angle_gamma   90.00000000
_symmetry_Int_Tables_number   6
_chemical_formula_structural   ScAlInPd
_chemical_formula_sum   'Sc4 Al4 In4 Pd4'
_cell_volume   1218.28224951
_cell_formula_units_Z   4
loop_
 _symmetry_equiv_pos_site_id
 _symmetry_equiv_pos_as_xyz
  1  'x, y, z'
  2  'x, -y, z'
loop_
 _atom_site_type_symbol
 _atom_site_label
 _atom_site_symmetry_multiplicity
 _atom_site_fract_x
 _atom_site_fract_y
 _atom_site_fract_z
 _atom_site_occupancy
  Sc  Sc0  1  0.25387000  0.00000000  0.96935000  1.0
  Sc  Sc1  1  0.25395000  0.50000000  0.96932000  1.0
  Sc  Sc2  1  0.77393000  0.00000000  0.09169000  1.0
  Sc  Sc3  1  0.77393000  0.50000000  0.09169000  1.0
  Al  Al4  2  0.01811000  0.24999000  0.91059000  1.0
  Al  Al5  2  0.51595000  0.24999000  0.03056000  1.0
  In  In6  1  0.27393000  0.00000000  0.09169000  1.0
  In  In7  1  0.27393000  0.50000000  0.09169000  1.0
  In  In8  1  0.75952000  0.50000000  0.96009000  1.0
  In  In9  1  0.75958000  0.00000000  0.96009000  1.0
  Pd  Pd10  2  0.01595000  0.24999000  0.03056000  1.0
  Pd  Pd11  2  0.45868000  0.24998000  0.91988000  1.0
