data_image0
_chemical_formula_structural       Li12Bi4C
_chemical_formula_sum              "Li12 Bi4 C1"
_cell_length_a       6.74
_cell_length_b       6.74
_cell_length_c       25.055
_cell_angle_alpha    90
_cell_angle_beta     90
_cell_angle_gamma    90

_space_group_name_H-M_alt    "P 1"
_space_group_IT_number       1

loop_
  _space_group_symop_operation_xyz
  'x, y, z'

loop_
  _atom_site_type_symbol
  _atom_site_label
  _atom_site_symmetry_multiplicity
  _atom_site_fract_x
  _atom_site_fract_y
  _atom_site_fract_z
  _atom_site_occupancy
  Li  Li1       1.0  0.25075  0.25072  0.03562  1.0000
  Li  Li2       1.0  0.75000  0.75000  0.89912  1.0000
  Li  Li3       1.0  0.74983  0.25070  0.03488  1.0000
  Li  Li4       1.0  0.25000  0.75000  0.89912  1.0000
  Li  Li5       1.0  0.74925  0.74925  0.03411  1.0000
  Li  Li6       1.0  0.25000  0.25000  0.89912  1.0000
  Li  Li7       1.0  0.25067  0.74983  0.03488  1.0000
  Li  Li8       1.0  0.75000  0.25000  0.89912  1.0000
  Li  Li9       1.0  0.00000  0.00000  0.96637  1.0000
  Li  Li10      1.0  0.46762  0.03142  0.12496  1.0000
  Li  Li11      1.0  0.03143  0.46762  0.12495  1.0000
  Li  Li12      1.0  0.50000  0.50000  0.96637  1.0000
  Bi  Bi1       1.0  0.01381  0.01382  0.10517  1.0000
  Bi  Bi2       1.0  0.48807  0.48807  0.10536  1.0000
  Bi  Bi3       1.0  0.50000  0.00000  0.96637  1.0000
  Bi  Bi4       1.0  0.00000  0.50000  0.96637  1.0000
  C   C1        1.0  0.25119  0.25117  0.13018  1.0000
