# generated using pymatgen
data_Li12Bi4C
_symmetry_space_group_name_H-M   'P 1'
_cell_length_a   6.74000000
_cell_length_b   6.74000000
_cell_length_c   25.05500000
_cell_angle_alpha   90.00000000
_cell_angle_beta   90.00000000
_cell_angle_gamma   90.00000000
_symmetry_Int_Tables_number   1
_chemical_formula_structural   Li12Bi4C
_chemical_formula_sum   'Li12 Bi4 C1'
_cell_volume   1138.18851800
_cell_formula_units_Z   1
loop_
 _symmetry_equiv_pos_site_id
 _symmetry_equiv_pos_as_xyz
  1  'x, y, z'
loop_
 _atom_site_type_symbol
 _atom_site_label
 _atom_site_symmetry_multiplicity
 _atom_site_fract_x
 _atom_site_fract_y
 _atom_site_fract_z
 _atom_site_occupancy
  Li  Li0  1  0.25072500  0.74927500  0.96438000  1
  Li  Li1  1  0.74999000  0.25001000  0.10088000  1
  Li  Li2  1  0.25070000  0.25019000  0.96512000  1
  Li  Li3  1  0.75000000  0.75002000  0.10088000  1
  Li  Li4  1  0.74924000  0.25076000  0.96589000  1
  Li  Li5  1  0.24999000  0.75001000  0.10088000  1
  Li  Li6  1  0.74981000  0.74930000  0.96512000  1
  Li  Li7  1  0.24998000  0.25000000  0.10088000  1
  Li  Li8  1  0.99999000  0.00001000  0.03363000  1
  Li  Li9  1  0.03142000  0.53240000  0.87504000  1
  Li  Li10  1  0.46760000  0.96858000  0.87504000  1
  Li  Li11  1  0.49999000  0.50001000  0.03363000  1
  Bi  Bi12  1  0.01380500  0.98619500  0.89483000  1
  Bi  Bi13  1  0.48806000  0.51194000  0.89464000  1
  Bi  Bi14  1  1.00000000  0.50002000  0.03363000  1
  Bi  Bi15  1  0.49998000  1.00000000  0.03363000  1
  C  C16  1  0.25117000  0.74883000  0.86982000  1
