# generated using pymatgen
data_Li12Bi4C
_symmetry_space_group_name_H-M   Cm
_cell_length_a   9.53179941
_cell_length_b   9.53179941
_cell_length_c   25.05500000
_cell_angle_alpha   90.00000000
_cell_angle_beta   90.00000000
_cell_angle_gamma   90.00000000
_symmetry_Int_Tables_number   8
_chemical_formula_structural   Li12Bi4C
_chemical_formula_sum   'Li24 Bi8 C2'
_cell_volume   2276.37703600
_cell_formula_units_Z   2
loop_
 _symmetry_equiv_pos_site_id
 _symmetry_equiv_pos_as_xyz
  1  'x, y, z'
  2  'x, -y, z'
  3  'x+1/2, y+1/2, z'
  4  'x+1/2, -y+1/2, z'
loop_
 _atom_site_type_symbol
 _atom_site_label
 _atom_site_symmetry_multiplicity
 _atom_site_fract_x
 _atom_site_fract_y
 _atom_site_fract_z
 _atom_site_occupancy
  Li  Li0  4  0.00025500  0.25044500  0.03488000  1.0
  Li  Li1  4  0.24951000  0.21809000  0.12496000  1.0
  Li  Li2  4  0.49999000  0.25001000  0.89912000  1.0
  Li  Li3  2  0.24924000  0.50000000  0.03411000  1.0
  Li  Li4  2  0.24999000  0.00000000  0.89912000  1.0
  Li  Li5  2  0.24999000  0.50000000  0.89912000  1.0
  Li  Li6  2  0.25072500  0.00000000  0.03562000  1.0
  Li  Li7  2  0.49999000  0.00000000  0.96637000  1.0
  Li  Li8  2  0.49999000  0.50000000  0.96637000  1.0
  Bi  Bi9  4  0.24999000  0.24999000  0.96637000  1.0
  Bi  Bi10  2  0.01380500  0.00000000  0.10517000  1.0
  Bi  Bi11  2  0.48806000  0.00000000  0.10536000  1.0
  C  C12  2  0.25117000  0.00000000  0.13018000  1.0
