data_image0
_chemical_formula_structural       Sc16Ag16CO
_chemical_formula_sum              "Sc16 Ag16 C1 O1"
_cell_length_a       6.93038
_cell_length_b       9.80104
_cell_length_c       27.3508
_cell_angle_alpha    90
_cell_angle_beta     90
_cell_angle_gamma    90

_space_group_name_H-M_alt    "P 1"
_space_group_IT_number       1

loop_
  _space_group_symop_operation_xyz
  'x, y, z'

loop_
  _atom_site_type_symbol
  _atom_site_label
  _atom_site_symmetry_multiplicity
  _atom_site_fract_x
  _atom_site_fract_y
  _atom_site_fract_z
  _atom_site_occupancy
  Sc  Sc1       1.0  0.25000  0.25000  0.86562  1.0000
  Sc  Sc2       1.0  0.25000  0.00000  0.95521  1.0000
  Sc  Sc3       1.0  0.25000  0.24920  0.04416  1.0000
  Sc  Sc4       1.0  0.25000  1.00000  0.13038  1.0000
  Sc  Sc5       1.0  0.25000  0.75000  0.86562  1.0000
  Sc  Sc6       1.0  0.25000  0.50000  0.95521  1.0000
  Sc  Sc7       1.0  0.25000  0.75080  0.04416  1.0000
  Sc  Sc8       1.0  0.25000  0.50000  0.13195  1.0000
  Sc  Sc9       1.0  0.75000  0.25000  0.86562  1.0000
  Sc  Sc10      1.0  0.75000  0.00000  0.95521  1.0000
  Sc  Sc11      1.0  0.75000  0.25072  0.04490  1.0000
  Sc  Sc12      1.0  0.75001  1.00000  0.13469  1.0000
  Sc  Sc13      1.0  0.75000  0.75000  0.86562  1.0000
  Sc  Sc14      1.0  0.75000  0.50000  0.95521  1.0000
  Sc  Sc15      1.0  0.75000  0.74928  0.04489  1.0000
  Sc  Sc16      1.0  0.75000  0.50000  0.13280  1.0000
  Ag  Ag1       1.0  0.00000  0.00000  0.86562  1.0000
  Ag  Ag2       1.0  0.00000  0.25000  0.95521  1.0000
  Ag  Ag3       1.0  0.98944  0.00001  0.04484  1.0000
  Ag  Ag4       1.0  0.00013  0.25058  0.12921  1.0000
  Ag  Ag5       1.0  0.00000  0.50000  0.86562  1.0000
  Ag  Ag6       1.0  0.00000  0.75000  0.95521  1.0000
  Ag  Ag7       1.0  0.00005  0.49999  0.04479  1.0000
  Ag  Ag8       1.0  0.00012  0.74942  0.12921  1.0000
  Ag  Ag9       1.0  0.50000  0.00000  0.86562  1.0000
  Ag  Ag10      1.0  0.50000  0.25000  0.95521  1.0000
  Ag  Ag11      1.0  0.51057  0.00001  0.04484  1.0000
  Ag  Ag12      1.0  0.49987  0.25058  0.12921  1.0000
  Ag  Ag13      1.0  0.50000  0.50000  0.86562  1.0000
  Ag  Ag14      1.0  0.50000  0.75000  0.95521  1.0000
  Ag  Ag15      1.0  0.49995  0.49999  0.04479  1.0000
  Ag  Ag16      1.0  0.49988  0.74942  0.12921  1.0000
  C   C1        1.0  0.25000  1.00000  0.21293  1.0000
  O   O1        1.0  0.25000  0.00000  0.25520  1.0000
