# generated using pymatgen
data_Sc16Ag16CO
_symmetry_space_group_name_H-M   'P 1'
_cell_length_a   6.93038000
_cell_length_b   9.80104000
_cell_length_c   27.35080000
_cell_angle_alpha   90.00000000
_cell_angle_beta   90.00000000
_cell_angle_gamma   90.00000000
_symmetry_Int_Tables_number   1
_chemical_formula_structural   Sc16Ag16CO
_chemical_formula_sum   'Sc16 Ag16 C1 O1'
_cell_volume   1857.80121907
_cell_formula_units_Z   1
loop_
 _symmetry_equiv_pos_site_id
 _symmetry_equiv_pos_as_xyz
  1  'x, y, z'
loop_
 _atom_site_type_symbol
 _atom_site_label
 _atom_site_symmetry_multiplicity
 _atom_site_fract_x
 _atom_site_fract_y
 _atom_site_fract_z
 _atom_site_occupancy
  Sc  Sc0  1  0.00000000  0.25000000  0.86562000  1.0
  Sc  Sc1  1  0.00000000  0.00000000  0.95521000  1.0
  Sc  Sc2  1  0.00000000  0.24920000  0.04416000  1.0
  Sc  Sc3  1  0.00000000  0.00000000  0.13038000  1.0
  Sc  Sc4  1  0.00000000  0.75000000  0.86562000  1.0
  Sc  Sc5  1  0.00000000  0.50000000  0.95521000  1.0
  Sc  Sc6  1  0.00000000  0.75080000  0.04416000  1.0
  Sc  Sc7  1  0.00000000  0.50000000  0.13195000  1.0
  Sc  Sc8  1  0.50000000  0.25000000  0.86562000  1.0
  Sc  Sc9  1  0.50000000  0.00000000  0.95521000  1.0
  Sc  Sc10  1  0.50000000  0.25072000  0.04490000  1.0
  Sc  Sc11  1  0.50000000  0.00000000  0.13469000  1.0
  Sc  Sc12  1  0.50000000  0.75000000  0.86562000  1.0
  Sc  Sc13  1  0.50000000  0.50000000  0.95521000  1.0
  Sc  Sc14  1  0.50000000  0.74928000  0.04490000  1.0
  Sc  Sc15  1  0.50000000  0.50000000  0.13280000  1.0
  Ag  Ag16  1  0.75000000  0.00000000  0.86562000  1.0
  Ag  Ag17  1  0.75000000  0.25000000  0.95521000  1.0
  Ag  Ag18  1  0.73944000  0.00000000  0.04484000  1.0
  Ag  Ag19  1  0.75013000  0.25058000  0.12921000  1.0
  Ag  Ag20  1  0.75000000  0.50000000  0.86562000  1.0
  Ag  Ag21  1  0.75000000  0.75000000  0.95521000  1.0
  Ag  Ag22  1  0.75005000  0.50000000  0.04479000  1.0
  Ag  Ag23  1  0.75013000  0.74942000  0.12921000  1.0
  Ag  Ag24  1  0.25000000  0.00000000  0.86562000  1.0
  Ag  Ag25  1  0.25000000  0.25000000  0.95521000  1.0
  Ag  Ag26  1  0.26056000  0.00000000  0.04484000  1.0
  Ag  Ag27  1  0.24987000  0.25058000  0.12921000  1.0
  Ag  Ag28  1  0.25000000  0.50000000  0.86562000  1.0
  Ag  Ag29  1  0.25000000  0.75000000  0.95521000  1.0
  Ag  Ag30  1  0.24995000  0.50000000  0.04479000  1.0
  Ag  Ag31  1  0.24987000  0.74942000  0.12921000  1.0
  C  C32  1  0.00000000  0.00000000  0.21293000  1.0
  O  O33  1  0.00000000  0.00000000  0.25520000  1.0
