# generated using pymatgen
data_Sc16Ag16CO
_symmetry_space_group_name_H-M   Pmm2
_cell_length_a   6.93038000
_cell_length_b   9.80104000
_cell_length_c   27.35080000
_cell_angle_alpha   90.00000000
_cell_angle_beta   90.00000000
_cell_angle_gamma   90.00000000
_symmetry_Int_Tables_number   25
_chemical_formula_structural   Sc16Ag16CO
_chemical_formula_sum   'Sc16 Ag16 C1 O1'
_cell_volume   1857.80121907
_cell_formula_units_Z   1
loop_
 _symmetry_equiv_pos_site_id
 _symmetry_equiv_pos_as_xyz
  1  'x, y, z'
  2  '-x, -y, z'
  3  '-x, y, z'
  4  'x, -y, z'
loop_
 _atom_site_type_symbol
 _atom_site_label
 _atom_site_symmetry_multiplicity
 _atom_site_fract_x
 _atom_site_fract_y
 _atom_site_fract_z
 _atom_site_occupancy
  Sc  Sc0  2  0.00000000  0.24920000  0.04416000  1.0
  Sc  Sc1  2  0.00000000  0.25000000  0.86562000  1.0
  Sc  Sc2  2  0.50000000  0.25000000  0.86562000  1.0
  Sc  Sc3  2  0.50000000  0.25072000  0.04490000  1.0
  Sc  Sc4  1  0.00000000  0.00000000  0.13038000  1.0
  Sc  Sc5  1  0.00000000  0.00000000  0.95521000  1.0
  Sc  Sc6  1  0.00000000  0.50000000  0.13195000  1.0
  Sc  Sc7  1  0.00000000  0.50000000  0.95521000  1.0
  Sc  Sc8  1  0.50000000  0.00000000  0.13469000  1.0
  Sc  Sc9  1  0.50000000  0.00000000  0.95521000  1.0
  Sc  Sc10  1  0.50000000  0.50000000  0.13280000  1.0
  Sc  Sc11  1  0.50000000  0.50000000  0.95521000  1.0
  Ag  Ag12  4  0.24987000  0.25058000  0.12921000  1.0
  Ag  Ag13  4  0.25000000  0.25000000  0.95521000  1.0
  Ag  Ag14  2  0.24995000  0.50000000  0.04479000  1.0
  Ag  Ag15  2  0.25000000  0.00000000  0.86562000  1.0
  Ag  Ag16  2  0.25000000  0.50000000  0.86562000  1.0
  Ag  Ag17  2  0.26056000  0.00000000  0.04484000  1.0
  C  C18  1  0.00000000  0.00000000  0.21293000  1.0
  O  O19  1  0.00000000  0.00000000  0.25520000  1.0
