# generated using pymatgen
data_Li16Cu8Sb8C
_symmetry_space_group_name_H-M   'P 1'
_cell_length_a   9.01500000
_cell_length_b   6.37457000
_cell_length_c   26.76130000
_cell_angle_alpha   90.00000000
_cell_angle_beta   90.00000000
_cell_angle_gamma   90.00000000
_symmetry_Int_Tables_number   1
_chemical_formula_structural   Li16Cu8Sb8C
_chemical_formula_sum   'Li16 Cu8 Sb8 C1'
_cell_volume   1537.88489797
_cell_formula_units_Z   1
loop_
 _symmetry_equiv_pos_site_id
 _symmetry_equiv_pos_as_xyz
  1  'x, y, z'
loop_
 _atom_site_type_symbol
 _atom_site_label
 _atom_site_symmetry_multiplicity
 _atom_site_fract_x
 _atom_site_fract_y
 _atom_site_fract_z
 _atom_site_occupancy
  Li  Li0  1  0.50000000  1.00000000  0.04211000  1.0
  Li  Li1  1  0.75000000  0.50000000  0.12633000  1.0
  Li  Li2  1  0.00000000  1.00000000  0.04211000  1.0
  Li  Li3  1  0.25000000  0.50000000  0.12633000  1.0
  Li  Li4  1  0.75000000  0.25000000  0.04211000  1.0
  Li  Li5  1  0.25000000  0.25000000  0.04211000  1.0
  Li  Li6  1  0.50000000  0.75000000  0.12633000  1.0
  Li  Li7  1  0.00000000  0.75000000  0.12633000  1.0
  Li  Li8  1  0.00000000  0.99251000  0.81963000  1.0
  Li  Li9  1  0.24947000  0.50832000  0.95737000  1.0
  Li  Li10  1  0.50000000  0.97501000  0.85992000  1.0
  Li  Li11  1  0.75053000  0.50832000  0.95737000  1.0
  Li  Li12  1  0.24892000  0.24881000  0.87812000  1.0
  Li  Li13  1  0.75108000  0.24881000  0.87812000  1.0
  Li  Li14  1  0.00000000  0.77311000  0.94751000  1.0
  Li  Li15  1  0.50000000  0.76564000  0.96139000  1.0
  Cu  Cu16  1  0.75000000  0.00000000  0.12633000  1.0
  Cu  Cu17  1  0.00000000  0.50000000  0.04211000  1.0
  Cu  Cu18  1  0.50000000  0.50000000  0.04211000  1.0
  Cu  Cu19  1  0.25000000  0.00000000  0.12633000  1.0
  Cu  Cu20  1  0.24931000  0.99286000  0.95912000  1.0
  Cu  Cu21  1  0.50000000  0.53981000  0.88171000  1.0
  Cu  Cu22  1  0.00000000  0.45834000  0.87646000  1.0
  Cu  Cu23  1  0.75069000  0.99286000  0.95912000  1.0
  Sb  Sb24  1  0.00000000  0.25000000  0.12633000  1.0
  Sb  Sb25  1  0.50000000  0.25000000  0.12633000  1.0
  Sb  Sb26  1  0.25000000  0.75000000  0.04211000  1.0
  Sb  Sb27  1  0.75000000  0.75000000  0.04211000  1.0
  Sb  Sb28  1  0.50000000  0.24110000  0.95197000  1.0
  Sb  Sb29  1  0.00000000  0.24036000  0.95702000  1.0
  Sb  Sb30  1  0.76020000  0.76917000  0.87106000  1.0
  Sb  Sb31  1  0.23980000  0.76917000  0.87106000  1.0
  C  C32  1  0.00000000  0.67916000  0.83150000  1.0
