# generated using pymatgen
data_Li16Cu8Sb8C
_symmetry_space_group_name_H-M   Pm
_cell_length_a   6.37457000
_cell_length_b   9.01500000
_cell_length_c   26.76130000
_cell_angle_alpha   90.00000000
_cell_angle_beta   90.00000000
_cell_angle_gamma   90.00000000
_symmetry_Int_Tables_number   6
_chemical_formula_structural   Li16Cu8Sb8C
_chemical_formula_sum   'Li16 Cu8 Sb8 C1'
_cell_volume   1537.88489797
_cell_formula_units_Z   1
loop_
 _symmetry_equiv_pos_site_id
 _symmetry_equiv_pos_as_xyz
  1  'x, y, z'
  2  'x, -y, z'
loop_
 _atom_site_type_symbol
 _atom_site_label
 _atom_site_symmetry_multiplicity
 _atom_site_fract_x
 _atom_site_fract_y
 _atom_site_fract_z
 _atom_site_occupancy
  Li  Li0  2  0.24881000  0.24892000  0.12188000  1.0
  Li  Li1  2  0.25000000  0.25000000  0.95789000  1.0
  Li  Li2  2  0.50000000  0.25000000  0.87367000  1.0
  Li  Li3  2  0.50832000  0.24947000  0.04263000  1.0
  Li  Li4  1  -0.00000000  0.50000000  0.95789000  1.0
  Li  Li5  1  -0.00000000  0.00000000  0.95789000  1.0
  Li  Li6  1  0.75000000  0.00000000  0.87367000  1.0
  Li  Li7  1  0.75000000  0.50000000  0.87367000  1.0
  Li  Li8  1  0.76564000  0.50000000  0.03861000  1.0
  Li  Li9  1  0.77311000  0.00000000  0.05249000  1.0
  Li  Li10  1  0.97501000  0.50000000  0.14008000  1.0
  Li  Li11  1  0.99251000  0.00000000  0.18037000  1.0
  Cu  Cu12  2  0.00000000  0.25000000  0.87367000  1.0
  Cu  Cu13  2  0.99286000  0.24931000  0.04088000  1.0
  Cu  Cu14  1  0.45834000  0.00000000  0.12354000  1.0
  Cu  Cu15  1  0.50000000  0.00000000  0.95789000  1.0
  Cu  Cu16  1  0.50000000  0.50000000  0.95789000  1.0
  Cu  Cu17  1  0.53981000  0.50000000  0.11829000  1.0
  Sb  Sb18  2  0.75000000  0.25000000  0.95789000  1.0
  Sb  Sb19  2  0.76917000  0.23980000  0.12894000  1.0
  Sb  Sb20  1  0.24036000  0.00000000  0.04298000  1.0
  Sb  Sb21  1  0.24110000  0.50000000  0.04803000  1.0
  Sb  Sb22  1  0.25000000  0.00000000  0.87367000  1.0
  Sb  Sb23  1  0.25000000  0.50000000  0.87367000  1.0
  C  C24  1  0.67916000  0.00000000  0.16850000  1.0
