# generated using pymatgen
data_MgNi2Sb
_symmetry_space_group_name_H-M   'P 1'
_cell_length_a   6.21377000
_cell_length_b   6.21377000
_cell_length_c   24.66030000
_cell_angle_alpha   90.00000000
_cell_angle_beta   90.00000000
_cell_angle_gamma   90.00000000
_symmetry_Int_Tables_number   1
_chemical_formula_structural   MgNi2Sb
_chemical_formula_sum   'Mg4 Ni8 Sb4'
_cell_volume   952.15730482
_cell_formula_units_Z   4
loop_
 _symmetry_equiv_pos_site_id
 _symmetry_equiv_pos_as_xyz
  1  'x, y, z'
loop_
 _atom_site_type_symbol
 _atom_site_label
 _atom_site_symmetry_multiplicity
 _atom_site_fract_x
 _atom_site_fract_y
 _atom_site_fract_z
 _atom_site_occupancy
  Mg  Mg0  1  0.00161000  0.99921000  0.09451000  1.0
  Mg  Mg1  1  0.50045000  0.49938000  0.09511000  1.0
  Mg  Mg2  1  0.50000000  0.00000000  0.96850000  1.0
  Mg  Mg3  1  1.00000000  0.50000000  0.96850000  1.0
  Ni  Ni4  1  0.25110000  0.25117000  0.03534000  1.0
  Ni  Ni5  1  0.75000000  0.75000000  0.90551000  1.0
  Ni  Ni6  1  0.74940000  0.24962000  0.03550000  1.0
  Ni  Ni7  1  0.25000000  0.75000000  0.90551000  1.0
  Ni  Ni8  1  0.74994000  0.74935000  0.03518000  1.0
  Ni  Ni9  1  0.25000000  0.25000000  0.90551000  1.0
  Ni  Ni10  1  0.25068000  0.74761000  0.03549000  1.0
  Ni  Ni11  1  0.75000000  0.25000000  0.90551000  1.0
  Sb  Sb12  1  0.00000000  0.00000000  0.96850000  1.0
  Sb  Sb13  1  0.50030000  0.99926000  0.09841000  1.0
  Sb  Sb14  1  0.99973000  0.49913000  0.09844000  1.0
  Sb  Sb15  1  0.50000000  0.50000000  0.96850000  1.0
