data_image0
_chemical_formula_structural       Y8Mg8Sn8Pd8C
_chemical_formula_sum              "Y8 Mg8 Sn8 Pd8 C1"
_cell_length_a       7.00634
_cell_length_b       9.90846
_cell_length_c       27.4313
_cell_angle_alpha    90
_cell_angle_beta     90
_cell_angle_gamma    90

_space_group_name_H-M_alt    "P 1"
_space_group_IT_number       1

loop_
  _space_group_symop_operation_xyz
  'x, y, z'

loop_
  _atom_site_type_symbol
  _atom_site_label
  _atom_site_symmetry_multiplicity
  _atom_site_fract_x
  _atom_site_fract_y
  _atom_site_fract_z
  _atom_site_occupancy
  Y   Y1        1.0  0.00000  0.25000  0.95485  1.0000
  Y   Y2        1.0  0.00000  0.75000  0.95485  1.0000
  Y   Y3        1.0  0.50000  0.50000  0.86455  1.0000
  Y   Y4        1.0  0.50000  0.00000  0.86455  1.0000
  Y   Y5        1.0  0.05469  0.70152  0.13498  1.0000
  Y   Y6        1.0  0.05469  0.29848  0.13498  1.0000
  Y   Y7        1.0  0.49272  1.00000  0.05591  1.0000
  Y   Y8        1.0  0.46296  0.50000  0.05488  1.0000
  Mg  Mg1       1.0  0.00000  0.00000  0.86455  1.0000
  Mg  Mg2       1.0  0.00000  0.50000  0.86455  1.0000
  Mg  Mg3       1.0  0.50000  0.75000  0.95485  1.0000
  Mg  Mg4       1.0  0.50000  0.25000  0.95485  1.0000
  Mg  Mg5       1.0  0.99000  0.50000  0.04098  1.0000
  Mg  Mg6       1.0  0.00727  0.00000  0.05101  1.0000
  Mg  Mg7       1.0  0.54424  0.22928  0.14489  1.0000
  Mg  Mg8       1.0  0.54424  0.77072  0.14490  1.0000
  Sn  Sn1       1.0  0.25000  0.00000  0.95485  1.0000
  Sn  Sn2       1.0  0.25000  0.50000  0.95485  1.0000
  Sn  Sn3       1.0  0.75000  0.25000  0.86455  1.0000
  Sn  Sn4       1.0  0.75000  0.75000  0.86455  1.0000
  Sn  Sn5       1.0  0.37508  0.50000  0.17361  1.0000
  Sn  Sn6       1.0  0.21819  0.00000  0.15989  1.0000
  Sn  Sn7       1.0  0.75198  0.74394  0.04812  1.0000
  Sn  Sn8       1.0  0.75197  0.25607  0.04812  1.0000
  Pd  Pd1       1.0  0.75000  0.00000  0.95485  1.0000
  Pd  Pd2       1.0  0.75000  0.50000  0.95485  1.0000
  Pd  Pd3       1.0  0.25000  0.25000  0.86455  1.0000
  Pd  Pd4       1.0  0.25000  0.75000  0.86455  1.0000
  Pd  Pd5       1.0  0.74876  0.50000  0.12727  1.0000
  Pd  Pd6       1.0  0.82360  0.00000  0.14155  1.0000
  Pd  Pd7       1.0  0.24034  0.75488  0.04057  1.0000
  Pd  Pd8       1.0  0.24034  0.24512  0.04057  1.0000
  C   C1        1.0  0.52647  1.00000  0.14102  1.0000
