# generated using pymatgen
data_LiAlInCu
_symmetry_space_group_name_H-M   Pm
_cell_length_a   6.37467000
_cell_length_b   4.50757000
_cell_length_c   26.76140000
_cell_angle_alpha   90.00000000
_cell_angle_beta   90.00000000
_cell_angle_gamma   90.00000000
_symmetry_Int_Tables_number   6
_chemical_formula_structural   LiAlInCu
_chemical_formula_sum   'Li4 Al4 In4 Cu4'
_cell_volume   768.96932668
_cell_formula_units_Z   4
loop_
 _symmetry_equiv_pos_site_id
 _symmetry_equiv_pos_as_xyz
  1  'x, y, z'
  2  'x, -y, z'
loop_
 _atom_site_type_symbol
 _atom_site_label
 _atom_site_symmetry_multiplicity
 _atom_site_fract_x
 _atom_site_fract_y
 _atom_site_fract_z
 _atom_site_occupancy
  Li  Li0  1  0.25000000  0.00000000  0.04211000  1.0
  Li  Li1  1  0.28984000  0.00000000  0.84408500  1.0
  Li  Li2  1  0.75000000  0.50000000  0.12633000  1.0
  Li  Li3  1  0.77094500  0.50000000  0.95586000  1.0
  Al  Al4  1  0.00000000  0.00000000  0.12633000  1.0
  Al  Al5  1  0.02392500  0.00000000  0.94746000  1.0
  Al  Al6  1  0.50000000  0.50000000  0.04211000  1.0
  Al  Al7  1  0.52195000  0.50000000  0.87201000  1.0
  In  In8  1  0.00000000  0.50000000  0.04211000  1.0
  In  In9  1  0.01245000  0.50000000  0.86190000  1.0
  In  In10  1  0.49453000  0.00000000  0.95473000  1.0
  In  In11  1  0.50000000  0.00000000  0.12633000  1.0
  Cu  Cu12  1  0.24614000  0.50000000  0.95965000  1.0
  Cu  Cu13  1  0.25000000  0.50000000  0.12633000  1.0
  Cu  Cu14  1  0.74846500  0.00000000  0.87639000  1.0
  Cu  Cu15  1  0.75000000  0.00000000  0.04211000  1.0
