# generated using pymatgen
data_Li8Sc8In8Pd8C
_symmetry_space_group_name_H-M   'P 1'
_cell_length_a   9.31984000
_cell_length_b   6.59012000
_cell_length_c   26.98990000
_cell_angle_alpha   90.00000000
_cell_angle_beta   90.00000000
_cell_angle_gamma   90.00000000
_symmetry_Int_Tables_number   1
_chemical_formula_structural   Li8Sc8In8Pd8C
_chemical_formula_sum   'Li8 Sc8 In8 Pd8 C1'
_cell_volume   1657.68899696
_cell_formula_units_Z   1
loop_
 _symmetry_equiv_pos_site_id
 _symmetry_equiv_pos_as_xyz
  1  'x, y, z'
loop_
 _atom_site_type_symbol
 _atom_site_label
 _atom_site_symmetry_multiplicity
 _atom_site_fract_x
 _atom_site_fract_y
 _atom_site_fract_z
 _atom_site_occupancy
  Li  Li0  1  0.75000000  0.75000000  0.04316000  1.0
  Li  Li1  1  0.25000000  0.75000000  0.04316000  1.0
  Li  Li2  1  0.00000000  0.25000000  0.12949000  1.0
  Li  Li3  1  0.50000000  0.25000000  0.12949000  1.0
  Li  Li4  1  0.28420000  0.63770000  0.81698000  1.0
  Li  Li5  1  0.71580000  0.63770000  0.81698000  1.0
  Li  Li6  1  0.50000000  0.26142000  0.95908000  1.0
  Li  Li7  1  0.00000000  0.24401000  0.94181000  1.0
  Sc  Sc8  1  0.00000000  1.00000000  0.04316000  1.0
  Sc  Sc9  1  0.50000000  1.00000000  0.04316000  1.0
  Sc  Sc10  1  0.25000000  0.50000000  0.12949000  1.0
  Sc  Sc11  1  0.75000000  0.50000000  0.12949000  1.0
  Sc  Sc12  1  0.50000000  0.98232000  0.87796000  1.0
  Sc  Sc13  1  0.00000000  0.90185000  0.87221000  1.0
  Sc  Sc14  1  0.75232000  0.52003000  0.94994000  1.0
  Sc  Sc15  1  0.24768000  0.52003000  0.94994000  1.0
  In  In16  1  0.75000000  0.00000000  0.12949000  1.0
  In  In17  1  0.25000000  0.00000000  0.12949000  1.0
  In  In18  1  0.50000000  0.50000000  0.04316000  1.0
  In  In19  1  0.00000000  0.50000000  0.04316000  1.0
  In  In20  1  0.25081000  0.00152000  0.95578000  1.0
  In  In21  1  0.74919000  0.00152000  0.95578000  1.0
  In  In22  1  0.00000000  0.49743000  0.82305000  1.0
  In  In23  1  0.50000000  0.47960000  0.87095000  1.0
  Pd  Pd24  1  0.75000000  0.25000000  0.04316000  1.0
  Pd  Pd25  1  0.25000000  0.25000000  0.04316000  1.0
  Pd  Pd26  1  0.00000000  0.75000000  0.12949000  1.0
  Pd  Pd27  1  0.50000000  0.75000000  0.12949000  1.0
  Pd  Pd28  1  0.22631000  0.26520000  0.87427000  1.0
  Pd  Pd29  1  0.77369000  0.26520000  0.87427000  1.0
  Pd  Pd30  1  0.50000000  0.74937000  0.95967000  1.0
  Pd  Pd31  1  0.00000000  0.75539000  0.96367000  1.0
  C  C32  1  0.00000000  0.20748000  0.86111000  1.0
