# generated using pymatgen
data_Li8Sc8In8Pd8C
_symmetry_space_group_name_H-M   Pm
_cell_length_a   6.59012000
_cell_length_b   9.31984000
_cell_length_c   26.98990000
_cell_angle_alpha   90.00000000
_cell_angle_beta   90.00000000
_cell_angle_gamma   90.00000000
_symmetry_Int_Tables_number   6
_chemical_formula_structural   Li8Sc8In8Pd8C
_chemical_formula_sum   'Li8 Sc8 In8 Pd8 C1'
_cell_volume   1657.68899696
_cell_formula_units_Z   1
loop_
 _symmetry_equiv_pos_site_id
 _symmetry_equiv_pos_as_xyz
  1  'x, y, z'
  2  'x, -y, z'
loop_
 _atom_site_type_symbol
 _atom_site_label
 _atom_site_symmetry_multiplicity
 _atom_site_fract_x
 _atom_site_fract_y
 _atom_site_fract_z
 _atom_site_occupancy
  Li  Li0  2  0.63770000  0.28420000  0.18302000  1.0
  Li  Li1  2  0.75000000  0.25000000  0.95684000  1.0
  Li  Li2  1  0.24401000  0.00000000  0.05819000  1.0
  Li  Li3  1  0.25000000  0.00000000  0.87051000  1.0
  Li  Li4  1  0.25000000  0.50000000  0.87051000  1.0
  Li  Li5  1  0.26142000  0.50000000  0.04092000  1.0
  Sc  Sc6  2  0.50000000  0.25000000  0.87051000  1.0
  Sc  Sc7  2  0.52003000  0.24768000  0.05006000  1.0
  Sc  Sc8  1  -0.00000000  0.50000000  0.95684000  1.0
  Sc  Sc9  1  -0.00000000  0.00000000  0.95684000  1.0
  Sc  Sc10  1  0.90185000  0.00000000  0.12779000  1.0
  Sc  Sc11  1  0.98232000  0.50000000  0.12204000  1.0
  In  In12  2  0.00000000  0.25000000  0.87051000  1.0
  In  In13  2  0.00152000  0.25081000  0.04422000  1.0
  In  In14  1  0.47960000  0.50000000  0.12905000  1.0
  In  In15  1  0.49743000  0.00000000  0.17695000  1.0
  In  In16  1  0.50000000  0.00000000  0.95684000  1.0
  In  In17  1  0.50000000  0.50000000  0.95684000  1.0
  Pd  Pd18  2  0.25000000  0.25000000  0.95684000  1.0
  Pd  Pd19  2  0.26520000  0.22631000  0.12573000  1.0
  Pd  Pd20  1  0.74937000  0.50000000  0.04033000  1.0
  Pd  Pd21  1  0.75000000  0.00000000  0.87051000  1.0
  Pd  Pd22  1  0.75000000  0.50000000  0.87051000  1.0
  Pd  Pd23  1  0.75539000  0.00000000  0.03633000  1.0
  C  C24  1  0.20748000  0.00000000  0.13889000  1.0
