# generated using pymatgen
data_LiZnAgGe
_symmetry_space_group_name_H-M   'P 1'
_cell_length_a   6.35563000
_cell_length_b   4.49411000
_cell_length_c   26.74120000
_cell_angle_alpha   90.00000000
_cell_angle_beta   90.00000000
_cell_angle_gamma   90.00000000
_symmetry_Int_Tables_number   1
_chemical_formula_structural   LiZnAgGe
_chemical_formula_sum   'Li4 Zn4 Ag4 Ge4'
_cell_volume   763.80623055
_cell_formula_units_Z   4
loop_
 _symmetry_equiv_pos_site_id
 _symmetry_equiv_pos_as_xyz
  1  'x, y, z'
loop_
 _atom_site_type_symbol
 _atom_site_label
 _atom_site_symmetry_multiplicity
 _atom_site_fract_x
 _atom_site_fract_y
 _atom_site_fract_z
 _atom_site_occupancy
  Li  Li0  1  0.25000000  0.00000000  0.95799000  1.0
  Li  Li1  1  0.75000000  0.50000000  0.87396000  1.0
  Li  Li2  1  0.22762000  0.00000000  0.13786500  1.0
  Li  Li3  1  0.75006000  0.50000000  0.04210000  1.0
  Zn  Zn4  1  0.75000000  0.00000000  0.95799000  1.0
  Zn  Zn5  1  0.25000000  0.50000000  0.87396000  1.0
  Zn  Zn6  1  0.76600500  0.00000000  0.12728000  1.0
  Zn  Zn7  1  0.25083500  0.50000000  0.04507500  1.0
  Ag  Ag8  1  0.00000000  0.00000000  0.87396000  1.0
  Ag  Ag9  1  0.50000000  0.50000000  0.95799000  1.0
  Ag  Ag10  1  0.01068000  0.00000000  0.04361000  1.0
  Ag  Ag11  1  0.51137000  0.50000000  0.12983500  1.0
  Ge  Ge12  1  0.00000000  0.50000000  0.95799000  1.0
  Ge  Ge13  1  0.50000000  0.00000000  0.87396000  1.0
  Ge  Ge14  1  0.98890500  0.50000000  0.13123500  1.0
  Ge  Ge15  1  0.48903500  0.00000000  0.04824000  1.0
