# generated using pymatgen
data_Zr16Cu16CO
_symmetry_space_group_name_H-M   'P 1'
_cell_length_a   9.37081000
_cell_length_b   6.62616000
_cell_length_c   27.02810000
_cell_angle_alpha   90.00000000
_cell_angle_beta   90.00000000
_cell_angle_gamma   90.00000000
_symmetry_Int_Tables_number   1
_chemical_formula_structural   Zr16Cu16CO
_chemical_formula_sum   'Zr16 Cu16 C1 O1'
_cell_volume   1678.24193139
_cell_formula_units_Z   1
loop_
 _symmetry_equiv_pos_site_id
 _symmetry_equiv_pos_as_xyz
  1  'x, y, z'
loop_
 _atom_site_type_symbol
 _atom_site_label
 _atom_site_symmetry_multiplicity
 _atom_site_fract_x
 _atom_site_fract_y
 _atom_site_fract_z
 _atom_site_occupancy
  Zr  Zr0  1  0.25000000  0.50000000  0.13001000  1.0
  Zr  Zr1  1  0.00000000  0.50000000  0.04334000  1.0
  Zr  Zr2  1  0.24784000  0.50000000  0.96080000  1.0
  Zr  Zr3  1  0.00001000  0.50000000  0.87639000  1.0
  Zr  Zr4  1  0.75000000  0.50000000  0.13001000  1.0
  Zr  Zr5  1  0.50000000  0.50000000  0.04334000  1.0
  Zr  Zr6  1  0.75210000  0.50000000  0.96077000  1.0
  Zr  Zr7  1  0.50000000  0.50000000  0.87488000  1.0
  Zr  Zr8  1  0.25000000  0.00000000  0.13001000  1.0
  Zr  Zr9  1  0.00000000  0.00000000  0.04334000  1.0
  Zr  Zr10  1  0.25375000  0.00000000  0.96006000  1.0
  Zr  Zr11  1  0.99999000  0.00000000  0.86932000  1.0
  Zr  Zr12  1  0.75000000  0.00000000  0.13001000  1.0
  Zr  Zr13  1  0.50000000  0.00000000  0.04334000  1.0
  Zr  Zr14  1  0.74629000  0.00000000  0.96003000  1.0
  Zr  Zr15  1  0.50000000  0.00000000  0.87542000  1.0
  Cu  Cu16  1  0.00000000  0.75000000  0.13001000  1.0
  Cu  Cu17  1  0.25000000  0.75000000  0.04334000  1.0
  Cu  Cu18  1  0.99992000  0.77989000  0.95438000  1.0
  Cu  Cu19  1  0.24976000  0.75446000  0.87945000  1.0
  Cu  Cu20  1  0.50000000  0.75000000  0.13001000  1.0
  Cu  Cu21  1  0.75000000  0.75000000  0.04334000  1.0
  Cu  Cu22  1  0.50007000  0.74386000  0.95485000  1.0
  Cu  Cu23  1  0.75025000  0.75446000  0.87946000  1.0
  Cu  Cu24  1  0.00000000  0.25000000  0.13001000  1.0
  Cu  Cu25  1  0.25000000  0.25000000  0.04334000  1.0
  Cu  Cu26  1  0.99992000  0.22011000  0.95438000  1.0
  Cu  Cu27  1  0.24976000  0.24554000  0.87945000  1.0
  Cu  Cu28  1  0.50000000  0.25000000  0.13001000  1.0
  Cu  Cu29  1  0.75000000  0.25000000  0.04334000  1.0
  Cu  Cu30  1  0.50007000  0.25614000  0.95485000  1.0
  Cu  Cu31  1  0.75025000  0.24554000  0.87946000  1.0
  C  C32  1  0.99999000  0.50000000  0.79320000  1.0
  O  O33  1  0.00000000  0.50000000  0.75035000  1.0
