# generated using pymatgen
data_Zr16Cu16CO
_symmetry_space_group_name_H-M   Pm
_cell_length_a   9.37081000
_cell_length_b   6.62616000
_cell_length_c   27.02810000
_cell_angle_alpha   90.00000000
_cell_angle_beta   90.00000000
_cell_angle_gamma   90.00000000
_symmetry_Int_Tables_number   6
_chemical_formula_structural   Zr16Cu16CO
_chemical_formula_sum   'Zr16 Cu16 C1 O1'
_cell_volume   1678.24193139
_cell_formula_units_Z   1
loop_
 _symmetry_equiv_pos_site_id
 _symmetry_equiv_pos_as_xyz
  1  'x, y, z'
  2  'x, -y, z'
loop_
 _atom_site_type_symbol
 _atom_site_label
 _atom_site_symmetry_multiplicity
 _atom_site_fract_x
 _atom_site_fract_y
 _atom_site_fract_z
 _atom_site_occupancy
  Zr  Zr0  1  0.00000000  0.00000000  0.95666000  1.0
  Zr  Zr1  1  0.00000000  0.50000000  0.95666000  1.0
  Zr  Zr2  1  0.00001000  0.50000000  0.12361000  1.0
  Zr  Zr3  1  0.24784000  0.50000000  0.03920000  1.0
  Zr  Zr4  1  0.25000000  0.00000000  0.86999000  1.0
  Zr  Zr5  1  0.25000000  0.50000000  0.86999000  1.0
  Zr  Zr6  1  0.25375000  0.00000000  0.03994000  1.0
  Zr  Zr7  1  0.50000000  0.00000000  0.12458000  1.0
  Zr  Zr8  1  0.50000000  0.00000000  0.95666000  1.0
  Zr  Zr9  1  0.50000000  0.50000000  0.12512000  1.0
  Zr  Zr10  1  0.50000000  0.50000000  0.95666000  1.0
  Zr  Zr11  1  0.74629000  0.00000000  0.03997000  1.0
  Zr  Zr12  1  0.75000000  0.00000000  0.86999000  1.0
  Zr  Zr13  1  0.75000000  0.50000000  0.86999000  1.0
  Zr  Zr14  1  0.75210000  0.50000000  0.03923000  1.0
  Zr  Zr15  1  0.99999000  0.00000000  0.13068000  1.0
  Cu  Cu16  2  0.00000000  0.25000000  0.86999000  1.0
  Cu  Cu17  2  0.24976000  0.24554000  0.12055000  1.0
  Cu  Cu18  2  0.25000000  0.25000000  0.95666000  1.0
  Cu  Cu19  2  0.50000000  0.25000000  0.86999000  1.0
  Cu  Cu20  2  0.50007000  0.25614000  0.04515000  1.0
  Cu  Cu21  2  0.75000000  0.25000000  0.95666000  1.0
  Cu  Cu22  2  0.75025000  0.24554000  0.12054000  1.0
  Cu  Cu23  2  0.99992000  0.22011000  0.04562000  1.0
  C  C24  1  0.99999000  0.50000000  0.20680000  1.0
  O  O25  1  0.00000000  0.50000000  0.24965000  1.0
