data_image0
_chemical_formula_structural       Ti8Ga8Ni16
_chemical_formula_sum              "Ti8 Ga8 Ni16"
_cell_length_a       5.91339
_cell_length_b       8.3628
_cell_length_c       26.2721
_cell_angle_alpha    90
_cell_angle_beta     90
_cell_angle_gamma    90

_space_group_name_H-M_alt    "P 1"
_space_group_IT_number       1

loop_
  _space_group_symop_operation_xyz
  'x, y, z'

loop_
  _atom_site_type_symbol
  _atom_site_label
  _atom_site_symmetry_multiplicity
  _atom_site_fract_x
  _atom_site_fract_y
  _atom_site_fract_z
  _atom_site_occupancy
  Ti  Ti1       1.0  0.00000  0.00000  0.88063  1.0000
  Ti  Ti2       1.0  0.50000  0.25000  0.96021  1.0000
  Ti  Ti3       1.0  0.50000  0.75000  0.96021  1.0000
  Ti  Ti4       1.0  0.00000  0.50000  0.88063  1.0000
  Ti  Ti5       1.0  0.00000  0.49999  0.04016  1.0000
  Ti  Ti6       1.0  0.50000  0.75000  0.12055  1.0000
  Ti  Ti7       1.0  0.50000  0.25000  0.12055  1.0000
  Ti  Ti8       1.0  0.00000  0.00001  0.04017  1.0000
  Ga  Ga1       1.0  0.00000  0.75000  0.96021  1.0000
  Ga  Ga2       1.0  0.50000  0.00000  0.88063  1.0000
  Ga  Ga3       1.0  0.00000  0.25000  0.96021  1.0000
  Ga  Ga4       1.0  0.50000  0.50000  0.88063  1.0000
  Ga  Ga5       1.0  0.00000  0.25000  0.12151  1.0000
  Ga  Ga6       1.0  0.50000  0.49999  0.03951  1.0000
  Ga  Ga7       1.0  0.00000  0.75000  0.12151  1.0000
  Ga  Ga8       1.0  0.50000  0.00001  0.03950  1.0000
  Ni  Ni1       1.0  0.25000  0.00000  0.96021  1.0000
  Ni  Ni2       1.0  0.75000  0.50000  0.96021  1.0000
  Ni  Ni3       1.0  0.75000  0.00000  0.96021  1.0000
  Ni  Ni4       1.0  0.25000  0.50000  0.96021  1.0000
  Ni  Ni5       1.0  0.75000  0.75000  0.88063  1.0000
  Ni  Ni6       1.0  0.25000  0.25000  0.88063  1.0000
  Ni  Ni7       1.0  0.25000  0.75000  0.88063  1.0000
  Ni  Ni8       1.0  0.75000  0.25000  0.88063  1.0000
  Ni  Ni9       1.0  0.24620  0.50001  0.11527  1.0000
  Ni  Ni10      1.0  0.75377  0.99999  0.11527  1.0000
  Ni  Ni11      1.0  0.75380  0.50001  0.11527  1.0000
  Ni  Ni12      1.0  0.24623  0.99999  0.11527  1.0000
  Ni  Ni13      1.0  0.73989  0.24996  0.04113  1.0000
  Ni  Ni14      1.0  0.26009  0.75005  0.04113  1.0000
  Ni  Ni15      1.0  0.26011  0.24996  0.04113  1.0000
  Ni  Ni16      1.0  0.73991  0.75005  0.04113  1.0000
