# generated using pymatgen
data_Li8In8Ge8Pd8C
_symmetry_space_group_name_H-M   'P 1'
_cell_length_a   9.21874000
_cell_length_b   6.51863000
_cell_length_c   26.91410000
_cell_angle_alpha   90.00000000
_cell_angle_beta   90.00000000
_cell_angle_gamma   90.00000000
_symmetry_Int_Tables_number   1
_chemical_formula_structural   Li8In8Ge8Pd8C
_chemical_formula_sum   'Li8 In8 Ge8 Pd8 C1'
_cell_volume   1617.36395202
_cell_formula_units_Z   1
loop_
 _symmetry_equiv_pos_site_id
 _symmetry_equiv_pos_as_xyz
  1  'x, y, z'
loop_
 _atom_site_type_symbol
 _atom_site_label
 _atom_site_symmetry_multiplicity
 _atom_site_fract_x
 _atom_site_fract_y
 _atom_site_fract_z
 _atom_site_occupancy
  Li  Li0  1  0.00000000  0.75000000  0.04282000  1.0
  Li  Li1  1  0.50000000  0.75000000  0.04282000  1.0
  Li  Li2  1  0.25000000  0.25000000  0.12845000  1.0
  Li  Li3  1  0.75000000  0.25000000  0.12845000  1.0
  Li  Li4  1  0.50000000  0.72432000  0.86036000  1.0
  Li  Li5  1  0.00000000  0.64634000  0.83206000  1.0
  Li  Li6  1  0.76755000  0.18503000  0.94798000  1.0
  Li  Li7  1  0.23245000  0.18503000  0.94798000  1.0
  In  In8  1  0.25000000  0.00000000  0.04282000  1.0
  In  In9  1  0.75000000  0.00000000  0.04282000  1.0
  In  In10  1  0.50000000  0.50000000  0.12845000  1.0
  In  In11  1  0.00000000  0.50000000  0.12845000  1.0
  In  In12  1  0.75205000  0.98628000  0.84081000  1.0
  In  In13  1  0.24795000  0.98628000  0.84081000  1.0
  In  In14  1  0.00000000  0.48690000  0.95923000  1.0
  In  In15  1  0.50000000  0.48034000  0.95444000  1.0
  Ge  Ge16  1  0.00000000  0.00000000  0.12845000  1.0
  Ge  Ge17  1  0.50000000  0.00000000  0.12845000  1.0
  Ge  Ge18  1  0.75000000  0.50000000  0.04282000  1.0
  Ge  Ge19  1  0.25000000  0.50000000  0.04282000  1.0
  Ge  Ge20  1  0.50000000  0.97881000  0.95408000  1.0
  Ge  Ge21  1  0.00000000  0.90489000  0.92708000  1.0
  Ge  Ge22  1  0.25760000  0.47776000  0.87461000  1.0
  Ge  Ge23  1  0.74240000  0.47776000  0.87461000  1.0
  Pd  Pd24  1  0.00000000  0.25000000  0.04282000  1.0
  Pd  Pd25  1  0.50000000  0.25000000  0.04282000  1.0
  Pd  Pd26  1  0.25000000  0.75000000  0.12845000  1.0
  Pd  Pd27  1  0.75000000  0.75000000  0.12845000  1.0
  Pd  Pd28  1  0.50000000  0.20951000  0.87508000  1.0
  Pd  Pd29  1  0.00000000  0.27089000  0.87535000  1.0
  Pd  Pd30  1  0.74274000  0.75314000  0.95820000  1.0
  Pd  Pd31  1  0.25726000  0.75314000  0.95820000  1.0
  C  C32  1  0.00000000  0.94760000  0.85426000  1.0
