# generated using pymatgen
data_K12Bi4C
_symmetry_space_group_name_H-M   Pmm2
_cell_length_a   8.83903000
_cell_length_b   8.83903000
_cell_length_c   26.62930000
_cell_angle_alpha   90.00000000
_cell_angle_beta   90.00000000
_cell_angle_gamma   90.00000000
_symmetry_Int_Tables_number   25
_chemical_formula_structural   K12Bi4C
_chemical_formula_sum   'K12 Bi4 C1'
_cell_volume   2080.50596929
_cell_formula_units_Z   1
loop_
 _symmetry_equiv_pos_site_id
 _symmetry_equiv_pos_as_xyz
  1  'x, y, z'
  2  '-x, -y, z'
  3  '-x, y, z'
  4  'x, -y, z'
loop_
 _atom_site_type_symbol
 _atom_site_label
 _atom_site_symmetry_multiplicity
 _atom_site_fract_x
 _atom_site_fract_y
 _atom_site_fract_z
 _atom_site_occupancy
  K  K0  4  0.24999000  0.24998000  0.95851000  1.0
  K  K1  4  0.25995000  0.24006000  0.14182000  1.0
  K  K2  1  0.00000000  0.00000000  0.03621000  1.0
  K  K3  1  0.00000000  0.50000000  0.87553000  1.0
  K  K4  1  0.50000000  0.00000000  0.87553000  1.0
  K  K5  1  0.50000000  0.50000000  0.03610000  1.0
  Bi  Bi6  1  0.00000000  0.00000000  0.87553000  1.0
  Bi  Bi7  1  0.00000000  0.50000000  0.05818000  1.0
  Bi  Bi8  1  0.50000000  0.00000000  0.04157000  1.0
  Bi  Bi9  1  0.50000000  0.50000000  0.87553000  1.0
  C  C10  1  0.50000000  0.00000000  0.12331000  1.0
