# generated using pymatgen
data_Li16Ga8Pt8C
_symmetry_space_group_name_H-M   'P 1'
_cell_length_a   8.63876000
_cell_length_b   6.10853000
_cell_length_c   26.47910000
_cell_angle_alpha   90.00000000
_cell_angle_beta   90.00000000
_cell_angle_gamma   90.00000000
_symmetry_Int_Tables_number   1
_chemical_formula_structural   Li16Ga8Pt8C
_chemical_formula_sum   'Li16 Ga8 Pt8 C1'
_cell_volume   1397.30540690
_cell_formula_units_Z   1
loop_
 _symmetry_equiv_pos_site_id
 _symmetry_equiv_pos_as_xyz
  1  'x, y, z'
loop_
 _atom_site_type_symbol
 _atom_site_label
 _atom_site_symmetry_multiplicity
 _atom_site_fract_x
 _atom_site_fract_y
 _atom_site_fract_z
 _atom_site_occupancy
  Li  Li0  1  0.75000000  0.00000000  0.04078000  1.0
  Li  Li1  1  0.00000000  0.50000000  0.12234000  1.0
  Li  Li2  1  0.25000000  0.00000000  0.04078000  1.0
  Li  Li3  1  0.50000000  0.50000000  0.12234000  1.0
  Li  Li4  1  0.25000000  0.25000000  0.12234000  1.0
  Li  Li5  1  0.75000000  0.25000000  0.12234000  1.0
  Li  Li6  1  0.50000000  0.75000000  0.04078000  1.0
  Li  Li7  1  0.00000000  0.75000000  0.04078000  1.0
  Li  Li8  1  0.24057000  0.01613000  0.87627000  1.0
  Li  Li9  1  0.50000000  0.50582000  0.96106000  1.0
  Li  Li10  1  0.75943000  0.01613000  0.87627000  1.0
  Li  Li11  1  0.00000000  0.51537000  0.95349000  1.0
  Li  Li12  1  0.75581000  0.24986000  0.96111000  1.0
  Li  Li13  1  0.24419000  0.24986000  0.96111000  1.0
  Li  Li14  1  0.00000000  0.73475000  0.84557000  1.0
  Li  Li15  1  0.50000000  0.74403000  0.87294000  1.0
  Ga  Ga16  1  0.00000000  0.25000000  0.04078000  1.0
  Ga  Ga17  1  0.50000000  0.25000000  0.04078000  1.0
  Ga  Ga18  1  0.75000000  0.75000000  0.12234000  1.0
  Ga  Ga19  1  0.25000000  0.75000000  0.12234000  1.0
  Ga  Ga20  1  0.50000000  0.27543000  0.87975000  1.0
  Ga  Ga21  1  0.00000000  0.32697000  0.85699000  1.0
  Ga  Ga22  1  0.25796000  0.75638000  0.96156000  1.0
  Ga  Ga23  1  0.74204000  0.75638000  0.96156000  1.0
  Pt  Pt24  1  0.00000000  0.00000000  0.12234000  1.0
  Pt  Pt25  1  0.25000000  0.50000000  0.04078000  1.0
  Pt  Pt26  1  0.75000000  0.50000000  0.04078000  1.0
  Pt  Pt27  1  0.50000000  0.00000000  0.12234000  1.0
  Pt  Pt28  1  0.50000000  0.00692000  0.95683000  1.0
  Pt  Pt29  1  0.74516000  0.50632000  0.88461000  1.0
  Pt  Pt30  1  0.25484000  0.50632000  0.88461000  1.0
  Pt  Pt31  1  0.00000000  0.99297000  0.95464000  1.0
  C  C32  1  0.00000000  0.02684000  0.87947000  1.0
