# generated using pymatgen
data_Li4Al4Ag4Ge4C
_symmetry_space_group_name_H-M   Pm
_cell_length_a   5.56638000
_cell_length_b   8.55604000
_cell_length_c   24.17150000
_cell_angle_alpha   90.00000000
_cell_angle_beta   90.00000000
_cell_angle_gamma   90.00000000
_symmetry_Int_Tables_number   6
_chemical_formula_structural   Li4Al4Ag4Ge4C
_chemical_formula_sum   'Li4 Al4 Ag4 Ge4 C1'
_cell_volume   1151.19596659
_cell_formula_units_Z   1
loop_
 _symmetry_equiv_pos_site_id
 _symmetry_equiv_pos_as_xyz
  1  'x, y, z'
  2  'x, -y, z'
loop_
 _atom_site_type_symbol
 _atom_site_label
 _atom_site_symmetry_multiplicity
 _atom_site_fract_x
 _atom_site_fract_y
 _atom_site_fract_z
 _atom_site_occupancy
  Li  Li0  1  0.50000000  0.00000000  0.91371000  1.0
  Li  Li1  1  0.50000000  0.50000000  0.91371000  1.0
  Li  Li2  1  0.96915000  0.50000000  0.05042000  1.0
  Li  Li3  1  0.97375000  0.00000000  0.01593000  1.0
  Al  Al4  2  0.24004000  0.25000000  0.97124000  1.0
  Al  Al5  2  0.72187000  0.17618000  0.09179000  1.0
  Ag  Ag6  1  0.00000000  0.00000000  0.91371000  1.0
  Ag  Ag7  1  0.00000000  0.50000000  0.91371000  1.0
  Ag  Ag8  1  0.46710000  0.00000000  0.01736000  1.0
  Ag  Ag9  1  0.47073000  0.50000000  0.02929000  1.0
  Ge  Ge10  2  0.21507000  0.18732000  0.09077000  1.0
  Ge  Ge11  2  0.74004000  0.25000000  0.97124000  1.0
  C  C12  1  0.96521000  0.00000000  0.10302000  1.0
