# generated using pymatgen
data_Ni12Sb4CO
_symmetry_space_group_name_H-M   'P 1'
_cell_length_a   5.97820000
_cell_length_b   5.97820000
_cell_length_c   24.48370000
_cell_angle_alpha   90.00000000
_cell_angle_beta   90.00000000
_cell_angle_gamma   90.00000000
_symmetry_Int_Tables_number   1
_chemical_formula_structural   Ni12Sb4CO
_chemical_formula_sum   'Ni12 Sb4 C1 O1'
_cell_volume   875.01989971
_cell_formula_units_Z   1
loop_
 _symmetry_equiv_pos_site_id
 _symmetry_equiv_pos_as_xyz
  1  'x, y, z'
loop_
 _atom_site_type_symbol
 _atom_site_label
 _atom_site_symmetry_multiplicity
 _atom_site_fract_x
 _atom_site_fract_y
 _atom_site_fract_z
 _atom_site_occupancy
  Ni  Ni0  1  0.24521500  0.75478500  0.03020000  1.0
  Ni  Ni1  1  0.75001000  0.24999000  0.90844000  1.0
  Ni  Ni2  1  0.75478500  0.75478500  0.03020000  1.0
  Ni  Ni3  1  0.24999000  0.24999000  0.90844000  1.0
  Ni  Ni4  1  0.75478500  0.24521500  0.03020000  1.0
  Ni  Ni5  1  0.24999000  0.75001000  0.90844000  1.0
  Ni  Ni6  1  0.24521500  0.24521500  0.03020000  1.0
  Ni  Ni7  1  0.75001000  0.75001000  0.90844000  1.0
  Ni  Ni8  1  0.00000000  0.50000000  0.96948000  1.0
  Ni  Ni9  1  0.50000000  0.50000000  0.08363000  1.0
  Ni  Ni10  1  0.00000000  0.00000000  0.09729000  1.0
  Ni  Ni11  1  0.50000000  0.00000000  0.96948000  1.0
  Sb  Sb12  1  0.00000000  0.50000000  0.09457000  1.0
  Sb  Sb13  1  0.50000000  0.00000000  0.09457000  1.0
  Sb  Sb14  1  0.50000000  0.50000000  0.96948000  1.0
  Sb  Sb15  1  0.00000000  0.00000000  0.96948000  1.0
  C  C16  1  0.00000000  0.00000000  0.16992000  1.0
  O  O17  1  0.00000000  0.00000000  0.21703000  1.0
