# generated using pymatgen
data_Ni12Sb4CO
_symmetry_space_group_name_H-M   P4mm
_cell_length_a   5.97820000
_cell_length_b   5.97820000
_cell_length_c   24.48370000
_cell_angle_alpha   90.00000000
_cell_angle_beta   90.00000000
_cell_angle_gamma   90.00000000
_symmetry_Int_Tables_number   99
_chemical_formula_structural   Ni12Sb4CO
_chemical_formula_sum   'Ni12 Sb4 C1 O1'
_cell_volume   875.01989971
_cell_formula_units_Z   1
loop_
 _symmetry_equiv_pos_site_id
 _symmetry_equiv_pos_as_xyz
  1  'x, y, z'
  2  '-y, x, z'
  3  '-x, -y, z'
  4  'y, -x, z'
  5  '-x, y, z'
  6  'y, x, z'
  7  'x, -y, z'
  8  '-y, -x, z'
loop_
 _atom_site_type_symbol
 _atom_site_label
 _atom_site_symmetry_multiplicity
 _atom_site_fract_x
 _atom_site_fract_y
 _atom_site_fract_z
 _atom_site_occupancy
  Ni  Ni0  4  0.24521500  0.24521500  0.03020000  1.0
  Ni  Ni1  4  0.24999000  0.24999000  0.90844000  1.0
  Ni  Ni2  2  0.00000000  0.50000000  0.96948000  1.0
  Ni  Ni3  1  0.00000000  0.00000000  0.09729000  1.0
  Ni  Ni4  1  0.50000000  0.50000000  0.08363000  1.0
  Sb  Sb5  2  0.00000000  0.50000000  0.09457000  1.0
  Sb  Sb6  1  0.00000000  0.00000000  0.96948000  1.0
  Sb  Sb7  1  0.50000000  0.50000000  0.96948000  1.0
  C  C8  1  0.00000000  0.00000000  0.16992000  1.0
  O  O9  1  0.00000000  0.00000000  0.21703000  1.0
