# generated using pymatgen
data_V8Sn8Rh16C
_symmetry_space_group_name_H-M   'P 1'
_cell_length_a   6.32488000
_cell_length_b   8.94473000
_cell_length_c   26.70850000
_cell_angle_alpha   90.00000000
_cell_angle_beta   90.00000000
_cell_angle_gamma   90.00000000
_symmetry_Int_Tables_number   1
_chemical_formula_structural   V8Sn8Rh16C
_chemical_formula_sum   'V8 Sn8 Rh16 C1'
_cell_volume   1511.01586358
_cell_formula_units_Z   1
loop_
 _symmetry_equiv_pos_site_id
 _symmetry_equiv_pos_as_xyz
  1  'x, y, z'
loop_
 _atom_site_type_symbol
 _atom_site_label
 _atom_site_symmetry_multiplicity
 _atom_site_fract_x
 _atom_site_fract_y
 _atom_site_fract_z
 _atom_site_occupancy
  V  V0  1  0.00000000  0.00000000  0.87441000  1.0
  V  V1  1  0.50000000  0.24999000  0.95814000  1.0
  V  V2  1  0.50000000  0.75001000  0.95814000  1.0
  V  V3  1  0.00000000  0.50000000  0.87441000  1.0
  V  V4  1  0.00000000  0.50000000  0.04762000  1.0
  V  V5  1  0.50000000  0.78704000  0.12603000  1.0
  V  V6  1  0.50000000  0.21296000  0.12603000  1.0
  V  V7  1  0.00000000  0.00000000  0.03881000  1.0
  Sn  Sn8  1  0.00000000  0.74999000  0.95814000  1.0
  Sn  Sn9  1  0.50000000  0.00000000  0.87441000  1.0
  Sn  Sn10  1  0.00000000  0.25001000  0.95814000  1.0
  Sn  Sn11  1  0.50000000  0.50000000  0.87441000  1.0
  Sn  Sn12  1  0.00000000  0.25979000  0.13488000  1.0
  Sn  Sn13  1  0.50000000  0.50000000  0.04094000  1.0
  Sn  Sn14  1  0.00000000  0.74021000  0.13488000  1.0
  Sn  Sn15  1  0.50000000  0.00000000  0.03870000  1.0
  Rh  Rh16  1  0.25000000  0.00000000  0.95814000  1.0
  Rh  Rh17  1  0.75000000  0.50000000  0.95814000  1.0
  Rh  Rh18  1  0.75000000  0.00000000  0.95814000  1.0
  Rh  Rh19  1  0.25000000  0.50000000  0.95814000  1.0
  Rh  Rh20  1  0.75000000  0.74999000  0.87441000  1.0
  Rh  Rh21  1  0.25000000  0.25001000  0.87441000  1.0
  Rh  Rh22  1  0.25000000  0.74999000  0.87441000  1.0
  Rh  Rh23  1  0.75000000  0.25001000  0.87441000  1.0
  Rh  Rh24  1  0.25075000  0.50000000  0.11989000  1.0
  Rh  Rh25  1  0.78552000  0.00000000  0.11510000  1.0
  Rh  Rh26  1  0.74925000  0.50000000  0.11989000  1.0
  Rh  Rh27  1  0.21448000  0.00000000  0.11510000  1.0
  Rh  Rh28  1  0.74101000  0.25286000  0.04214000  1.0
  Rh  Rh29  1  0.25899000  0.74714000  0.04214000  1.0
  Rh  Rh30  1  0.25899000  0.25286000  0.04214000  1.0
  Rh  Rh31  1  0.74101000  0.74714000  0.04214000  1.0
  C  C32  1  0.50000000  0.00000000  0.14952000  1.0
