# generated using pymatgen
data_V8Sn8Rh16C
_symmetry_space_group_name_H-M   Pmm2
_cell_length_a   6.32488000
_cell_length_b   8.94473000
_cell_length_c   26.70850000
_cell_angle_alpha   90.00000000
_cell_angle_beta   90.00000000
_cell_angle_gamma   90.00000000
_symmetry_Int_Tables_number   25
_chemical_formula_structural   V8Sn8Rh16C
_chemical_formula_sum   'V8 Sn8 Rh16 C1'
_cell_volume   1511.01586358
_cell_formula_units_Z   1
loop_
 _symmetry_equiv_pos_site_id
 _symmetry_equiv_pos_as_xyz
  1  'x, y, z'
  2  '-x, -y, z'
  3  '-x, y, z'
  4  'x, -y, z'
loop_
 _atom_site_type_symbol
 _atom_site_label
 _atom_site_symmetry_multiplicity
 _atom_site_fract_x
 _atom_site_fract_y
 _atom_site_fract_z
 _atom_site_occupancy
  V  V0  2  0.50000000  0.21296000  0.12603000  1.0
  V  V1  2  0.50000000  0.24999000  0.95814000  1.0
  V  V2  1  0.00000000  0.00000000  0.03881000  1.0
  V  V3  1  0.00000000  0.00000000  0.87441000  1.0
  V  V4  1  0.00000000  0.50000000  0.04762000  1.0
  V  V5  1  0.00000000  0.50000000  0.87441000  1.0
  Sn  Sn6  2  0.00000000  0.25001000  0.95814000  1.0
  Sn  Sn7  2  0.00000000  0.25979000  0.13488000  1.0
  Sn  Sn8  1  0.50000000  0.00000000  0.03870000  1.0
  Sn  Sn9  1  0.50000000  0.00000000  0.87441000  1.0
  Sn  Sn10  1  0.50000000  0.50000000  0.04094000  1.0
  Sn  Sn11  1  0.50000000  0.50000000  0.87441000  1.0
  Rh  Rh12  4  0.25000000  0.25001000  0.87441000  1.0
  Rh  Rh13  4  0.25899000  0.25286000  0.04214000  1.0
  Rh  Rh14  2  0.21448000  0.00000000  0.11510000  1.0
  Rh  Rh15  2  0.25000000  0.00000000  0.95814000  1.0
  Rh  Rh16  2  0.25000000  0.50000000  0.95814000  1.0
  Rh  Rh17  2  0.25075000  0.50000000  0.11989000  1.0
  C  C18  1  0.50000000  0.00000000  0.14952000  1.0
