# generated using pymatgen
data_ScCo
_symmetry_space_group_name_H-M   Pmm2
_cell_length_a   3.12150500
_cell_length_b   4.41447500
_cell_length_c   26.62170000
_cell_angle_alpha   90.00000000
_cell_angle_beta   90.00000000
_cell_angle_gamma   90.00000000
_symmetry_Int_Tables_number   25
_chemical_formula_structural   ScCo
_chemical_formula_sum   'Sc4 Co4'
_cell_volume   366.84185566
_cell_formula_units_Z   4
loop_
 _symmetry_equiv_pos_site_id
 _symmetry_equiv_pos_as_xyz
  1  'x, y, z'
  2  '-x, -y, z'
  3  '-x, y, z'
  4  'x, -y, z'
loop_
 _atom_site_type_symbol
 _atom_site_label
 _atom_site_symmetry_multiplicity
 _atom_site_fract_x
 _atom_site_fract_y
 _atom_site_fract_z
 _atom_site_occupancy
  Sc  Sc0  1  0.50000000  0.00000000  0.12696000  1.0
  Sc  Sc1  1  0.50000000  0.00000000  0.95854000  1.0
  Sc  Sc2  1  0.50000000  0.50000000  0.04248500  1.0
  Sc  Sc3  1  0.50000000  0.50000000  0.87563000  1.0
  Co  Co4  1  0.00000000  0.00000000  0.04375750  1.0
  Co  Co5  1  0.00000000  0.00000000  0.87563000  1.0
  Co  Co6  1  0.00000000  0.50000000  0.11961250  1.0
  Co  Co7  1  0.00000000  0.50000000  0.95854000  1.0
