# generated using pymatgen
data_Li8Cu8Ge8Pd8CO
_symmetry_space_group_name_H-M   'P 1'
_cell_length_a   8.54512000
_cell_length_b   6.04231000
_cell_length_c   26.40880000
_cell_angle_alpha   90.00000000
_cell_angle_beta   90.00000000
_cell_angle_gamma   90.00000000
_symmetry_Int_Tables_number   1
_chemical_formula_structural   Li8Cu8Ge8Pd8CO
_chemical_formula_sum   'Li8 Cu8 Ge8 Pd8 C1 O1'
_cell_volume   1363.54613424
_cell_formula_units_Z   1
loop_
 _symmetry_equiv_pos_site_id
 _symmetry_equiv_pos_as_xyz
  1  'x, y, z'
loop_
 _atom_site_type_symbol
 _atom_site_label
 _atom_site_symmetry_multiplicity
 _atom_site_fract_x
 _atom_site_fract_y
 _atom_site_fract_z
 _atom_site_occupancy
  Li  Li0  1  0.74999000  0.25000000  0.04045000  1.0
  Li  Li1  1  0.25001000  0.25000000  0.04045000  1.0
  Li  Li2  1  0.00000000  0.75000000  0.12134000  1.0
  Li  Li3  1  0.50000000  0.75000000  0.12134000  1.0
  Li  Li4  1  0.25350000  0.25375000  0.86635000  1.0
  Li  Li5  1  0.74650000  0.25375000  0.86635000  1.0
  Li  Li6  1  0.50000000  0.74905000  0.96469000  1.0
  Li  Li7  1  0.00000000  0.76460000  0.96108000  1.0
  Cu  Cu8  1  0.74999000  0.00000000  0.12134000  1.0
  Cu  Cu9  1  0.25001000  0.00000000  0.12134000  1.0
  Cu  Cu10  1  0.50000000  0.50000000  0.04045000  1.0
  Cu  Cu11  1  0.00000000  0.50000000  0.04045000  1.0
  Cu  Cu12  1  0.24743000  0.00333000  0.95354000  1.0
  Cu  Cu13  1  0.75257000  0.00333000  0.95354000  1.0
  Cu  Cu14  1  0.00000000  0.53336000  0.88674000  1.0
  Cu  Cu15  1  0.50000000  0.52383000  0.88632000  1.0
  Ge  Ge16  1  0.74999000  0.75000000  0.04045000  1.0
  Ge  Ge17  1  0.25001000  0.75000000  0.04045000  1.0
  Ge  Ge18  1  0.00000000  0.25000000  0.12134000  1.0
  Ge  Ge19  1  0.50000000  0.25000000  0.12134000  1.0
  Ge  Ge20  1  0.25214000  0.74210000  0.87508000  1.0
  Ge  Ge21  1  0.74786000  0.74210000  0.87508000  1.0
  Ge  Ge22  1  0.50000000  0.25023000  0.95990000  1.0
  Ge  Ge23  1  0.00000000  0.24177000  0.95833000  1.0
  Pd  Pd24  1  0.00000000  0.00000000  0.04045000  1.0
  Pd  Pd25  1  0.50000000  0.00000000  0.04045000  1.0
  Pd  Pd26  1  0.24999000  0.50000000  0.12134000  1.0
  Pd  Pd27  1  0.75001000  0.50000000  0.12134000  1.0
  Pd  Pd28  1  0.50000000  0.97908000  0.88588000  1.0
  Pd  Pd29  1  0.00000000  0.99491000  0.86880000  1.0
  Pd  Pd30  1  0.75330000  0.49143000  0.95692000  1.0
  Pd  Pd31  1  0.24670000  0.49143000  0.95692000  1.0
  C  C32  1  0.00000000  0.14238000  0.80289000  1.0
  O  O33  1  0.00000000  0.18423000  0.76017000  1.0
