# generated using pymatgen
data_Na12As4CO
_symmetry_space_group_name_H-M   P4mm
_cell_length_a   7.20118000
_cell_length_b   7.20118000
_cell_length_c   25.40090000
_cell_angle_alpha   90.00000000
_cell_angle_beta   90.00000000
_cell_angle_gamma   90.00000000
_symmetry_Int_Tables_number   99
_chemical_formula_structural   Na12As4CO
_chemical_formula_sum   'Na12 As4 C1 O1'
_cell_volume   1317.21430346
_cell_formula_units_Z   1
loop_
 _symmetry_equiv_pos_site_id
 _symmetry_equiv_pos_as_xyz
  1  'x, y, z'
  2  '-y, x, z'
  3  '-x, -y, z'
  4  'y, -x, z'
  5  '-x, y, z'
  6  'y, x, z'
  7  'x, -y, z'
  8  '-y, -x, z'
loop_
 _atom_site_type_symbol
 _atom_site_label
 _atom_site_symmetry_multiplicity
 _atom_site_fract_x
 _atom_site_fract_y
 _atom_site_fract_z
 _atom_site_occupancy
  Na  Na0  4  0.25000000  0.25000000  0.03544000  1.0
  Na  Na1  4  0.25000000  0.25000000  0.89369000  1.0
  Na  Na2  2  0.00000000  0.50000000  0.10631000  1.0
  Na  Na3  1  0.00000000  0.00000000  0.96456000  1.0
  Na  Na4  1  0.50000000  0.50000000  0.96456000  1.0
  As  As5  2  0.00000000  0.50000000  0.96456000  1.0
  As  As6  1  0.00000000  0.00000000  0.10631000  1.0
  As  As7  1  0.50000000  0.50000000  0.10631000  1.0
  C  C8  1  0.00000000  0.00000000  0.18111000  1.0
  O  O9  1  0.00000000  0.00000000  0.22639000  1.0
