# generated using pymatgen
data_Y4In4Cu4Pd4CO
_symmetry_space_group_name_H-M   'P 1'
_cell_length_a   6.76944000
_cell_length_b   6.76944000
_cell_length_c   25.07710000
_cell_angle_alpha   90.00000000
_cell_angle_beta   90.00000000
_cell_angle_gamma   90.00000000
_symmetry_Int_Tables_number   1
_chemical_formula_structural   Y4In4Cu4Pd4CO
_chemical_formula_sum   'Y4 In4 Cu4 Pd4 C1 O1'
_cell_volume   1149.16607985
_cell_formula_units_Z   1
loop_
 _symmetry_equiv_pos_site_id
 _symmetry_equiv_pos_as_xyz
  1  'x, y, z'
loop_
 _atom_site_type_symbol
 _atom_site_label
 _atom_site_symmetry_multiplicity
 _atom_site_fract_x
 _atom_site_fract_y
 _atom_site_fract_z
 _atom_site_occupancy
  Y  Y0  1  0.25000000  0.24999000  0.03374000  1
  Y  Y1  1  0.75013500  0.24986500  0.89541000  1
  Y  Y2  1  0.25015500  0.74984500  0.89757000  1
  Y  Y3  1  0.75001000  0.75000000  0.03374000  1
  In  In4  1  0.25000500  0.74999500  0.03374000  1
  In  In5  1  0.74964000  0.75008000  0.89695000  1
  In  In6  1  0.24992000  0.25036000  0.89695000  1
  In  In7  1  0.75000500  0.24999500  0.03374000  1
  Cu  Cu8  1  0.00000500  0.99999500  0.10123000  1
  Cu  Cu9  1  0.50608000  0.00596000  0.96272000  1
  Cu  Cu10  1  0.99404000  0.49392000  0.96272000  1
  Cu  Cu11  1  0.50000500  0.49999500  0.10123000  1
  Pd  Pd12  1  0.50000000  0.99999000  0.10123000  1
  Pd  Pd13  1  0.99360500  0.00639500  0.96327000  1
  Pd  Pd14  1  0.50649500  0.49350500  0.96331000  1
  Pd  Pd15  1  0.00001000  0.50000000  0.10123000  1
  C  C16  1  0.25224000  0.74776000  0.79756000  1
  O  O17  1  0.25310000  0.74690000  0.75180000  1
