# generated using pymatgen
data_Y4In4Cu4Pd4CO
_symmetry_space_group_name_H-M   Cm
_cell_length_a   9.57343386
_cell_length_b   9.57343386
_cell_length_c   25.07710000
_cell_angle_alpha   90.00000000
_cell_angle_beta   90.00000000
_cell_angle_gamma   90.00000000
_symmetry_Int_Tables_number   8
_chemical_formula_structural   Y4In4Cu4Pd4CO
_chemical_formula_sum   'Y8 In8 Cu8 Pd8 C2 O2'
_cell_volume   2298.33215970
_cell_formula_units_Z   2
loop_
 _symmetry_equiv_pos_site_id
 _symmetry_equiv_pos_as_xyz
  1  'x, y, z'
  2  'x, -y, z'
  3  'x+1/2, y+1/2, z'
  4  'x+1/2, -y+1/2, z'
loop_
 _atom_site_type_symbol
 _atom_site_label
 _atom_site_symmetry_multiplicity
 _atom_site_fract_x
 _atom_site_fract_y
 _atom_site_fract_z
 _atom_site_occupancy
  Y  Y0  4  0.00000500  0.24999500  0.96626000  1.0
  Y  Y1  2  0.25013500  0.50000000  0.10459000  1.0
  Y  Y2  2  0.25015500  0.00000000  0.10243000  1.0
  In  In3  4  0.49978000  0.24986000  0.10305000  1.0
  In  In4  2  0.25000500  0.00000000  0.96626000  1.0
  In  In5  2  0.25000500  0.50000000  0.96626000  1.0
  Cu  Cu6  4  0.25006000  0.25602000  0.03728000  1.0
  Cu  Cu7  2  0.00000500  0.50000000  0.89877000  1.0
  Cu  Cu8  2  0.00000500  0.00000000  0.89877000  1.0
  Pd  Pd9  4  0.25000500  0.24999500  0.89877000  1.0
  Pd  Pd10  2  0.00649500  0.50000000  0.03669000  1.0
  Pd  Pd11  2  0.49360500  0.50000000  0.03673000  1.0
  C  C12  2  0.25224000  0.00000000  0.20244000  1.0
  O  O13  2  0.25310000  0.00000000  0.24820000  1.0
