# generated using pymatgen
data_Sc8Ga8Cu16CO
_symmetry_space_group_name_H-M   Pmm2
_cell_length_a   6.23499000
_cell_length_b   8.81761000
_cell_length_c   26.61320000
_cell_angle_alpha   90.00000000
_cell_angle_beta   90.00000000
_cell_angle_gamma   90.00000000
_symmetry_Int_Tables_number   25
_chemical_formula_structural   Sc8Ga8Cu16CO
_chemical_formula_sum   'Sc8 Ga8 Cu16 C1 O1'
_cell_volume   1463.13279640
_cell_formula_units_Z   1
loop_
 _symmetry_equiv_pos_site_id
 _symmetry_equiv_pos_as_xyz
  1  'x, y, z'
  2  '-x, -y, z'
  3  '-x, y, z'
  4  'x, -y, z'
loop_
 _atom_site_type_symbol
 _atom_site_label
 _atom_site_symmetry_multiplicity
 _atom_site_fract_x
 _atom_site_fract_y
 _atom_site_fract_z
 _atom_site_occupancy
  Sc  Sc0  2  0.00000000  0.25000000  0.87575000  1.0
  Sc  Sc1  2  0.00000000  0.25054000  0.04051000  1.0
  Sc  Sc2  1  0.50000000  0.00000000  0.12991000  1.0
  Sc  Sc3  1  0.50000000  0.00000000  0.95858000  1.0
  Sc  Sc4  1  0.50000000  0.50000000  0.13039000  1.0
  Sc  Sc5  1  0.50000000  0.50000000  0.95858000  1.0
  Ga  Ga6  2  0.50000000  0.25000000  0.87575000  1.0
  Ga  Ga7  2  0.50000000  0.25186000  0.04104000  1.0
  Ga  Ga8  1  0.00000000  0.00000000  0.11755000  1.0
  Ga  Ga9  1  0.00000000  0.00000000  0.95858000  1.0
  Ga  Ga10  1  0.00000000  0.50000000  0.12173000  1.0
  Ga  Ga11  1  0.00000000  0.50000000  0.95858000  1.0
  Cu  Cu12  4  0.24999000  0.25000000  0.95858000  1.0
  Cu  Cu13  4  0.25179000  0.25367000  0.12204000  1.0
  Cu  Cu14  2  0.24999000  0.00000000  0.87575000  1.0
  Cu  Cu15  2  0.25001000  0.50000000  0.87575000  1.0
  Cu  Cu16  2  0.26315000  0.50000000  0.04397000  1.0
  Cu  Cu17  2  0.26860000  0.00000000  0.04372000  1.0
  C  C18  1  0.00000000  0.00000000  0.19317000  1.0
  O  O19  1  0.00000000  0.00000000  0.23676000  1.0
