# generated using pymatgen
data_LiInPdRh
_symmetry_space_group_name_H-M   Pmm2
_cell_length_a   4.45316759
_cell_length_b   4.45316759
_cell_length_c   24.72330000
_cell_angle_alpha   90.00000000
_cell_angle_beta   90.00000000
_cell_angle_gamma   90.00000000
_symmetry_Int_Tables_number   25
_chemical_formula_structural   LiInPdRh
_chemical_formula_sum   'Li2 In2 Pd2 Rh2'
_cell_volume   490.28038429
_cell_formula_units_Z   2
loop_
 _symmetry_equiv_pos_site_id
 _symmetry_equiv_pos_as_xyz
  1  'x, y, z'
  2  '-x, -y, z'
  3  '-x, y, z'
  4  'x, -y, z'
loop_
 _atom_site_type_symbol
 _atom_site_label
 _atom_site_symmetry_multiplicity
 _atom_site_fract_x
 _atom_site_fract_y
 _atom_site_fract_z
 _atom_site_occupancy
  Li  Li0  1  0.00000000  0.00000000  0.03184000  1.0
  Li  Li1  1  0.50000000  0.50000000  0.90328000  1.0
  In  In2  1  0.00000000  0.00000000  0.90258500  1.0
  In  In3  1  0.50000000  0.50000000  0.03184000  1.0
  Pd  Pd4  1  0.00000000  0.50000000  0.96625000  1.0
  Pd  Pd5  1  0.50000000  0.00000000  0.09552000  1.0
  Rh  Rh6  1  0.00000000  0.50000000  0.09552000  1.0
  Rh  Rh7  1  0.50000000  0.00000000  0.96372000  1.0
