data_image0
_chemical_formula_structural       Li8Ga16Ir8C
_chemical_formula_sum              "Li8 Ga16 Ir8 C1"
_cell_length_a       6.11439
_cell_length_b       8.64705
_cell_length_c       26.4853
_cell_angle_alpha    90
_cell_angle_beta     90
_cell_angle_gamma    90

_space_group_name_H-M_alt    "P 1"
_space_group_IT_number       1

loop_
  _space_group_symop_operation_xyz
  'x, y, z'

loop_
  _atom_site_type_symbol
  _atom_site_label
  _atom_site_symmetry_multiplicity
  _atom_site_fract_x
  _atom_site_fract_y
  _atom_site_fract_z
  _atom_site_occupancy
  Li  Li1       1.0  0.00000  0.00000  0.87757  1.0000
  Li  Li2       1.0  0.50000  0.25000  0.95919  1.0000
  Li  Li3       1.0  0.50000  0.75000  0.95919  1.0000
  Li  Li4       1.0  0.00000  0.50000  0.87757  1.0000
  Li  Li5       1.0  0.00931  0.49462  0.04319  1.0000
  Li  Li6       1.0  0.49918  0.75000  0.13447  1.0000
  Li  Li7       1.0  0.56630  0.25000  0.17481  1.0000
  Li  Li8       1.0  0.00931  0.00538  0.04319  1.0000
  Ga  Ga1       1.0  0.25000  0.00000  0.95919  1.0000
  Ga  Ga2       1.0  0.75000  0.50000  0.95919  1.0000
  Ga  Ga3       1.0  0.75000  0.00000  0.95919  1.0000
  Ga  Ga4       1.0  0.25000  0.50000  0.95919  1.0000
  Ga  Ga5       1.0  0.75000  0.75000  0.87757  1.0000
  Ga  Ga6       1.0  0.25000  0.25000  0.87757  1.0000
  Ga  Ga7       1.0  0.25000  0.75000  0.87757  1.0000
  Ga  Ga8       1.0  0.75000  0.25000  0.87757  1.0000
  Ga  Ga9       1.0  0.26514  0.49293  0.13290  1.0000
  Ga  Ga10      1.0  0.76081  0.99537  0.12518  1.0000
  Ga  Ga11      1.0  0.76081  0.50463  0.12519  1.0000
  Ga  Ga12      1.0  0.26514  0.00707  0.13290  1.0000
  Ga  Ga13      1.0  0.73275  0.25000  0.04052  1.0000
  Ga  Ga14      1.0  0.25428  0.75000  0.04191  1.0000
  Ga  Ga15      1.0  0.26402  0.25000  0.04412  1.0000
  Ga  Ga16      1.0  0.75351  0.75000  0.04281  1.0000
  Ir  Ir1       1.0  0.00000  0.75000  0.95919  1.0000
  Ir  Ir2       1.0  0.50000  0.00000  0.87757  1.0000
  Ir  Ir3       1.0  0.00000  0.25000  0.95919  1.0000
  Ir  Ir4       1.0  0.50000  0.50000  0.87757  1.0000
  Ir  Ir5       1.0  0.97014  0.25000  0.12125  1.0000
  Ir  Ir6       1.0  0.50068  0.50671  0.03706  1.0000
  Ir  Ir7       1.0  0.01157  0.75000  0.11891  1.0000
  Ir  Ir8       1.0  0.50068  0.99329  0.03706  1.0000
  C   C1        1.0  0.23413  0.25000  0.15834  1.0000
