# generated using pymatgen
data_Li8Ga16Ir8C
_symmetry_space_group_name_H-M   'P 1'
_cell_length_a   8.64705000
_cell_length_b   6.11439000
_cell_length_c   26.48530000
_cell_angle_alpha   90.00000000
_cell_angle_beta   90.00000000
_cell_angle_gamma   90.00000000
_symmetry_Int_Tables_number   1
_chemical_formula_structural   Li8Ga16Ir8C
_chemical_formula_sum   'Li8 Ga16 Ir8 C1'
_cell_volume   1400.31584520
_cell_formula_units_Z   1
loop_
 _symmetry_equiv_pos_site_id
 _symmetry_equiv_pos_as_xyz
  1  'x, y, z'
loop_
 _atom_site_type_symbol
 _atom_site_label
 _atom_site_symmetry_multiplicity
 _atom_site_fract_x
 _atom_site_fract_y
 _atom_site_fract_z
 _atom_site_occupancy
  Li  Li0  1  0.75000000  0.00000000  0.12243000  1.0
  Li  Li1  1  0.00000000  0.50000000  0.04081000  1.0
  Li  Li2  1  0.50000000  0.50000000  0.04081000  1.0
  Li  Li3  1  0.25000000  0.00000000  0.12243000  1.0
  Li  Li4  1  0.24462000  0.00931000  0.95681000  1.0
  Li  Li5  1  0.50000000  0.49918000  0.86553000  1.0
  Li  Li6  1  0.00000000  0.56630000  0.82519000  1.0
  Li  Li7  1  0.75538000  0.00931000  0.95681000  1.0
  Ga  Ga8  1  0.75000000  0.25000000  0.04081000  1.0
  Ga  Ga9  1  0.25000000  0.75000000  0.04081000  1.0
  Ga  Ga10  1  0.75000000  0.75000000  0.04081000  1.0
  Ga  Ga11  1  0.25000000  0.25000000  0.04081000  1.0
  Ga  Ga12  1  0.50000000  0.75000000  0.12243000  1.0
  Ga  Ga13  1  0.00000000  0.25000000  0.12243000  1.0
  Ga  Ga14  1  0.50000000  0.25000000  0.12243000  1.0
  Ga  Ga15  1  0.00000000  0.75000000  0.12243000  1.0
  Ga  Ga16  1  0.24293000  0.26514000  0.86710000  1.0
  Ga  Ga17  1  0.74537000  0.76081000  0.87482000  1.0
  Ga  Ga18  1  0.25463000  0.76081000  0.87482000  1.0
  Ga  Ga19  1  0.75707000  0.26514000  0.86710000  1.0
  Ga  Ga20  1  0.00000000  0.73275000  0.95948000  1.0
  Ga  Ga21  1  0.50000000  0.25428000  0.95809000  1.0
  Ga  Ga22  1  0.00000000  0.26402000  0.95588000  1.0
  Ga  Ga23  1  0.50000000  0.75351000  0.95719000  1.0
  Ir  Ir24  1  0.50000000  0.00000000  0.04081000  1.0
  Ir  Ir25  1  0.75000000  0.50000000  0.12243000  1.0
  Ir  Ir26  1  0.00000000  0.00000000  0.04081000  1.0
  Ir  Ir27  1  0.25000000  0.50000000  0.12243000  1.0
  Ir  Ir28  1  0.00000000  0.97014000  0.87875000  1.0
  Ir  Ir29  1  0.25671000  0.50068000  0.96294000  1.0
  Ir  Ir30  1  0.50000000  0.01157000  0.88109000  1.0
  Ir  Ir31  1  0.74329000  0.50068000  0.96294000  1.0
  C  C32  1  0.00000000  0.23413000  0.84166000  1.0
