# generated using pymatgen
data_Li8Ga16Ir8C
_symmetry_space_group_name_H-M   Pm
_cell_length_a   6.11439000
_cell_length_b   8.64705000
_cell_length_c   26.48530000
_cell_angle_alpha   90.00000000
_cell_angle_beta   90.00000000
_cell_angle_gamma   90.00000000
_symmetry_Int_Tables_number   6
_chemical_formula_structural   Li8Ga16Ir8C
_chemical_formula_sum   'Li8 Ga16 Ir8 C1'
_cell_volume   1400.31584520
_cell_formula_units_Z   1
loop_
 _symmetry_equiv_pos_site_id
 _symmetry_equiv_pos_as_xyz
  1  'x, y, z'
  2  'x, -y, z'
loop_
 _atom_site_type_symbol
 _atom_site_label
 _atom_site_symmetry_multiplicity
 _atom_site_fract_x
 _atom_site_fract_y
 _atom_site_fract_z
 _atom_site_occupancy
  Li  Li0  2  0.00000000  0.25000000  0.87757000  1.0
  Li  Li1  2  0.00931000  0.24462000  0.04319000  1.0
  Li  Li2  1  0.49918000  0.50000000  0.13447000  1.0
  Li  Li3  1  0.50000000  0.00000000  0.95919000  1.0
  Li  Li4  1  0.50000000  0.50000000  0.95919000  1.0
  Li  Li5  1  0.56630000  0.00000000  0.17481000  1.0
  Ga  Ga6  2  0.25000000  0.25000000  0.95919000  1.0
  Ga  Ga7  2  0.26514000  0.24293000  0.13290000  1.0
  Ga  Ga8  2  0.75000000  0.25000000  0.95919000  1.0
  Ga  Ga9  2  0.76081000  0.25463000  0.12518000  1.0
  Ga  Ga10  1  0.25000000  0.00000000  0.87757000  1.0
  Ga  Ga11  1  0.25000000  0.50000000  0.87757000  1.0
  Ga  Ga12  1  0.25428000  0.50000000  0.04191000  1.0
  Ga  Ga13  1  0.26402000  0.00000000  0.04412000  1.0
  Ga  Ga14  1  0.73275000  0.00000000  0.04052000  1.0
  Ga  Ga15  1  0.75000000  0.00000000  0.87757000  1.0
  Ga  Ga16  1  0.75000000  0.50000000  0.87757000  1.0
  Ga  Ga17  1  0.75351000  0.50000000  0.04281000  1.0
  Ir  Ir18  2  0.50000000  0.25000000  0.87757000  1.0
  Ir  Ir19  2  0.50068000  0.25671000  0.03706000  1.0
  Ir  Ir20  1  0.00000000  0.00000000  0.95919000  1.0
  Ir  Ir21  1  0.00000000  0.50000000  0.95919000  1.0
  Ir  Ir22  1  0.01157000  0.50000000  0.11891000  1.0
  Ir  Ir23  1  0.97014000  0.00000000  0.12125000  1.0
  C  C24  1  0.23413000  0.00000000  0.15834000  1.0
