# generated using pymatgen
data_Sc8In8Ni16CO
_symmetry_space_group_name_H-M   P1
_cell_length_a   6.35421000
_cell_length_b   8.98620000
_cell_length_c   26.73970000
_cell_angle_alpha   90.00000000
_cell_angle_beta   90.00000000
_cell_angle_gamma   90.00000000
_symmetry_Int_Tables_number   1
_chemical_formula_structural   Sc8In8Ni16CO
_chemical_formula_sum   'Sc8 In8 Ni16 C1 O1'
_cell_volume   1526.84226880
_cell_formula_units_Z   1
loop_
 _symmetry_equiv_pos_site_id
 _symmetry_equiv_pos_as_xyz
  1  'x, y, z'
loop_
 _atom_site_type_symbol
 _atom_site_label
 _atom_site_symmetry_multiplicity
 _atom_site_fract_x
 _atom_site_fract_y
 _atom_site_fract_z
 _atom_site_occupancy
  Sc  Sc0  1  0.00000000  0.00000000  0.87398000  1.0
  Sc  Sc1  1  0.00000000  0.50000000  0.87398000  1.0
  Sc  Sc2  1  0.50000000  0.25000000  0.95799000  1.0
  Sc  Sc3  1  0.50000000  0.75000000  0.95799000  1.0
  Sc  Sc4  1  0.50235000  0.74589000  0.12438000  1.0
  Sc  Sc5  1  0.50254000  0.25413000  0.12438000  1.0
  Sc  Sc6  1  0.99889000  0.49995000  0.04030000  1.0
  Sc  Sc7  1  0.99961000  0.99982000  0.04117000  1.0
  In  In8  1  0.00000000  0.25000000  0.95799000  1.0
  In  In9  1  0.00000000  0.75000000  0.95799000  1.0
  In  In10  1  0.49504000  0.99985000  0.04169000  1.0
  In  In11  1  0.49912000  0.49987000  0.04169000  1.0
  In  In12  1  0.50000000  0.00000000  0.87398000  1.0
  In  In13  1  0.50000000  0.50000000  0.87398000  1.0
  In  In14  1  0.99725000  0.24906000  0.13017000  1.0
  In  In15  1  0.99728000  0.75111000  0.13018000  1.0
  Ni  Ni16  1  0.22694000  0.50006000  0.11763000  1.0
  Ni  Ni17  1  0.25000000  0.00000000  0.95799000  1.0
  Ni  Ni18  1  0.25000000  0.25000000  0.87398000  1.0
  Ni  Ni19  1  0.25000000  0.50000000  0.95799000  1.0
  Ni  Ni20  1  0.25000000  0.75000000  0.87398000  1.0
  Ni  Ni21  1  0.25038000  0.00018000  0.12794000  1.0
  Ni  Ni22  1  0.25099000  0.24869000  0.04566000  1.0
  Ni  Ni23  1  0.25135000  0.75096000  0.04562000  1.0
  Ni  Ni24  1  0.74653000  0.75088000  0.04377000  1.0
  Ni  Ni25  1  0.74703000  0.24875000  0.04372000  1.0
  Ni  Ni26  1  0.75000000  0.00000000  0.95799000  1.0
  Ni  Ni27  1  0.75000000  0.25000000  0.87398000  1.0
  Ni  Ni28  1  0.75000000  0.50000000  0.95799000  1.0
  Ni  Ni29  1  0.75000000  0.75000000  0.87398000  1.0
  Ni  Ni30  1  0.76946000  0.50007000  0.11778000  1.0
  Ni  Ni31  1  0.76949000  0.00009000  0.11634000  1.0
  C  C32  1  0.35937000  0.00015000  0.18864000  1.0
  O  O33  1  0.41087000  0.00000000  0.23064000  1.0
