# generated using pymatgen
data_Li8Mg8Ge8Pd8CO
_symmetry_space_group_name_H-M   P1
_cell_length_a   6.25843000
_cell_length_b   8.85076000
_cell_length_c   26.63810000
_cell_angle_alpha   90.00000000
_cell_angle_beta   90.00000000
_cell_angle_gamma   90.00000000
_symmetry_Int_Tables_number   1
_chemical_formula_structural   Li8Mg8Ge8Pd8CO
_chemical_formula_sum   'Li8 Mg8 Ge8 Pd8 C1 O1'
_cell_volume   1475.53395666
_cell_formula_units_Z   1
loop_
 _symmetry_equiv_pos_site_id
 _symmetry_equiv_pos_as_xyz
  1  'x, y, z'
loop_
 _atom_site_type_symbol
 _atom_site_label
 _atom_site_symmetry_multiplicity
 _atom_site_fract_x
 _atom_site_fract_y
 _atom_site_fract_z
 _atom_site_occupancy
  Li  Li0  1  0.25000000  0.00000000  0.95847000  1.0
  Li  Li1  1  0.25000000  0.50000000  0.95847000  1.0
  Li  Li2  1  0.36840000  0.49995000  0.17067000  1.0
  Li  Li3  1  0.38029000  0.00023000  0.17561000  1.0
  Li  Li4  1  0.75000000  0.25000000  0.87540000  1.0
  Li  Li5  1  0.75000000  0.75000000  0.87540000  1.0
  Li  Li6  1  0.75767000  0.75028000  0.04492000  1.0
  Li  Li7  1  0.75769000  0.24994000  0.04487000  1.0
  Mg  Mg8  1  0.00000000  0.75000000  0.95847000  1.0
  Mg  Mg9  1  0.00000000  0.25000000  0.95847000  1.0
  Mg  Mg10  1  0.03943000  0.24968000  0.12888000  1.0
  Mg  Mg11  1  0.04007000  0.75040000  0.12894000  1.0
  Mg  Mg12  1  0.48530000  0.00019000  0.04974000  1.0
  Mg  Mg13  1  0.48676000  0.50013000  0.04921000  1.0
  Mg  Mg14  1  0.50000000  0.00000000  0.87540000  1.0
  Mg  Mg15  1  0.50000000  0.50000000  0.87540000  1.0
  Ge  Ge16  1  -0.00000000  0.50000000  0.87540000  1.0
  Ge  Ge17  1  0.00000000  0.00000000  0.87540000  1.0
  Ge  Ge18  1  0.01132000  0.50013000  0.04563000  1.0
  Ge  Ge19  1  0.01208000  0.00009000  0.04586000  1.0
  Ge  Ge20  1  0.50000000  0.25000000  0.95847000  1.0
  Ge  Ge21  1  0.50000000  0.75000000  0.95847000  1.0
  Ge  Ge22  1  0.51656000  0.24982000  0.12849000  1.0
  Ge  Ge23  1  0.51668000  0.75028000  0.12850000  1.0
  Pd  Pd24  1  0.25000000  0.25000000  0.87540000  1.0
  Pd  Pd25  1  0.25000000  0.75000000  0.87540000  1.0
  Pd  Pd26  1  0.25378000  0.25048000  0.03810000  1.0
  Pd  Pd27  1  0.25398000  0.74977000  0.03811000  1.0
  Pd  Pd28  1  0.75000000  0.00000000  0.95847000  1.0
  Pd  Pd29  1  0.75000000  0.50000000  0.95847000  1.0
  Pd  Pd30  1  0.76183000  0.99995000  0.12208000  1.0
  Pd  Pd31  1  0.76291000  0.50006000  0.12210000  1.0
  C  C32  1  0.23305000  0.00001000  0.24743000  1.0
  O  O33  1  0.14182000  0.99983000  0.28444000  1.0
