# generated using pymatgen
data_Li8In8Pd8Ru8C
_symmetry_space_group_name_H-M   'P 1'
_cell_length_a   6.32045000
_cell_length_b   8.93846000
_cell_length_c   26.70380000
_cell_angle_alpha   90.00000000
_cell_angle_beta   90.00000000
_cell_angle_gamma   90.00000000
_symmetry_Int_Tables_number   1
_chemical_formula_structural   Li8In8Pd8Ru8C
_chemical_formula_sum   'Li8 In8 Pd8 Ru8 C1'
_cell_volume   1508.63357118
_cell_formula_units_Z   1
loop_
 _symmetry_equiv_pos_site_id
 _symmetry_equiv_pos_as_xyz
  1  'x, y, z'
loop_
 _atom_site_type_symbol
 _atom_site_label
 _atom_site_symmetry_multiplicity
 _atom_site_fract_x
 _atom_site_fract_y
 _atom_site_fract_z
 _atom_site_occupancy
  Li  Li0  1  0.00000000  0.25000000  0.95816000  1.0
  Li  Li1  1  0.00000000  0.75000000  0.95816000  1.0
  Li  Li2  1  0.50000000  0.50000000  0.87448000  1.0
  Li  Li3  1  0.50000000  0.00000000  0.87448000  1.0
  Li  Li4  1  0.99270000  0.74985000  0.13510000  1.0
  Li  Li5  1  0.00535000  0.25017000  0.13443000  1.0
  Li  Li6  1  0.49969000  0.00437000  0.03938000  1.0
  Li  Li7  1  0.49979000  0.49565000  0.03937000  1.0
  In  In8  1  0.00000000  0.00000000  0.87448000  1.0
  In  In9  1  0.00000000  0.50000000  0.87448000  1.0
  In  In10  1  0.50000000  0.75000000  0.95816000  1.0
  In  In11  1  0.50000000  0.25000000  0.95816000  1.0
  In  In12  1  0.00454000  0.51042000  0.04099000  1.0
  In  In13  1  0.00467000  0.98956000  0.04100000  1.0
  In  In14  1  0.40544000  0.25007000  0.16117000  1.0
  In  In15  1  0.50598000  0.74987000  0.13722000  1.0
  Pd  Pd16  1  0.75000000  0.00000000  0.95816000  1.0
  Pd  Pd17  1  0.75000000  0.50000000  0.95816000  1.0
  Pd  Pd18  1  0.25000000  0.25000000  0.87448000  1.0
  Pd  Pd19  1  0.25000000  0.75000000  0.87448000  1.0
  Pd  Pd20  1  0.71953000  0.47885000  0.12001000  1.0
  Pd  Pd21  1  0.71952000  0.02123000  0.12001000  1.0
  Pd  Pd22  1  0.27021000  0.75009000  0.04514000  1.0
  Pd  Pd23  1  0.25413000  0.25000000  0.04652000  1.0
  Ru  Ru24  1  0.25000000  0.00000000  0.95816000  1.0
  Ru  Ru25  1  0.25000000  0.50000000  0.95816000  1.0
  Ru  Ru26  1  0.75000000  0.25000000  0.87448000  1.0
  Ru  Ru27  1  0.75000000  0.75000000  0.87448000  1.0
  Ru  Ru28  1  0.25637000  0.50932000  0.12226000  1.0
  Ru  Ru29  1  0.25605000  0.99051000  0.12232000  1.0
  Ru  Ru30  1  0.74209000  0.74995000  0.04876000  1.0
  Ru  Ru31  1  0.77621000  0.25000000  0.04235000  1.0
  C  C32  1  0.69328000  0.24998000  0.10558000  1.0
