# generated using pymatgen
data_Ti8Al8Fe16C
_symmetry_space_group_name_H-M   'P 1'
_cell_length_a   8.25739000
_cell_length_b   5.83886000
_cell_length_c   26.19300000
_cell_angle_alpha   90.00000000
_cell_angle_beta   90.00000000
_cell_angle_gamma   90.00000000
_symmetry_Int_Tables_number   1
_chemical_formula_structural   Ti8Al8Fe16C
_chemical_formula_sum   'Ti8 Al8 Fe16 C1'
_cell_volume   1262.86260119
_cell_formula_units_Z   1
loop_
 _symmetry_equiv_pos_site_id
 _symmetry_equiv_pos_as_xyz
  1  'x, y, z'
loop_
 _atom_site_type_symbol
 _atom_site_label
 _atom_site_symmetry_multiplicity
 _atom_site_fract_x
 _atom_site_fract_y
 _atom_site_fract_z
 _atom_site_occupancy
  Ti  Ti0  1  0.75000000  0.00000000  0.11822000  1.0
  Ti  Ti1  1  0.00000000  0.50000000  0.03941000  1.0
  Ti  Ti2  1  0.50000000  0.50000000  0.03941000  1.0
  Ti  Ti3  1  0.25000000  0.00000000  0.11822000  1.0
  Ti  Ti4  1  0.25137000  0.00080000  0.96090000  1.0
  Ti  Ti5  1  0.50000000  0.49586000  0.88273000  1.0
  Ti  Ti6  1  0.00000000  0.53768000  0.88732000  1.0
  Ti  Ti7  1  0.74863000  0.00080000  0.96090000  1.0
  Al  Al8  1  0.50000000  0.00000000  0.03941000  1.0
  Al  Al9  1  0.75000000  0.50000000  0.11822000  1.0
  Al  Al10  1  0.00000000  0.00000000  0.03941000  1.0
  Al  Al11  1  0.25000000  0.50000000  0.11822000  1.0
  Al  Al12  1  0.00000000  0.96604000  0.88365000  1.0
  Al  Al13  1  0.25014000  0.49651000  0.96061000  1.0
  Al  Al14  1  0.50000000  0.01202000  0.87866000  1.0
  Al  Al15  1  0.74986000  0.49651000  0.96061000  1.0
  Fe  Fe16  1  0.75000000  0.25000000  0.03941000  1.0
  Fe  Fe17  1  0.25000000  0.75000000  0.03941000  1.0
  Fe  Fe18  1  0.75000000  0.75000000  0.03941000  1.0
  Fe  Fe19  1  0.25000000  0.25000000  0.03941000  1.0
  Fe  Fe20  1  0.50000000  0.75000000  0.11822000  1.0
  Fe  Fe21  1  0.00000000  0.25000000  0.11822000  1.0
  Fe  Fe22  1  0.50000000  0.25000000  0.11822000  1.0
  Fe  Fe23  1  0.00000000  0.75000000  0.11822000  1.0
  Fe  Fe24  1  0.22307000  0.23787000  0.87595000  1.0
  Fe  Fe25  1  0.73975000  0.76011000  0.88274000  1.0
  Fe  Fe26  1  0.26025000  0.76011000  0.88274000  1.0
  Fe  Fe27  1  0.77693000  0.23787000  0.87595000  1.0
  Fe  Fe28  1  0.00000000  0.75235000  0.96412000  1.0
  Fe  Fe29  1  0.50000000  0.25165000  0.95825000  1.0
  Fe  Fe30  1  0.00000000  0.24989000  0.95994000  1.0
  Fe  Fe31  1  0.50000000  0.74583000  0.95848000  1.0
  C  C32  1  0.00000000  0.25022000  0.84828000  1.0
