# generated using pymatgen
data_Ti8Al8Fe16C
_symmetry_space_group_name_H-M   Pm
_cell_length_a   5.83886000
_cell_length_b   8.25739000
_cell_length_c   26.19300000
_cell_angle_alpha   90.00000000
_cell_angle_beta   90.00000000
_cell_angle_gamma   90.00000000
_symmetry_Int_Tables_number   6
_chemical_formula_structural   Ti8Al8Fe16C
_chemical_formula_sum   'Ti8 Al8 Fe16 C1'
_cell_volume   1262.86260119
_cell_formula_units_Z   1
loop_
 _symmetry_equiv_pos_site_id
 _symmetry_equiv_pos_as_xyz
  1  'x, y, z'
  2  'x, -y, z'
loop_
 _atom_site_type_symbol
 _atom_site_label
 _atom_site_symmetry_multiplicity
 _atom_site_fract_x
 _atom_site_fract_y
 _atom_site_fract_z
 _atom_site_occupancy
  Ti  Ti0  2  0.00000000  0.25000000  0.88178000  1.0
  Ti  Ti1  2  0.00080000  0.25137000  0.03910000  1.0
  Ti  Ti2  1  0.49586000  0.50000000  0.11727000  1.0
  Ti  Ti3  1  0.50000000  0.00000000  0.96059000  1.0
  Ti  Ti4  1  0.50000000  0.50000000  0.96059000  1.0
  Ti  Ti5  1  0.53768000  0.00000000  0.11268000  1.0
  Al  Al6  2  0.49651000  0.25014000  0.03939000  1.0
  Al  Al7  2  0.50000000  0.25000000  0.88178000  1.0
  Al  Al8  1  0.00000000  0.00000000  0.96059000  1.0
  Al  Al9  1  0.00000000  0.50000000  0.96059000  1.0
  Al  Al10  1  0.01202000  0.50000000  0.12134000  1.0
  Al  Al11  1  0.96604000  0.00000000  0.11635000  1.0
  Fe  Fe12  2  0.23787000  0.22307000  0.12405000  1.0
  Fe  Fe13  2  0.25000000  0.25000000  0.96059000  1.0
  Fe  Fe14  2  0.75000000  0.25000000  0.96059000  1.0
  Fe  Fe15  2  0.76011000  0.26025000  0.11726000  1.0
  Fe  Fe16  1  0.24989000  0.00000000  0.04006000  1.0
  Fe  Fe17  1  0.25000000  0.00000000  0.88178000  1.0
  Fe  Fe18  1  0.25000000  0.50000000  0.88178000  1.0
  Fe  Fe19  1  0.25165000  0.50000000  0.04175000  1.0
  Fe  Fe20  1  0.74583000  0.50000000  0.04152000  1.0
  Fe  Fe21  1  0.75000000  0.00000000  0.88178000  1.0
  Fe  Fe22  1  0.75000000  0.50000000  0.88178000  1.0
  Fe  Fe23  1  0.75235000  0.00000000  0.03588000  1.0
  C  C24  1  0.25022000  0.00000000  0.15172000  1.0
