# generated using pymatgen
data_V16Os16CO
_symmetry_space_group_name_H-M   'P 1'
_cell_length_a   8.55299000
_cell_length_b   6.04788000
_cell_length_c   26.41470000
_cell_angle_alpha   90.00000000
_cell_angle_beta   90.00000000
_cell_angle_gamma   90.00000000
_symmetry_Int_Tables_number   1
_chemical_formula_structural   V16Os16CO
_chemical_formula_sum   'V16 Os16 C1 O1'
_cell_volume   1366.36526268
_cell_formula_units_Z   1
loop_
 _symmetry_equiv_pos_site_id
 _symmetry_equiv_pos_as_xyz
  1  'x, y, z'
loop_
 _atom_site_type_symbol
 _atom_site_label
 _atom_site_symmetry_multiplicity
 _atom_site_fract_x
 _atom_site_fract_y
 _atom_site_fract_z
 _atom_site_occupancy
  V  V0  1  0.00000000  0.00000000  0.12142000  1.0
  V  V1  1  0.25000000  0.00000000  0.04047000  1.0
  V  V2  1  0.00000000  0.99476000  0.95817000  1.0
  V  V3  1  0.25378000  0.99405000  0.87485000  1.0
  V  V4  1  0.50000000  0.00000000  0.12142000  1.0
  V  V5  1  0.75000000  0.00000000  0.04047000  1.0
  V  V6  1  0.50000000  0.00417000  0.95883000  1.0
  V  V7  1  0.74622000  0.99405000  0.87485000  1.0
  V  V8  1  0.00000000  0.50000000  0.12142000  1.0
  V  V9  1  0.25000000  0.50000000  0.04047000  1.0
  V  V10  1  0.00000000  0.50531000  0.95815000  1.0
  V  V11  1  0.25370000  0.50625000  0.87485000  1.0
  V  V12  1  0.50000000  0.50000000  0.12142000  1.0
  V  V13  1  0.75000000  0.50000000  0.04047000  1.0
  V  V14  1  0.50000000  0.49590000  0.95883000  1.0
  V  V15  1  0.74630000  0.50625000  0.87485000  1.0
  Os  Os16  1  0.25000000  0.25000000  0.12142000  1.0
  Os  Os17  1  0.00000000  0.25000000  0.04047000  1.0
  Os  Os18  1  0.24168000  0.25002000  0.95606000  1.0
  Os  Os19  1  0.50000000  0.24998000  0.88394000  1.0
  Os  Os20  1  0.75000000  0.25000000  0.12142000  1.0
  Os  Os21  1  0.50000000  0.25000000  0.04047000  1.0
  Os  Os22  1  0.75832000  0.25002000  0.95606000  1.0
  Os  Os23  1  0.00000000  0.24983000  0.87655000  1.0
  Os  Os24  1  0.25000000  0.75000000  0.12142000  1.0
  Os  Os25  1  0.00000000  0.75000000  0.04047000  1.0
  Os  Os26  1  0.25341000  0.75003000  0.95702000  1.0
  Os  Os27  1  0.50000000  0.75000000  0.88312000  1.0
  Os  Os28  1  0.75000000  0.75000000  0.12142000  1.0
  Os  Os29  1  0.50000000  0.75000000  0.04047000  1.0
  Os  Os30  1  0.74659000  0.75003000  0.95702000  1.0
  Os  Os31  1  0.00000000  0.74994000  0.88328000  1.0
  C  C32  1  0.00000000  0.24911000  0.80491000  1.0
  O  O33  1  0.00000000  0.24898000  0.76072000  1.0
