# generated using pymatgen
data_Sc4In4Ga4Pd4CO
_symmetry_space_group_name_H-M   'P 1'
_cell_length_a   6.68246000
_cell_length_b   6.68246000
_cell_length_c   25.01180000
_cell_angle_alpha   90.00000000
_cell_angle_beta   90.00000000
_cell_angle_gamma   90.00000000
_symmetry_Int_Tables_number   1
_chemical_formula_structural   Sc4In4Ga4Pd4CO
_chemical_formula_sum   'Sc4 In4 Ga4 Pd4 C1 O1'
_cell_volume   1116.90872350
_cell_formula_units_Z   1
loop_
 _symmetry_equiv_pos_site_id
 _symmetry_equiv_pos_as_xyz
  1  'x, y, z'
loop_
 _atom_site_type_symbol
 _atom_site_label
 _atom_site_symmetry_multiplicity
 _atom_site_fract_x
 _atom_site_fract_y
 _atom_site_fract_z
 _atom_site_occupancy
  Sc  Sc0  1  0.25000000  0.25000000  0.03340000  1
  Sc  Sc1  1  0.75019000  0.24981000  0.89877000  1
  Sc  Sc2  1  0.25025500  0.74974500  0.89922000  1
  Sc  Sc3  1  0.75000000  0.75000000  0.03340000  1
  In  In4  1  0.25000000  0.75000000  0.03340000  1
  In  In5  1  0.74961000  0.75025000  0.88814000  1
  In  In6  1  0.24975000  0.25039000  0.88814000  1
  In  In7  1  0.75000000  0.25000000  0.03340000  1
  Ga  Ga8  1  0.00000000  0.00000000  0.10019000  1
  Ga  Ga9  1  0.50197000  0.00321000  0.95996000  1
  Ga  Ga10  1  0.99679000  0.49803000  0.95996000  1
  Ga  Ga11  1  0.50000000  0.50000000  0.10019000  1
  Pd  Pd12  1  0.50000000  1.00000000  0.10019000  1
  Pd  Pd13  1  0.99579500  0.00420500  0.96436000  1
  Pd  Pd14  1  0.50461500  0.49538500  0.96436000  1
  Pd  Pd15  1  0.00000000  0.50000000  0.10019000  1
  C  C16  1  0.25122000  0.74878000  0.80660000  1
  O  O17  1  0.25144500  0.74855500  0.76069000  1
