# generated using pymatgen
data_Sc4In4Ga4Pd4CO
_symmetry_space_group_name_H-M   Cm
_cell_length_a   9.45042556
_cell_length_b   9.45042556
_cell_length_c   25.01180000
_cell_angle_alpha   90.00000000
_cell_angle_beta   90.00000000
_cell_angle_gamma   90.00000000
_symmetry_Int_Tables_number   8
_chemical_formula_structural   Sc4In4Ga4Pd4CO
_chemical_formula_sum   'Sc8 In8 Ga8 Pd8 C2 O2'
_cell_volume   2233.81744699
_cell_formula_units_Z   2
loop_
 _symmetry_equiv_pos_site_id
 _symmetry_equiv_pos_as_xyz
  1  'x, y, z'
  2  'x, -y, z'
  3  'x+1/2, y+1/2, z'
  4  'x+1/2, -y+1/2, z'
loop_
 _atom_site_type_symbol
 _atom_site_label
 _atom_site_symmetry_multiplicity
 _atom_site_fract_x
 _atom_site_fract_y
 _atom_site_fract_z
 _atom_site_occupancy
  Sc  Sc0  4  0.00000000  0.25000000  0.96660000  1.0
  Sc  Sc1  2  0.25019000  0.50000000  0.10123000  1.0
  Sc  Sc2  2  0.25025500  0.00000000  0.10078000  1.0
  In  In3  4  0.49968000  0.24993000  0.11186000  1.0
  In  In4  2  0.25000000  0.00000000  0.96660000  1.0
  In  In5  2  0.25000000  0.50000000  0.96660000  1.0
  Ga  Ga6  4  0.24938000  0.25259000  0.04004000  1.0
  Ga  Ga7  2  0.00000000  0.00000000  0.89981000  1.0
  Ga  Ga8  2  0.00000000  0.50000000  0.89981000  1.0
  Pd  Pd9  4  0.25000000  0.25000000  0.89981000  1.0
  Pd  Pd10  2  0.00461500  0.50000000  0.03564000  1.0
  Pd  Pd11  2  0.49579500  0.50000000  0.03564000  1.0
  C  C12  2  0.25122000  0.00000000  0.19340000  1.0
  O  O13  2  0.25144500  0.00000000  0.23931000  1.0
