# generated using pymatgen
data_Si4Ni12CO
_symmetry_space_group_name_H-M   'P 1'
_cell_length_a   7.08204000
_cell_length_b   5.00776000
_cell_length_c   23.75580000
_cell_angle_alpha   90.00000000
_cell_angle_beta   90.00000000
_cell_angle_gamma   90.00000000
_symmetry_Int_Tables_number   1
_chemical_formula_structural   Si4Ni12CO
_chemical_formula_sum   'Si4 Ni12 C1 O1'
_cell_volume   842.50316788
_cell_formula_units_Z   1
loop_
 _symmetry_equiv_pos_site_id
 _symmetry_equiv_pos_as_xyz
  1  'x, y, z'
loop_
 _atom_site_type_symbol
 _atom_site_label
 _atom_site_symmetry_multiplicity
 _atom_site_fract_x
 _atom_site_fract_y
 _atom_site_fract_z
 _atom_site_occupancy
  Si  Si0  1  0.75000000  0.00000000  0.92095000  1.0
  Si  Si1  1  0.75167000  0.50080000  0.02613000  1.0
  Si  Si2  1  0.25000000  0.00000000  0.92095000  1.0
  Si  Si3  1  0.24833000  0.50080000  0.02613000  1.0
  Ni  Ni4  1  0.75000000  0.50000000  0.92095000  1.0
  Ni  Ni5  1  0.50000000  0.25000000  0.97365000  1.0
  Ni  Ni6  1  0.50000000  0.75000000  0.97365000  1.0
  Ni  Ni7  1  0.74991000  0.00177000  0.02642000  1.0
  Ni  Ni8  1  0.50000000  0.76135000  0.07822000  1.0
  Ni  Ni9  1  0.50000000  0.27554000  0.07449000  1.0
  Ni  Ni10  1  0.25000000  0.50000000  0.92095000  1.0
  Ni  Ni11  1  0.00000000  0.25000000  0.97365000  1.0
  Ni  Ni12  1  0.00000000  0.75000000  0.97365000  1.0
  Ni  Ni13  1  0.25009000  0.00177000  0.02642000  1.0
  Ni  Ni14  1  0.00000000  0.73928000  0.07467000  1.0
  Ni  Ni15  1  0.00000000  0.25424000  0.07484000  1.0
  C  C16  1  0.50000000  0.75150000  0.15228000  1.0
  O  O17  1  0.50000000  0.74900000  0.20089000  1.0
