# generated using pymatgen
data_YInGePd
_symmetry_space_group_name_H-M   Pm
_cell_length_a   5.95203000
_cell_length_b   9.45024000
_cell_length_c   24.43650000
_cell_angle_alpha   90.00000000
_cell_angle_beta   90.00000000
_cell_angle_gamma   90.00000000
_symmetry_Int_Tables_number   6
_chemical_formula_structural   YInGePd
_chemical_formula_sum   'Y4 In4 Ge4 Pd4'
_cell_volume   1374.50698858
_cell_formula_units_Z   4
loop_
 _symmetry_equiv_pos_site_id
 _symmetry_equiv_pos_as_xyz
  1  'x, y, z'
  2  'x, -y, z'
loop_
 _atom_site_type_symbol
 _atom_site_label
 _atom_site_symmetry_multiplicity
 _atom_site_fract_x
 _atom_site_fract_y
 _atom_site_fract_z
 _atom_site_occupancy
  Y  Y0  2  0.50000000  0.25000000  0.90922000  1.0
  Y  Y1  2  0.92332000  0.25000000  0.03315000  1.0
  In  In2  1  0.22227000  0.00000000  0.96974000  1.0
  In  In3  1  0.22227000  0.50000000  0.96974000  1.0
  In  In4  1  0.62782000  0.50000000  0.09191000  1.0
  In  In5  1  0.62878000  0.00000000  0.09207000  1.0
  Ge  Ge6  2  0.00000000  0.25000000  0.90922000  1.0
  Ge  Ge7  2  0.42450000  0.24965000  0.04387000  1.0
  Pd  Pd8  1  0.13912000  0.50000000  0.08048000  1.0
  Pd  Pd9  1  0.13948000  0.00000000  0.08050000  1.0
  Pd  Pd10  1  0.72227000  0.00000000  0.96974000  1.0
  Pd  Pd11  1  0.72227000  0.50000000  0.96974000  1.0
