data_image0
_chemical_formula_structural       Sc8Al8Cu16
_chemical_formula_sum              "Sc8 Al8 Cu16"
_cell_length_a       6.23499
_cell_length_b       8.81761
_cell_length_c       26.6132
_cell_angle_alpha    90
_cell_angle_beta     90
_cell_angle_gamma    90

_space_group_name_H-M_alt    "P 1"
_space_group_IT_number       1

loop_
  _space_group_symop_operation_xyz
  'x, y, z'

loop_
  _atom_site_type_symbol
  _atom_site_label
  _atom_site_symmetry_multiplicity
  _atom_site_fract_x
  _atom_site_fract_y
  _atom_site_fract_z
  _atom_site_occupancy
  Sc  Sc1       1.0  0.00000  0.00000  0.87575  1.0000
  Sc  Sc2       1.0  0.50000  0.25000  0.95858  1.0000
  Sc  Sc3       1.0  0.50000  0.75000  0.95858  1.0000
  Sc  Sc4       1.0  0.00000  0.50000  0.87575  1.0000
  Sc  Sc5       1.0  0.00000  0.50000  0.03914  1.0000
  Sc  Sc6       1.0  0.50000  0.75000  0.12961  1.0000
  Sc  Sc7       1.0  0.50000  0.25000  0.12961  1.0000
  Sc  Sc8       1.0  1.00000  1.00000  0.03914  1.0000
  Al  Al1       1.0  0.00000  0.75000  0.95858  1.0000
  Al  Al2       1.0  0.50000  0.00000  0.87575  1.0000
  Al  Al3       1.0  0.00000  0.25000  0.95858  1.0000
  Al  Al4       1.0  0.50000  0.50000  0.87575  1.0000
  Al  Al5       1.0  1.00000  0.25000  0.11921  1.0000
  Al  Al6       1.0  0.50000  0.50000  0.04310  1.0000
  Al  Al7       1.0  0.00000  0.75000  0.11921  1.0000
  Al  Al8       1.0  0.50000  0.00000  0.04310  1.0000
  Cu  Cu1       1.0  0.25000  0.00000  0.95858  1.0000
  Cu  Cu2       1.0  0.75000  0.50000  0.95858  1.0000
  Cu  Cu3       1.0  0.75000  0.00000  0.95858  1.0000
  Cu  Cu4       1.0  0.25000  0.50000  0.95858  1.0000
  Cu  Cu5       1.0  0.75000  0.75000  0.87575  1.0000
  Cu  Cu6       1.0  0.25000  0.25000  0.87575  1.0000
  Cu  Cu7       1.0  0.25000  0.75000  0.87575  1.0000
  Cu  Cu8       1.0  0.75000  0.25000  0.87575  1.0000
  Cu  Cu9       1.0  0.23246  0.50000  0.12231  1.0000
  Cu  Cu10      1.0  0.76757  1.00000  0.12231  1.0000
  Cu  Cu11      1.0  0.76755  0.50000  0.12231  1.0000
  Cu  Cu12      1.0  0.23244  1.00000  0.12231  1.0000
  Cu  Cu13      1.0  0.73526  0.25000  0.04312  1.0000
  Cu  Cu14      1.0  0.26475  0.75000  0.04313  1.0000
  Cu  Cu15      1.0  0.26474  0.25000  0.04313  1.0000
  Cu  Cu16      1.0  0.73526  0.75000  0.04313  1.0000
