# generated using pymatgen
data_Li16Ga8Au8C
_symmetry_space_group_name_H-M   'P 1'
_cell_length_a   8.90130000
_cell_length_b   6.29417000
_cell_length_c   26.67600000
_cell_angle_alpha   90.00000000
_cell_angle_beta   90.00000000
_cell_angle_gamma   90.00000000
_symmetry_Int_Tables_number   1
_chemical_formula_structural   Li16Ga8Au8C
_chemical_formula_sum   'Li16 Ga8 Au8 C1'
_cell_volume   1494.55745665
_cell_formula_units_Z   1
loop_
 _symmetry_equiv_pos_site_id
 _symmetry_equiv_pos_as_xyz
  1  'x, y, z'
loop_
 _atom_site_type_symbol
 _atom_site_label
 _atom_site_symmetry_multiplicity
 _atom_site_fract_x
 _atom_site_fract_y
 _atom_site_fract_z
 _atom_site_occupancy
  Li  Li0  1  0.75000000  0.00000000  0.04171000  1.0
  Li  Li1  1  0.00000000  0.50000000  0.12513000  1.0
  Li  Li2  1  0.25000000  0.00000000  0.04171000  1.0
  Li  Li3  1  0.50000000  0.50000000  0.12513000  1.0
  Li  Li4  1  0.25000000  0.25000000  0.12513000  1.0
  Li  Li5  1  0.75000000  0.25000000  0.12513000  1.0
  Li  Li6  1  0.50000000  0.75000000  0.04171000  1.0
  Li  Li7  1  0.00000000  0.75000000  0.04171000  1.0
  Li  Li8  1  0.26894000  0.03218000  0.86905000  1.0
  Li  Li9  1  0.50000000  0.50622000  0.96450000  1.0
  Li  Li10  1  0.73106000  0.03218000  0.86905000  1.0
  Li  Li11  1  0.00000000  0.53017000  0.95529000  1.0
  Li  Li12  1  0.75314000  0.26008000  0.95642000  1.0
  Li  Li13  1  0.24686000  0.26008000  0.95642000  1.0
  Li  Li14  1  0.00000000  0.81780000  0.87428000  1.0
  Li  Li15  1  0.50000000  0.71506000  0.87524000  1.0
  Ga  Ga16  1  0.00000000  0.00000000  0.12513000  1.0
  Ga  Ga17  1  0.25000000  0.50000000  0.04171000  1.0
  Ga  Ga18  1  0.75000000  0.50000000  0.04171000  1.0
  Ga  Ga19  1  0.50000000  0.00000000  0.12513000  1.0
  Ga  Ga20  1  0.50000000  0.01088000  0.95612000  1.0
  Ga  Ga21  1  0.77536000  0.53577000  0.86220000  1.0
  Ga  Ga22  1  0.22464000  0.53577000  0.86220000  1.0
  Ga  Ga23  1  0.00000000  0.97984000  0.96547000  1.0
  Au  Au24  1  0.00000000  0.25000000  0.04171000  1.0
  Au  Au25  1  0.50000000  0.25000000  0.04171000  1.0
  Au  Au26  1  0.75000000  0.75000000  0.12513000  1.0
  Au  Au27  1  0.25000000  0.75000000  0.12513000  1.0
  Au  Au28  1  0.50000000  0.29167000  0.87949000  1.0
  Au  Au29  1  0.00000000  0.21360000  0.88946000  1.0
  Au  Au30  1  0.25983000  0.75815000  0.95636000  1.0
  Au  Au31  1  0.74017000  0.75815000  0.95636000  1.0
  C  C32  1  0.00000000  0.51343000  0.85672000  1.0
