# generated using pymatgen
data_Li16Ga8Au8C
_symmetry_space_group_name_H-M   Pm
_cell_length_a   6.29417000
_cell_length_b   8.90130000
_cell_length_c   26.67600000
_cell_angle_alpha   90.00000000
_cell_angle_beta   90.00000000
_cell_angle_gamma   90.00000000
_symmetry_Int_Tables_number   6
_chemical_formula_structural   Li16Ga8Au8C
_chemical_formula_sum   'Li16 Ga8 Au8 C1'
_cell_volume   1494.55745665
_cell_formula_units_Z   1
loop_
 _symmetry_equiv_pos_site_id
 _symmetry_equiv_pos_as_xyz
  1  'x, y, z'
  2  'x, -y, z'
loop_
 _atom_site_type_symbol
 _atom_site_label
 _atom_site_symmetry_multiplicity
 _atom_site_fract_x
 _atom_site_fract_y
 _atom_site_fract_z
 _atom_site_occupancy
  Li  Li0  2  0.00000000  0.25000000  0.95829000  1.0
  Li  Li1  2  0.03218000  0.26894000  0.13095000  1.0
  Li  Li2  2  0.25000000  0.25000000  0.87487000  1.0
  Li  Li3  2  0.26008000  0.24686000  0.04358000  1.0
  Li  Li4  1  0.50000000  0.00000000  0.87487000  1.0
  Li  Li5  1  0.50000000  0.50000000  0.87487000  1.0
  Li  Li6  1  0.50622000  0.50000000  0.03550000  1.0
  Li  Li7  1  0.53017000  0.00000000  0.04471000  1.0
  Li  Li8  1  0.71506000  0.50000000  0.12476000  1.0
  Li  Li9  1  0.75000000  0.00000000  0.95829000  1.0
  Li  Li10  1  0.75000000  0.50000000  0.95829000  1.0
  Li  Li11  1  0.81780000  0.00000000  0.12572000  1.0
  Ga  Ga12  2  0.50000000  0.25000000  0.95829000  1.0
  Ga  Ga13  2  0.53577000  0.22464000  0.13780000  1.0
  Ga  Ga14  1  0.00000000  0.00000000  0.87487000  1.0
  Ga  Ga15  1  0.00000000  0.50000000  0.87487000  1.0
  Ga  Ga16  1  0.01088000  0.50000000  0.04388000  1.0
  Ga  Ga17  1  0.97984000  0.00000000  0.03453000  1.0
  Au  Au18  2  0.75000000  0.25000000  0.87487000  1.0
  Au  Au19  2  0.75815000  0.25983000  0.04364000  1.0
  Au  Au20  1  0.21360000  0.00000000  0.11054000  1.0
  Au  Au21  1  0.25000000  0.00000000  0.95829000  1.0
  Au  Au22  1  0.25000000  0.50000000  0.95829000  1.0
  Au  Au23  1  0.29167000  0.50000000  0.12051000  1.0
  C  C24  1  0.51343000  0.00000000  0.14328000  1.0
