# generated using pymatgen
data_Li16Al8Pt8CO
_symmetry_space_group_name_H-M   'P 1'
_cell_length_a   8.59020000
_cell_length_b   6.07419000
_cell_length_c   26.44270000
_cell_angle_alpha   90.00000000
_cell_angle_beta   90.00000000
_cell_angle_gamma   90.00000000
_symmetry_Int_Tables_number   1
_chemical_formula_structural   Li16Al8Pt8CO
_chemical_formula_sum   'Li16 Al8 Pt8 C1 O1'
_cell_volume   1379.74060541
_cell_formula_units_Z   1
loop_
 _symmetry_equiv_pos_site_id
 _symmetry_equiv_pos_as_xyz
  1  'x, y, z'
loop_
 _atom_site_type_symbol
 _atom_site_label
 _atom_site_symmetry_multiplicity
 _atom_site_fract_x
 _atom_site_fract_y
 _atom_site_fract_z
 _atom_site_occupancy
  Li  Li0  1  0.75000000  0.00000000  0.04061000  1.0
  Li  Li1  1  0.00000000  0.50000000  0.12182000  1.0
  Li  Li2  1  0.25000000  0.00000000  0.04061000  1.0
  Li  Li3  1  0.50000000  0.50000000  0.12182000  1.0
  Li  Li4  1  0.00000000  0.25000000  0.04061000  1.0
  Li  Li5  1  0.50000000  0.25000000  0.04061000  1.0
  Li  Li6  1  0.75000000  0.75000000  0.12182000  1.0
  Li  Li7  1  0.25000000  0.75000000  0.12182000  1.0
  Li  Li8  1  0.25361000  0.98435000  0.87303000  1.0
  Li  Li9  1  0.50000000  0.49585000  0.96340000  1.0
  Li  Li10  1  0.74639000  0.98435000  0.87303000  1.0
  Li  Li11  1  0.00000000  0.50121000  0.95953000  1.0
  Li  Li12  1  0.50000000  0.25391000  0.87655000  1.0
  Li  Li13  1  0.00000000  0.24720000  0.87380000  1.0
  Li  Li14  1  0.24703000  0.76042000  0.96193000  1.0
  Li  Li15  1  0.75297000  0.76042000  0.96193000  1.0
  Al  Al16  1  0.00000000  0.00000000  0.12182000  1.0
  Al  Al17  1  0.25000000  0.50000000  0.04061000  1.0
  Al  Al18  1  0.75000000  0.50000000  0.04061000  1.0
  Al  Al19  1  0.50000000  0.00000000  0.12182000  1.0
  Al  Al20  1  0.50000000  0.00056000  0.95956000  1.0
  Al  Al21  1  0.75040000  0.51308000  0.88398000  1.0
  Al  Al22  1  0.24960000  0.51308000  0.88398000  1.0
  Al  Al23  1  0.00000000  0.99610000  0.95729000  1.0
  Pt  Pt24  1  0.25000000  0.25000000  0.12182000  1.0
  Pt  Pt25  1  0.75000000  0.25000000  0.12182000  1.0
  Pt  Pt26  1  0.50000000  0.75000000  0.04061000  1.0
  Pt  Pt27  1  0.00000000  0.75000000  0.04061000  1.0
  Pt  Pt28  1  0.75022000  0.24547000  0.95851000  1.0
  Pt  Pt29  1  0.24978000  0.24547000  0.95851000  1.0
  Pt  Pt30  1  0.00000000  0.74191000  0.87584000  1.0
  Pt  Pt31  1  0.50000000  0.73032000  0.88695000  1.0
  C  C32  1  0.00000000  0.78141000  0.80330000  1.0
  O  O33  1  0.00000000  0.79255000  0.75944000  1.0
