# generated using pymatgen
data_Li8In16Pd8C
_symmetry_space_group_name_H-M   'P 1'
_cell_length_a   9.48324000
_cell_length_b   6.70566000
_cell_length_c   27.11240000
_cell_angle_alpha   90.00000000
_cell_angle_beta   90.00000000
_cell_angle_gamma   90.00000000
_symmetry_Int_Tables_number   1
_chemical_formula_structural   Li8In16Pd8C
_chemical_formula_sum   'Li8 In16 Pd8 C1'
_cell_volume   1724.11501620
_cell_formula_units_Z   1
loop_
 _symmetry_equiv_pos_site_id
 _symmetry_equiv_pos_as_xyz
  1  'x, y, z'
loop_
 _atom_site_type_symbol
 _atom_site_label
 _atom_site_symmetry_multiplicity
 _atom_site_fract_x
 _atom_site_fract_y
 _atom_site_fract_z
 _atom_site_occupancy
  Li  Li0  1  0.75000000  0.00000000  0.13117000  1.0
  Li  Li1  1  0.00000000  0.50000000  0.04372000  1.0
  Li  Li2  1  0.50000000  0.50000000  0.04372000  1.0
  Li  Li3  1  0.25000000  0.00000000  0.13117000  1.0
  Li  Li4  1  0.24997000  0.00379000  0.94989000  1.0
  Li  Li5  1  0.50000000  0.46472000  0.86094000  1.0
  Li  Li6  1  0.00000000  0.54517000  0.85432000  1.0
  Li  Li7  1  0.75003000  0.00379000  0.94989000  1.0
  In  In8  1  0.75000000  0.25000000  0.04372000  1.0
  In  In9  1  0.25000000  0.75000000  0.04372000  1.0
  In  In10  1  0.75000000  0.75000000  0.04372000  1.0
  In  In11  1  0.25000000  0.25000000  0.04372000  1.0
  In  In12  1  0.50000000  0.75000000  0.13117000  1.0
  In  In13  1  0.00000000  0.25000000  0.13117000  1.0
  In  In14  1  0.50000000  0.25000000  0.13117000  1.0
  In  In15  1  0.00000000  0.75000000  0.13117000  1.0
  In  In16  1  0.24065000  0.25622000  0.85229000  1.0
  In  In17  1  0.73590000  0.75712000  0.85601000  1.0
  In  In18  1  0.26410000  0.75712000  0.85601000  1.0
  In  In19  1  0.75935000  0.25622000  0.85229000  1.0
  In  In20  1  0.00000000  0.73533000  0.95793000  1.0
  In  In21  1  0.50000000  0.25774000  0.95769000  1.0
  In  In22  1  0.00000000  0.26620000  0.95237000  1.0
  In  In23  1  0.50000000  0.74421000  0.95275000  1.0
  Pd  Pd24  1  0.50000000  1.00000000  0.04372000  1.0
  Pd  Pd25  1  0.75000000  0.50000000  0.13117000  1.0
  Pd  Pd26  1  0.00000000  1.00000000  0.04372000  1.0
  Pd  Pd27  1  0.25000000  0.50000000  0.13117000  1.0
  Pd  Pd28  1  0.00000000  0.94403000  0.87342000  1.0
  Pd  Pd29  1  0.25423000  0.50071000  0.95932000  1.0
  Pd  Pd30  1  0.50000000  0.01829000  0.87547000  1.0
  Pd  Pd31  1  0.74577000  0.50071000  0.95932000  1.0
  C  C32  1  0.00000000  0.24576000  0.86522000  1.0
