# generated using pymatgen
data_Li8In16Pd8C
_symmetry_space_group_name_H-M   Pm
_cell_length_a   6.70566000
_cell_length_b   9.48324000
_cell_length_c   27.11240000
_cell_angle_alpha   90.00000000
_cell_angle_beta   90.00000000
_cell_angle_gamma   90.00000000
_symmetry_Int_Tables_number   6
_chemical_formula_structural   Li8In16Pd8C
_chemical_formula_sum   'Li8 In16 Pd8 C1'
_cell_volume   1724.11501620
_cell_formula_units_Z   1
loop_
 _symmetry_equiv_pos_site_id
 _symmetry_equiv_pos_as_xyz
  1  'x, y, z'
  2  'x, -y, z'
loop_
 _atom_site_type_symbol
 _atom_site_label
 _atom_site_symmetry_multiplicity
 _atom_site_fract_x
 _atom_site_fract_y
 _atom_site_fract_z
 _atom_site_occupancy
  Li  Li0  2  0.00000000  0.25000000  0.86883000  1.0
  Li  Li1  2  0.00379000  0.24997000  0.05011000  1.0
  Li  Li2  1  0.46472000  0.50000000  0.13906000  1.0
  Li  Li3  1  0.50000000  0.00000000  0.95628000  1.0
  Li  Li4  1  0.50000000  0.50000000  0.95628000  1.0
  Li  Li5  1  0.54517000  0.00000000  0.14568000  1.0
  In  In6  2  0.25000000  0.25000000  0.95628000  1.0
  In  In7  2  0.25622000  0.24065000  0.14771000  1.0
  In  In8  2  0.75000000  0.25000000  0.95628000  1.0
  In  In9  2  0.75712000  0.26410000  0.14399000  1.0
  In  In10  1  0.25000000  0.00000000  0.86883000  1.0
  In  In11  1  0.25000000  0.50000000  0.86883000  1.0
  In  In12  1  0.25774000  0.50000000  0.04231000  1.0
  In  In13  1  0.26620000  0.00000000  0.04763000  1.0
  In  In14  1  0.73533000  0.00000000  0.04207000  1.0
  In  In15  1  0.74421000  0.50000000  0.04725000  1.0
  In  In16  1  0.75000000  0.00000000  0.86883000  1.0
  In  In17  1  0.75000000  0.50000000  0.86883000  1.0
  Pd  Pd18  2  0.50000000  0.25000000  0.86883000  1.0
  Pd  Pd19  2  0.50071000  0.25423000  0.04068000  1.0
  Pd  Pd20  1  -0.00000000  0.50000000  0.95628000  1.0
  Pd  Pd21  1  -0.00000000  0.00000000  0.95628000  1.0
  Pd  Pd22  1  0.01829000  0.50000000  0.12453000  1.0
  Pd  Pd23  1  0.94403000  0.00000000  0.12658000  1.0
  C  C24  1  0.24576000  0.00000000  0.13478000  1.0
