# generated using pymatgen
data_Li4In4Pd4Ru4C
_symmetry_space_group_name_H-M   Cmm2
_cell_length_a   8.93846611
_cell_length_b   8.93846611
_cell_length_c   24.74030000
_cell_angle_alpha   90.00000000
_cell_angle_beta   90.00000000
_cell_angle_gamma   90.00000000
_symmetry_Int_Tables_number   35
_chemical_formula_structural   Li4In4Pd4Ru4C
_chemical_formula_sum   'Li8 In8 Pd8 Ru8 C2'
_cell_volume   1976.65537311
_cell_formula_units_Z   2
loop_
 _symmetry_equiv_pos_site_id
 _symmetry_equiv_pos_as_xyz
  1  'x, y, z'
  2  '-x, -y, z'
  3  '-x, y, z'
  4  'x, -y, z'
  5  'x+1/2, y+1/2, z'
  6  '-x+1/2, -y+1/2, z'
  7  '-x+1/2, y+1/2, z'
  8  'x+1/2, -y+1/2, z'
loop_
 _atom_site_type_symbol
 _atom_site_label
 _atom_site_symmetry_multiplicity
 _atom_site_fract_x
 _atom_site_fract_y
 _atom_site_fract_z
 _atom_site_occupancy
  Li  Li0  4  0.00000000  0.25204500  0.10247000  1.0
  Li  Li1  4  0.25000000  0.00000000  0.96807000  1.0
  In  In2  4  0.00000000  0.25000000  0.96807000  1.0
  In  In3  4  0.24427000  0.00000000  0.10019000  1.0
  Ru  Ru4  4  0.25000000  0.25000000  0.03539000  1.0
  Pd  Pd5  4  0.25000000  0.25000000  0.90420000  1.0
  Pd  Pd6  2  0.00000000  0.00000000  0.03379000  1.0
  Ru  Ru7  2  0.00000000  0.00000000  0.90420000  1.0
  Pd  Pd8  2  0.00000000  0.50000000  0.02920000  1.0
  Ru  Ru9  2  0.00000000  0.50000000  0.90420000  1.0
  C  C10  2  0.00000000  0.50000000  0.11020000  1.0
