# generated using pymatgen
data_Li8Mg8Cu8Sn8C
_symmetry_space_group_name_H-M   'P 1'
_cell_length_a   9.16858000
_cell_length_b   6.48317000
_cell_length_c   26.87640000
_cell_angle_alpha   90.00000000
_cell_angle_beta   90.00000000
_cell_angle_gamma   90.00000000
_symmetry_Int_Tables_number   1
_chemical_formula_structural   Li8Mg8Cu8Sn8C
_chemical_formula_sum   'Li8 Mg8 Cu8 Sn8 C1'
_cell_volume   1597.57253076
_cell_formula_units_Z   1
loop_
 _symmetry_equiv_pos_site_id
 _symmetry_equiv_pos_as_xyz
  1  'x, y, z'
loop_
 _atom_site_type_symbol
 _atom_site_label
 _atom_site_symmetry_multiplicity
 _atom_site_fract_x
 _atom_site_fract_y
 _atom_site_fract_z
 _atom_site_occupancy
  Li  Li0  1  0.00000000  1.00000000  0.04264000  1.0
  Li  Li1  1  0.50000000  1.00000000  0.04264000  1.0
  Li  Li2  1  0.25000000  0.50000000  0.12793000  1.0
  Li  Li3  1  0.75000000  0.50000000  0.12793000  1.0
  Li  Li4  1  0.50000000  0.05101000  0.82249000  1.0
  Li  Li5  1  0.00000000  0.95554000  0.83932000  1.0
  Li  Li6  1  0.75018000  0.49769000  0.95469000  1.0
  Li  Li7  1  0.24982000  0.49769000  0.95469000  1.0
  Mg  Mg8  1  0.75000000  0.75000000  0.04264000  1.0
  Mg  Mg9  1  0.25000000  0.75000000  0.04264000  1.0
  Mg  Mg10  1  0.00000000  0.25000000  0.12793000  1.0
  Mg  Mg11  1  0.50000000  0.25000000  0.12793000  1.0
  Mg  Mg12  1  0.27576000  0.74599000  0.86614000  1.0
  Mg  Mg13  1  0.72424000  0.74599000  0.86614000  1.0
  Mg  Mg14  1  0.50000000  0.23238000  0.95191000  1.0
  Mg  Mg15  1  0.00000000  0.22924000  0.94627000  1.0
  Cu  Cu16  1  0.75000000  0.00000000  0.12793000  1.0
  Cu  Cu17  1  0.25000000  0.00000000  0.12793000  1.0
  Cu  Cu18  1  0.50000000  0.50000000  0.04264000  1.0
  Cu  Cu19  1  0.00000000  0.50000000  0.04264000  1.0
  Cu  Cu20  1  0.25346000  0.00175000  0.95953000  1.0
  Cu  Cu21  1  0.74654000  0.00175000  0.95953000  1.0
  Cu  Cu22  1  0.00000000  0.54639000  0.87267000  1.0
  Cu  Cu23  1  0.50000000  0.47738000  0.87095000  1.0
  Sn  Sn24  1  0.75000000  0.25000000  0.04264000  1.0
  Sn  Sn25  1  0.25000000  0.25000000  0.04264000  1.0
  Sn  Sn26  1  0.00000000  0.75000000  0.12793000  1.0
  Sn  Sn27  1  0.50000000  0.75000000  0.12793000  1.0
  Sn  Sn28  1  0.24625000  0.22293000  0.86403000  1.0
  Sn  Sn29  1  0.75375000  0.22293000  0.86403000  1.0
  Sn  Sn30  1  0.50000000  0.75222000  0.95321000  1.0
  Sn  Sn31  1  0.00000000  0.76310000  0.95441000  1.0
  C  C32  1  0.00000000  0.25670000  0.86153000  1.0
