data_image0
_chemical_formula_structural       In8Fe8Co16C
_chemical_formula_sum              "In8 Fe8 Co16 C1"
_cell_length_a       6.01864
_cell_length_b       8.51164
_cell_length_c       26.3837
_cell_angle_alpha    90
_cell_angle_beta     90
_cell_angle_gamma    90

_space_group_name_H-M_alt    "P 1"
_space_group_IT_number       1

loop_
  _space_group_symop_operation_xyz
  'x, y, z'

loop_
  _atom_site_type_symbol
  _atom_site_label
  _atom_site_symmetry_multiplicity
  _atom_site_fract_x
  _atom_site_fract_y
  _atom_site_fract_z
  _atom_site_occupancy
  In  In1       1.0  0.00000  0.00000  0.87902  1.0000
  In  In2       1.0  0.50000  0.25000  0.95967  1.0000
  In  In3       1.0  0.50000  0.75000  0.95967  1.0000
  In  In4       1.0  0.00000  0.50000  0.87902  1.0000
  In  In5       1.0  0.00128  0.49547  0.04179  1.0000
  In  In6       1.0  0.47791  0.75003  0.13772  1.0000
  In  In7       1.0  0.55933  0.24997  0.17047  1.0000
  In  In8       1.0  0.00128  0.00453  0.04180  1.0000
  Fe  Fe1       1.0  0.00000  0.75000  0.95967  1.0000
  Fe  Fe2       1.0  0.50000  0.00000  0.87902  1.0000
  Fe  Fe3       1.0  0.00000  0.25000  0.95967  1.0000
  Fe  Fe4       1.0  0.50000  0.50000  0.87902  1.0000
  Fe  Fe5       1.0  0.94131  0.24994  0.11897  1.0000
  Fe  Fe6       1.0  0.50303  0.50514  0.03998  1.0000
  Fe  Fe7       1.0  0.98449  0.75000  0.11636  1.0000
  Fe  Fe8       1.0  0.50304  0.99487  0.03999  1.0000
  Co  Co1       1.0  0.25000  0.00000  0.95967  1.0000
  Co  Co2       1.0  0.75000  0.50000  0.95967  1.0000
  Co  Co3       1.0  0.75000  0.00000  0.95967  1.0000
  Co  Co4       1.0  0.25000  0.50000  0.95967  1.0000
  Co  Co5       1.0  0.75000  0.75000  0.87902  1.0000
  Co  Co6       1.0  0.25000  0.25000  0.87902  1.0000
  Co  Co7       1.0  0.25000  0.75000  0.87902  1.0000
  Co  Co8       1.0  0.75000  0.25000  0.87902  1.0000
  Co  Co9       1.0  0.29167  0.46712  0.11801  1.0000
  Co  Co10      1.0  0.72369  0.00395  0.11809  1.0000
  Co  Co11      1.0  0.72375  0.49608  0.11809  1.0000
  Co  Co12      1.0  0.29176  0.03290  0.11800  1.0000
  Co  Co13      1.0  0.72411  0.24995  0.04619  1.0000
  Co  Co14      1.0  0.25168  0.75005  0.04437  1.0000
  Co  Co15      1.0  0.28829  0.24995  0.04820  1.0000
  Co  Co16      1.0  0.74128  0.75005  0.04484  1.0000
  C   C1        1.0  0.24821  0.25001  0.11953  1.0000
