# generated using pymatgen
data_In8Fe8Co16C
_symmetry_space_group_name_H-M   'P 1'
_cell_length_a   6.01864000
_cell_length_b   8.51164000
_cell_length_c   26.38370000
_cell_angle_alpha   90.00000000
_cell_angle_beta   90.00000000
_cell_angle_gamma   90.00000000
_symmetry_Int_Tables_number   1
_chemical_formula_structural   In8Fe8Co16C
_chemical_formula_sum   'In8 Fe8 Co16 C1'
_cell_volume   1351.59729550
_cell_formula_units_Z   1
loop_
 _symmetry_equiv_pos_site_id
 _symmetry_equiv_pos_as_xyz
  1  'x, y, z'
loop_
 _atom_site_type_symbol
 _atom_site_label
 _atom_site_symmetry_multiplicity
 _atom_site_fract_x
 _atom_site_fract_y
 _atom_site_fract_z
 _atom_site_occupancy
  In  In0  1  0.00000000  0.00000000  0.87902000  1.0
  In  In1  1  0.50000000  0.25000000  0.95967000  1.0
  In  In2  1  0.50000000  0.75000000  0.95967000  1.0
  In  In3  1  0.00000000  0.50000000  0.87902000  1.0
  In  In4  1  0.00128000  0.49547000  0.04179000  1.0
  In  In5  1  0.47791000  0.75003000  0.13772000  1.0
  In  In6  1  0.55933000  0.24997000  0.17047000  1.0
  In  In7  1  0.00128000  0.00453000  0.04180000  1.0
  Fe  Fe8  1  0.00000000  0.75000000  0.95967000  1.0
  Fe  Fe9  1  0.50000000  0.00000000  0.87902000  1.0
  Fe  Fe10  1  0.00000000  0.25000000  0.95967000  1.0
  Fe  Fe11  1  0.50000000  0.50000000  0.87902000  1.0
  Fe  Fe12  1  0.94131000  0.24994000  0.11897000  1.0
  Fe  Fe13  1  0.50303000  0.50514000  0.03998000  1.0
  Fe  Fe14  1  0.98449000  0.75000000  0.11636000  1.0
  Fe  Fe15  1  0.50304000  0.99487000  0.03999000  1.0
  Co  Co16  1  0.25000000  0.00000000  0.95967000  1.0
  Co  Co17  1  0.75000000  0.50000000  0.95967000  1.0
  Co  Co18  1  0.75000000  0.00000000  0.95967000  1.0
  Co  Co19  1  0.25000000  0.50000000  0.95967000  1.0
  Co  Co20  1  0.75000000  0.75000000  0.87902000  1.0
  Co  Co21  1  0.25000000  0.25000000  0.87902000  1.0
  Co  Co22  1  0.25000000  0.75000000  0.87902000  1.0
  Co  Co23  1  0.75000000  0.25000000  0.87902000  1.0
  Co  Co24  1  0.29167000  0.46712000  0.11801000  1.0
  Co  Co25  1  0.72369000  0.00395000  0.11809000  1.0
  Co  Co26  1  0.72375000  0.49608000  0.11809000  1.0
  Co  Co27  1  0.29176000  0.03290000  0.11800000  1.0
  Co  Co28  1  0.72411000  0.24995000  0.04619000  1.0
  Co  Co29  1  0.25168000  0.75005000  0.04437000  1.0
  Co  Co30  1  0.28829000  0.24995000  0.04820000  1.0
  Co  Co31  1  0.74128000  0.75005000  0.04484000  1.0
  C  C32  1  0.24821000  0.25001000  0.11953000  1.0
