# generated using pymatgen
data_Li8Ga8Cu8Pd8CO
_symmetry_space_group_name_H-M   Pm
_cell_length_a   6.02537000
_cell_length_b   8.52116000
_cell_length_c   26.39090000
_cell_angle_alpha   90.00000000
_cell_angle_beta   90.00000000
_cell_angle_gamma   90.00000000
_symmetry_Int_Tables_number   6
_chemical_formula_structural   Li8Ga8Cu8Pd8CO
_chemical_formula_sum   'Li8 Ga8 Cu8 Pd8 C1 O1'
_cell_volume   1354.99172170
_cell_formula_units_Z   1
loop_
 _symmetry_equiv_pos_site_id
 _symmetry_equiv_pos_as_xyz
  1  'x, y, z'
  2  'x, -y, z'
loop_
 _atom_site_type_symbol
 _atom_site_label
 _atom_site_symmetry_multiplicity
 _atom_site_fract_x
 _atom_site_fract_y
 _atom_site_fract_z
 _atom_site_occupancy
  Li  Li0  2  0.25000000  0.25000000  0.95964000  1.0
  Li  Li1  2  0.25087000  0.25330000  0.13053000  1.0
  Li  Li2  1  0.74782000  0.50000000  0.03615000  1.0
  Li  Li3  1  0.75000000  0.00000000  0.87892000  1.0
  Li  Li4  1  0.75000000  0.50000000  0.87892000  1.0
  Li  Li5  1  0.76140000  0.00000000  0.03898000  1.0
  Ga  Ga6  2  0.74337000  0.25105000  0.12211000  1.0
  Ga  Ga7  2  0.75000000  0.25000000  0.95964000  1.0
  Ga  Ga8  1  0.23830000  0.00000000  0.04204000  1.0
  Ga  Ga9  1  0.24941000  0.50000000  0.04068000  1.0
  Ga  Ga10  1  0.25000000  0.00000000  0.87892000  1.0
  Ga  Ga11  1  0.25000000  0.50000000  0.87892000  1.0
  Cu  Cu12  2  0.00000000  0.25000000  0.87892000  1.0
  Cu  Cu13  2  0.00307000  0.24917000  0.04206000  1.0
  Cu  Cu14  1  0.50000000  0.00000000  0.95964000  1.0
  Cu  Cu15  1  0.50000000  0.50000000  0.95964000  1.0
  Cu  Cu16  1  0.51767000  0.50000000  0.11434000  1.0
  Cu  Cu17  1  0.52380000  0.00000000  0.11283000  1.0
  Pd  Pd18  2  0.49281000  0.24705000  0.04001000  1.0
  Pd  Pd19  2  0.50000000  0.25000000  0.87892000  1.0
  Pd  Pd20  1  -0.00000000  0.50000000  0.95964000  1.0
  Pd  Pd21  1  0.00000000  0.00000000  0.95964000  1.0
  Pd  Pd22  1  0.97800000  0.50000000  0.11500000  1.0
  Pd  Pd23  1  0.99298000  0.00000000  0.12739000  1.0
  C  C24  1  0.10398000  0.00000000  0.19724000  1.0
  O  O25  1  0.14048000  0.00000000  0.24020000  1.0
