# generated using pymatgen
data_Ti16Ru16CO
_symmetry_space_group_name_H-M   'P 1'
_cell_length_a   8.74368000
_cell_length_b   6.18271000
_cell_length_c   26.55780000
_cell_angle_alpha   90.00000000
_cell_angle_beta   90.00000000
_cell_angle_gamma   90.00000000
_symmetry_Int_Tables_number   1
_chemical_formula_structural   Ti16Ru16CO
_chemical_formula_sum   'Ti16 Ru16 C1 O1'
_cell_volume   1435.70504804
_cell_formula_units_Z   1
loop_
 _symmetry_equiv_pos_site_id
 _symmetry_equiv_pos_as_xyz
  1  'x, y, z'
loop_
 _atom_site_type_symbol
 _atom_site_label
 _atom_site_symmetry_multiplicity
 _atom_site_fract_x
 _atom_site_fract_y
 _atom_site_fract_z
 _atom_site_occupancy
  Ti  Ti0  1  0.00000000  0.00000000  0.12346000  1.0
  Ti  Ti1  1  0.25000000  0.00000000  0.04115000  1.0
  Ti  Ti2  1  0.00000000  0.99612000  0.95831000  1.0
  Ti  Ti3  1  0.25034000  0.99803000  0.87537000  1.0
  Ti  Ti4  1  0.50000000  0.00000000  0.12346000  1.0
  Ti  Ti5  1  0.75000000  0.00000000  0.04115000  1.0
  Ti  Ti6  1  0.50000000  0.00087000  0.95733000  1.0
  Ti  Ti7  1  0.74966000  0.99803000  0.87537000  1.0
  Ti  Ti8  1  0.00000000  0.50000000  0.12346000  1.0
  Ti  Ti9  1  0.25000000  0.50000000  0.04115000  1.0
  Ti  Ti10  1  0.00000000  0.50410000  0.95830000  1.0
  Ti  Ti11  1  0.25028000  0.50222000  0.87537000  1.0
  Ti  Ti12  1  0.50000000  0.50000000  0.12346000  1.0
  Ti  Ti13  1  0.75000000  0.50000000  0.04115000  1.0
  Ti  Ti14  1  0.50000000  0.49916000  0.95733000  1.0
  Ti  Ti15  1  0.74972000  0.50222000  0.87537000  1.0
  Ru  Ru16  1  0.25000000  0.25000000  0.12346000  1.0
  Ru  Ru17  1  0.00000000  0.25000000  0.04115000  1.0
  Ru  Ru18  1  0.24532000  0.25007000  0.95830000  1.0
  Ru  Ru19  1  0.00000000  0.24982000  0.87557000  1.0
  Ru  Ru20  1  0.75000000  0.25000000  0.12346000  1.0
  Ru  Ru21  1  0.50000000  0.25000000  0.04115000  1.0
  Ru  Ru22  1  0.75468000  0.25007000  0.95830000  1.0
  Ru  Ru23  1  0.50000000  0.25006000  0.88193000  1.0
  Ru  Ru24  1  0.25000000  0.75000000  0.12346000  1.0
  Ru  Ru25  1  0.00000000  0.75000000  0.04115000  1.0
  Ru  Ru26  1  0.25099000  0.75006000  0.95846000  1.0
  Ru  Ru27  1  0.00000000  0.74998000  0.88221000  1.0
  Ru  Ru28  1  0.75000000  0.75000000  0.12346000  1.0
  Ru  Ru29  1  0.50000000  0.75000000  0.04115000  1.0
  Ru  Ru30  1  0.74901000  0.75006000  0.95846000  1.0
  Ru  Ru31  1  0.50000000  0.75005000  0.88118000  1.0
  C  C32  1  0.00000000  0.24885000  0.80446000  1.0
  O  O33  1  0.00000000  0.24897000  0.76048000  1.0
