# generated using pymatgen
data_Ti16Ru16CO
_symmetry_space_group_name_H-M   Pm
_cell_length_a   6.18271000
_cell_length_b   8.74368000
_cell_length_c   26.55780000
_cell_angle_alpha   90.00000000
_cell_angle_beta   90.00000000
_cell_angle_gamma   90.00000000
_symmetry_Int_Tables_number   6
_chemical_formula_structural   Ti16Ru16CO
_chemical_formula_sum   'Ti16 Ru16 C1 O1'
_cell_volume   1435.70504804
_cell_formula_units_Z   1
loop_
 _symmetry_equiv_pos_site_id
 _symmetry_equiv_pos_as_xyz
  1  'x, y, z'
  2  'x, -y, z'
loop_
 _atom_site_type_symbol
 _atom_site_label
 _atom_site_symmetry_multiplicity
 _atom_site_fract_x
 _atom_site_fract_y
 _atom_site_fract_z
 _atom_site_occupancy
  Ti  Ti0  2  0.00000000  0.25000000  0.95885000  1.0
  Ti  Ti1  2  0.50000000  0.25000000  0.95885000  1.0
  Ti  Ti2  2  0.50222000  0.25028000  0.12463000  1.0
  Ti  Ti3  2  0.99803000  0.25034000  0.12463000  1.0
  Ti  Ti4  1  0.00000000  0.00000000  0.87654000  1.0
  Ti  Ti5  1  0.00000000  0.50000000  0.87654000  1.0
  Ti  Ti6  1  0.00087000  0.50000000  0.04267000  1.0
  Ti  Ti7  1  0.49916000  0.50000000  0.04267000  1.0
  Ti  Ti8  1  0.50000000  0.00000000  0.87654000  1.0
  Ti  Ti9  1  0.50000000  0.50000000  0.87654000  1.0
  Ti  Ti10  1  0.50410000  0.00000000  0.04170000  1.0
  Ti  Ti11  1  0.99612000  0.00000000  0.04169000  1.0
  Ru  Ru12  2  0.25000000  0.25000000  0.87654000  1.0
  Ru  Ru13  2  0.25007000  0.24532000  0.04170000  1.0
  Ru  Ru14  2  0.75000000  0.25000000  0.87654000  1.0
  Ru  Ru15  2  0.75006000  0.25099000  0.04154000  1.0
  Ru  Ru16  1  0.24982000  0.00000000  0.12443000  1.0
  Ru  Ru17  1  0.25000000  0.00000000  0.95885000  1.0
  Ru  Ru18  1  0.25000000  0.50000000  0.95885000  1.0
  Ru  Ru19  1  0.25006000  0.50000000  0.11807000  1.0
  Ru  Ru20  1  0.74998000  0.00000000  0.11779000  1.0
  Ru  Ru21  1  0.75000000  0.00000000  0.95885000  1.0
  Ru  Ru22  1  0.75000000  0.50000000  0.95885000  1.0
  Ru  Ru23  1  0.75005000  0.50000000  0.11882000  1.0
  C  C24  1  0.24885000  0.00000000  0.19554000  1.0
  O  O25  1  0.24897000  0.00000000  0.23952000  1.0
