data_image0
_chemical_formula_structural       RuVRuVRuVRuVRuVRuVRuVRuV
_chemical_formula_sum              "Ru8 V8"
_cell_length_a       6.03636
_cell_length_b       6.03636
_cell_length_c       24.5273
_cell_angle_alpha    90
_cell_angle_beta     90
_cell_angle_gamma    90

_space_group_name_H-M_alt    "P 1"
_space_group_IT_number       1

loop_
  _space_group_symop_operation_xyz
  'x, y, z'

loop_
  _atom_site_type_symbol
  _atom_site_label
  _atom_site_symmetry_multiplicity
  _atom_site_fract_x
  _atom_site_fract_y
  _atom_site_fract_z
  _atom_site_occupancy
  Ru  Ru1       1.0  0.25000  0.25000  0.97938  1.0000
  V   V1        1.0  0.00000  0.00000  0.91785  1.0000
  Ru  Ru2       1.0  0.25000  0.25000  0.10244  1.0000
  V   V2        1.0  0.00000  0.00000  0.04091  1.0000
  Ru  Ru3       1.0  0.25000  0.75000  0.97938  1.0000
  V   V3        1.0  0.00000  0.50000  0.91785  1.0000
  Ru  Ru4       1.0  0.25000  0.75000  0.10244  1.0000
  V   V4        1.0  0.00000  0.50000  0.04091  1.0000
  Ru  Ru5       1.0  0.75000  0.25000  0.97938  1.0000
  V   V5        1.0  0.50000  0.00000  0.91785  1.0000
  Ru  Ru6       1.0  0.75000  0.25000  0.10244  1.0000
  V   V6        1.0  0.50000  0.00000  0.04091  1.0000
  Ru  Ru7       1.0  0.75000  0.75000  0.97938  1.0000
  V   V7        1.0  0.50000  0.50000  0.91785  1.0000
  Ru  Ru8       1.0  0.75000  0.75000  0.10244  1.0000
  V   V8        1.0  0.50000  0.50000  0.04091  1.0000
