# generated using pymatgen
data_Ta4Ga4Ni8CO
_symmetry_space_group_name_H-M   'P 1'
_cell_length_a   5.98793000
_cell_length_b   5.98793000
_cell_length_c   24.49090000
_cell_angle_alpha   90.00000000
_cell_angle_beta   90.00000000
_cell_angle_gamma   90.00000000
_symmetry_Int_Tables_number   1
_chemical_formula_structural   Ta4Ga4Ni8CO
_chemical_formula_sum   'Ta4 Ga4 Ni8 C1 O1'
_cell_volume   878.12870600
_cell_formula_units_Z   1
loop_
 _symmetry_equiv_pos_site_id
 _symmetry_equiv_pos_as_xyz
  1  'x, y, z'
loop_
 _atom_site_type_symbol
 _atom_site_label
 _atom_site_symmetry_multiplicity
 _atom_site_fract_x
 _atom_site_fract_y
 _atom_site_fract_z
 _atom_site_occupancy
  Ta  Ta0  1  0.00000000  0.00000000  0.90831000  1.0
  Ta  Ta1  1  0.50000000  0.50000000  0.90831000  1.0
  Ta  Ta2  1  0.50352000  0.99676000  0.03315000  1.0
  Ta  Ta3  1  0.99668000  0.50360000  0.03322000  1.0
  Ga  Ga4  1  0.00033000  0.00037000  0.03363000  1.0
  Ga  Ga5  1  0.50000000  0.00000000  0.90831000  1.0
  Ga  Ga6  1  0.00000000  0.50000000  0.90831000  1.0
  Ga  Ga7  1  0.49996000  0.50005000  0.03330000  1.0
  Ni  Ni8  1  0.25000000  0.25000000  0.96944000  1.0
  Ni  Ni9  1  0.74963000  0.74981000  0.09001000  1.0
  Ni  Ni10  1  0.75000000  0.25000000  0.96944000  1.0
  Ni  Ni11  1  0.25035000  0.74980000  0.08799000  1.0
  Ni  Ni12  1  0.75000000  0.75000000  0.96944000  1.0
  Ni  Ni13  1  0.25022000  0.25024000  0.09193000  1.0
  Ni  Ni14  1  0.25000000  0.75000000  0.96944000  1.0
  Ni  Ni15  1  0.74987000  0.25022000  0.08799000  1.0
  C  C16  1  0.25002000  0.25000000  0.16519000  1.0
  O  O17  1  0.24978000  0.24977000  0.21223000  1.0
