# generated using pymatgen
data_Sc4In4Ge4Pd4CO
_symmetry_space_group_name_H-M   'P 1'
_cell_length_a   6.05174000
_cell_length_b   8.38060000
_cell_length_c   24.46740000
_cell_angle_alpha   90.00000000
_cell_angle_beta   90.00000000
_cell_angle_gamma   90.00000000
_symmetry_Int_Tables_number   1
_chemical_formula_structural   Sc4In4Ge4Pd4CO
_chemical_formula_sum   'Sc4 In4 Ge4 Pd4 C1 O1'
_cell_volume   1240.91831886
_cell_formula_units_Z   1
loop_
 _symmetry_equiv_pos_site_id
 _symmetry_equiv_pos_as_xyz
  1  'x, y, z'
loop_
 _atom_site_type_symbol
 _atom_site_label
 _atom_site_symmetry_multiplicity
 _atom_site_fract_x
 _atom_site_fract_y
 _atom_site_fract_z
 _atom_site_occupancy
  Sc  Sc0  1  0.79667000  0.75041000  0.02905000  1.0
  Sc  Sc1  1  0.38249000  0.75000000  0.90871000  1.0
  Sc  Sc2  1  0.79677000  0.24956000  0.02908000  1.0
  Sc  Sc3  1  0.38249000  0.25000000  0.90871000  1.0
  In  In4  1  0.43108000  0.00006000  0.09432000  1.0
  In  In5  1  0.08833000  0.00000000  0.96957000  1.0
  In  In6  1  0.50589000  0.50005000  0.09583000  1.0
  In  In7  1  0.08833000  0.50000000  0.96957000  1.0
  Ge  Ge8  1  0.93431000  0.99989000  0.09970000  1.0
  Ge  Ge9  1  0.58833000  0.00000000  0.96957000  1.0
  Ge  Ge10  1  0.04838000  0.49999000  0.08309000  1.0
  Ge  Ge11  1  0.58833000  0.50000000  0.96957000  1.0
  Pd  Pd12  1  0.31284000  0.74375000  0.02472000  1.0
  Pd  Pd13  1  0.88249000  0.75000000  0.90871000  1.0
  Pd  Pd14  1  0.31297000  0.25629000  0.02470000  1.0
  Pd  Pd15  1  0.88249000  0.25000000  0.90871000  1.0
  C  C16  1  0.92119000  0.99995000  0.17968000  1.0
  O  O17  1  0.95251000  0.00003000  0.22650000  1.0
