# generated using pymatgen
data_Ti4Co8Sn4CO
_symmetry_space_group_name_H-M   'P 1'
_cell_length_a   6.11439000
_cell_length_b   6.11439000
_cell_length_c   24.58580000
_cell_angle_alpha   90.00000000
_cell_angle_beta   90.00000000
_cell_angle_gamma   90.00000000
_symmetry_Int_Tables_number   1
_chemical_formula_structural   Ti4Co8Sn4CO
_chemical_formula_sum   'Ti4 Co8 Sn4 C1 O1'
_cell_volume   919.15894291
_cell_formula_units_Z   1
loop_
 _symmetry_equiv_pos_site_id
 _symmetry_equiv_pos_as_xyz
  1  'x, y, z'
loop_
 _atom_site_type_symbol
 _atom_site_label
 _atom_site_symmetry_multiplicity
 _atom_site_fract_x
 _atom_site_fract_y
 _atom_site_fract_z
 _atom_site_occupancy
  Ti  Ti0  1  0.00008000  0.00009000  0.08979000  1.0
  Ti  Ti1  1  0.49991000  0.49998000  0.08980000  1.0
  Ti  Ti2  1  0.50000000  0.00000000  0.96891000  1.0
  Ti  Ti3  1  0.00000000  0.50000000  0.96891000  1.0
  Co  Co4  1  0.24882000  0.25115000  0.03419000  1.0
  Co  Co5  1  0.75000000  0.75000000  0.90674000  1.0
  Co  Co6  1  0.75119000  0.25116000  0.03420000  1.0
  Co  Co7  1  0.25000000  0.75000000  0.90674000  1.0
  Co  Co8  1  0.75118000  0.74889000  0.03422000  1.0
  Co  Co9  1  0.25000000  0.25000000  0.90674000  1.0
  Co  Co10  1  0.24883000  0.74890000  0.03421000  1.0
  Co  Co11  1  0.75000000  0.25000000  0.90674000  1.0
  Sn  Sn12  1  0.00000000  0.00000000  0.96891000  1.0
  Sn  Sn13  1  0.50001000  0.00004000  0.10162000  1.0
  Sn  Sn14  1  0.00002000  0.50004000  0.10211000  1.0
  Sn  Sn15  1  0.50000000  0.50000000  0.96891000  1.0
  C  C16  1  0.99801000  0.50071000  0.28017000  1.0
  O  O17  1  0.00189000  0.49817000  0.32636000  1.0
