# generated using pymatgen
data_Ti8Ga8Ni16C
_symmetry_space_group_name_H-M   'P 1'
_cell_length_a   5.94410000
_cell_length_b   8.40623000
_cell_length_c   26.30470000
_cell_angle_alpha   90.00000000
_cell_angle_beta   90.00000000
_cell_angle_gamma   90.00000000
_symmetry_Int_Tables_number   1
_chemical_formula_structural   Ti8Ga8Ni16C
_chemical_formula_sum   'Ti8 Ga8 Ni16 C1'
_cell_volume   1314.37935396
_cell_formula_units_Z   1
loop_
 _symmetry_equiv_pos_site_id
 _symmetry_equiv_pos_as_xyz
  1  'x, y, z'
loop_
 _atom_site_type_symbol
 _atom_site_label
 _atom_site_symmetry_multiplicity
 _atom_site_fract_x
 _atom_site_fract_y
 _atom_site_fract_z
 _atom_site_occupancy
  Ti  Ti0  1  0.00000000  0.00000000  0.88016000  1.0
  Ti  Ti1  1  0.50000000  0.25000000  0.96005000  1.0
  Ti  Ti2  1  0.50000000  0.75000000  0.96005000  1.0
  Ti  Ti3  1  0.00000000  0.50000000  0.88016000  1.0
  Ti  Ti4  1  0.99447000  0.50549000  0.03912000  1.0
  Ti  Ti5  1  0.49255000  0.74996000  0.11988000  1.0
  Ti  Ti6  1  0.54292000  0.24991000  0.11649000  1.0
  Ti  Ti7  1  0.99445000  0.99442000  0.03913000  1.0
  Ga  Ga8  1  0.00000000  0.75000000  0.96005000  1.0
  Ga  Ga9  1  0.50000000  0.00000000  0.88016000  1.0
  Ga  Ga10  1  0.00000000  0.25000000  0.96005000  1.0
  Ga  Ga11  1  0.50000000  0.50000000  0.88016000  1.0
  Ga  Ga12  1  0.92893000  0.25007000  0.15483000  1.0
  Ga  Ga13  1  0.49686000  0.49580000  0.04047000  1.0
  Ga  Ga14  1  0.01123000  0.74988000  0.12014000  1.0
  Ga  Ga15  1  0.49687000  0.00408000  0.04049000  1.0
  Ni  Ni16  1  0.25000000  0.00000000  0.96005000  1.0
  Ni  Ni17  1  0.75000000  0.50000000  0.96005000  1.0
  Ni  Ni18  1  0.75000000  0.00000000  0.96005000  1.0
  Ni  Ni19  1  0.25000000  0.50000000  0.96005000  1.0
  Ni  Ni20  1  0.75000000  0.75000000  0.88016000  1.0
  Ni  Ni21  1  0.25000000  0.25000000  0.88016000  1.0
  Ni  Ni22  1  0.25000000  0.75000000  0.88016000  1.0
  Ni  Ni23  1  0.75000000  0.25000000  0.88016000  1.0
  Ni  Ni24  1  0.21859000  0.48452000  0.11581000  1.0
  Ni  Ni25  1  0.75810000  0.98958000  0.11597000  1.0
  Ni  Ni26  1  0.75806000  0.51031000  0.11595000  1.0
  Ni  Ni27  1  0.21850000  0.01530000  0.11583000  1.0
  Ni  Ni28  1  0.75524000  0.25000000  0.03663000  1.0
  Ni  Ni29  1  0.27152000  0.74992000  0.03927000  1.0
  Ni  Ni30  1  0.22618000  0.24998000  0.04638000  1.0
  Ni  Ni31  1  0.73188000  0.74991000  0.04260000  1.0
  C  C32  1  0.22737000  0.24994000  0.12616000  1.0
