# generated using pymatgen
data_Li8Ag4Bi4C
_symmetry_space_group_name_H-M   'P 1'
_cell_length_a   6.92564000
_cell_length_b   6.92564000
_cell_length_c   25.19420000
_cell_angle_alpha   90.00000000
_cell_angle_beta   90.00000000
_cell_angle_gamma   90.00000000
_symmetry_Int_Tables_number   1
_chemical_formula_structural   Li8Ag4Bi4C
_chemical_formula_sum   'Li8 Ag4 Bi4 C1'
_cell_volume   1208.42693908
_cell_formula_units_Z   1
loop_
 _symmetry_equiv_pos_site_id
 _symmetry_equiv_pos_as_xyz
  1  'x, y, z'
loop_
 _atom_site_type_symbol
 _atom_site_label
 _atom_site_symmetry_multiplicity
 _atom_site_fract_x
 _atom_site_fract_y
 _atom_site_fract_z
 _atom_site_occupancy
  Li  Li0  1  0.00000000  0.50000000  0.02825000  1
  Li  Li1  1  0.00000000  0.00000000  0.89692000  1
  Li  Li2  1  0.50000000  0.50000000  0.89692000  1
  Li  Li3  1  0.50000000  0.00000000  0.02825000  1
  Li  Li4  1  0.75000000  0.75000000  0.96564000  1
  Li  Li5  1  0.28554000  0.71446000  0.12583000  1
  Li  Li6  1  0.25000000  0.25000000  0.96564000  1
  Li  Li7  1  0.71446000  0.28554000  0.12583000  1
  Ag  Ag8  1  0.72975000  0.72975000  0.11143000  1
  Ag  Ag9  1  0.25000000  0.75000000  0.96564000  1
  Ag  Ag10  1  0.27025000  0.27025000  0.11143000  1
  Ag  Ag11  1  0.75000000  0.25000000  0.96564000  1
  Bi  Bi12  1  0.00000000  0.50000000  0.89692000  1
  Bi  Bi13  1  0.50000000  0.00000000  0.89692000  1
  Bi  Bi14  1  0.00000000  0.00000000  0.05758000  1
  Bi  Bi15  1  0.50000000  0.50000000  0.02799000  1
  C  C16  1  0.50000000  0.50000000  0.12302000  1
