# generated using pymatgen
data_Sc8Mn8In8Pd8C
_symmetry_space_group_name_H-M   'P 1'
_cell_length_a   9.36632000
_cell_length_b   6.62299000
_cell_length_c   27.02470000
_cell_angle_alpha   90.00000000
_cell_angle_beta   90.00000000
_cell_angle_gamma   90.00000000
_symmetry_Int_Tables_number   1
_chemical_formula_structural   Sc8Mn8In8Pd8C
_chemical_formula_sum   'Sc8 Mn8 In8 Pd8 C1'
_cell_volume   1676.42439599
_cell_formula_units_Z   1
loop_
 _symmetry_equiv_pos_site_id
 _symmetry_equiv_pos_as_xyz
  1  'x, y, z'
loop_
 _atom_site_type_symbol
 _atom_site_label
 _atom_site_symmetry_multiplicity
 _atom_site_fract_x
 _atom_site_fract_y
 _atom_site_fract_z
 _atom_site_occupancy
  Sc  Sc0  1  0.25000000  0.00000000  0.04332000  1.0
  Sc  Sc1  1  0.75000000  0.00000000  0.04332000  1.0
  Sc  Sc2  1  0.50000000  0.50000000  0.12997000  1.0
  Sc  Sc3  1  0.00000000  0.50000000  0.12997000  1.0
  Sc  Sc4  1  0.73690000  0.00010000  0.87224000  1.0
  Sc  Sc5  1  0.26310000  0.00010000  0.87224000  1.0
  Sc  Sc6  1  0.00000000  0.50857000  0.94980000  1.0
  Sc  Sc7  1  0.50000000  0.51140000  0.95822000  1.0
  Mn  Mn8  1  0.00000000  0.75000000  0.04332000  1.0
  Mn  Mn9  1  0.50000000  0.75000000  0.04332000  1.0
  Mn  Mn10  1  0.25000000  0.25000000  0.12997000  1.0
  Mn  Mn11  1  0.75000000  0.25000000  0.12997000  1.0
  Mn  Mn12  1  0.50000000  0.71645000  0.86213000  1.0
  Mn  Mn13  1  0.00000000  0.78694000  0.86088000  1.0
  Mn  Mn14  1  0.74728000  0.25306000  0.95426000  1.0
  Mn  Mn15  1  0.25272000  0.25306000  0.95426000  1.0
  In  In16  1  0.00000000  0.00000000  0.12997000  1.0
  In  In17  1  0.50000000  0.00000000  0.12997000  1.0
  In  In18  1  0.75000000  0.50000000  0.04332000  1.0
  In  In19  1  0.25000000  0.50000000  0.04332000  1.0
  In  In20  1  0.50000000  0.99551000  0.95641000  1.0
  In  In21  1  0.00000000  0.99531000  0.95726000  1.0
  In  In22  1  0.24640000  0.50852000  0.86137000  1.0
  In  In23  1  0.75360000  0.50852000  0.86137000  1.0
  Pd  Pd24  1  0.00000000  0.25000000  0.04332000  1.0
  Pd  Pd25  1  0.50000000  0.25000000  0.04332000  1.0
  Pd  Pd26  1  0.25000000  0.75000000  0.12997000  1.0
  Pd  Pd27  1  0.75000000  0.75000000  0.12997000  1.0
  Pd  Pd28  1  0.50000000  0.27473000  0.87815000  1.0
  Pd  Pd29  1  0.00000000  0.20212000  0.86988000  1.0
  Pd  Pd30  1  0.74820000  0.75232000  0.95805000  1.0
  Pd  Pd31  1  0.25180000  0.75232000  0.95805000  1.0
  C  C32  1  0.00000000  0.51115000  0.86587000  1.0
