# generated using pymatgen
data_Ni24Sb8C
_symmetry_space_group_name_H-M   'P 1'
_cell_length_a   8.45446000
_cell_length_b   5.97820000
_cell_length_c   26.34080000
_cell_angle_alpha   90.00000000
_cell_angle_beta   90.00000000
_cell_angle_gamma   90.00000000
_symmetry_Int_Tables_number   1
_chemical_formula_structural   Ni24Sb8C
_chemical_formula_sum   'Ni24 Sb8 C1'
_cell_volume   1331.32863998
_cell_formula_units_Z   1
loop_
 _symmetry_equiv_pos_site_id
 _symmetry_equiv_pos_as_xyz
  1  'x, y, z'
loop_
 _atom_site_type_symbol
 _atom_site_label
 _atom_site_symmetry_multiplicity
 _atom_site_fract_x
 _atom_site_fract_y
 _atom_site_fract_z
 _atom_site_occupancy
  Ni  Ni0  1  0.00000000  0.75000000  0.04012000  1.0
  Ni  Ni1  1  0.50000000  0.25000000  0.04012000  1.0
  Ni  Ni2  1  0.00000000  0.25000000  0.04012000  1.0
  Ni  Ni3  1  0.50000000  0.75000000  0.04012000  1.0
  Ni  Ni4  1  0.75000000  0.25000000  0.12036000  1.0
  Ni  Ni5  1  0.25000000  0.75000000  0.12036000  1.0
  Ni  Ni6  1  0.75000000  0.75000000  0.12036000  1.0
  Ni  Ni7  1  0.25000000  0.25000000  0.12036000  1.0
  Ni  Ni8  1  0.75000000  0.00000000  0.04012000  1.0
  Ni  Ni9  1  0.00000000  0.50000000  0.12036000  1.0
  Ni  Ni10  1  0.25000000  0.00000000  0.04012000  1.0
  Ni  Ni11  1  0.50000000  0.50000000  0.12036000  1.0
  Ni  Ni12  1  0.49996000  0.78156000  0.88329000  1.0
  Ni  Ni13  1  0.00003000  0.28848000  0.88173000  1.0
  Ni  Ni14  1  0.49996000  0.21844000  0.88329000  1.0
  Ni  Ni15  1  0.00003000  0.71152000  0.88173000  1.0
  Ni  Ni16  1  0.24777000  0.25825000  0.95569000  1.0
  Ni  Ni17  1  0.75225000  0.74169000  0.95572000  1.0
  Ni  Ni18  1  0.24777000  0.74175000  0.95569000  1.0
  Ni  Ni19  1  0.75225000  0.25831000  0.95572000  1.0
  Ni  Ni20  1  0.21912000  0.00000000  0.87569000  1.0
  Ni  Ni21  1  0.49999000  0.50000000  0.95907000  1.0
  Ni  Ni22  1  0.78094000  0.00000000  0.87573000  1.0
  Ni  Ni23  1  0.00003000  0.50000000  0.96298000  1.0
  Sb  Sb24  1  0.00000000  0.00000000  0.12036000  1.0
  Sb  Sb25  1  0.25000000  0.50000000  0.04012000  1.0
  Sb  Sb26  1  0.75000000  0.50000000  0.04012000  1.0
  Sb  Sb27  1  0.50000000  0.00000000  0.12036000  1.0
  Sb  Sb28  1  0.50001000  0.00000000  0.96363000  1.0
  Sb  Sb29  1  0.73260000  0.50000000  0.87017000  1.0
  Sb  Sb30  1  0.26740000  0.50000000  0.87015000  1.0
  Sb  Sb31  1  0.00003000  0.00000000  0.96341000  1.0
  C  C32  1  0.99996000  0.00000000  0.86077000  1.0
