# generated using pymatgen
data_Ni24Sb8C
_symmetry_space_group_name_H-M   Pm
_cell_length_a   8.45446000
_cell_length_b   5.97820000
_cell_length_c   26.34080000
_cell_angle_alpha   90.00000000
_cell_angle_beta   90.00000000
_cell_angle_gamma   90.00000000
_symmetry_Int_Tables_number   6
_chemical_formula_structural   Ni24Sb8C
_chemical_formula_sum   'Ni24 Sb8 C1'
_cell_volume   1331.32863998
_cell_formula_units_Z   1
loop_
 _symmetry_equiv_pos_site_id
 _symmetry_equiv_pos_as_xyz
  1  'x, y, z'
  2  'x, -y, z'
loop_
 _atom_site_type_symbol
 _atom_site_label
 _atom_site_symmetry_multiplicity
 _atom_site_fract_x
 _atom_site_fract_y
 _atom_site_fract_z
 _atom_site_occupancy
  Ni  Ni0  2  0.00000000  0.25000000  0.95988000  1.0
  Ni  Ni1  2  0.00003000  0.28848000  0.11827000  1.0
  Ni  Ni2  2  0.24777000  0.25825000  0.04431000  1.0
  Ni  Ni3  2  0.25000000  0.25000000  0.87964000  1.0
  Ni  Ni4  2  0.49996000  0.21844000  0.11671000  1.0
  Ni  Ni5  2  0.50000000  0.25000000  0.95988000  1.0
  Ni  Ni6  2  0.75000000  0.25000000  0.87964000  1.0
  Ni  Ni7  2  0.75225000  0.25831000  0.04428000  1.0
  Ni  Ni8  1  0.00000000  0.50000000  0.87964000  1.0
  Ni  Ni9  1  0.00003000  0.50000000  0.03702000  1.0
  Ni  Ni10  1  0.21912000  0.00000000  0.12431000  1.0
  Ni  Ni11  1  0.25000000  0.00000000  0.95988000  1.0
  Ni  Ni12  1  0.49999000  0.50000000  0.04093000  1.0
  Ni  Ni13  1  0.50000000  0.50000000  0.87964000  1.0
  Ni  Ni14  1  0.75000000  0.00000000  0.95988000  1.0
  Ni  Ni15  1  0.78094000  0.00000000  0.12427000  1.0
  Sb  Sb16  1  0.00000000  0.00000000  0.87964000  1.0
  Sb  Sb17  1  0.00003000  0.00000000  0.03659000  1.0
  Sb  Sb18  1  0.25000000  0.50000000  0.95988000  1.0
  Sb  Sb19  1  0.26740000  0.50000000  0.12985000  1.0
  Sb  Sb20  1  0.50000000  0.00000000  0.87964000  1.0
  Sb  Sb21  1  0.50001000  0.00000000  0.03637000  1.0
  Sb  Sb22  1  0.73260000  0.50000000  0.12983000  1.0
  Sb  Sb23  1  0.75000000  0.50000000  0.95988000  1.0
  C  C24  1  0.99996000  0.00000000  0.13923000  1.0
