# generated using pymatgen
data_Hf4Co8Sn4C
_symmetry_space_group_name_H-M   P4mm
_cell_length_a   6.26570000
_cell_length_b   6.26570000
_cell_length_c   24.69930000
_cell_angle_alpha   90.00000000
_cell_angle_beta   90.00000000
_cell_angle_gamma   90.00000000
_symmetry_Int_Tables_number   99
_chemical_formula_structural   Hf4Co8Sn4C
_chemical_formula_sum   'Hf4 Co8 Sn4 C1'
_cell_volume   969.66973201
_cell_formula_units_Z   1
loop_
 _symmetry_equiv_pos_site_id
 _symmetry_equiv_pos_as_xyz
  1  'x, y, z'
  2  '-y, x, z'
  3  '-x, -y, z'
  4  'y, -x, z'
  5  '-x, y, z'
  6  'y, x, z'
  7  'x, -y, z'
  8  '-y, -x, z'
loop_
 _atom_site_type_symbol
 _atom_site_label
 _atom_site_symmetry_multiplicity
 _atom_site_fract_x
 _atom_site_fract_y
 _atom_site_fract_z
 _atom_site_occupancy
  Hf  Hf0  2  0.00000000  0.50000000  0.90487000  1.0
  Hf  Hf1  1  0.00000000  0.00000000  0.03171000  1.0
  Hf  Hf2  1  0.50000000  0.50000000  0.03171000  1.0
  Co  Co3  4  0.25000000  0.25000000  0.96829000  1.0
  Co  Co4  4  0.25000000  0.75000000  0.09513000  1.0
  Sn  Sn5  2  0.00000000  0.50000000  0.03171000  1.0
  Sn  Sn6  1  0.00000000  0.00000000  0.90487000  1.0
  Sn  Sn7  1  0.50000000  0.50000000  0.90487000  1.0
  C  C8  1  0.00000000  0.00000000  0.12752000  1.0
