# generated using pymatgen
data_Al16Ni16CO
_symmetry_space_group_name_H-M   'P 1'
_cell_length_a   5.79956000
_cell_length_b   8.20182000
_cell_length_c   26.15140000
_cell_angle_alpha   90.00000000
_cell_angle_beta   90.00000000
_cell_angle_gamma   90.00000000
_symmetry_Int_Tables_number   1
_chemical_formula_structural   Al16Ni16CO
_chemical_formula_sum   'Al16 Ni16 C1 O1'
_cell_volume   1243.94226299
_cell_formula_units_Z   1
loop_
 _symmetry_equiv_pos_site_id
 _symmetry_equiv_pos_as_xyz
  1  'x, y, z'
loop_
 _atom_site_type_symbol
 _atom_site_label
 _atom_site_symmetry_multiplicity
 _atom_site_fract_x
 _atom_site_fract_y
 _atom_site_fract_z
 _atom_site_occupancy
  Al  Al0  1  0.00000000  0.25000000  0.88239000  1.0
  Al  Al1  1  0.00000000  0.00000000  0.96080000  1.0
  Al  Al2  1  0.00000000  0.25143000  0.03907000  1.0
  Al  Al3  1  0.00000000  0.00000000  0.12142000  1.0
  Al  Al4  1  0.00000000  0.75000000  0.88239000  1.0
  Al  Al5  1  0.00000000  0.50000000  0.96080000  1.0
  Al  Al6  1  0.00000000  0.74857000  0.03907000  1.0
  Al  Al7  1  0.00000000  0.50000000  0.11963000  1.0
  Al  Al8  1  0.50000000  0.25000000  0.88239000  1.0
  Al  Al9  1  0.50000000  0.00000000  0.96080000  1.0
  Al  Al10  1  0.50000000  0.24965000  0.03847000  1.0
  Al  Al11  1  0.50000000  0.00000000  0.11945000  1.0
  Al  Al12  1  0.50000000  0.75000000  0.88239000  1.0
  Al  Al13  1  0.50000000  0.50000000  0.96080000  1.0
  Al  Al14  1  0.50000000  0.75035000  0.03847000  1.0
  Al  Al15  1  0.50000000  0.50000000  0.11985000  1.0
  Ni  Ni16  1  0.75000000  0.00000000  0.88239000  1.0
  Ni  Ni17  1  0.75000000  0.25000000  0.96080000  1.0
  Ni  Ni18  1  0.75158000  0.00000000  0.03876000  1.0
  Ni  Ni19  1  0.74744000  0.25182000  0.11279000  1.0
  Ni  Ni20  1  0.75000000  0.50000000  0.88239000  1.0
  Ni  Ni21  1  0.75000000  0.75000000  0.96080000  1.0
  Ni  Ni22  1  0.74910000  0.50000000  0.03753000  1.0
  Ni  Ni23  1  0.74744000  0.74818000  0.11279000  1.0
  Ni  Ni24  1  0.25000000  0.00000000  0.88239000  1.0
  Ni  Ni25  1  0.25000000  0.25000000  0.96080000  1.0
  Ni  Ni26  1  0.24842000  0.00000000  0.03876000  1.0
  Ni  Ni27  1  0.25256000  0.25182000  0.11279000  1.0
  Ni  Ni28  1  0.25000000  0.50000000  0.88239000  1.0
  Ni  Ni29  1  0.25000000  0.75000000  0.96080000  1.0
  Ni  Ni30  1  0.25090000  0.50000000  0.03753000  1.0
  Ni  Ni31  1  0.25256000  0.74818000  0.11279000  1.0
  C  C32  1  0.00000000  0.00000000  0.19925000  1.0
  O  O33  1  0.00000000  0.00000000  0.24313000  1.0
