# generated using pymatgen
data_Al16Ni16CO
_symmetry_space_group_name_H-M   Pmm2
_cell_length_a   5.79956000
_cell_length_b   8.20182000
_cell_length_c   26.15140000
_cell_angle_alpha   90.00000000
_cell_angle_beta   90.00000000
_cell_angle_gamma   90.00000000
_symmetry_Int_Tables_number   25
_chemical_formula_structural   Al16Ni16CO
_chemical_formula_sum   'Al16 Ni16 C1 O1'
_cell_volume   1243.94226299
_cell_formula_units_Z   1
loop_
 _symmetry_equiv_pos_site_id
 _symmetry_equiv_pos_as_xyz
  1  'x, y, z'
  2  '-x, -y, z'
  3  '-x, y, z'
  4  'x, -y, z'
loop_
 _atom_site_type_symbol
 _atom_site_label
 _atom_site_symmetry_multiplicity
 _atom_site_fract_x
 _atom_site_fract_y
 _atom_site_fract_z
 _atom_site_occupancy
  Al  Al0  2  0.00000000  0.25000000  0.88239000  1.0
  Al  Al1  2  0.00000000  0.25143000  0.03907000  1.0
  Al  Al2  2  0.50000000  0.24965000  0.03847000  1.0
  Al  Al3  2  0.50000000  0.25000000  0.88239000  1.0
  Al  Al4  1  0.00000000  0.00000000  0.12142000  1.0
  Al  Al5  1  0.00000000  0.00000000  0.96080000  1.0
  Al  Al6  1  0.00000000  0.50000000  0.11963000  1.0
  Al  Al7  1  0.00000000  0.50000000  0.96080000  1.0
  Al  Al8  1  0.50000000  0.00000000  0.11945000  1.0
  Al  Al9  1  0.50000000  0.00000000  0.96080000  1.0
  Al  Al10  1  0.50000000  0.50000000  0.11985000  1.0
  Al  Al11  1  0.50000000  0.50000000  0.96080000  1.0
  Ni  Ni12  4  0.25000000  0.25000000  0.96080000  1.0
  Ni  Ni13  4  0.25256000  0.25182000  0.11279000  1.0
  Ni  Ni14  2  0.24842000  0.00000000  0.03876000  1.0
  Ni  Ni15  2  0.25000000  0.00000000  0.88239000  1.0
  Ni  Ni16  2  0.25000000  0.50000000  0.88239000  1.0
  Ni  Ni17  2  0.25090000  0.50000000  0.03753000  1.0
  C  C18  1  0.00000000  0.00000000  0.19925000  1.0
  O  O19  1  0.00000000  0.00000000  0.24313000  1.0
