# generated using pymatgen
data_Li4Al4Ag4Sn4C
_symmetry_space_group_name_H-M   Pm
_cell_length_a   6.09080000
_cell_length_b   8.16098000
_cell_length_c   24.56780000
_cell_angle_alpha   90.00000000
_cell_angle_beta   90.00000000
_cell_angle_gamma   90.00000000
_symmetry_Int_Tables_number   6
_chemical_formula_structural   Li4Al4Ag4Sn4C
_chemical_formula_sum   'Li4 Al4 Ag4 Sn4 C1'
_cell_volume   1221.18910372
_cell_formula_units_Z   1
loop_
 _symmetry_equiv_pos_site_id
 _symmetry_equiv_pos_as_xyz
  1  'x, y, z'
  2  'x, -y, z'
loop_
 _atom_site_type_symbol
 _atom_site_label
 _atom_site_symmetry_multiplicity
 _atom_site_fract_x
 _atom_site_fract_y
 _atom_site_fract_z
 _atom_site_occupancy
  Li  Li0  2  0.25662000  0.17693000  0.88872000  1.0
  Li  Li1  2  0.75310000  0.25000000  0.03099000  1.0
  Al  Al2  2  0.25310000  0.25000000  0.03099000  1.0
  Al  Al3  2  0.70277000  0.18491000  0.90246000  1.0
  Ag  Ag4  1  0.00000000  0.00000000  0.09296000  1.0
  Ag  Ag5  1  0.00000000  0.50000000  0.09296000  1.0
  Ag  Ag6  1  0.47657000  0.00000000  0.97906000  1.0
  Ag  Ag7  1  0.53893000  0.50000000  0.95506000  1.0
  Sn  Sn8  1  0.04419000  0.50000000  0.95738000  1.0
  Sn  Sn9  1  0.50000000  0.00000000  0.09296000  1.0
  Sn  Sn10  1  0.50000000  0.50000000  0.09296000  1.0
  Sn  Sn11  1  0.99578000  0.00000000  0.96935000  1.0
  C  C12  1  0.51138000  0.00000000  0.88245000  1.0
