# generated using pymatgen
data_Sc4Ga12CO
_symmetry_space_group_name_H-M   'P 1'
_cell_length_a   8.31483000
_cell_length_b   5.87947000
_cell_length_c   24.40960000
_cell_angle_alpha   90.00000000
_cell_angle_beta   90.00000000
_cell_angle_gamma   90.00000000
_symmetry_Int_Tables_number   1
_chemical_formula_structural   Sc4Ga12CO
_chemical_formula_sum   'Sc4 Ga12 C1 O1'
_cell_volume   1193.30707560
_cell_formula_units_Z   1
loop_
 _symmetry_equiv_pos_site_id
 _symmetry_equiv_pos_as_xyz
  1  'x, y, z'
loop_
 _atom_site_type_symbol
 _atom_site_label
 _atom_site_symmetry_multiplicity
 _atom_site_fract_x
 _atom_site_fract_y
 _atom_site_fract_z
 _atom_site_occupancy
  Sc  Sc0  1  0.75000000  0.00000000  0.90967000  1.0
  Sc  Sc1  1  0.75247000  0.50011000  0.03096000  1.0
  Sc  Sc2  1  0.25000000  0.00000000  0.90967000  1.0
  Sc  Sc3  1  0.24753000  0.50011000  0.03096000  1.0
  Ga  Ga4  1  0.75000000  0.50000000  0.90967000  1.0
  Ga  Ga5  1  0.50000000  0.25000000  0.96989000  1.0
  Ga  Ga6  1  0.50000000  0.75000000  0.96989000  1.0
  Ga  Ga7  1  0.74625000  0.00070000  0.04400000  1.0
  Ga  Ga8  1  0.50000000  0.74472000  0.08792000  1.0
  Ga  Ga9  1  0.50000000  0.24847000  0.08633000  1.0
  Ga  Ga10  1  0.25000000  0.50000000  0.90967000  1.0
  Ga  Ga11  1  0.00000000  0.25000000  0.96989000  1.0
  Ga  Ga12  1  0.00000000  0.75000000  0.96989000  1.0
  Ga  Ga13  1  0.25375000  0.00070000  0.04400000  1.0
  Ga  Ga14  1  0.00000000  0.75812000  0.08812000  1.0
  Ga  Ga15  1  0.00000000  0.24312000  0.08810000  1.0
  C  C16  1  0.50000000  0.76875000  0.17618000  1.0
  O  O17  1  0.50000000  0.74843000  0.22287000  1.0
