# generated using pymatgen
data_MgZnAg2
_symmetry_space_group_name_H-M   'P 1'
_cell_length_a   4.64548649
_cell_length_b   4.64548649
_cell_length_c   24.92730000
_cell_angle_alpha   90.00000000
_cell_angle_beta   90.00000000
_cell_angle_gamma   90.00000000
_symmetry_Int_Tables_number   1
_chemical_formula_structural   MgZnAg2
_chemical_formula_sum   'Mg2 Zn2 Ag4'
_cell_volume   537.94471295
_cell_formula_units_Z   2
loop_
 _symmetry_equiv_pos_site_id
 _symmetry_equiv_pos_as_xyz
  1  'x, y, z'
loop_
 _atom_site_type_symbol
 _atom_site_label
 _atom_site_symmetry_multiplicity
 _atom_site_fract_x
 _atom_site_fract_y
 _atom_site_fract_z
 _atom_site_occupancy
  Mg  Mg0  1  0.00000000  0.00000000  0.90117000  1.0
  Mg  Mg1  1  0.50000000  0.50000000  0.03294000  1.0
  Zn  Zn2  1  0.00000000  0.00000000  0.03294000  1.0
  Zn  Zn3  1  0.50000000  0.50000000  0.90117000  1.0
  Ag  Ag4  1  0.50000000  0.00000000  0.96706000  1.0
  Ag  Ag5  1  0.50000000  0.00000000  0.09883000  1.0
  Ag  Ag6  1  0.00000000  0.50000000  0.96706000  1.0
  Ag  Ag7  1  0.00000000  0.50000000  0.09883000  1.0
