# generated using pymatgen
data_Li8Cu8Sn8Pd8CO
_symmetry_space_group_name_H-M   P1
_cell_length_a   6.33545000
_cell_length_b   8.95968000
_cell_length_c   26.71980000
_cell_angle_alpha   90.00000000
_cell_angle_beta   90.00000000
_cell_angle_gamma   90.00000000
_symmetry_Int_Tables_number   1
_chemical_formula_structural   Li8Cu8Sn8Pd8CO
_chemical_formula_sum   'Li8 Cu8 Sn8 Pd8 C1 O1'
_cell_volume   1516.71216369
_cell_formula_units_Z   1
loop_
 _symmetry_equiv_pos_site_id
 _symmetry_equiv_pos_as_xyz
  1  'x, y, z'
loop_
 _atom_site_type_symbol
 _atom_site_label
 _atom_site_symmetry_multiplicity
 _atom_site_fract_x
 _atom_site_fract_y
 _atom_site_fract_z
 _atom_site_occupancy
  Li  Li0  1  0.24519000  0.00000000  0.13062000  1.0
  Li  Li1  1  0.24629000  0.50000000  0.13069000  1.0
  Li  Li2  1  0.25000000  0.00000000  0.95808000  1.0
  Li  Li3  1  0.25000000  0.50000000  0.95808000  1.0
  Li  Li4  1  0.75000000  0.25000000  0.87425000  1.0
  Li  Li5  1  0.75000000  0.75000000  0.87425000  1.0
  Li  Li6  1  0.75166000  0.24919000  0.03546000  1.0
  Li  Li7  1  0.75166000  0.75081000  0.03546000  1.0
  Cu  Cu8  1  0.00000000  0.00000000  0.87425000  1.0
  Cu  Cu9  1  0.00000000  0.50000000  0.87425000  1.0
  Cu  Cu10  1  0.50000000  0.25000000  0.95808000  1.0
  Cu  Cu11  1  0.50000000  0.75000000  0.95808000  1.0
  Cu  Cu12  1  0.53766000  0.25060000  0.11526000  1.0
  Cu  Cu13  1  0.53766000  0.74940000  0.11526000  1.0
  Cu  Cu14  1  0.98193000  0.50000000  0.04955000  1.0
  Cu  Cu15  1  0.98783000  0.00000000  0.04867000  1.0
  Sn  Sn16  1  0.25000000  0.25000000  0.87425000  1.0
  Sn  Sn17  1  0.25000000  0.75000000  0.87425000  1.0
  Sn  Sn18  1  0.25117000  0.25142000  0.04136000  1.0
  Sn  Sn19  1  0.25117000  0.74858000  0.04136000  1.0
  Sn  Sn20  1  0.74649000  0.00000000  0.13929000  1.0
  Sn  Sn21  1  0.74725000  0.50000000  0.14198000  1.0
  Sn  Sn22  1  0.75000000  0.00000000  0.95808000  1.0
  Sn  Sn23  1  0.75000000  0.50000000  0.95808000  1.0
  Pd  Pd24  1  0.00000000  0.25000000  0.95808000  1.0
  Pd  Pd25  1  0.00000000  0.75000000  0.95808000  1.0
  Pd  Pd26  1  0.50000000  0.00000000  0.87425000  1.0
  Pd  Pd27  1  0.50000000  0.50000000  0.87425000  1.0
  Pd  Pd28  1  0.50846000  0.00000000  0.04840000  1.0
  Pd  Pd29  1  0.51388000  0.50000000  0.04919000  1.0
  Pd  Pd30  1  0.97020000  0.25048000  0.11672000  1.0
  Pd  Pd31  1  0.97020000  0.74952000  0.11672000  1.0
  C  C32  1  0.65689000  0.99993000  0.28223000  1.0
  O  O33  1  0.78625000  0.00000000  0.31169000  1.0
