# generated using pymatgen
data_Li4V4Ge4Pd4CO
_symmetry_space_group_name_H-M   'P 1'
_cell_length_a   5.49597000
_cell_length_b   8.64114000
_cell_length_c   23.65060000
_cell_angle_alpha   90.00000000
_cell_angle_beta   90.00000000
_cell_angle_gamma   90.00000000
_symmetry_Int_Tables_number   1
_chemical_formula_structural   Li4V4Ge4Pd4CO
_chemical_formula_sum   'Li4 V4 Ge4 Pd4 C1 O1'
_cell_volume   1123.20119763
_cell_formula_units_Z   1
loop_
 _symmetry_equiv_pos_site_id
 _symmetry_equiv_pos_as_xyz
  1  'x, y, z'
loop_
 _atom_site_type_symbol
 _atom_site_label
 _atom_site_symmetry_multiplicity
 _atom_site_fract_x
 _atom_site_fract_y
 _atom_site_fract_z
 _atom_site_occupancy
  Li  Li0  1  0.50774000  0.00001000  0.08341000  1.0
  Li  Li1  1  0.76781000  0.00000000  0.97427000  1.0
  Li  Li2  1  0.50110000  0.50001000  0.08180000  1.0
  Li  Li3  1  0.76781000  0.50000000  0.97427000  1.0
  V  V4  1  0.11590000  0.25002000  0.01644000  1.0
  V  V5  1  0.40171000  0.25000000  0.92282000  1.0
  V  V6  1  0.11628000  0.74997000  0.01633000  1.0
  V  V7  1  0.40171000  0.75000000  0.92282000  1.0
  Ge  Ge8  1  0.02709000  0.99985000  0.06893000  1.0
  Ge  Ge9  1  0.26781000  0.00000000  0.97427000  1.0
  Ge  Ge10  1  0.02297000  0.50011000  0.06942000  1.0
  Ge  Ge11  1  0.26781000  0.50000000  0.97427000  1.0
  Pd  Pd12  1  0.62613000  0.25192000  0.02118000  1.0
  Pd  Pd13  1  0.90171000  0.25000000  0.92282000  1.0
  Pd  Pd14  1  0.62637000  0.74807000  0.02121000  1.0
  Pd  Pd15  1  0.90171000  0.75000000  0.92282000  1.0
  C  C16  1  0.50777000  0.00001000  0.17327000  1.0
  O  O17  1  0.49094000  0.00000000  0.22123000  1.0
