# generated using pymatgen
data_Pt
_symmetry_space_group_name_H-M   'P 1'
_cell_length_a   2.83281826
_cell_length_b   2.83281826
_cell_length_c   26.00930000
_cell_angle_alpha   90.00000000
_cell_angle_beta   90.00000000
_cell_angle_gamma   90.00000000
_symmetry_Int_Tables_number   1
_chemical_formula_structural   Pt
_chemical_formula_sum   Pt4
_cell_volume   208.72097252
_cell_formula_units_Z   4
loop_
 _symmetry_equiv_pos_site_id
 _symmetry_equiv_pos_as_xyz
  1  'x, y, z'
loop_
 _atom_site_type_symbol
 _atom_site_label
 _atom_site_symmetry_multiplicity
 _atom_site_fract_x
 _atom_site_fract_y
 _atom_site_fract_z
 _atom_site_occupancy
  Pt  Pt0  1  0.00000000  0.50000000  0.88448000  1.0
  Pt  Pt1  1  0.50000000  0.00000000  0.96149000  1.0
  Pt  Pt2  1  0.00000000  0.50000000  0.03851000  1.0
  Pt  Pt3  1  0.50000000  0.00000000  0.11552000  1.0
