data_image0
_chemical_formula_structural       VPd3VPd3VPd3VPd3VPd3VPd3VPd3VPd3CO
_chemical_formula_sum              "V8 Pd24 C1 O1"
_cell_length_a       7.84123
_cell_length_b       7.84123
_cell_length_c       25.8809
_cell_angle_alpha    90
_cell_angle_beta     90
_cell_angle_gamma    90

_space_group_name_H-M_alt    "P 1"
_space_group_IT_number       1

loop_
  _space_group_symop_operation_xyz
  'x, y, z'

loop_
  _atom_site_type_symbol
  _atom_site_label
  _atom_site_symmetry_multiplicity
  _atom_site_fract_x
  _atom_site_fract_y
  _atom_site_fract_z
  _atom_site_occupancy
  V   V1        1.0  0.00000  0.00000  0.11361  1.0000
  Pd  Pd1       1.0  0.00000  0.25000  0.03787  1.0000
  Pd  Pd2       1.0  0.25000  0.00000  0.03787  1.0000
  Pd  Pd3       1.0  0.25000  0.25000  0.11361  1.0000
  V   V2        1.0  0.00000  0.00000  0.96213  1.0000
  Pd  Pd4       1.0  0.00000  0.25000  0.88639  1.0000
  Pd  Pd5       1.0  0.25000  0.00000  0.88639  1.0000
  Pd  Pd6       1.0  0.25000  0.25000  0.96213  1.0000
  V   V3        1.0  0.00000  0.50000  0.11361  1.0000
  Pd  Pd7       1.0  0.00000  0.75000  0.03787  1.0000
  Pd  Pd8       1.0  0.25000  0.50000  0.03787  1.0000
  Pd  Pd9       1.0  0.25000  0.75000  0.11361  1.0000
  V   V4        1.0  0.00000  0.50000  0.96213  1.0000
  Pd  Pd10      1.0  0.00000  0.75000  0.88639  1.0000
  Pd  Pd11      1.0  0.25000  0.50000  0.88639  1.0000
  Pd  Pd12      1.0  0.25000  0.75000  0.96213  1.0000
  V   V5        1.0  0.50000  0.00000  0.11361  1.0000
  Pd  Pd13      1.0  0.50000  0.25000  0.03787  1.0000
  Pd  Pd14      1.0  0.75000  0.00000  0.03787  1.0000
  Pd  Pd15      1.0  0.75000  0.25000  0.11361  1.0000
  V   V6        1.0  0.50000  0.00000  0.96213  1.0000
  Pd  Pd16      1.0  0.50000  0.25000  0.88639  1.0000
  Pd  Pd17      1.0  0.75000  0.00000  0.88639  1.0000
  Pd  Pd18      1.0  0.75000  0.25000  0.96213  1.0000
  V   V7        1.0  0.50000  0.50000  0.11361  1.0000
  Pd  Pd19      1.0  0.50000  0.75000  0.03787  1.0000
  Pd  Pd20      1.0  0.75000  0.50000  0.03787  1.0000
  Pd  Pd21      1.0  0.75000  0.75000  0.11361  1.0000
  V   V8        1.0  0.50000  0.50000  0.96213  1.0000
  Pd  Pd22      1.0  0.50000  0.75000  0.88639  1.0000
  Pd  Pd23      1.0  0.75000  0.50000  0.88639  1.0000
  Pd  Pd24      1.0  0.75000  0.75000  0.96213  1.0000
  C   C1        1.0  0.00000  0.00000  0.18703  1.0000
  O   O1        1.0  0.00000  0.00000  0.23146  1.0000
