# generated using pymatgen
data_Ti16Ni16C
_symmetry_space_group_name_H-M   'P 1'
_cell_length_a   6.03636000
_cell_length_b   8.53670000
_cell_length_c   26.40250000
_cell_angle_alpha   90.00000000
_cell_angle_beta   90.00000000
_cell_angle_gamma   90.00000000
_symmetry_Int_Tables_number   1
_chemical_formula_structural   Ti16Ni16C
_chemical_formula_sum   'Ti16 Ni16 C1'
_cell_volume   1360.53651896
_cell_formula_units_Z   1
loop_
 _symmetry_equiv_pos_site_id
 _symmetry_equiv_pos_as_xyz
  1  'x, y, z'
loop_
 _atom_site_type_symbol
 _atom_site_label
 _atom_site_symmetry_multiplicity
 _atom_site_fract_x
 _atom_site_fract_y
 _atom_site_fract_z
 _atom_site_occupancy
  Ti  Ti0  1  0.25000000  0.25000000  0.87875000  1.0
  Ti  Ti1  1  0.25000000  0.00000000  0.95958000  1.0
  Ti  Ti2  1  0.24977000  0.25000000  0.04196000  1.0
  Ti  Ti3  1  0.24996000  0.00696000  0.12025000  1.0
  Ti  Ti4  1  0.25000000  0.75000000  0.87875000  1.0
  Ti  Ti5  1  0.25000000  0.50000000  0.95958000  1.0
  Ti  Ti6  1  0.24978000  0.74998000  0.03842000  1.0
  Ti  Ti7  1  0.24996000  0.49312000  0.12024000  1.0
  Ti  Ti8  1  0.75000000  0.25000000  0.87875000  1.0
  Ti  Ti9  1  0.75000000  0.00000000  0.95958000  1.0
  Ti  Ti10  1  0.74974000  0.24998000  0.03950000  1.0
  Ti  Ti11  1  0.74992000  0.98904000  0.12591000  1.0
  Ti  Ti12  1  0.75000000  0.75000000  0.87875000  1.0
  Ti  Ti13  1  0.75000000  0.50000000  0.95958000  1.0
  Ti  Ti14  1  0.74974000  0.75000000  0.04022000  1.0
  Ti  Ti15  1  0.74993000  0.51119000  0.12598000  1.0
  Ni  Ni16  1  0.00000000  0.00000000  0.87875000  1.0
  Ni  Ni17  1  0.00000000  0.25000000  0.95958000  1.0
  Ni  Ni18  1  0.97663000  0.99677000  0.04434000  1.0
  Ni  Ni19  1  0.94674000  0.25034000  0.11879000  1.0
  Ni  Ni20  1  0.00000000  0.50000000  0.87875000  1.0
  Ni  Ni21  1  0.00000000  0.75000000  0.95958000  1.0
  Ni  Ni22  1  0.97651000  0.50315000  0.04432000  1.0
  Ni  Ni23  1  0.00720000  0.74974000  0.11307000  1.0
  Ni  Ni24  1  0.50000000  0.00000000  0.87875000  1.0
  Ni  Ni25  1  0.50000000  0.25000000  0.95958000  1.0
  Ni  Ni26  1  0.52233000  0.99675000  0.04429000  1.0
  Ni  Ni27  1  0.55294000  0.25034000  0.11880000  1.0
  Ni  Ni28  1  0.50000000  0.50000000  0.87875000  1.0
  Ni  Ni29  1  0.50000000  0.75000000  0.95958000  1.0
  Ni  Ni30  1  0.52241000  0.50316000  0.04428000  1.0
  Ni  Ni31  1  0.49275000  0.74975000  0.11308000  1.0
  C  C32  1  0.24976000  0.24997000  0.12548000  1.0
