# generated using pymatgen
data_ScRu
_symmetry_space_group_name_H-M   'P 1'
_cell_length_a   3.21907500
_cell_length_b   4.55245500
_cell_length_c   26.82870000
_cell_angle_alpha   90.00000000
_cell_angle_beta   90.00000000
_cell_angle_gamma   90.00000000
_symmetry_Int_Tables_number   1
_chemical_formula_structural   ScRu
_chemical_formula_sum   'Sc4 Ru4'
_cell_volume   393.16639104
_cell_formula_units_Z   4
loop_
 _symmetry_equiv_pos_site_id
 _symmetry_equiv_pos_as_xyz
  1  'x, y, z'
loop_
 _atom_site_type_symbol
 _atom_site_label
 _atom_site_symmetry_multiplicity
 _atom_site_fract_x
 _atom_site_fract_y
 _atom_site_fract_z
 _atom_site_occupancy
  Sc  Sc0  1  0.50000000  0.50000000  0.87274000  1.0
  Sc  Sc1  1  0.50000000  0.00000000  0.95758000  1.0
  Sc  Sc2  1  0.50000000  0.50000000  0.04247250  1.0
  Sc  Sc3  1  0.50000000  0.00000000  0.12538500  1.0
  Ru  Ru4  1  0.00000000  0.00000000  0.87274000  1.0
  Ru  Ru5  1  0.00000000  0.50000000  0.95758000  1.0
  Ru  Ru6  1  0.00000000  0.00000000  0.04309500  1.0
  Ru  Ru7  1  0.00000000  0.50000000  0.12495000  1.0
