# generated using pymatgen
data_LiYInPb
_symmetry_space_group_name_H-M   Pm
_cell_length_a   6.48172000
_cell_length_b   4.71168000
_cell_length_c   24.85820000
_cell_angle_alpha   90.00000000
_cell_angle_beta   90.00000000
_cell_angle_gamma   90.00000000
_symmetry_Int_Tables_number   6
_chemical_formula_structural   LiYInPb
_chemical_formula_sum   'Li2 Y2 In2 Pb2'
_cell_volume   759.16421995
_cell_formula_units_Z   2
loop_
 _symmetry_equiv_pos_site_id
 _symmetry_equiv_pos_as_xyz
  1  'x, y, z'
  2  'x, -y, z'
loop_
 _atom_site_type_symbol
 _atom_site_label
 _atom_site_symmetry_multiplicity
 _atom_site_fract_x
 _atom_site_fract_y
 _atom_site_fract_z
 _atom_site_occupancy
  Li  Li0  1  0.53870000  0.00000000  0.09515500  1.0
  Li  Li1  1  0.98213000  0.00000000  0.96743000  1.0
  Y  Y2  1  0.26314500  0.50000000  0.03291500  1.0
  Y  Y3  1  0.72319000  0.50000000  0.90228000  1.0
  In  In4  1  0.04923500  0.00000000  0.09665000  1.0
  In  In5  1  0.48213000  0.00000000  0.96743000  1.0
  Pb  Pb6  1  0.22319000  0.50000000  0.90228000  1.0
  Pb  Pb7  1  0.76653500  0.50000000  0.04873000  1.0
