# generated using pymatgen
data_Ta8Al8Ni16C
_symmetry_space_group_name_H-M   'P 1'
_cell_length_a   6.00328000
_cell_length_b   8.48992000
_cell_length_c   26.36740000
_cell_angle_alpha   90.00000000
_cell_angle_beta   90.00000000
_cell_angle_gamma   90.00000000
_symmetry_Int_Tables_number   1
_chemical_formula_structural   Ta8Al8Ni16C
_chemical_formula_sum   'Ta8 Al8 Ni16 C1'
_cell_volume   1343.87695099
_cell_formula_units_Z   1
loop_
 _symmetry_equiv_pos_site_id
 _symmetry_equiv_pos_as_xyz
  1  'x, y, z'
loop_
 _atom_site_type_symbol
 _atom_site_label
 _atom_site_symmetry_multiplicity
 _atom_site_fract_x
 _atom_site_fract_y
 _atom_site_fract_z
 _atom_site_occupancy
  Ta  Ta0  1  0.00000000  0.00000000  0.87926000  1.0
  Ta  Ta1  1  0.50000000  0.25000000  0.95975000  1.0
  Ta  Ta2  1  0.50000000  0.75000000  0.95975000  1.0
  Ta  Ta3  1  0.00000000  0.50000000  0.87926000  1.0
  Ta  Ta4  1  0.00000000  0.50000000  0.04038000  1.0
  Ta  Ta5  1  0.50000000  0.76129000  0.12359000  1.0
  Ta  Ta6  1  0.50000000  0.23871000  0.12359000  1.0
  Ta  Ta7  1  0.00000000  0.00000000  0.03862000  1.0
  Al  Al8  1  0.00000000  0.75000000  0.95975000  1.0
  Al  Al9  1  0.50000000  0.00000000  0.87926000  1.0
  Al  Al10  1  0.00000000  0.25000000  0.95975000  1.0
  Al  Al11  1  0.50000000  0.50000000  0.87926000  1.0
  Al  Al12  1  0.00000000  0.25634000  0.11982000  1.0
  Al  Al13  1  0.50000000  0.50000000  0.04058000  1.0
  Al  Al14  1  0.00000000  0.74366000  0.11982000  1.0
  Al  Al15  1  0.50000000  0.00000000  0.04160000  1.0
  Ni  Ni16  1  0.25000000  0.00000000  0.95975000  1.0
  Ni  Ni17  1  0.75000000  0.50000000  0.95975000  1.0
  Ni  Ni18  1  0.75000000  0.00000000  0.95975000  1.0
  Ni  Ni19  1  0.25000000  0.50000000  0.95975000  1.0
  Ni  Ni20  1  0.75000000  0.75000000  0.87926000  1.0
  Ni  Ni21  1  0.25000000  0.25000000  0.87926000  1.0
  Ni  Ni22  1  0.25000000  0.75000000  0.87926000  1.0
  Ni  Ni23  1  0.75000000  0.25000000  0.87926000  1.0
  Ni  Ni24  1  0.25439000  0.50000000  0.11667000  1.0
  Ni  Ni25  1  0.79304000  0.00000000  0.11848000  1.0
  Ni  Ni26  1  0.74561000  0.50000000  0.11667000  1.0
  Ni  Ni27  1  0.20696000  0.00000000  0.11848000  1.0
  Ni  Ni28  1  0.73444000  0.25022000  0.04184000  1.0
  Ni  Ni29  1  0.26556000  0.74978000  0.04184000  1.0
  Ni  Ni30  1  0.26556000  0.25022000  0.04184000  1.0
  Ni  Ni31  1  0.73444000  0.74978000  0.04184000  1.0
  C  C32  1  0.50000000  0.00000000  0.14527000  1.0
