# generated using pymatgen
data_LiScInPd
_symmetry_space_group_name_H-M   P1
_cell_length_a   6.59012000
_cell_length_b   9.31984000
_cell_length_c   26.98990000
_cell_angle_alpha   90.00000000
_cell_angle_beta   90.00000000
_cell_angle_gamma   90.00000000
_symmetry_Int_Tables_number   1
_chemical_formula_structural   LiScInPd
_chemical_formula_sum   'Li8 Sc8 In8 Pd8'
_cell_volume   1657.68899696
_cell_formula_units_Z   8
loop_
 _symmetry_equiv_pos_site_id
 _symmetry_equiv_pos_as_xyz
  1  'x, y, z'
loop_
 _atom_site_type_symbol
 _atom_site_label
 _atom_site_symmetry_multiplicity
 _atom_site_fract_x
 _atom_site_fract_y
 _atom_site_fract_z
 _atom_site_occupancy
  Li  Li0  1  0.25000000  0.25000000  0.87051000  1.0
  Li  Li1  1  0.25000000  0.75000000  0.87051000  1.0
  Li  Li2  1  0.26316000  0.25005000  0.04451000  1.0
  Li  Li3  1  0.26322000  0.74993000  0.04452000  1.0
  Li  Li4  1  0.64240000  0.99999000  0.17806000  1.0
  Li  Li5  1  0.64321000  0.49998000  0.17802000  1.0
  Li  Li6  1  0.75000000  0.00000000  0.95684000  1.0
  Li  Li7  1  0.75000000  0.50000000  0.95684000  1.0
  Sc  Sc8  1  0.00000000  0.25000000  0.95684000  1.0
  Sc  Sc9  1  0.00000000  0.75000000  0.95684000  1.0
  Sc  Sc10  1  0.50000000  0.00000000  0.87051000  1.0
  Sc  Sc11  1  0.50000000  0.50000000  0.87051000  1.0
  Sc  Sc12  1  0.52104000  0.00001000  0.05184000  1.0
  Sc  Sc13  1  0.52125000  0.49998000  0.05189000  1.0
  Sc  Sc14  1  0.97296000  0.75005000  0.12441000  1.0
  Sc  Sc15  1  0.97306000  0.24996000  0.12444000  1.0
  In  In16  1  0.00000000  0.00000000  0.87051000  1.0
  In  In17  1  0.00000000  0.50000000  0.87051000  1.0
  In  In18  1  0.00287000  0.00000000  0.04236000  1.0
  In  In19  1  0.00299000  0.50001000  0.04234000  1.0
  In  In20  1  0.49305000  0.75005000  0.13561000  1.0
  In  In21  1  0.49319000  0.24994000  0.13558000  1.0
  In  In22  1  0.50000000  0.25000000  0.95684000  1.0
  In  In23  1  0.50000000  0.75000000  0.95684000  1.0
  Pd  Pd24  1  0.24343000  0.99998000  0.12484000  1.0
  Pd  Pd25  1  0.24354000  0.50000000  0.12481000  1.0
  Pd  Pd26  1  0.25000000  0.00000000  0.95684000  1.0
  Pd  Pd27  1  0.25000000  0.50000000  0.95684000  1.0
  Pd  Pd28  1  0.74896000  0.75001000  0.04162000  1.0
  Pd  Pd29  1  0.74902000  0.24998000  0.04163000  1.0
  Pd  Pd30  1  0.75000000  0.25000000  0.87051000  1.0
  Pd  Pd31  1  0.75000000  0.75000000  0.87051000  1.0
