# generated using pymatgen
data_Au32CO
_symmetry_space_group_name_H-M   'P 1'
_cell_length_a   8.46843000
_cell_length_b   8.46843000
_cell_length_c   26.35130000
_cell_angle_alpha   90.00000000
_cell_angle_beta   90.00000000
_cell_angle_gamma   90.00000000
_symmetry_Int_Tables_number   1
_chemical_formula_structural   Au32CO
_chemical_formula_sum   'Au32 C1 O1'
_cell_volume   1889.76520922
_cell_formula_units_Z   1
loop_
 _symmetry_equiv_pos_site_id
 _symmetry_equiv_pos_as_xyz
  1  'x, y, z'
loop_
 _atom_site_type_symbol
 _atom_site_label
 _atom_site_symmetry_multiplicity
 _atom_site_fract_x
 _atom_site_fract_y
 _atom_site_fract_z
 _atom_site_occupancy
  Au  Au0  1  0.25000000  0.50000000  0.87949000  1.0
  Au  Au1  1  0.50000000  0.75000000  0.87949000  1.0
  Au  Au2  1  0.50000000  0.50000000  0.95983000  1.0
  Au  Au3  1  0.25000000  0.75000000  0.95983000  1.0
  Au  Au4  1  0.25000000  0.50000000  0.04017000  1.0
  Au  Au5  1  0.50000000  0.75000000  0.04017000  1.0
  Au  Au6  1  0.50000000  0.50000000  0.12051000  1.0
  Au  Au7  1  0.25000000  0.75000000  0.12051000  1.0
  Au  Au8  1  0.25000000  0.00000000  0.87949000  1.0
  Au  Au9  1  0.50000000  0.25000000  0.87949000  1.0
  Au  Au10  1  0.50000000  0.00000000  0.95983000  1.0
  Au  Au11  1  0.25000000  0.25000000  0.95983000  1.0
  Au  Au12  1  0.25000000  0.00000000  0.04017000  1.0
  Au  Au13  1  0.50000000  0.25000000  0.04017000  1.0
  Au  Au14  1  0.50000000  0.00000000  0.12051000  1.0
  Au  Au15  1  0.25000000  0.25000000  0.12051000  1.0
  Au  Au16  1  0.75000000  0.50000000  0.87949000  1.0
  Au  Au17  1  0.00000000  0.75000000  0.87949000  1.0
  Au  Au18  1  0.00000000  0.50000000  0.95983000  1.0
  Au  Au19  1  0.75000000  0.75000000  0.95983000  1.0
  Au  Au20  1  0.75000000  0.50000000  0.04017000  1.0
  Au  Au21  1  0.00000000  0.75000000  0.04017000  1.0
  Au  Au22  1  0.00000000  0.50000000  0.12051000  1.0
  Au  Au23  1  0.75000000  0.75000000  0.12051000  1.0
  Au  Au24  1  0.75000000  0.00000000  0.87949000  1.0
  Au  Au25  1  0.00000000  0.25000000  0.87949000  1.0
  Au  Au26  1  0.00000000  0.00000000  0.95983000  1.0
  Au  Au27  1  0.75000000  0.25000000  0.95983000  1.0
  Au  Au28  1  0.75000000  0.00000000  0.04017000  1.0
  Au  Au29  1  0.00000000  0.25000000  0.04017000  1.0
  Au  Au30  1  0.00000000  0.00000000  0.12051000  1.0
  Au  Au31  1  0.75000000  0.25000000  0.12051000  1.0
  C  C32  1  0.50000000  0.50000000  0.19262000  1.0
  O  O33  1  0.50000000  0.50000000  0.23626000  1.0
