data_image0
_chemical_formula_structural       Nb12Si4CO
_chemical_formula_sum              "Nb12 Si4 C1 O1"
_cell_length_a       8.14544
_cell_length_b       5.7597
_cell_length_c       24.3198
_cell_angle_alpha    90
_cell_angle_beta     90
_cell_angle_gamma    90

_space_group_name_H-M_alt    "P 1"
_space_group_IT_number       1

loop_
  _space_group_symop_operation_xyz
  'x, y, z'

loop_
  _atom_site_type_symbol
  _atom_site_label
  _atom_site_symmetry_multiplicity
  _atom_site_fract_x
  _atom_site_fract_y
  _atom_site_fract_z
  _atom_site_occupancy
  Nb  Nb1       1.0  0.00000  0.50000  0.91119  1.0000
  Nb  Nb2       1.0  0.25000  0.75000  0.97040  1.0000
  Nb  Nb3       1.0  0.25000  0.25000  0.97040  1.0000
  Nb  Nb4       1.0  0.99394  0.94574  0.02987  1.0000
  Nb  Nb5       1.0  0.25001  0.18631  0.08283  1.0000
  Nb  Nb6       1.0  0.25001  0.65307  0.08456  1.0000
  Nb  Nb7       1.0  0.50000  0.50000  0.91119  1.0000
  Nb  Nb8       1.0  0.75000  0.75000  0.97040  1.0000
  Nb  Nb9       1.0  0.75000  0.25000  0.97040  1.0000
  Nb  Nb10      1.0  0.50604  0.94573  0.02987  1.0000
  Nb  Nb11      1.0  0.74999  0.18707  0.08717  1.0000
  Nb  Nb12      1.0  0.75001  0.63042  0.08123  1.0000
  Si  Si1       1.0  0.00000  0.00000  0.91119  1.0000
  Si  Si2       1.0  0.00068  0.45620  0.02571  1.0000
  Si  Si3       1.0  0.50000  0.00000  0.91119  1.0000
  Si  Si4       1.0  0.49933  0.45620  0.02571  1.0000
  C   C1        1.0  0.25000  0.34839  0.16121  1.0000
  O   O1        1.0  0.24998  0.39971  0.20799  1.0000
