# generated using pymatgen
data_Nb12Si4CO
_symmetry_space_group_name_H-M   Pm
_cell_length_a   5.75970000
_cell_length_b   8.14544000
_cell_length_c   24.31980000
_cell_angle_alpha   90.00000000
_cell_angle_beta   90.00000000
_cell_angle_gamma   90.00000000
_symmetry_Int_Tables_number   6
_chemical_formula_structural   Nb12Si4CO
_chemical_formula_sum   'Nb12 Si4 C1 O1'
_cell_volume   1140.97048842
_cell_formula_units_Z   1
loop_
 _symmetry_equiv_pos_site_id
 _symmetry_equiv_pos_as_xyz
  1  'x, y, z'
  2  'x, -y, z'
loop_
 _atom_site_type_symbol
 _atom_site_label
 _atom_site_symmetry_multiplicity
 _atom_site_fract_x
 _atom_site_fract_y
 _atom_site_fract_z
 _atom_site_occupancy
  Nb  Nb0  2  0.05208000  0.24747000  0.97104000  1.0
  Nb  Nb1  2  0.50000000  0.25000000  0.08881000  1.0
  Nb  Nb2  1  0.25000000  0.00000000  0.02960000  1.0
  Nb  Nb3  1  0.25000000  0.50000000  0.02960000  1.0
  Nb  Nb4  1  0.35885000  0.50000000  0.91471000  1.0
  Nb  Nb5  1  0.36954000  0.00000000  0.92065000  1.0
  Nb  Nb6  1  0.75000000  0.00000000  0.02960000  1.0
  Nb  Nb7  1  0.75000000  0.50000000  0.02960000  1.0
  Nb  Nb8  1  0.81149000  0.00000000  0.91444000  1.0
  Nb  Nb9  1  0.82868000  0.50000000  0.91157000  1.0
  Si  Si10  2  0.00000000  0.25000000  0.08881000  1.0
  Si  Si11  2  0.54421000  0.25339000  0.97430000  1.0
  C  C12  1  0.61826000  0.50000000  0.84232000  1.0
  O  O13  1  0.45194000  0.50000000  0.81196000  1.0
