# generated using pymatgen
data_In16Ag16C
_symmetry_space_group_name_H-M   'P 1'
_cell_length_a   10.10960000
_cell_length_b   7.14855000
_cell_length_c   27.58220000
_cell_angle_alpha   90.00000000
_cell_angle_beta   90.00000000
_cell_angle_gamma   90.00000000
_symmetry_Int_Tables_number   1
_chemical_formula_structural   In16Ag16C
_chemical_formula_sum   'In16 Ag16 C1'
_cell_volume   1993.33748994
_cell_formula_units_Z   1
loop_
 _symmetry_equiv_pos_site_id
 _symmetry_equiv_pos_as_xyz
  1  'x, y, z'
loop_
 _atom_site_type_symbol
 _atom_site_label
 _atom_site_symmetry_multiplicity
 _atom_site_fract_x
 _atom_site_fract_y
 _atom_site_fract_z
 _atom_site_occupancy
  In  In0  1  0.25000000  0.50000000  0.13745000  1.0
  In  In1  1  0.00000000  0.50000000  0.04582000  1.0
  In  In2  1  0.25019000  0.50000000  0.95127000  1.0
  In  In3  1  0.48185000  0.50000000  0.85144000  1.0
  In  In4  1  0.75000000  0.50000000  0.13745000  1.0
  In  In5  1  0.50000000  0.50000000  0.04582000  1.0
  In  In6  1  0.74998000  0.50000000  0.95923000  1.0
  In  In7  1  0.01879000  0.50000000  0.85119000  1.0
  In  In8  1  0.25000000  0.00000000  0.13745000  1.0
  In  In9  1  0.00000000  0.00000000  0.04582000  1.0
  In  In10  1  0.24998000  0.00000000  0.95482000  1.0
  In  In11  1  0.52231000  0.00000000  0.85530000  1.0
  In  In12  1  0.75000000  0.00000000  0.13745000  1.0
  In  In13  1  0.50000000  0.00000000  0.04582000  1.0
  In  In14  1  0.75013000  0.00000000  0.95150000  1.0
  In  In15  1  0.97728000  0.00000000  0.85529000  1.0
  Ag  Ag16  1  0.00000000  0.75000000  0.13745000  1.0
  Ag  Ag17  1  0.25000000  0.75000000  0.04582000  1.0
  Ag  Ag18  1  0.50161000  0.74836000  0.95278000  1.0
  Ag  Ag19  1  0.24969000  0.80855000  0.85605000  1.0
  Ag  Ag20  1  0.50000000  0.75000000  0.13745000  1.0
  Ag  Ag21  1  0.75000000  0.75000000  0.04582000  1.0
  Ag  Ag22  1  0.99844000  0.74778000  0.95267000  1.0
  Ag  Ag23  1  0.74987000  0.71381000  0.86677000  1.0
  Ag  Ag24  1  0.00000000  0.25000000  0.13745000  1.0
  Ag  Ag25  1  0.25000000  0.25000000  0.04582000  1.0
  Ag  Ag26  1  0.50161000  0.25164000  0.95278000  1.0
  Ag  Ag27  1  0.24969000  0.19145000  0.85605000  1.0
  Ag  Ag28  1  0.50000000  0.25000000  0.13745000  1.0
  Ag  Ag29  1  0.75000000  0.25000000  0.04582000  1.0
  Ag  Ag30  1  0.99844000  0.25222000  0.95267000  1.0
  Ag  Ag31  1  0.74987000  0.28619000  0.86677000  1.0
  C  C32  1  0.25090000  0.50000000  0.86682000  1.0
