# generated using pymatgen
data_In16Ag16C
_symmetry_space_group_name_H-M   Pm
_cell_length_a   10.10960000
_cell_length_b   7.14855000
_cell_length_c   27.58220000
_cell_angle_alpha   90.00000000
_cell_angle_beta   90.00000000
_cell_angle_gamma   90.00000000
_symmetry_Int_Tables_number   6
_chemical_formula_structural   In16Ag16C
_chemical_formula_sum   'In16 Ag16 C1'
_cell_volume   1993.33748994
_cell_formula_units_Z   1
loop_
 _symmetry_equiv_pos_site_id
 _symmetry_equiv_pos_as_xyz
  1  'x, y, z'
  2  'x, -y, z'
loop_
 _atom_site_type_symbol
 _atom_site_label
 _atom_site_symmetry_multiplicity
 _atom_site_fract_x
 _atom_site_fract_y
 _atom_site_fract_z
 _atom_site_occupancy
  In  In0  1  0.00000000  0.00000000  0.95418000  1.0
  In  In1  1  0.00000000  0.50000000  0.95418000  1.0
  In  In2  1  0.01879000  0.50000000  0.14881000  1.0
  In  In3  1  0.24998000  0.00000000  0.04518000  1.0
  In  In4  1  0.25000000  0.00000000  0.86255000  1.0
  In  In5  1  0.25000000  0.50000000  0.86255000  1.0
  In  In6  1  0.25019000  0.50000000  0.04873000  1.0
  In  In7  1  0.48185000  0.50000000  0.14856000  1.0
  In  In8  1  0.50000000  0.00000000  0.95418000  1.0
  In  In9  1  0.50000000  0.50000000  0.95418000  1.0
  In  In10  1  0.52231000  0.00000000  0.14470000  1.0
  In  In11  1  0.74998000  0.50000000  0.04077000  1.0
  In  In12  1  0.75000000  0.00000000  0.86255000  1.0
  In  In13  1  0.75000000  0.50000000  0.86255000  1.0
  In  In14  1  0.75013000  0.00000000  0.04850000  1.0
  In  In15  1  0.97728000  0.00000000  0.14471000  1.0
  Ag  Ag16  2  0.00000000  0.25000000  0.86255000  1.0
  Ag  Ag17  2  0.24969000  0.19145000  0.14395000  1.0
  Ag  Ag18  2  0.25000000  0.25000000  0.95418000  1.0
  Ag  Ag19  2  0.50000000  0.25000000  0.86255000  1.0
  Ag  Ag20  2  0.50161000  0.25164000  0.04722000  1.0
  Ag  Ag21  2  0.74987000  0.28619000  0.13323000  1.0
  Ag  Ag22  2  0.75000000  0.25000000  0.95418000  1.0
  Ag  Ag23  2  0.99844000  0.25222000  0.04733000  1.0
  C  C24  1  0.25090000  0.50000000  0.13318000  1.0
