# generated using pymatgen
data_Fe16Pt16C
_symmetry_space_group_name_H-M   Pmm2
_cell_length_a   7.52780000
_cell_length_b   7.81947000
_cell_length_c   25.86460000
_cell_angle_alpha   90.00000000
_cell_angle_beta   90.00000000
_cell_angle_gamma   90.00000000
_symmetry_Int_Tables_number   25
_chemical_formula_structural   Fe16Pt16C
_chemical_formula_sum   'Fe16 Pt16 C1'
_cell_volume   1522.47845771
_cell_formula_units_Z   1
loop_
 _symmetry_equiv_pos_site_id
 _symmetry_equiv_pos_as_xyz
  1  'x, y, z'
  2  '-x, -y, z'
  3  '-x, y, z'
  4  'x, -y, z'
loop_
 _atom_site_type_symbol
 _atom_site_label
 _atom_site_symmetry_multiplicity
 _atom_site_fract_x
 _atom_site_fract_y
 _atom_site_fract_z
 _atom_site_occupancy
  Fe  Fe0  2  0.00000000  0.25000000  0.03779000  1.0
  Fe  Fe1  2  0.00000000  0.25000000  0.88663000  1.0
  Fe  Fe2  2  0.50000000  0.25000000  0.03779000  1.0
  Fe  Fe3  2  0.50000000  0.25000000  0.88663000  1.0
  Fe  Fe4  1  0.00000000  0.00000000  0.11337000  1.0
  Fe  Fe5  1  0.00000000  0.00000000  0.96221000  1.0
  Fe  Fe6  1  0.00000000  0.50000000  0.11337000  1.0
  Fe  Fe7  1  0.00000000  0.50000000  0.96221000  1.0
  Fe  Fe8  1  0.50000000  0.00000000  0.11337000  1.0
  Fe  Fe9  1  0.50000000  0.00000000  0.96221000  1.0
  Fe  Fe10  1  0.50000000  0.50000000  0.11337000  1.0
  Fe  Fe11  1  0.50000000  0.50000000  0.96221000  1.0
  Pt  Pt12  4  0.25000000  0.25000000  0.11337000  1.0
  Pt  Pt13  4  0.25000000  0.25000000  0.96221000  1.0
  Pt  Pt14  2  0.25000000  0.00000000  0.03779000  1.0
  Pt  Pt15  2  0.25000000  0.00000000  0.88663000  1.0
  Pt  Pt16  2  0.25000000  0.50000000  0.03779000  1.0
  Pt  Pt17  2  0.25000000  0.50000000  0.88663000  1.0
  C  C18  1  0.00000000  0.00000000  0.85570000  1.0
