# generated using pymatgen
data_Li8Ag8Ge8Pd8CO
_symmetry_space_group_name_H-M   'P 1'
_cell_length_a   8.88488000
_cell_length_b   6.28256000
_cell_length_c   26.66370000
_cell_angle_alpha   90.00000000
_cell_angle_beta   90.00000000
_cell_angle_gamma   90.00000000
_symmetry_Int_Tables_number   1
_chemical_formula_structural   Li8Ag8Ge8Pd8CO
_chemical_formula_sum   'Li8 Ag8 Ge8 Pd8 C1 O1'
_cell_volume   1488.36217976
_cell_formula_units_Z   1
loop_
 _symmetry_equiv_pos_site_id
 _symmetry_equiv_pos_as_xyz
  1  'x, y, z'
loop_
 _atom_site_type_symbol
 _atom_site_label
 _atom_site_symmetry_multiplicity
 _atom_site_fract_x
 _atom_site_fract_y
 _atom_site_fract_z
 _atom_site_occupancy
  Li  Li0  1  0.00000000  0.25000000  0.04165000  1.0
  Li  Li1  1  0.50000000  0.25000000  0.04165000  1.0
  Li  Li2  1  0.25000000  0.75000000  0.12496000  1.0
  Li  Li3  1  0.75000000  0.75000000  0.12496000  1.0
  Li  Li4  1  0.50000000  0.22906000  0.86562000  1.0
  Li  Li5  1  0.00000000  0.24276000  0.86853000  1.0
  Li  Li6  1  0.74757000  0.74054000  0.96168000  1.0
  Li  Li7  1  0.25243000  0.74054000  0.96168000  1.0
  Ag  Ag8  1  0.00000000  0.00000000  0.12496000  1.0
  Ag  Ag9  1  0.50000000  0.00000000  0.12496000  1.0
  Ag  Ag10  1  0.75000000  0.50000000  0.04165000  1.0
  Ag  Ag11  1  0.25000000  0.50000000  0.04165000  1.0
  Ag  Ag12  1  0.50000000  0.99329000  0.95637000  1.0
  Ag  Ag13  1  0.00000000  0.00322000  0.95905000  1.0
  Ag  Ag14  1  0.24602000  0.51713000  0.87419000  1.0
  Ag  Ag15  1  0.75398000  0.51713000  0.87419000  1.0
  Ge  Ge16  1  0.00000000  0.75000000  0.04165000  1.0
  Ge  Ge17  1  0.50000000  0.75000000  0.04165000  1.0
  Ge  Ge18  1  0.25000000  0.25000000  0.12496000  1.0
  Ge  Ge19  1  0.75000000  0.25000000  0.12496000  1.0
  Ge  Ge20  1  0.50000000  0.77441000  0.86714000  1.0
  Ge  Ge21  1  0.00000000  0.77026000  0.86185000  1.0
  Ge  Ge22  1  0.74453000  0.25578000  0.95741000  1.0
  Ge  Ge23  1  0.25547000  0.25578000  0.95741000  1.0
  Pd  Pd24  1  0.25000000  0.00000000  0.04165000  1.0
  Pd  Pd25  1  0.75000000  0.00000000  0.04165000  1.0
  Pd  Pd26  1  0.50000000  0.50000000  0.12496000  1.0
  Pd  Pd27  1  0.00000000  0.50000000  0.12496000  1.0
  Pd  Pd28  1  0.75458000  0.98451000  0.88428000  1.0
  Pd  Pd29  1  0.24542000  0.98451000  0.88428000  1.0
  Pd  Pd30  1  0.00000000  0.48655000  0.96137000  1.0
  Pd  Pd31  1  0.50000000  0.49693000  0.94571000  1.0
  C  C32  1  0.00000000  0.76634000  0.78569000  1.0
  O  O33  1  0.00000000  0.74696000  0.74264000  1.0
