# generated using pymatgen
data_Sc8Sn8Pt16C
_symmetry_space_group_name_H-M   Pmm2
_cell_length_a   6.65597000
_cell_length_b   9.41296000
_cell_length_c   27.05970000
_cell_angle_alpha   90.00000000
_cell_angle_beta   90.00000000
_cell_angle_gamma   90.00000000
_symmetry_Int_Tables_number   25
_chemical_formula_structural   Sc8Sn8Pt16C
_chemical_formula_sum   'Sc8 Sn8 Pt16 C1'
_cell_volume   1695.35459007
_cell_formula_units_Z   1
loop_
 _symmetry_equiv_pos_site_id
 _symmetry_equiv_pos_as_xyz
  1  'x, y, z'
  2  '-x, -y, z'
  3  '-x, y, z'
  4  'x, -y, z'
loop_
 _atom_site_type_symbol
 _atom_site_label
 _atom_site_symmetry_multiplicity
 _atom_site_fract_x
 _atom_site_fract_y
 _atom_site_fract_z
 _atom_site_occupancy
  Sc  Sc0  2  0.50000000  0.23752000  0.12662000  1.0
  Sc  Sc1  2  0.50000000  0.25000000  0.95652000  1.0
  Sc  Sc2  1  0.00000000  0.00000000  0.05128000  1.0
  Sc  Sc3  1  0.00000000  0.00000000  0.86955000  1.0
  Sc  Sc4  1  0.00000000  0.50000000  0.04568000  1.0
  Sc  Sc5  1  0.00000000  0.50000000  0.86955000  1.0
  Sn  Sn6  2  0.00000000  0.25000000  0.95652000  1.0
  Sn  Sn7  2  0.00000000  0.26336000  0.13727000  1.0
  Sn  Sn8  1  0.50000000  0.00000000  0.04283000  1.0
  Sn  Sn9  1  0.50000000  0.00000000  0.86955000  1.0
  Sn  Sn10  1  0.50000000  0.50000000  0.04063000  1.0
  Sn  Sn11  1  0.50000000  0.50000000  0.86955000  1.0
  Pt  Pt12  4  0.24260000  0.25009000  0.04331000  1.0
  Pt  Pt13  4  0.25000000  0.25000000  0.86955000  1.0
  Pt  Pt14  2  0.20329000  0.00000000  0.14055000  1.0
  Pt  Pt15  2  0.25000000  0.00000000  0.95652000  1.0
  Pt  Pt16  2  0.25000000  0.50000000  0.95652000  1.0
  Pt  Pt17  2  0.26831000  0.50000000  0.12394000  1.0
  C  C18  1  0.50000000  0.00000000  0.14175000  1.0
