# generated using pymatgen
data_Cu8Ni16Sn8CO
_symmetry_space_group_name_H-M   'P 1'
_cell_length_a   8.51164000
_cell_length_b   6.01864000
_cell_length_c   26.38370000
_cell_angle_alpha   90.00000000
_cell_angle_beta   90.00000000
_cell_angle_gamma   90.00000000
_symmetry_Int_Tables_number   1
_chemical_formula_structural   Cu8Ni16Sn8CO
_chemical_formula_sum   'Cu8 Ni16 Sn8 C1 O1'
_cell_volume   1351.59729550
_cell_formula_units_Z   1
loop_
 _symmetry_equiv_pos_site_id
 _symmetry_equiv_pos_as_xyz
  1  'x, y, z'
loop_
 _atom_site_type_symbol
 _atom_site_label
 _atom_site_symmetry_multiplicity
 _atom_site_fract_x
 _atom_site_fract_y
 _atom_site_fract_z
 _atom_site_occupancy
  Cu  Cu0  1  0.00000000  0.00000000  0.12098000  1.0
  Cu  Cu1  1  0.25000000  0.50000000  0.04033000  1.0
  Cu  Cu2  1  0.75000000  0.50000000  0.04033000  1.0
  Cu  Cu3  1  0.50000000  0.00000000  0.12098000  1.0
  Cu  Cu4  1  0.49576000  0.00000000  0.96265000  1.0
  Cu  Cu5  1  0.75016000  0.50000000  0.88124000  1.0
  Cu  Cu6  1  0.24991000  0.50000000  0.87606000  1.0
  Cu  Cu7  1  0.00425000  0.00000000  0.96267000  1.0
  Ni  Ni8  1  0.00000000  0.75000000  0.04033000  1.0
  Ni  Ni9  1  0.50000000  0.25000000  0.04033000  1.0
  Ni  Ni10  1  0.00000000  0.25000000  0.04033000  1.0
  Ni  Ni11  1  0.50000000  0.75000000  0.04033000  1.0
  Ni  Ni12  1  0.75000000  0.25000000  0.12098000  1.0
  Ni  Ni13  1  0.25000000  0.75000000  0.12098000  1.0
  Ni  Ni14  1  0.75000000  0.75000000  0.12098000  1.0
  Ni  Ni15  1  0.25000000  0.25000000  0.12098000  1.0
  Ni  Ni16  1  0.50439000  0.76656000  0.88441000  1.0
  Ni  Ni17  1  0.99566000  0.23319000  0.88444000  1.0
  Ni  Ni18  1  0.50439000  0.23344000  0.88441000  1.0
  Ni  Ni19  1  0.99566000  0.76681000  0.88444000  1.0
  Ni  Ni20  1  0.25000000  0.25253000  0.95733000  1.0
  Ni  Ni21  1  0.75001000  0.77094000  0.95624000  1.0
  Ni  Ni22  1  0.25000000  0.74747000  0.95733000  1.0
  Ni  Ni23  1  0.75001000  0.22906000  0.95624000  1.0
  Sn  Sn24  1  0.75000000  0.00000000  0.04033000  1.0
  Sn  Sn25  1  0.00000000  0.50000000  0.12098000  1.0
  Sn  Sn26  1  0.25000000  0.00000000  0.04033000  1.0
  Sn  Sn27  1  0.50000000  0.50000000  0.12098000  1.0
  Sn  Sn28  1  0.24998000  0.00000000  0.87325000  1.0
  Sn  Sn29  1  0.50458000  0.50000000  0.95993000  1.0
  Sn  Sn30  1  0.75009000  0.00000000  0.86415000  1.0
  Sn  Sn31  1  0.99547000  0.50000000  0.95994000  1.0
  C  C32  1  0.24997000  0.50000000  0.80497000  1.0
  O  O33  1  0.25000000  0.50000000  0.76148000  1.0
