# generated using pymatgen
data_Li4Al4Ge4Pd4CO
_symmetry_space_group_name_H-M   Pm
_cell_length_a   5.46300000
_cell_length_b   8.09626000
_cell_length_c   24.08560000
_cell_angle_alpha   90.00000000
_cell_angle_beta   90.00000000
_cell_angle_gamma   90.00000000
_symmetry_Int_Tables_number   6
_chemical_formula_structural   Li4Al4Ge4Pd4CO
_chemical_formula_sum   'Li4 Al4 Ge4 Pd4 C1 O1'
_cell_volume   1065.30291785
_cell_formula_units_Z   1
loop_
 _symmetry_equiv_pos_site_id
 _symmetry_equiv_pos_as_xyz
  1  'x, y, z'
  2  'x, -y, z'
loop_
 _atom_site_type_symbol
 _atom_site_label
 _atom_site_symmetry_multiplicity
 _atom_site_fract_x
 _atom_site_fract_y
 _atom_site_fract_z
 _atom_site_occupancy
  Li  Li0  1  0.20826000  0.50000000  0.09429000  1.0
  Li  Li1  1  0.22191000  0.00000000  0.08857000  1.0
  Li  Li2  1  0.73119000  0.00000000  0.97173000  1.0
  Li  Li3  1  0.73119000  0.50000000  0.97173000  1.0
  Al  Al4  2  0.00000000  0.25000000  0.91519000  1.0
  Al  Al5  2  0.46409000  0.25513000  0.02494000  1.0
  Ge  Ge6  1  0.23119000  0.00000000  0.97173000  1.0
  Ge  Ge7  1  0.23119000  0.50000000  0.97173000  1.0
  Ge  Ge8  1  0.70364000  0.50000000  0.08148000  1.0
  Ge  Ge9  1  0.72737000  0.00000000  0.08175000  1.0
  Pd  Pd10  2  0.50000000  0.25000000  0.91519000  1.0
  Pd  Pd11  2  0.96544000  0.25666000  0.03435000  1.0
  C  C12  1  0.74251000  0.00000000  0.16239000  1.0
  O  O13  1  0.72552000  0.00000000  0.21062000  1.0
