# generated using pymatgen
data_Li8Co16Ge8CO
_symmetry_space_group_name_H-M   P1
_cell_length_a   5.64259000
_cell_length_b   7.97982000
_cell_length_c   25.98490000
_cell_angle_alpha   90.00000000
_cell_angle_beta   90.00000000
_cell_angle_gamma   90.00000000
_symmetry_Int_Tables_number   1
_chemical_formula_structural   Li8Co16Ge8CO
_chemical_formula_sum   'Li8 Co16 Ge8 C1 O1'
_cell_volume   1170.01826041
_cell_formula_units_Z   1
loop_
 _symmetry_equiv_pos_site_id
 _symmetry_equiv_pos_as_xyz
  1  'x, y, z'
loop_
 _atom_site_type_symbol
 _atom_site_label
 _atom_site_symmetry_multiplicity
 _atom_site_fract_x
 _atom_site_fract_y
 _atom_site_fract_z
 _atom_site_occupancy
  Li  Li0  1  0.00000000  0.00000000  0.88484000  1.0
  Li  Li1  1  0.00000000  0.50000000  0.88484000  1.0
  Li  Li2  1  0.00000000  0.00053000  0.03336000  1.0
  Li  Li3  1  0.00001000  0.49930000  0.03346000  1.0
  Li  Li4  1  0.50000000  0.24968000  0.13071000  1.0
  Li  Li5  1  0.50000000  0.25000000  0.96161000  1.0
  Li  Li6  1  0.50000000  0.75000000  0.96161000  1.0
  Li  Li7  1  0.50001000  0.74984000  0.14842000  1.0
  Co  Co8  1  0.23169000  0.98857000  0.10831000  1.0
  Co  Co9  1  0.23235000  0.51064000  0.10837000  1.0
  Co  Co10  1  0.25000000  0.00000000  0.96161000  1.0
  Co  Co11  1  0.25000000  0.25000000  0.88484000  1.0
  Co  Co12  1  0.25000000  0.50000000  0.96161000  1.0
  Co  Co13  1  0.25000000  0.75000000  0.88484000  1.0
  Co  Co14  1  0.25127000  0.24995000  0.03942000  1.0
  Co  Co15  1  0.25371000  0.74992000  0.04824000  1.0
  Co  Co16  1  0.74625000  0.74991000  0.04823000  1.0
  Co  Co17  1  0.74875000  0.24999000  0.03941000  1.0
  Co  Co18  1  0.75000000  0.00000000  0.96161000  1.0
  Co  Co19  1  0.75000000  0.25000000  0.88484000  1.0
  Co  Co20  1  0.75000000  0.50000000  0.96161000  1.0
  Co  Co21  1  0.75000000  0.75000000  0.88484000  1.0
  Co  Co22  1  0.76765000  0.51060000  0.10837000  1.0
  Co  Co23  1  0.76833000  0.98862000  0.10832000  1.0
  Ge  Ge24  1  0.00000000  0.25000000  0.96161000  1.0
  Ge  Ge25  1  0.00000000  0.75000000  0.96161000  1.0
  Ge  Ge26  1  0.00008000  0.74930000  0.13178000  1.0
  Ge  Ge27  1  0.49996000  0.49325000  0.03599000  1.0
  Ge  Ge28  1  0.50000000  0.00000000  0.88484000  1.0
  Ge  Ge29  1  0.50000000  0.50000000  0.88484000  1.0
  Ge  Ge30  1  0.50001000  0.00659000  0.03596000  1.0
  Ge  Ge31  1  0.99997000  0.25001000  0.11449000  1.0
  C  C32  1  0.00116000  0.24389000  0.26874000  1.0
  O  O33  1  0.99415000  0.25676000  0.31223000  1.0
