# generated using pymatgen
data_Ga4Fe8Co4CO
_symmetry_space_group_name_H-M   P4mm
_cell_length_a   5.79866000
_cell_length_b   5.79866000
_cell_length_c   24.34900000
_cell_angle_alpha   90.00000000
_cell_angle_beta   90.00000000
_cell_angle_gamma   90.00000000
_symmetry_Int_Tables_number   99
_chemical_formula_structural   Ga4Fe8Co4CO
_chemical_formula_sum   'Ga4 Fe8 Co4 C1 O1'
_cell_volume   818.72192287
_cell_formula_units_Z   1
loop_
 _symmetry_equiv_pos_site_id
 _symmetry_equiv_pos_as_xyz
  1  'x, y, z'
  2  '-y, x, z'
  3  '-x, -y, z'
  4  'y, -x, z'
  5  '-x, y, z'
  6  'y, x, z'
  7  'x, -y, z'
  8  '-y, -x, z'
loop_
 _atom_site_type_symbol
 _atom_site_label
 _atom_site_symmetry_multiplicity
 _atom_site_fract_x
 _atom_site_fract_y
 _atom_site_fract_z
 _atom_site_occupancy
  Ga  Ga0  2  0.00000000  0.50000000  0.08931000  1.0
  Ga  Ga1  1  0.00000000  0.00000000  0.97023000  1.0
  Ga  Ga2  1  0.50000000  0.50000000  0.97023000  1.0
  Fe  Fe3  4  0.25000000  0.25000000  0.02977000  1.0
  Fe  Fe4  4  0.25000000  0.25000000  0.91069000  1.0
  Co  Co5  2  0.00000000  0.50000000  0.97023000  1.0
  Co  Co6  1  0.00000000  0.00000000  0.08931000  1.0
  Co  Co7  1  0.50000000  0.50000000  0.08931000  1.0
  C  C8  1  0.00000000  0.00000000  0.16734000  1.0
  O  O9  1  0.00000000  0.00000000  0.21457000  1.0
