# generated using pymatgen
data_Li8Nb8Al8Pd8CO
_symmetry_space_group_name_H-M   Pm
_cell_length_a   6.26744000
_cell_length_b   8.86350000
_cell_length_c   26.64760000
_cell_angle_alpha   90.00000000
_cell_angle_beta   90.00000000
_cell_angle_gamma   90.00000000
_symmetry_Int_Tables_number   6
_chemical_formula_structural   Li8Nb8Al8Pd8CO
_chemical_formula_sum   'Li8 Nb8 Al8 Pd8 C1 O1'
_cell_volume   1480.31293734
_cell_formula_units_Z   1
loop_
 _symmetry_equiv_pos_site_id
 _symmetry_equiv_pos_as_xyz
  1  'x, y, z'
  2  'x, -y, z'
loop_
 _atom_site_type_symbol
 _atom_site_label
 _atom_site_symmetry_multiplicity
 _atom_site_fract_x
 _atom_site_fract_y
 _atom_site_fract_z
 _atom_site_occupancy
  Li  Li0  2  0.25000000  0.24999000  0.95842000  1.0
  Li  Li1  2  0.29354000  0.24286000  0.17132000  1.0
  Li  Li2  1  0.74324000  0.50000000  0.04217000  1.0
  Li  Li3  1  0.75000000  0.00000000  0.87527000  1.0
  Li  Li4  1  0.75000000  0.50000000  0.87527000  1.0
  Li  Li5  1  0.75358000  0.00000000  0.04088000  1.0
  Nb  Nb6  2  0.49151000  0.24847000  0.04664000  1.0
  Nb  Nb7  2  0.50000000  0.25001000  0.87527000  1.0
  Nb  Nb8  1  -0.00000000  0.50000000  0.95842000  1.0
  Nb  Nb9  1  -0.00000000  0.00000000  0.95842000  1.0
  Nb  Nb10  1  0.01971000  0.50000000  0.11962000  1.0
  Nb  Nb11  1  0.02722000  0.00000000  0.12409000  1.0
  Al  Al12  2  0.00000000  0.24999000  0.87527000  1.0
  Al  Al13  2  0.00680000  0.25046000  0.04277000  1.0
  Al  Al14  1  0.49049000  0.50000000  0.12538000  1.0
  Al  Al15  1  0.50000000  0.00000000  0.95842000  1.0
  Al  Al16  1  0.50000000  0.50000000  0.95842000  1.0
  Al  Al17  1  0.50041000  0.00000000  0.12056000  1.0
  Pd  Pd18  2  0.75000000  0.24999000  0.95842000  1.0
  Pd  Pd19  2  0.76412000  0.25118000  0.11929000  1.0
  Pd  Pd20  1  0.24960000  0.50000000  0.03830000  1.0
  Pd  Pd21  1  0.25000000  0.00000000  0.87527000  1.0
  Pd  Pd22  1  0.25000000  0.50000000  0.87527000  1.0
  Pd  Pd23  1  0.25280000  0.00000000  0.03618000  1.0
  C  C24  1  0.15260000  0.00000000  0.19375000  1.0
  O  O25  1  0.21469000  0.00000000  0.23638000  1.0
