# generated using pymatgen
data_Li4Y4In4Pb4C
_symmetry_space_group_name_H-M   'P 1'
_cell_length_a   6.63002000
_cell_length_b   9.00122000
_cell_length_c   24.97230000
_cell_angle_alpha   90.00000000
_cell_angle_beta   90.00000000
_cell_angle_gamma   90.00000000
_symmetry_Int_Tables_number   1
_chemical_formula_structural   Li4Y4In4Pb4C
_chemical_formula_sum   'Li4 Y4 In4 Pb4 C1'
_cell_volume   1490.30362757
_cell_formula_units_Z   1
loop_
 _symmetry_equiv_pos_site_id
 _symmetry_equiv_pos_as_xyz
  1  'x, y, z'
loop_
 _atom_site_type_symbol
 _atom_site_label
 _atom_site_symmetry_multiplicity
 _atom_site_fract_x
 _atom_site_fract_y
 _atom_site_fract_z
 _atom_site_occupancy
  Li  Li0  1  0.78263000  0.74997000  0.96025000  1.0
  Li  Li1  1  0.25755000  0.75000000  0.09956000  1.0
  Li  Li2  1  0.72217000  0.24992000  0.96427000  1.0
  Li  Li3  1  0.25755000  0.25000000  0.09956000  1.0
  Y  Y4  1  0.25194000  0.75000000  0.97736000  1.0
  Y  Y5  1  0.75755000  0.75000000  0.09956000  1.0
  Y  Y6  1  0.21460000  0.25019000  0.95976000  1.0
  Y  Y7  1  0.75755000  0.25000000  0.09956000  1.0
  In  In8  1  0.98443000  0.97159000  0.88879000  1.0
  In  In9  1  0.50504000  1.00000000  0.03319000  1.0
  In  In10  1  0.98425000  0.52846000  0.88875000  1.0
  In  In11  1  0.50504000  0.50000000  0.03319000  1.0
  Pb  Pb12  1  0.50554000  0.97676000  0.89783000  1.0
  Pb  Pb13  1  0.00504000  1.00000000  0.03319000  1.0
  Pb  Pb14  1  0.50553000  0.52322000  0.89780000  1.0
  Pb  Pb15  1  0.00504000  0.50000000  0.03319000  1.0
  C  C16  1  0.11132000  0.74998000  0.89701000  1.0
