# generated using pymatgen
data_Mg4Ag12CO
_symmetry_space_group_name_H-M   Pm
_cell_length_a   5.96164000
_cell_length_b   8.43103000
_cell_length_c   24.47120000
_cell_angle_alpha   90.00000000
_cell_angle_beta   90.00000000
_cell_angle_gamma   90.00000000
_symmetry_Int_Tables_number   6
_chemical_formula_structural   Mg4Ag12CO
_chemical_formula_sum   'Mg4 Ag12 C1 O1'
_cell_volume   1229.99019173
_cell_formula_units_Z   1
loop_
 _symmetry_equiv_pos_site_id
 _symmetry_equiv_pos_as_xyz
  1  'x, y, z'
  2  'x, -y, z'
loop_
 _atom_site_type_symbol
 _atom_site_label
 _atom_site_symmetry_multiplicity
 _atom_site_fract_x
 _atom_site_fract_y
 _atom_site_fract_z
 _atom_site_occupancy
  Mg  Mg0  2  0.00000000  0.25000000  0.09136000  1.0
  Mg  Mg1  2  0.50120000  0.24518000  0.96706000  1.0
  Ag  Ag2  2  0.50000000  0.25000000  0.09136000  1.0
  Ag  Ag3  2  0.99933000  0.24584000  0.96630000  1.0
  Ag  Ag4  1  0.25000000  0.00000000  0.03045000  1.0
  Ag  Ag5  1  0.25000000  0.50000000  0.03045000  1.0
  Ag  Ag6  1  0.25395000  0.00000000  0.90824000  1.0
  Ag  Ag7  1  0.25725000  0.50000000  0.91277000  1.0
  Ag  Ag8  1  0.74670000  0.00000000  0.90780000  1.0
  Ag  Ag9  1  0.74697000  0.50000000  0.91122000  1.0
  Ag  Ag10  1  0.75000000  0.00000000  0.03045000  1.0
  Ag  Ag11  1  0.75000000  0.50000000  0.03045000  1.0
  C  C12  1  0.77250000  0.50000000  0.82034000  1.0
  O  O13  1  0.73758000  0.50000000  0.77450000  1.0
