# generated using pymatgen
data_Li8Y8Cu8Pd8CO
_symmetry_space_group_name_H-M   'P 1'
_cell_length_a   9.43388000
_cell_length_b   6.67076000
_cell_length_c   27.07540000
_cell_angle_alpha   90.00000000
_cell_angle_beta   90.00000000
_cell_angle_gamma   90.00000000
_symmetry_Int_Tables_number   1
_chemical_formula_structural   Li8Y8Cu8Pd8CO
_chemical_formula_sum   'Li8 Y8 Cu8 Pd8 C1 O1'
_cell_volume   1703.88604108
_cell_formula_units_Z   1
loop_
 _symmetry_equiv_pos_site_id
 _symmetry_equiv_pos_as_xyz
  1  'x, y, z'
loop_
 _atom_site_type_symbol
 _atom_site_label
 _atom_site_symmetry_multiplicity
 _atom_site_fract_x
 _atom_site_fract_y
 _atom_site_fract_z
 _atom_site_occupancy
  Li  Li0  1  0.75000000  0.25000000  0.04355000  1.0
  Li  Li1  1  0.25000000  0.25000000  0.04355000  1.0
  Li  Li2  1  0.00000000  0.75000000  0.13066000  1.0
  Li  Li3  1  0.50000000  0.75000000  0.13066000  1.0
  Li  Li4  1  0.23186000  0.24402000  0.86939000  1.0
  Li  Li5  1  0.76814000  0.24402000  0.86939000  1.0
  Li  Li6  1  0.50000000  0.75650000  0.95335000  1.0
  Li  Li7  1  0.00000000  0.75109000  0.95912000  1.0
  Y  Y8  1  0.75000000  0.75000000  0.04355000  1.0
  Y  Y9  1  0.25000000  0.75000000  0.04355000  1.0
  Y  Y10  1  0.00000000  0.25000000  0.13066000  1.0
  Y  Y11  1  0.50000000  0.25000000  0.13066000  1.0
  Y  Y12  1  0.27674000  0.74782000  0.86038000  1.0
  Y  Y13  1  0.72326000  0.74782000  0.86038000  1.0
  Y  Y14  1  0.50000000  0.25067000  0.95706000  1.0
  Y  Y15  1  0.00000000  0.24828000  0.95682000  1.0
  Cu  Cu16  1  0.75000000  0.00000000  0.13066000  1.0
  Cu  Cu17  1  0.25000000  0.00000000  0.13066000  1.0
  Cu  Cu18  1  0.50000000  0.50000000  0.04355000  1.0
  Cu  Cu19  1  0.00000000  0.50000000  0.04355000  1.0
  Cu  Cu20  1  0.24044000  0.97370000  0.94761000  1.0
  Cu  Cu21  1  0.75956000  0.97370000  0.94761000  1.0
  Cu  Cu22  1  0.00000000  0.53778000  0.87985000  1.0
  Cu  Cu23  1  0.50000000  0.43922000  0.86312000  1.0
  Pd  Pd24  1  0.00000000  1.00000000  0.04355000  1.0
  Pd  Pd25  1  0.50000000  0.00000000  0.04355000  1.0
  Pd  Pd26  1  0.25000000  0.50000000  0.13066000  1.0
  Pd  Pd27  1  0.75000000  0.50000000  0.13066000  1.0
  Pd  Pd28  1  0.50000000  0.03685000  0.86879000  1.0
  Pd  Pd29  1  0.00000000  0.95920000  0.87070000  1.0
  Pd  Pd30  1  0.75026000  0.52186000  0.94873000  1.0
  Pd  Pd31  1  0.24974000  0.52186000  0.94873000  1.0
  C  C32  1  0.00000000  0.97105000  0.79866000  1.0
  O  O33  1  0.00000000  0.02036000  0.75735000  1.0
