# generated using pymatgen
data_Li8Y8Cu8Pd8CO
_symmetry_space_group_name_H-M   Pm
_cell_length_a   6.67076000
_cell_length_b   9.43388000
_cell_length_c   27.07540000
_cell_angle_alpha   90.00000000
_cell_angle_beta   90.00000000
_cell_angle_gamma   90.00000000
_symmetry_Int_Tables_number   6
_chemical_formula_structural   Li8Y8Cu8Pd8CO
_chemical_formula_sum   'Li8 Y8 Cu8 Pd8 C1 O1'
_cell_volume   1703.88604108
_cell_formula_units_Z   1
loop_
 _symmetry_equiv_pos_site_id
 _symmetry_equiv_pos_as_xyz
  1  'x, y, z'
  2  'x, -y, z'
loop_
 _atom_site_type_symbol
 _atom_site_label
 _atom_site_symmetry_multiplicity
 _atom_site_fract_x
 _atom_site_fract_y
 _atom_site_fract_z
 _atom_site_occupancy
  Li  Li0  2  0.24402000  0.23186000  0.13061000  1.0
  Li  Li1  2  0.25000000  0.25000000  0.95645000  1.0
  Li  Li2  1  0.75000000  0.00000000  0.86934000  1.0
  Li  Li3  1  0.75000000  0.50000000  0.86934000  1.0
  Li  Li4  1  0.75109000  0.00000000  0.04088000  1.0
  Li  Li5  1  0.75650000  0.50000000  0.04665000  1.0
  Y  Y6  2  0.74782000  0.27674000  0.13962000  1.0
  Y  Y7  2  0.75000000  0.25000000  0.95645000  1.0
  Y  Y8  1  0.24828000  0.00000000  0.04318000  1.0
  Y  Y9  1  0.25000000  0.00000000  0.86934000  1.0
  Y  Y10  1  0.25000000  0.50000000  0.86934000  1.0
  Y  Y11  1  0.25067000  0.50000000  0.04294000  1.0
  Cu  Cu12  2  0.00000000  0.25000000  0.86934000  1.0
  Cu  Cu13  2  0.97370000  0.24044000  0.05239000  1.0
  Cu  Cu14  1  0.43922000  0.50000000  0.13688000  1.0
  Cu  Cu15  1  0.50000000  0.00000000  0.95645000  1.0
  Cu  Cu16  1  0.50000000  0.50000000  0.95645000  1.0
  Cu  Cu17  1  0.53778000  0.00000000  0.12015000  1.0
  Pd  Pd18  2  0.50000000  0.25000000  0.86934000  1.0
  Pd  Pd19  2  0.52186000  0.24974000  0.05127000  1.0
  Pd  Pd20  1  -0.00000000  0.00000000  0.95645000  1.0
  Pd  Pd21  1  0.00000000  0.50000000  0.95645000  1.0
  Pd  Pd22  1  0.03685000  0.50000000  0.13121000  1.0
  Pd  Pd23  1  0.95920000  0.00000000  0.12930000  1.0
  C  C24  1  0.97105000  0.00000000  0.20134000  1.0
  O  O25  1  0.02036000  0.00000000  0.24265000  1.0
