data_image0
_chemical_formula_structural       Sn16Sb16C
_chemical_formula_sum              "Sn16 Sb16 C1"
_cell_length_a       7.64519
_cell_length_b       10.8119
_cell_length_c       28.1089
_cell_angle_alpha    90
_cell_angle_beta     90
_cell_angle_gamma    90

_space_group_name_H-M_alt    "P 1"
_space_group_IT_number       1

loop_
  _space_group_symop_operation_xyz
  'x, y, z'

loop_
  _atom_site_type_symbol
  _atom_site_label
  _atom_site_symmetry_multiplicity
  _atom_site_fract_x
  _atom_site_fract_y
  _atom_site_fract_z
  _atom_site_occupancy
  Sn  Sn1       1.0  0.25000  0.25000  0.85576  1.0000
  Sn  Sn2       1.0  0.25000  0.00000  0.95192  1.0000
  Sn  Sn3       1.0  0.25000  0.22201  0.05354  1.0000
  Sn  Sn4       1.0  0.25000  0.00054  0.14633  1.0000
  Sn  Sn5       1.0  0.25000  0.75000  0.85576  1.0000
  Sn  Sn6       1.0  0.25000  0.50000  0.95192  1.0000
  Sn  Sn7       1.0  0.25000  0.75029  0.05214  1.0000
  Sn  Sn8       1.0  0.25000  0.52080  0.17711  1.0000
  Sn  Sn9       1.0  0.75000  0.25000  0.85576  1.0000
  Sn  Sn10      1.0  0.75000  0.00000  0.95192  1.0000
  Sn  Sn11      1.0  0.75001  0.23003  0.05696  1.0000
  Sn  Sn12      1.0  0.75002  0.01313  0.14619  1.0000
  Sn  Sn13      1.0  0.75000  0.75000  0.85576  1.0000
  Sn  Sn14      1.0  0.75000  0.50000  0.95192  1.0000
  Sn  Sn15      1.0  0.75000  0.75705  0.05163  1.0000
  Sn  Sn16      1.0  0.75001  0.53640  0.17025  1.0000
  Sb  Sb1       1.0  0.00000  0.00000  0.85576  1.0000
  Sb  Sb2       1.0  0.00000  0.25000  0.95192  1.0000
  Sb  Sb3       1.0  0.99227  0.99573  0.05888  1.0000
  Sb  Sb4       1.0  0.00953  0.28927  0.15979  1.0000
  Sb  Sb5       1.0  0.00000  0.50000  0.85576  1.0000
  Sb  Sb6       1.0  0.00000  0.75000  0.95192  1.0000
  Sb  Sb7       1.0  0.00539  0.48554  0.08340  1.0000
  Sb  Sb8       1.0  0.99843  0.73478  0.14288  1.0000
  Sb  Sb9       1.0  0.50000  0.00000  0.85576  1.0000
  Sb  Sb10      1.0  0.50000  0.25000  0.95192  1.0000
  Sb  Sb11      1.0  0.50775  0.99573  0.05888  1.0000
  Sb  Sb12      1.0  0.49046  0.28928  0.15979  1.0000
  Sb  Sb13      1.0  0.50000  0.50000  0.85576  1.0000
  Sb  Sb14      1.0  0.50000  0.75000  0.95192  1.0000
  Sb  Sb15      1.0  0.49462  0.48554  0.08340  1.0000
  Sb  Sb16      1.0  0.50155  0.73477  0.14288  1.0000
  C   C1        1.0  0.25000  0.20580  0.13416  1.0000
