# generated using pymatgen
data_Sn16Sb16C
_symmetry_space_group_name_H-M   P1
_cell_length_a   7.64519000
_cell_length_b   10.81190000
_cell_length_c   28.10890000
_cell_angle_alpha   90.00000000
_cell_angle_beta   90.00000000
_cell_angle_gamma   90.00000000
_symmetry_Int_Tables_number   1
_chemical_formula_structural   Sn16Sb16C
_chemical_formula_sum   'Sn16 Sb16 C1'
_cell_volume   2323.45440165
_cell_formula_units_Z   1
loop_
 _symmetry_equiv_pos_site_id
 _symmetry_equiv_pos_as_xyz
  1  'x, y, z'
loop_
 _atom_site_type_symbol
 _atom_site_label
 _atom_site_symmetry_multiplicity
 _atom_site_fract_x
 _atom_site_fract_y
 _atom_site_fract_z
 _atom_site_occupancy
  Sn  Sn0  1  0.24997000  0.73468000  0.04026000  1.0
  Sn  Sn1  1  0.25000000  0.00000000  0.95192000  1.0
  Sn  Sn2  1  0.25000000  0.25000000  0.85576000  1.0
  Sn  Sn3  1  0.25000000  0.50000000  0.95192000  1.0
  Sn  Sn4  1  0.25000000  0.52611000  0.18549000  1.0
  Sn  Sn5  1  0.25000000  0.75000000  0.85576000  1.0
  Sn  Sn6  1  0.25001000  0.99336000  0.14510000  1.0
  Sn  Sn7  1  0.25002000  0.21750000  0.05600000  1.0
  Sn  Sn8  1  0.74998000  0.52695000  0.19537000  1.0
  Sn  Sn9  1  0.74998000  0.75690000  0.05396000  1.0
  Sn  Sn10  1  0.74999000  0.05789000  0.15035000  1.0
  Sn  Sn11  1  0.75000000  0.00000000  0.95192000  1.0
  Sn  Sn12  1  0.75000000  0.25000000  0.85576000  1.0
  Sn  Sn13  1  0.75000000  0.50000000  0.95192000  1.0
  Sn  Sn14  1  0.75000000  0.75000000  0.85576000  1.0
  Sn  Sn15  1  0.75008000  0.22797000  0.05081000  1.0
  Sb  Sb16  1  0.00000000  0.00000000  0.85576000  1.0
  Sb  Sb17  1  0.00000000  0.25000000  0.95192000  1.0
  Sb  Sb18  1  0.00000000  0.50000000  0.85576000  1.0
  Sb  Sb19  1  0.00000000  0.75000000  0.95192000  1.0
  Sb  Sb20  1  0.01327000  0.28352000  0.16644000  1.0
  Sb  Sb21  1  0.48669000  0.28350000  0.16646000  1.0
  Sb  Sb22  1  0.50000000  0.00000000  0.85576000  1.0
  Sb  Sb23  1  0.50000000  0.25000000  0.95192000  1.0
  Sb  Sb24  1  0.50000000  0.50000000  0.85576000  1.0
  Sb  Sb25  1  0.50000000  0.75000000  0.95192000  1.0
  Sb  Sb26  1  0.51084000  0.99292000  0.06294000  1.0
  Sb  Sb27  1  0.51480000  0.49036000  0.09532000  1.0
  Sb  Sb28  1  0.52081000  0.71693000  0.15220000  1.0
  Sb  Sb29  1  0.97915000  0.71694000  0.15221000  1.0
  Sb  Sb30  1  0.98525000  0.49042000  0.09530000  1.0
  Sb  Sb31  1  0.98925000  0.99286000  0.06293000  1.0
  C  C32  1  0.25000000  0.20298000  0.13666000  1.0
