data_image0
_chemical_formula_structural       Li4Al4Cu4Pd4C
_chemical_formula_sum              "Li4 Al4 Cu4 Pd4 C1"
_cell_length_a       6.00833
_cell_length_b       6.00833
_cell_length_c       24.5062
_cell_angle_alpha    90
_cell_angle_beta     90
_cell_angle_gamma    90

_space_group_name_H-M_alt    "P 1"
_space_group_IT_number       1

loop_
  _space_group_symop_operation_xyz
  'x, y, z'

loop_
  _atom_site_type_symbol
  _atom_site_label
  _atom_site_symmetry_multiplicity
  _atom_site_fract_x
  _atom_site_fract_y
  _atom_site_fract_z
  _atom_site_occupancy
  Li  Li1       1.0  0.99972  0.49916  0.10794  1.0000
  Li  Li2       1.0  0.00000  0.00000  0.96935  1.0000
  Li  Li3       1.0  0.50000  0.50000  0.96935  1.0000
  Li  Li4       1.0  0.50084  0.00028  0.10794  1.0000
  Al  Al1       1.0  0.97620  0.02380  0.09425  1.0000
  Al  Al2       1.0  0.00000  0.50000  0.96935  1.0000
  Al  Al3       1.0  0.50000  0.00000  0.96935  1.0000
  Al  Al4       1.0  0.52406  0.47594  0.09434  1.0000
  Cu  Cu1       1.0  0.25032  0.25034  0.03227  1.0000
  Cu  Cu2       1.0  0.25000  0.75000  0.90806  1.0000
  Cu  Cu3       1.0  0.75000  0.25000  0.90806  1.0000
  Cu  Cu4       1.0  0.74966  0.74968  0.03227  1.0000
  Pd  Pd1       1.0  0.75004  0.24996  0.02146  1.0000
  Pd  Pd2       1.0  0.75000  0.75000  0.90806  1.0000
  Pd  Pd3       1.0  0.25000  0.25000  0.90806  1.0000
  Pd  Pd4       1.0  0.25024  0.74976  0.04663  1.0000
  C   C1        1.0  0.75016  0.24984  0.11167  1.0000
