# generated using pymatgen
data_LiTiAlPd
_symmetry_space_group_name_H-M   'P 1'
_cell_length_a   6.17553000
_cell_length_b   6.17553000
_cell_length_c   24.63160000
_cell_angle_alpha   90.00000000
_cell_angle_beta   90.00000000
_cell_angle_gamma   90.00000000
_symmetry_Int_Tables_number   1
_chemical_formula_structural   LiTiAlPd
_chemical_formula_sum   'Li4 Ti4 Al4 Pd4'
_cell_volume   939.37953581
_cell_formula_units_Z   4
loop_
 _symmetry_equiv_pos_site_id
 _symmetry_equiv_pos_as_xyz
  1  'x, y, z'
loop_
 _atom_site_type_symbol
 _atom_site_label
 _atom_site_symmetry_multiplicity
 _atom_site_fract_x
 _atom_site_fract_y
 _atom_site_fract_z
 _atom_site_occupancy
  Li  Li0  1  0.75000000  0.75000000  0.96866000  1
  Li  Li1  1  0.24990000  0.75010000  0.11893000  1
  Li  Li2  1  0.75010000  0.24990000  0.11893000  1
  Li  Li3  1  0.25000000  0.25000000  0.96866000  1
  Ti  Ti4  1  0.50000000  0.00000000  0.90598000  1
  Ti  Ti5  1  0.00000000  0.00000000  0.03205000  1
  Ti  Ti6  1  0.50000000  0.50000000  0.03208000  1
  Ti  Ti7  1  0.00000000  0.50000000  0.90598000  1
  Al  Al8  1  0.00000000  0.00000000  0.90598000  1
  Al  Al9  1  0.50000000  0.00000000  0.03342000  1
  Al  Al10  1  0.00000000  0.50000000  0.03342000  1
  Al  Al11  1  0.50000000  0.50000000  0.90598000  1
  Pd  Pd12  1  0.75000000  0.25000000  0.96866000  1
  Pd  Pd13  1  0.24995000  0.24995000  0.08818000  1
  Pd  Pd14  1  0.75005000  0.75005000  0.08818000  1
  Pd  Pd15  1  0.25000000  0.75000000  0.96866000  1
