# generated using pymatgen
data_LiTiAlPd
_symmetry_space_group_name_H-M   Cmm2
_cell_length_a   8.73351828
_cell_length_b   8.73351828
_cell_length_c   24.63160000
_cell_angle_alpha   90.00000000
_cell_angle_beta   90.00000000
_cell_angle_gamma   90.00000000
_symmetry_Int_Tables_number   35
_chemical_formula_structural   LiTiAlPd
_chemical_formula_sum   'Li8 Ti8 Al8 Pd8'
_cell_volume   1878.75907161
_cell_formula_units_Z   8
loop_
 _symmetry_equiv_pos_site_id
 _symmetry_equiv_pos_as_xyz
  1  'x, y, z'
  2  '-x, -y, z'
  3  '-x, y, z'
  4  'x, -y, z'
  5  'x+1/2, y+1/2, z'
  6  '-x+1/2, -y+1/2, z'
  7  '-x+1/2, y+1/2, z'
  8  'x+1/2, -y+1/2, z'
loop_
 _atom_site_type_symbol
 _atom_site_label
 _atom_site_symmetry_multiplicity
 _atom_site_fract_x
 _atom_site_fract_y
 _atom_site_fract_z
 _atom_site_occupancy
  Li  Li0  4  0.00000000  0.24990000  0.11893000  1.0
  Li  Li1  4  0.25000000  0.00000000  0.96866000  1.0
  Ti  Ti2  4  0.25000000  0.25000000  0.90598000  1.0
  Ti  Ti3  2  0.00000000  0.00000000  0.03205000  1.0
  Ti  Ti4  2  0.00000000  0.50000000  0.03208000  1.0
  Al  Al5  4  0.25000000  0.25000000  0.03342000  1.0
  Al  Al6  2  0.00000000  0.00000000  0.90598000  1.0
  Al  Al7  2  0.00000000  0.50000000  0.90598000  1.0
  Pd  Pd8  4  0.00000000  0.25000000  0.96866000  1.0
  Pd  Pd9  4  0.24995000  0.00000000  0.08818000  1.0
