# generated using pymatgen
data_Zr16Rh16CO
_symmetry_space_group_name_H-M   'P 1'
_cell_length_a   9.40485000
_cell_length_b   6.65024000
_cell_length_c   27.05360000
_cell_angle_alpha   90.00000000
_cell_angle_beta   90.00000000
_cell_angle_gamma   90.00000000
_symmetry_Int_Tables_number   1
_chemical_formula_structural   Zr16Rh16CO
_chemical_formula_sum   'Zr16 Rh16 C1 O1'
_cell_volume   1692.05414665
_cell_formula_units_Z   1
loop_
 _symmetry_equiv_pos_site_id
 _symmetry_equiv_pos_as_xyz
  1  'x, y, z'
loop_
 _atom_site_type_symbol
 _atom_site_label
 _atom_site_symmetry_multiplicity
 _atom_site_fract_x
 _atom_site_fract_y
 _atom_site_fract_z
 _atom_site_occupancy
  Zr  Zr0  1  0.25000000  0.25000000  0.13036000  1.0
  Zr  Zr1  1  0.00000000  0.25000000  0.04345000  1.0
  Zr  Zr2  1  0.24873000  0.24991000  0.95735000  1.0
  Zr  Zr3  1  0.00000000  0.25010000  0.86875000  1.0
  Zr  Zr4  1  0.75000000  0.25000000  0.13036000  1.0
  Zr  Zr5  1  0.50000000  0.25000000  0.04345000  1.0
  Zr  Zr6  1  0.75127000  0.24991000  0.95735000  1.0
  Zr  Zr7  1  0.50000000  0.24989000  0.87115000  1.0
  Zr  Zr8  1  0.25000000  0.75000000  0.13036000  1.0
  Zr  Zr9  1  0.00000000  0.75000000  0.04345000  1.0
  Zr  Zr10  1  0.25050000  0.74992000  0.95743000  1.0
  Zr  Zr11  1  0.00000000  0.74997000  0.87080000  1.0
  Zr  Zr12  1  0.75000000  0.75000000  0.13036000  1.0
  Zr  Zr13  1  0.50000000  0.75000000  0.04345000  1.0
  Zr  Zr14  1  0.74950000  0.74992000  0.95743000  1.0
  Zr  Zr15  1  0.50000000  0.74990000  0.87104000  1.0
  Rh  Rh16  1  0.00000000  0.00000000  0.13036000  1.0
  Rh  Rh17  1  0.25000000  1.00000000  0.04345000  1.0
  Rh  Rh18  1  0.00000000  0.99589000  0.95671000  1.0
  Rh  Rh19  1  0.25234000  0.99987000  0.87968000  1.0
  Rh  Rh20  1  0.50000000  1.00000000  0.13036000  1.0
  Rh  Rh21  1  0.75000000  1.00000000  0.04345000  1.0
  Rh  Rh22  1  0.50000000  0.00085000  0.95609000  1.0
  Rh  Rh23  1  0.74766000  0.99987000  0.87968000  1.0
  Rh  Rh24  1  0.00000000  0.50000000  0.13036000  1.0
  Rh  Rh25  1  0.25000000  0.50000000  0.04345000  1.0
  Rh  Rh26  1  0.00000000  0.50391000  0.95665000  1.0
  Rh  Rh27  1  0.25256000  0.49997000  0.87967000  1.0
  Rh  Rh28  1  0.50000000  0.50000000  0.13036000  1.0
  Rh  Rh29  1  0.75000000  0.50000000  0.04345000  1.0
  Rh  Rh30  1  0.50000000  0.49892000  0.95609000  1.0
  Rh  Rh31  1  0.74744000  0.49997000  0.87967000  1.0
  C  C32  1  0.00000000  0.25202000  0.78396000  1.0
  O  O33  1  0.00000000  0.25218000  0.74138000  1.0
