# generated using pymatgen
data_Mg8Sc8In8Pd8C
_symmetry_space_group_name_H-M   'P 1'
_cell_length_a   9.57114000
_cell_length_b   6.76782000
_cell_length_c   27.17840000
_cell_angle_alpha   90.00000000
_cell_angle_beta   90.00000000
_cell_angle_gamma   90.00000000
_symmetry_Int_Tables_number   1
_chemical_formula_structural   Mg8Sc8In8Pd8C
_chemical_formula_sum   'Mg8 Sc8 In8 Pd8 C1'
_cell_volume   1760.50131758
_cell_formula_units_Z   1
loop_
 _symmetry_equiv_pos_site_id
 _symmetry_equiv_pos_as_xyz
  1  'x, y, z'
loop_
 _atom_site_type_symbol
 _atom_site_label
 _atom_site_symmetry_multiplicity
 _atom_site_fract_x
 _atom_site_fract_y
 _atom_site_fract_z
 _atom_site_occupancy
  Mg  Mg0  1  0.75000000  0.25000000  0.04402000  1.0
  Mg  Mg1  1  0.25000000  0.25000000  0.04402000  1.0
  Mg  Mg2  1  0.00000000  0.75000000  0.13206000  1.0
  Mg  Mg3  1  0.50000000  0.75000000  0.13206000  1.0
  Mg  Mg4  1  0.23528000  0.24269000  0.86183000  1.0
  Mg  Mg5  1  0.76472000  0.24269000  0.86183000  1.0
  Mg  Mg6  1  0.50000000  0.74611000  0.95375000  1.0
  Mg  Mg7  1  0.00000000  0.74587000  0.95301000  1.0
  Sc  Sc8  1  0.75000000  0.75000000  0.04402000  1.0
  Sc  Sc9  1  0.25000000  0.75000000  0.04402000  1.0
  Sc  Sc10  1  0.00000000  0.25000000  0.13206000  1.0
  Sc  Sc11  1  0.50000000  0.25000000  0.13206000  1.0
  Sc  Sc12  1  0.26683000  0.73774000  0.87030000  1.0
  Sc  Sc13  1  0.73317000  0.73774000  0.87030000  1.0
  Sc  Sc14  1  0.50000000  0.27333000  0.94800000  1.0
  Sc  Sc15  1  0.00000000  0.27174000  0.94384000  1.0
  In  In16  1  0.75000000  0.00000000  0.13206000  1.0
  In  In17  1  0.25000000  0.00000000  0.13206000  1.0
  In  In18  1  0.50000000  0.50000000  0.04402000  1.0
  In  In19  1  0.00000000  0.50000000  0.04402000  1.0
  In  In20  1  0.25346000  0.00661000  0.95615000  1.0
  In  In21  1  0.74654000  0.00661000  0.95615000  1.0
  In  In22  1  0.00000000  0.53957000  0.83225000  1.0
  In  In23  1  0.50000000  0.46343000  0.84023000  1.0
  Pd  Pd24  1  0.00000000  1.00000000  0.04402000  1.0
  Pd  Pd25  1  0.50000000  1.00000000  0.04402000  1.0
  Pd  Pd26  1  0.25000000  0.50000000  0.13206000  1.0
  Pd  Pd27  1  0.75000000  0.50000000  0.13206000  1.0
  Pd  Pd28  1  0.50000000  0.01761000  0.87512000  1.0
  Pd  Pd29  1  0.00000000  0.93417000  0.86469000  1.0
  Pd  Pd30  1  0.74486000  0.50775000  0.95808000  1.0
  Pd  Pd31  1  0.25514000  0.50775000  0.95808000  1.0
  C  C32  1  0.00000000  0.23822000  0.86574000  1.0
