# generated using pymatgen
data_Li8Y8Cu8Pd8CO
_symmetry_space_group_name_H-M   'P 1'
_cell_length_a   6.67076000
_cell_length_b   9.43388000
_cell_length_c   27.07540000
_cell_angle_alpha   90.00000000
_cell_angle_beta   90.00000000
_cell_angle_gamma   90.00000000
_symmetry_Int_Tables_number   1
_chemical_formula_structural   Li8Y8Cu8Pd8CO
_chemical_formula_sum   'Li8 Y8 Cu8 Pd8 C1 O1'
_cell_volume   1703.88604108
_cell_formula_units_Z   1
loop_
 _symmetry_equiv_pos_site_id
 _symmetry_equiv_pos_as_xyz
  1  'x, y, z'
loop_
 _atom_site_type_symbol
 _atom_site_label
 _atom_site_symmetry_multiplicity
 _atom_site_fract_x
 _atom_site_fract_y
 _atom_site_fract_z
 _atom_site_occupancy
  Li  Li0  1  0.75000000  0.00000000  0.95645000  1.0
  Li  Li1  1  0.75000000  0.50000000  0.95645000  1.0
  Li  Li2  1  0.25000000  0.75000000  0.86934000  1.0
  Li  Li3  1  0.25000000  0.25000000  0.86934000  1.0
  Li  Li4  1  0.75099000  0.47539000  0.13214000  1.0
  Li  Li5  1  0.74999000  0.02563000  0.13096000  1.0
  Li  Li6  1  0.24836000  0.24904000  0.03914000  1.0
  Li  Li7  1  0.24243000  0.75098000  0.04851000  1.0
  Y  Y8  1  0.25000000  0.00000000  0.95645000  1.0
  Y  Y9  1  0.25000000  0.50000000  0.95645000  1.0
  Y  Y10  1  0.75000000  0.75000000  0.86934000  1.0
  Y  Y11  1  0.75000000  0.25000000  0.86934000  1.0
  Y  Y12  1  0.25005000  0.53198000  0.14126000  1.0
  Y  Y13  1  0.24306000  0.97531000  0.14072000  1.0
  Y  Y14  1  0.74443000  0.25041000  0.04290000  1.0
  Y  Y15  1  0.74667000  0.74913000  0.04149000  1.0
  Cu  Cu16  1  0.00000000  0.00000000  0.86934000  1.0
  Cu  Cu17  1  0.00000000  0.50000000  0.86934000  1.0
  Cu  Cu18  1  0.50000000  0.25000000  0.95645000  1.0
  Cu  Cu19  1  0.50000000  0.75000000  0.95645000  1.0
  Cu  Cu20  1  0.02186000  0.49584000  0.05110000  1.0
  Cu  Cu21  1  0.01969000  0.00361000  0.05039000  1.0
  Cu  Cu22  1  0.55355000  0.75266000  0.13418000  1.0
  Cu  Cu23  1  0.44308000  0.25155000  0.11943000  1.0
  Pd  Pd24  1  0.00000000  0.75000000  0.95645000  1.0
  Pd  Pd25  1  0.00000000  0.25000000  0.95645000  1.0
  Pd  Pd26  1  0.50000000  0.50000000  0.86934000  1.0
  Pd  Pd27  1  0.50000000  0.00000000  0.86934000  1.0
  Pd  Pd28  1  0.03538000  0.24924000  0.11949000  1.0
  Pd  Pd29  1  0.95586000  0.75411000  0.12939000  1.0
  Pd  Pd30  1  0.47409000  0.00082000  0.05214000  1.0
  Pd  Pd31  1  0.47722000  0.49938000  0.05111000  1.0
  C  C32  1  0.38435000  0.70224000  0.20013000  1.0
  O  O33  1  0.40811000  0.77512000  0.23550000  1.0
