# generated using pymatgen
data_Li8Y8Cu8Pd8CO
_symmetry_space_group_name_H-M   P1
_cell_length_a   6.67076000
_cell_length_b   9.43388000
_cell_length_c   27.07540000
_cell_angle_alpha   90.00000000
_cell_angle_beta   90.00000000
_cell_angle_gamma   90.00000000
_symmetry_Int_Tables_number   1
_chemical_formula_structural   Li8Y8Cu8Pd8CO
_chemical_formula_sum   'Li8 Y8 Cu8 Pd8 C1 O1'
_cell_volume   1703.88604108
_cell_formula_units_Z   1
loop_
 _symmetry_equiv_pos_site_id
 _symmetry_equiv_pos_as_xyz
  1  'x, y, z'
loop_
 _atom_site_type_symbol
 _atom_site_label
 _atom_site_symmetry_multiplicity
 _atom_site_fract_x
 _atom_site_fract_y
 _atom_site_fract_z
 _atom_site_occupancy
  Li  Li0  1  0.24901000  0.52461000  0.13214000  1.0
  Li  Li1  1  0.25000000  0.00000000  0.95645000  1.0
  Li  Li2  1  0.25000000  0.50000000  0.95645000  1.0
  Li  Li3  1  0.25001000  0.97437000  0.13096000  1.0
  Li  Li4  1  0.75000000  0.25000000  0.86934000  1.0
  Li  Li5  1  0.75000000  0.75000000  0.86934000  1.0
  Li  Li6  1  0.75164000  0.75096000  0.03914000  1.0
  Li  Li7  1  0.75757000  0.24902000  0.04851000  1.0
  Y  Y8  1  0.25000000  0.25000000  0.86934000  1.0
  Y  Y9  1  0.25000000  0.75000000  0.86934000  1.0
  Y  Y10  1  0.25333000  0.25087000  0.04149000  1.0
  Y  Y11  1  0.25557000  0.74959000  0.04290000  1.0
  Y  Y12  1  0.74995000  0.46802000  0.14126000  1.0
  Y  Y13  1  0.75000000  0.00000000  0.95645000  1.0
  Y  Y14  1  0.75000000  0.50000000  0.95645000  1.0
  Y  Y15  1  0.75694000  0.02469000  0.14072000  1.0
  Cu  Cu16  1  0.00000000  0.00000000  0.86934000  1.0
  Cu  Cu17  1  0.00000000  0.50000000  0.86934000  1.0
  Cu  Cu18  1  0.44645000  0.24734000  0.13418000  1.0
  Cu  Cu19  1  0.50000000  0.25000000  0.95645000  1.0
  Cu  Cu20  1  0.50000000  0.75000000  0.95645000  1.0
  Cu  Cu21  1  0.55692000  0.74845000  0.11943000  1.0
  Cu  Cu22  1  0.97814000  0.50416000  0.05110000  1.0
  Cu  Cu23  1  0.98031000  0.99639000  0.05039000  1.0
  Pd  Pd24  1  -0.00000000  0.25000000  0.95645000  1.0
  Pd  Pd25  1  -0.00000000  0.75000000  0.95645000  1.0
  Pd  Pd26  1  0.04414000  0.24589000  0.12939000  1.0
  Pd  Pd27  1  0.50000000  0.00000000  0.86934000  1.0
  Pd  Pd28  1  0.50000000  0.50000000  0.86934000  1.0
  Pd  Pd29  1  0.52278000  0.50062000  0.05111000  1.0
  Pd  Pd30  1  0.52591000  0.99918000  0.05214000  1.0
  Pd  Pd31  1  0.96462000  0.75076000  0.11949000  1.0
  C  C32  1  0.61565000  0.29776000  0.20013000  1.0
  O  O33  1  0.59189000  0.22488000  0.23550000  1.0
