# generated using pymatgen
data_Mn16Sn8W8C
_symmetry_space_group_name_H-M   'P 1'
_cell_length_a   6.10490000
_cell_length_b   8.63363000
_cell_length_c   26.47520000
_cell_angle_alpha   90.00000000
_cell_angle_beta   90.00000000
_cell_angle_gamma   90.00000000
_symmetry_Int_Tables_number   1
_chemical_formula_structural   Mn16Sn8W8C
_chemical_formula_sum   'Mn16 Sn8 W8 C1'
_cell_volume   1395.44022165
_cell_formula_units_Z   1
loop_
 _symmetry_equiv_pos_site_id
 _symmetry_equiv_pos_as_xyz
  1  'x, y, z'
loop_
 _atom_site_type_symbol
 _atom_site_label
 _atom_site_symmetry_multiplicity
 _atom_site_fract_x
 _atom_site_fract_y
 _atom_site_fract_z
 _atom_site_occupancy
  Mn  Mn0  1  0.25000000  0.00000000  0.95924000  1.0
  Mn  Mn1  1  0.75000000  0.50000000  0.95924000  1.0
  Mn  Mn2  1  0.75000000  0.00000000  0.95924000  1.0
  Mn  Mn3  1  0.25000000  0.50000000  0.95924000  1.0
  Mn  Mn4  1  0.75000000  0.75000000  0.87771000  1.0
  Mn  Mn5  1  0.25000000  0.25000000  0.87771000  1.0
  Mn  Mn6  1  0.25000000  0.75000000  0.87771000  1.0
  Mn  Mn7  1  0.75000000  0.25000000  0.87771000  1.0
  Mn  Mn8  1  0.22277000  0.50000000  0.12867000  1.0
  Mn  Mn9  1  0.71495000  0.00000000  0.11749000  1.0
  Mn  Mn10  1  0.77723000  0.50000000  0.12867000  1.0
  Mn  Mn11  1  0.28505000  0.00000000  0.11749000  1.0
  Mn  Mn12  1  0.74530000  0.25083000  0.04477000  1.0
  Mn  Mn13  1  0.25470000  0.74917000  0.04477000  1.0
  Mn  Mn14  1  0.25470000  0.25083000  0.04477000  1.0
  Mn  Mn15  1  0.74530000  0.74917000  0.04477000  1.0
  Sn  Sn16  1  0.00000000  0.00000000  0.87771000  1.0
  Sn  Sn17  1  0.50000000  0.25000000  0.95924000  1.0
  Sn  Sn18  1  0.50000000  0.75000000  0.95924000  1.0
  Sn  Sn19  1  0.00000000  0.50000000  0.87771000  1.0
  Sn  Sn20  1  0.00000000  0.50000000  0.04188000  1.0
  Sn  Sn21  1  0.50000000  0.74149000  0.13938000  1.0
  Sn  Sn22  1  0.50000000  0.25851000  0.13938000  1.0
  Sn  Sn23  1  0.00000000  0.00000000  0.03857000  1.0
  W  W24  1  0.00000000  0.75000000  0.95924000  1.0
  W  W25  1  0.50000000  0.00000000  0.87771000  1.0
  W  W26  1  0.00000000  0.25000000  0.95924000  1.0
  W  W27  1  0.50000000  0.50000000  0.87771000  1.0
  W  W28  1  0.00000000  0.23122000  0.12087000  1.0
  W  W29  1  0.50000000  0.50000000  0.04486000  1.0
  W  W30  1  0.00000000  0.76878000  0.12087000  1.0
  W  W31  1  0.50000000  0.00000000  0.03878000  1.0
  C  C32  1  0.00000000  0.00000000  0.14831000  1.0
