data_image0
_chemical_formula_structural       Y4Ga4Sn4Pd4C
_chemical_formula_sum              "Y4 Ga4 Sn4 Pd4 C1"
_cell_length_a       8.5455
_cell_length_b       6.26088
_cell_length_c       24.6956
_cell_angle_alpha    90
_cell_angle_beta     90
_cell_angle_gamma    90

_space_group_name_H-M_alt    "P 1"
_space_group_IT_number       1

loop_
  _space_group_symop_operation_xyz
  'x, y, z'

loop_
  _atom_site_type_symbol
  _atom_site_label
  _atom_site_symmetry_multiplicity
  _atom_site_fract_x
  _atom_site_fract_y
  _atom_site_fract_z
  _atom_site_occupancy
  Y   Y1        1.0  0.24972  0.73554  0.03687  1.0000
  Y   Y2        1.0  0.25000  0.24505  0.90493  1.0000
  Y   Y3        1.0  0.75134  0.73891  0.04941  1.0000
  Y   Y4        1.0  0.75000  0.24505  0.90493  1.0000
  Ga  Ga1       1.0  0.03185  0.76564  0.14049  1.0000
  Ga  Ga2       1.0  0.00000  0.49670  0.96831  1.0000
  Ga  Ga3       1.0  0.48460  0.78731  0.14017  1.0000
  Ga  Ga4       1.0  0.50000  0.49670  0.96831  1.0000
  Sn  Sn1       1.0  0.24908  0.21795  0.03182  1.0000
  Sn  Sn2       1.0  0.25000  0.74505  0.90493  1.0000
  Sn  Sn3       1.0  0.74233  0.22486  0.02823  1.0000
  Sn  Sn4       1.0  0.75000  0.74505  0.90493  1.0000
  Pd  Pd1       1.0  0.00037  0.43443  0.07331  1.0000
  Pd  Pd2       1.0  0.00000  0.99670  0.96831  1.0000
  Pd  Pd3       1.0  0.49204  0.44441  0.07547  1.0000
  Pd  Pd4       1.0  0.50000  0.99670  0.96831  1.0000
  C   C1        1.0  0.25979  0.75275  0.13109  1.0000
