# generated using pymatgen
data_Y4Ga4Sn4Pd4C
_symmetry_space_group_name_H-M   P1
_cell_length_a   6.26088000
_cell_length_b   8.54550000
_cell_length_c   24.69560000
_cell_angle_alpha   90.00000000
_cell_angle_beta   90.00000000
_cell_angle_gamma   90.00000000
_symmetry_Int_Tables_number   1
_chemical_formula_structural   Y4Ga4Sn4Pd4C
_chemical_formula_sum   'Y4 Ga4 Sn4 Pd4 C1'
_cell_volume   1321.27263565
_cell_formula_units_Z   1
loop_
 _symmetry_equiv_pos_site_id
 _symmetry_equiv_pos_as_xyz
  1  'x, y, z'
loop_
 _atom_site_type_symbol
 _atom_site_label
 _atom_site_symmetry_multiplicity
 _atom_site_fract_x
 _atom_site_fract_y
 _atom_site_fract_z
 _atom_site_occupancy
  Y  Y0  1  0.25583000  0.24842000  0.95993000  1.0
  Y  Y1  1  0.28852000  0.75100000  0.96682000  1.0
  Y  Y2  1  0.75495000  0.25000000  0.09507000  1.0
  Y  Y3  1  0.75495000  0.75000000  0.09507000  1.0
  Ga  Ga4  1  0.12721000  0.52657000  0.87799000  1.0
  Ga  Ga5  1  0.14313000  0.96881000  0.87677000  1.0
  Ga  Ga6  1  0.50330000  -0.00000000  0.03169000  1.0
  Ga  Ga7  1  0.50330000  0.50000000  0.03169000  1.0
  Sn  Sn8  1  0.25495000  0.25000000  0.09507000  1.0
  Sn  Sn9  1  0.25495000  0.75000000  0.09507000  1.0
  Sn  Sn10  1  0.77822000  0.25751000  0.96447000  1.0
  Sn  Sn11  1  0.79712000  0.74510000  0.95531000  1.0
  Pd  Pd12  1  0.00330000  -0.00000000  0.03169000  1.0
  Pd  Pd13  1  0.00330000  0.50000000  0.03169000  1.0
  Pd  Pd14  1  0.52558000  0.49214000  0.92052000  1.0
  Pd  Pd15  1  0.53659000  0.00661000  0.92360000  1.0
  C  C16  1  0.05573000  0.74897000  0.89212000  1.0
