# generated using pymatgen
data_Li8Y8Ge8Pd8CO
_symmetry_space_group_name_H-M   P1
_cell_length_a   6.55453000
_cell_length_b   9.26950000
_cell_length_c   26.95210000
_cell_angle_alpha   90.00000000
_cell_angle_beta   90.00000000
_cell_angle_gamma   90.00000000
_symmetry_Int_Tables_number   1
_chemical_formula_structural   Li8Y8Ge8Pd8CO
_chemical_formula_sum   'Li8 Y8 Ge8 Pd8 C1 O1'
_cell_volume   1637.53455691
_cell_formula_units_Z   1
loop_
 _symmetry_equiv_pos_site_id
 _symmetry_equiv_pos_as_xyz
  1  'x, y, z'
loop_
 _atom_site_type_symbol
 _atom_site_label
 _atom_site_symmetry_multiplicity
 _atom_site_fract_x
 _atom_site_fract_y
 _atom_site_fract_z
 _atom_site_occupancy
  Li  Li0  1  0.21240000  0.75084000  0.05204000  1.0
  Li  Li1  1  0.21872000  0.25303000  0.05019000  1.0
  Li  Li2  1  0.25000000  0.25000000  0.87103000  1.0
  Li  Li3  1  0.25000000  0.75000000  0.87103000  1.0
  Li  Li4  1  0.53532000  0.50558000  0.17543000  1.0
  Li  Li5  1  0.58173000  0.00375000  0.17723000  1.0
  Li  Li6  1  0.75000000  0.00000000  0.95701000  1.0
  Li  Li7  1  0.75000000  0.50000000  0.95701000  1.0
  Y  Y8  1  -0.00000000  0.75000000  0.95701000  1.0
  Y  Y9  1  -0.00000000  0.25000000  0.95701000  1.0
  Y  Y10  1  0.50000000  0.00000000  0.87103000  1.0
  Y  Y11  1  0.50000000  0.50000000  0.87103000  1.0
  Y  Y12  1  0.50207000  0.00002000  0.04798000  1.0
  Y  Y13  1  0.50300000  0.50352000  0.04758000  1.0
  Y  Y14  1  0.93408000  0.25604000  0.13540000  1.0
  Y  Y15  1  0.93524000  0.75416000  0.13608000  1.0
  Ge  Ge16  1  -0.00000000  0.50000000  0.87103000  1.0
  Ge  Ge17  1  0.00000000  0.00000000  0.87103000  1.0
  Ge  Ge18  1  0.46448000  0.75427000  0.12737000  1.0
  Ge  Ge19  1  0.46757000  0.25297000  0.12809000  1.0
  Ge  Ge20  1  0.50000000  0.25000000  0.95701000  1.0
  Ge  Ge21  1  0.50000000  0.75000000  0.95701000  1.0
  Ge  Ge22  1  0.98094000  0.50022000  0.04288000  1.0
  Ge  Ge23  1  0.98792000  0.00161000  0.04075000  1.0
  Pd  Pd24  1  0.20339000  0.51095000  0.12229000  1.0
  Pd  Pd25  1  0.21019000  0.01261000  0.12671000  1.0
  Pd  Pd26  1  0.25000000  0.00000000  0.95701000  1.0
  Pd  Pd27  1  0.25000000  0.50000000  0.95701000  1.0
  Pd  Pd28  1  0.75000000  0.25000000  0.87103000  1.0
  Pd  Pd29  1  0.75000000  0.75000000  0.87103000  1.0
  Pd  Pd30  1  0.75225000  0.24815000  0.04044000  1.0
  Pd  Pd31  1  0.75722000  0.75520000  0.04114000  1.0
  C  C32  1  0.95189000  0.02442000  0.17719000  1.0
  O  O33  1  0.89748000  0.91688000  0.20274000  1.0
