# generated using pymatgen
data_V16Fe16C
_symmetry_space_group_name_H-M   'P 1'
_cell_length_a   5.79956000
_cell_length_b   8.20182000
_cell_length_c   26.15140000
_cell_angle_alpha   90.00000000
_cell_angle_beta   90.00000000
_cell_angle_gamma   90.00000000
_symmetry_Int_Tables_number   1
_chemical_formula_structural   V16Fe16C
_chemical_formula_sum   'V16 Fe16 C1'
_cell_volume   1243.94226299
_cell_formula_units_Z   1
loop_
 _symmetry_equiv_pos_site_id
 _symmetry_equiv_pos_as_xyz
  1  'x, y, z'
loop_
 _atom_site_type_symbol
 _atom_site_label
 _atom_site_symmetry_multiplicity
 _atom_site_fract_x
 _atom_site_fract_y
 _atom_site_fract_z
 _atom_site_occupancy
  V  V0  1  0.00000000  0.00000000  0.88239000  1.0
  V  V1  1  0.00000000  0.75000000  0.96080000  1.0
  V  V2  1  0.00000000  0.00000000  0.04185000  1.0
  V  V3  1  0.00000000  0.76042000  0.12258000  1.0
  V  V4  1  0.00000000  0.50000000  0.88239000  1.0
  V  V5  1  0.00000000  0.25000000  0.96080000  1.0
  V  V6  1  0.00000000  0.50000000  0.04135000  1.0
  V  V7  1  0.00000000  0.23958000  0.12258000  1.0
  V  V8  1  0.50000000  0.00000000  0.88239000  1.0
  V  V9  1  0.50000000  0.75000000  0.96080000  1.0
  V  V10  1  0.50000000  0.00000000  0.03670000  1.0
  V  V11  1  0.50000000  0.74015000  0.11945000  1.0
  V  V12  1  0.50000000  0.50000000  0.88239000  1.0
  V  V13  1  0.50000000  0.25000000  0.96080000  1.0
  V  V14  1  0.50000000  0.50000000  0.03964000  1.0
  V  V15  1  0.50000000  0.25985000  0.11945000  1.0
  Fe  Fe16  1  0.75000000  0.75000000  0.88239000  1.0
  Fe  Fe17  1  0.75000000  0.00000000  0.96080000  1.0
  Fe  Fe18  1  0.75185000  0.75072000  0.04118000  1.0
  Fe  Fe19  1  0.70990000  0.00000000  0.11376000  1.0
  Fe  Fe20  1  0.75000000  0.25000000  0.88239000  1.0
  Fe  Fe21  1  0.75000000  0.50000000  0.96080000  1.0
  Fe  Fe22  1  0.75185000  0.24928000  0.04118000  1.0
  Fe  Fe23  1  0.75946000  0.50000000  0.11438000  1.0
  Fe  Fe24  1  0.25000000  0.75000000  0.88239000  1.0
  Fe  Fe25  1  0.25000000  0.00000000  0.96080000  1.0
  Fe  Fe26  1  0.24815000  0.75072000  0.04118000  1.0
  Fe  Fe27  1  0.29010000  0.00000000  0.11376000  1.0
  Fe  Fe28  1  0.25000000  0.25000000  0.88239000  1.0
  Fe  Fe29  1  0.25000000  0.50000000  0.96080000  1.0
  Fe  Fe30  1  0.24815000  0.24928000  0.04118000  1.0
  Fe  Fe31  1  0.24054000  0.50000000  0.11438000  1.0
  C  C32  1  0.00000000  0.00000000  0.14082000  1.0
