# generated using pymatgen
data_V16Fe16C
_symmetry_space_group_name_H-M   Pmm2
_cell_length_a   5.79956000
_cell_length_b   8.20182000
_cell_length_c   26.15140000
_cell_angle_alpha   90.00000000
_cell_angle_beta   90.00000000
_cell_angle_gamma   90.00000000
_symmetry_Int_Tables_number   25
_chemical_formula_structural   V16Fe16C
_chemical_formula_sum   'V16 Fe16 C1'
_cell_volume   1243.94226299
_cell_formula_units_Z   1
loop_
 _symmetry_equiv_pos_site_id
 _symmetry_equiv_pos_as_xyz
  1  'x, y, z'
  2  '-x, -y, z'
  3  '-x, y, z'
  4  'x, -y, z'
loop_
 _atom_site_type_symbol
 _atom_site_label
 _atom_site_symmetry_multiplicity
 _atom_site_fract_x
 _atom_site_fract_y
 _atom_site_fract_z
 _atom_site_occupancy
  V  V0  2  0.00000000  0.23958000  0.12258000  1.0
  V  V1  2  0.00000000  0.25000000  0.96080000  1.0
  V  V2  2  0.50000000  0.25000000  0.96080000  1.0
  V  V3  2  0.50000000  0.25985000  0.11945000  1.0
  V  V4  1  0.00000000  0.00000000  0.04185000  1.0
  V  V5  1  0.00000000  0.00000000  0.88239000  1.0
  V  V6  1  0.00000000  0.50000000  0.04135000  1.0
  V  V7  1  0.00000000  0.50000000  0.88239000  1.0
  V  V8  1  0.50000000  0.00000000  0.03670000  1.0
  V  V9  1  0.50000000  0.00000000  0.88239000  1.0
  V  V10  1  0.50000000  0.50000000  0.03964000  1.0
  V  V11  1  0.50000000  0.50000000  0.88239000  1.0
  Fe  Fe12  4  0.24815000  0.24928000  0.04118000  1.0
  Fe  Fe13  4  0.25000000  0.25000000  0.88239000  1.0
  Fe  Fe14  2  0.24054000  0.50000000  0.11438000  1.0
  Fe  Fe15  2  0.25000000  0.00000000  0.96080000  1.0
  Fe  Fe16  2  0.25000000  0.50000000  0.96080000  1.0
  Fe  Fe17  2  0.29010000  0.00000000  0.11376000  1.0
  C  C18  1  0.00000000  0.00000000  0.14082000  1.0
