# generated using pymatgen
data_Ni12Sn4C
_symmetry_space_group_name_H-M   'P 1'
_cell_length_a   7.54412000
_cell_length_b   5.33450000
_cell_length_c   24.00090000
_cell_angle_alpha   90.00000000
_cell_angle_beta   90.00000000
_cell_angle_gamma   90.00000000
_symmetry_Int_Tables_number   1
_chemical_formula_structural   Ni12Sn4C
_chemical_formula_sum   'Ni12 Sn4 C1'
_cell_volume   965.89481506
_cell_formula_units_Z   1
loop_
 _symmetry_equiv_pos_site_id
 _symmetry_equiv_pos_as_xyz
  1  'x, y, z'
loop_
 _atom_site_type_symbol
 _atom_site_label
 _atom_site_symmetry_multiplicity
 _atom_site_fract_x
 _atom_site_fract_y
 _atom_site_fract_z
 _atom_site_occupancy
  Ni  Ni0  1  0.74055000  0.50120000  0.08096000  1.0
  Ni  Ni1  1  0.50000000  0.23819000  0.02966000  1.0
  Ni  Ni2  1  0.50000000  0.76144000  0.02953000  1.0
  Ni  Ni3  1  0.75000000  0.00000000  0.97222000  1.0
  Ni  Ni4  1  0.50000000  0.75000000  0.91665000  1.0
  Ni  Ni5  1  0.50000000  0.25000000  0.91665000  1.0
  Ni  Ni6  1  0.25945000  0.50120000  0.08096000  1.0
  Ni  Ni7  1  0.00000000  0.24900000  0.02648000  1.0
  Ni  Ni8  1  0.00000000  0.75133000  0.02638000  1.0
  Ni  Ni9  1  0.25000000  0.00000000  0.97222000  1.0
  Ni  Ni10  1  0.00000000  0.75000000  0.91665000  1.0
  Ni  Ni11  1  0.00000000  0.25000000  0.91665000  1.0
  Sn  Sn12  1  0.77128000  0.00109000  0.08939000  1.0
  Sn  Sn13  1  0.75000000  0.50000000  0.97222000  1.0
  Sn  Sn14  1  0.22872000  0.00109000  0.08939000  1.0
  Sn  Sn15  1  0.25000000  0.50000000  0.97222000  1.0
  C  C16  1  0.50000000  0.50013000  0.08124000  1.0
