# generated using pymatgen
data_Li4Mg4In4Ge4CO
_symmetry_space_group_name_H-M   'P 1'
_cell_length_a   5.94975000
_cell_length_b   8.75068000
_cell_length_c   24.46230000
_cell_angle_alpha   90.00000000
_cell_angle_beta   90.00000000
_cell_angle_gamma   90.00000000
_symmetry_Int_Tables_number   1
_chemical_formula_structural   Li4Mg4In4Ge4CO
_chemical_formula_sum   'Li4 Mg4 In4 Ge4 C1 O1'
_cell_volume   1273.61395278
_cell_formula_units_Z   1
loop_
 _symmetry_equiv_pos_site_id
 _symmetry_equiv_pos_as_xyz
  1  'x, y, z'
loop_
 _atom_site_type_symbol
 _atom_site_label
 _atom_site_symmetry_multiplicity
 _atom_site_fract_x
 _atom_site_fract_y
 _atom_site_fract_z
 _atom_site_occupancy
  Li  Li0  1  0.75025000  0.25000000  0.96960000  1.0
  Li  Li1  1  0.30040000  0.25013000  0.08910000  1.0
  Li  Li2  1  0.75025000  0.75000000  0.96960000  1.0
  Li  Li3  1  0.29800000  0.74989000  0.09247000  1.0
  Mg  Mg4  1  0.50000000  0.00000000  0.90879000  1.0
  Mg  Mg5  1  0.01390000  0.99672000  0.02986000  1.0
  Mg  Mg6  1  0.50000000  0.50000000  0.90879000  1.0
  Mg  Mg7  1  0.01415000  0.50333000  0.02985000  1.0
  In  In8  1  0.25025000  0.25000000  0.96960000  1.0
  In  In9  1  0.77779000  0.25015000  0.09360000  1.0
  In  In10  1  0.25025000  0.75000000  0.96960000  1.0
  In  In11  1  0.78004000  0.74998000  0.10461000  1.0
  Ge  Ge12  1  0.00000000  0.00000000  0.90879000  1.0
  Ge  Ge13  1  0.52628000  0.99306000  0.04535000  1.0
  Ge  Ge14  1  0.00000000  0.50000000  0.90879000  1.0
  Ge  Ge15  1  0.52606000  0.50695000  0.04529000  1.0
  C  C16  1  0.77490000  0.25027000  0.23394000  1.0
  O  O17  1  0.64000000  0.24988000  0.26703000  1.0
