# generated using pymatgen
data_LiScAlPd
_symmetry_space_group_name_H-M   'P 1'
_cell_length_a   6.37868000
_cell_length_b   4.51041000
_cell_length_c   26.76560000
_cell_angle_alpha   90.00000000
_cell_angle_beta   90.00000000
_cell_angle_gamma   90.00000000
_symmetry_Int_Tables_number   1
_chemical_formula_structural   LiScAlPd
_chemical_formula_sum   'Li4 Sc4 Al4 Pd4'
_cell_volume   770.05867928
_cell_formula_units_Z   4
loop_
 _symmetry_equiv_pos_site_id
 _symmetry_equiv_pos_as_xyz
  1  'x, y, z'
loop_
 _atom_site_type_symbol
 _atom_site_label
 _atom_site_symmetry_multiplicity
 _atom_site_fract_x
 _atom_site_fract_y
 _atom_site_fract_z
 _atom_site_occupancy
  Li  Li0  1  0.25000000  0.00000000  0.95787000  1.0
  Li  Li1  1  0.75000000  0.50000000  0.87361000  1.0
  Li  Li2  1  0.40094000  0.00000000  0.17736000  1.0
  Li  Li3  1  0.75395000  0.50000000  0.04218500  1.0
  Sc  Sc4  1  1.00000000  0.50000000  0.95787000  1.0
  Sc  Sc5  1  0.50000000  0.00000000  0.87361000  1.0
  Sc  Sc6  1  0.04665000  0.50000000  0.12375000  1.0
  Sc  Sc7  1  0.48407500  0.00000000  0.04925500  1.0
  Al  Al8  1  1.00000000  0.00000000  0.87361000  1.0
  Al  Al9  1  0.50000000  0.50000000  0.95787000  1.0
  Al  Al10  1  0.00016000  0.00000000  0.04112500  1.0
  Al  Al11  1  0.53916000  0.50000000  0.12756000  1.0
  Pd  Pd12  1  0.75000000  0.00000000  0.95787000  1.0
  Pd  Pd13  1  0.25000000  0.50000000  0.87361000  1.0
  Pd  Pd14  1  0.76907000  0.00000000  0.12028500  1.0
  Pd  Pd15  1  0.25223000  0.50000000  0.03796500  1.0
