# generated using pymatgen
data_Li4Sc4In4Ga4CO
_symmetry_space_group_name_H-M   'P 1'
_cell_length_a   5.87074000
_cell_length_b   8.86716000
_cell_length_c   24.40240000
_cell_angle_alpha   90.00000000
_cell_angle_beta   90.00000000
_cell_angle_gamma   90.00000000
_symmetry_Int_Tables_number   1
_chemical_formula_structural   Li4Sc4In4Ga4CO
_chemical_formula_sum   'Li4 Sc4 In4 Ga4 C1 O1'
_cell_volume   1270.31063422
_cell_formula_units_Z   1
loop_
 _symmetry_equiv_pos_site_id
 _symmetry_equiv_pos_as_xyz
  1  'x, y, z'
loop_
 _atom_site_type_symbol
 _atom_site_label
 _atom_site_symmetry_multiplicity
 _atom_site_fract_x
 _atom_site_fract_y
 _atom_site_fract_z
 _atom_site_occupancy
  Li  Li0  1  0.74572000  0.25000000  0.96993000  1.0
  Li  Li1  1  0.35277000  0.24989000  0.10017000  1.0
  Li  Li2  1  0.74572000  0.75000000  0.96993000  1.0
  Li  Li3  1  0.35593000  0.75012000  0.09161000  1.0
  Sc  Sc4  1  0.50000000  0.00000000  0.90980000  1.0
  Sc  Sc5  1  0.04057000  0.99882000  0.03345000  1.0
  Sc  Sc6  1  0.50000000  0.50000000  0.90980000  1.0
  Sc  Sc7  1  0.04096000  0.50112000  0.03340000  1.0
  In  In8  1  0.24572000  0.25000000  0.96993000  1.0
  In  In9  1  0.84813000  0.25004000  0.09579000  1.0
  In  In10  1  0.24572000  0.75000000  0.96993000  1.0
  In  In11  1  0.84568000  0.74985000  0.09867000  1.0
  Ga  Ga12  1  0.00000000  0.00000000  0.90980000  1.0
  Ga  Ga13  1  0.54768000  0.00234000  0.03359000  1.0
  Ga  Ga14  1  0.00000000  0.50000000  0.90980000  1.0
  Ga  Ga15  1  0.54824000  0.49786000  0.03361000  1.0
  C  C16  1  0.46342000  0.24966000  0.18270000  1.0
  O  O17  1  0.51703000  0.24943000  0.22774000  1.0
