# generated using pymatgen
data_Ga8Fe16Ni8CO
_symmetry_space_group_name_H-M   'P 1'
_cell_length_a   5.81401000
_cell_length_b   8.22225000
_cell_length_c   26.16670000
_cell_angle_alpha   90.00000000
_cell_angle_beta   90.00000000
_cell_angle_gamma   90.00000000
_symmetry_Int_Tables_number   1
_chemical_formula_structural   Ga8Fe16Ni8CO
_chemical_formula_sum   'Ga8 Fe16 Ni8 C1 O1'
_cell_volume   1250.87930421
_cell_formula_units_Z   1
loop_
 _symmetry_equiv_pos_site_id
 _symmetry_equiv_pos_as_xyz
  1  'x, y, z'
loop_
 _atom_site_type_symbol
 _atom_site_label
 _atom_site_symmetry_multiplicity
 _atom_site_fract_x
 _atom_site_fract_y
 _atom_site_fract_z
 _atom_site_occupancy
  Ga  Ga0  1  0.00000000  0.00000000  0.88217000  1.0
  Ga  Ga1  1  0.50000000  0.25000000  0.96072000  1.0
  Ga  Ga2  1  0.50000000  0.75000000  0.96072000  1.0
  Ga  Ga3  1  0.00000000  0.50000000  0.88217000  1.0
  Ga  Ga4  1  0.00000000  0.50372000  0.03976000  1.0
  Ga  Ga5  1  0.49999000  0.75003000  0.14144000  1.0
  Ga  Ga6  1  0.50001000  0.24996000  0.14059000  1.0
  Ga  Ga7  1  0.00000000  0.99629000  0.03978000  1.0
  Fe  Fe8  1  0.25000000  0.00000000  0.96072000  1.0
  Fe  Fe9  1  0.75000000  0.50000000  0.96072000  1.0
  Fe  Fe10  1  0.75000000  0.00000000  0.96072000  1.0
  Fe  Fe11  1  0.25000000  0.50000000  0.96072000  1.0
  Fe  Fe12  1  0.75000000  0.75000000  0.88217000  1.0
  Fe  Fe13  1  0.25000000  0.25000000  0.88217000  1.0
  Fe  Fe14  1  0.25000000  0.75000000  0.88217000  1.0
  Fe  Fe15  1  0.75000000  0.25000000  0.88217000  1.0
  Fe  Fe16  1  0.28002000  0.50319000  0.11441000  1.0
  Fe  Fe17  1  0.71998000  0.99679000  0.11438000  1.0
  Fe  Fe18  1  0.71997000  0.50320000  0.11441000  1.0
  Fe  Fe19  1  0.28000000  0.99680000  0.11438000  1.0
  Fe  Fe20  1  0.73220000  0.24995000  0.04713000  1.0
  Fe  Fe21  1  0.27972000  0.75009000  0.04823000  1.0
  Fe  Fe22  1  0.26779000  0.24995000  0.04713000  1.0
  Fe  Fe23  1  0.72028000  0.75009000  0.04824000  1.0
  Ni  Ni24  1  0.00000000  0.75000000  0.96072000  1.0
  Ni  Ni25  1  0.50000000  0.00000000  0.88217000  1.0
  Ni  Ni26  1  0.00000000  0.25000000  0.96072000  1.0
  Ni  Ni27  1  0.50000000  0.50000000  0.88217000  1.0
  Ni  Ni28  1  0.00000000  0.24994000  0.11406000  1.0
  Ni  Ni29  1  0.50000000  0.49609000  0.02999000  1.0
  Ni  Ni30  1  0.00001000  0.75006000  0.11474000  1.0
  Ni  Ni31  1  0.49999000  0.00388000  0.02999000  1.0
  C  C32  1  0.50009000  0.24997000  0.22489000  1.0
  O  O33  1  0.50001000  0.24999000  0.26852000  1.0
