# generated using pymatgen
data_V8Ga8Co16CO
_symmetry_space_group_name_H-M   'P 1'
_cell_length_a   5.77968000
_cell_length_b   8.17370000
_cell_length_c   26.13030000
_cell_angle_alpha   90.00000000
_cell_angle_beta   90.00000000
_cell_angle_gamma   90.00000000
_symmetry_Int_Tables_number   1
_chemical_formula_structural   V8Ga8Co16CO
_chemical_formula_sum   'V8 Ga8 Co16 C1 O1'
_cell_volume   1234.43118138
_cell_formula_units_Z   1
loop_
 _symmetry_equiv_pos_site_id
 _symmetry_equiv_pos_as_xyz
  1  'x, y, z'
loop_
 _atom_site_type_symbol
 _atom_site_label
 _atom_site_symmetry_multiplicity
 _atom_site_fract_x
 _atom_site_fract_y
 _atom_site_fract_z
 _atom_site_occupancy
  V  V0  1  0.00000000  0.00000000  0.88270000  1.0
  V  V1  1  0.50000000  0.25000000  0.96090000  1.0
  V  V2  1  0.50000000  0.75000000  0.96090000  1.0
  V  V3  1  0.00000000  0.50000000  0.88270000  1.0
  V  V4  1  0.00002000  0.50089000  0.04201000  1.0
  V  V5  1  0.50000000  0.75001000  0.11511000  1.0
  V  V6  1  0.50000000  0.24998000  0.11478000  1.0
  V  V7  1  0.00002000  0.99911000  0.04201000  1.0
  Ga  Ga8  1  0.00000000  0.75000000  0.96090000  1.0
  Ga  Ga9  1  0.50000000  0.00000000  0.88270000  1.0
  Ga  Ga10  1  0.00000000  0.25000000  0.96090000  1.0
  Ga  Ga11  1  0.50000000  0.50000000  0.88270000  1.0
  Ga  Ga12  1  0.00000000  0.25006000  0.12501000  1.0
  Ga  Ga13  1  0.49999000  0.50021000  0.03766000  1.0
  Ga  Ga14  1  0.00000000  0.74993000  0.12653000  1.0
  Ga  Ga15  1  0.49999000  0.99978000  0.03764000  1.0
  Co  Co16  1  0.25000000  0.00000000  0.96090000  1.0
  Co  Co17  1  0.75000000  0.50000000  0.96090000  1.0
  Co  Co18  1  0.75000000  0.00000000  0.96090000  1.0
  Co  Co19  1  0.25000000  0.50000000  0.96090000  1.0
  Co  Co20  1  0.75000000  0.75000000  0.88270000  1.0
  Co  Co21  1  0.25000000  0.25000000  0.88270000  1.0
  Co  Co22  1  0.25000000  0.75000000  0.88270000  1.0
  Co  Co23  1  0.75000000  0.25000000  0.88270000  1.0
  Co  Co24  1  0.25058000  0.50060000  0.11224000  1.0
  Co  Co25  1  0.74946000  0.99939000  0.11225000  1.0
  Co  Co26  1  0.74944000  0.50060000  0.11224000  1.0
  Co  Co27  1  0.25057000  0.99939000  0.11224000  1.0
  Co  Co28  1  0.75175000  0.25003000  0.03958000  1.0
  Co  Co29  1  0.24745000  0.74996000  0.03987000  1.0
  Co  Co30  1  0.24827000  0.25004000  0.03958000  1.0
  Co  Co31  1  0.75258000  0.74996000  0.03987000  1.0
  C  C32  1  0.99978000  0.25004000  0.26797000  1.0
  O  O33  1  0.99998000  0.25000000  0.31141000  1.0
