# generated using pymatgen
data_Mn8Co16Sb8C
_symmetry_space_group_name_H-M   Pmm2
_cell_length_a   6.03986000
_cell_length_b   8.54165000
_cell_length_c   26.40620000
_cell_angle_alpha   90.00000000
_cell_angle_beta   90.00000000
_cell_angle_gamma   90.00000000
_symmetry_Int_Tables_number   25
_chemical_formula_structural   Mn8Co16Sb8C
_chemical_formula_sum   'Mn8 Co16 Sb8 C1'
_cell_volume   1362.30563276
_cell_formula_units_Z   1
loop_
 _symmetry_equiv_pos_site_id
 _symmetry_equiv_pos_as_xyz
  1  'x, y, z'
  2  '-x, -y, z'
  3  '-x, y, z'
  4  'x, -y, z'
loop_
 _atom_site_type_symbol
 _atom_site_label
 _atom_site_symmetry_multiplicity
 _atom_site_fract_x
 _atom_site_fract_y
 _atom_site_fract_z
 _atom_site_occupancy
  Mn  Mn0  2  0.50000000  0.24753000  0.12323000  1.0
  Mn  Mn1  2  0.50000000  0.25000000  0.95957000  1.0
  Mn  Mn2  1  0.00000000  0.00000000  0.03831000  1.0
  Mn  Mn3  1  0.00000000  0.00000000  0.87870000  1.0
  Mn  Mn4  1  0.00000000  0.50000000  0.04055000  1.0
  Mn  Mn5  1  0.00000000  0.50000000  0.87870000  1.0
  Co  Co6  4  0.24536000  0.24707000  0.04191000  1.0
  Co  Co7  4  0.25000000  0.25000000  0.87870000  1.0
  Co  Co8  2  0.22478000  0.00000000  0.11732000  1.0
  Co  Co9  2  0.24988000  0.50000000  0.11629000  1.0
  Co  Co10  2  0.25000000  0.00000000  0.95957000  1.0
  Co  Co11  2  0.25000000  0.50000000  0.95957000  1.0
  Sb  Sb12  2  0.00000000  0.25000000  0.95957000  1.0
  Sb  Sb13  2  0.00000000  0.25616000  0.12985000  1.0
  Sb  Sb14  1  0.50000000  0.00000000  0.03860000  1.0
  Sb  Sb15  1  0.50000000  0.00000000  0.87870000  1.0
  Sb  Sb16  1  0.50000000  0.50000000  0.04020000  1.0
  Sb  Sb17  1  0.50000000  0.50000000  0.87870000  1.0
  C  C18  1  0.50000000  0.00000000  0.13903000  1.0
