# generated using pymatgen
data_LiMnSbPd
_symmetry_space_group_name_H-M   Pm
_cell_length_a   6.44934000
_cell_length_b   4.56037000
_cell_length_c   26.84060000
_cell_angle_alpha   90.00000000
_cell_angle_beta   90.00000000
_cell_angle_gamma   90.00000000
_symmetry_Int_Tables_number   6
_chemical_formula_structural   LiMnSbPd
_chemical_formula_sum   'Li4 Mn4 Sb4 Pd4'
_cell_volume   789.41899627
_cell_formula_units_Z   4
loop_
 _symmetry_equiv_pos_site_id
 _symmetry_equiv_pos_as_xyz
  1  'x, y, z'
  2  'x, -y, z'
loop_
 _atom_site_type_symbol
 _atom_site_label
 _atom_site_symmetry_multiplicity
 _atom_site_fract_x
 _atom_site_fract_y
 _atom_site_fract_z
 _atom_site_occupancy
  Li  Li0  1  0.00000000  0.00000000  0.12743000  1.0
  Li  Li1  1  0.01244500  0.00000000  0.95840000  1.0
  Li  Li2  1  0.50000000  0.50000000  0.04248000  1.0
  Li  Li3  1  0.51186000  0.50000000  0.86258000  1.0
  Mn  Mn4  1  0.00000000  0.50000000  0.04248000  1.0
  Mn  Mn5  1  0.01329500  0.50000000  0.87364000  1.0
  Mn  Mn6  1  0.48945500  0.00000000  0.95443000  1.0
  Mn  Mn7  1  0.50000000  0.00000000  0.12743000  1.0
  Sb  Sb8  1  0.24826000  0.00000000  0.86577000  1.0
  Sb  Sb9  1  0.25000000  0.00000000  0.04248000  1.0
  Sb  Sb10  1  0.74151000  0.50000000  0.95511000  1.0
  Sb  Sb11  1  0.75000000  0.50000000  0.12743000  1.0
  Pd  Pd12  1  0.25000000  0.50000000  0.12743000  1.0
  Pd  Pd13  1  0.26043000  0.50000000  0.95861000  1.0
  Pd  Pd14  1  0.75000000  0.00000000  0.04248000  1.0
  Pd  Pd15  1  0.77982000  0.00000000  0.88244000  1.0
