# generated using pymatgen
data_LiAlGePd
_symmetry_space_group_name_H-M   'P 1'
_cell_length_a   5.69495000
_cell_length_b   3.71473000
_cell_length_c   24.27100000
_cell_angle_alpha   90.00000000
_cell_angle_beta   90.00000000
_cell_angle_gamma   90.00000000
_symmetry_Int_Tables_number   1
_chemical_formula_structural   LiAlGePd
_chemical_formula_sum   'Li2 Al2 Ge2 Pd2'
_cell_volume   513.45789836
_cell_formula_units_Z   2
loop_
 _symmetry_equiv_pos_site_id
 _symmetry_equiv_pos_as_xyz
  1  'x, y, z'
loop_
 _atom_site_type_symbol
 _atom_site_label
 _atom_site_symmetry_multiplicity
 _atom_site_fract_x
 _atom_site_fract_y
 _atom_site_fract_z
 _atom_site_occupancy
  Li  Li0  1  0.50000000  0.00000000  0.08799000  1.0
  Li  Li1  1  0.99464500  0.00000000  0.96785500  1.0
  Al  Al2  1  0.00000000  0.00000000  0.08799000  1.0
  Al  Al3  1  0.48293000  0.00000000  0.96600000  1.0
  Ge  Ge4  1  0.74736000  0.50000000  0.02933000  1.0
  Ge  Ge5  1  0.24109000  0.50000000  0.91043000  1.0
  Pd  Pd6  1  0.24736000  0.50000000  0.02933000  1.0
  Pd  Pd7  1  0.72504000  0.50000000  0.91931000  1.0
