# generated using pymatgen
data_Li8Cu8Sn8Ge8CO
_symmetry_space_group_name_H-M   Pm
_cell_length_a   6.57410000
_cell_length_b   9.29718000
_cell_length_c   26.97290000
_cell_angle_alpha   90.00000000
_cell_angle_beta   90.00000000
_cell_angle_gamma   90.00000000
_symmetry_Int_Tables_number   6
_chemical_formula_structural   Li8Cu8Sn8Ge8CO
_chemical_formula_sum   'Li8 Cu8 Sn8 Ge8 C1 O1'
_cell_volume   1648.59959001
_cell_formula_units_Z   1
loop_
 _symmetry_equiv_pos_site_id
 _symmetry_equiv_pos_as_xyz
  1  'x, y, z'
  2  'x, -y, z'
loop_
 _atom_site_type_symbol
 _atom_site_label
 _atom_site_symmetry_multiplicity
 _atom_site_fract_x
 _atom_site_fract_y
 _atom_site_fract_z
 _atom_site_occupancy
  Li  Li0  2  0.50000000  0.25000000  0.87074000  1.0
  Li  Li1  2  0.52082000  0.25190000  0.04350000  1.0
  Li  Li2  1  -0.00000000  0.50000000  0.95691000  1.0
  Li  Li3  1  -0.00000000  0.00000000  0.95691000  1.0
  Li  Li4  1  0.03086000  0.00000000  0.14305000  1.0
  Li  Li5  1  0.04906000  0.50000000  0.15108000  1.0
  Cu  Cu6  2  0.00000000  0.25000000  0.87074000  1.0
  Cu  Cu7  2  0.97765000  0.24958000  0.05001000  1.0
  Cu  Cu8  1  0.48456000  0.50000000  0.12283000  1.0
  Cu  Cu9  1  0.48893000  0.00000000  0.12826000  1.0
  Cu  Cu10  1  0.50000000  0.00000000  0.95691000  1.0
  Cu  Cu11  1  0.50000000  0.50000000  0.95691000  1.0
  Sn  Sn12  2  0.73790000  0.26473000  0.13949000  1.0
  Sn  Sn13  2  0.75000000  0.25000000  0.95691000  1.0
  Sn  Sn14  1  0.23338000  0.50000000  0.04324000  1.0
  Sn  Sn15  1  0.24185000  0.00000000  0.04612000  1.0
  Sn  Sn16  1  0.25000000  0.00000000  0.87074000  1.0
  Sn  Sn17  1  0.25000000  0.50000000  0.87074000  1.0
  Ge  Ge18  2  0.25000000  0.25000000  0.95691000  1.0
  Ge  Ge19  2  0.27879000  0.26379000  0.12658000  1.0
  Ge  Ge20  1  0.75000000  0.00000000  0.87074000  1.0
  Ge  Ge21  1  0.75000000  0.50000000  0.87074000  1.0
  Ge  Ge22  1  0.76815000  0.00000000  0.05540000  1.0
  Ge  Ge23  1  0.77343000  0.50000000  0.05323000  1.0
  C  C24  1  0.47994000  0.00000000  0.19782000  1.0
  O  O25  1  0.47776000  0.00000000  0.24076000  1.0
