# generated using pymatgen
data_Li8In8Cu8Ag8CO
_symmetry_space_group_name_H-M   'P 1'
_cell_length_a   9.06224000
_cell_length_b   6.40797000
_cell_length_c   26.79670000
_cell_angle_alpha   90.00000000
_cell_angle_beta   90.00000000
_cell_angle_gamma   90.00000000
_symmetry_Int_Tables_number   1
_chemical_formula_structural   Li8In8Cu8Ag8CO
_chemical_formula_sum   'Li8 In8 Cu8 Ag8 C1 O1'
_cell_volume   1556.09943016
_cell_formula_units_Z   1
loop_
 _symmetry_equiv_pos_site_id
 _symmetry_equiv_pos_as_xyz
  1  'x, y, z'
loop_
 _atom_site_type_symbol
 _atom_site_label
 _atom_site_symmetry_multiplicity
 _atom_site_fract_x
 _atom_site_fract_y
 _atom_site_fract_z
 _atom_site_occupancy
  Li  Li0  1  0.00000000  0.75000000  0.04227000  1.0
  Li  Li1  1  0.50000000  0.75000000  0.04227000  1.0
  Li  Li2  1  0.25000000  0.25000000  0.12682000  1.0
  Li  Li3  1  0.75000000  0.25000000  0.12682000  1.0
  Li  Li4  1  0.50000000  0.72472000  0.85635000  1.0
  Li  Li5  1  0.00000000  0.73977000  0.86331000  1.0
  Li  Li6  1  0.74938000  0.24043000  0.95572000  1.0
  Li  Li7  1  0.25062000  0.24043000  0.95572000  1.0
  In  In8  1  0.25000000  0.00000000  0.04227000  1.0
  In  In9  1  0.75000000  0.00000000  0.04227000  1.0
  In  In10  1  0.50000000  0.50000000  0.12682000  1.0
  In  In11  1  0.00000000  0.50000000  0.12682000  1.0
  In  In12  1  0.74219000  0.99446000  0.86584000  1.0
  In  In13  1  0.25781000  0.99446000  0.86584000  1.0
  In  In14  1  0.00000000  0.50107000  0.95563000  1.0
  In  In15  1  0.50000000  0.50831000  0.95640000  1.0
  Cu  Cu16  1  0.00000000  0.25000000  0.04227000  1.0
  Cu  Cu17  1  0.50000000  0.25000000  0.04227000  1.0
  Cu  Cu18  1  0.25000000  0.75000000  0.12682000  1.0
  Cu  Cu19  1  0.75000000  0.75000000  0.12682000  1.0
  Cu  Cu20  1  0.50000000  0.23828000  0.87666000  1.0
  Cu  Cu21  1  0.00000000  0.24183000  0.87052000  1.0
  Cu  Cu22  1  0.75321000  0.75275000  0.95802000  1.0
  Cu  Cu23  1  0.24679000  0.75275000  0.95802000  1.0
  Ag  Ag24  1  0.00000000  0.00000000  0.12682000  1.0
  Ag  Ag25  1  0.50000000  1.00000000  0.12682000  1.0
  Ag  Ag26  1  0.75000000  0.50000000  0.04227000  1.0
  Ag  Ag27  1  0.25000000  0.50000000  0.04227000  1.0
  Ag  Ag28  1  0.50000000  0.98812000  0.95852000  1.0
  Ag  Ag29  1  0.00000000  0.99980000  0.95321000  1.0
  Ag  Ag30  1  0.25514000  0.49596000  0.87504000  1.0
  Ag  Ag31  1  0.74486000  0.49596000  0.87504000  1.0
  C  C32  1  0.00000000  0.29429000  0.80207000  1.0
  O  O33  1  0.00000000  0.31163000  0.75918000  1.0
