# generated using pymatgen
data_Li8In8Cu8Ag8CO
_symmetry_space_group_name_H-M   Pm
_cell_length_a   6.40797000
_cell_length_b   9.06224000
_cell_length_c   26.79670000
_cell_angle_alpha   90.00000000
_cell_angle_beta   90.00000000
_cell_angle_gamma   90.00000000
_symmetry_Int_Tables_number   6
_chemical_formula_structural   Li8In8Cu8Ag8CO
_chemical_formula_sum   'Li8 In8 Cu8 Ag8 C1 O1'
_cell_volume   1556.09943016
_cell_formula_units_Z   1
loop_
 _symmetry_equiv_pos_site_id
 _symmetry_equiv_pos_as_xyz
  1  'x, y, z'
  2  'x, -y, z'
loop_
 _atom_site_type_symbol
 _atom_site_label
 _atom_site_symmetry_multiplicity
 _atom_site_fract_x
 _atom_site_fract_y
 _atom_site_fract_z
 _atom_site_occupancy
  Li  Li0  2  0.24043000  0.25062000  0.04428000  1.0
  Li  Li1  2  0.25000000  0.25000000  0.87318000  1.0
  Li  Li2  1  0.72472000  0.50000000  0.14365000  1.0
  Li  Li3  1  0.73977000  0.00000000  0.13669000  1.0
  Li  Li4  1  0.75000000  0.00000000  0.95773000  1.0
  Li  Li5  1  0.75000000  0.50000000  0.95773000  1.0
  In  In6  2  0.00000000  0.25000000  0.95773000  1.0
  In  In7  2  0.99446000  0.25781000  0.13416000  1.0
  In  In8  1  0.50000000  0.00000000  0.87318000  1.0
  In  In9  1  0.50000000  0.50000000  0.87318000  1.0
  In  In10  1  0.50107000  0.00000000  0.04437000  1.0
  In  In11  1  0.50831000  0.50000000  0.04360000  1.0
  Cu  Cu12  2  0.75000000  0.25000000  0.87318000  1.0
  Cu  Cu13  2  0.75275000  0.24679000  0.04198000  1.0
  Cu  Cu14  1  0.23828000  0.50000000  0.12334000  1.0
  Cu  Cu15  1  0.24183000  0.00000000  0.12948000  1.0
  Cu  Cu16  1  0.25000000  0.00000000  0.95773000  1.0
  Cu  Cu17  1  0.25000000  0.50000000  0.95773000  1.0
  Ag  Ag18  2  0.49596000  0.25514000  0.12496000  1.0
  Ag  Ag19  2  0.50000000  0.25000000  0.95773000  1.0
  Ag  Ag20  1  -0.00000000  0.50000000  0.87318000  1.0
  Ag  Ag21  1  0.00000000  0.00000000  0.87318000  1.0
  Ag  Ag22  1  0.98812000  0.50000000  0.04148000  1.0
  Ag  Ag23  1  0.99980000  0.00000000  0.04679000  1.0
  C  C24  1  0.29429000  0.00000000  0.19793000  1.0
  O  O25  1  0.31163000  0.00000000  0.24082000  1.0
