# generated using pymatgen
data_Zn4Ni8Ge4C
_symmetry_space_group_name_H-M   'P 1'
_cell_length_a   5.89777000
_cell_length_b   5.89777000
_cell_length_c   24.42330000
_cell_angle_alpha   90.00000000
_cell_angle_beta   90.00000000
_cell_angle_gamma   90.00000000
_symmetry_Int_Tables_number   1
_chemical_formula_structural   Zn4Ni8Ge4C
_chemical_formula_sum   'Zn4 Ni8 Ge4 C1'
_cell_volume   849.53251974
_cell_formula_units_Z   1
loop_
 _symmetry_equiv_pos_site_id
 _symmetry_equiv_pos_as_xyz
  1  'x, y, z'
loop_
 _atom_site_type_symbol
 _atom_site_label
 _atom_site_symmetry_multiplicity
 _atom_site_fract_x
 _atom_site_fract_y
 _atom_site_fract_z
 _atom_site_occupancy
  Zn  Zn0  1  0.00000000  0.00000000  0.90944000  1.0
  Zn  Zn1  1  0.50000000  0.50000000  0.90944000  1.0
  Zn  Zn2  1  0.50000000  0.00006000  0.03900000  1.0
  Zn  Zn3  1  0.00002000  0.50003000  0.01978000  1.0
  Ni  Ni4  1  0.25000000  0.25000000  0.96981000  1.0
  Ni  Ni5  1  0.78041000  0.71971000  0.08974000  1.0
  Ni  Ni6  1  0.75000000  0.25000000  0.96981000  1.0
  Ni  Ni7  1  0.21997000  0.71981000  0.08983000  1.0
  Ni  Ni8  1  0.75000000  0.75000000  0.96981000  1.0
  Ni  Ni9  1  0.21959000  0.28029000  0.08985000  1.0
  Ni  Ni10  1  0.25000000  0.75000000  0.96981000  1.0
  Ni  Ni11  1  0.78031000  0.28025000  0.08979000  1.0
  Ge  Ge12  1  0.00010000  0.00000000  0.03680000  1.0
  Ge  Ge13  1  0.50000000  0.00000000  0.90944000  1.0
  Ge  Ge14  1  0.00000000  0.50000000  0.90944000  1.0
  Ge  Ge15  1  0.50006000  0.49992000  0.03681000  1.0
  C  C16  1  0.00005000  0.49999000  0.10971000  1.0
