data_image0
_chemical_formula_structural       Li8Mg8Ge8Au8CO
_chemical_formula_sum              "Li8 Mg8 Ge8 Au8 C1 O1"
_cell_length_a       6.50951
_cell_length_b       9.20584
_cell_length_c       26.9044
_cell_angle_alpha    90
_cell_angle_beta     90
_cell_angle_gamma    90

_space_group_name_H-M_alt    "P 1"
_space_group_IT_number       1

loop_
  _space_group_symop_operation_xyz
  'x, y, z'

loop_
  _atom_site_type_symbol
  _atom_site_label
  _atom_site_symmetry_multiplicity
  _atom_site_fract_x
  _atom_site_fract_y
  _atom_site_fract_z
  _atom_site_occupancy
  Li  Li1       1.0  0.75000  0.00000  0.95723  1.0000
  Li  Li2       1.0  0.75000  0.50000  0.95723  1.0000
  Li  Li3       1.0  0.25000  0.25000  0.87169  1.0000
  Li  Li4       1.0  0.25000  0.75000  0.87169  1.0000
  Li  Li5       1.0  0.76255  0.47547  0.13713  1.0000
  Li  Li6       1.0  0.76266  0.02445  0.13715  1.0000
  Li  Li7       1.0  0.25495  0.74991  0.04626  1.0000
  Li  Li8       1.0  0.23675  0.25003  0.03825  1.0000
  Mg  Mg1       1.0  0.25000  0.00000  0.95723  1.0000
  Mg  Mg2       1.0  0.25000  0.50000  0.95723  1.0000
  Mg  Mg3       1.0  0.75000  0.25000  0.87169  1.0000
  Mg  Mg4       1.0  0.75000  0.75000  0.87169  1.0000
  Mg  Mg5       1.0  0.23206  0.51928  0.13746  1.0000
  Mg  Mg6       1.0  0.23194  0.98010  0.13758  1.0000
  Mg  Mg7       1.0  0.74482  0.75020  0.04130  1.0000
  Mg  Mg8       1.0  0.75638  0.24970  0.04474  1.0000
  Ge  Ge1       1.0  0.00000  0.25000  0.95723  1.0000
  Ge  Ge2       1.0  0.00000  0.75000  0.95723  1.0000
  Ge  Ge3       1.0  0.50000  0.50000  0.87169  1.0000
  Ge  Ge4       1.0  0.50000  0.00000  0.87169  1.0000
  Ge  Ge5       1.0  0.95103  0.74968  0.13532  1.0000
  Ge  Ge6       1.0  0.04920  0.24985  0.16314  1.0000
  Ge  Ge7       1.0  0.49476  0.00714  0.05361  1.0000
  Ge  Ge8       1.0  0.49528  0.49263  0.05351  1.0000
  Au  Au1       1.0  0.00000  0.00000  0.87169  1.0000
  Au  Au2       1.0  0.00000  0.50000  0.87169  1.0000
  Au  Au3       1.0  0.50000  0.75000  0.95723  1.0000
  Au  Au4       1.0  0.50000  0.25000  0.95723  1.0000
  Au  Au5       1.0  0.00128  0.50512  0.04471  1.0000
  Au  Au6       1.0  0.00205  0.99491  0.04473  1.0000
  Au  Au7       1.0  0.44968  0.24977  0.12097  1.0000
  Au  Au8       1.0  0.52675  0.74985  0.12802  1.0000
  C   C1        1.0  0.10086  0.25004  0.23454  1.0000
  O   O1        1.0  0.11987  0.25019  0.27749  1.0000
