# generated using pymatgen
data_Li8Mg8Ge8Au8CO
_symmetry_space_group_name_H-M   'P 1'
_cell_length_a   6.50951000
_cell_length_b   9.20584000
_cell_length_c   26.90440000
_cell_angle_alpha   90.00000000
_cell_angle_beta   90.00000000
_cell_angle_gamma   90.00000000
_symmetry_Int_Tables_number   1
_chemical_formula_structural   Li8Mg8Ge8Au8CO
_chemical_formula_sum   'Li8 Mg8 Ge8 Au8 C1 O1'
_cell_volume   1612.25982502
_cell_formula_units_Z   1
loop_
 _symmetry_equiv_pos_site_id
 _symmetry_equiv_pos_as_xyz
  1  'x, y, z'
loop_
 _atom_site_type_symbol
 _atom_site_label
 _atom_site_symmetry_multiplicity
 _atom_site_fract_x
 _atom_site_fract_y
 _atom_site_fract_z
 _atom_site_occupancy
  Li  Li0  1  0.25000000  0.00000000  0.95723000  1.0
  Li  Li1  1  0.25000000  0.50000000  0.95723000  1.0
  Li  Li2  1  0.75000000  0.75000000  0.87169000  1.0
  Li  Li3  1  0.75000000  0.25000000  0.87169000  1.0
  Li  Li4  1  0.23745000  0.52453000  0.13713000  1.0
  Li  Li5  1  0.23734000  0.97555000  0.13715000  1.0
  Li  Li6  1  0.74505000  0.25009000  0.04626000  1.0
  Li  Li7  1  0.76325000  0.74997000  0.03825000  1.0
  Mg  Mg8  1  0.75000000  0.00000000  0.95723000  1.0
  Mg  Mg9  1  0.75000000  0.50000000  0.95723000  1.0
  Mg  Mg10  1  0.25000000  0.75000000  0.87169000  1.0
  Mg  Mg11  1  0.25000000  0.25000000  0.87169000  1.0
  Mg  Mg12  1  0.76794000  0.48072000  0.13746000  1.0
  Mg  Mg13  1  0.76806000  0.01990000  0.13758000  1.0
  Mg  Mg14  1  0.25518000  0.24980000  0.04130000  1.0
  Mg  Mg15  1  0.24362000  0.75030000  0.04474000  1.0
  Ge  Ge16  1  0.00000000  0.75000000  0.95723000  1.0
  Ge  Ge17  1  0.00000000  0.25000000  0.95723000  1.0
  Ge  Ge18  1  0.50000000  0.50000000  0.87169000  1.0
  Ge  Ge19  1  0.50000000  0.00000000  0.87169000  1.0
  Ge  Ge20  1  0.04897000  0.25032000  0.13532000  1.0
  Ge  Ge21  1  0.95080000  0.75015000  0.16314000  1.0
  Ge  Ge22  1  0.50524000  0.99286000  0.05361000  1.0
  Ge  Ge23  1  0.50472000  0.50737000  0.05351000  1.0
  Au  Au24  1  0.00000000  0.00000000  0.87169000  1.0
  Au  Au25  1  0.00000000  0.50000000  0.87169000  1.0
  Au  Au26  1  0.50000000  0.25000000  0.95723000  1.0
  Au  Au27  1  0.50000000  0.75000000  0.95723000  1.0
  Au  Au28  1  0.99872000  0.49488000  0.04471000  1.0
  Au  Au29  1  0.99795000  0.00509000  0.04473000  1.0
  Au  Au30  1  0.55032000  0.75023000  0.12097000  1.0
  Au  Au31  1  0.47325000  0.25015000  0.12802000  1.0
  C  C32  1  0.89914000  0.74996000  0.23454000  1.0
  O  O33  1  0.88013000  0.74981000  0.27749000  1.0
