# generated using pymatgen
data_Sb32CO
_symmetry_space_group_name_H-M   P1
_cell_length_a   9.64260000
_cell_length_b   9.64260000
_cell_length_c   27.23200000
_cell_angle_alpha   90.00000000
_cell_angle_beta   90.00000000
_cell_angle_gamma   90.00000000
_symmetry_Int_Tables_number   1
_chemical_formula_structural   Sb32CO
_chemical_formula_sum   'Sb32 C1 O1'
_cell_volume   2532.02413698
_cell_formula_units_Z   1
loop_
 _symmetry_equiv_pos_site_id
 _symmetry_equiv_pos_as_xyz
  1  'x, y, z'
loop_
 _atom_site_type_symbol
 _atom_site_label
 _atom_site_symmetry_multiplicity
 _atom_site_fract_x
 _atom_site_fract_y
 _atom_site_fract_z
 _atom_site_occupancy
  Sb  Sb0  1  0.00000000  0.00000000  0.86722000  1.0
  Sb  Sb1  1  0.00000000  0.50000000  0.86722000  1.0
  Sb  Sb2  1  0.00000000  0.25000000  0.95574000  1.0
  Sb  Sb3  1  0.00000000  0.75000000  0.95574000  1.0
  Sb  Sb4  1  0.06898000  0.70549000  0.14209000  1.0
  Sb  Sb5  1  0.12331000  0.29387000  0.17997000  1.0
  Sb  Sb6  1  0.25000000  0.00000000  0.95574000  1.0
  Sb  Sb7  1  0.25000000  0.25000000  0.86722000  1.0
  Sb  Sb8  1  0.25000000  0.50000000  0.95574000  1.0
  Sb  Sb9  1  0.25000000  0.75000000  0.86722000  1.0
  Sb  Sb10  1  0.25941000  0.75070000  0.02777000  1.0
  Sb  Sb11  1  0.28627000  0.30877000  0.03849000  1.0
  Sb  Sb12  1  0.29391000  0.54422000  0.18608000  1.0
  Sb  Sb13  1  0.33553000  0.09283000  0.13115000  1.0
  Sb  Sb14  1  0.44848000  0.51103000  0.09424000  1.0
  Sb  Sb15  1  0.50000000  0.00000000  0.86722000  1.0
  Sb  Sb16  1  0.50000000  0.25000000  0.95574000  1.0
  Sb  Sb17  1  0.50000000  0.50000000  0.86722000  1.0
  Sb  Sb18  1  0.50000000  0.75000000  0.95574000  1.0
  Sb  Sb19  1  0.51487000  0.89616000  0.19363000  1.0
  Sb  Sb20  1  0.53983000  0.00851000  0.03565000  1.0
  Sb  Sb21  1  0.54854000  0.29012000  0.15882000  1.0
  Sb  Sb22  1  0.68232000  0.76479000  0.11732000  1.0
  Sb  Sb23  1  0.74761000  0.17618000  0.08983000  1.0
  Sb  Sb24  1  0.75000000  0.00000000  0.95574000  1.0
  Sb  Sb25  1  0.75000000  0.25000000  0.86722000  1.0
  Sb  Sb26  1  0.75000000  0.50000000  0.95574000  1.0
  Sb  Sb27  1  0.75000000  0.75000000  0.86722000  1.0
  Sb  Sb28  1  0.79634000  0.99410000  0.17356000  1.0
  Sb  Sb29  1  0.82982000  0.56353000  0.18247000  1.0
  Sb  Sb30  1  0.97626000  0.43846000  0.09938000  1.0
  Sb  Sb31  1  0.99866000  0.00458000  0.02715000  1.0
  C  C32  1  0.19398000  0.96552000  0.27979000  1.0
  O  O33  1  0.23511000  0.02622000  0.31234000  1.0
