# generated using pymatgen
data_Li8Y8Pd8Pb8C
_symmetry_space_group_name_H-M   'P 1'
_cell_length_a   9.74510000
_cell_length_b   6.89083000
_cell_length_c   27.30880000
_cell_angle_alpha   90.00000000
_cell_angle_beta   90.00000000
_cell_angle_gamma   90.00000000
_symmetry_Int_Tables_number   1
_chemical_formula_structural   Li8Y8Pd8Pb8C
_chemical_formula_sum   'Li8 Y8 Pd8 Pb8 C1'
_cell_volume   1833.83582500
_cell_formula_units_Z   1
loop_
 _symmetry_equiv_pos_site_id
 _symmetry_equiv_pos_as_xyz
  1  'x, y, z'
loop_
 _atom_site_type_symbol
 _atom_site_label
 _atom_site_symmetry_multiplicity
 _atom_site_fract_x
 _atom_site_fract_y
 _atom_site_fract_z
 _atom_site_occupancy
  Li  Li0  1  0.75000000  0.00000000  0.13382000  1.0
  Li  Li1  1  0.25000000  0.00000000  0.13382000  1.0
  Li  Li2  1  0.50000000  0.50000000  0.04461000  1.0
  Li  Li3  1  0.00000000  0.50000000  0.04461000  1.0
  Li  Li4  1  0.25465000  0.99761000  0.95008000  1.0
  Li  Li5  1  0.74535000  0.99761000  0.95008000  1.0
  Li  Li6  1  0.00000000  0.41224000  0.83325000  1.0
  Li  Li7  1  0.50000000  0.29897000  0.81409000  1.0
  Y  Y8  1  0.75000000  0.75000000  0.04461000  1.0
  Y  Y9  1  0.25000000  0.75000000  0.04461000  1.0
  Y  Y10  1  0.00000000  0.25000000  0.13382000  1.0
  Y  Y11  1  0.50000000  0.25000000  0.13382000  1.0
  Y  Y12  1  0.23621000  0.71332000  0.86390000  1.0
  Y  Y13  1  0.76379000  0.71332000  0.86390000  1.0
  Y  Y14  1  0.50000000  0.26279000  0.94961000  1.0
  Y  Y15  1  0.00000000  0.26484000  0.94851000  1.0
  Pd  Pd16  1  0.00000000  0.00000000  0.04461000  1.0
  Pd  Pd17  1  0.50000000  0.00000000  0.04461000  1.0
  Pd  Pd18  1  0.25000000  0.50000000  0.13382000  1.0
  Pd  Pd19  1  0.75000000  0.50000000  0.13382000  1.0
  Pd  Pd20  1  0.50000000  0.99094000  0.87434000  1.0
  Pd  Pd21  1  0.00000000  0.00857000  0.86725000  1.0
  Pd  Pd22  1  0.74902000  0.49997000  0.95722000  1.0
  Pd  Pd23  1  0.25098000  0.49997000  0.95722000  1.0
  Pb  Pb24  1  0.75000000  0.25000000  0.04461000  1.0
  Pb  Pb25  1  0.25000000  0.25000000  0.04461000  1.0
  Pb  Pb26  1  0.00000000  0.75000000  0.13382000  1.0
  Pb  Pb27  1  0.50000000  0.75000000  0.13382000  1.0
  Pb  Pb28  1  0.25018000  0.23435000  0.86128000  1.0
  Pb  Pb29  1  0.74982000  0.23435000  0.86128000  1.0
  Pb  Pb30  1  0.50000000  0.74532000  0.95719000  1.0
  Pb  Pb31  1  0.00000000  0.74745000  0.95574000  1.0
  C  C32  1  0.00000000  0.69584000  0.86076000  1.0
