data_image0
_chemical_formula_structural       Nb3SiNb3SiNb3SiNb3SiNb3SiNb3SiNb3SiNb3SiC
_chemical_formula_sum              "Nb24 Si8 C1"
_cell_length_a       8.14544
_cell_length_b       8.14544
_cell_length_c       26.1091
_cell_angle_alpha    90
_cell_angle_beta     90
_cell_angle_gamma    90

_space_group_name_H-M_alt    "P 1"
_space_group_IT_number       1

loop_
  _space_group_symop_operation_xyz
  'x, y, z'

loop_
  _atom_site_type_symbol
  _atom_site_label
  _atom_site_symmetry_multiplicity
  _atom_site_fract_x
  _atom_site_fract_y
  _atom_site_fract_z
  _atom_site_occupancy
  Nb  Nb1       1.0  0.00000  0.25000  0.03900  1.0000
  Nb  Nb2       1.0  0.25000  0.00000  0.03900  1.0000
  Nb  Nb3       1.0  0.25000  0.25000  0.11699  1.0000
  Si  Si1       1.0  0.00000  0.00000  0.11699  1.0000
  Nb  Nb4       1.0  0.00000  0.25000  0.88301  1.0000
  Nb  Nb5       1.0  0.25000  0.00000  0.88301  1.0000
  Nb  Nb6       1.0  0.25000  0.25000  0.96100  1.0000
  Si  Si2       1.0  0.00000  0.00000  0.96100  1.0000
  Nb  Nb7       1.0  0.00000  0.75000  0.03900  1.0000
  Nb  Nb8       1.0  0.25000  0.50000  0.03900  1.0000
  Nb  Nb9       1.0  0.25000  0.75000  0.11699  1.0000
  Si  Si3       1.0  0.00000  0.50000  0.11699  1.0000
  Nb  Nb10      1.0  0.00000  0.75000  0.88301  1.0000
  Nb  Nb11      1.0  0.25000  0.50000  0.88301  1.0000
  Nb  Nb12      1.0  0.25000  0.75000  0.96100  1.0000
  Si  Si4       1.0  0.00000  0.50000  0.96100  1.0000
  Nb  Nb13      1.0  0.50000  0.25000  0.03900  1.0000
  Nb  Nb14      1.0  0.75000  0.00000  0.03900  1.0000
  Nb  Nb15      1.0  0.75000  0.25000  0.11699  1.0000
  Si  Si5       1.0  0.50000  0.00000  0.11699  1.0000
  Nb  Nb16      1.0  0.50000  0.25000  0.88301  1.0000
  Nb  Nb17      1.0  0.75000  0.00000  0.88301  1.0000
  Nb  Nb18      1.0  0.75000  0.25000  0.96100  1.0000
  Si  Si6       1.0  0.50000  0.00000  0.96100  1.0000
  Nb  Nb19      1.0  0.50000  0.75000  0.03900  1.0000
  Nb  Nb20      1.0  0.75000  0.50000  0.03900  1.0000
  Nb  Nb21      1.0  0.75000  0.75000  0.11699  1.0000
  Si  Si7       1.0  0.50000  0.50000  0.11699  1.0000
  Nb  Nb22      1.0  0.50000  0.75000  0.88301  1.0000
  Nb  Nb23      1.0  0.75000  0.50000  0.88301  1.0000
  Nb  Nb24      1.0  0.75000  0.75000  0.96100  1.0000
  Si  Si8       1.0  0.50000  0.50000  0.96100  1.0000
  C   C1        1.0  0.25000  0.00000  0.14763  1.0000
