# generated using pymatgen
data_Li8Sc8Ge8Pd8C
_symmetry_space_group_name_H-M   'P 1'
_cell_length_a   8.92368000
_cell_length_b   6.30999000
_cell_length_c   26.69280000
_cell_angle_alpha   90.00000000
_cell_angle_beta   90.00000000
_cell_angle_gamma   90.00000000
_symmetry_Int_Tables_number   1
_chemical_formula_structural   Li8Sc8Ge8Pd8C
_chemical_formula_sum   'Li8 Sc8 Ge8 Pd8 C1'
_cell_volume   1503.02703275
_cell_formula_units_Z   1
loop_
 _symmetry_equiv_pos_site_id
 _symmetry_equiv_pos_as_xyz
  1  'x, y, z'
loop_
 _atom_site_type_symbol
 _atom_site_label
 _atom_site_symmetry_multiplicity
 _atom_site_fract_x
 _atom_site_fract_y
 _atom_site_fract_z
 _atom_site_occupancy
  Li  Li0  1  0.00000000  0.75000000  0.04179000  1.0
  Li  Li1  1  0.50000000  0.75000000  0.04179000  1.0
  Li  Li2  1  0.25000000  0.25000000  0.12537000  1.0
  Li  Li3  1  0.75000000  0.25000000  0.12537000  1.0
  Li  Li4  1  0.50000000  0.58046000  0.82515000  1.0
  Li  Li5  1  0.00000000  0.65768000  0.83370000  1.0
  Li  Li6  1  0.74718000  0.24493000  0.95462000  1.0
  Li  Li7  1  0.25282000  0.24493000  0.95462000  1.0
  Sc  Sc8  1  0.25000000  0.00000000  0.04179000  1.0
  Sc  Sc9  1  0.75000000  0.00000000  0.04179000  1.0
  Sc  Sc10  1  0.50000000  0.50000000  0.12537000  1.0
  Sc  Sc11  1  0.00000000  0.50000000  0.12537000  1.0
  Sc  Sc12  1  0.75964000  0.95222000  0.87314000  1.0
  Sc  Sc13  1  0.24036000  0.95222000  0.87314000  1.0
  Sc  Sc14  1  0.00000000  0.51787000  0.94926000  1.0
  Sc  Sc15  1  0.50000000  0.51291000  0.95141000  1.0
  Ge  Ge16  1  0.00000000  0.00000000  0.12537000  1.0
  Ge  Ge17  1  0.50000000  0.00000000  0.12537000  1.0
  Ge  Ge18  1  0.75000000  0.50000000  0.04179000  1.0
  Ge  Ge19  1  0.25000000  0.50000000  0.04179000  1.0
  Ge  Ge20  1  0.50000000  0.99314000  0.96004000  1.0
  Ge  Ge21  1  0.00000000  0.98416000  0.95517000  1.0
  Ge  Ge22  1  0.25401000  0.48892000  0.87267000  1.0
  Ge  Ge23  1  0.74599000  0.48892000  0.87267000  1.0
  Pd  Pd24  1  0.00000000  0.25000000  0.04179000  1.0
  Pd  Pd25  1  0.50000000  0.25000000  0.04179000  1.0
  Pd  Pd26  1  0.25000000  0.75000000  0.12537000  1.0
  Pd  Pd27  1  0.75000000  0.75000000  0.12537000  1.0
  Pd  Pd28  1  0.50000000  0.23049000  0.88097000  1.0
  Pd  Pd29  1  0.00000000  0.27491000  0.87233000  1.0
  Pd  Pd30  1  0.74713000  0.74940000  0.96237000  1.0
  Pd  Pd31  1  0.25287000  0.74940000  0.96237000  1.0
  C  C32  1  0.00000000  0.93814000  0.87530000  1.0
