# generated using pymatgen
data_Zr8Ni16Sb8C
_symmetry_space_group_name_H-M   'P 1'
_cell_length_a   6.34847000
_cell_length_b   8.97809000
_cell_length_c   26.73360000
_cell_angle_alpha   90.00000000
_cell_angle_beta   90.00000000
_cell_angle_gamma   90.00000000
_symmetry_Int_Tables_number   1
_chemical_formula_structural   Zr8Ni16Sb8C
_chemical_formula_sum   'Zr8 Ni16 Sb8 C1'
_cell_volume   1523.73860883
_cell_formula_units_Z   1
loop_
 _symmetry_equiv_pos_site_id
 _symmetry_equiv_pos_as_xyz
  1  'x, y, z'
loop_
 _atom_site_type_symbol
 _atom_site_label
 _atom_site_symmetry_multiplicity
 _atom_site_fract_x
 _atom_site_fract_y
 _atom_site_fract_z
 _atom_site_occupancy
  Zr  Zr0  1  0.00000000  0.00000000  0.87406000  1.0
  Zr  Zr1  1  0.50000000  0.24999000  0.95802000  1.0
  Zr  Zr2  1  0.50000000  0.75001000  0.95802000  1.0
  Zr  Zr3  1  0.00000000  0.50000000  0.87406000  1.0
  Zr  Zr4  1  0.00000000  0.50000000  0.03959000  1.0
  Zr  Zr5  1  0.50000000  0.74825000  0.12545000  1.0
  Zr  Zr6  1  0.50000000  0.25175000  0.12545000  1.0
  Zr  Zr7  1  0.00000000  0.00000000  0.04861000  1.0
  Ni  Ni8  1  0.25000000  0.00000000  0.95802000  1.0
  Ni  Ni9  1  0.75000000  0.50000000  0.95802000  1.0
  Ni  Ni10  1  0.75000000  0.00000000  0.95802000  1.0
  Ni  Ni11  1  0.25000000  0.50000000  0.95802000  1.0
  Ni  Ni12  1  0.75000000  0.74999000  0.87406000  1.0
  Ni  Ni13  1  0.25000000  0.25001000  0.87406000  1.0
  Ni  Ni14  1  0.25000000  0.74999000  0.87406000  1.0
  Ni  Ni15  1  0.75000000  0.25001000  0.87406000  1.0
  Ni  Ni16  1  0.28045000  0.50000000  0.11661000  1.0
  Ni  Ni17  1  0.71330000  0.00000000  0.12789000  1.0
  Ni  Ni18  1  0.71955000  0.50000000  0.11661000  1.0
  Ni  Ni19  1  0.28670000  0.00000000  0.12789000  1.0
  Ni  Ni20  1  0.76143000  0.25356000  0.04634000  1.0
  Ni  Ni21  1  0.23857000  0.74644000  0.04634000  1.0
  Ni  Ni22  1  0.23857000  0.25356000  0.04634000  1.0
  Ni  Ni23  1  0.76143000  0.74644000  0.04634000  1.0
  Sb  Sb24  1  0.00000000  0.74999000  0.95802000  1.0
  Sb  Sb25  1  0.50000000  0.00000000  0.87406000  1.0
  Sb  Sb26  1  0.00000000  0.25001000  0.95802000  1.0
  Sb  Sb27  1  0.50000000  0.50000000  0.87406000  1.0
  Sb  Sb28  1  0.00000000  0.28765000  0.13703000  1.0
  Sb  Sb29  1  0.50000000  0.50000000  0.03700000  1.0
  Sb  Sb30  1  0.00000000  0.71235000  0.13703000  1.0
  Sb  Sb31  1  0.50000000  0.00000000  0.04094000  1.0
  C  C32  1  0.00000000  0.00000000  0.13446000  1.0
