# generated using pymatgen
data_Li8In8Ga8Pd8CO
_symmetry_space_group_name_H-M   'P 1'
_cell_length_a   9.14544000
_cell_length_b   6.46680000
_cell_length_c   26.85910000
_cell_angle_alpha   90.00000000
_cell_angle_beta   90.00000000
_cell_angle_gamma   90.00000000
_symmetry_Int_Tables_number   1
_chemical_formula_structural   Li8In8Ga8Pd8CO
_chemical_formula_sum   'Li8 In8 Ga8 Pd8 C1 O1'
_cell_volume   1588.49367763
_cell_formula_units_Z   1
loop_
 _symmetry_equiv_pos_site_id
 _symmetry_equiv_pos_as_xyz
  1  'x, y, z'
loop_
 _atom_site_type_symbol
 _atom_site_label
 _atom_site_symmetry_multiplicity
 _atom_site_fract_x
 _atom_site_fract_y
 _atom_site_fract_z
 _atom_site_occupancy
  Li  Li0  1  0.00000000  0.75000000  0.04256000  1.0
  Li  Li1  1  0.50000000  0.75000000  0.04256000  1.0
  Li  Li2  1  0.25000000  0.25000000  0.12769000  1.0
  Li  Li3  1  0.75000000  0.25000000  0.12769000  1.0
  Li  Li4  1  0.50000000  0.65158000  0.82509000  1.0
  Li  Li5  1  0.00000000  0.69033000  0.84980000  1.0
  Li  Li6  1  0.74707000  0.21363000  0.95134000  1.0
  Li  Li7  1  0.25293000  0.21363000  0.95134000  1.0
  In  In8  1  0.25000000  0.00000000  0.04256000  1.0
  In  In9  1  0.75000000  0.00000000  0.04256000  1.0
  In  In10  1  0.50000000  0.50000000  0.12769000  1.0
  In  In11  1  0.00000000  0.50000000  0.12769000  1.0
  In  In12  1  0.73301000  0.94920000  0.85973000  1.0
  In  In13  1  0.26699000  0.94920000  0.85973000  1.0
  In  In14  1  0.00000000  0.47988000  0.95008000  1.0
  In  In15  1  0.50000000  0.50361000  0.95481000  1.0
  Ga  Ga16  1  0.00000000  0.00000000  0.12769000  1.0
  Ga  Ga17  1  0.50000000  1.00000000  0.12769000  1.0
  Ga  Ga18  1  0.75000000  0.50000000  0.04256000  1.0
  Ga  Ga19  1  0.25000000  0.50000000  0.04256000  1.0
  Ga  Ga20  1  0.50000000  0.96541000  0.95070000  1.0
  Ga  Ga21  1  0.00000000  0.96322000  0.94257000  1.0
  Ga  Ga22  1  0.26135000  0.48191000  0.87061000  1.0
  Ga  Ga23  1  0.73865000  0.48191000  0.87061000  1.0
  Pd  Pd24  1  0.00000000  0.25000000  0.04256000  1.0
  Pd  Pd25  1  0.50000000  0.25000000  0.04256000  1.0
  Pd  Pd26  1  0.25000000  0.75000000  0.12769000  1.0
  Pd  Pd27  1  0.75000000  0.75000000  0.12769000  1.0
  Pd  Pd28  1  0.50000000  0.23542000  0.87659000  1.0
  Pd  Pd29  1  0.00000000  0.22082000  0.86382000  1.0
  Pd  Pd30  1  0.75662000  0.74360000  0.96120000  1.0
  Pd  Pd31  1  0.24338000  0.74360000  0.96120000  1.0
  C  C32  1  0.00000000  0.25696000  0.79123000  1.0
  O  O33  1  0.00000000  0.27897000  0.74856000  1.0
