# generated using pymatgen
data_LiInPdAu
_symmetry_space_group_name_H-M   'P 1'
_cell_length_a   6.08394000
_cell_length_b   3.76958000
_cell_length_c   24.55190000
_cell_angle_alpha   90.00000000
_cell_angle_beta   90.00000000
_cell_angle_gamma   90.00000000
_symmetry_Int_Tables_number   1
_chemical_formula_structural   LiInPdAu
_chemical_formula_sum   'Li2 In2 Pd2 Au2'
_cell_volume   563.07078369
_cell_formula_units_Z   2
loop_
 _symmetry_equiv_pos_site_id
 _symmetry_equiv_pos_as_xyz
  1  'x, y, z'
loop_
 _atom_site_type_symbol
 _atom_site_label
 _atom_site_symmetry_multiplicity
 _atom_site_fract_x
 _atom_site_fract_y
 _atom_site_fract_z
 _atom_site_occupancy
  Li  Li0  1  0.23263000  0.50000000  0.03090000  1.0
  Li  Li1  1  0.69790000  0.50000000  0.90730000  1.0
  In  In2  1  0.73263000  0.50000000  0.03090000  1.0
  In  In3  1  0.19790000  0.50000000  0.90730000  1.0
  Pd  Pd4  1  0.50000000  0.00000000  0.09270000  1.0
  Pd  Pd5  1  0.96527000  0.00000000  0.96910000  1.0
  Au  Au6  1  0.00000000  0.00000000  0.09270000  1.0
  Au  Au7  1  0.46527000  0.00000000  0.96910000  1.0
