# generated using pymatgen
data_Y4Sc4Ga4Pd4CO
_symmetry_space_group_name_H-M   P1
_cell_length_a   6.06401000
_cell_length_b   9.48206000
_cell_length_c   24.30750000
_cell_angle_alpha   90.00000000
_cell_angle_beta   90.00000000
_cell_angle_gamma   90.00000000
_symmetry_Int_Tables_number   1
_chemical_formula_structural   Y4Sc4Ga4Pd4CO
_chemical_formula_sum   'Y4 Sc4 Ga4 Pd4 C1 O1'
_cell_volume   1397.66439665
_cell_formula_units_Z   1
loop_
 _symmetry_equiv_pos_site_id
 _symmetry_equiv_pos_as_xyz
  1  'x, y, z'
loop_
 _atom_site_type_symbol
 _atom_site_label
 _atom_site_symmetry_multiplicity
 _atom_site_fract_x
 _atom_site_fract_y
 _atom_site_fract_z
 _atom_site_occupancy
  Y  Y0  1  0.55305000  0.50002000  0.08970000  1.0
  Y  Y1  1  0.57952000  0.00001000  0.09443000  1.0
  Y  Y2  1  0.83957000  0.00000000  0.97046000  1.0
  Y  Y3  1  0.83957000  0.50000000  0.97046000  1.0
  Sc  Sc4  1  0.15798000  0.24763000  0.02450000  1.0
  Sc  Sc5  1  0.15802000  0.75233000  0.02443000  1.0
  Sc  Sc6  1  0.50936000  0.25000000  0.91139000  1.0
  Sc  Sc7  1  0.50936000  0.75000000  0.91139000  1.0
  Ga  Ga8  1  0.06925000  0.49992000  0.08267000  1.0
  Ga  Ga9  1  0.08083000  0.00016000  0.08545000  1.0
  Ga  Ga10  1  0.33957000  0.00000000  0.97046000  1.0
  Ga  Ga11  1  0.33957000  0.50000000  0.97046000  1.0
  Pd  Pd12  1  0.00936000  0.25000000  0.91139000  1.0
  Pd  Pd13  1  0.00936000  0.75000000  0.91139000  1.0
  Pd  Pd14  1  0.60651000  0.25037000  0.01824000  1.0
  Pd  Pd15  1  0.60662000  0.74964000  0.01824000  1.0
  C  C16  1  0.82034000  0.00002000  0.17609000  1.0
  O  O17  1  0.91315000  0.99998000  0.21787000  1.0
