# generated using pymatgen
data_Ti4Fe8Sn4CO
_symmetry_space_group_name_H-M   'P 1'
_cell_length_a   6.02174000
_cell_length_b   6.02174000
_cell_length_c   24.51630000
_cell_angle_alpha   90.00000000
_cell_angle_beta   90.00000000
_cell_angle_gamma   90.00000000
_symmetry_Int_Tables_number   1
_chemical_formula_structural   Ti4Fe8Sn4CO
_chemical_formula_sum   'Ti4 Fe8 Sn4 C1 O1'
_cell_volume   888.99419942
_cell_formula_units_Z   1
loop_
 _symmetry_equiv_pos_site_id
 _symmetry_equiv_pos_as_xyz
  1  'x, y, z'
loop_
 _atom_site_type_symbol
 _atom_site_label
 _atom_site_symmetry_multiplicity
 _atom_site_fract_x
 _atom_site_fract_y
 _atom_site_fract_z
 _atom_site_occupancy
  Ti  Ti0  1  0.00000000  0.50000000  0.09211000  1.0
  Ti  Ti1  1  0.50000000  0.00000000  0.09211000  1.0
  Ti  Ti2  1  0.50000000  0.50000000  0.96930000  1.0
  Ti  Ti3  1  0.00000000  0.00000000  0.96930000  1.0
  Fe  Fe4  1  0.25000000  0.75000000  0.03070000  1.0
  Fe  Fe5  1  0.75000000  0.25000000  0.90789000  1.0
  Fe  Fe6  1  0.75000000  0.75000000  0.03070000  1.0
  Fe  Fe7  1  0.25000000  0.25000000  0.90789000  1.0
  Fe  Fe8  1  0.75000000  0.25000000  0.03070000  1.0
  Fe  Fe9  1  0.25000000  0.75000000  0.90789000  1.0
  Fe  Fe10  1  0.25000000  0.25000000  0.03070000  1.0
  Fe  Fe11  1  0.75000000  0.75000000  0.90789000  1.0
  Sn  Sn12  1  0.00000000  0.50000000  0.96930000  1.0
  Sn  Sn13  1  0.50000000  0.50000000  0.09211000  1.0
  Sn  Sn14  1  0.00000000  0.00000000  0.09211000  1.0
  Sn  Sn15  1  0.50000000  0.00000000  0.96930000  1.0
  C  C16  1  0.00000000  0.00000000  0.16961000  1.0
  O  O17  1  0.00000000  0.00000000  0.21652000  1.0
