# generated using pymatgen
data_Li8Y8In8Au8CO
_symmetry_space_group_name_H-M   P1
_cell_length_a   6.89380000
_cell_length_b   9.74930000
_cell_length_c   27.31200000
_cell_angle_alpha   90.00000000
_cell_angle_beta   90.00000000
_cell_angle_gamma   90.00000000
_symmetry_Int_Tables_number   1
_chemical_formula_structural   Li8Y8In8Au8CO
_chemical_formula_sum   'Li8 Y8 In8 Au8 C1 O1'
_cell_volume   1835.63199117
_cell_formula_units_Z   1
loop_
 _symmetry_equiv_pos_site_id
 _symmetry_equiv_pos_as_xyz
  1  'x, y, z'
loop_
 _atom_site_type_symbol
 _atom_site_label
 _atom_site_symmetry_multiplicity
 _atom_site_fract_x
 _atom_site_fract_y
 _atom_site_fract_z
 _atom_site_occupancy
  Li  Li0  1  0.00000000  0.25000000  0.95538000  1.0
  Li  Li1  1  0.00000000  0.75000000  0.95538000  1.0
  Li  Li2  1  0.13905000  0.24668000  0.18454000  1.0
  Li  Li3  1  0.18179000  0.74295000  0.18122000  1.0
  Li  Li4  1  0.50000000  0.00000000  0.86614000  1.0
  Li  Li5  1  0.50000000  0.50000000  0.86614000  1.0
  Li  Li6  1  0.51447000  0.99916000  0.04973000  1.0
  Li  Li7  1  0.52158000  0.49834000  0.04957000  1.0
  Y  Y8  1  0.24089000  0.24909000  0.04852000  1.0
  Y  Y9  1  0.24319000  0.74772000  0.05139000  1.0
  Y  Y10  1  0.25000000  0.25000000  0.86614000  1.0
  Y  Y11  1  0.25000000  0.75000000  0.86614000  1.0
  Y  Y12  1  0.75000000  0.00000000  0.95538000  1.0
  Y  Y13  1  0.75000000  0.50000000  0.95538000  1.0
  Y  Y14  1  0.79139000  0.47896000  0.14008000  1.0
  Y  Y15  1  0.79152000  0.00793000  0.13867000  1.0
  In  In16  1  0.25000000  0.00000000  0.95538000  1.0
  In  In17  1  0.25000000  0.50000000  0.95538000  1.0
  In  In18  1  0.26917000  0.99522000  0.13675000  1.0
  In  In19  1  0.27961000  0.49519000  0.13469000  1.0
  In  In20  1  0.75000000  0.25000000  0.86614000  1.0
  In  In21  1  0.75000000  0.75000000  0.86614000  1.0
  In  In22  1  0.75325000  0.24811000  0.04377000  1.0
  In  In23  1  0.75790000  0.74908000  0.04410000  1.0
  Au  Au24  1  0.00000000  0.00000000  0.86614000  1.0
  Au  Au25  1  0.00000000  0.50000000  0.86614000  1.0
  Au  Au26  1  0.00110000  0.99824000  0.04321000  1.0
  Au  Au27  1  0.50000000  0.25000000  0.95538000  1.0
  Au  Au28  1  0.50000000  0.75000000  0.95538000  1.0
  Au  Au29  1  0.50380000  0.24139000  0.13166000  1.0
  Au  Au30  1  0.53644000  0.74074000  0.13238000  1.0
  Au  Au31  1  0.99828000  0.49750000  0.04427000  1.0
  C  C32  1  0.82115000  0.21673000  0.17704000  1.0
  O  O33  1  0.87870000  0.32544000  0.19927000  1.0
