# generated using pymatgen
data_Li8Al8Ag8Sn8CO
_symmetry_space_group_name_H-M   Pmm2
_cell_length_a   8.16098000
_cell_length_b   8.66686000
_cell_length_c   26.42010000
_cell_angle_alpha   90.00000000
_cell_angle_beta   90.00000000
_cell_angle_gamma   90.00000000
_symmetry_Int_Tables_number   25
_chemical_formula_structural   Li8Al8Ag8Sn8CO
_chemical_formula_sum   'Li8 Al8 Ag8 Sn8 C1 O1'
_cell_volume   1868.69555207
_cell_formula_units_Z   1
loop_
 _symmetry_equiv_pos_site_id
 _symmetry_equiv_pos_as_xyz
  1  'x, y, z'
  2  '-x, -y, z'
  3  '-x, y, z'
  4  'x, -y, z'
loop_
 _atom_site_type_symbol
 _atom_site_label
 _atom_site_symmetry_multiplicity
 _atom_site_fract_x
 _atom_site_fract_y
 _atom_site_fract_z
 _atom_site_occupancy
  Li  Li0  2  0.24725000  0.00000000  0.95693000  1.0
  Li  Li1  2  0.24999000  0.00000000  0.12150000  1.0
  Li  Li2  2  0.24999000  0.50000000  0.12150000  1.0
  Li  Li3  2  0.25191000  0.50000000  0.95996000  1.0
  Al  Al4  4  0.22656000  0.25625000  0.87533000  1.0
  Al  Al5  4  0.24999000  0.25000000  0.04050000  1.0
  Ag  Ag6  1  0.00000000  0.00000000  0.04050000  1.0
  Ag  Ag7  1  0.00000000  0.00000000  0.87288000  1.0
  Ag  Ag8  1  0.00000000  0.50000000  0.04050000  1.0
  Ag  Ag9  1  0.00000000  0.50000000  0.87138000  1.0
  Ag  Ag10  1  0.50000000  0.00000000  0.04050000  1.0
  Ag  Ag11  1  0.50000000  0.00000000  0.87329000  1.0
  Ag  Ag12  1  0.50000000  0.50000000  0.04050000  1.0
  Ag  Ag13  1  0.50000000  0.50000000  0.87615000  1.0
  Sn  Sn14  2  0.00000000  0.25000000  0.12150000  1.0
  Sn  Sn15  2  0.00000000  0.25207000  0.96261000  1.0
  Sn  Sn16  2  0.50000000  0.24545000  0.95525000  1.0
  Sn  Sn17  2  0.50000000  0.25000000  0.12150000  1.0
  C  C18  1  0.50000000  0.00000000  0.78753000  1.0
  O  O19  1  0.50000000  0.00000000  0.74439000  1.0
