# generated using pymatgen
data_Y8In8Pd8Pt8C
_symmetry_space_group_name_H-M   'P 1'
_cell_length_a   9.65478000
_cell_length_b   6.82696000
_cell_length_c   27.24110000
_cell_angle_alpha   90.00000000
_cell_angle_beta   90.00000000
_cell_angle_gamma   90.00000000
_symmetry_Int_Tables_number   1
_chemical_formula_structural   Y8In8Pd8Pt8C
_chemical_formula_sum   'Y8 In8 Pd8 Pt8 C1'
_cell_volume   1795.53709078
_cell_formula_units_Z   1
loop_
 _symmetry_equiv_pos_site_id
 _symmetry_equiv_pos_as_xyz
  1  'x, y, z'
loop_
 _atom_site_type_symbol
 _atom_site_label
 _atom_site_symmetry_multiplicity
 _atom_site_fract_x
 _atom_site_fract_y
 _atom_site_fract_z
 _atom_site_occupancy
  Y  Y0  1  0.25000000  1.00000000  0.04430000  1.0
  Y  Y1  1  0.75000000  1.00000000  0.04430000  1.0
  Y  Y2  1  0.50000000  0.50000000  0.13291000  1.0
  Y  Y3  1  0.00000000  0.50000000  0.13291000  1.0
  Y  Y4  1  0.74828000  0.99379000  0.86368000  1.0
  Y  Y5  1  0.25172000  0.99379000  0.86368000  1.0
  Y  Y6  1  0.00000000  0.50392000  0.95308000  1.0
  Y  Y7  1  0.50000000  0.49883000  0.95742000  1.0
  In  In8  1  0.00000000  0.00000000  0.13291000  1.0
  In  In9  1  0.50000000  0.00000000  0.13291000  1.0
  In  In10  1  0.75000000  0.50000000  0.04430000  1.0
  In  In11  1  0.25000000  0.50000000  0.04430000  1.0
  In  In12  1  0.50000000  0.00005000  0.95354000  1.0
  In  In13  1  0.00000000  0.99983000  0.95167000  1.0
  In  In14  1  0.25424000  0.49670000  0.86383000  1.0
  In  In15  1  0.74576000  0.49670000  0.86383000  1.0
  Pd  Pd16  1  0.00000000  0.75000000  0.04430000  1.0
  Pd  Pd17  1  0.50000000  0.75000000  0.04430000  1.0
  Pd  Pd18  1  0.25000000  0.25000000  0.13291000  1.0
  Pd  Pd19  1  0.75000000  0.25000000  0.13291000  1.0
  Pd  Pd20  1  0.50000000  0.72832000  0.87166000  1.0
  Pd  Pd21  1  0.00000000  0.71528000  0.85963000  1.0
  Pd  Pd22  1  0.75066000  0.24061000  0.95331000  1.0
  Pd  Pd23  1  0.24934000  0.24061000  0.95331000  1.0
  Pt  Pt24  1  0.00000000  0.25000000  0.04430000  1.0
  Pt  Pt25  1  0.50000000  0.25000000  0.04430000  1.0
  Pt  Pt26  1  0.25000000  0.75000000  0.13291000  1.0
  Pt  Pt27  1  0.75000000  0.75000000  0.13291000  1.0
  Pt  Pt28  1  0.50000000  0.26253000  0.87351000  1.0
  Pt  Pt29  1  0.00000000  0.29904000  0.86109000  1.0
  Pt  Pt30  1  0.74859000  0.75883000  0.95412000  1.0
  Pt  Pt31  1  0.25141000  0.75883000  0.95412000  1.0
  C  C32  1  0.00000000  0.01389000  0.85334000  1.0
