# generated using pymatgen
data_Y8In8Pd8Pt8C
_symmetry_space_group_name_H-M   Pm
_cell_length_a   6.82696000
_cell_length_b   9.65478000
_cell_length_c   27.24110000
_cell_angle_alpha   90.00000000
_cell_angle_beta   90.00000000
_cell_angle_gamma   90.00000000
_symmetry_Int_Tables_number   6
_chemical_formula_structural   Y8In8Pd8Pt8C
_chemical_formula_sum   'Y8 In8 Pd8 Pt8 C1'
_cell_volume   1795.53709078
_cell_formula_units_Z   1
loop_
 _symmetry_equiv_pos_site_id
 _symmetry_equiv_pos_as_xyz
  1  'x, y, z'
  2  'x, -y, z'
loop_
 _atom_site_type_symbol
 _atom_site_label
 _atom_site_symmetry_multiplicity
 _atom_site_fract_x
 _atom_site_fract_y
 _atom_site_fract_z
 _atom_site_occupancy
  Y  Y0  2  -0.00000000  0.25000000  0.95570000  1.0
  Y  Y1  2  0.99379000  0.25172000  0.13632000  1.0
  Y  Y2  1  0.49883000  0.50000000  0.04258000  1.0
  Y  Y3  1  0.50000000  0.00000000  0.86709000  1.0
  Y  Y4  1  0.50000000  0.50000000  0.86709000  1.0
  Y  Y5  1  0.50392000  0.00000000  0.04692000  1.0
  In  In6  2  0.49670000  0.25424000  0.13617000  1.0
  In  In7  2  0.50000000  0.25000000  0.95570000  1.0
  In  In8  1  0.00000000  0.00000000  0.86709000  1.0
  In  In9  1  0.00000000  0.50000000  0.86709000  1.0
  In  In10  1  0.00005000  0.50000000  0.04646000  1.0
  In  In11  1  0.99983000  0.00000000  0.04833000  1.0
  Pd  Pd12  2  0.24061000  0.24934000  0.04669000  1.0
  Pd  Pd13  2  0.25000000  0.25000000  0.86709000  1.0
  Pd  Pd14  1  0.71528000  0.00000000  0.14037000  1.0
  Pd  Pd15  1  0.72832000  0.50000000  0.12834000  1.0
  Pd  Pd16  1  0.75000000  0.00000000  0.95570000  1.0
  Pd  Pd17  1  0.75000000  0.50000000  0.95570000  1.0
  Pt  Pt18  2  0.75000000  0.25000000  0.86709000  1.0
  Pt  Pt19  2  0.75883000  0.25141000  0.04588000  1.0
  Pt  Pt20  1  0.25000000  0.00000000  0.95570000  1.0
  Pt  Pt21  1  0.25000000  0.50000000  0.95570000  1.0
  Pt  Pt22  1  0.26253000  0.50000000  0.12649000  1.0
  Pt  Pt23  1  0.29904000  0.00000000  0.13891000  1.0
  C  C24  1  0.01389000  0.00000000  0.14666000  1.0
