# generated using pymatgen
data_Ti16Al16C
_symmetry_space_group_name_H-M   'P 1'
_cell_length_a   6.37073000
_cell_length_b   9.00957000
_cell_length_c   26.75720000
_cell_angle_alpha   90.00000000
_cell_angle_beta   90.00000000
_cell_angle_gamma   90.00000000
_symmetry_Int_Tables_number   1
_chemical_formula_structural   Ti16Al16C
_chemical_formula_sum   'Ti16 Al16 C1'
_cell_volume   1535.79740073
_cell_formula_units_Z   1
loop_
 _symmetry_equiv_pos_site_id
 _symmetry_equiv_pos_as_xyz
  1  'x, y, z'
loop_
 _atom_site_type_symbol
 _atom_site_label
 _atom_site_symmetry_multiplicity
 _atom_site_fract_x
 _atom_site_fract_y
 _atom_site_fract_z
 _atom_site_occupancy
  Ti  Ti0  1  0.00000000  0.00000000  0.87373000  1.0
  Ti  Ti1  1  0.00000000  0.25000000  0.95791000  1.0
  Ti  Ti2  1  0.00000000  0.00000000  0.05535000  1.0
  Ti  Ti3  1  0.00000000  0.22681000  0.13014000  1.0
  Ti  Ti4  1  0.00000000  0.50000000  0.87373000  1.0
  Ti  Ti5  1  0.00000000  0.75000000  0.95791000  1.0
  Ti  Ti6  1  0.00000000  0.50000000  0.04455000  1.0
  Ti  Ti7  1  0.00000000  0.77319000  0.13014000  1.0
  Ti  Ti8  1  0.50000000  0.00000000  0.87373000  1.0
  Ti  Ti9  1  0.50000000  0.25000000  0.95791000  1.0
  Ti  Ti10  1  0.50000000  0.00000000  0.04348000  1.0
  Ti  Ti11  1  0.50000000  0.27336000  0.11814000  1.0
  Ti  Ti12  1  0.50000000  0.50000000  0.87373000  1.0
  Ti  Ti13  1  0.50000000  0.75000000  0.95791000  1.0
  Ti  Ti14  1  0.50000000  0.50000000  0.04263000  1.0
  Ti  Ti15  1  0.50000000  0.72664000  0.11814000  1.0
  Al  Al16  1  0.25000000  0.25000000  0.87373000  1.0
  Al  Al17  1  0.25000000  0.00000000  0.95791000  1.0
  Al  Al18  1  0.23730000  0.24829000  0.04130000  1.0
  Al  Al19  1  0.30235000  0.00000000  0.13955000  1.0
  Al  Al20  1  0.25000000  0.75000000  0.87373000  1.0
  Al  Al21  1  0.25000000  0.50000000  0.95791000  1.0
  Al  Al22  1  0.23730000  0.75171000  0.04130000  1.0
  Al  Al23  1  0.22461000  0.50000000  0.13557000  1.0
  Al  Al24  1  0.75000000  0.25000000  0.87373000  1.0
  Al  Al25  1  0.75000000  0.00000000  0.95791000  1.0
  Al  Al26  1  0.76270000  0.24829000  0.04130000  1.0
  Al  Al27  1  0.69765000  0.00000000  0.13955000  1.0
  Al  Al28  1  0.75000000  0.75000000  0.87373000  1.0
  Al  Al29  1  0.75000000  0.50000000  0.95791000  1.0
  Al  Al30  1  0.76270000  0.75171000  0.04130000  1.0
  Al  Al31  1  0.77539000  0.50000000  0.13557000  1.0
  C  C32  1  0.00000000  0.00000000  0.14012000  1.0
