# generated using pymatgen
data_Li8Mg8Ga8Pd8CO
_symmetry_space_group_name_H-M   'P 1'
_cell_length_a   8.87710000
_cell_length_b   6.27706000
_cell_length_c   26.65780000
_cell_angle_alpha   90.00000000
_cell_angle_beta   90.00000000
_cell_angle_gamma   90.00000000
_symmetry_Int_Tables_number   1
_chemical_formula_structural   Li8Mg8Ga8Pd8CO
_chemical_formula_sum   'Li8 Mg8 Ga8 Pd8 C1 O1'
_cell_volume   1485.42831283
_cell_formula_units_Z   1
loop_
 _symmetry_equiv_pos_site_id
 _symmetry_equiv_pos_as_xyz
  1  'x, y, z'
loop_
 _atom_site_type_symbol
 _atom_site_label
 _atom_site_symmetry_multiplicity
 _atom_site_fract_x
 _atom_site_fract_y
 _atom_site_fract_z
 _atom_site_occupancy
  Li  Li0  1  0.75000000  0.25000000  0.04163000  1.0
  Li  Li1  1  0.25000000  0.25000000  0.04163000  1.0
  Li  Li2  1  0.00000000  0.75000000  0.12488000  1.0
  Li  Li3  1  0.50000000  0.75000000  0.12488000  1.0
  Li  Li4  1  0.25012000  0.28059000  0.86583000  1.0
  Li  Li5  1  0.74988000  0.28059000  0.86583000  1.0
  Li  Li6  1  0.50000000  0.75294000  0.95776000  1.0
  Li  Li7  1  0.00000000  0.75893000  0.95819000  1.0
  Mg  Mg8  1  0.00000000  0.00000000  0.04163000  1.0
  Mg  Mg9  1  0.50000000  0.00000000  0.04163000  1.0
  Mg  Mg10  1  0.25000000  0.50000000  0.12488000  1.0
  Mg  Mg11  1  0.75000000  0.50000000  0.12488000  1.0
  Mg  Mg12  1  0.50000000  0.98992000  0.86876000  1.0
  Mg  Mg13  1  0.00000000  0.98041000  0.86803000  1.0
  Mg  Mg14  1  0.75172000  0.49135000  0.95986000  1.0
  Mg  Mg15  1  0.24828000  0.49135000  0.95986000  1.0
  Ga  Ga16  1  0.75000000  0.00000000  0.12488000  1.0
  Ga  Ga17  1  0.25000000  0.00000000  0.12488000  1.0
  Ga  Ga18  1  0.50000000  0.50000000  0.04163000  1.0
  Ga  Ga19  1  0.00000000  0.50000000  0.04163000  1.0
  Ga  Ga20  1  0.25010000  0.00503000  0.95563000  1.0
  Ga  Ga21  1  0.74990000  0.00503000  0.95563000  1.0
  Ga  Ga22  1  0.00000000  0.51707000  0.87459000  1.0
  Ga  Ga23  1  0.50000000  0.51304000  0.87260000  1.0
  Pd  Pd24  1  0.75000000  0.75000000  0.04163000  1.0
  Pd  Pd25  1  0.25000000  0.75000000  0.04163000  1.0
  Pd  Pd26  1  0.00000000  0.25000000  0.12488000  1.0
  Pd  Pd27  1  0.50000000  0.25000000  0.12488000  1.0
  Pd  Pd28  1  0.25282000  0.73638000  0.88089000  1.0
  Pd  Pd29  1  0.74718000  0.73638000  0.88089000  1.0
  Pd  Pd30  1  0.50000000  0.24392000  0.95684000  1.0
  Pd  Pd31  1  0.00000000  0.23870000  0.95261000  1.0
  C  C32  1  0.00000000  0.02218000  0.78443000  1.0
  O  O33  1  0.00000000  0.02857000  0.74146000  1.0
