# generated using pymatgen
data_CrGaCo2
_symmetry_space_group_name_H-M   P4mm
_cell_length_a   4.05427451
_cell_length_b   4.05427451
_cell_length_c   24.30020000
_cell_angle_alpha   90.00000000
_cell_angle_beta   90.00000000
_cell_angle_gamma   90.00000000
_symmetry_Int_Tables_number   99
_chemical_formula_structural   CrGaCo2
_chemical_formula_sum   'Cr2 Ga2 Co4'
_cell_volume   399.42583356
_cell_formula_units_Z   2
loop_
 _symmetry_equiv_pos_site_id
 _symmetry_equiv_pos_as_xyz
  1  'x, y, z'
  2  '-y, x, z'
  3  '-x, -y, z'
  4  'y, -x, z'
  5  '-x, y, z'
  6  'y, x, z'
  7  'x, -y, z'
  8  '-y, -x, z'
loop_
 _atom_site_type_symbol
 _atom_site_label
 _atom_site_symmetry_multiplicity
 _atom_site_fract_x
 _atom_site_fract_y
 _atom_site_fract_z
 _atom_site_occupancy
  Cr  Cr0  1  0.00000000  0.00000000  0.08848000  1.0
  Cr  Cr1  1  0.50000000  0.50000000  0.97051000  1.0
  Ga  Ga2  1  0.00000000  0.00000000  0.97051000  1.0
  Ga  Ga3  1  0.50000000  0.50000000  0.08848000  1.0
  Co  Co4  2  0.00000000  0.50000000  0.02949000  1.0
  Co  Co5  2  0.00000000  0.50000000  0.91152000  1.0
