# generated using pymatgen
data_Li16Cu8Sb8C
_symmetry_space_group_name_H-M   'P 1'
_cell_length_a   9.01500000
_cell_length_b   6.37457000
_cell_length_c   26.76130000
_cell_angle_alpha   90.00000000
_cell_angle_beta   90.00000000
_cell_angle_gamma   90.00000000
_symmetry_Int_Tables_number   1
_chemical_formula_structural   Li16Cu8Sb8C
_chemical_formula_sum   'Li16 Cu8 Sb8 C1'
_cell_volume   1537.88489797
_cell_formula_units_Z   1
loop_
 _symmetry_equiv_pos_site_id
 _symmetry_equiv_pos_as_xyz
  1  'x, y, z'
loop_
 _atom_site_type_symbol
 _atom_site_label
 _atom_site_symmetry_multiplicity
 _atom_site_fract_x
 _atom_site_fract_y
 _atom_site_fract_z
 _atom_site_occupancy
  Li  Li0  1  0.74999000  1.00000000  0.04211000  1.0
  Li  Li1  1  0.00000000  0.50000000  0.12633000  1.0
  Li  Li2  1  0.25001000  1.00000000  0.04211000  1.0
  Li  Li3  1  0.50000000  0.50000000  0.12633000  1.0
  Li  Li4  1  0.00000000  0.25000000  0.04211000  1.0
  Li  Li5  1  0.50000000  0.25000000  0.04211000  1.0
  Li  Li6  1  0.74999000  0.75000000  0.12633000  1.0
  Li  Li7  1  0.25001000  0.75000000  0.12633000  1.0
  Li  Li8  1  0.22932000  0.99629000  0.86039000  1.0
  Li  Li9  1  0.50000000  0.52959000  0.95443000  1.0
  Li  Li10  1  0.77068000  0.99629000  0.86039000  1.0
  Li  Li11  1  0.00000000  0.48462000  0.95634000  1.0
  Li  Li12  1  0.50000000  0.25360000  0.87863000  1.0
  Li  Li13  1  0.00000000  0.28705000  0.82305000  1.0
  Li  Li14  1  0.23435000  0.78123000  0.95865000  1.0
  Li  Li15  1  0.76565000  0.78123000  0.95865000  1.0
  Cu  Cu16  1  0.00000000  0.00000000  0.12633000  1.0
  Cu  Cu17  1  0.24999000  0.50000000  0.04211000  1.0
  Cu  Cu18  1  0.75001000  0.50000000  0.04211000  1.0
  Cu  Cu19  1  0.50000000  1.00000000  0.12633000  1.0
  Cu  Cu20  1  0.50000000  0.98780000  0.95872000  1.0
  Cu  Cu21  1  0.73425000  0.53343000  0.88547000  1.0
  Cu  Cu22  1  0.26575000  0.53343000  0.88547000  1.0
  Cu  Cu23  1  0.00000000  0.08949000  0.92377000  1.0
  Sb  Sb24  1  0.24999000  0.25000000  0.12633000  1.0
  Sb  Sb25  1  0.75001000  0.25000000  0.12633000  1.0
  Sb  Sb26  1  0.50000000  0.75000000  0.04211000  1.0
  Sb  Sb27  1  0.00000000  0.75000000  0.04211000  1.0
  Sb  Sb28  1  0.74088000  0.24595000  0.95560000  1.0
  Sb  Sb29  1  0.25912000  0.24595000  0.95560000  1.0
  Sb  Sb30  1  0.00000000  0.67883000  0.86233000  1.0
  Sb  Sb31  1  0.50000000  0.77146000  0.86870000  1.0
  C  C32  1  0.00000000  0.00529000  0.85226000  1.0
