# generated using pymatgen
data_Li8Ge8Pd8Pb8CO
_symmetry_space_group_name_H-M   'P 1'
_cell_length_a   6.74945000
_cell_length_b   9.54516000
_cell_length_c   27.15890000
_cell_angle_alpha   90.00000000
_cell_angle_beta   90.00000000
_cell_angle_gamma   90.00000000
_symmetry_Int_Tables_number   1
_chemical_formula_structural   Li8Ge8Pd8Pb8CO
_chemical_formula_sum   'Li8 Ge8 Pd8 Pb8 C1 O1'
_cell_volume   1749.70073016
_cell_formula_units_Z   1
loop_
 _symmetry_equiv_pos_site_id
 _symmetry_equiv_pos_as_xyz
  1  'x, y, z'
loop_
 _atom_site_type_symbol
 _atom_site_label
 _atom_site_symmetry_multiplicity
 _atom_site_fract_x
 _atom_site_fract_y
 _atom_site_fract_z
 _atom_site_occupancy
  Li  Li0  1  0.25000000  0.00000000  0.95607000  1.0
  Li  Li1  1  0.25000000  0.50000000  0.95607000  1.0
  Li  Li2  1  0.75000000  0.25000000  0.86820000  1.0
  Li  Li3  1  0.75000000  0.75000000  0.86820000  1.0
  Li  Li4  1  0.26415000  0.50000000  0.14147000  1.0
  Li  Li5  1  0.23909000  0.00000000  0.14130000  1.0
  Li  Li6  1  0.77041000  0.74923000  0.05038000  1.0
  Li  Li7  1  0.77039000  0.25076000  0.05038000  1.0
  Ge  Ge8  1  0.00000000  0.00000000  0.86820000  1.0
  Ge  Ge9  1  0.00000000  0.50000000  0.86820000  1.0
  Ge  Ge10  1  0.50000000  0.75000000  0.95607000  1.0
  Ge  Ge11  1  0.50000000  0.25000000  0.95607000  1.0
  Ge  Ge12  1  0.99328000  0.49998000  0.05962000  1.0
  Ge  Ge13  1  0.99531000  0.99992000  0.05474000  1.0
  Ge  Ge14  1  0.49686000  0.24879000  0.12671000  1.0
  Ge  Ge15  1  0.49686000  0.75122000  0.12671000  1.0
  Pd  Pd16  1  0.75000000  0.00000000  0.95607000  1.0
  Pd  Pd17  1  0.75000000  0.50000000  0.95607000  1.0
  Pd  Pd18  1  0.25000000  0.25000000  0.86820000  1.0
  Pd  Pd19  1  0.25000000  0.75000000  0.86820000  1.0
  Pd  Pd20  1  0.70072000  0.50002000  0.12235000  1.0
  Pd  Pd21  1  0.72887000  0.00001000  0.12252000  1.0
  Pd  Pd22  1  0.16812000  0.75272000  0.07733000  1.0
  Pd  Pd23  1  0.16808000  0.24718000  0.07734000  1.0
  Pb  Pb24  1  0.00000000  0.25000000  0.95607000  1.0
  Pb  Pb25  1  0.00000000  0.75000000  0.95607000  1.0
  Pb  Pb26  1  0.50000000  0.50000000  0.86820000  1.0
  Pb  Pb27  1  0.50000000  0.00000000  0.86820000  1.0
  Pb  Pb28  1  0.91440000  0.74451000  0.16460000  1.0
  Pb  Pb29  1  0.91438000  0.25550000  0.16462000  1.0
  Pb  Pb30  1  0.45587000  0.99998000  0.04347000  1.0
  Pb  Pb31  1  0.44735000  0.49992000  0.04144000  1.0
  C  C32  1  0.27583000  0.00003000  0.21845000  1.0
  O  O33  1  0.30012000  0.00004000  0.26002000  1.0
