# generated using pymatgen
data_AlOs
_symmetry_space_group_name_H-M   Pmm2
_cell_length_a   3.01818000
_cell_length_b   4.26835000
_cell_length_c   26.40250000
_cell_angle_alpha   90.00000000
_cell_angle_beta   90.00000000
_cell_angle_gamma   90.00000000
_symmetry_Int_Tables_number   25
_chemical_formula_structural   AlOs
_chemical_formula_sum   'Al4 Os4'
_cell_volume   340.13412974
_cell_formula_units_Z   4
loop_
 _symmetry_equiv_pos_site_id
 _symmetry_equiv_pos_as_xyz
  1  'x, y, z'
  2  '-x, -y, z'
  3  '-x, y, z'
  4  'x, -y, z'
loop_
 _atom_site_type_symbol
 _atom_site_label
 _atom_site_symmetry_multiplicity
 _atom_site_fract_x
 _atom_site_fract_y
 _atom_site_fract_z
 _atom_site_occupancy
  Al  Al0  1  0.00000000  0.00000000  0.03935000  1.0
  Al  Al1  1  0.00000000  0.00000000  0.87875000  1.0
  Al  Al2  1  0.00000000  0.50000000  0.12248000  1.0
  Al  Al3  1  0.00000000  0.50000000  0.95958000  1.0
  Os  Os4  1  0.50000000  0.00000000  0.11875500  1.0
  Os  Os5  1  0.50000000  0.00000000  0.95958000  1.0
  Os  Os6  1  0.50000000  0.50000000  0.03895000  1.0
  Os  Os7  1  0.50000000  0.50000000  0.87875000  1.0
