data_image0
_chemical_formula_structural       Zr4Ni8Sb4C
_chemical_formula_sum              "Zr4 Ni8 Sb4 C1"
_cell_length_a       6.34847
_cell_length_b       6.34847
_cell_length_c       24.7613
_cell_angle_alpha    90
_cell_angle_beta     90
_cell_angle_gamma    90

_space_group_name_H-M_alt    "P 1"
_space_group_IT_number       1

loop_
  _space_group_symop_operation_xyz
  'x, y, z'

loop_
  _atom_site_type_symbol
  _atom_site_label
  _atom_site_symmetry_multiplicity
  _atom_site_fract_x
  _atom_site_fract_y
  _atom_site_fract_z
  _atom_site_occupancy
  Zr  Zr1       1.0  0.01490  0.01491  0.09312  1.0000
  Zr  Zr2       1.0  0.48511  0.48510  0.09312  1.0000
  Zr  Zr3       1.0  0.50000  0.00000  0.96795  1.0000
  Zr  Zr4       1.0  0.00000  0.50000  0.96795  1.0000
  Ni  Ni1       1.0  0.24999  0.24999  0.02581  1.0000
  Ni  Ni2       1.0  0.75000  0.75000  0.90386  1.0000
  Ni  Ni3       1.0  0.74997  0.24999  0.03606  1.0000
  Ni  Ni4       1.0  0.25000  0.75000  0.90386  1.0000
  Ni  Ni5       1.0  0.74999  0.75001  0.02586  1.0000
  Ni  Ni6       1.0  0.25000  0.25000  0.90386  1.0000
  Ni  Ni7       1.0  0.24999  0.74998  0.03607  1.0000
  Ni  Ni8       1.0  0.75000  0.25000  0.90386  1.0000
  Sb  Sb1       1.0  0.00000  0.00000  0.96795  1.0000
  Sb  Sb2       1.0  0.52889  0.97111  0.10262  1.0000
  Sb  Sb3       1.0  0.97112  0.52889  0.10262  1.0000
  Sb  Sb4       1.0  0.50000  0.50000  0.96795  1.0000
  C   C1        1.0  0.25000  0.25001  0.10886  1.0000
