data_image0
_chemical_formula_structural       Li8In8Ge8Au8CO
_chemical_formula_sum              "Li8 In8 Ge8 Au8 C1 O1"
_cell_length_a       8.57796
_cell_length_b       8.3947
_cell_length_c       26.3491
_cell_angle_alpha    90
_cell_angle_beta     90
_cell_angle_gamma    90

_space_group_name_H-M_alt    "P 1"
_space_group_IT_number       1

loop_
  _space_group_symop_operation_xyz
  'x, y, z'

loop_
  _atom_site_type_symbol
  _atom_site_label
  _atom_site_symmetry_multiplicity
  _atom_site_fract_x
  _atom_site_fract_y
  _atom_site_fract_z
  _atom_site_occupancy
  Li  Li1       1.0  0.00000  0.25951  0.03948  1.0000
  Li  Li2       1.0  0.00000  0.25000  0.87952  1.0000
  Li  Li3       1.0  0.00000  0.74048  0.03948  1.0000
  Li  Li4       1.0  0.00000  0.75000  0.87952  1.0000
  Li  Li5       1.0  0.49999  0.24682  0.04053  1.0000
  Li  Li6       1.0  0.50000  0.25000  0.87952  1.0000
  Li  Li7       1.0  0.50001  0.75319  0.04053  1.0000
  Li  Li8       1.0  0.50000  0.75000  0.87952  1.0000
  In  In1       1.0  0.24967  0.25366  0.13999  1.0000
  In  In2       1.0  0.25000  0.25000  0.95984  1.0000
  In  In3       1.0  0.24967  0.74633  0.13999  1.0000
  In  In4       1.0  0.25000  0.75000  0.95984  1.0000
  In  In5       1.0  0.75033  0.25367  0.13999  1.0000
  In  In6       1.0  0.75000  0.25000  0.95984  1.0000
  In  In7       1.0  0.75033  0.74634  0.13999  1.0000
  In  In8       1.0  0.75000  0.75000  0.95984  1.0000
  Ge  Ge1       1.0  0.25117  0.00000  0.03749  1.0000
  Ge  Ge2       1.0  0.25000  0.00000  0.87952  1.0000
  Ge  Ge3       1.0  0.25251  0.50000  0.03605  1.0000
  Ge  Ge4       1.0  0.25000  0.50000  0.87952  1.0000
  Ge  Ge5       1.0  0.74883  0.00001  0.03749  1.0000
  Ge  Ge6       1.0  0.75000  0.00000  0.87952  1.0000
  Ge  Ge7       1.0  0.74749  0.50000  0.03605  1.0000
  Ge  Ge8       1.0  0.75000  0.50000  0.87952  1.0000
  Au  Au1       1.0  0.00000  0.00000  0.10118  1.0000
  Au  Au2       1.0  0.00000  0.00000  0.95984  1.0000
  Au  Au3       1.0  0.00000  0.50000  0.11285  1.0000
  Au  Au4       1.0  0.00000  0.50000  0.95984  1.0000
  Au  Au5       1.0  0.50000  0.00000  0.11189  1.0000
  Au  Au6       1.0  0.50000  0.00000  0.95984  1.0000
  Au  Au7       1.0  0.50000  0.50000  0.10828  1.0000
  Au  Au8       1.0  0.50000  0.50000  0.95984  1.0000
  C   C1        1.0  0.00003  0.00001  0.24358  1.0000
  O   O1        1.0  0.99999  0.99999  0.28670  1.0000
