# generated using pymatgen
data_Li8Hf8Sn8Pd8C
_symmetry_space_group_name_H-M   Pm
_cell_length_a   6.67688000
_cell_length_b   9.44254000
_cell_length_c   27.08190000
_cell_angle_alpha   90.00000000
_cell_angle_beta   90.00000000
_cell_angle_gamma   90.00000000
_symmetry_Int_Tables_number   6
_chemical_formula_structural   Li8Hf8Sn8Pd8C
_chemical_formula_sum   'Li8 Hf8 Sn8 Pd8 C1'
_cell_volume   1707.42460009
_cell_formula_units_Z   1
loop_
 _symmetry_equiv_pos_site_id
 _symmetry_equiv_pos_as_xyz
  1  'x, y, z'
  2  'x, -y, z'
loop_
 _atom_site_type_symbol
 _atom_site_label
 _atom_site_symmetry_multiplicity
 _atom_site_fract_x
 _atom_site_fract_y
 _atom_site_fract_z
 _atom_site_occupancy
  Li  Li0  2  0.00000000  0.25000000  0.95642000  1.0
  Li  Li1  2  0.96303000  0.23013000  0.14743000  1.0
  Li  Li2  1  0.50000000  0.00000000  0.86925000  1.0
  Li  Li3  1  0.50000000  0.50000000  0.86925000  1.0
  Li  Li4  1  0.50027000  0.50000000  0.03628000  1.0
  Li  Li5  1  0.51355000  0.00000000  0.03866000  1.0
  Hf  Hf6  2  0.43909000  0.24768000  0.11458000  1.0
  Hf  Hf7  2  0.50000000  0.25000000  0.95642000  1.0
  Hf  Hf8  1  0.00000000  0.00000000  0.86925000  1.0
  Hf  Hf9  1  0.00000000  0.50000000  0.86925000  1.0
  Hf  Hf10  1  0.03391000  0.00000000  0.06126000  1.0
  Hf  Hf11  1  0.06732000  0.50000000  0.06768000  1.0
  Sn  Sn12  2  0.75000000  0.25000000  0.86925000  1.0
  Sn  Sn13  2  0.77881000  0.26468000  0.04412000  1.0
  Sn  Sn14  1  0.25000000  0.00000000  0.95642000  1.0
  Sn  Sn15  1  0.25000000  0.50000000  0.95642000  1.0
  Sn  Sn16  1  0.27234000  0.00000000  0.17354000  1.0
  Sn  Sn17  1  0.27669000  0.50000000  0.16231000  1.0
  Pd  Pd18  2  0.22599000  0.25158000  0.03216000  1.0
  Pd  Pd19  2  0.25000000  0.25000000  0.86925000  1.0
  Pd  Pd20  1  0.66341000  0.00000000  0.12687000  1.0
  Pd  Pd21  1  0.69048000  0.50000000  0.11494000  1.0
  Pd  Pd22  1  0.75000000  0.00000000  0.95642000  1.0
  Pd  Pd23  1  0.75000000  0.50000000  0.95642000  1.0
  C  C24  1  0.97935000  0.00000000  0.13573000  1.0
