# generated using pymatgen
data_Li4Sc4In4Ge4C
_symmetry_space_group_name_H-M   Pm
_cell_length_a   6.05318000
_cell_length_b   8.22048000
_cell_length_c   24.51760000
_cell_angle_alpha   90.00000000
_cell_angle_beta   90.00000000
_cell_angle_gamma   90.00000000
_symmetry_Int_Tables_number   6
_chemical_formula_structural   Li4Sc4In4Ge4C
_chemical_formula_sum   'Li4 Sc4 In4 Ge4 C1'
_cell_volume   1219.99688239
_cell_formula_units_Z   1
loop_
 _symmetry_equiv_pos_site_id
 _symmetry_equiv_pos_as_xyz
  1  'x, y, z'
  2  'x, -y, z'
loop_
 _atom_site_type_symbol
 _atom_site_label
 _atom_site_symmetry_multiplicity
 _atom_site_fract_x
 _atom_site_fract_y
 _atom_site_fract_z
 _atom_site_occupancy
  Li  Li0  1  0.50000000  0.00000000  0.90787000  1.0
  Li  Li1  1  0.50000000  0.50000000  0.90787000  1.0
  Li  Li2  1  0.93884000  0.00000000  0.02269000  1.0
  Li  Li3  1  0.93968000  0.50000000  0.03683000  1.0
  Sc  Sc4  2  0.22528000  0.25000000  0.96929000  1.0
  Sc  Sc5  2  0.62604000  0.21509000  0.09661000  1.0
  In  In6  2  0.12902000  0.20941000  0.11267000  1.0
  In  In7  2  0.72528000  0.25000000  0.96929000  1.0
  Ge  Ge8  1  -0.00000000  0.50000000  0.90787000  1.0
  Ge  Ge9  1  0.00000000  0.00000000  0.90787000  1.0
  Ge  Ge10  1  0.39442000  0.00000000  0.03024000  1.0
  Ge  Ge11  1  0.41857000  0.50000000  0.05044000  1.0
  C  C12  1  0.44535000  0.00000000  0.11496000  1.0
