# generated using pymatgen
data_Li4Al4Fe4Pd4CO
_symmetry_space_group_name_H-M   'P 1'
_cell_length_a   8.84236000
_cell_length_b   5.15535000
_cell_length_c   23.55420000
_cell_angle_alpha   90.00000000
_cell_angle_beta   90.00000000
_cell_angle_gamma   90.00000000
_symmetry_Int_Tables_number   1
_chemical_formula_structural   Li4Al4Fe4Pd4CO
_chemical_formula_sum   'Li4 Al4 Fe4 Pd4 C1 O1'
_cell_volume   1073.72905668
_cell_formula_units_Z   1
loop_
 _symmetry_equiv_pos_site_id
 _symmetry_equiv_pos_as_xyz
  1  'x, y, z'
loop_
 _atom_site_type_symbol
 _atom_site_label
 _atom_site_symmetry_multiplicity
 _atom_site_fract_x
 _atom_site_fract_y
 _atom_site_fract_z
 _atom_site_occupancy
  Li  Li0  1  0.24389000  0.66745000  0.97270000  1.0
  Li  Li1  1  0.25000000  0.95472000  0.07545000  1.0
  Li  Li2  1  0.75611000  0.66745000  0.97270000  1.0
  Li  Li3  1  0.75000000  0.95472000  0.07545000  1.0
  Al  Al4  1  0.00000000  0.01190000  0.92928000  1.0
  Al  Al5  1  0.00000000  0.30315000  0.02515000  1.0
  Al  Al6  1  0.50000000  0.04075000  0.92955000  1.0
  Al  Al7  1  0.50000000  0.30315000  0.02515000  1.0
  Fe  Fe8  1  0.00000000  0.51850000  0.93432000  1.0
  Fe  Fe9  1  0.00000000  0.80315000  0.02515000  1.0
  Fe  Fe10  1  0.50000000  0.57306000  0.94682000  1.0
  Fe  Fe11  1  0.50000000  0.80315000  0.02515000  1.0
  Pd  Pd12  1  0.24970000  0.16354000  0.97075000  1.0
  Pd  Pd13  1  0.25000000  0.45472000  0.07545000  1.0
  Pd  Pd14  1  0.75030000  0.16354000  0.97075000  1.0
  Pd  Pd15  1  0.75000000  0.45472000  0.07545000  1.0
  C  C16  1  0.00000000  0.48612000  0.85950000  1.0
  O  O17  1  0.00000000  0.47544000  0.80996000  1.0
