# generated using pymatgen
data_Li4Al4Fe4Pd4CO
_symmetry_space_group_name_H-M   Pm
_cell_length_a   5.15535000
_cell_length_b   8.84236000
_cell_length_c   23.55420000
_cell_angle_alpha   90.00000000
_cell_angle_beta   90.00000000
_cell_angle_gamma   90.00000000
_symmetry_Int_Tables_number   6
_chemical_formula_structural   Li4Al4Fe4Pd4CO
_chemical_formula_sum   'Li4 Al4 Fe4 Pd4 C1 O1'
_cell_volume   1073.72905668
_cell_formula_units_Z   1
loop_
 _symmetry_equiv_pos_site_id
 _symmetry_equiv_pos_as_xyz
  1  'x, y, z'
  2  'x, -y, z'
loop_
 _atom_site_type_symbol
 _atom_site_label
 _atom_site_symmetry_multiplicity
 _atom_site_fract_x
 _atom_site_fract_y
 _atom_site_fract_z
 _atom_site_occupancy
  Li  Li0  2  0.66745000  0.24389000  0.02730000  1.0
  Li  Li1  2  0.95472000  0.25000000  0.92455000  1.0
  Al  Al2  1  0.01190000  0.00000000  0.07072000  1.0
  Al  Al3  1  0.04075000  0.50000000  0.07045000  1.0
  Al  Al4  1  0.30315000  0.00000000  0.97485000  1.0
  Al  Al5  1  0.30315000  0.50000000  0.97485000  1.0
  Fe  Fe6  1  0.51850000  0.00000000  0.06568000  1.0
  Fe  Fe7  1  0.57306000  0.50000000  0.05318000  1.0
  Fe  Fe8  1  0.80315000  0.00000000  0.97485000  1.0
  Fe  Fe9  1  0.80315000  0.50000000  0.97485000  1.0
  Pd  Pd10  2  0.16354000  0.24970000  0.02925000  1.0
  Pd  Pd11  2  0.45472000  0.25000000  0.92455000  1.0
  C  C12  1  0.48612000  0.00000000  0.14050000  1.0
  O  O13  1  0.47544000  0.00000000  0.19004000  1.0
