# generated using pymatgen
data_Li4Y4In4Sn4CO
_symmetry_space_group_name_H-M   P1
_cell_length_a   6.33264000
_cell_length_b   9.36656000
_cell_length_c   24.74860000
_cell_angle_alpha   90.00000000
_cell_angle_beta   90.00000000
_cell_angle_gamma   90.00000000
_symmetry_Int_Tables_number   1
_chemical_formula_structural   Li4Y4In4Sn4CO
_chemical_formula_sum   'Li4 Y4 In4 Sn4 C1 O1'
_cell_volume   1467.96450876
_cell_formula_units_Z   1
loop_
 _symmetry_equiv_pos_site_id
 _symmetry_equiv_pos_as_xyz
  1  'x, y, z'
loop_
 _atom_site_type_symbol
 _atom_site_label
 _atom_site_symmetry_multiplicity
 _atom_site_fract_x
 _atom_site_fract_y
 _atom_site_fract_z
 _atom_site_occupancy
  Li  Li0  1  0.54490000  0.49998000  0.08677000  1.0
  Li  Li1  1  0.57315000  0.99997000  0.11459000  1.0
  Li  Li2  1  0.99032000  0.00000000  0.96802000  1.0
  Li  Li3  1  0.99032000  0.50000000  0.96802000  1.0
  Y  Y4  1  0.27392000  0.24485000  0.03436000  1.0
  Y  Y5  1  0.27432000  0.75514000  0.03424000  1.0
  Y  Y6  1  0.73548000  0.25000000  0.90406000  1.0
  Y  Y7  1  0.73548000  0.75000000  0.90406000  1.0
  In  In8  1  0.05737000  0.50019000  0.09174000  1.0
  In  In9  1  0.06332000  0.99960000  0.09957000  1.0
  In  In10  1  0.49032000  0.00000000  0.96802000  1.0
  In  In11  1  0.49032000  0.50000000  0.96802000  1.0
  Sn  Sn12  1  0.23548000  0.25000000  0.90406000  1.0
  Sn  Sn13  1  0.23548000  0.75000000  0.90406000  1.0
  Sn  Sn14  1  0.77950000  0.75277000  0.04888000  1.0
  Sn  Sn15  1  0.77951000  0.24731000  0.04878000  1.0
  C  C16  1  0.73702000  0.00001000  0.19175000  1.0
  O  O17  1  0.81310000  0.99999000  0.23363000  1.0
