# generated using pymatgen
data_ZrCu
_symmetry_space_group_name_H-M   'P 1'
_cell_length_a   3.31308000
_cell_length_b   3.31308000
_cell_length_c   24.96960000
_cell_angle_alpha   90.00000000
_cell_angle_beta   90.00000000
_cell_angle_gamma   90.00000000
_symmetry_Int_Tables_number   1
_chemical_formula_structural   ZrCu
_chemical_formula_sum   'Zr2 Cu2'
_cell_volume   274.07879159
_cell_formula_units_Z   2
loop_
 _symmetry_equiv_pos_site_id
 _symmetry_equiv_pos_as_xyz
  1  'x, y, z'
loop_
 _atom_site_type_symbol
 _atom_site_label
 _atom_site_symmetry_multiplicity
 _atom_site_fract_x
 _atom_site_fract_y
 _atom_site_fract_z
 _atom_site_occupancy
  Zr  Zr0  1  0.00000000  0.00000000  0.10545000  1.0
  Zr  Zr1  1  0.00000000  0.00000000  0.97276000  1.0
  Cu  Cu2  1  0.50000000  0.50000000  0.03910000  1.0
  Cu  Cu3  1  0.50000000  0.50000000  0.90642000  1.0
