# generated using pymatgen
data_Y8Zn8CO
_symmetry_space_group_name_H-M   P4mm
_cell_length_a   7.16718000
_cell_length_b   7.16718000
_cell_length_c   25.37540000
_cell_angle_alpha   90.00000000
_cell_angle_beta   90.00000000
_cell_angle_gamma   90.00000000
_symmetry_Int_Tables_number   99
_chemical_formula_structural   Y8Zn8CO
_chemical_formula_sum   'Y8 Zn8 C1 O1'
_cell_volume   1303.49545213
_cell_formula_units_Z   1
loop_
 _symmetry_equiv_pos_site_id
 _symmetry_equiv_pos_as_xyz
  1  'x, y, z'
  2  '-y, x, z'
  3  '-x, -y, z'
  4  'y, -x, z'
  5  '-x, y, z'
  6  'y, x, z'
  7  'x, -y, z'
  8  '-y, -x, z'
loop_
 _atom_site_type_symbol
 _atom_site_label
 _atom_site_symmetry_multiplicity
 _atom_site_fract_x
 _atom_site_fract_y
 _atom_site_fract_z
 _atom_site_occupancy
  Y  Y0  2  0.00000000  0.50000000  0.11130000  1.0
  Y  Y1  2  0.00000000  0.50000000  0.97008000  1.0
  Y  Y2  1  0.00000000  0.00000000  0.11130000  1.0
  Y  Y3  1  0.00000000  0.00000000  0.97008000  1.0
  Y  Y4  1  0.50000000  0.50000000  0.11130000  1.0
  Y  Y5  1  0.50000000  0.50000000  0.97008000  1.0
  Zn  Zn6  4  0.25000000  0.25000000  0.04069000  1.0
  Zn  Zn7  4  0.25000000  0.25000000  0.89947000  1.0
  C  C8  1  0.00000000  0.00000000  0.18618000  1.0
  O  O9  1  0.00000000  0.00000000  0.23150000  1.0
