# generated using pymatgen
data_Li4Mg4Ge4Pd4CO
_symmetry_space_group_name_H-M   'P 1'
_cell_length_a   6.25843000
_cell_length_b   6.25843000
_cell_length_c   24.69380000
_cell_angle_alpha   90.00000000
_cell_angle_beta   90.00000000
_cell_angle_gamma   90.00000000
_symmetry_Int_Tables_number   1
_chemical_formula_structural   Li4Mg4Ge4Pd4CO
_chemical_formula_sum   'Li4 Mg4 Ge4 Pd4 C1 O1'
_cell_volume   967.20542654
_cell_formula_units_Z   1
loop_
 _symmetry_equiv_pos_site_id
 _symmetry_equiv_pos_as_xyz
  1  'x, y, z'
loop_
 _atom_site_type_symbol
 _atom_site_label
 _atom_site_symmetry_multiplicity
 _atom_site_fract_x
 _atom_site_fract_y
 _atom_site_fract_z
 _atom_site_occupancy
  Li  Li0  1  0.24740000  0.25283000  0.96518000  1.0
  Li  Li1  1  0.25000000  0.75000000  0.09504000  1.0
  Li  Li2  1  0.75000000  0.25000000  0.09504000  1.0
  Li  Li3  1  0.75260000  0.74717000  0.96518000  1.0
  Mg  Mg4  1  0.00000000  0.50000000  0.89579000  1.0
  Mg  Mg5  1  0.00000000  0.00000000  0.03168000  1.0
  Mg  Mg6  1  0.50000000  0.50000000  0.03168000  1.0
  Mg  Mg7  1  0.50000000  0.00000000  0.89877000  1.0
  Ge  Ge8  1  0.00000000  0.00000000  0.90155000  1.0
  Ge  Ge9  1  0.00000000  0.50000000  0.03168000  1.0
  Ge  Ge10  1  0.50000000  0.00000000  0.03168000  1.0
  Ge  Ge11  1  0.50000000  0.50000000  0.90137000  1.0
  Pd  Pd12  1  0.75206000  0.25235000  0.96493000  1.0
  Pd  Pd13  1  0.75000000  0.75000000  0.09504000  1.0
  Pd  Pd14  1  0.25000000  0.25000000  0.09504000  1.0
  Pd  Pd15  1  0.24794000  0.74765000  0.96493000  1.0
  C  C16  1  0.00000000  0.50000000  0.80507000  1.0
  O  O17  1  0.00000000  0.50000000  0.75883000  1.0
