# generated using pymatgen
data_Li16Sb8Pd8CO
_symmetry_space_group_name_H-M   Pm
_cell_length_a   6.43375000
_cell_length_b   9.09870000
_cell_length_c   26.82400000
_cell_angle_alpha   90.00000000
_cell_angle_beta   90.00000000
_cell_angle_gamma   90.00000000
_symmetry_Int_Tables_number   6
_chemical_formula_structural   Li16Sb8Pd8CO
_chemical_formula_sum   'Li16 Sb8 Pd8 C1 O1'
_cell_volume   1570.24372842
_cell_formula_units_Z   1
loop_
 _symmetry_equiv_pos_site_id
 _symmetry_equiv_pos_as_xyz
  1  'x, y, z'
  2  'x, -y, z'
loop_
 _atom_site_type_symbol
 _atom_site_label
 _atom_site_symmetry_multiplicity
 _atom_site_fract_x
 _atom_site_fract_y
 _atom_site_fract_z
 _atom_site_occupancy
  Li  Li0  2  0.50000000  0.25000000  0.87280000  1.0
  Li  Li1  2  0.51220000  0.24917000  0.03804000  1.0
  Li  Li2  2  0.72595000  0.24891000  0.12772000  1.0
  Li  Li3  2  0.75000000  0.25000000  0.95760000  1.0
  Li  Li4  1  -0.00000000  0.50000000  0.95760000  1.0
  Li  Li5  1  0.00000000  0.00000000  0.95760000  1.0
  Li  Li6  1  0.02474000  0.50000000  0.12510000  1.0
  Li  Li7  1  0.02478000  0.00000000  0.12503000  1.0
  Li  Li8  1  0.25000000  0.00000000  0.87280000  1.0
  Li  Li9  1  0.25000000  0.50000000  0.87280000  1.0
  Li  Li10  1  0.25971000  0.00000000  0.04335000  1.0
  Li  Li11  1  0.26860000  0.50000000  0.04511000  1.0
  Sb  Sb12  2  0.00000000  0.25000000  0.87280000  1.0
  Sb  Sb13  2  0.99419000  0.25058000  0.04398000  1.0
  Sb  Sb14  1  0.48983000  0.00000000  0.13217000  1.0
  Sb  Sb15  1  0.49750000  0.50000000  0.13567000  1.0
  Sb  Sb16  1  0.50000000  0.00000000  0.95760000  1.0
  Sb  Sb17  1  0.50000000  0.50000000  0.95760000  1.0
  Pd  Pd18  2  0.25000000  0.25000000  0.95760000  1.0
  Pd  Pd19  2  0.28053000  0.25321000  0.11479000  1.0
  Pd  Pd20  1  0.74105000  0.50000000  0.04679000  1.0
  Pd  Pd21  1  0.74303000  0.00000000  0.04702000  1.0
  Pd  Pd22  1  0.75000000  0.00000000  0.87280000  1.0
  Pd  Pd23  1  0.75000000  0.50000000  0.87280000  1.0
  C  C24  1  0.99514000  0.00000000  0.20286000  1.0
  O  O25  1  0.99636000  0.00000000  0.24537000  1.0
