# generated using pymatgen
data_LiMgCuPd
_symmetry_space_group_name_H-M   Pm
_cell_length_a   5.46655000
_cell_length_b   7.95764000
_cell_length_c   24.09630000
_cell_angle_alpha   90.00000000
_cell_angle_beta   90.00000000
_cell_angle_gamma   90.00000000
_symmetry_Int_Tables_number   6
_chemical_formula_structural   LiMgCuPd
_chemical_formula_sum   'Li4 Mg4 Cu4 Pd4'
_cell_volume   1048.20921721
_cell_formula_units_Z   4
loop_
 _symmetry_equiv_pos_site_id
 _symmetry_equiv_pos_as_xyz
  1  'x, y, z'
  2  'x, -y, z'
loop_
 _atom_site_type_symbol
 _atom_site_label
 _atom_site_symmetry_multiplicity
 _atom_site_fract_x
 _atom_site_fract_y
 _atom_site_fract_z
 _atom_site_occupancy
  Li  Li0  2  0.50000000  0.25000000  0.91500000  1.0
  Li  Li1  2  0.97296000  0.25000000  0.02785000  1.0
  Mg  Mg2  1  0.23956000  0.00000000  0.97167000  1.0
  Mg  Mg3  1  0.23956000  0.50000000  0.97167000  1.0
  Mg  Mg4  1  0.70361000  0.50000000  0.08839000  1.0
  Mg  Mg5  1  0.70378000  0.00000000  0.08839000  1.0
  Cu  Cu6  2  0.00000000  0.25000000  0.91500000  1.0
  Cu  Cu7  2  0.47894000  0.25002000  0.02918000  1.0
  Pd  Pd8  1  0.20734000  0.50000000  0.07814000  1.0
  Pd  Pd9  1  0.20753000  0.00000000  0.07813000  1.0
  Pd  Pd10  1  0.73956000  0.00000000  0.97167000  1.0
  Pd  Pd11  1  0.73956000  0.50000000  0.97167000  1.0
