# generated using pymatgen
data_Li8Zn4Ge4CO
_symmetry_space_group_name_H-M   'P 1'
_cell_length_a   6.18893000
_cell_length_b   6.18893000
_cell_length_c   24.64170000
_cell_angle_alpha   90.00000000
_cell_angle_beta   90.00000000
_cell_angle_gamma   90.00000000
_symmetry_Int_Tables_number   1
_chemical_formula_structural   Li8Zn4Ge4CO
_chemical_formula_sum   'Li8 Zn4 Ge4 C1 O1'
_cell_volume   943.84745084
_cell_formula_units_Z   1
loop_
 _symmetry_equiv_pos_site_id
 _symmetry_equiv_pos_as_xyz
  1  'x, y, z'
loop_
 _atom_site_type_symbol
 _atom_site_label
 _atom_site_symmetry_multiplicity
 _atom_site_fract_x
 _atom_site_fract_y
 _atom_site_fract_z
 _atom_site_occupancy
  Li  Li0  1  0.00000000  0.00000000  0.11805000  1
  Li  Li1  1  0.50000000  0.50000000  0.11599000  1
  Li  Li2  1  0.00000000  0.50000000  0.96861000  1
  Li  Li3  1  0.50000000  1.00000000  0.96861000  1
  Li  Li4  1  0.74997000  0.25003000  0.90582000  1
  Li  Li5  1  0.24876000  0.24876000  0.03575000  1
  Li  Li6  1  0.25003000  0.74997000  0.90582000  1
  Li  Li7  1  0.75124000  0.75124000  0.03575000  1
  Zn  Zn8  1  0.75093500  0.24906500  0.03914000  1
  Zn  Zn9  1  0.25000000  0.25000000  0.90582000  1
  Zn  Zn10  1  0.24906500  0.75093500  0.03914000  1
  Zn  Zn11  1  0.75000000  0.75000000  0.90582000  1
  Ge  Ge12  1  0.00000000  0.00000000  0.96861000  1
  Ge  Ge13  1  0.00000000  0.50000000  0.09863000  1
  Ge  Ge14  1  0.50000000  1.00000000  0.09863000  1
  Ge  Ge15  1  0.50000000  0.50000000  0.96861000  1
  C  C16  1  0.00000000  0.00000000  0.20377000  1
  O  O17  1  0.00000000  0.00000000  0.24995000  1
