# generated using pymatgen
data_Li4Al4Ag4Pd4CO
_symmetry_space_group_name_H-M   'P 1'
_cell_length_a   6.21941000
_cell_length_b   6.21941000
_cell_length_c   24.66460000
_cell_angle_alpha   90.00000000
_cell_angle_beta   90.00000000
_cell_angle_gamma   90.00000000
_symmetry_Int_Tables_number   1
_chemical_formula_structural   Li4Al4Ag4Pd4CO
_chemical_formula_sum   'Li4 Al4 Ag4 Pd4 C1 O1'
_cell_volume   954.05289093
_cell_formula_units_Z   1
loop_
 _symmetry_equiv_pos_site_id
 _symmetry_equiv_pos_as_xyz
  1  'x, y, z'
loop_
 _atom_site_type_symbol
 _atom_site_label
 _atom_site_symmetry_multiplicity
 _atom_site_fract_x
 _atom_site_fract_y
 _atom_site_fract_z
 _atom_site_occupancy
  Li  Li0  1  0.25113500  0.74886500  0.03530000  1
  Li  Li1  1  0.74999500  0.74999500  0.90544000  1
  Li  Li2  1  0.25000500  0.25000500  0.90544000  1
  Li  Li3  1  0.74886500  0.25113500  0.03530000  1
  Al  Al4  1  0.25166500  0.25166500  0.03582000  1
  Al  Al5  1  0.75001500  0.24998500  0.90544000  1
  Al  Al6  1  0.24998500  0.75001500  0.90544000  1
  Al  Al7  1  0.74833500  0.74833500  0.03582000  1
  Ag  Ag8  1  0.50000000  0.50000000  0.10517000  1
  Ag  Ag9  1  0.00000000  0.50000000  0.96848000  1
  Ag  Ag10  1  0.50000000  0.00000000  0.96848000  1
  Ag  Ag11  1  0.00000000  0.00000000  0.10149000  1
  Pd  Pd12  1  0.00000000  0.50000000  0.08963000  1
  Pd  Pd13  1  0.50000000  0.50000000  0.96848000  1
  Pd  Pd14  1  0.00000000  0.00000000  0.96848000  1
  Pd  Pd15  1  0.50000000  0.00000000  0.08963000  1
  C  C16  1  0.50000000  0.50000000  0.19925000  1
  O  O17  1  0.50000000  0.50000000  0.24540000  1
