# generated using pymatgen
data_Li2MgIn
_symmetry_space_group_name_H-M   'P 1'
_cell_length_a   6.75535000
_cell_length_b   9.55351000
_cell_length_c   27.16510000
_cell_angle_alpha   90.00000000
_cell_angle_beta   90.00000000
_cell_angle_gamma   90.00000000
_symmetry_Int_Tables_number   1
_chemical_formula_structural   Li2MgIn
_chemical_formula_sum   'Li16 Mg8 In8'
_cell_volume   1753.16231087
_cell_formula_units_Z   8
loop_
 _symmetry_equiv_pos_site_id
 _symmetry_equiv_pos_as_xyz
  1  'x, y, z'
loop_
 _atom_site_type_symbol
 _atom_site_label
 _atom_site_symmetry_multiplicity
 _atom_site_fract_x
 _atom_site_fract_y
 _atom_site_fract_z
 _atom_site_occupancy
  Li  Li0  1  0.25000000  0.00000000  0.95604000  1.0
  Li  Li1  1  0.75000000  0.50000000  0.95604000  1.0
  Li  Li2  1  0.75000000  0.00000000  0.95604000  1.0
  Li  Li3  1  0.25000000  0.50000000  0.95604000  1.0
  Li  Li4  1  0.75000000  0.75000000  0.86812000  1.0
  Li  Li5  1  0.25000000  0.25000000  0.86812000  1.0
  Li  Li6  1  0.25000000  0.75000000  0.86812000  1.0
  Li  Li7  1  0.75000000  0.25000000  0.86812000  1.0
  Li  Li8  1  0.23831000  0.50009000  0.13700000  1.0
  Li  Li9  1  0.76155000  0.00000000  0.13707000  1.0
  Li  Li10  1  0.76167000  0.50011000  0.13700000  1.0
  Li  Li11  1  0.23842000  0.00002000  0.13707000  1.0
  Li  Li12  1  0.74872000  0.25002000  0.04202000  1.0
  Li  Li13  1  0.25126000  0.75002000  0.04203000  1.0
  Li  Li14  1  0.25126000  0.25001000  0.04203000  1.0
  Li  Li15  1  0.74872000  0.75001000  0.04203000  1.0
  Mg  Mg16  1  0.00000000  0.00000000  0.86812000  1.0
  Mg  Mg17  1  0.50000000  0.25000000  0.95604000  1.0
  Mg  Mg18  1  0.50000000  0.75000000  0.95604000  1.0
  Mg  Mg19  1  0.00000000  0.50000000  0.86812000  1.0
  Mg  Mg20  1  0.00000000  0.49993000  0.04566000  1.0
  Mg  Mg21  1  0.49995000  0.74984000  0.13027000  1.0
  Mg  Mg22  1  0.50008000  0.25000000  0.13028000  1.0
  Mg  Mg23  1  0.99999000  0.00011000  0.04573000  1.0
  In  In24  1  0.00000000  0.75000000  0.95604000  1.0
  In  In25  1  0.50000000  0.00000000  0.86812000  1.0
  In  In26  1  0.00000000  0.25000000  0.95604000  1.0
  In  In27  1  0.50000000  0.50000000  0.86812000  1.0
  In  In28  1  0.99996000  0.24997000  0.13121000  1.0
  In  In29  1  0.50002000  0.49992000  0.04703000  1.0
  In  In30  1  0.99996000  0.75019000  0.13135000  1.0
  In  In31  1  0.50002000  0.00007000  0.04707000  1.0
