# generated using pymatgen
data_Sc4Al4In4Pd4C
_symmetry_space_group_name_H-M   'P 1'
_cell_length_a   8.30234000
_cell_length_b   5.99150000
_cell_length_c   24.49130000
_cell_angle_alpha   90.00000000
_cell_angle_beta   90.00000000
_cell_angle_gamma   90.00000000
_symmetry_Int_Tables_number   1
_chemical_formula_structural   Sc4Al4In4Pd4C
_chemical_formula_sum   'Sc4 Al4 In4 Pd4 C1'
_cell_volume   1218.28224951
_cell_formula_units_Z   1
loop_
 _symmetry_equiv_pos_site_id
 _symmetry_equiv_pos_as_xyz
  1  'x, y, z'
loop_
 _atom_site_type_symbol
 _atom_site_label
 _atom_site_symmetry_multiplicity
 _atom_site_fract_x
 _atom_site_fract_y
 _atom_site_fract_z
 _atom_site_occupancy
  Sc  Sc0  1  0.50000000  0.25113000  0.03051000  1.0
  Sc  Sc1  1  0.50000000  0.77393000  0.90831000  1.0
  Sc  Sc2  1  0.00000000  0.25717000  0.03465000  1.0
  Sc  Sc3  1  0.00000000  0.77393000  0.90831000  1.0
  Al  Al4  1  0.73237000  0.05115000  0.10069000  1.0
  Al  Al5  1  0.75000000  0.51595000  0.96944000  1.0
  Al  Al6  1  0.26763000  0.05115000  0.10069000  1.0
  Al  Al7  1  0.25000000  0.51595000  0.96944000  1.0
  In  In8  1  0.50000000  0.75204000  0.03228000  1.0
  In  In9  1  0.50000000  0.27393000  0.90831000  1.0
  In  In10  1  0.00000000  0.77494000  0.04742000  1.0
  In  In11  1  0.00000000  0.27393000  0.90831000  1.0
  Pd  Pd12  1  0.75307000  0.48197000  0.07882000  1.0
  Pd  Pd13  1  0.75000000  0.01595000  0.96944000  1.0
  Pd  Pd14  1  0.24693000  0.48197000  0.07882000  1.0
  Pd  Pd15  1  0.25000000  0.01595000  0.96944000  1.0
  C  C16  1  0.50000000  0.01797000  0.09861000  1.0
