# generated using pymatgen
data_Mn8Sn4W4CO
_symmetry_space_group_name_H-M   P4mm
_cell_length_a   6.10490000
_cell_length_b   6.10490000
_cell_length_c   24.57870000
_cell_angle_alpha   90.00000000
_cell_angle_beta   90.00000000
_cell_angle_gamma   90.00000000
_symmetry_Int_Tables_number   99
_chemical_formula_structural   Mn8Sn4W4CO
_chemical_formula_sum   'Mn8 Sn4 W4 C1 O1'
_cell_volume   916.04333182
_cell_formula_units_Z   1
loop_
 _symmetry_equiv_pos_site_id
 _symmetry_equiv_pos_as_xyz
  1  'x, y, z'
  2  '-y, x, z'
  3  '-x, -y, z'
  4  'y, -x, z'
  5  '-x, y, z'
  6  'y, x, z'
  7  'x, -y, z'
  8  '-y, -x, z'
loop_
 _atom_site_type_symbol
 _atom_site_label
 _atom_site_symmetry_multiplicity
 _atom_site_fract_x
 _atom_site_fract_y
 _atom_site_fract_z
 _atom_site_occupancy
  Mn  Mn0  4  0.25000000  0.25000000  0.03105000  1.0
  Mn  Mn1  4  0.25000000  0.25000000  0.90686000  1.0
  Sn  Sn2  2  0.00000000  0.50000000  0.09314000  1.0
  Sn  Sn3  1  0.00000000  0.00000000  0.96895000  1.0
  Sn  Sn4  1  0.50000000  0.50000000  0.96895000  1.0
  W  W5  2  0.00000000  0.50000000  0.96895000  1.0
  W  W6  1  0.00000000  0.00000000  0.09314000  1.0
  W  W7  1  0.50000000  0.50000000  0.09314000  1.0
  C  C8  1  0.00000000  0.00000000  0.17045000  1.0
  O  O9  1  0.00000000  0.00000000  0.21723000  1.0
