# generated using pymatgen
data_Li8In8Cu8Ag8CO
_symmetry_space_group_name_H-M   'P 1'
_cell_length_a   9.06224000
_cell_length_b   6.40797000
_cell_length_c   26.79670000
_cell_angle_alpha   90.00000000
_cell_angle_beta   90.00000000
_cell_angle_gamma   90.00000000
_symmetry_Int_Tables_number   1
_chemical_formula_structural   Li8In8Cu8Ag8CO
_chemical_formula_sum   'Li8 In8 Cu8 Ag8 C1 O1'
_cell_volume   1556.09943016
_cell_formula_units_Z   1
loop_
 _symmetry_equiv_pos_site_id
 _symmetry_equiv_pos_as_xyz
  1  'x, y, z'
loop_
 _atom_site_type_symbol
 _atom_site_label
 _atom_site_symmetry_multiplicity
 _atom_site_fract_x
 _atom_site_fract_y
 _atom_site_fract_z
 _atom_site_occupancy
  Li  Li0  1  0.00000000  0.75000000  0.04227000  1.0
  Li  Li1  1  0.50000000  0.75000000  0.04227000  1.0
  Li  Li2  1  0.25000000  0.25000000  0.12682000  1.0
  Li  Li3  1  0.75000000  0.25000000  0.12682000  1.0
  Li  Li4  1  0.50000000  0.74990000  0.86565000  1.0
  Li  Li5  1  0.00000000  0.73817000  0.85906000  1.0
  Li  Li6  1  0.75113000  0.24001000  0.95563000  1.0
  Li  Li7  1  0.24887000  0.24001000  0.95563000  1.0
  In  In8  1  0.25000000  0.00000000  0.04227000  1.0
  In  In9  1  0.75000000  0.00000000  0.04227000  1.0
  In  In10  1  0.50000000  0.50000000  0.12682000  1.0
  In  In11  1  0.00000000  0.50000000  0.12682000  1.0
  In  In12  1  0.75009000  0.01182000  0.86104000  1.0
  In  In13  1  0.24991000  0.01182000  0.86104000  1.0
  In  In14  1  0.00000000  0.50971000  0.95601000  1.0
  In  In15  1  0.50000000  0.50503000  0.95700000  1.0
  Cu  Cu16  1  0.00000000  0.25000000  0.04227000  1.0
  Cu  Cu17  1  0.50000000  0.25000000  0.04227000  1.0
  Cu  Cu18  1  0.25000000  0.75000000  0.12682000  1.0
  Cu  Cu19  1  0.75000000  0.75000000  0.12682000  1.0
  Cu  Cu20  1  0.50000000  0.23756000  0.87643000  1.0
  Cu  Cu21  1  0.00000000  0.24020000  0.87647000  1.0
  Cu  Cu22  1  0.74879000  0.75831000  0.95425000  1.0
  Cu  Cu23  1  0.25121000  0.75831000  0.95425000  1.0
  Ag  Ag24  1  0.00000000  0.00000000  0.12682000  1.0
  Ag  Ag25  1  0.50000000  1.00000000  0.12682000  1.0
  Ag  Ag26  1  0.75000000  0.50000000  0.04227000  1.0
  Ag  Ag27  1  0.25000000  0.50000000  0.04227000  1.0
  Ag  Ag28  1  0.50000000  0.99536000  0.95882000  1.0
  Ag  Ag29  1  0.00000000  0.98907000  0.95728000  1.0
  Ag  Ag30  1  0.25297000  0.49152000  0.87396000  1.0
  Ag  Ag31  1  0.74703000  0.49152000  0.87396000  1.0
  C  C32  1  0.00000000  0.72208000  0.78094000  1.0
  O  O33  1  0.00000000  0.72078000  0.73837000  1.0
