# generated using pymatgen
data_Li8In8Cu8Ag8CO
_symmetry_space_group_name_H-M   Pm
_cell_length_a   6.40797000
_cell_length_b   9.06224000
_cell_length_c   26.79670000
_cell_angle_alpha   90.00000000
_cell_angle_beta   90.00000000
_cell_angle_gamma   90.00000000
_symmetry_Int_Tables_number   6
_chemical_formula_structural   Li8In8Cu8Ag8CO
_chemical_formula_sum   'Li8 In8 Cu8 Ag8 C1 O1'
_cell_volume   1556.09943016
_cell_formula_units_Z   1
loop_
 _symmetry_equiv_pos_site_id
 _symmetry_equiv_pos_as_xyz
  1  'x, y, z'
  2  'x, -y, z'
loop_
 _atom_site_type_symbol
 _atom_site_label
 _atom_site_symmetry_multiplicity
 _atom_site_fract_x
 _atom_site_fract_y
 _atom_site_fract_z
 _atom_site_occupancy
  Li  Li0  2  0.24001000  0.24887000  0.04437000  1.0
  Li  Li1  2  0.25000000  0.25000000  0.87318000  1.0
  Li  Li2  1  0.73817000  0.00000000  0.14094000  1.0
  Li  Li3  1  0.74990000  0.50000000  0.13435000  1.0
  Li  Li4  1  0.75000000  0.00000000  0.95773000  1.0
  Li  Li5  1  0.75000000  0.50000000  0.95773000  1.0
  In  In6  2  0.00000000  0.25000000  0.95773000  1.0
  In  In7  2  0.01182000  0.24991000  0.13896000  1.0
  In  In8  1  0.50000000  0.00000000  0.87318000  1.0
  In  In9  1  0.50000000  0.50000000  0.87318000  1.0
  In  In10  1  0.50503000  0.50000000  0.04300000  1.0
  In  In11  1  0.50971000  0.00000000  0.04399000  1.0
  Cu  Cu12  2  0.75000000  0.25000000  0.87318000  1.0
  Cu  Cu13  2  0.75831000  0.25121000  0.04575000  1.0
  Cu  Cu14  1  0.23756000  0.50000000  0.12357000  1.0
  Cu  Cu15  1  0.24020000  0.00000000  0.12353000  1.0
  Cu  Cu16  1  0.25000000  0.00000000  0.95773000  1.0
  Cu  Cu17  1  0.25000000  0.50000000  0.95773000  1.0
  Ag  Ag18  2  0.49152000  0.25297000  0.12604000  1.0
  Ag  Ag19  2  0.50000000  0.25000000  0.95773000  1.0
  Ag  Ag20  1  -0.00000000  0.50000000  0.87318000  1.0
  Ag  Ag21  1  0.00000000  0.00000000  0.87318000  1.0
  Ag  Ag22  1  0.98907000  0.00000000  0.04272000  1.0
  Ag  Ag23  1  0.99536000  0.50000000  0.04118000  1.0
  C  C24  1  0.72208000  0.00000000  0.21906000  1.0
  O  O25  1  0.72078000  0.00000000  0.26163000  1.0
