# generated using pymatgen
data_In4Pd12CO
_symmetry_space_group_name_H-M   'P 1'
_cell_length_a   8.16408000
_cell_length_b   5.77288000
_cell_length_c   24.32970000
_cell_angle_alpha   90.00000000
_cell_angle_beta   90.00000000
_cell_angle_gamma   90.00000000
_symmetry_Int_Tables_number   1
_chemical_formula_structural   In4Pd12CO
_chemical_formula_sum   'In4 Pd12 C1 O1'
_cell_volume   1146.66494440
_cell_formula_units_Z   1
loop_
 _symmetry_equiv_pos_site_id
 _symmetry_equiv_pos_as_xyz
  1  'x, y, z'
loop_
 _atom_site_type_symbol
 _atom_site_label
 _atom_site_symmetry_multiplicity
 _atom_site_fract_x
 _atom_site_fract_y
 _atom_site_fract_z
 _atom_site_occupancy
  In  In0  1  0.75000000  0.00000000  0.91102000  1.0
  In  In1  1  0.75084000  0.49762000  0.03117000  1.0
  In  In2  1  0.25000000  0.00000000  0.91102000  1.0
  In  In3  1  0.24916000  0.49762000  0.03117000  1.0
  Pd  Pd4  1  0.75000000  0.50000000  0.91102000  1.0
  Pd  Pd5  1  0.50000000  0.25000000  0.97034000  1.0
  Pd  Pd6  1  0.50000000  0.75000000  0.97034000  1.0
  Pd  Pd7  1  0.74917000  0.99863000  0.02889000  1.0
  Pd  Pd8  1  0.50000000  0.76090000  0.08744000  1.0
  Pd  Pd9  1  0.50000000  0.26042000  0.08563000  1.0
  Pd  Pd10  1  0.25000000  0.50000000  0.91102000  1.0
  Pd  Pd11  1  0.00000000  0.25000000  0.97034000  1.0
  Pd  Pd12  1  0.00000000  0.75000000  0.97034000  1.0
  Pd  Pd13  1  0.25083000  0.99863000  0.02889000  1.0
  Pd  Pd14  1  0.00000000  0.74657000  0.08468000  1.0
  Pd  Pd15  1  0.00000000  0.24622000  0.08471000  1.0
  C  C16  1  0.50000000  0.74028000  0.16637000  1.0
  O  O17  1  0.50000000  0.74831000  0.21359000  1.0
