# generated using pymatgen
data_Li8Ge8Pd16CO
_symmetry_space_group_name_H-M   Pmm2
_cell_length_a   6.13924000
_cell_length_b   8.68219000
_cell_length_c   26.51160000
_cell_angle_alpha   90.00000000
_cell_angle_beta   90.00000000
_cell_angle_gamma   90.00000000
_symmetry_Int_Tables_number   25
_chemical_formula_structural   Li8Ge8Pd16CO
_chemical_formula_sum   'Li8 Ge8 Pd16 C1 O1'
_cell_volume   1413.12257935
_cell_formula_units_Z   1
loop_
 _symmetry_equiv_pos_site_id
 _symmetry_equiv_pos_as_xyz
  1  'x, y, z'
  2  '-x, -y, z'
  3  '-x, y, z'
  4  'x, -y, z'
loop_
 _atom_site_type_symbol
 _atom_site_label
 _atom_site_symmetry_multiplicity
 _atom_site_fract_x
 _atom_site_fract_y
 _atom_site_fract_z
 _atom_site_occupancy
  Li  Li0  2  0.00000000  0.25000000  0.87719000  1.0
  Li  Li1  2  0.00000000  0.25020000  0.03847000  1.0
  Li  Li2  1  0.50000000  0.00000000  0.13490000  1.0
  Li  Li3  1  0.50000000  0.00000000  0.95906000  1.0
  Li  Li4  1  0.50000000  0.50000000  0.13334000  1.0
  Li  Li5  1  0.50000000  0.50000000  0.95906000  1.0
  Ge  Ge6  2  0.50000000  0.24976000  0.04219000  1.0
  Ge  Ge7  2  0.50000000  0.25000000  0.87719000  1.0
  Ge  Ge8  1  0.00000000  0.00000000  0.12269000  1.0
  Ge  Ge9  1  0.00000000  0.00000000  0.95906000  1.0
  Ge  Ge10  1  0.00000000  0.50000000  0.12372000  1.0
  Ge  Ge11  1  0.00000000  0.50000000  0.95906000  1.0
  Pd  Pd12  4  0.23338000  0.25125000  0.11661000  1.0
  Pd  Pd13  4  0.25000000  0.25000000  0.95906000  1.0
  Pd  Pd14  2  0.25000000  0.50000000  0.87719000  1.0
  Pd  Pd15  2  0.25000000  0.00000000  0.87719000  1.0
  Pd  Pd16  2  0.25082000  0.00000000  0.04088000  1.0
  Pd  Pd17  2  0.25113000  0.50000000  0.04054000  1.0
  C  C18  1  0.50000000  0.00000000  0.21525000  1.0
  O  O19  1  0.50000000  0.00000000  0.25814000  1.0
