# generated using pymatgen
data_Ti16Os16CO
_symmetry_space_group_name_H-M   Pm
_cell_length_a   6.19423000
_cell_length_b   8.75996000
_cell_length_c   26.57000000
_cell_angle_alpha   90.00000000
_cell_angle_beta   90.00000000
_cell_angle_gamma   90.00000000
_symmetry_Int_Tables_number   6
_chemical_formula_structural   Ti16Os16CO
_chemical_formula_sum   'Ti16 Os16 C1 O1'
_cell_volume   1441.72027081
_cell_formula_units_Z   1
loop_
 _symmetry_equiv_pos_site_id
 _symmetry_equiv_pos_as_xyz
  1  'x, y, z'
  2  'x, -y, z'
loop_
 _atom_site_type_symbol
 _atom_site_label
 _atom_site_symmetry_multiplicity
 _atom_site_fract_x
 _atom_site_fract_y
 _atom_site_fract_z
 _atom_site_occupancy
  Ti  Ti0  2  0.25000000  0.25000000  0.87636000  1.0
  Ti  Ti1  2  0.25005000  0.24948000  0.04291000  1.0
  Ti  Ti2  2  0.75000000  0.25000000  0.87636000  1.0
  Ti  Ti3  2  0.75001000  0.25013000  0.04291000  1.0
  Ti  Ti4  1  0.24987000  0.00000000  0.12648000  1.0
  Ti  Ti5  1  0.25000000  0.00000000  0.95879000  1.0
  Ti  Ti6  1  0.25000000  0.50000000  0.95879000  1.0
  Ti  Ti7  1  0.25005000  0.50000000  0.12493000  1.0
  Ti  Ti8  1  0.74998000  0.00000000  0.12523000  1.0
  Ti  Ti9  1  0.75000000  0.00000000  0.95879000  1.0
  Ti  Ti10  1  0.75000000  0.50000000  0.95879000  1.0
  Ti  Ti11  1  0.75004000  0.50000000  0.12520000  1.0
  Os  Os12  2  -0.00000000  0.25000000  0.95879000  1.0
  Os  Os13  2  0.50000000  0.25000000  0.95879000  1.0
  Os  Os14  2  0.50060000  0.25184000  0.11898000  1.0
  Os  Os15  2  0.99943000  0.25184000  0.11897000  1.0
  Os  Os16  1  -0.00000000  0.50000000  0.87636000  1.0
  Os  Os17  1  0.00000000  0.00000000  0.87636000  1.0
  Os  Os18  1  0.00016000  0.50000000  0.04076000  1.0
  Os  Os19  1  0.49993000  0.50000000  0.04076000  1.0
  Os  Os20  1  0.50000000  0.00000000  0.87636000  1.0
  Os  Os21  1  0.50000000  0.50000000  0.87636000  1.0
  Os  Os22  1  0.50137000  0.00000000  0.04042000  1.0
  Os  Os23  1  0.99862000  0.00000000  0.04042000  1.0
  C  C24  1  0.24797000  0.00000000  0.20682000  1.0
  O  O25  1  0.24768000  0.00000000  0.25015000  1.0
