# generated using pymatgen
data_Y4In4Au8CO
_symmetry_space_group_name_H-M   P1
_cell_length_a   7.06522000
_cell_length_b   7.06522000
_cell_length_c   25.29890000
_cell_angle_alpha   90.00000000
_cell_angle_beta   90.00000000
_cell_angle_gamma   90.00000000
_symmetry_Int_Tables_number   1
_chemical_formula_structural   Y4In4Au8CO
_chemical_formula_sum   'Y4 In4 Au8 C1 O1'
_cell_volume   1262.85363224
_cell_formula_units_Z   1
loop_
 _symmetry_equiv_pos_site_id
 _symmetry_equiv_pos_as_xyz
  1  'x, y, z'
loop_
 _atom_site_type_symbol
 _atom_site_label
 _atom_site_symmetry_multiplicity
 _atom_site_fract_x
 _atom_site_fract_y
 _atom_site_fract_z
 _atom_site_occupancy
  Y  Y0  1  0.00000000  0.50000000  0.96509000  1.0
  Y  Y1  1  0.00018000  0.00006000  0.10069000  1.0
  Y  Y2  1  0.49961000  0.50058000  0.10042000  1.0
  Y  Y3  1  0.50000000  0.00000000  0.96509000  1.0
  In  In4  1  0.00000000  0.00000000  0.96509000  1.0
  In  In5  1  0.50000000  0.50000000  0.96509000  1.0
  In  In6  1  0.50105000  0.00015000  0.11251000  1.0
  In  In7  1  0.99999000  0.50077000  0.11245000  1.0
  Au  Au8  1  0.25000000  0.25000000  0.89527000  1.0
  Au  Au9  1  0.25000000  0.75000000  0.89527000  1.0
  Au  Au10  1  0.25019000  0.25026000  0.04014000  1.0
  Au  Au11  1  0.25038000  0.75013000  0.04010000  1.0
  Au  Au12  1  0.74954000  0.74994000  0.03997000  1.0
  Au  Au13  1  0.74986000  0.25064000  0.03999000  1.0
  Au  Au14  1  0.75000000  0.25000000  0.89527000  1.0
  Au  Au15  1  0.75000000  0.75000000  0.89527000  1.0
  C  C16  1  0.95980000  0.44418000  0.28753000  1.0
  O  O17  1  0.02613000  0.53328000  0.31979000  1.0
