# generated using pymatgen
data_Li4Sc4In4Ge4C
_symmetry_space_group_name_H-M   'P 1'
_cell_length_a   8.12626000
_cell_length_b   6.08490000
_cell_length_c   24.54620000
_cell_angle_alpha   90.00000000
_cell_angle_beta   90.00000000
_cell_angle_gamma   90.00000000
_symmetry_Int_Tables_number   1
_chemical_formula_structural   Li4Sc4In4Ge4C
_chemical_formula_sum   'Li4 Sc4 In4 Ge4 C1'
_cell_volume   1213.74772066
_cell_formula_units_Z   1
loop_
 _symmetry_equiv_pos_site_id
 _symmetry_equiv_pos_as_xyz
  1  'x, y, z'
loop_
 _atom_site_type_symbol
 _atom_site_label
 _atom_site_symmetry_multiplicity
 _atom_site_fract_x
 _atom_site_fract_y
 _atom_site_fract_z
 _atom_site_occupancy
  Li  Li0  1  0.50000000  0.23259000  0.04560000  1.0
  Li  Li1  1  0.50000000  0.81559000  0.90740000  1.0
  Li  Li2  1  0.00000000  0.26383000  0.02910000  1.0
  Li  Li3  1  0.00000000  0.81559000  0.90740000  1.0
  Sc  Sc4  1  0.50000000  0.72991000  0.03019000  1.0
  Sc  Sc5  1  0.50000000  0.31559000  0.90740000  1.0
  Sc  Sc6  1  0.00000000  0.77249000  0.03605000  1.0
  Sc  Sc7  1  0.00000000  0.31559000  0.90740000  1.0
  In  In8  1  0.77333000  0.47085000  0.09704000  1.0
  In  In9  1  0.74998000  0.04372000  0.96913000  1.0
  In  In10  1  0.22667000  0.47085000  0.09704000  1.0
  In  In11  1  0.25002000  0.04372000  0.96913000  1.0
  Ge  Ge12  1  0.73207000  0.97743000  0.10181000  1.0
  Ge  Ge13  1  0.74998000  0.54372000  0.96913000  1.0
  Ge  Ge14  1  0.26793000  0.97743000  0.10181000  1.0
  Ge  Ge15  1  0.25002000  0.54372000  0.96913000  1.0
  C  C16  1  0.50000000  0.94890000  0.09885000  1.0
