# generated using pymatgen
data_Li4Sc4In4Ge4C
_symmetry_space_group_name_H-M   Pm
_cell_length_a   6.08490000
_cell_length_b   8.12626000
_cell_length_c   24.54620000
_cell_angle_alpha   90.00000000
_cell_angle_beta   90.00000000
_cell_angle_gamma   90.00000000
_symmetry_Int_Tables_number   6
_chemical_formula_structural   Li4Sc4In4Ge4C
_chemical_formula_sum   'Li4 Sc4 In4 Ge4 C1'
_cell_volume   1213.74772066
_cell_formula_units_Z   1
loop_
 _symmetry_equiv_pos_site_id
 _symmetry_equiv_pos_as_xyz
  1  'x, y, z'
  2  'x, -y, z'
loop_
 _atom_site_type_symbol
 _atom_site_label
 _atom_site_symmetry_multiplicity
 _atom_site_fract_x
 _atom_site_fract_y
 _atom_site_fract_z
 _atom_site_occupancy
  Li  Li0  1  0.23259000  0.50000000  0.95440000  1.0
  Li  Li1  1  0.26383000  0.00000000  0.97090000  1.0
  Li  Li2  1  0.81559000  0.00000000  0.09260000  1.0
  Li  Li3  1  0.81559000  0.50000000  0.09260000  1.0
  Sc  Sc4  1  0.31559000  0.00000000  0.09260000  1.0
  Sc  Sc5  1  0.31559000  0.50000000  0.09260000  1.0
  Sc  Sc6  1  0.72991000  0.50000000  0.96981000  1.0
  Sc  Sc7  1  0.77249000  0.00000000  0.96395000  1.0
  In  In8  2  0.04372000  0.25002000  0.03087000  1.0
  In  In9  2  0.47085000  0.22667000  0.90296000  1.0
  Ge  Ge10  2  0.54372000  0.25002000  0.03087000  1.0
  Ge  Ge11  2  0.97743000  0.26793000  0.89819000  1.0
  C  C12  1  0.94890000  0.50000000  0.90115000  1.0
