# generated using pymatgen
data_Nb12Si4C
_symmetry_space_group_name_H-M   'P 1'
_cell_length_a   8.14544000
_cell_length_b   5.75970000
_cell_length_c   24.31980000
_cell_angle_alpha   90.00000000
_cell_angle_beta   90.00000000
_cell_angle_gamma   90.00000000
_symmetry_Int_Tables_number   1
_chemical_formula_structural   Nb12Si4C
_chemical_formula_sum   'Nb12 Si4 C1'
_cell_volume   1140.97048842
_cell_formula_units_Z   1
loop_
 _symmetry_equiv_pos_site_id
 _symmetry_equiv_pos_as_xyz
  1  'x, y, z'
loop_
 _atom_site_type_symbol
 _atom_site_label
 _atom_site_symmetry_multiplicity
 _atom_site_fract_x
 _atom_site_fract_y
 _atom_site_fract_z
 _atom_site_occupancy
  Nb  Nb0  1  0.74551000  0.53958000  0.09118000  1.0
  Nb  Nb1  1  0.50000000  0.27280000  0.03201000  1.0
  Nb  Nb2  1  0.50000000  0.78227000  0.03343000  1.0
  Nb  Nb3  1  0.75000000  0.00000000  0.97040000  1.0
  Nb  Nb4  1  0.50000000  0.75000000  0.91119000  1.0
  Nb  Nb5  1  0.50000000  0.25000000  0.91119000  1.0
  Nb  Nb6  1  0.25449000  0.53958000  0.09118000  1.0
  Nb  Nb7  1  0.00000000  0.27354000  0.03043000  1.0
  Nb  Nb8  1  0.00000000  0.77680000  0.03089000  1.0
  Nb  Nb9  1  0.25000000  0.00000000  0.97040000  1.0
  Nb  Nb10  1  0.00000000  0.75000000  0.91119000  1.0
  Nb  Nb11  1  0.00000000  0.25000000  0.91119000  1.0
  Si  Si12  1  0.76013000  0.03152000  0.08290000  1.0
  Si  Si13  1  0.75000000  0.50000000  0.97040000  1.0
  Si  Si14  1  0.23987000  0.03152000  0.08290000  1.0
  Si  Si15  1  0.25000000  0.50000000  0.97040000  1.0
  C  C16  1  0.50000000  0.52388000  0.10092000  1.0
