# generated using pymatgen
data_V4Ga4Ni8CO
_symmetry_space_group_name_H-M   'P 1'
_cell_length_a   5.82350000
_cell_length_b   5.82350000
_cell_length_c   24.36760000
_cell_angle_alpha   90.00000000
_cell_angle_beta   90.00000000
_cell_angle_gamma   90.00000000
_symmetry_Int_Tables_number   1
_chemical_formula_structural   V4Ga4Ni8CO
_chemical_formula_sum   'V4 Ga4 Ni8 C1 O1'
_cell_volume   826.38212877
_cell_formula_units_Z   1
loop_
 _symmetry_equiv_pos_site_id
 _symmetry_equiv_pos_as_xyz
  1  'x, y, z'
loop_
 _atom_site_type_symbol
 _atom_site_label
 _atom_site_symmetry_multiplicity
 _atom_site_fract_x
 _atom_site_fract_y
 _atom_site_fract_z
 _atom_site_occupancy
  V  V0  1  0.00000000  0.99999000  0.90829000  1.0
  V  V1  1  0.50000000  0.50000000  0.90829000  1.0
  V  V2  1  0.50000000  0.00000000  0.02987000  1.0
  V  V3  1  0.00000000  0.50000000  0.02987000  1.0
  Ga  Ga4  1  0.00000000  0.00000000  0.02987000  1.0
  Ga  Ga5  1  0.50000000  0.00002000  0.90804000  1.0
  Ga  Ga6  1  0.00000000  0.49995000  0.91315000  1.0
  Ga  Ga7  1  0.50000000  0.50000000  0.02987000  1.0
  Ni  Ni8  1  0.74653000  0.24647000  0.97019000  1.0
  Ni  Ni9  1  0.24999000  0.75000000  0.08962000  1.0
  Ni  Ni10  1  0.25347000  0.24647000  0.97019000  1.0
  Ni  Ni11  1  0.75001000  0.75000000  0.08962000  1.0
  Ni  Ni12  1  0.25344000  0.75348000  0.97020000  1.0
  Ni  Ni13  1  0.74999000  0.25000000  0.08962000  1.0
  Ni  Ni14  1  0.74656000  0.75348000  0.97020000  1.0
  Ni  Ni15  1  0.25001000  0.25000000  0.08962000  1.0
  C  C16  1  0.00000000  0.50002000  0.82962000  1.0
  O  O17  1  0.00000000  0.50002000  0.78222000  1.0
