# generated using pymatgen
data_Li8Y8Ag8Sn8CO
_symmetry_space_group_name_H-M   'P 1'
_cell_length_a   7.11214000
_cell_length_b   10.05810000
_cell_length_c   27.54360000
_cell_angle_alpha   90.00000000
_cell_angle_beta   90.00000000
_cell_angle_gamma   90.00000000
_symmetry_Int_Tables_number   1
_chemical_formula_structural   Li8Y8Ag8Sn8CO
_chemical_formula_sum   'Li8 Y8 Ag8 Sn8 C1 O1'
_cell_volume   1970.32083091
_cell_formula_units_Z   1
loop_
 _symmetry_equiv_pos_site_id
 _symmetry_equiv_pos_as_xyz
  1  'x, y, z'
loop_
 _atom_site_type_symbol
 _atom_site_label
 _atom_site_symmetry_multiplicity
 _atom_site_fract_x
 _atom_site_fract_y
 _atom_site_fract_z
 _atom_site_occupancy
  Li  Li0  1  0.25000000  0.00000000  0.95435000  1.0
  Li  Li1  1  0.25000000  0.50000000  0.95435000  1.0
  Li  Li2  1  0.75000000  0.25000000  0.86306000  1.0
  Li  Li3  1  0.75000000  0.75000000  0.86306000  1.0
  Li  Li4  1  0.24459000  0.49999000  0.13305000  1.0
  Li  Li5  1  0.25043000  0.00001000  0.13613000  1.0
  Li  Li6  1  0.75730000  0.75138000  0.04530000  1.0
  Li  Li7  1  0.75732000  0.24862000  0.04530000  1.0
  Y  Y8  1  0.75000000  0.00000000  0.95435000  1.0
  Y  Y9  1  0.75000000  0.50000000  0.95435000  1.0
  Y  Y10  1  0.25000000  0.25000000  0.86306000  1.0
  Y  Y11  1  0.25000000  0.75000000  0.86306000  1.0
  Y  Y12  1  0.76533000  0.50002000  0.14233000  1.0
  Y  Y13  1  0.76195000  0.99998000  0.13988000  1.0
  Y  Y14  1  0.24844000  0.74759000  0.04641000  1.0
  Y  Y15  1  0.24837000  0.25239000  0.04641000  1.0
  Ag  Ag16  1  0.00000000  0.00000000  0.86306000  1.0
  Ag  Ag17  1  0.00000000  0.50000000  0.86306000  1.0
  Ag  Ag18  1  0.50000000  0.75000000  0.95435000  1.0
  Ag  Ag19  1  0.50000000  0.25000000  0.95435000  1.0
  Ag  Ag20  1  0.98627000  0.50003000  0.04824000  1.0
  Ag  Ag21  1  0.99724000  0.00000000  0.04730000  1.0
  Ag  Ag22  1  0.51652000  0.25339000  0.12979000  1.0
  Ag  Ag23  1  0.51640000  0.74660000  0.12982000  1.0
  Sn  Sn24  1  0.00000000  0.25000000  0.95435000  1.0
  Sn  Sn25  1  0.00000000  0.75000000  0.95435000  1.0
  Sn  Sn26  1  0.50000000  0.50000000  0.86306000  1.0
  Sn  Sn27  1  0.50000000  0.00000000  0.86306000  1.0
  Sn  Sn28  1  0.01697000  0.75020000  0.14306000  1.0
  Sn  Sn29  1  0.01690000  0.24980000  0.14306000  1.0
  Sn  Sn30  1  0.50358000  0.00002000  0.04933000  1.0
  Sn  Sn31  1  0.51439000  0.49996000  0.04994000  1.0
  C  C32  1  0.33182000  0.00001000  0.20881000  1.0
  O  O33  1  0.35650000  0.00000000  0.25002000  1.0
