# generated using pymatgen
data_Sc8Al8Ag16CO
_symmetry_space_group_name_H-M   'P 1'
_cell_length_a   6.65011000
_cell_length_b   9.40467000
_cell_length_c   27.05350000
_cell_angle_alpha   90.00000000
_cell_angle_beta   90.00000000
_cell_angle_gamma   90.00000000
_symmetry_Int_Tables_number   1
_chemical_formula_structural   Sc8Al8Ag16CO
_chemical_formula_sum   'Sc8 Al8 Ag16 C1 O1'
_cell_volume   1691.98243219
_cell_formula_units_Z   1
loop_
 _symmetry_equiv_pos_site_id
 _symmetry_equiv_pos_as_xyz
  1  'x, y, z'
loop_
 _atom_site_type_symbol
 _atom_site_label
 _atom_site_symmetry_multiplicity
 _atom_site_fract_x
 _atom_site_fract_y
 _atom_site_fract_z
 _atom_site_occupancy
  Sc  Sc0  1  0.00000000  0.75000000  0.86964000  1.0
  Sc  Sc1  1  0.50000000  0.00000000  0.95655000  1.0
  Sc  Sc2  1  0.50000000  0.50000000  0.95655000  1.0
  Sc  Sc3  1  0.00000000  0.25000000  0.86964000  1.0
  Sc  Sc4  1  0.00000000  0.25317000  0.04462000  1.0
  Sc  Sc5  1  0.50000000  0.50000000  0.13285000  1.0
  Sc  Sc6  1  0.50000000  0.00000000  0.12887000  1.0
  Sc  Sc7  1  0.00000000  0.74683000  0.04462000  1.0
  Al  Al8  1  0.00000000  0.50000000  0.95655000  1.0
  Al  Al9  1  0.50000000  0.75000000  0.86964000  1.0
  Al  Al10  1  0.00000000  0.00000000  0.95655000  1.0
  Al  Al11  1  0.50000000  0.25000000  0.86964000  1.0
  Al  Al12  1  0.00000000  0.00000000  0.12536000  1.0
  Al  Al13  1  0.50000000  0.24831000  0.04487000  1.0
  Al  Al14  1  0.00000000  0.50000000  0.12472000  1.0
  Al  Al15  1  0.50000000  0.75169000  0.04487000  1.0
  Ag  Ag16  1  0.25000000  0.75000000  0.95655000  1.0
  Ag  Ag17  1  0.75000000  0.25000000  0.95655000  1.0
  Ag  Ag18  1  0.75000000  0.75000000  0.95655000  1.0
  Ag  Ag19  1  0.25000000  0.25000000  0.95655000  1.0
  Ag  Ag20  1  0.75000000  0.50000000  0.86964000  1.0
  Ag  Ag21  1  0.25000000  0.00000000  0.86964000  1.0
  Ag  Ag22  1  0.25000000  0.50000000  0.86964000  1.0
  Ag  Ag23  1  0.75000000  0.00000000  0.86964000  1.0
  Ag  Ag24  1  0.23537000  0.25073000  0.13414000  1.0
  Ag  Ag25  1  0.76463000  0.74927000  0.13414000  1.0
  Ag  Ag26  1  0.76463000  0.25073000  0.13414000  1.0
  Ag  Ag27  1  0.23537000  0.74927000  0.13414000  1.0
  Ag  Ag28  1  0.75103000  0.00000000  0.04169000  1.0
  Ag  Ag29  1  0.26237000  0.50000000  0.04334000  1.0
  Ag  Ag30  1  0.24897000  0.00000000  0.04169000  1.0
  Ag  Ag31  1  0.73763000  0.50000000  0.04334000  1.0
  C  C32  1  0.50000000  0.00000000  0.21311000  1.0
  O  O33  1  0.50000000  0.00000000  0.25557000  1.0
