# generated using pymatgen
data_Sc8In24C
_symmetry_space_group_name_H-M   P4mm
_cell_length_a   9.13703000
_cell_length_b   9.13703000
_cell_length_c   26.85280000
_cell_angle_alpha   90.00000000
_cell_angle_beta   90.00000000
_cell_angle_gamma   90.00000000
_symmetry_Int_Tables_number   99
_chemical_formula_structural   Sc8In24C
_chemical_formula_sum   'Sc8 In24 C1'
_cell_volume   2241.81452627
_cell_formula_units_Z   1
loop_
 _symmetry_equiv_pos_site_id
 _symmetry_equiv_pos_as_xyz
  1  'x, y, z'
  2  '-y, x, z'
  3  '-x, -y, z'
  4  'y, -x, z'
  5  '-x, y, z'
  6  'y, x, z'
  7  'x, -y, z'
  8  '-y, -x, z'
loop_
 _atom_site_type_symbol
 _atom_site_label
 _atom_site_symmetry_multiplicity
 _atom_site_fract_x
 _atom_site_fract_y
 _atom_site_fract_z
 _atom_site_occupancy
  Sc  Sc0  2  0.00000000  0.50000000  0.04253000  1.0
  Sc  Sc1  2  0.00000000  0.50000000  0.87240000  1.0
  Sc  Sc2  1  0.00000000  0.00000000  0.04253000  1.0
  Sc  Sc3  1  0.00000000  0.00000000  0.87240000  1.0
  Sc  Sc4  1  0.50000000  0.50000000  0.04253000  1.0
  Sc  Sc5  1  0.50000000  0.50000000  0.87240000  1.0
  In  In6  4  0.00000000  0.25000000  0.12760000  1.0
  In  In7  4  0.00000000  0.25000000  0.95747000  1.0
  In  In8  4  0.25000000  0.25000000  0.04253000  1.0
  In  In9  4  0.25000000  0.25000000  0.87240000  1.0
  In  In10  4  0.25000000  0.50000000  0.12760000  1.0
  In  In11  4  0.25000000  0.50000000  0.95747000  1.0
  C  C12  1  0.00000000  0.00000000  0.15739000  1.0
