data_image0
_chemical_formula_structural       Y8In8Cu8Sn8C
_chemical_formula_sum              "Y8 In8 Cu8 Sn8 C1"
_cell_length_a       9.14612
_cell_length_b       8.8285
_cell_length_c       26.6356
_cell_angle_alpha    90
_cell_angle_beta     90
_cell_angle_gamma    90

_space_group_name_H-M_alt    "P 1"
_space_group_IT_number       1

loop_
  _space_group_symop_operation_xyz
  'x, y, z'

loop_
  _atom_site_type_symbol
  _atom_site_label
  _atom_site_symmetry_multiplicity
  _atom_site_fract_x
  _atom_site_fract_y
  _atom_site_fract_z
  _atom_site_occupancy
  Y   Y1        1.0  0.25000  0.25000  0.87544  1.0000
  Y   Y2        1.0  0.21754  0.24110  0.04937  1.0000
  Y   Y3        1.0  0.25000  0.75000  0.87544  1.0000
  Y   Y4        1.0  0.26553  0.75046  0.04373  1.0000
  Y   Y5        1.0  0.75000  0.25000  0.87544  1.0000
  Y   Y6        1.0  0.78244  0.24112  0.04937  1.0000
  Y   Y7        1.0  0.75000  0.75000  0.87544  1.0000
  Y   Y8        1.0  0.73451  0.75050  0.04372  1.0000
  In  In1       1.0  0.00000  0.25000  0.95848  1.0000
  In  In2       1.0  0.00001  0.33971  0.15753  1.0000
  In  In3       1.0  0.00000  0.75000  0.95848  1.0000
  In  In4       1.0  0.00001  0.68125  0.11549  1.0000
  In  In5       1.0  0.50000  0.25000  0.95848  1.0000
  In  In6       1.0  0.50003  0.15684  0.12457  1.0000
  In  In7       1.0  0.50000  0.75000  0.95848  1.0000
  In  In8       1.0  0.50000  0.81496  0.13556  1.0000
  Cu  Cu1       1.0  0.00000  0.00000  0.87544  1.0000
  Cu  Cu2       1.0  0.99998  0.97540  0.03798  1.0000
  Cu  Cu3       1.0  0.00000  0.50000  0.87544  1.0000
  Cu  Cu4       1.0  0.00001  0.50652  0.02482  1.0000
  Cu  Cu5       1.0  0.50000  0.00000  0.87544  1.0000
  Cu  Cu6       1.0  0.50000  0.99983  0.03007  1.0000
  Cu  Cu7       1.0  0.50000  0.50000  0.87544  1.0000
  Cu  Cu8       1.0  0.49998  0.49074  0.03423  1.0000
  Sn  Sn1       1.0  0.25000  0.00000  0.95848  1.0000
  Sn  Sn2       1.0  0.16715  0.99663  0.13994  1.0000
  Sn  Sn3       1.0  0.25000  0.50000  0.95848  1.0000
  Sn  Sn4       1.0  0.33100  0.49895  0.12685  1.0000
  Sn  Sn5       1.0  0.75000  0.00000  0.95848  1.0000
  Sn  Sn6       1.0  0.83278  0.99663  0.13994  1.0000
  Sn  Sn7       1.0  0.75000  0.50000  0.95848  1.0000
  Sn  Sn8       1.0  0.66910  0.49896  0.12683  1.0000
  C   C1        1.0  0.00005  0.14755  0.08859  1.0000
