# generated using pymatgen
data_Mg16Ag16C
_symmetry_space_group_name_H-M   Pm
_cell_length_a   6.75388000
_cell_length_b   9.55143000
_cell_length_c   27.16360000
_cell_angle_alpha   90.00000000
_cell_angle_beta   90.00000000
_cell_angle_gamma   90.00000000
_symmetry_Int_Tables_number   6
_chemical_formula_structural   Mg16Ag16C
_chemical_formula_sum   'Mg16 Ag16 C1'
_cell_volume   1752.30243240
_cell_formula_units_Z   1
loop_
 _symmetry_equiv_pos_site_id
 _symmetry_equiv_pos_as_xyz
  1  'x, y, z'
  2  'x, -y, z'
loop_
 _atom_site_type_symbol
 _atom_site_label
 _atom_site_symmetry_multiplicity
 _atom_site_fract_x
 _atom_site_fract_y
 _atom_site_fract_z
 _atom_site_occupancy
  Mg  Mg0  2  0.25000000  0.25000000  0.95605000  1.0
  Mg  Mg1  2  0.25125000  0.23050000  0.13264000  1.0
  Mg  Mg2  2  0.74968000  0.26562000  0.13331000  1.0
  Mg  Mg3  2  0.75000000  0.25000000  0.95605000  1.0
  Mg  Mg4  1  0.25000000  0.00000000  0.86814000  1.0
  Mg  Mg5  1  0.25000000  0.50000000  0.86814000  1.0
  Mg  Mg6  1  0.25050000  0.50000000  0.04192000  1.0
  Mg  Mg7  1  0.25078000  0.00000000  0.04563000  1.0
  Mg  Mg8  1  0.74951000  0.00000000  0.04368000  1.0
  Mg  Mg9  1  0.74959000  0.50000000  0.04486000  1.0
  Mg  Mg10  1  0.75000000  0.00000000  0.86814000  1.0
  Mg  Mg11  1  0.75000000  0.50000000  0.86814000  1.0
  Ag  Ag12  2  0.00000000  0.25000000  0.86814000  1.0
  Ag  Ag13  2  0.50000000  0.25000000  0.86814000  1.0
  Ag  Ag14  2  0.50318000  0.25430000  0.04195000  1.0
  Ag  Ag15  2  0.99701000  0.25416000  0.04212000  1.0
  Ag  Ag16  1  0.00000000  0.00000000  0.95605000  1.0
  Ag  Ag17  1  0.00000000  0.50000000  0.95605000  1.0
  Ag  Ag18  1  0.02328000  0.50000000  0.12988000  1.0
  Ag  Ag19  1  0.47684000  0.50000000  0.13006000  1.0
  Ag  Ag20  1  0.50000000  0.00000000  0.95605000  1.0
  Ag  Ag21  1  0.50000000  0.50000000  0.95605000  1.0
  Ag  Ag22  1  0.55581000  0.00000000  0.13831000  1.0
  Ag  Ag23  1  0.94689000  0.00000000  0.13780000  1.0
  C  C24  1  0.25164000  0.00000000  0.12720000  1.0
