# generated using pymatgen
data_Li4Al4Ge4Pd4C
_symmetry_space_group_name_H-M   'P 1'
_cell_length_a   5.69495000
_cell_length_b   7.42946000
_cell_length_c   24.27100000
_cell_angle_alpha   90.00000000
_cell_angle_beta   90.00000000
_cell_angle_gamma   90.00000000
_symmetry_Int_Tables_number   1
_chemical_formula_structural   Li4Al4Ge4Pd4C
_chemical_formula_sum   'Li4 Al4 Ge4 Pd4 C1'
_cell_volume   1026.91579672
_cell_formula_units_Z   1
loop_
 _symmetry_equiv_pos_site_id
 _symmetry_equiv_pos_as_xyz
  1  'x, y, z'
loop_
 _atom_site_type_symbol
 _atom_site_label
 _atom_site_symmetry_multiplicity
 _atom_site_fract_x
 _atom_site_fract_y
 _atom_site_fract_z
 _atom_site_occupancy
  Li  Li0  1  0.50000000  0.00000000  0.08799000  1.0
  Li  Li1  1  0.07971000  0.99998000  0.97703000  1.0
  Li  Li2  1  0.50000000  0.50000000  0.08799000  1.0
  Li  Li3  1  0.11606000  0.49967000  0.94445000  1.0
  Al  Al4  1  0.00000000  0.00000000  0.08799000  1.0
  Al  Al5  1  0.59104000  0.00041000  0.97141000  1.0
  Al  Al6  1  0.00000000  0.50000000  0.08799000  1.0
  Al  Al7  1  0.58269000  0.49868000  0.96050000  1.0
  Ge  Ge8  1  0.25264000  0.75000000  0.02933000  1.0
  Ge  Ge9  1  0.89810000  0.75585000  0.90259000  1.0
  Ge  Ge10  1  0.25264000  0.25000000  0.02933000  1.0
  Ge  Ge11  1  0.89125000  0.24774000  0.90228000  1.0
  Pd  Pd12  1  0.75264000  0.75000000  0.02933000  1.0
  Pd  Pd13  1  0.38363000  0.76510000  0.92012000  1.0
  Pd  Pd14  1  0.75264000  0.25000000  0.02933000  1.0
  Pd  Pd15  1  0.37983000  0.23290000  0.91987000  1.0
  C  C16  1  0.83481000  0.00149000  0.91125000  1.0
