data_image0
_chemical_formula_structural       Sc8Ga24CO
_chemical_formula_sum              "Sc8 Ga24 C1 O1"
_cell_length_a       8.31483
_cell_length_b       8.31483
_cell_length_c       26.2361
_cell_angle_alpha    90
_cell_angle_beta     90
_cell_angle_gamma    90

_space_group_name_H-M_alt    "P 1"
_space_group_IT_number       1

loop_
  _space_group_symop_operation_xyz
  'x, y, z'

loop_
  _atom_site_type_symbol
  _atom_site_label
  _atom_site_symmetry_multiplicity
  _atom_site_fract_x
  _atom_site_fract_y
  _atom_site_fract_z
  _atom_site_occupancy
  Sc  Sc1       1.0  0.00254  0.00254  0.11392  1.0000
  Sc  Sc2       1.0  0.00000  0.00000  0.96038  1.0000
  Sc  Sc3       1.0  0.00244  0.49755  0.11393  1.0000
  Sc  Sc4       1.0  0.00000  0.50000  0.96038  1.0000
  Sc  Sc5       1.0  0.49748  0.00245  0.11392  1.0000
  Sc  Sc6       1.0  0.50000  0.00000  0.96038  1.0000
  Sc  Sc7       1.0  0.49745  0.49745  0.11391  1.0000
  Sc  Sc8       1.0  0.50000  0.50000  0.96038  1.0000
  Ga  Ga1       1.0  0.99142  0.24988  0.03812  1.0000
  Ga  Ga2       1.0  0.24997  0.99121  0.03814  1.0000
  Ga  Ga3       1.0  0.25003  0.25000  0.12762  1.0000
  Ga  Ga4       1.0  0.00000  0.25000  0.88115  1.0000
  Ga  Ga5       1.0  0.25000  0.00000  0.88115  1.0000
  Ga  Ga6       1.0  0.25000  0.25000  0.96038  1.0000
  Ga  Ga7       1.0  0.99731  0.75006  0.03960  1.0000
  Ga  Ga8       1.0  0.25011  0.50878  0.03813  1.0000
  Ga  Ga9       1.0  0.24997  0.75002  0.12109  1.0000
  Ga  Ga10      1.0  0.00000  0.75000  0.88115  1.0000
  Ga  Ga11      1.0  0.25000  0.50000  0.88115  1.0000
  Ga  Ga12      1.0  0.25000  0.75000  0.96038  1.0000
  Ga  Ga13      1.0  0.50860  0.25009  0.03812  1.0000
  Ga  Ga14      1.0  0.75012  0.99730  0.03958  1.0000
  Ga  Ga15      1.0  0.75004  0.25001  0.12098  1.0000
  Ga  Ga16      1.0  0.50000  0.25000  0.88115  1.0000
  Ga  Ga17      1.0  0.75000  0.00000  0.88115  1.0000
  Ga  Ga18      1.0  0.75000  0.25000  0.96038  1.0000
  Ga  Ga19      1.0  0.50274  0.74998  0.03959  1.0000
  Ga  Ga20      1.0  0.74993  0.50271  0.03958  1.0000
  Ga  Ga21      1.0  0.74999  0.75000  0.12344  1.0000
  Ga  Ga22      1.0  0.50000  0.75000  0.88115  1.0000
  Ga  Ga23      1.0  0.75000  0.50000  0.88115  1.0000
  Ga  Ga24      1.0  0.75000  0.75000  0.96038  1.0000
  C   C1        1.0  0.24998  0.25000  0.20702  1.0000
  O   O1        1.0  0.24999  0.25000  0.25121  1.0000
