# generated using pymatgen
data_Sc8Ga24CO
_symmetry_space_group_name_H-M   'P 1'
_cell_length_a   8.31483000
_cell_length_b   8.31483000
_cell_length_c   26.23610000
_cell_angle_alpha   90.00000000
_cell_angle_beta   90.00000000
_cell_angle_gamma   90.00000000
_symmetry_Int_Tables_number   1
_chemical_formula_structural   Sc8Ga24CO
_chemical_formula_sum   'Sc8 Ga24 C1 O1'
_cell_volume   1813.86944970
_cell_formula_units_Z   1
loop_
 _symmetry_equiv_pos_site_id
 _symmetry_equiv_pos_as_xyz
  1  'x, y, z'
loop_
 _atom_site_type_symbol
 _atom_site_label
 _atom_site_symmetry_multiplicity
 _atom_site_fract_x
 _atom_site_fract_y
 _atom_site_fract_z
 _atom_site_occupancy
  Sc  Sc0  1  0.99951000  0.99933000  0.11461000  1.0
  Sc  Sc1  1  0.00000000  0.00000000  0.96038000  1.0
  Sc  Sc2  1  0.99990000  0.50036000  0.11336000  1.0
  Sc  Sc3  1  0.00000000  0.50000000  0.96038000  1.0
  Sc  Sc4  1  0.49992000  0.00020000  0.11329000  1.0
  Sc  Sc5  1  0.50000000  0.00000000  0.96038000  1.0
  Sc  Sc6  1  0.50052000  0.50086000  0.11456000  1.0
  Sc  Sc7  1  0.50000000  0.50000000  0.96038000  1.0
  Ga  Ga8  1  0.00987000  0.24852000  0.03956000  1.0
  Ga  Ga9  1  0.24886000  0.01098000  0.03936000  1.0
  Ga  Ga10  1  0.24961000  0.25058000  0.12992000  1.0
  Ga  Ga11  1  0.00000000  0.25000000  0.88115000  1.0
  Ga  Ga12  1  0.25000000  0.00000000  0.88115000  1.0
  Ga  Ga13  1  0.25000000  0.25000000  0.96038000  1.0
  Ga  Ga14  1  0.00004000  0.75189000  0.03923000  1.0
  Ga  Ga15  1  0.25153000  0.48869000  0.03947000  1.0
  Ga  Ga16  1  0.25002000  0.74986000  0.11972000  1.0
  Ga  Ga17  1  0.00000000  0.75000000  0.88115000  1.0
  Ga  Ga18  1  0.25000000  0.50000000  0.88115000  1.0
  Ga  Ga19  1  0.25000000  0.75000000  0.96038000  1.0
  Ga  Ga20  1  0.49033000  0.25145000  0.03941000  1.0
  Ga  Ga21  1  0.75153000  0.00044000  0.03938000  1.0
  Ga  Ga22  1  0.75001000  0.24997000  0.11972000  1.0
  Ga  Ga23  1  0.50000000  0.25000000  0.88115000  1.0
  Ga  Ga24  1  0.75000000  0.00000000  0.88115000  1.0
  Ga  Ga25  1  0.75000000  0.25000000  0.96038000  1.0
  Ga  Ga26  1  0.50037000  0.74885000  0.03930000  1.0
  Ga  Ga27  1  0.74829000  0.49943000  0.03919000  1.0
  Ga  Ga28  1  0.74956000  0.75051000  0.12258000  1.0
  Ga  Ga29  1  0.50000000  0.75000000  0.88115000  1.0
  Ga  Ga30  1  0.75000000  0.50000000  0.88115000  1.0
  Ga  Ga31  1  0.75000000  0.75000000  0.96038000  1.0
  C  C32  1  0.25062000  0.24913000  0.24450000  1.0
  O  O33  1  0.24967000  0.25040000  0.28788000  1.0
