# generated using pymatgen
data_Cu8Ni16Sn8C
_symmetry_space_group_name_H-M   'P 1'
_cell_length_a   6.01864000
_cell_length_b   8.51164000
_cell_length_c   26.38370000
_cell_angle_alpha   90.00000000
_cell_angle_beta   90.00000000
_cell_angle_gamma   90.00000000
_symmetry_Int_Tables_number   1
_chemical_formula_structural   Cu8Ni16Sn8C
_chemical_formula_sum   'Cu8 Ni16 Sn8 C1'
_cell_volume   1351.59729550
_cell_formula_units_Z   1
loop_
 _symmetry_equiv_pos_site_id
 _symmetry_equiv_pos_as_xyz
  1  'x, y, z'
loop_
 _atom_site_type_symbol
 _atom_site_label
 _atom_site_symmetry_multiplicity
 _atom_site_fract_x
 _atom_site_fract_y
 _atom_site_fract_z
 _atom_site_occupancy
  Cu  Cu0  1  0.00000000  0.00000000  0.87902000  1.0
  Cu  Cu1  1  0.50000000  0.25000000  0.95967000  1.0
  Cu  Cu2  1  0.50000000  0.75000000  0.95967000  1.0
  Cu  Cu3  1  0.00000000  0.50000000  0.87902000  1.0
  Cu  Cu4  1  0.99880000  0.50514000  0.03876000  1.0
  Cu  Cu5  1  0.48499000  0.75264000  0.11873000  1.0
  Cu  Cu6  1  0.53095000  0.24938000  0.11854000  1.0
  Cu  Cu7  1  0.99834000  0.99517000  0.03846000  1.0
  Ni  Ni8  1  0.25000000  0.00000000  0.95967000  1.0
  Ni  Ni9  1  0.75000000  0.50000000  0.95967000  1.0
  Ni  Ni10  1  0.75000000  0.00000000  0.95967000  1.0
  Ni  Ni11  1  0.25000000  0.50000000  0.95967000  1.0
  Ni  Ni12  1  0.75000000  0.75000000  0.87902000  1.0
  Ni  Ni13  1  0.25000000  0.25000000  0.87902000  1.0
  Ni  Ni14  1  0.25000000  0.75000000  0.87902000  1.0
  Ni  Ni15  1  0.75000000  0.25000000  0.87902000  1.0
  Ni  Ni16  1  0.21090000  0.46512000  0.12094000  1.0
  Ni  Ni17  1  0.76720000  0.99909000  0.11637000  1.0
  Ni  Ni18  1  0.76535000  0.50202000  0.11662000  1.0
  Ni  Ni19  1  0.21210000  0.03246000  0.12048000  1.0
  Ni  Ni20  1  0.77438000  0.25017000  0.04333000  1.0
  Ni  Ni21  1  0.24307000  0.75028000  0.04103000  1.0
  Ni  Ni22  1  0.21259000  0.25004000  0.05086000  1.0
  Ni  Ni23  1  0.75428000  0.75008000  0.04320000  1.0
  Sn  Sn24  1  0.00000000  0.75000000  0.95967000  1.0
  Sn  Sn25  1  0.50000000  0.00000000  0.87902000  1.0
  Sn  Sn26  1  0.00000000  0.25000000  0.95967000  1.0
  Sn  Sn27  1  0.50000000  0.50000000  0.87902000  1.0
  Sn  Sn28  1  0.90490000  0.25012000  0.17378000  1.0
  Sn  Sn29  1  0.49455000  0.49620000  0.04150000  1.0
  Sn  Sn30  1  0.00968000  0.74965000  0.13037000  1.0
  Sn  Sn31  1  0.49556000  0.00443000  0.04115000  1.0
  C  C32  1  0.20788000  0.24884000  0.12305000  1.0
