# generated using pymatgen
data_Li8Al8Ag8Sn8CO
_symmetry_space_group_name_H-M   'P 1'
_cell_length_a   8.16098000
_cell_length_b   8.66686000
_cell_length_c   26.42010000
_cell_angle_alpha   90.00000000
_cell_angle_beta   90.00000000
_cell_angle_gamma   90.00000000
_symmetry_Int_Tables_number   1
_chemical_formula_structural   Li8Al8Ag8Sn8CO
_chemical_formula_sum   'Li8 Al8 Ag8 Sn8 C1 O1'
_cell_volume   1868.69555207
_cell_formula_units_Z   1
loop_
 _symmetry_equiv_pos_site_id
 _symmetry_equiv_pos_as_xyz
  1  'x, y, z'
loop_
 _atom_site_type_symbol
 _atom_site_label
 _atom_site_symmetry_multiplicity
 _atom_site_fract_x
 _atom_site_fract_y
 _atom_site_fract_z
 _atom_site_occupancy
  Li  Li0  1  0.75000000  1.00000000  0.04050000  1.0
  Li  Li1  1  0.74998000  0.99993000  0.88272000  1.0
  Li  Li2  1  0.25000000  1.00000000  0.04050000  1.0
  Li  Li3  1  0.25004000  0.99993000  0.88272000  1.0
  Li  Li4  1  0.75000000  0.50000000  0.04050000  1.0
  Li  Li5  1  0.74999000  0.50012000  0.88272000  1.0
  Li  Li6  1  0.25000000  0.50000000  0.04050000  1.0
  Li  Li7  1  0.25004000  0.50012000  0.88272000  1.0
  Al  Al8  1  0.75000000  0.75000000  0.12150000  1.0
  Al  Al9  1  0.74903000  0.75003000  0.95891000  1.0
  Al  Al10  1  0.25000000  0.75000000  0.12150000  1.0
  Al  Al11  1  0.25099000  0.75003000  0.95891000  1.0
  Al  Al12  1  0.75000000  0.25000000  0.12150000  1.0
  Al  Al13  1  0.74989000  0.25003000  0.95881000  1.0
  Al  Al14  1  0.25000000  0.25000000  0.12150000  1.0
  Al  Al15  1  0.25014000  0.25003000  0.95881000  1.0
  Ag  Ag16  1  0.00000000  0.00000000  0.12150000  1.0
  Ag  Ag17  1  0.00001000  0.99983000  0.95865000  1.0
  Ag  Ag18  1  0.50000000  1.00000000  0.12150000  1.0
  Ag  Ag19  1  0.50002000  0.99981000  0.95838000  1.0
  Ag  Ag20  1  0.00000000  0.50000000  0.12150000  1.0
  Ag  Ag21  1  0.00001000  0.50022000  0.95865000  1.0
  Ag  Ag22  1  0.50000000  0.50000000  0.12150000  1.0
  Ag  Ag23  1  0.50001000  0.50024000  0.95838000  1.0
  Sn  Sn24  1  0.00000000  0.75000000  0.04050000  1.0
  Sn  Sn25  1  0.00001000  0.75003000  0.87842000  1.0
  Sn  Sn26  1  0.50000000  0.75000000  0.04050000  1.0
  Sn  Sn27  1  0.50001000  0.75003000  0.87775000  1.0
  Sn  Sn28  1  0.00000000  0.25000000  0.04050000  1.0
  Sn  Sn29  1  0.00001000  0.25002000  0.87835000  1.0
  Sn  Sn30  1  0.50000000  0.25000000  0.04050000  1.0
  Sn  Sn31  1  0.50001000  0.25003000  0.87798000  1.0
  C  C32  1  0.99943000  0.74868000  0.71567000  1.0
  O  O33  1  0.00005000  0.75018000  0.67271000  1.0
