data_image0
_chemical_formula_structural       OsVOsVOsVOsVOsVOsVOsVOsV
_chemical_formula_sum              "Os8 V8"
_cell_length_a       6.04788
_cell_length_b       6.04788
_cell_length_c       24.5359
_cell_angle_alpha    90
_cell_angle_beta     90
_cell_angle_gamma    90

_space_group_name_H-M_alt    "P 1"
_space_group_IT_number       1

loop_
  _space_group_symop_operation_xyz
  'x, y, z'

loop_
  _atom_site_type_symbol
  _atom_site_label
  _atom_site_symmetry_multiplicity
  _atom_site_fract_x
  _atom_site_fract_y
  _atom_site_fract_z
  _atom_site_occupancy
  Os  Os1       1.0  0.00000  0.00000  0.88977  1.0000
  V   V1        1.0  0.25000  0.25000  0.95139  1.0000
  Os  Os2       1.0  0.00000  0.00000  0.01302  1.0000
  V   V2        1.0  0.25000  0.25000  0.07464  1.0000
  Os  Os3       1.0  0.00000  0.50000  0.88977  1.0000
  V   V3        1.0  0.25000  0.75000  0.95139  1.0000
  Os  Os4       1.0  0.00000  0.50000  0.01302  1.0000
  V   V4        1.0  0.25000  0.75000  0.07464  1.0000
  Os  Os5       1.0  0.50000  0.00000  0.88977  1.0000
  V   V5        1.0  0.75000  0.25000  0.95139  1.0000
  Os  Os6       1.0  0.50000  0.00000  0.01302  1.0000
  V   V6        1.0  0.75000  0.25000  0.07464  1.0000
  Os  Os7       1.0  0.50000  0.50000  0.88977  1.0000
  V   V7        1.0  0.75000  0.75000  0.95139  1.0000
  Os  Os8       1.0  0.50000  0.50000  0.01302  1.0000
  V   V8        1.0  0.75000  0.75000  0.07464  1.0000
