data_image0
_chemical_formula_structural       GaAgGaAgGaAgGaAgGaAgGaAgGaAgGaAgGaAgGaAgGaAgGaAgGaAgGaAgGaAgGaAgCO
_chemical_formula_sum              "Ga16 Ag16 C1 O1"
_cell_length_a       6.7051
_cell_length_b       9.48244
_cell_length_c       27.1118
_cell_angle_alpha    90
_cell_angle_beta     90
_cell_angle_gamma    90

_space_group_name_H-M_alt    "P 1"
_space_group_IT_number       1

loop_
  _space_group_symop_operation_xyz
  'x, y, z'

loop_
  _atom_site_type_symbol
  _atom_site_label
  _atom_site_symmetry_multiplicity
  _atom_site_fract_x
  _atom_site_fract_y
  _atom_site_fract_z
  _atom_site_occupancy
  Ga  Ga1       1.0  0.25000  0.25000  0.86884  1.0000
  Ag  Ag1       1.0  0.00000  0.00000  0.86884  1.0000
  Ga  Ga2       1.0  0.25000  0.00000  0.95628  1.0000
  Ag  Ag2       1.0  0.00000  0.25000  0.95628  1.0000
  Ga  Ga3       1.0  0.25000  0.25000  0.04372  1.0000
  Ag  Ag3       1.0  0.00000  0.00000  0.04372  1.0000
  Ga  Ga4       1.0  0.25000  0.00000  0.13116  1.0000
  Ag  Ag4       1.0  0.00000  0.25000  0.13116  1.0000
  Ga  Ga5       1.0  0.25000  0.75000  0.86884  1.0000
  Ag  Ag5       1.0  0.00000  0.50000  0.86884  1.0000
  Ga  Ga6       1.0  0.25000  0.50000  0.95628  1.0000
  Ag  Ag6       1.0  0.00000  0.75000  0.95628  1.0000
  Ga  Ga7       1.0  0.25000  0.75000  0.04372  1.0000
  Ag  Ag7       1.0  0.00000  0.50000  0.04372  1.0000
  Ga  Ga8       1.0  0.25000  0.50000  0.13116  1.0000
  Ag  Ag8       1.0  0.00000  0.75000  0.13116  1.0000
  Ga  Ga9       1.0  0.75000  0.25000  0.86884  1.0000
  Ag  Ag9       1.0  0.50000  0.00000  0.86884  1.0000
  Ga  Ga10      1.0  0.75000  0.00000  0.95628  1.0000
  Ag  Ag10      1.0  0.50000  0.25000  0.95628  1.0000
  Ga  Ga11      1.0  0.75000  0.25000  0.04372  1.0000
  Ag  Ag11      1.0  0.50000  0.00000  0.04372  1.0000
  Ga  Ga12      1.0  0.75000  0.00000  0.13116  1.0000
  Ag  Ag12      1.0  0.50000  0.25000  0.13116  1.0000
  Ga  Ga13      1.0  0.75000  0.75000  0.86884  1.0000
  Ag  Ag13      1.0  0.50000  0.50000  0.86884  1.0000
  Ga  Ga14      1.0  0.75000  0.50000  0.95628  1.0000
  Ag  Ag14      1.0  0.50000  0.75000  0.95628  1.0000
  Ga  Ga15      1.0  0.75000  0.75000  0.04372  1.0000
  Ag  Ag15      1.0  0.50000  0.50000  0.04372  1.0000
  Ga  Ga16      1.0  0.75000  0.50000  0.13116  1.0000
  Ag  Ag16      1.0  0.50000  0.75000  0.13116  1.0000
  C   C1        1.0  0.25000  0.00000  0.20124  1.0000
  O   O1        1.0  0.25000  0.00000  0.24365  1.0000
