# generated using pymatgen
data_Ga16Ag16CO
_symmetry_space_group_name_H-M   Pm
_cell_length_a   6.70510000
_cell_length_b   9.48244000
_cell_length_c   27.11180000
_cell_angle_alpha   90.00000000
_cell_angle_beta   90.00000000
_cell_angle_gamma   90.00000000
_symmetry_Int_Tables_number   6
_chemical_formula_structural   Ga16Ag16CO
_chemical_formula_sum   'Ga16 Ag16 C1 O1'
_cell_volume   1723.78745119
_cell_formula_units_Z   1
loop_
 _symmetry_equiv_pos_site_id
 _symmetry_equiv_pos_as_xyz
  1  'x, y, z'
  2  'x, -y, z'
loop_
 _atom_site_type_symbol
 _atom_site_label
 _atom_site_symmetry_multiplicity
 _atom_site_fract_x
 _atom_site_fract_y
 _atom_site_fract_z
 _atom_site_occupancy
  Ga  Ga0  2  0.25000000  0.25000000  0.86884000  1.0
  Ga  Ga1  2  0.25014000  0.23405000  0.04551000  1.0
  Ga  Ga2  2  0.74991000  0.26681000  0.04261000  1.0
  Ga  Ga3  2  0.75000000  0.25000000  0.86884000  1.0
  Ga  Ga4  1  0.24805000  0.00000000  0.13289000  1.0
  Ga  Ga5  1  0.25000000  0.00000000  0.95628000  1.0
  Ga  Ga6  1  0.25000000  0.50000000  0.95628000  1.0
  Ga  Ga7  1  0.25230000  0.50000000  0.14624000  1.0
  Ga  Ga8  1  0.74763000  0.50000000  0.13524000  1.0
  Ga  Ga9  1  0.75000000  0.00000000  0.95628000  1.0
  Ga  Ga10  1  0.75000000  0.50000000  0.95628000  1.0
  Ga  Ga11  1  0.75269000  0.00000000  0.14565000  1.0
  Ag  Ag12  2  0.00000000  0.25000000  0.95628000  1.0
  Ag  Ag13  2  0.50000000  0.25000000  0.95628000  1.0
  Ag  Ag14  2  0.50514000  0.24845000  0.12909000  1.0
  Ag  Ag15  2  0.99518000  0.25092000  0.12907000  1.0
  Ag  Ag16  1  -0.00000000  0.50000000  0.86884000  1.0
  Ag  Ag17  1  0.00000000  0.00000000  0.86884000  1.0
  Ag  Ag18  1  0.02557000  0.50000000  0.04739000  1.0
  Ag  Ag19  1  0.47459000  0.50000000  0.04688000  1.0
  Ag  Ag20  1  0.50000000  0.00000000  0.86884000  1.0
  Ag  Ag21  1  0.50000000  0.50000000  0.86884000  1.0
  Ag  Ag22  1  0.52480000  0.00000000  0.04558000  1.0
  Ag  Ag23  1  0.97581000  0.00000000  0.04496000  1.0
  C  C24  1  0.29061000  0.00000000  0.27016000  1.0
  O  O25  1  0.21496000  0.00000000  0.30762000  1.0
