# generated using pymatgen
data_Li16Ga8Rh8C
_symmetry_space_group_name_H-M   Pm
_cell_length_a   6.03399000
_cell_length_b   8.53335000
_cell_length_c   26.40000000
_cell_angle_alpha   90.00000000
_cell_angle_beta   90.00000000
_cell_angle_gamma   90.00000000
_symmetry_Int_Tables_number   6
_chemical_formula_structural   Li16Ga8Rh8C
_chemical_formula_sum   'Li16 Ga8 Rh8 C1'
_cell_volume   1359.33992216
_cell_formula_units_Z   1
loop_
 _symmetry_equiv_pos_site_id
 _symmetry_equiv_pos_as_xyz
  1  'x, y, z'
  2  'x, -y, z'
loop_
 _atom_site_type_symbol
 _atom_site_label
 _atom_site_symmetry_multiplicity
 _atom_site_fract_x
 _atom_site_fract_y
 _atom_site_fract_z
 _atom_site_occupancy
  Li  Li0  2  -0.00000000  0.25000000  0.95960000  1.0
  Li  Li1  2  0.01757000  0.24404000  0.12513000  1.0
  Li  Li2  2  0.24742000  0.24238000  0.04066000  1.0
  Li  Li3  2  0.25000000  0.25000000  0.87879000  1.0
  Li  Li4  1  0.50000000  0.00000000  0.87879000  1.0
  Li  Li5  1  0.50000000  0.50000000  0.87879000  1.0
  Li  Li6  1  0.50516000  0.50000000  0.03855000  1.0
  Li  Li7  1  0.50940000  0.00000000  0.04533000  1.0
  Li  Li8  1  0.74514000  0.00000000  0.15832000  1.0
  Li  Li9  1  0.74580000  0.50000000  0.13592000  1.0
  Li  Li10  1  0.75000000  0.00000000  0.95960000  1.0
  Li  Li11  1  0.75000000  0.50000000  0.95960000  1.0
  Ga  Ga12  2  0.75000000  0.25000000  0.87879000  1.0
  Ga  Ga13  2  0.75210000  0.25699000  0.03802000  1.0
  Ga  Ga14  1  0.25000000  0.00000000  0.95960000  1.0
  Ga  Ga15  1  0.25000000  0.50000000  0.95960000  1.0
  Ga  Ga16  1  0.28353000  0.50000000  0.11910000  1.0
  Ga  Ga17  1  0.33968000  0.00000000  0.14128000  1.0
  Rh  Rh18  2  0.50000000  0.25000000  0.95960000  1.0
  Rh  Rh19  2  0.51742000  0.25775000  0.11550000  1.0
  Rh  Rh20  1  -0.00000000  0.50000000  0.87879000  1.0
  Rh  Rh21  1  0.00000000  0.00000000  0.87879000  1.0
  Rh  Rh22  1  0.00294000  0.50000000  0.04485000  1.0
  Rh  Rh23  1  0.97544000  0.00000000  0.04888000  1.0
  C  C24  1  0.03209000  0.00000000  0.11879000  1.0
