# generated using pymatgen
data_Li4Y4In4Sn4CO
_symmetry_space_group_name_H-M   Pm
_cell_length_a   6.44949000
_cell_length_b   9.04200000
_cell_length_c   24.82990000
_cell_angle_alpha   90.00000000
_cell_angle_beta   90.00000000
_cell_angle_gamma   90.00000000
_symmetry_Int_Tables_number   6
_chemical_formula_structural   Li4Y4In4Sn4CO
_chemical_formula_sum   'Li4 Y4 In4 Sn4 C1 O1'
_cell_volume   1447.98761381
_cell_formula_units_Z   1
loop_
 _symmetry_equiv_pos_site_id
 _symmetry_equiv_pos_as_xyz
  1  'x, y, z'
  2  'x, -y, z'
loop_
 _atom_site_type_symbol
 _atom_site_label
 _atom_site_symmetry_multiplicity
 _atom_site_fract_x
 _atom_site_fract_y
 _atom_site_fract_z
 _atom_site_occupancy
  Li  Li0  1  0.23636000  0.00000000  0.96758000  1.0
  Li  Li1  1  0.23636000  0.50000000  0.96758000  1.0
  Li  Li2  1  0.64940000  0.50000000  0.10435000  1.0
  Li  Li3  1  0.64985000  0.00000000  0.10869000  1.0
  Y  Y4  2  0.50000000  0.25000000  0.90274000  1.0
  Y  Y5  2  0.94028000  0.25041000  0.03631000  1.0
  In  In6  2  0.00000000  0.25000000  0.90274000  1.0
  In  In7  2  0.43878000  0.24914000  0.04535000  1.0
  Sn  Sn8  1  0.18552000  0.00000000  0.09385000  1.0
  Sn  Sn9  1  0.18572000  0.50000000  0.09459000  1.0
  Sn  Sn10  1  0.73636000  0.00000000  0.96758000  1.0
  Sn  Sn11  1  0.73636000  0.50000000  0.96758000  1.0
  C  C12  1  0.69118000  0.00000000  0.19312000  1.0
  O  O13  1  0.71127000  0.00000000  0.23866000  1.0
