# generated using pymatgen
data_Li16Ag8Sn8C
_symmetry_space_group_name_H-M   'P 1'
_cell_length_a   9.41809000
_cell_length_b   6.65960000
_cell_length_c   27.06360000
_cell_angle_alpha   90.00000000
_cell_angle_beta   90.00000000
_cell_angle_gamma   90.00000000
_symmetry_Int_Tables_number   1
_chemical_formula_structural   Li16Ag8Sn8C
_chemical_formula_sum   'Li16 Ag8 Sn8 C1'
_cell_volume   1697.44826572
_cell_formula_units_Z   1
loop_
 _symmetry_equiv_pos_site_id
 _symmetry_equiv_pos_as_xyz
  1  'x, y, z'
loop_
 _atom_site_type_symbol
 _atom_site_label
 _atom_site_symmetry_multiplicity
 _atom_site_fract_x
 _atom_site_fract_y
 _atom_site_fract_z
 _atom_site_occupancy
  Li  Li0  1  0.75000000  0.00000000  0.04350000  1.0
  Li  Li1  1  0.00000000  0.50000000  0.13050000  1.0
  Li  Li2  1  0.25000000  0.00000000  0.04350000  1.0
  Li  Li3  1  0.50000000  0.50000000  0.13050000  1.0
  Li  Li4  1  0.00000000  0.25000000  0.04350000  1.0
  Li  Li5  1  0.50000000  0.25000000  0.04350000  1.0
  Li  Li6  1  0.75000000  0.75000000  0.13050000  1.0
  Li  Li7  1  0.25000000  0.75000000  0.13050000  1.0
  Li  Li8  1  0.26566000  0.98756000  0.87272000  1.0
  Li  Li9  1  0.50000000  0.50274000  0.96576000  1.0
  Li  Li10  1  0.73434000  0.98756000  0.87272000  1.0
  Li  Li11  1  0.00000000  0.46973000  0.94402000  1.0
  Li  Li12  1  0.50000000  0.29095000  0.87287000  1.0
  Li  Li13  1  0.00000000  0.18902000  0.86305000  1.0
  Li  Li14  1  0.24290000  0.73387000  0.95348000  1.0
  Li  Li15  1  0.75710000  0.73387000  0.95348000  1.0
  Ag  Ag16  1  0.25000000  0.25000000  0.13050000  1.0
  Ag  Ag17  1  0.75000000  0.25000000  0.13050000  1.0
  Ag  Ag18  1  0.50000000  0.75000000  0.04350000  1.0
  Ag  Ag19  1  0.00000000  0.75000000  0.04350000  1.0
  Ag  Ag20  1  0.74362000  0.26252000  0.95313000  1.0
  Ag  Ag21  1  0.25638000  0.26252000  0.95313000  1.0
  Ag  Ag22  1  0.00000000  0.78890000  0.87709000  1.0
  Ag  Ag23  1  0.50000000  0.72323000  0.87454000  1.0
  Sn  Sn24  1  0.00000000  0.00000000  0.13050000  1.0
  Sn  Sn25  1  0.25000000  0.50000000  0.04350000  1.0
  Sn  Sn26  1  0.75000000  0.50000000  0.04350000  1.0
  Sn  Sn27  1  0.50000000  0.00000000  0.13050000  1.0
  Sn  Sn28  1  0.50000000  0.99703000  0.95379000  1.0
  Sn  Sn29  1  0.77100000  0.47522000  0.85308000  1.0
  Sn  Sn30  1  0.22900000  0.47522000  0.85308000  1.0
  Sn  Sn31  1  0.00000000  0.01662000  0.95971000  1.0
  C  C32  1  0.00000000  0.48410000  0.85179000  1.0
