data_image0
_chemical_formula_structural       Ti16Al16C
_chemical_formula_sum              "Ti16 Al16 C1"
_cell_length_a       6.37073
_cell_length_b       9.00957
_cell_length_c       26.7572
_cell_angle_alpha    90
_cell_angle_beta     90
_cell_angle_gamma    90

_space_group_name_H-M_alt    "P 1"
_space_group_IT_number       1

loop_
  _space_group_symop_operation_xyz
  'x, y, z'

loop_
  _atom_site_type_symbol
  _atom_site_label
  _atom_site_symmetry_multiplicity
  _atom_site_fract_x
  _atom_site_fract_y
  _atom_site_fract_z
  _atom_site_occupancy
  Ti  Ti1       1.0  0.00000  0.00000  0.87373  1.0000
  Ti  Ti2       1.0  0.00000  0.25000  0.95791  1.0000
  Ti  Ti3       1.0  0.00084  0.99996  0.04678  1.0000
  Ti  Ti4       1.0  0.97157  0.25000  0.12502  1.0000
  Ti  Ti5       1.0  0.00000  0.50000  0.87373  1.0000
  Ti  Ti6       1.0  0.00000  0.75000  0.95791  1.0000
  Ti  Ti7       1.0  0.00084  0.50005  0.04678  1.0000
  Ti  Ti8       1.0  0.01282  0.75000  0.12314  1.0000
  Ti  Ti9       1.0  0.50000  0.00000  0.87373  1.0000
  Ti  Ti10      1.0  0.50000  0.25000  0.95791  1.0000
  Ti  Ti11      1.0  0.49916  0.99995  0.04678  1.0000
  Ti  Ti12      1.0  0.52843  0.25000  0.12502  1.0000
  Ti  Ti13      1.0  0.50000  0.50000  0.87373  1.0000
  Ti  Ti14      1.0  0.50000  0.75000  0.95791  1.0000
  Ti  Ti15      1.0  0.49916  0.50004  0.04678  1.0000
  Ti  Ti16      1.0  0.48718  0.75000  0.12314  1.0000
  Al  Al1       1.0  0.25000  0.25000  0.87373  1.0000
  Al  Al2       1.0  0.25000  0.00000  0.95791  1.0000
  Al  Al3       1.0  0.25000  0.25000  0.04430  1.0000
  Al  Al4       1.0  0.25000  0.01911  0.13947  1.0000
  Al  Al5       1.0  0.25000  0.75000  0.87373  1.0000
  Al  Al6       1.0  0.25000  0.50000  0.95791  1.0000
  Al  Al7       1.0  0.25000  0.75000  0.03928  1.0000
  Al  Al8       1.0  0.25000  0.48089  0.13947  1.0000
  Al  Al9       1.0  0.75000  0.25000  0.87373  1.0000
  Al  Al10      1.0  0.75000  0.00000  0.95791  1.0000
  Al  Al11      1.0  0.75000  0.25000  0.03798  1.0000
  Al  Al12      1.0  0.75000  0.99080  0.13910  1.0000
  Al  Al13      1.0  0.75000  0.75000  0.87373  1.0000
  Al  Al14      1.0  0.75000  0.50000  0.95791  1.0000
  Al  Al15      1.0  0.75000  0.75000  0.04201  1.0000
  Al  Al16      1.0  0.75000  0.50920  0.13910  1.0000
  C   C1        1.0  0.25000  0.25000  0.15827  1.0000
