# generated using pymatgen
data_ZrIr3
_symmetry_space_group_name_H-M   'P 1'
_cell_length_a   3.99379000
_cell_length_b   5.64807000
_cell_length_c   24.23610000
_cell_angle_alpha   90.00000000
_cell_angle_beta   90.00000000
_cell_angle_gamma   90.00000000
_symmetry_Int_Tables_number   1
_chemical_formula_structural   ZrIr3
_chemical_formula_sum   'Zr2 Ir6'
_cell_volume   546.69868786
_cell_formula_units_Z   2
loop_
 _symmetry_equiv_pos_site_id
 _symmetry_equiv_pos_as_xyz
  1  'x, y, z'
loop_
 _atom_site_type_symbol
 _atom_site_label
 _atom_site_symmetry_multiplicity
 _atom_site_fract_x
 _atom_site_fract_y
 _atom_site_fract_z
 _atom_site_occupancy
  Zr  Zr0  1  0.00000000  0.00000000  0.08000000  1.0
  Zr  Zr1  1  0.00000000  0.50000000  0.97087000  1.0
  Ir  Ir2  1  0.00000000  0.50000000  0.08091000  1.0
  Ir  Ir3  1  0.50000000  0.74882000  0.02946000  1.0
  Ir  Ir4  1  0.50000000  0.25118000  0.02946000  1.0
  Ir  Ir5  1  0.00000000  0.00000000  0.97087000  1.0
  Ir  Ir6  1  0.50000000  0.25000000  0.91261000  1.0
  Ir  Ir7  1  0.50000000  0.75000000  0.91261000  1.0
