# generated using pymatgen
data_Li8Al8Ga8Pd8C
_symmetry_space_group_name_H-M   'P 1'
_cell_length_a   8.69058000
_cell_length_b   6.14517000
_cell_length_c   26.51790000
_cell_angle_alpha   90.00000000
_cell_angle_beta   90.00000000
_cell_angle_gamma   90.00000000
_symmetry_Int_Tables_number   1
_chemical_formula_structural   Li8Al8Ga8Pd8C
_chemical_formula_sum   'Li8 Al8 Ga8 Pd8 C1'
_cell_volume   1416.19087585
_cell_formula_units_Z   1
loop_
 _symmetry_equiv_pos_site_id
 _symmetry_equiv_pos_as_xyz
  1  'x, y, z'
loop_
 _atom_site_type_symbol
 _atom_site_label
 _atom_site_symmetry_multiplicity
 _atom_site_fract_x
 _atom_site_fract_y
 _atom_site_fract_z
 _atom_site_occupancy
  Li  Li0  1  0.75001000  0.75000000  0.04097000  1.0
  Li  Li1  1  0.24999000  0.75000000  0.04097000  1.0
  Li  Li2  1  0.00000000  0.25000000  0.12290000  1.0
  Li  Li3  1  0.50000000  0.25000000  0.12290000  1.0
  Li  Li4  1  0.23890000  0.75551000  0.84814000  1.0
  Li  Li5  1  0.76110000  0.75551000  0.84814000  1.0
  Li  Li6  1  0.50000000  0.24765000  0.95732000  1.0
  Li  Li7  1  0.00000000  0.23461000  0.95999000  1.0
  Al  Al8  1  0.75001000  0.00000000  0.12290000  1.0
  Al  Al9  1  0.24999000  0.00000000  0.12290000  1.0
  Al  Al10  1  0.50000000  0.50000000  0.04097000  1.0
  Al  Al11  1  0.00000000  0.50000000  0.04097000  1.0
  Al  Al12  1  0.25657000  0.98045000  0.95463000  1.0
  Al  Al13  1  0.74343000  0.98045000  0.95463000  1.0
  Al  Al14  1  0.00000000  0.46277000  0.87579000  1.0
  Al  Al15  1  0.50000000  0.51915000  0.87762000  1.0
  Ga  Ga16  1  0.00000000  0.00000000  0.04097000  1.0
  Ga  Ga17  1  0.50000000  0.00000000  0.04097000  1.0
  Ga  Ga18  1  0.25001000  0.50000000  0.12290000  1.0
  Ga  Ga19  1  0.74999000  0.50000000  0.12290000  1.0
  Ga  Ga20  1  0.50000000  0.97919000  0.87043000  1.0
  Ga  Ga21  1  0.00000000  0.05352000  0.86216000  1.0
  Ga  Ga22  1  0.75177000  0.51144000  0.95744000  1.0
  Ga  Ga23  1  0.24823000  0.51144000  0.95744000  1.0
  Pd  Pd24  1  0.75001000  0.25000000  0.04097000  1.0
  Pd  Pd25  1  0.24999000  0.25000000  0.04097000  1.0
  Pd  Pd26  1  0.00000000  0.75000000  0.12290000  1.0
  Pd  Pd27  1  0.50000000  0.75000000  0.12290000  1.0
  Pd  Pd28  1  0.26354000  0.25162000  0.88301000  1.0
  Pd  Pd29  1  0.73646000  0.25162000  0.88301000  1.0
  Pd  Pd30  1  0.50000000  0.74604000  0.96506000  1.0
  Pd  Pd31  1  0.00000000  0.76136000  0.95557000  1.0
  C  C32  1  0.00000000  0.75253000  0.85669000  1.0
