# generated using pymatgen
data_Mn8Ga8Co16CO
_symmetry_space_group_name_H-M   'P 1'
_cell_length_a   8.10855000
_cell_length_b   5.73361000
_cell_length_c   26.08140000
_cell_angle_alpha   90.00000000
_cell_angle_beta   90.00000000
_cell_angle_gamma   90.00000000
_symmetry_Int_Tables_number   1
_chemical_formula_structural   Mn8Ga8Co16CO
_chemical_formula_sum   'Mn8 Ga8 Co16 C1 O1'
_cell_volume   1212.55723634
_cell_formula_units_Z   1
loop_
 _symmetry_equiv_pos_site_id
 _symmetry_equiv_pos_as_xyz
  1  'x, y, z'
loop_
 _atom_site_type_symbol
 _atom_site_label
 _atom_site_symmetry_multiplicity
 _atom_site_fract_x
 _atom_site_fract_y
 _atom_site_fract_z
 _atom_site_occupancy
  Mn  Mn0  1  0.00000000  0.00000000  0.11659000  1.0
  Mn  Mn1  1  0.24998000  0.50000000  0.03886000  1.0
  Mn  Mn2  1  0.75002000  0.50000000  0.03886000  1.0
  Mn  Mn3  1  0.50000000  0.00000000  0.11659000  1.0
  Mn  Mn4  1  0.50000000  0.99968000  0.96178000  1.0
  Mn  Mn5  1  0.74360000  0.50254000  0.88184000  1.0
  Mn  Mn6  1  0.25640000  0.50254000  0.88184000  1.0
  Mn  Mn7  1  0.00000000  0.99980000  0.96032000  1.0
  Ga  Ga8  1  0.74998000  0.00000000  0.03886000  1.0
  Ga  Ga9  1  0.00000000  0.50000000  0.11659000  1.0
  Ga  Ga10  1  0.25002000  0.00000000  0.03886000  1.0
  Ga  Ga11  1  0.50000000  0.50000000  0.11659000  1.0
  Ga  Ga12  1  0.24513000  0.00117000  0.87949000  1.0
  Ga  Ga13  1  0.50000000  0.50107000  0.96089000  1.0
  Ga  Ga14  1  0.75487000  0.00117000  0.87949000  1.0
  Ga  Ga15  1  0.00000000  0.49879000  0.96109000  1.0
  Co  Co16  1  0.00000000  0.25000000  0.03886000  1.0
  Co  Co17  1  0.50000000  0.75000000  0.03886000  1.0
  Co  Co18  1  0.00000000  0.75000000  0.03886000  1.0
  Co  Co19  1  0.50000000  0.25000000  0.03886000  1.0
  Co  Co20  1  0.74998000  0.75000000  0.11659000  1.0
  Co  Co21  1  0.24998000  0.25000000  0.11659000  1.0
  Co  Co22  1  0.75002000  0.25000000  0.11659000  1.0
  Co  Co23  1  0.25002000  0.75000000  0.11659000  1.0
  Co  Co24  1  0.50000000  0.23513000  0.88538000  1.0
  Co  Co25  1  0.00000000  0.75547000  0.88436000  1.0
  Co  Co26  1  0.50000000  0.76875000  0.88527000  1.0
  Co  Co27  1  0.00000000  0.25506000  0.88117000  1.0
  Co  Co28  1  0.24924000  0.75127000  0.96038000  1.0
  Co  Co29  1  0.75015000  0.24795000  0.96016000  1.0
  Co  Co30  1  0.24985000  0.24795000  0.96016000  1.0
  Co  Co31  1  0.75076000  0.75127000  0.96038000  1.0
  C  C32  1  0.00000000  0.36400000  0.81872000  1.0
  O  O33  1  0.00000000  0.42291000  0.77580000  1.0
