# generated using pymatgen
data_Na8Li16Sb8CO
_symmetry_space_group_name_H-M   'P 1'
_cell_length_a   9.68063000
_cell_length_b   6.84524000
_cell_length_c   27.26050000
_cell_angle_alpha   90.00000000
_cell_angle_beta   90.00000000
_cell_angle_gamma   90.00000000
_symmetry_Int_Tables_number   1
_chemical_formula_structural   Na8Li16Sb8CO
_chemical_formula_sum   'Na8 Li16 Sb8 C1 O1'
_cell_volume   1806.45071833
_cell_formula_units_Z   1
loop_
 _symmetry_equiv_pos_site_id
 _symmetry_equiv_pos_as_xyz
  1  'x, y, z'
loop_
 _atom_site_type_symbol
 _atom_site_label
 _atom_site_symmetry_multiplicity
 _atom_site_fract_x
 _atom_site_fract_y
 _atom_site_fract_z
 _atom_site_occupancy
  Na  Na0  1  0.00000000  0.00000000  0.13317000  1.0
  Na  Na1  1  0.25000000  0.50000000  0.04439000  1.0
  Na  Na2  1  0.75000000  0.50000000  0.04439000  1.0
  Na  Na3  1  0.50000000  1.00000000  0.13317000  1.0
  Na  Na4  1  0.50000000  0.99858000  0.95986000  1.0
  Na  Na5  1  0.75292000  0.49723000  0.85845000  1.0
  Na  Na6  1  0.24708000  0.49723000  0.85845000  1.0
  Na  Na7  1  0.00000000  0.00222000  0.95903000  1.0
  Li  Li8  1  0.00000000  0.25000000  0.04439000  1.0
  Li  Li9  1  0.50000000  0.75000000  0.04439000  1.0
  Li  Li10  1  0.00000000  0.75000000  0.04439000  1.0
  Li  Li11  1  0.50000000  0.25000000  0.04439000  1.0
  Li  Li12  1  0.75000000  0.75000000  0.13317000  1.0
  Li  Li13  1  0.25000000  0.25000000  0.13317000  1.0
  Li  Li14  1  0.75000000  0.25000000  0.13317000  1.0
  Li  Li15  1  0.25000000  0.75000000  0.13317000  1.0
  Li  Li16  1  0.50000000  0.20229000  0.86940000  1.0
  Li  Li17  1  0.00000000  0.79613000  0.87018000  1.0
  Li  Li18  1  0.50000000  0.78922000  0.86951000  1.0
  Li  Li19  1  0.00000000  0.21544000  0.86870000  1.0
  Li  Li20  1  0.24947000  0.74300000  0.95241000  1.0
  Li  Li21  1  0.75005000  0.25633000  0.95240000  1.0
  Li  Li22  1  0.24995000  0.25633000  0.95240000  1.0
  Li  Li23  1  0.75053000  0.74300000  0.95241000  1.0
  Sb  Sb24  1  0.75000000  1.00000000  0.04439000  1.0
  Sb  Sb25  1  0.00000000  0.50000000  0.13317000  1.0
  Sb  Sb26  1  0.25000000  1.00000000  0.04439000  1.0
  Sb  Sb27  1  0.50000000  0.50000000  0.13317000  1.0
  Sb  Sb28  1  0.25067000  0.99657000  0.86799000  1.0
  Sb  Sb29  1  0.50000000  0.49876000  0.94933000  1.0
  Sb  Sb30  1  0.74933000  0.99657000  0.86799000  1.0
  Sb  Sb31  1  0.00000000  0.49985000  0.95049000  1.0
  C  C32  1  0.00000000  0.27272000  0.79286000  1.0
  O  O33  1  0.00000000  0.25862000  0.75100000  1.0
