# generated using pymatgen
data_Na8Li16Sb8CO
_symmetry_space_group_name_H-M   Pm
_cell_length_a   6.84524000
_cell_length_b   9.68063000
_cell_length_c   27.26050000
_cell_angle_alpha   90.00000000
_cell_angle_beta   90.00000000
_cell_angle_gamma   90.00000000
_symmetry_Int_Tables_number   6
_chemical_formula_structural   Na8Li16Sb8CO
_chemical_formula_sum   'Na8 Li16 Sb8 C1 O1'
_cell_volume   1806.45071833
_cell_formula_units_Z   1
loop_
 _symmetry_equiv_pos_site_id
 _symmetry_equiv_pos_as_xyz
  1  'x, y, z'
  2  'x, -y, z'
loop_
 _atom_site_type_symbol
 _atom_site_label
 _atom_site_symmetry_multiplicity
 _atom_site_fract_x
 _atom_site_fract_y
 _atom_site_fract_z
 _atom_site_occupancy
  Na  Na0  2  0.49723000  0.24708000  0.14155000  1.0
  Na  Na1  2  0.50000000  0.25000000  0.95561000  1.0
  Na  Na2  1  -0.00000000  0.50000000  0.86683000  1.0
  Na  Na3  1  0.00000000  0.00000000  0.86683000  1.0
  Na  Na4  1  0.00222000  0.00000000  0.04097000  1.0
  Na  Na5  1  0.99858000  0.50000000  0.04014000  1.0
  Li  Li6  2  0.25000000  0.25000000  0.86683000  1.0
  Li  Li7  2  0.25633000  0.24995000  0.04760000  1.0
  Li  Li8  2  0.74300000  0.24947000  0.04759000  1.0
  Li  Li9  2  0.75000000  0.25000000  0.86683000  1.0
  Li  Li10  1  0.20229000  0.50000000  0.13060000  1.0
  Li  Li11  1  0.21544000  0.00000000  0.13130000  1.0
  Li  Li12  1  0.25000000  0.00000000  0.95561000  1.0
  Li  Li13  1  0.25000000  0.50000000  0.95561000  1.0
  Li  Li14  1  0.75000000  0.00000000  0.95561000  1.0
  Li  Li15  1  0.75000000  0.50000000  0.95561000  1.0
  Li  Li16  1  0.78922000  0.50000000  0.13049000  1.0
  Li  Li17  1  0.79613000  0.00000000  0.12982000  1.0
  Sb  Sb18  2  -0.00000000  0.25000000  0.95561000  1.0
  Sb  Sb19  2  0.99657000  0.25067000  0.13201000  1.0
  Sb  Sb20  1  0.49876000  0.50000000  0.05067000  1.0
  Sb  Sb21  1  0.49985000  0.00000000  0.04951000  1.0
  Sb  Sb22  1  0.50000000  0.00000000  0.86683000  1.0
  Sb  Sb23  1  0.50000000  0.50000000  0.86683000  1.0
  C  C24  1  0.27272000  0.00000000  0.20714000  1.0
  O  O25  1  0.25862000  0.00000000  0.24900000  1.0
