# generated using pymatgen
data_Y4Sc4In4Pd4C
_symmetry_space_group_name_H-M   'P 1'
_cell_length_a   6.25545000
_cell_length_b   9.64246000
_cell_length_c   24.46440000
_cell_angle_alpha   90.00000000
_cell_angle_beta   90.00000000
_cell_angle_gamma   90.00000000
_symmetry_Int_Tables_number   1
_chemical_formula_structural   Y4Sc4In4Pd4C
_chemical_formula_sum   'Y4 Sc4 In4 Pd4 C1'
_cell_volume   1475.64187879
_cell_formula_units_Z   1
loop_
 _symmetry_equiv_pos_site_id
 _symmetry_equiv_pos_as_xyz
  1  'x, y, z'
loop_
 _atom_site_type_symbol
 _atom_site_label
 _atom_site_symmetry_multiplicity
 _atom_site_fract_x
 _atom_site_fract_y
 _atom_site_fract_z
 _atom_site_occupancy
  Y  Y0  1  0.46003000  0.02879000  0.09616000  1.0
  Y  Y1  1  0.84630000  0.00000000  0.96959000  1.0
  Y  Y2  1  0.45809000  0.47162000  0.09624000  1.0
  Y  Y3  1  0.84630000  0.50000000  0.96959000  1.0
  Sc  Sc4  1  0.11287000  0.24971000  0.03298000  1.0
  Sc  Sc5  1  0.51945000  0.25000000  0.90876000  1.0
  Sc  Sc6  1  0.18545000  0.74998000  0.01434000  1.0
  Sc  Sc7  1  0.51945000  0.75000000  0.90876000  1.0
  In  In8  1  0.94539000  0.91303000  0.09896000  1.0
  In  In9  1  0.34630000  0.00000000  0.96959000  1.0
  In  In10  1  0.94280000  0.58853000  0.09896000  1.0
  In  In11  1  0.34630000  0.50000000  0.96959000  1.0
  Pd  Pd12  1  0.60196000  0.25012000  0.01318000  1.0
  Pd  Pd13  1  0.01945000  0.25000000  0.90876000  1.0
  Pd  Pd14  1  0.64122000  0.75037000  0.01835000  1.0
  Pd  Pd15  1  0.01945000  0.75000000  0.90876000  1.0
  C  C16  1  0.36836000  0.25008000  0.08679000  1.0
