# generated using pymatgen
data_LiYGePb
_symmetry_space_group_name_H-M   Pmm2
_cell_length_a   4.93064000
_cell_length_b   8.55406000
_cell_length_c   26.49120000
_cell_angle_alpha   90.00000000
_cell_angle_beta   90.00000000
_cell_angle_gamma   90.00000000
_symmetry_Int_Tables_number   25
_chemical_formula_structural   LiYGePb
_chemical_formula_sum   'Li4 Y4 Ge4 Pb4'
_cell_volume   1117.31908804
_cell_formula_units_Z   4
loop_
 _symmetry_equiv_pos_site_id
 _symmetry_equiv_pos_as_xyz
  1  'x, y, z'
  2  '-x, -y, z'
  3  '-x, y, z'
  4  'x, -y, z'
loop_
 _atom_site_type_symbol
 _atom_site_label
 _atom_site_symmetry_multiplicity
 _atom_site_fract_x
 _atom_site_fract_y
 _atom_site_fract_z
 _atom_site_occupancy
  Li  Li0  1  0.50000000  0.00000000  0.13002000  1.0
  Li  Li1  1  0.50000000  0.00000000  0.95916000  1.0
  Li  Li2  1  0.50000000  0.50000000  0.13002000  1.0
  Li  Li3  1  0.50000000  0.50000000  0.95916000  1.0
  Y  Y4  1  0.00000000  0.00000000  0.04028500  1.0
  Y  Y5  1  0.00000000  0.00000000  0.87748000  1.0
  Y  Y6  1  0.00000000  0.50000000  0.04021000  1.0
  Y  Y7  1  0.00000000  0.50000000  0.87748000  1.0
  Ge  Ge8  2  0.00000000  0.25000000  0.95916000  1.0
  Ge  Ge9  2  0.00000000  0.25004000  0.12067500  1.0
  Pb  Pb10  2  0.50000000  0.24996000  0.04678500  1.0
  Pb  Pb11  2  0.50000000  0.25000000  0.87748000  1.0
