data_image0
_chemical_formula_structural       Li8Mg8Sb8Pd8CO
_chemical_formula_sum              "Li8 Mg8 Sb8 Pd8 C1 O1"
_cell_length_a       6.57147
_cell_length_b       9.29346
_cell_length_c       26.9701
_cell_angle_alpha    90
_cell_angle_beta     90
_cell_angle_gamma    90

_space_group_name_H-M_alt    "P 1"
_space_group_IT_number       1

loop_
  _space_group_symop_operation_xyz
  'x, y, z'

loop_
  _atom_site_type_symbol
  _atom_site_label
  _atom_site_symmetry_multiplicity
  _atom_site_fract_x
  _atom_site_fract_y
  _atom_site_fract_z
  _atom_site_occupancy
  Li  Li1       1.0  0.00000  0.00000  0.87078  1.0000
  Li  Li2       1.0  0.00000  0.50000  0.87078  1.0000
  Li  Li3       1.0  0.50000  0.75000  0.95693  1.0000
  Li  Li4       1.0  0.50000  0.25000  0.95693  1.0000
  Li  Li5       1.0  0.99113  0.49954  0.04482  1.0000
  Li  Li6       1.0  0.99106  0.00046  0.04481  1.0000
  Li  Li7       1.0  0.56546  0.24999  0.16741  1.0000
  Li  Li8       1.0  0.60550  0.75001  0.17163  1.0000
  Mg  Mg1       1.0  0.25000  0.00000  0.95693  1.0000
  Mg  Mg2       1.0  0.25000  0.50000  0.95693  1.0000
  Mg  Mg3       1.0  0.75000  0.25000  0.87078  1.0000
  Mg  Mg4       1.0  0.75000  0.75000  0.87078  1.0000
  Mg  Mg5       1.0  0.25064  0.50423  0.12815  1.0000
  Mg  Mg6       1.0  0.25051  0.99580  0.12813  1.0000
  Mg  Mg7       1.0  0.72433  0.74999  0.04915  1.0000
  Mg  Mg8       1.0  0.72871  0.25000  0.04815  1.0000
  Sb  Sb1       1.0  0.75000  0.00000  0.95693  1.0000
  Sb  Sb2       1.0  0.75000  0.50000  0.95693  1.0000
  Sb  Sb3       1.0  0.25000  0.25000  0.87078  1.0000
  Sb  Sb4       1.0  0.25000  0.75000  0.87078  1.0000
  Sb  Sb5       1.0  0.74259  0.49987  0.13240  1.0000
  Sb  Sb6       1.0  0.74259  0.00013  0.13240  1.0000
  Sb  Sb7       1.0  0.25224  0.74999  0.04557  1.0000
  Sb  Sb8       1.0  0.25060  0.25001  0.04627  1.0000
  Pd  Pd1       1.0  0.00000  0.25000  0.95693  1.0000
  Pd  Pd2       1.0  0.00000  0.75000  0.95693  1.0000
  Pd  Pd3       1.0  0.50000  0.50000  0.87078  1.0000
  Pd  Pd4       1.0  0.50000  0.00000  0.87078  1.0000
  Pd  Pd5       1.0  0.98925  0.74999  0.12438  1.0000
  Pd  Pd6       1.0  0.99185  0.25001  0.12454  1.0000
  Pd  Pd7       1.0  0.49786  0.00002  0.03856  1.0000
  Pd  Pd8       1.0  0.49787  0.49997  0.03856  1.0000
  C   C1        1.0  0.49350  0.25001  0.24380  1.0000
  O   O1        1.0  0.45252  0.25002  0.28485  1.0000
