# generated using pymatgen
data_Li8Y8Ga8Pd8CO
_symmetry_space_group_name_H-M   'P 1'
_cell_length_a   6.61884000
_cell_length_b   9.36046000
_cell_length_c   27.02030000
_cell_angle_alpha   90.00000000
_cell_angle_beta   90.00000000
_cell_angle_gamma   90.00000000
_symmetry_Int_Tables_number   1
_chemical_formula_structural   Li8Y8Ga8Pd8CO
_chemical_formula_sum   'Li8 Y8 Ga8 Pd8 C1 O1'
_cell_volume   1674.05314515
_cell_formula_units_Z   1
loop_
 _symmetry_equiv_pos_site_id
 _symmetry_equiv_pos_as_xyz
  1  'x, y, z'
loop_
 _atom_site_type_symbol
 _atom_site_label
 _atom_site_symmetry_multiplicity
 _atom_site_fract_x
 _atom_site_fract_y
 _atom_site_fract_z
 _atom_site_occupancy
  Li  Li0  1  0.25000000  0.00000000  0.95670000  1.0
  Li  Li1  1  0.25000000  0.50000000  0.95670000  1.0
  Li  Li2  1  0.75000000  0.75000000  0.87009000  1.0
  Li  Li3  1  0.75000000  0.25000000  0.87009000  1.0
  Li  Li4  1  0.54915000  0.55346000  0.19765000  1.0
  Li  Li5  1  0.54810000  0.94721000  0.19734000  1.0
  Li  Li6  1  0.81253000  0.25003000  0.05340000  1.0
  Li  Li7  1  0.79866000  0.74999000  0.04861000  1.0
  Y  Y8  1  0.00000000  0.75000000  0.95670000  1.0
  Y  Y9  1  0.00000000  0.25000000  0.95670000  1.0
  Y  Y10  1  0.50000000  0.50000000  0.87009000  1.0
  Y  Y11  1  0.50000000  0.00000000  0.87009000  1.0
  Y  Y12  1  0.10204000  0.24997000  0.13442000  1.0
  Y  Y13  1  0.09523000  0.75017000  0.13429000  1.0
  Y  Y14  1  0.50301000  0.00883000  0.05136000  1.0
  Y  Y15  1  0.50302000  0.49117000  0.05137000  1.0
  Ga  Ga16  1  0.00000000  0.00000000  0.87009000  1.0
  Ga  Ga17  1  0.00000000  0.50000000  0.87009000  1.0
  Ga  Ga18  1  0.50000000  0.25000000  0.95670000  1.0
  Ga  Ga19  1  0.50000000  0.75000000  0.95670000  1.0
  Ga  Ga20  1  0.02635000  0.50327000  0.04256000  1.0
  Ga  Ga21  1  0.02634000  0.99674000  0.04254000  1.0
  Ga  Ga22  1  0.55806000  0.74999000  0.12109000  1.0
  Ga  Ga23  1  0.60563000  0.25004000  0.13983000  1.0
  Pd  Pd24  1  0.75000000  0.00000000  0.95670000  1.0
  Pd  Pd25  1  0.75000000  0.50000000  0.95670000  1.0
  Pd  Pd26  1  0.25000000  0.75000000  0.87009000  1.0
  Pd  Pd27  1  0.25000000  0.25000000  0.87009000  1.0
  Pd  Pd28  1  0.80620000  0.49263000  0.12368000  1.0
  Pd  Pd29  1  0.80629000  0.00745000  0.12367000  1.0
  Pd  Pd30  1  0.24781000  0.25000000  0.03818000  1.0
  Pd  Pd31  1  0.26975000  0.75000000  0.03719000  1.0
  C  C32  1  0.36157000  0.74993000  0.18871000  1.0
  O  O33  1  0.47386000  0.74917000  0.22702000  1.0
