# generated using pymatgen
data_Li8Y8Ga8Pd8CO
_symmetry_space_group_name_H-M   P1
_cell_length_a   6.61884000
_cell_length_b   9.36046000
_cell_length_c   27.02030000
_cell_angle_alpha   90.00000000
_cell_angle_beta   90.00000000
_cell_angle_gamma   90.00000000
_symmetry_Int_Tables_number   1
_chemical_formula_structural   Li8Y8Ga8Pd8CO
_chemical_formula_sum   'Li8 Y8 Ga8 Pd8 C1 O1'
_cell_volume   1674.05314515
_cell_formula_units_Z   1
loop_
 _symmetry_equiv_pos_site_id
 _symmetry_equiv_pos_as_xyz
  1  'x, y, z'
loop_
 _atom_site_type_symbol
 _atom_site_label
 _atom_site_symmetry_multiplicity
 _atom_site_fract_x
 _atom_site_fract_y
 _atom_site_fract_z
 _atom_site_occupancy
  Li  Li0  1  0.18747000  0.74997000  0.05340000  1.0
  Li  Li1  1  0.20134000  0.25001000  0.04861000  1.0
  Li  Li2  1  0.25000000  0.25000000  0.87009000  1.0
  Li  Li3  1  0.25000000  0.75000000  0.87009000  1.0
  Li  Li4  1  0.45085000  0.44654000  0.19765000  1.0
  Li  Li5  1  0.45190000  0.05279000  0.19734000  1.0
  Li  Li6  1  0.75000000  0.00000000  0.95670000  1.0
  Li  Li7  1  0.75000000  0.50000000  0.95670000  1.0
  Y  Y8  1  -0.00000000  0.25000000  0.95670000  1.0
  Y  Y9  1  -0.00000000  0.75000000  0.95670000  1.0
  Y  Y10  1  0.49698000  0.50883000  0.05137000  1.0
  Y  Y11  1  0.49699000  0.99117000  0.05136000  1.0
  Y  Y12  1  0.50000000  0.00000000  0.87009000  1.0
  Y  Y13  1  0.50000000  0.50000000  0.87009000  1.0
  Y  Y14  1  0.89796000  0.75003000  0.13442000  1.0
  Y  Y15  1  0.90477000  0.24983000  0.13429000  1.0
  Ga  Ga16  1  0.00000000  0.00000000  0.87009000  1.0
  Ga  Ga17  1  0.00000000  0.50000000  0.87009000  1.0
  Ga  Ga18  1  0.39437000  0.74996000  0.13983000  1.0
  Ga  Ga19  1  0.44194000  0.25001000  0.12109000  1.0
  Ga  Ga20  1  0.50000000  0.25000000  0.95670000  1.0
  Ga  Ga21  1  0.50000000  0.75000000  0.95670000  1.0
  Ga  Ga22  1  0.97365000  0.49673000  0.04256000  1.0
  Ga  Ga23  1  0.97366000  0.00326000  0.04254000  1.0
  Pd  Pd24  1  0.19371000  0.99255000  0.12367000  1.0
  Pd  Pd25  1  0.19380000  0.50737000  0.12368000  1.0
  Pd  Pd26  1  0.25000000  0.00000000  0.95670000  1.0
  Pd  Pd27  1  0.25000000  0.50000000  0.95670000  1.0
  Pd  Pd28  1  0.73025000  0.25000000  0.03719000  1.0
  Pd  Pd29  1  0.75000000  0.25000000  0.87009000  1.0
  Pd  Pd30  1  0.75000000  0.75000000  0.87009000  1.0
  Pd  Pd31  1  0.75219000  0.75000000  0.03818000  1.0
  C  C32  1  0.63843000  0.25007000  0.18871000  1.0
  O  O33  1  0.52614000  0.25083000  0.22702000  1.0
