# generated using pymatgen
data_CoSi
_symmetry_space_group_name_H-M   Pmm2
_cell_length_a   2.78138000
_cell_length_b   3.93346500
_cell_length_c   25.90020000
_cell_angle_alpha   90.00000000
_cell_angle_beta   90.00000000
_cell_angle_gamma   90.00000000
_symmetry_Int_Tables_number   25
_chemical_formula_structural   CoSi
_chemical_formula_sum   'Co4 Si4'
_cell_volume   283.36012493
_cell_formula_units_Z   4
loop_
 _symmetry_equiv_pos_site_id
 _symmetry_equiv_pos_as_xyz
  1  'x, y, z'
  2  '-x, -y, z'
  3  '-x, y, z'
  4  'x, -y, z'
loop_
 _atom_site_type_symbol
 _atom_site_label
 _atom_site_symmetry_multiplicity
 _atom_site_fract_x
 _atom_site_fract_y
 _atom_site_fract_z
 _atom_site_occupancy
  Co  Co0  1  0.00000000  0.00000000  0.03604000  1.0
  Co  Co1  1  0.00000000  0.00000000  0.88610000  1.0
  Co  Co2  1  0.00000000  0.50000000  0.10977000  1.0
  Co  Co3  1  0.00000000  0.50000000  0.96203000  1.0
  Si  Si4  1  0.50000000  0.00000000  0.11814000  1.0
  Si  Si5  1  0.50000000  0.00000000  0.96203000  1.0
  Si  Si6  1  0.50000000  0.50000000  0.03903000  1.0
  Si  Si7  1  0.50000000  0.50000000  0.88610000  1.0
