# generated using pymatgen
data_Zr8Ni16Sn8CO
_symmetry_space_group_name_H-M   P1
_cell_length_a   6.34847000
_cell_length_b   8.97809000
_cell_length_c   26.73360000
_cell_angle_alpha   90.00000000
_cell_angle_beta   90.00000000
_cell_angle_gamma   90.00000000
_symmetry_Int_Tables_number   1
_chemical_formula_structural   Zr8Ni16Sn8CO
_chemical_formula_sum   'Zr8 Ni16 Sn8 C1 O1'
_cell_volume   1523.73860883
_cell_formula_units_Z   1
loop_
 _symmetry_equiv_pos_site_id
 _symmetry_equiv_pos_as_xyz
  1  'x, y, z'
loop_
 _atom_site_type_symbol
 _atom_site_label
 _atom_site_symmetry_multiplicity
 _atom_site_fract_x
 _atom_site_fract_y
 _atom_site_fract_z
 _atom_site_occupancy
  Zr  Zr0  1  0.00000000  0.00000000  0.87406000  1.0
  Zr  Zr1  1  0.00000000  0.00238000  0.04205000  1.0
  Zr  Zr2  1  0.00000000  0.49767000  0.04203000  1.0
  Zr  Zr3  1  0.00000000  0.50000000  0.87406000  1.0
  Zr  Zr4  1  0.49999000  0.75004000  0.12669000  1.0
  Zr  Zr5  1  0.50000000  0.25000000  0.95802000  1.0
  Zr  Zr6  1  0.50000000  0.25007000  0.12743000  1.0
  Zr  Zr7  1  0.50000000  0.75000000  0.95802000  1.0
  Ni  Ni8  1  0.24305000  0.75002000  0.04621000  1.0
  Ni  Ni9  1  0.25000000  0.00000000  0.95802000  1.0
  Ni  Ni10  1  0.25000000  0.25000000  0.87406000  1.0
  Ni  Ni11  1  0.25000000  0.50000000  0.95802000  1.0
  Ni  Ni12  1  0.25000000  0.75000000  0.87406000  1.0
  Ni  Ni13  1  0.25900000  0.50012000  0.12029000  1.0
  Ni  Ni14  1  0.25920000  0.99999000  0.12030000  1.0
  Ni  Ni15  1  0.26293000  0.25002000  0.04544000  1.0
  Ni  Ni16  1  0.73707000  0.25002000  0.04544000  1.0
  Ni  Ni17  1  0.74077000  0.99999000  0.12031000  1.0
  Ni  Ni18  1  0.74099000  0.50013000  0.12029000  1.0
  Ni  Ni19  1  0.75000000  0.00000000  0.95802000  1.0
  Ni  Ni20  1  0.75000000  0.25000000  0.87406000  1.0
  Ni  Ni21  1  0.75000000  0.50000000  0.95802000  1.0
  Ni  Ni22  1  0.75000000  0.75000000  0.87406000  1.0
  Ni  Ni23  1  0.75695000  0.75002000  0.04621000  1.0
  Sn  Sn24  1  0.00000000  0.25000000  0.95802000  1.0
  Sn  Sn25  1  0.00000000  0.75000000  0.95802000  1.0
  Sn  Sn26  1  0.50000000  0.00000000  0.87406000  1.0
  Sn  Sn27  1  0.50000000  0.50000000  0.87406000  1.0
  Sn  Sn28  1  0.50000000  0.50312000  0.04037000  1.0
  Sn  Sn29  1  0.50000000  0.99692000  0.04035000  1.0
  Sn  Sn30  1  0.99999000  0.25003000  0.13083000  1.0
  Sn  Sn31  1  0.99999000  0.75008000  0.13359000  1.0
  C  C32  1  0.00011000  0.25017000  0.28481000  1.0
  O  O33  1  0.99997000  0.24992000  0.32726000  1.0
