# generated using pymatgen
data_Li4Sc4Ga4Ge4CO
_symmetry_space_group_name_H-M   Pm
_cell_length_a   5.81702000
_cell_length_b   7.95848000
_cell_length_c   24.35990000
_cell_angle_alpha   90.00000000
_cell_angle_beta   90.00000000
_cell_angle_gamma   90.00000000
_symmetry_Int_Tables_number   6
_chemical_formula_structural   Li4Sc4Ga4Ge4CO
_chemical_formula_sum   'Li4 Sc4 Ga4 Ge4 C1 O1'
_cell_volume   1127.73273589
_cell_formula_units_Z   1
loop_
 _symmetry_equiv_pos_site_id
 _symmetry_equiv_pos_as_xyz
  1  'x, y, z'
  2  'x, -y, z'
loop_
 _atom_site_type_symbol
 _atom_site_label
 _atom_site_symmetry_multiplicity
 _atom_site_fract_x
 _atom_site_fract_y
 _atom_site_fract_z
 _atom_site_occupancy
  Li  Li0  2  0.27699000  0.25001000  0.08949000  1.0
  Li  Li1  2  0.74408000  0.24520000  0.95908000  1.0
  Sc  Sc2  2  0.25327000  0.25106000  0.96723000  1.0
  Sc  Sc3  2  0.77699000  0.25001000  0.08949000  1.0
  Ga  Ga4  1  0.51799000  0.00000000  0.02983000  1.0
  Ga  Ga5  1  0.51799000  0.50000000  0.02983000  1.0
  Ga  Ga6  1  0.97048000  0.50000000  0.91310000  1.0
  Ga  Ga7  1  0.98313000  0.00000000  0.91147000  1.0
  Ge  Ge8  1  0.01799000  0.00000000  0.02983000  1.0
  Ge  Ge9  1  0.01799000  0.50000000  0.02983000  1.0
  Ge  Ge10  1  0.50695000  0.50000000  0.91855000  1.0
  Ge  Ge11  1  0.50697000  0.00000000  0.91102000  1.0
  C  C12  1  0.49863000  0.00000000  0.83057000  1.0
  O  O13  1  0.50150000  0.00000000  0.78319000  1.0
