# generated using pymatgen
data_Mg8In8Ni16C
_symmetry_space_group_name_H-M   Pmm2
_cell_length_a   6.24448000
_cell_length_b   8.83103000
_cell_length_c   26.62330000
_cell_angle_alpha   90.00000000
_cell_angle_beta   90.00000000
_cell_angle_gamma   90.00000000
_symmetry_Int_Tables_number   25
_chemical_formula_structural   Mg8In8Ni16C
_chemical_formula_sum   'Mg8 In8 Ni16 C1'
_cell_volume   1468.14694264
_cell_formula_units_Z   1
loop_
 _symmetry_equiv_pos_site_id
 _symmetry_equiv_pos_as_xyz
  1  'x, y, z'
  2  '-x, -y, z'
  3  '-x, y, z'
  4  'x, -y, z'
loop_
 _atom_site_type_symbol
 _atom_site_label
 _atom_site_symmetry_multiplicity
 _atom_site_fract_x
 _atom_site_fract_y
 _atom_site_fract_z
 _atom_site_occupancy
  Mg  Mg0  2  0.50000000  0.24390000  0.13063000  1.0
  Mg  Mg1  2  0.50000000  0.24999000  0.95854000  1.0
  Mg  Mg2  1  0.00000000  0.00000000  0.03858000  1.0
  Mg  Mg3  1  0.00000000  0.00000000  0.87561000  1.0
  Mg  Mg4  1  0.00000000  0.50000000  0.04009000  1.0
  Mg  Mg5  1  0.00000000  0.50000000  0.87561000  1.0
  In  In6  2  0.00000000  0.24321000  0.13181000  1.0
  In  In7  2  0.00000000  0.25001000  0.95854000  1.0
  In  In8  1  0.50000000  0.00000000  0.04054000  1.0
  In  In9  1  0.50000000  0.00000000  0.87561000  1.0
  In  In10  1  0.50000000  0.50000000  0.04134000  1.0
  In  In11  1  0.50000000  0.50000000  0.87561000  1.0
  Ni  Ni12  4  0.24754000  0.25029000  0.04284000  1.0
  Ni  Ni13  4  0.25000000  0.25001000  0.87561000  1.0
  Ni  Ni14  2  0.21982000  0.50000000  0.12415000  1.0
  Ni  Ni15  2  0.23809000  0.00000000  0.11695000  1.0
  Ni  Ni16  2  0.25000000  0.00000000  0.95854000  1.0
  Ni  Ni17  2  0.25000000  0.50000000  0.95854000  1.0
  C  C18  1  0.50000000  0.50000000  0.13659000  1.0
