# generated using pymatgen
data_Li8Mg8Pd8Pb8CO
_symmetry_space_group_name_H-M   'P 1'
_cell_length_a   9.45090000
_cell_length_b   6.68280000
_cell_length_c   27.08820000
_cell_angle_alpha   90.00000000
_cell_angle_beta   90.00000000
_cell_angle_gamma   90.00000000
_symmetry_Int_Tables_number   1
_chemical_formula_structural   Li8Mg8Pd8Pb8CO
_chemical_formula_sum   'Li8 Mg8 Pd8 Pb8 C1 O1'
_cell_volume   1710.84938949
_cell_formula_units_Z   1
loop_
 _symmetry_equiv_pos_site_id
 _symmetry_equiv_pos_as_xyz
  1  'x, y, z'
loop_
 _atom_site_type_symbol
 _atom_site_label
 _atom_site_symmetry_multiplicity
 _atom_site_fract_x
 _atom_site_fract_y
 _atom_site_fract_z
 _atom_site_occupancy
  Li  Li0  1  0.50000000  0.00000000  0.13084000  1.0
  Li  Li1  1  0.00000000  0.00000000  0.13084000  1.0
  Li  Li2  1  0.25001000  0.50000000  0.04361000  1.0
  Li  Li3  1  0.74999000  0.50000000  0.04361000  1.0
  Li  Li4  1  0.00000000  0.02317000  0.95022000  1.0
  Li  Li5  1  0.50000000  0.01868000  0.95266000  1.0
  Li  Li6  1  0.75052000  0.48264000  0.86423000  1.0
  Li  Li7  1  0.24948000  0.48264000  0.86423000  1.0
  Mg  Mg8  1  0.50000000  0.75000000  0.04361000  1.0
  Mg  Mg9  1  0.00000000  0.75000000  0.04361000  1.0
  Mg  Mg10  1  0.75001000  0.25000000  0.13084000  1.0
  Mg  Mg11  1  0.24999000  0.25000000  0.13084000  1.0
  Mg  Mg12  1  0.00000000  0.76660000  0.86698000  1.0
  Mg  Mg13  1  0.50000000  0.77017000  0.87009000  1.0
  Mg  Mg14  1  0.25102000  0.25618000  0.95484000  1.0
  Mg  Mg15  1  0.74898000  0.25618000  0.95484000  1.0
  Pd  Pd16  1  0.75001000  0.00000000  0.04361000  1.0
  Pd  Pd17  1  0.24999000  0.00000000  0.04361000  1.0
  Pd  Pd18  1  0.00000000  0.50000000  0.13084000  1.0
  Pd  Pd19  1  0.50000000  0.50000000  0.13084000  1.0
  Pd  Pd20  1  0.24674000  0.01269000  0.87634000  1.0
  Pd  Pd21  1  0.75326000  0.01269000  0.87634000  1.0
  Pd  Pd22  1  0.50000000  0.48615000  0.94914000  1.0
  Pd  Pd23  1  0.00000000  0.48279000  0.95204000  1.0
  Pb  Pb24  1  0.50000000  0.25000000  0.04361000  1.0
  Pb  Pb25  1  0.00000000  0.25000000  0.04361000  1.0
  Pb  Pb26  1  0.75001000  0.75000000  0.13084000  1.0
  Pb  Pb27  1  0.24999000  0.75000000  0.13084000  1.0
  Pb  Pb28  1  0.00000000  0.25093000  0.85155000  1.0
  Pb  Pb29  1  0.50000000  0.24407000  0.85354000  1.0
  Pb  Pb30  1  0.24887000  0.74392000  0.95533000  1.0
  Pb  Pb31  1  0.75113000  0.74392000  0.95533000  1.0
  C  C32  1  0.50000000  0.74219000  0.78790000  1.0
  O  O33  1  0.50000000  0.74109000  0.74558000  1.0
