data_image0
_chemical_formula_structural       V8Ga8Co16CO
_chemical_formula_sum              "V8 Ga8 Co16 C1 O1"
_cell_length_a       5.77968
_cell_length_b       8.1737
_cell_length_c       26.1303
_cell_angle_alpha    90
_cell_angle_beta     90
_cell_angle_gamma    90

_space_group_name_H-M_alt    "P 1"
_space_group_IT_number       1

loop_
  _space_group_symop_operation_xyz
  'x, y, z'

loop_
  _atom_site_type_symbol
  _atom_site_label
  _atom_site_symmetry_multiplicity
  _atom_site_fract_x
  _atom_site_fract_y
  _atom_site_fract_z
  _atom_site_occupancy
  V   V1        1.0  0.00000  0.00000  0.88270  1.0000
  V   V2        1.0  0.50000  0.25000  0.96090  1.0000
  V   V3        1.0  0.50000  0.75000  0.96090  1.0000
  V   V4        1.0  0.00000  0.50000  0.88270  1.0000
  V   V5        1.0  0.00001  0.49927  0.04354  1.0000
  V   V6        1.0  0.50000  0.74999  0.11684  1.0000
  V   V7        1.0  0.50000  0.25001  0.11381  1.0000
  V   V8        1.0  0.00000  0.00073  0.04353  1.0000
  Ga  Ga1       1.0  0.00000  0.75000  0.96090  1.0000
  Ga  Ga2       1.0  0.50000  0.00000  0.88270  1.0000
  Ga  Ga3       1.0  0.00000  0.25000  0.96090  1.0000
  Ga  Ga4       1.0  0.50000  0.50000  0.88270  1.0000
  Ga  Ga5       1.0  0.99999  0.24996  0.12103  1.0000
  Ga  Ga6       1.0  0.50001  0.49911  0.04013  1.0000
  Ga  Ga7       1.0  0.99999  0.75004  0.12188  1.0000
  Ga  Ga8       1.0  0.50001  0.00089  0.04014  1.0000
  Co  Co1       1.0  0.25000  0.00000  0.96090  1.0000
  Co  Co2       1.0  0.75000  0.50000  0.96090  1.0000
  Co  Co3       1.0  0.75000  0.00000  0.96090  1.0000
  Co  Co4       1.0  0.25000  0.50000  0.96090  1.0000
  Co  Co5       1.0  0.75000  0.75000  0.88270  1.0000
  Co  Co6       1.0  0.25000  0.25000  0.88270  1.0000
  Co  Co7       1.0  0.25000  0.75000  0.88270  1.0000
  Co  Co8       1.0  0.75000  0.25000  0.88270  1.0000
  Co  Co9       1.0  0.25353  0.50082  0.11296  1.0000
  Co  Co10      1.0  0.74645  0.99918  0.11296  1.0000
  Co  Co11      1.0  0.74646  0.50082  0.11296  1.0000
  Co  Co12      1.0  0.25355  0.99918  0.11296  1.0000
  Co  Co13      1.0  0.75218  0.24998  0.03720  1.0000
  Co  Co14      1.0  0.25404  0.75002  0.03916  1.0000
  Co  Co15      1.0  0.24782  0.24998  0.03720  1.0000
  Co  Co16      1.0  0.74596  0.75002  0.03916  1.0000
  C   C1        1.0  0.50000  0.25000  0.19215  1.0000
  O   O1        1.0  0.50000  0.25000  0.23734  1.0000
