# generated using pymatgen
data_CaPd
_symmetry_space_group_name_H-M   'P 1'
_cell_length_a   3.57427500
_cell_length_b   3.57427500
_cell_length_c   25.36140000
_cell_angle_alpha   90.00000000
_cell_angle_beta   90.00000000
_cell_angle_gamma   90.00000000
_symmetry_Int_Tables_number   1
_chemical_formula_structural   CaPd
_chemical_formula_sum   'Ca2 Pd2'
_cell_volume   324.00308905
_cell_formula_units_Z   2
loop_
 _symmetry_equiv_pos_site_id
 _symmetry_equiv_pos_as_xyz
  1  'x, y, z'
loop_
 _atom_site_type_symbol
 _atom_site_label
 _atom_site_symmetry_multiplicity
 _atom_site_fract_x
 _atom_site_fract_y
 _atom_site_fract_z
 _atom_site_occupancy
  Ca  Ca0  1  0.50000000  0.50000000  0.05119000  1.0
  Ca  Ca1  1  0.50000000  0.50000000  0.91026000  1.0
  Pd  Pd2  1  0.00000000  0.00000000  0.12166000  1.0
  Pd  Pd3  1  0.00000000  0.00000000  0.98072000  1.0
