data_image0
_chemical_formula_structural       Hf4Co8Sn4
_chemical_formula_sum              "Hf4 Co8 Sn4"
_cell_length_a       6.2657
_cell_length_b       6.2657
_cell_length_c       24.6993
_cell_angle_alpha    90
_cell_angle_beta     90
_cell_angle_gamma    90

_space_group_name_H-M_alt    "P 1"
_space_group_IT_number       1

loop_
  _space_group_symop_operation_xyz
  'x, y, z'

loop_
  _atom_site_type_symbol
  _atom_site_label
  _atom_site_symmetry_multiplicity
  _atom_site_fract_x
  _atom_site_fract_y
  _atom_site_fract_z
  _atom_site_occupancy
  Hf  Hf1       1.0  0.00000  0.00000  0.09513  1.0000
  Hf  Hf2       1.0  0.50000  0.50000  0.09513  1.0000
  Hf  Hf3       1.0  0.50000  0.00000  0.96829  1.0000
  Hf  Hf4       1.0  0.00000  0.50000  0.96829  1.0000
  Co  Co1       1.0  0.25000  0.25000  0.03171  1.0000
  Co  Co2       1.0  0.75000  0.75000  0.90487  1.0000
  Co  Co3       1.0  0.75000  0.25000  0.03171  1.0000
  Co  Co4       1.0  0.25000  0.75000  0.90487  1.0000
  Co  Co5       1.0  0.75000  0.75000  0.03171  1.0000
  Co  Co6       1.0  0.25000  0.25000  0.90487  1.0000
  Co  Co7       1.0  0.25000  0.75000  0.03171  1.0000
  Co  Co8       1.0  0.75000  0.25000  0.90487  1.0000
  Sn  Sn1       1.0  0.00000  0.00000  0.96829  1.0000
  Sn  Sn2       1.0  0.50000  0.00000  0.09513  1.0000
  Sn  Sn3       1.0  0.00000  0.50000  0.09513  1.0000
  Sn  Sn4       1.0  0.50000  0.50000  0.96829  1.0000
