# generated using pymatgen
data_Cu12Pt4C
_symmetry_space_group_name_H-M   'P 1'
_cell_length_a   5.32133000
_cell_length_b   7.52549000
_cell_length_c   23.99100000
_cell_angle_alpha   90.00000000
_cell_angle_beta   90.00000000
_cell_angle_gamma   90.00000000
_symmetry_Int_Tables_number   1
_chemical_formula_structural   Cu12Pt4C
_chemical_formula_sum   'Cu12 Pt4 C1'
_cell_volume   960.73436630
_cell_formula_units_Z   1
loop_
 _symmetry_equiv_pos_site_id
 _symmetry_equiv_pos_as_xyz
  1  'x, y, z'
loop_
 _atom_site_type_symbol
 _atom_site_label
 _atom_site_symmetry_multiplicity
 _atom_site_fract_x
 _atom_site_fract_y
 _atom_site_fract_z
 _atom_site_occupancy
  Cu  Cu0  1  0.50000000  0.00000000  0.08318000  1.0
  Cu  Cu1  1  0.75000000  0.25000000  0.02773000  1.0
  Cu  Cu2  1  0.25000000  0.25000000  0.02773000  1.0
  Cu  Cu3  1  0.00000000  0.00000000  0.98077000  1.0
  Cu  Cu4  1  0.23297000  0.21787000  0.91631000  1.0
  Cu  Cu5  1  0.76703000  0.21787000  0.91631000  1.0
  Cu  Cu6  1  0.50000000  0.50000000  0.08318000  1.0
  Cu  Cu7  1  0.75000000  0.75000000  0.02773000  1.0
  Cu  Cu8  1  0.25000000  0.75000000  0.02773000  1.0
  Cu  Cu9  1  0.00000000  0.50000000  0.96842000  1.0
  Cu  Cu10  1  0.23297000  0.78213000  0.91631000  1.0
  Cu  Cu11  1  0.76703000  0.78213000  0.91631000  1.0
  Pt  Pt12  1  0.00000000  0.00000000  0.08318000  1.0
  Pt  Pt13  1  0.50000000  0.00000000  0.97545000  1.0
  Pt  Pt14  1  0.00000000  0.50000000  0.08318000  1.0
  Pt  Pt15  1  0.50000000  0.50000000  0.96236000  1.0
  C  C16  1  0.00000000  0.00000000  0.90124000  1.0
