# generated using pymatgen
data_Li8Ge4Au4CO
_symmetry_space_group_name_H-M   'P 1'
_cell_length_a   6.30953000
_cell_length_b   6.30953000
_cell_length_c   24.73210000
_cell_angle_alpha   90.00000000
_cell_angle_beta   90.00000000
_cell_angle_gamma   90.00000000
_symmetry_Int_Tables_number   1
_chemical_formula_structural   Li8Ge4Au4CO
_chemical_formula_sum   'Li8 Ge4 Au4 C1 O1'
_cell_volume   984.58907630
_cell_formula_units_Z   1
loop_
 _symmetry_equiv_pos_site_id
 _symmetry_equiv_pos_as_xyz
  1  'x, y, z'
loop_
 _atom_site_type_symbol
 _atom_site_label
 _atom_site_symmetry_multiplicity
 _atom_site_fract_x
 _atom_site_fract_y
 _atom_site_fract_z
 _atom_site_occupancy
  Li  Li0  1  0.00000000  0.00000000  0.03189000  1.0
  Li  Li1  1  0.50000000  0.00000000  0.89503000  1.0
  Li  Li2  1  0.00000000  0.50000000  0.89322000  1.0
  Li  Li3  1  0.50000000  0.50000000  0.03189000  1.0
  Li  Li4  1  0.25000000  0.25000000  0.09567000  1.0
  Li  Li5  1  0.24927000  0.74908000  0.96441000  1.0
  Li  Li6  1  0.75000000  0.75000000  0.09567000  1.0
  Li  Li7  1  0.75073000  0.25092000  0.96441000  1.0
  Ge  Ge8  1  0.00000000  0.00000000  0.90273000  1.0
  Ge  Ge9  1  0.50000000  0.50000000  0.90264000  1.0
  Ge  Ge10  1  0.50000000  0.00000000  0.03189000  1.0
  Ge  Ge11  1  0.00000000  0.50000000  0.03189000  1.0
  Au  Au12  1  0.24962000  0.25037000  0.96558000  1.0
  Au  Au13  1  0.25000000  0.75000000  0.09567000  1.0
  Au  Au14  1  0.75038000  0.74963000  0.96558000  1.0
  Au  Au15  1  0.75000000  0.25000000  0.09567000  1.0
  C  C16  1  0.00000000  0.50000000  0.80736000  1.0
  O  O17  1  0.00000000  0.50000000  0.76134000  1.0
