# generated using pymatgen
data_Fe8Ir24CO
_symmetry_space_group_name_H-M   'P 1'
_cell_length_a   7.75552000
_cell_length_b   7.75552000
_cell_length_c   25.81660000
_cell_angle_alpha   90.00000000
_cell_angle_beta   90.00000000
_cell_angle_gamma   90.00000000
_symmetry_Int_Tables_number   1
_chemical_formula_structural   Fe8Ir24CO
_chemical_formula_sum   'Fe8 Ir24 C1 O1'
_cell_volume   1552.81919244
_cell_formula_units_Z   1
loop_
 _symmetry_equiv_pos_site_id
 _symmetry_equiv_pos_as_xyz
  1  'x, y, z'
loop_
 _atom_site_type_symbol
 _atom_site_label
 _atom_site_symmetry_multiplicity
 _atom_site_fract_x
 _atom_site_fract_y
 _atom_site_fract_z
 _atom_site_occupancy
  Fe  Fe0  1  0.75000000  0.75000000  0.11265000  1.0
  Fe  Fe1  1  0.75000000  0.75000000  0.96245000  1.0
  Fe  Fe2  1  0.75000000  0.25000000  0.11265000  1.0
  Fe  Fe3  1  0.75000000  0.25000000  0.96245000  1.0
  Fe  Fe4  1  0.25000000  0.75000000  0.11265000  1.0
  Fe  Fe5  1  0.25000000  0.75000000  0.96245000  1.0
  Fe  Fe6  1  0.25000000  0.25000000  0.11265000  1.0
  Fe  Fe7  1  0.25000000  0.25000000  0.96245000  1.0
  Ir  Ir8  1  0.75000000  0.00000000  0.03755000  1.0
  Ir  Ir9  1  0.00000000  0.75000000  0.03755000  1.0
  Ir  Ir10  1  0.00000000  0.00000000  0.11265000  1.0
  Ir  Ir11  1  0.75000000  0.00000000  0.88735000  1.0
  Ir  Ir12  1  0.00000000  0.75000000  0.88735000  1.0
  Ir  Ir13  1  0.00000000  0.00000000  0.96245000  1.0
  Ir  Ir14  1  0.75000000  0.50000000  0.03755000  1.0
  Ir  Ir15  1  0.00000000  0.25000000  0.03755000  1.0
  Ir  Ir16  1  0.00000000  0.50000000  0.11265000  1.0
  Ir  Ir17  1  0.75000000  0.50000000  0.88735000  1.0
  Ir  Ir18  1  0.00000000  0.25000000  0.88735000  1.0
  Ir  Ir19  1  0.00000000  0.50000000  0.96245000  1.0
  Ir  Ir20  1  0.25000000  0.00000000  0.03755000  1.0
  Ir  Ir21  1  0.50000000  0.75000000  0.03755000  1.0
  Ir  Ir22  1  0.50000000  0.00000000  0.11265000  1.0
  Ir  Ir23  1  0.25000000  0.00000000  0.88735000  1.0
  Ir  Ir24  1  0.50000000  0.75000000  0.88735000  1.0
  Ir  Ir25  1  0.50000000  0.00000000  0.96245000  1.0
  Ir  Ir26  1  0.25000000  0.50000000  0.03755000  1.0
  Ir  Ir27  1  0.50000000  0.25000000  0.03755000  1.0
  Ir  Ir28  1  0.50000000  0.50000000  0.11265000  1.0
  Ir  Ir29  1  0.25000000  0.50000000  0.88735000  1.0
  Ir  Ir30  1  0.50000000  0.25000000  0.88735000  1.0
  Ir  Ir31  1  0.50000000  0.50000000  0.96245000  1.0
  C  C32  1  0.00000000  0.00000000  0.18625000  1.0
  O  O33  1  0.00000000  0.00000000  0.23079000  1.0
