data_image0
_chemical_formula_structural       AlNi3AlNi3AlNi3AlNi3AlNi3AlNi3AlNi3AlNi3
_chemical_formula_sum              "Al8 Ni24"
_cell_length_a       7.20976
_cell_length_b       7.20976
_cell_length_c       25.4073
_cell_angle_alpha    90
_cell_angle_beta     90
_cell_angle_gamma    90

_space_group_name_H-M_alt    "P 1"
_space_group_IT_number       1

loop_
  _space_group_symop_operation_xyz
  'x, y, z'

loop_
  _atom_site_type_symbol
  _atom_site_label
  _atom_site_symmetry_multiplicity
  _atom_site_fract_x
  _atom_site_fract_y
  _atom_site_fract_z
  _atom_site_occupancy
  Al  Al1       1.0  0.00000  0.00000  0.89359  1.0000
  Ni  Ni1       1.0  0.00000  0.25000  0.96453  1.0000
  Ni  Ni2       1.0  0.25000  0.00000  0.96453  1.0000
  Ni  Ni3       1.0  0.25000  0.25000  0.89359  1.0000
  Al  Al2       1.0  0.00000  0.00000  0.03547  1.0000
  Ni  Ni4       1.0  0.00000  0.25000  0.10641  1.0000
  Ni  Ni5       1.0  0.25000  0.00000  0.10641  1.0000
  Ni  Ni6       1.0  0.25000  0.25000  0.03547  1.0000
  Al  Al3       1.0  0.00000  0.50000  0.89359  1.0000
  Ni  Ni7       1.0  0.00000  0.75000  0.96453  1.0000
  Ni  Ni8       1.0  0.25000  0.50000  0.96453  1.0000
  Ni  Ni9       1.0  0.25000  0.75000  0.89359  1.0000
  Al  Al4       1.0  0.00000  0.50000  0.03547  1.0000
  Ni  Ni10      1.0  0.00000  0.75000  0.10641  1.0000
  Ni  Ni11      1.0  0.25000  0.50000  0.10641  1.0000
  Ni  Ni12      1.0  0.25000  0.75000  0.03547  1.0000
  Al  Al5       1.0  0.50000  0.00000  0.89359  1.0000
  Ni  Ni13      1.0  0.50000  0.25000  0.96453  1.0000
  Ni  Ni14      1.0  0.75000  0.00000  0.96453  1.0000
  Ni  Ni15      1.0  0.75000  0.25000  0.89359  1.0000
  Al  Al6       1.0  0.50000  0.00000  0.03547  1.0000
  Ni  Ni16      1.0  0.50000  0.25000  0.10641  1.0000
  Ni  Ni17      1.0  0.75000  0.00000  0.10641  1.0000
  Ni  Ni18      1.0  0.75000  0.25000  0.03547  1.0000
  Al  Al7       1.0  0.50000  0.50000  0.89359  1.0000
  Ni  Ni19      1.0  0.50000  0.75000  0.96453  1.0000
  Ni  Ni20      1.0  0.75000  0.50000  0.96453  1.0000
  Ni  Ni21      1.0  0.75000  0.75000  0.89359  1.0000
  Al  Al8       1.0  0.50000  0.50000  0.03547  1.0000
  Ni  Ni22      1.0  0.50000  0.75000  0.10641  1.0000
  Ni  Ni23      1.0  0.75000  0.50000  0.10641  1.0000
  Ni  Ni24      1.0  0.75000  0.75000  0.03547  1.0000
