# generated using pymatgen
data_TiInNi2
_symmetry_space_group_name_H-M   'P 1'
_cell_length_a   6.16408000
_cell_length_b   8.71733000
_cell_length_c   26.53800000
_cell_angle_alpha   90.00000000
_cell_angle_beta   90.00000000
_cell_angle_gamma   90.00000000
_symmetry_Int_Tables_number   1
_chemical_formula_structural   TiInNi2
_chemical_formula_sum   'Ti8 In8 Ni16'
_cell_volume   1426.00137106
_cell_formula_units_Z   8
loop_
 _symmetry_equiv_pos_site_id
 _symmetry_equiv_pos_as_xyz
  1  'x, y, z'
loop_
 _atom_site_type_symbol
 _atom_site_label
 _atom_site_symmetry_multiplicity
 _atom_site_fract_x
 _atom_site_fract_y
 _atom_site_fract_z
 _atom_site_occupancy
  Ti  Ti0  1  0.00000000  0.75000000  0.87682000  1.0
  Ti  Ti1  1  0.50000000  0.00000000  0.95894000  1.0
  Ti  Ti2  1  0.50000000  0.50000000  0.95894000  1.0
  Ti  Ti3  1  0.00000000  0.25000000  0.87682000  1.0
  Ti  Ti4  1  0.00000000  0.25003000  0.04369000  1.0
  Ti  Ti5  1  0.50000000  0.50000000  0.11913000  1.0
  Ti  Ti6  1  0.50000000  0.00000000  0.11912000  1.0
  Ti  Ti7  1  0.00000000  0.74997000  0.04369000  1.0
  In  In8  1  0.00000000  0.50000000  0.95894000  1.0
  In  In9  1  0.50000000  0.75000000  0.87682000  1.0
  In  In10  1  0.00000000  0.00000000  0.95894000  1.0
  In  In11  1  0.50000000  0.25000000  0.87682000  1.0
  In  In12  1  0.00000000  0.00000000  0.13316000  1.0
  In  In13  1  0.50000000  0.24998000  0.03808000  1.0
  In  In14  1  0.00000000  0.50000000  0.13319000  1.0
  In  In15  1  0.50000000  0.75002000  0.03808000  1.0
  Ni  Ni16  1  0.25000000  0.75000000  0.95894000  1.0
  Ni  Ni17  1  0.75000000  0.25000000  0.95894000  1.0
  Ni  Ni18  1  0.75000000  0.75000000  0.95894000  1.0
  Ni  Ni19  1  0.25000000  0.25000000  0.95894000  1.0
  Ni  Ni20  1  0.75000000  0.50000000  0.87682000  1.0
  Ni  Ni21  1  0.25000000  0.00000000  0.87682000  1.0
  Ni  Ni22  1  0.25000000  0.50000000  0.87682000  1.0
  Ni  Ni23  1  0.75000000  0.00000000  0.87682000  1.0
  Ni  Ni24  1  0.25688000  0.25004000  0.11776000  1.0
  Ni  Ni25  1  0.74312000  0.74996000  0.11776000  1.0
  Ni  Ni26  1  0.74312000  0.25004000  0.11776000  1.0
  Ni  Ni27  1  0.25688000  0.74996000  0.11776000  1.0
  Ni  Ni28  1  0.75707000  0.00000000  0.04439000  1.0
  Ni  Ni29  1  0.24321000  0.50000000  0.04438000  1.0
  Ni  Ni30  1  0.24293000  0.00000000  0.04439000  1.0
  Ni  Ni31  1  0.75679000  0.50000000  0.04438000  1.0
