# generated using pymatgen
data_Y4In4Pd4Au4C
_symmetry_space_group_name_H-M   Cmm2
_cell_length_a   9.80272030
_cell_length_b   9.80272030
_cell_length_c   25.19870000
_cell_angle_alpha   90.00000000
_cell_angle_beta   90.00000000
_cell_angle_gamma   90.00000000
_symmetry_Int_Tables_number   35
_chemical_formula_structural   Y4In4Pd4Au4C
_chemical_formula_sum   'Y8 In8 Pd8 Au8 C2'
_cell_volume   2421.42687699
_cell_formula_units_Z   2
loop_
 _symmetry_equiv_pos_site_id
 _symmetry_equiv_pos_as_xyz
  1  'x, y, z'
  2  '-x, -y, z'
  3  '-x, y, z'
  4  'x, -y, z'
  5  'x+1/2, y+1/2, z'
  6  '-x+1/2, -y+1/2, z'
  7  '-x+1/2, y+1/2, z'
  8  'x+1/2, -y+1/2, z'
loop_
 _atom_site_type_symbol
 _atom_site_label
 _atom_site_symmetry_multiplicity
 _atom_site_fract_x
 _atom_site_fract_y
 _atom_site_fract_z
 _atom_site_occupancy
  Y  Y0  4  0.25000000  0.25000000  0.89685000  1.0
  Y  Y1  2  0.00000000  0.00000000  0.03438000  1.0
  Y  Y2  2  0.00000000  0.50000000  0.03438000  1.0
  In  In3  4  0.25000000  0.25000000  0.03438000  1.0
  In  In4  2  0.00000000  0.00000000  0.89685000  1.0
  In  In5  2  0.00000000  0.50000000  0.89685000  1.0
  Pd  Pd6  4  0.00000000  0.25000000  0.10315000  1.0
  Pd  Pd7  4  0.25000000  0.00000000  0.96562000  1.0
  Au  Au8  4  0.00000000  0.25000000  0.96562000  1.0
  Au  Au9  4  0.25000000  0.00000000  0.10315000  1.0
  C  C10  2  0.00000000  0.50000000  0.13490000  1.0
