# generated using pymatgen
data_Li4In4Cu4Sn4CO
_symmetry_space_group_name_H-M   P1
_cell_length_a   6.73938000
_cell_length_b   6.73938000
_cell_length_c   25.05450000
_cell_angle_alpha   90.00000000
_cell_angle_beta   90.00000000
_cell_angle_gamma   90.00000000
_symmetry_Int_Tables_number   1
_chemical_formula_structural   Li4In4Cu4Sn4CO
_chemical_formula_sum   'Li4 In4 Cu4 Sn4 C1 O1'
_cell_volume   1137.95641834
_cell_formula_units_Z   1
loop_
 _symmetry_equiv_pos_site_id
 _symmetry_equiv_pos_as_xyz
  1  'x, y, z'
loop_
 _atom_site_type_symbol
 _atom_site_label
 _atom_site_symmetry_multiplicity
 _atom_site_fract_x
 _atom_site_fract_y
 _atom_site_fract_z
 _atom_site_occupancy
  Li  Li0  1  0.00000000  0.50000000  0.89913000  1.0
  Li  Li1  1  0.50000000  0.00000000  0.89913000  1.0
  Li  Li2  1  0.50322000  0.50304000  0.03638000  1.0
  Li  Li3  1  0.99726000  0.99739000  0.03564000  1.0
  In  In4  1  0.25000000  0.25000000  0.96638000  1.0
  In  In5  1  0.25049000  0.75129000  0.11218000  1.0
  In  In6  1  0.75000000  0.75000000  0.96638000  1.0
  In  In7  1  0.75133000  0.25048000  0.11222000  1.0
  Cu  Cu8  1  0.00000000  0.00000000  0.89913000  1.0
  Cu  Cu9  1  0.50000000  0.50000000  0.89913000  1.0
  Cu  Cu10  1  0.50237000  0.99796000  0.02869000  1.0
  Cu  Cu11  1  0.99790000  0.50233000  0.02869000  1.0
  Sn  Sn12  1  0.24857000  0.24857000  0.09822000  1.0
  Sn  Sn13  1  0.25000000  0.75000000  0.96638000  1.0
  Sn  Sn14  1  0.75000000  0.25000000  0.96638000  1.0
  Sn  Sn15  1  0.75117000  0.75117000  0.10241000  1.0
  C  C16  1  0.28145000  0.28140000  0.26513000  1.0
  O  O17  1  0.23103000  0.23105000  0.30618000  1.0
