data_image0
_chemical_formula_structural       V16Ru16CO
_chemical_formula_sum              "V16 Ru16 C1 O1"
_cell_length_a       6.03636
_cell_length_b       8.5367
_cell_length_c       26.4025
_cell_angle_alpha    90
_cell_angle_beta     90
_cell_angle_gamma    90

_space_group_name_H-M_alt    "P 1"
_space_group_IT_number       1

loop_
  _space_group_symop_operation_xyz
  'x, y, z'

loop_
  _atom_site_type_symbol
  _atom_site_label
  _atom_site_symmetry_multiplicity
  _atom_site_fract_x
  _atom_site_fract_y
  _atom_site_fract_z
  _atom_site_occupancy
  V   V1        1.0  0.25000  0.25000  0.87875  1.0000
  V   V2        1.0  0.25000  0.00000  0.95958  1.0000
  V   V3        1.0  0.25590  0.25000  0.04134  1.0000
  V   V4        1.0  0.25548  0.99647  0.12335  1.0000
  V   V5        1.0  0.25000  0.75000  0.87875  1.0000
  V   V6        1.0  0.25000  0.50000  0.95958  1.0000
  V   V7        1.0  0.24484  0.75000  0.04130  1.0000
  V   V8        1.0  0.25548  0.50353  0.12335  1.0000
  V   V9        1.0  0.75000  0.25000  0.87875  1.0000
  V   V10       1.0  0.75000  0.00000  0.95958  1.0000
  V   V11       1.0  0.74410  0.25000  0.04134  1.0000
  V   V12       1.0  0.74452  0.99647  0.12335  1.0000
  V   V13       1.0  0.75000  0.75000  0.87875  1.0000
  V   V14       1.0  0.75000  0.50000  0.95958  1.0000
  V   V15       1.0  0.75516  0.75000  0.04130  1.0000
  V   V16       1.0  0.74452  0.50353  0.12335  1.0000
  Ru  Ru1       1.0  0.00000  0.00000  0.87875  1.0000
  Ru  Ru2       1.0  0.00000  0.25000  0.95958  1.0000
  Ru  Ru3       1.0  1.00000  0.01088  0.04345  1.0000
  Ru  Ru4       1.0  1.00000  0.25001  0.12347  1.0000
  Ru  Ru5       1.0  0.00000  0.50000  0.87875  1.0000
  Ru  Ru6       1.0  0.00000  0.75000  0.95958  1.0000
  Ru  Ru7       1.0  1.00000  0.48912  0.04345  1.0000
  Ru  Ru8       1.0  1.00000  0.74998  0.11547  1.0000
  Ru  Ru9       1.0  0.50000  0.00000  0.87875  1.0000
  Ru  Ru10      1.0  0.50000  0.25000  0.95958  1.0000
  Ru  Ru11      1.0  0.50000  0.99461  0.04219  1.0000
  Ru  Ru12      1.0  0.50000  0.25002  0.11541  1.0000
  Ru  Ru13      1.0  0.50000  0.50000  0.87875  1.0000
  Ru  Ru14      1.0  0.50000  0.75000  0.95958  1.0000
  Ru  Ru15      1.0  0.50000  0.50538  0.04219  1.0000
  Ru  Ru16      1.0  0.50000  0.74998  0.11703  1.0000
  C   C1        1.0  0.00000  0.25000  0.19500  1.0000
  O   O1        1.0  1.00000  0.25000  0.23911  1.0000
