# generated using pymatgen
data_V16Ru16CO
_symmetry_space_group_name_H-M   'P 1'
_cell_length_a   6.03636000
_cell_length_b   8.53670000
_cell_length_c   26.40250000
_cell_angle_alpha   90.00000000
_cell_angle_beta   90.00000000
_cell_angle_gamma   90.00000000
_symmetry_Int_Tables_number   1
_chemical_formula_structural   V16Ru16CO
_chemical_formula_sum   'V16 Ru16 C1 O1'
_cell_volume   1360.53651896
_cell_formula_units_Z   1
loop_
 _symmetry_equiv_pos_site_id
 _symmetry_equiv_pos_as_xyz
  1  'x, y, z'
loop_
 _atom_site_type_symbol
 _atom_site_label
 _atom_site_symmetry_multiplicity
 _atom_site_fract_x
 _atom_site_fract_y
 _atom_site_fract_z
 _atom_site_occupancy
  V  V0  1  0.25000000  0.00000000  0.87875000  1.0
  V  V1  1  0.25000000  0.75000000  0.95958000  1.0
  V  V2  1  0.25590000  0.00000000  0.04134000  1.0
  V  V3  1  0.25548000  0.74647000  0.12335000  1.0
  V  V4  1  0.25000000  0.50000000  0.87875000  1.0
  V  V5  1  0.25000000  0.25000000  0.95958000  1.0
  V  V6  1  0.24484000  0.50000000  0.04130000  1.0
  V  V7  1  0.25548000  0.25353000  0.12335000  1.0
  V  V8  1  0.75000000  0.00000000  0.87875000  1.0
  V  V9  1  0.75000000  0.75000000  0.95958000  1.0
  V  V10  1  0.74410000  0.00000000  0.04134000  1.0
  V  V11  1  0.74452000  0.74647000  0.12335000  1.0
  V  V12  1  0.75000000  0.50000000  0.87875000  1.0
  V  V13  1  0.75000000  0.25000000  0.95958000  1.0
  V  V14  1  0.75516000  0.50000000  0.04130000  1.0
  V  V15  1  0.74452000  0.25353000  0.12335000  1.0
  Ru  Ru16  1  0.00000000  0.75000000  0.87875000  1.0
  Ru  Ru17  1  0.00000000  0.00000000  0.95958000  1.0
  Ru  Ru18  1  0.00000000  0.76088000  0.04345000  1.0
  Ru  Ru19  1  0.00000000  0.00000000  0.12347000  1.0
  Ru  Ru20  1  0.00000000  0.25000000  0.87875000  1.0
  Ru  Ru21  1  0.00000000  0.50000000  0.95958000  1.0
  Ru  Ru22  1  0.00000000  0.23912000  0.04345000  1.0
  Ru  Ru23  1  0.00000000  0.50000000  0.11547000  1.0
  Ru  Ru24  1  0.50000000  0.75000000  0.87875000  1.0
  Ru  Ru25  1  0.50000000  0.00000000  0.95958000  1.0
  Ru  Ru26  1  0.50000000  0.74461000  0.04219000  1.0
  Ru  Ru27  1  0.50000000  0.00000000  0.11541000  1.0
  Ru  Ru28  1  0.50000000  0.25000000  0.87875000  1.0
  Ru  Ru29  1  0.50000000  0.50000000  0.95958000  1.0
  Ru  Ru30  1  0.50000000  0.25539000  0.04219000  1.0
  Ru  Ru31  1  0.50000000  0.50000000  0.11703000  1.0
  C  C32  1  0.00000000  0.00000000  0.19500000  1.0
  O  O33  1  0.00000000  0.00000000  0.23911000  1.0
