# generated using pymatgen
data_V16Ru16CO
_symmetry_space_group_name_H-M   Pmm2
_cell_length_a   6.03636000
_cell_length_b   8.53670000
_cell_length_c   26.40250000
_cell_angle_alpha   90.00000000
_cell_angle_beta   90.00000000
_cell_angle_gamma   90.00000000
_symmetry_Int_Tables_number   25
_chemical_formula_structural   V16Ru16CO
_chemical_formula_sum   'V16 Ru16 C1 O1'
_cell_volume   1360.53651896
_cell_formula_units_Z   1
loop_
 _symmetry_equiv_pos_site_id
 _symmetry_equiv_pos_as_xyz
  1  'x, y, z'
  2  '-x, -y, z'
  3  '-x, y, z'
  4  'x, -y, z'
loop_
 _atom_site_type_symbol
 _atom_site_label
 _atom_site_symmetry_multiplicity
 _atom_site_fract_x
 _atom_site_fract_y
 _atom_site_fract_z
 _atom_site_occupancy
  V  V0  4  0.25000000  0.25000000  0.95958000  1.0
  V  V1  4  0.25548000  0.25353000  0.12335000  1.0
  V  V2  2  0.24484000  0.50000000  0.04130000  1.0
  V  V3  2  0.25000000  0.00000000  0.87875000  1.0
  V  V4  2  0.25000000  0.50000000  0.87875000  1.0
  V  V5  2  0.25590000  0.00000000  0.04134000  1.0
  Ru  Ru6  2  0.00000000  0.23912000  0.04345000  1.0
  Ru  Ru7  2  0.00000000  0.25000000  0.87875000  1.0
  Ru  Ru8  2  0.50000000  0.25000000  0.87875000  1.0
  Ru  Ru9  2  0.50000000  0.25539000  0.04219000  1.0
  Ru  Ru10  1  0.00000000  0.00000000  0.12347000  1.0
  Ru  Ru11  1  0.00000000  0.00000000  0.95958000  1.0
  Ru  Ru12  1  0.00000000  0.50000000  0.11547000  1.0
  Ru  Ru13  1  0.00000000  0.50000000  0.95958000  1.0
  Ru  Ru14  1  0.50000000  0.00000000  0.11541000  1.0
  Ru  Ru15  1  0.50000000  0.00000000  0.95958000  1.0
  Ru  Ru16  1  0.50000000  0.50000000  0.11703000  1.0
  Ru  Ru17  1  0.50000000  0.50000000  0.95958000  1.0
  C  C18  1  0.00000000  0.00000000  0.19500000  1.0
  O  O19  1  0.00000000  0.00000000  0.23911000  1.0
