# generated using pymatgen
data_Hf8Al8Cu16CO
_symmetry_space_group_name_H-M   Pmm2
_cell_length_a   6.21964000
_cell_length_b   8.79589000
_cell_length_c   26.59690000
_cell_angle_alpha   90.00000000
_cell_angle_beta   90.00000000
_cell_angle_gamma   90.00000000
_symmetry_Int_Tables_number   25
_chemical_formula_structural   Hf8Al8Cu16CO
_chemical_formula_sum   'Hf8 Al8 Cu16 C1 O1'
_cell_volume   1455.04377030
_cell_formula_units_Z   1
loop_
 _symmetry_equiv_pos_site_id
 _symmetry_equiv_pos_as_xyz
  1  'x, y, z'
  2  '-x, -y, z'
  3  '-x, y, z'
  4  'x, -y, z'
loop_
 _atom_site_type_symbol
 _atom_site_label
 _atom_site_symmetry_multiplicity
 _atom_site_fract_x
 _atom_site_fract_y
 _atom_site_fract_z
 _atom_site_occupancy
  Hf  Hf0  2  0.00000000  0.25000000  0.87598000  1.0
  Hf  Hf1  2  0.00000000  0.25166000  0.04203000  1.0
  Hf  Hf2  1  0.50000000  0.00000000  0.12330000  1.0
  Hf  Hf3  1  0.50000000  0.00000000  0.95866000  1.0
  Hf  Hf4  1  0.50000000  0.50000000  0.12403000  1.0
  Hf  Hf5  1  0.50000000  0.50000000  0.95866000  1.0
  Al  Al6  2  0.50000000  0.24906000  0.04215000  1.0
  Al  Al7  2  0.50000000  0.25000000  0.87598000  1.0
  Al  Al8  1  0.00000000  0.00000000  0.12439000  1.0
  Al  Al9  1  0.00000000  0.00000000  0.95866000  1.0
  Al  Al10  1  0.00000000  0.50000000  0.12409000  1.0
  Al  Al11  1  0.00000000  0.50000000  0.95866000  1.0
  Cu  Cu12  4  0.24403000  0.25060000  0.12571000  1.0
  Cu  Cu13  4  0.25000000  0.25000000  0.95866000  1.0
  Cu  Cu14  2  0.24707000  0.00000000  0.04040000  1.0
  Cu  Cu15  2  0.25000000  0.00000000  0.87598000  1.0
  Cu  Cu16  2  0.25000000  0.50000000  0.87598000  1.0
  Cu  Cu17  2  0.25777000  0.50000000  0.04166000  1.0
  C  C18  1  0.50000000  0.00000000  0.20656000  1.0
  O  O19  1  0.50000000  0.00000000  0.24994000  1.0
