# generated using pymatgen
data_Zr12In4CO
_symmetry_space_group_name_H-M   'P 1'
_cell_length_a   6.34923000
_cell_length_b   8.97917000
_cell_length_c   24.76190000
_cell_angle_alpha   90.00000000
_cell_angle_beta   90.00000000
_cell_angle_gamma   90.00000000
_symmetry_Int_Tables_number   1
_chemical_formula_structural   Zr12In4CO
_chemical_formula_sum   'Zr12 In4 C1 O1'
_cell_volume   1411.69611330
_cell_formula_units_Z   1
loop_
 _symmetry_equiv_pos_site_id
 _symmetry_equiv_pos_as_xyz
  1  'x, y, z'
loop_
 _atom_site_type_symbol
 _atom_site_label
 _atom_site_symmetry_multiplicity
 _atom_site_fract_x
 _atom_site_fract_y
 _atom_site_fract_z
 _atom_site_occupancy
  Zr  Zr0  1  0.50000000  1.00000000  0.09615000  1.0
  Zr  Zr1  1  0.25000000  0.75000000  0.03205000  1.0
  Zr  Zr2  1  0.75000000  0.75000000  0.03205000  1.0
  Zr  Zr3  1  0.98130000  0.00440000  0.97005000  1.0
  Zr  Zr4  1  0.70352000  0.75009000  0.91120000  1.0
  Zr  Zr5  1  0.16609000  0.75003000  0.90661000  1.0
  Zr  Zr6  1  0.50000000  0.50000000  0.09615000  1.0
  Zr  Zr7  1  0.25000000  0.25000000  0.03205000  1.0
  Zr  Zr8  1  0.75000000  0.25000000  0.03205000  1.0
  Zr  Zr9  1  0.98130000  0.49557000  0.97003000  1.0
  Zr  Zr10  1  0.71858000  0.24997000  0.90971000  1.0
  Zr  Zr11  1  0.22306000  0.24988000  0.91015000  1.0
  In  In12  1  0.00000000  0.00000000  0.09615000  1.0
  In  In13  1  0.47479000  0.00012000  0.96770000  1.0
  In  In14  1  0.00000000  0.50000000  0.09615000  1.0
  In  In15  1  0.47476000  0.49993000  0.96789000  1.0
  C  C16  1  0.87826000  0.75004000  0.83709000  1.0
  O  O17  1  0.93455000  0.74997000  0.79118000  1.0
