# generated using pymatgen
data_Li8Al8Ag8Ge8C
_symmetry_space_group_name_H-M   Pmm2
_cell_length_a   7.71364000
_cell_length_b   8.55604000
_cell_length_c   26.02050000
_cell_angle_alpha   90.00000000
_cell_angle_beta   90.00000000
_cell_angle_gamma   90.00000000
_symmetry_Int_Tables_number   25
_chemical_formula_structural   Li8Al8Ag8Ge8C
_chemical_formula_sum   'Li8 Al8 Ag8 Ge8 C1'
_cell_volume   1717.30648538
_cell_formula_units_Z   1
loop_
 _symmetry_equiv_pos_site_id
 _symmetry_equiv_pos_as_xyz
  1  'x, y, z'
  2  '-x, -y, z'
  3  '-x, y, z'
  4  'x, -y, z'
loop_
 _atom_site_type_symbol
 _atom_site_label
 _atom_site_symmetry_multiplicity
 _atom_site_fract_x
 _atom_site_fract_y
 _atom_site_fract_z
 _atom_site_occupancy
  Li  Li0  4  0.25000000  0.25000000  0.11569000  1.0
  Li  Li1  4  0.25000000  0.25000000  0.96144000  1.0
  Al  Al2  2  0.25000000  0.00000000  0.03856000  1.0
  Al  Al3  2  0.25000000  0.00000000  0.88431000  1.0
  Al  Al4  2  0.25000000  0.50000000  0.03856000  1.0
  Al  Al5  2  0.25000000  0.50000000  0.88431000  1.0
  Ag  Ag6  2  0.00000000  0.25000000  0.03856000  1.0
  Ag  Ag7  2  0.00000000  0.25000000  0.88431000  1.0
  Ag  Ag8  2  0.50000000  0.25000000  0.03856000  1.0
  Ag  Ag9  2  0.50000000  0.25000000  0.88431000  1.0
  Ge  Ge10  1  0.00000000  0.00000000  0.11569000  1.0
  Ge  Ge11  1  0.00000000  0.00000000  0.96144000  1.0
  Ge  Ge12  1  0.00000000  0.50000000  0.11569000  1.0
  Ge  Ge13  1  0.00000000  0.50000000  0.96144000  1.0
  Ge  Ge14  1  0.50000000  0.00000000  0.11569000  1.0
  Ge  Ge15  1  0.50000000  0.00000000  0.96144000  1.0
  Ge  Ge16  1  0.50000000  0.50000000  0.11569000  1.0
  Ge  Ge17  1  0.50000000  0.50000000  0.96144000  1.0
  C  C18  1  0.00000000  0.00000000  0.85357000  1.0
