# generated using pymatgen
data_Li8Mg8In8Cu8C
_symmetry_space_group_name_H-M   'P 1'
_cell_length_a   9.10482000
_cell_length_b   6.43808000
_cell_length_c   26.82860000
_cell_angle_alpha   90.00000000
_cell_angle_beta   90.00000000
_cell_angle_gamma   90.00000000
_symmetry_Int_Tables_number   1
_chemical_formula_structural   Li8Mg8In8Cu8C
_chemical_formula_sum   'Li8 Mg8 In8 Cu8 C1'
_cell_volume   1572.62705803
_cell_formula_units_Z   1
loop_
 _symmetry_equiv_pos_site_id
 _symmetry_equiv_pos_as_xyz
  1  'x, y, z'
loop_
 _atom_site_type_symbol
 _atom_site_label
 _atom_site_symmetry_multiplicity
 _atom_site_fract_x
 _atom_site_fract_y
 _atom_site_fract_z
 _atom_site_occupancy
  Li  Li0  1  0.00000000  0.00000000  0.04242000  1.0
  Li  Li1  1  0.50000000  0.00000000  0.04242000  1.0
  Li  Li2  1  0.25000000  0.50000000  0.12726000  1.0
  Li  Li3  1  0.75000000  0.50000000  0.12726000  1.0
  Li  Li4  1  0.50000000  0.98805000  0.83444000  1.0
  Li  Li5  1  0.00000000  0.02621000  0.83784000  1.0
  Li  Li6  1  0.74934000  0.49943000  0.95238000  1.0
  Li  Li7  1  0.25066000  0.49943000  0.95238000  1.0
  Mg  Mg8  1  0.75000000  0.75000000  0.04242000  1.0
  Mg  Mg9  1  0.25000000  0.75000000  0.04242000  1.0
  Mg  Mg10  1  0.00000000  0.25000000  0.12726000  1.0
  Mg  Mg11  1  0.50000000  0.25000000  0.12726000  1.0
  Mg  Mg12  1  0.23831000  0.73975000  0.86024000  1.0
  Mg  Mg13  1  0.76169000  0.73975000  0.86024000  1.0
  Mg  Mg14  1  0.50000000  0.24248000  0.95257000  1.0
  Mg  Mg15  1  0.00000000  0.23253000  0.95273000  1.0
  In  In16  1  0.75000000  0.25000000  0.04242000  1.0
  In  In17  1  0.25000000  0.25000000  0.04242000  1.0
  In  In18  1  0.00000000  0.75000000  0.12726000  1.0
  In  In19  1  0.50000000  0.75000000  0.12726000  1.0
  In  In20  1  0.26363000  0.23075000  0.86453000  1.0
  In  In21  1  0.73637000  0.23075000  0.86453000  1.0
  In  In22  1  0.50000000  0.76281000  0.94946000  1.0
  In  In23  1  0.00000000  0.76387000  0.95283000  1.0
  Cu  Cu24  1  0.75000000  0.00000000  0.12726000  1.0
  Cu  Cu25  1  0.25000000  0.00000000  0.12726000  1.0
  Cu  Cu26  1  0.50000000  0.50000000  0.04242000  1.0
  Cu  Cu27  1  0.00000000  0.50000000  0.04242000  1.0
  Cu  Cu28  1  0.25241000  0.00209000  0.95976000  1.0
  Cu  Cu29  1  0.74759000  0.00209000  0.95976000  1.0
  Cu  Cu30  1  0.00000000  0.43666000  0.86720000  1.0
  Cu  Cu31  1  0.50000000  0.49897000  0.87218000  1.0
  C  C32  1  0.00000000  0.72919000  0.86557000  1.0
