# generated using pymatgen
data_Ti24Sn8C
_symmetry_space_group_name_H-M   P4mm
_cell_length_a   8.35210000
_cell_length_b   8.35210000
_cell_length_c   26.26410000
_cell_angle_alpha   90.00000000
_cell_angle_beta   90.00000000
_cell_angle_gamma   90.00000000
_symmetry_Int_Tables_number   99
_chemical_formula_structural   Ti24Sn8C
_chemical_formula_sum   'Ti24 Sn8 C1'
_cell_volume   1832.11991006
_cell_formula_units_Z   1
loop_
 _symmetry_equiv_pos_site_id
 _symmetry_equiv_pos_as_xyz
  1  'x, y, z'
  2  '-y, x, z'
  3  '-x, -y, z'
  4  'y, -x, z'
  5  '-x, y, z'
  6  'y, x, z'
  7  'x, -y, z'
  8  '-y, -x, z'
loop_
 _atom_site_type_symbol
 _atom_site_label
 _atom_site_symmetry_multiplicity
 _atom_site_fract_x
 _atom_site_fract_y
 _atom_site_fract_z
 _atom_site_occupancy
  Ti  Ti0  4  0.00000000  0.25000000  0.11925000  1.0
  Ti  Ti1  4  0.00000000  0.25000000  0.96025000  1.0
  Ti  Ti2  4  0.25000000  0.50000000  0.11925000  1.0
  Ti  Ti3  4  0.25000000  0.50000000  0.96025000  1.0
  Ti  Ti4  2  0.00000000  0.50000000  0.03975000  1.0
  Ti  Ti5  2  0.00000000  0.50000000  0.88075000  1.0
  Ti  Ti6  1  0.00000000  0.00000000  0.03975000  1.0
  Ti  Ti7  1  0.00000000  0.00000000  0.88075000  1.0
  Ti  Ti8  1  0.50000000  0.50000000  0.03975000  1.0
  Ti  Ti9  1  0.50000000  0.50000000  0.88075000  1.0
  Sn  Sn10  4  0.25000000  0.25000000  0.03975000  1.0
  Sn  Sn11  4  0.25000000  0.25000000  0.88075000  1.0
  C  C12  1  0.00000000  0.00000000  0.14971000  1.0
