# generated using pymatgen
data_Ti8Al8Cu16CO
_symmetry_space_group_name_H-M   'P 1'
_cell_length_a   6.05884000
_cell_length_b   8.56849000
_cell_length_c   26.42640000
_cell_angle_alpha   90.00000000
_cell_angle_beta   90.00000000
_cell_angle_gamma   90.00000000
_symmetry_Int_Tables_number   1
_chemical_formula_structural   Ti8Al8Cu16CO
_chemical_formula_sum   'Ti8 Al8 Cu16 C1 O1'
_cell_volume   1371.92946162
_cell_formula_units_Z   1
loop_
 _symmetry_equiv_pos_site_id
 _symmetry_equiv_pos_as_xyz
  1  'x, y, z'
loop_
 _atom_site_type_symbol
 _atom_site_label
 _atom_site_symmetry_multiplicity
 _atom_site_fract_x
 _atom_site_fract_y
 _atom_site_fract_z
 _atom_site_occupancy
  Ti  Ti0  1  0.00000000  0.75000000  0.87841000  1.0
  Ti  Ti1  1  0.50000000  0.00000000  0.95947000  1.0
  Ti  Ti2  1  0.50000000  0.50000000  0.95947000  1.0
  Ti  Ti3  1  0.00000000  0.25000000  0.87841000  1.0
  Ti  Ti4  1  0.00000000  0.24975000  0.04185000  1.0
  Ti  Ti5  1  0.50000000  0.50000000  0.12030000  1.0
  Ti  Ti6  1  0.50000000  0.00000000  0.12024000  1.0
  Ti  Ti7  1  0.00000000  0.75025000  0.04185000  1.0
  Al  Al8  1  0.00000000  0.50000000  0.95947000  1.0
  Al  Al9  1  0.50000000  0.75000000  0.87841000  1.0
  Al  Al10  1  0.00000000  0.00000000  0.95947000  1.0
  Al  Al11  1  0.50000000  0.25000000  0.87841000  1.0
  Al  Al12  1  0.00000000  0.00000000  0.11990000  1.0
  Al  Al13  1  0.50000000  0.25135000  0.03981000  1.0
  Al  Al14  1  0.00000000  0.50000000  0.12285000  1.0
  Al  Al15  1  0.50000000  0.74865000  0.03981000  1.0
  Cu  Cu16  1  0.25000000  0.75000000  0.95947000  1.0
  Cu  Cu17  1  0.75000000  0.25000000  0.95947000  1.0
  Cu  Cu18  1  0.75000000  0.75000000  0.95947000  1.0
  Cu  Cu19  1  0.25000000  0.25000000  0.95947000  1.0
  Cu  Cu20  1  0.75000000  0.50000000  0.87841000  1.0
  Cu  Cu21  1  0.25000000  0.00000000  0.87841000  1.0
  Cu  Cu22  1  0.25000000  0.50000000  0.87841000  1.0
  Cu  Cu23  1  0.75000000  0.00000000  0.87841000  1.0
  Cu  Cu24  1  0.26046000  0.25299000  0.12042000  1.0
  Cu  Cu25  1  0.73954000  0.74701000  0.12042000  1.0
  Cu  Cu26  1  0.73954000  0.25299000  0.12042000  1.0
  Cu  Cu27  1  0.26046000  0.74701000  0.12042000  1.0
  Cu  Cu28  1  0.74633000  0.00000000  0.04054000  1.0
  Cu  Cu29  1  0.24983000  0.50000000  0.04037000  1.0
  Cu  Cu30  1  0.25367000  0.00000000  0.04054000  1.0
  Cu  Cu31  1  0.75017000  0.50000000  0.04037000  1.0
  C  C32  1  0.00000000  0.00000000  0.19454000  1.0
  O  O33  1  0.00000000  0.00000000  0.23828000  1.0
