# generated using pymatgen
data_Li8Ge8Rh16C
_symmetry_space_group_name_H-M   'P 1'
_cell_length_a   8.40623000
_cell_length_b   5.94410000
_cell_length_c   26.30470000
_cell_angle_alpha   90.00000000
_cell_angle_beta   90.00000000
_cell_angle_gamma   90.00000000
_symmetry_Int_Tables_number   1
_chemical_formula_structural   Li8Ge8Rh16C
_chemical_formula_sum   'Li8 Ge8 Rh16 C1'
_cell_volume   1314.37935396
_cell_formula_units_Z   1
loop_
 _symmetry_equiv_pos_site_id
 _symmetry_equiv_pos_as_xyz
  1  'x, y, z'
loop_
 _atom_site_type_symbol
 _atom_site_label
 _atom_site_symmetry_multiplicity
 _atom_site_fract_x
 _atom_site_fract_y
 _atom_site_fract_z
 _atom_site_occupancy
  Li  Li0  1  0.75000000  0.00000000  0.11984000  1.0
  Li  Li1  1  0.00000000  0.50000000  0.03995000  1.0
  Li  Li2  1  0.50000000  0.50000000  0.03995000  1.0
  Li  Li3  1  0.25000000  0.00000000  0.11984000  1.0
  Li  Li4  1  0.24933000  0.00480000  0.96001000  1.0
  Li  Li5  1  0.50000000  0.48269000  0.85832000  1.0
  Li  Li6  1  0.00000000  0.53222000  0.82579000  1.0
  Li  Li7  1  0.75067000  0.00480000  0.96001000  1.0
  Ge  Ge8  1  0.50000000  1.00000000  0.03995000  1.0
  Ge  Ge9  1  0.75000000  0.50000000  0.11984000  1.0
  Ge  Ge10  1  0.00000000  0.00000000  0.03995000  1.0
  Ge  Ge11  1  0.25000000  0.50000000  0.11984000  1.0
  Ge  Ge12  1  0.00000000  0.92124000  0.87351000  1.0
  Ge  Ge13  1  0.25650000  0.50802000  0.96180000  1.0
  Ge  Ge14  1  0.50000000  0.00224000  0.88063000  1.0
  Ge  Ge15  1  0.74350000  0.50802000  0.96180000  1.0
  Rh  Rh16  1  0.75000000  0.25000000  0.03995000  1.0
  Rh  Rh17  1  0.25000000  0.75000000  0.03995000  1.0
  Rh  Rh18  1  0.75000000  0.75000000  0.03995000  1.0
  Rh  Rh19  1  0.25000000  0.25000000  0.03995000  1.0
  Rh  Rh20  1  0.50000000  0.75000000  0.11984000  1.0
  Rh  Rh21  1  0.00000000  0.25000000  0.11984000  1.0
  Rh  Rh22  1  0.50000000  0.25000000  0.11984000  1.0
  Rh  Rh23  1  0.00000000  0.75000000  0.11984000  1.0
  Rh  Rh24  1  0.22600000  0.25874000  0.88185000  1.0
  Rh  Rh25  1  0.73899000  0.75318000  0.88285000  1.0
  Rh  Rh26  1  0.26101000  0.75318000  0.88285000  1.0
  Rh  Rh27  1  0.77400000  0.25874000  0.88185000  1.0
  Rh  Rh28  1  0.00000000  0.74879000  0.96082000  1.0
  Rh  Rh29  1  0.50000000  0.25800000  0.95647000  1.0
  Rh  Rh30  1  0.00000000  0.26244000  0.95997000  1.0
  Rh  Rh31  1  0.50000000  0.75478000  0.96079000  1.0
  C  C32  1  0.00000000  0.27920000  0.88180000  1.0
