# generated using pymatgen
data_Li8Ge8Rh16C
_symmetry_space_group_name_H-M   Pm
_cell_length_a   5.94410000
_cell_length_b   8.40623000
_cell_length_c   26.30470000
_cell_angle_alpha   90.00000000
_cell_angle_beta   90.00000000
_cell_angle_gamma   90.00000000
_symmetry_Int_Tables_number   6
_chemical_formula_structural   Li8Ge8Rh16C
_chemical_formula_sum   'Li8 Ge8 Rh16 C1'
_cell_volume   1314.37935396
_cell_formula_units_Z   1
loop_
 _symmetry_equiv_pos_site_id
 _symmetry_equiv_pos_as_xyz
  1  'x, y, z'
  2  'x, -y, z'
loop_
 _atom_site_type_symbol
 _atom_site_label
 _atom_site_symmetry_multiplicity
 _atom_site_fract_x
 _atom_site_fract_y
 _atom_site_fract_z
 _atom_site_occupancy
  Li  Li0  2  0.00000000  0.25000000  0.88016000  1.0
  Li  Li1  2  0.00480000  0.24933000  0.03999000  1.0
  Li  Li2  1  0.48269000  0.50000000  0.14168000  1.0
  Li  Li3  1  0.50000000  0.00000000  0.96005000  1.0
  Li  Li4  1  0.50000000  0.50000000  0.96005000  1.0
  Li  Li5  1  0.53222000  0.00000000  0.17421000  1.0
  Ge  Ge6  2  0.50000000  0.25000000  0.88016000  1.0
  Ge  Ge7  2  0.50802000  0.25650000  0.03820000  1.0
  Ge  Ge8  1  -0.00000000  0.50000000  0.96005000  1.0
  Ge  Ge9  1  0.00000000  0.00000000  0.96005000  1.0
  Ge  Ge10  1  0.00224000  0.50000000  0.11937000  1.0
  Ge  Ge11  1  0.92124000  0.00000000  0.12649000  1.0
  Rh  Rh12  2  0.25000000  0.25000000  0.96005000  1.0
  Rh  Rh13  2  0.25874000  0.22600000  0.11815000  1.0
  Rh  Rh14  2  0.75000000  0.25000000  0.96005000  1.0
  Rh  Rh15  2  0.75318000  0.26101000  0.11715000  1.0
  Rh  Rh16  1  0.25000000  0.00000000  0.88016000  1.0
  Rh  Rh17  1  0.25000000  0.50000000  0.88016000  1.0
  Rh  Rh18  1  0.25800000  0.50000000  0.04353000  1.0
  Rh  Rh19  1  0.26244000  0.00000000  0.04003000  1.0
  Rh  Rh20  1  0.74879000  0.00000000  0.03918000  1.0
  Rh  Rh21  1  0.75000000  0.00000000  0.88016000  1.0
  Rh  Rh22  1  0.75000000  0.50000000  0.88016000  1.0
  Rh  Rh23  1  0.75478000  0.50000000  0.03921000  1.0
  C  C24  1  0.27920000  0.00000000  0.11820000  1.0
