# generated using pymatgen
data_Y4In4Sn4Pd4CO
_symmetry_space_group_name_H-M   'P 1'
_cell_length_a   9.16402000
_cell_length_b   6.29351000
_cell_length_c   24.71690000
_cell_angle_alpha   90.00000000
_cell_angle_beta   90.00000000
_cell_angle_gamma   90.00000000
_symmetry_Int_Tables_number   1
_chemical_formula_structural   Y4In4Sn4Pd4CO
_chemical_formula_sum   'Y4 In4 Sn4 Pd4 C1 O1'
_cell_volume   1425.51882039
_cell_formula_units_Z   1
loop_
 _symmetry_equiv_pos_site_id
 _symmetry_equiv_pos_as_xyz
  1  'x, y, z'
loop_
 _atom_site_type_symbol
 _atom_site_label
 _atom_site_symmetry_multiplicity
 _atom_site_fract_x
 _atom_site_fract_y
 _atom_site_fract_z
 _atom_site_occupancy
  Y  Y0  1  0.24894000  0.75657000  0.96648000  1.0
  Y  Y1  1  0.24999000  0.22218000  0.09542000  1.0
  Y  Y2  1  0.75106000  0.75657000  0.96648000  1.0
  Y  Y3  1  0.75001000  0.22218000  0.09542000  1.0
  In  In4  1  0.00000000  0.04373000  0.91092000  1.0
  In  In5  1  0.00000000  0.48145000  0.03181000  1.0
  In  In6  1  0.50000000  0.99154000  0.89533000  1.0
  In  In7  1  0.50000000  0.48145000  0.03181000  1.0
  Sn  Sn8  1  0.26962000  0.25107000  0.95777000  1.0
  Sn  Sn9  1  0.24999000  0.72218000  0.09542000  1.0
  Sn  Sn10  1  0.73038000  0.25107000  0.95777000  1.0
  Sn  Sn11  1  0.75001000  0.72218000  0.09542000  1.0
  Pd  Pd12  1  0.00000000  0.51706000  0.91632000  1.0
  Pd  Pd13  1  0.00000000  0.98145000  0.03181000  1.0
  Pd  Pd14  1  0.50000000  0.54182000  0.91928000  1.0
  Pd  Pd15  1  0.50000000  0.98145000  0.03181000  1.0
  C  C16  1  0.00000000  0.52085000  0.83667000  1.0
  O  O17  1  0.00000000  0.52165000  0.79007000  1.0
