# generated using pymatgen
data_Y4In4Sn4Pd4CO
_symmetry_space_group_name_H-M   Pm
_cell_length_a   6.29351000
_cell_length_b   9.16402000
_cell_length_c   24.71690000
_cell_angle_alpha   90.00000000
_cell_angle_beta   90.00000000
_cell_angle_gamma   90.00000000
_symmetry_Int_Tables_number   6
_chemical_formula_structural   Y4In4Sn4Pd4CO
_chemical_formula_sum   'Y4 In4 Sn4 Pd4 C1 O1'
_cell_volume   1425.51882039
_cell_formula_units_Z   1
loop_
 _symmetry_equiv_pos_site_id
 _symmetry_equiv_pos_as_xyz
  1  'x, y, z'
  2  'x, -y, z'
loop_
 _atom_site_type_symbol
 _atom_site_label
 _atom_site_symmetry_multiplicity
 _atom_site_fract_x
 _atom_site_fract_y
 _atom_site_fract_z
 _atom_site_occupancy
  Y  Y0  2  0.22218000  0.24999000  0.90458000  1.0
  Y  Y1  2  0.75657000  0.24894000  0.03352000  1.0
  In  In2  1  0.04373000  0.00000000  0.08908000  1.0
  In  In3  1  0.48145000  0.00000000  0.96819000  1.0
  In  In4  1  0.48145000  0.50000000  0.96819000  1.0
  In  In5  1  0.99154000  0.50000000  0.10467000  1.0
  Sn  Sn6  2  0.25107000  0.26962000  0.04223000  1.0
  Sn  Sn7  2  0.72218000  0.24999000  0.90458000  1.0
  Pd  Pd8  1  0.51706000  0.00000000  0.08368000  1.0
  Pd  Pd9  1  0.54182000  0.50000000  0.08072000  1.0
  Pd  Pd10  1  0.98145000  0.00000000  0.96819000  1.0
  Pd  Pd11  1  0.98145000  0.50000000  0.96819000  1.0
  C  C12  1  0.52085000  0.00000000  0.16333000  1.0
  O  O13  1  0.52165000  0.00000000  0.20993000  1.0
