data_image0
_chemical_formula_structural       Mn8Ni16Sn8CO
_chemical_formula_sum              "Mn8 Ni16 Sn8 C1 O1"
_cell_length_a       6.10266
_cell_length_b       8.63046
_cell_length_c       26.4728
_cell_angle_alpha    90
_cell_angle_beta     90
_cell_angle_gamma    90

_space_group_name_H-M_alt    "P 1"
_space_group_IT_number       1

loop_
  _space_group_symop_operation_xyz
  'x, y, z'

loop_
  _atom_site_type_symbol
  _atom_site_label
  _atom_site_symmetry_multiplicity
  _atom_site_fract_x
  _atom_site_fract_y
  _atom_site_fract_z
  _atom_site_occupancy
  Mn  Mn1       1.0  0.00000  0.00000  0.87775  1.0000
  Mn  Mn2       1.0  0.50000  0.25000  0.95925  1.0000
  Mn  Mn3       1.0  0.50000  0.75000  0.95925  1.0000
  Mn  Mn4       1.0  0.00000  0.50000  0.87775  1.0000
  Mn  Mn5       1.0  0.00000  0.49933  0.03977  1.0000
  Mn  Mn6       1.0  0.50000  0.75000  0.12311  1.0000
  Mn  Mn7       1.0  0.50000  0.25002  0.12271  1.0000
  Mn  Mn8       1.0  0.00000  0.00068  0.03977  1.0000
  Ni  Ni1       1.0  0.25000  0.00000  0.95925  1.0000
  Ni  Ni2       1.0  0.75000  0.50000  0.95925  1.0000
  Ni  Ni3       1.0  0.75000  0.00000  0.95925  1.0000
  Ni  Ni4       1.0  0.25000  0.50000  0.95925  1.0000
  Ni  Ni5       1.0  0.75000  0.75000  0.87775  1.0000
  Ni  Ni6       1.0  0.25000  0.25000  0.87775  1.0000
  Ni  Ni7       1.0  0.25000  0.75000  0.87775  1.0000
  Ni  Ni8       1.0  0.75000  0.25000  0.87775  1.0000
  Ni  Ni9       1.0  0.23866  0.50161  0.11675  1.0000
  Ni  Ni10      1.0  0.76134  0.99840  0.11675  1.0000
  Ni  Ni11      1.0  0.76135  0.50161  0.11675  1.0000
  Ni  Ni12      1.0  0.23866  0.99840  0.11675  1.0000
  Ni  Ni13      1.0  0.75374  0.25003  0.04289  1.0000
  Ni  Ni14      1.0  0.23497  0.74997  0.04465  1.0000
  Ni  Ni15      1.0  0.24626  0.25003  0.04289  1.0000
  Ni  Ni16      1.0  0.76503  0.74997  0.04465  1.0000
  Sn  Sn1       1.0  0.00000  0.75000  0.95925  1.0000
  Sn  Sn2       1.0  0.50000  0.00000  0.87775  1.0000
  Sn  Sn3       1.0  0.00000  0.25000  0.95925  1.0000
  Sn  Sn4       1.0  0.50000  0.50000  0.87775  1.0000
  Sn  Sn5       1.0  0.00000  0.25001  0.13071  1.0000
  Sn  Sn6       1.0  0.50000  0.50243  0.03975  1.0000
  Sn  Sn7       1.0  0.00000  0.75000  0.13424  1.0000
  Sn  Sn8       1.0  0.50000  0.99758  0.03975  1.0000
  C   C1        1.0  0.99996  0.24985  0.27799  1.0000
  O   O1        1.0  0.00001  0.25003  0.32083  1.0000
