# generated using pymatgen
data_Li8Al8Cu8Ag8CO
_symmetry_space_group_name_H-M   'P 1'
_cell_length_a   8.70076000
_cell_length_b   6.15237000
_cell_length_c   26.52560000
_cell_angle_alpha   90.00000000
_cell_angle_beta   90.00000000
_cell_angle_gamma   90.00000000
_symmetry_Int_Tables_number   1
_chemical_formula_structural   Li8Al8Cu8Ag8CO
_chemical_formula_sum   'Li8 Al8 Cu8 Ag8 C1 O1'
_cell_volume   1419.92318778
_cell_formula_units_Z   1
loop_
 _symmetry_equiv_pos_site_id
 _symmetry_equiv_pos_as_xyz
  1  'x, y, z'
loop_
 _atom_site_type_symbol
 _atom_site_label
 _atom_site_symmetry_multiplicity
 _atom_site_fract_x
 _atom_site_fract_y
 _atom_site_fract_z
 _atom_site_occupancy
  Li  Li0  1  0.75000000  0.75000000  0.04100000  1.0
  Li  Li1  1  0.25000000  0.75000000  0.04100000  1.0
  Li  Li2  1  0.00000000  0.25000000  0.12301000  1.0
  Li  Li3  1  0.50000000  0.25000000  0.12301000  1.0
  Li  Li4  1  0.25201000  0.75911000  0.87055000  1.0
  Li  Li5  1  0.74799000  0.75911000  0.87055000  1.0
  Li  Li6  1  0.50000000  0.24905000  0.96270000  1.0
  Li  Li7  1  0.00000000  0.26243000  0.96043000  1.0
  Al  Al8  1  0.75000000  0.25000000  0.04100000  1.0
  Al  Al9  1  0.25000000  0.25000000  0.04100000  1.0
  Al  Al10  1  0.00000000  0.75000000  0.12301000  1.0
  Al  Al11  1  0.50000000  0.75000000  0.12301000  1.0
  Al  Al12  1  0.25277000  0.23497000  0.87636000  1.0
  Al  Al13  1  0.74723000  0.23497000  0.87636000  1.0
  Al  Al14  1  0.50000000  0.74557000  0.95711000  1.0
  Al  Al15  1  0.00000000  0.73862000  0.95558000  1.0
  Cu  Cu16  1  0.00000000  1.00000000  0.04100000  1.0
  Cu  Cu17  1  0.50000000  1.00000000  0.04100000  1.0
  Cu  Cu18  1  0.25000000  0.50000000  0.12301000  1.0
  Cu  Cu19  1  0.75000000  0.50000000  0.12301000  1.0
  Cu  Cu20  1  0.50000000  0.01789000  0.88381000  1.0
  Cu  Cu21  1  0.00000000  0.02539000  0.88501000  1.0
  Cu  Cu22  1  0.75018000  0.50214000  0.95657000  1.0
  Cu  Cu23  1  0.24982000  0.50214000  0.95657000  1.0
  Ag  Ag24  1  0.75000000  0.00000000  0.12301000  1.0
  Ag  Ag25  1  0.25000000  0.00000000  0.12301000  1.0
  Ag  Ag26  1  0.50000000  0.50000000  0.04100000  1.0
  Ag  Ag27  1  0.00000000  0.50000000  0.04100000  1.0
  Ag  Ag28  1  0.24828000  0.99369000  0.95949000  1.0
  Ag  Ag29  1  0.75172000  0.99369000  0.95949000  1.0
  Ag  Ag30  1  0.00000000  0.47834000  0.87038000  1.0
  Ag  Ag31  1  0.50000000  0.48285000  0.87704000  1.0
  C  C32  1  0.00000000  0.56887000  0.78781000  1.0
  O  O33  1  0.00000000  0.52729000  0.74572000  1.0
