# generated using pymatgen
data_Al8V8Ni16C
_symmetry_space_group_name_H-M   'P 1'
_cell_length_a   8.22541000
_cell_length_b   5.81624000
_cell_length_c   26.16910000
_cell_angle_alpha   90.00000000
_cell_angle_beta   90.00000000
_cell_angle_gamma   90.00000000
_symmetry_Int_Tables_number   1
_chemical_formula_structural   Al8V8Ni16C
_chemical_formula_sum   'Al8 V8 Ni16 C1'
_cell_volume   1251.95483123
_cell_formula_units_Z   1
loop_
 _symmetry_equiv_pos_site_id
 _symmetry_equiv_pos_as_xyz
  1  'x, y, z'
loop_
 _atom_site_type_symbol
 _atom_site_label
 _atom_site_symmetry_multiplicity
 _atom_site_fract_x
 _atom_site_fract_y
 _atom_site_fract_z
 _atom_site_occupancy
  Al  Al0  1  0.00000000  0.00000000  0.11787000  1.0
  Al  Al1  1  0.25000000  0.50000000  0.03929000  1.0
  Al  Al2  1  0.75000000  0.50000000  0.03929000  1.0
  Al  Al3  1  0.50000000  0.00000000  0.11787000  1.0
  Al  Al4  1  0.49999000  0.00000000  0.96209000  1.0
  Al  Al5  1  0.74849000  0.50000000  0.87761000  1.0
  Al  Al6  1  0.25147000  0.50000000  0.87759000  1.0
  Al  Al7  1  0.00002000  0.00000000  0.96065000  1.0
  V  V8  1  0.75000000  0.00000000  0.03929000  1.0
  V  V9  1  0.00000000  0.50000000  0.11787000  1.0
  V  V10  1  0.25000000  0.00000000  0.03929000  1.0
  V  V11  1  0.50000000  0.50000000  0.11787000  1.0
  V  V12  1  0.25667000  0.00000000  0.88431000  1.0
  V  V13  1  0.50000000  0.50000000  0.95948000  1.0
  V  V14  1  0.74334000  0.00000000  0.88432000  1.0
  V  V15  1  0.00000000  0.50000000  0.95410000  1.0
  Ni  Ni16  1  0.00000000  0.75000000  0.03929000  1.0
  Ni  Ni17  1  0.50000000  0.25000000  0.03929000  1.0
  Ni  Ni18  1  0.00000000  0.25000000  0.03929000  1.0
  Ni  Ni19  1  0.50000000  0.75000000  0.03929000  1.0
  Ni  Ni20  1  0.75000000  0.25000000  0.11787000  1.0
  Ni  Ni21  1  0.25000000  0.75000000  0.11787000  1.0
  Ni  Ni22  1  0.75000000  0.75000000  0.11787000  1.0
  Ni  Ni23  1  0.25000000  0.25000000  0.11787000  1.0
  Ni  Ni24  1  0.50003000  0.75076000  0.88594000  1.0
  Ni  Ni25  1  0.99998000  0.19866000  0.87748000  1.0
  Ni  Ni26  1  0.50003000  0.24924000  0.88594000  1.0
  Ni  Ni27  1  0.99998000  0.80134000  0.87748000  1.0
  Ni  Ni28  1  0.25465000  0.25277000  0.96082000  1.0
  Ni  Ni29  1  0.74534000  0.74728000  0.96083000  1.0
  Ni  Ni30  1  0.25465000  0.74723000  0.96082000  1.0
  Ni  Ni31  1  0.74534000  0.25272000  0.96083000  1.0
  C  C32  1  0.99996000  0.50000000  0.87351000  1.0
