# generated using pymatgen
data_Al8V8Ni16C
_symmetry_space_group_name_H-M   Pm
_cell_length_a   8.22541000
_cell_length_b   5.81624000
_cell_length_c   26.16910000
_cell_angle_alpha   90.00000000
_cell_angle_beta   90.00000000
_cell_angle_gamma   90.00000000
_symmetry_Int_Tables_number   6
_chemical_formula_structural   Al8V8Ni16C
_chemical_formula_sum   'Al8 V8 Ni16 C1'
_cell_volume   1251.95483123
_cell_formula_units_Z   1
loop_
 _symmetry_equiv_pos_site_id
 _symmetry_equiv_pos_as_xyz
  1  'x, y, z'
  2  'x, -y, z'
loop_
 _atom_site_type_symbol
 _atom_site_label
 _atom_site_symmetry_multiplicity
 _atom_site_fract_x
 _atom_site_fract_y
 _atom_site_fract_z
 _atom_site_occupancy
  Al  Al0  1  0.00000000  0.00000000  0.88213000  1.0
  Al  Al1  1  0.00002000  0.00000000  0.03935000  1.0
  Al  Al2  1  0.25000000  0.50000000  0.96071000  1.0
  Al  Al3  1  0.25147000  0.50000000  0.12241000  1.0
  Al  Al4  1  0.49999000  0.00000000  0.03791000  1.0
  Al  Al5  1  0.50000000  0.00000000  0.88213000  1.0
  Al  Al6  1  0.74849000  0.50000000  0.12239000  1.0
  Al  Al7  1  0.75000000  0.50000000  0.96071000  1.0
  V  V8  1  0.00000000  0.50000000  0.04590000  1.0
  V  V9  1  0.00000000  0.50000000  0.88213000  1.0
  V  V10  1  0.25000000  0.00000000  0.96071000  1.0
  V  V11  1  0.25667000  0.00000000  0.11569000  1.0
  V  V12  1  0.50000000  0.50000000  0.04052000  1.0
  V  V13  1  0.50000000  0.50000000  0.88213000  1.0
  V  V14  1  0.74334000  0.00000000  0.11568000  1.0
  V  V15  1  0.75000000  0.00000000  0.96071000  1.0
  Ni  Ni16  2  0.00000000  0.25000000  0.96071000  1.0
  Ni  Ni17  2  0.25000000  0.25000000  0.88213000  1.0
  Ni  Ni18  2  0.25465000  0.25277000  0.03918000  1.0
  Ni  Ni19  2  0.50000000  0.25000000  0.96071000  1.0
  Ni  Ni20  2  0.50003000  0.24924000  0.11406000  1.0
  Ni  Ni21  2  0.74534000  0.25272000  0.03917000  1.0
  Ni  Ni22  2  0.75000000  0.25000000  0.88213000  1.0
  Ni  Ni23  2  0.99998000  0.19866000  0.12252000  1.0
  C  C24  1  0.99996000  0.50000000  0.12649000  1.0
