data_image0
_chemical_formula_structural       Li8Mg8Ag8Pb8CO
_chemical_formula_sum              "Li8 Mg8 Ag8 Pb8 C1 O1"
_cell_length_a       6.87998
_cell_length_b       9.72976
_cell_length_c       27.2973
_cell_angle_alpha    90
_cell_angle_beta     90
_cell_angle_gamma    90

_space_group_name_H-M_alt    "P 1"
_space_group_IT_number       1

loop_
  _space_group_symop_operation_xyz
  'x, y, z'

loop_
  _atom_site_type_symbol
  _atom_site_label
  _atom_site_symmetry_multiplicity
  _atom_site_fract_x
  _atom_site_fract_y
  _atom_site_fract_z
  _atom_site_occupancy
  Li  Li1       1.0  0.75000  0.00000  0.95545  1.0000
  Li  Li2       1.0  0.75000  0.50000  0.95545  1.0000
  Li  Li3       1.0  0.25000  0.25000  0.86634  1.0000
  Li  Li4       1.0  0.25000  0.75000  0.86634  1.0000
  Li  Li5       1.0  0.74277  0.50000  0.13675  1.0000
  Li  Li6       1.0  0.75311  1.00000  0.13733  1.0000
  Li  Li7       1.0  0.23577  0.75233  0.04798  1.0000
  Li  Li8       1.0  0.23577  0.24767  0.04799  1.0000
  Mg  Mg1       1.0  0.25000  0.00000  0.95545  1.0000
  Mg  Mg2       1.0  0.25000  0.50000  0.95545  1.0000
  Mg  Mg3       1.0  0.75000  0.25000  0.86634  1.0000
  Mg  Mg4       1.0  0.75000  0.75000  0.86634  1.0000
  Mg  Mg5       1.0  0.25234  0.50000  0.14354  1.0000
  Mg  Mg6       1.0  0.23850  0.00001  0.13926  1.0000
  Mg  Mg7       1.0  0.76327  0.74584  0.04933  1.0000
  Mg  Mg8       1.0  0.76328  0.25416  0.04933  1.0000
  Ag  Ag1       1.0  0.00000  0.00000  0.86634  1.0000
  Ag  Ag2       1.0  0.00000  0.50000  0.86634  1.0000
  Ag  Ag3       1.0  0.50000  0.75000  0.95545  1.0000
  Ag  Ag4       1.0  0.50000  0.25000  0.95545  1.0000
  Ag  Ag5       1.0  0.01050  0.50000  0.05414  1.0000
  Ag  Ag6       1.0  0.99727  1.00000  0.04991  1.0000
  Ag  Ag7       1.0  0.48920  0.25113  0.13107  1.0000
  Ag  Ag8       1.0  0.48919  0.74888  0.13107  1.0000
  Pb  Pb1       1.0  0.00000  0.25000  0.95545  1.0000
  Pb  Pb2       1.0  0.00000  0.75000  0.95545  1.0000
  Pb  Pb3       1.0  0.50000  0.50000  0.86634  1.0000
  Pb  Pb4       1.0  0.50000  0.00000  0.86634  1.0000
  Pb  Pb5       1.0  0.98443  0.74515  0.14801  1.0000
  Pb  Pb6       1.0  0.98442  0.25486  0.14801  1.0000
  Pb  Pb7       1.0  0.50045  0.00000  0.04952  1.0000
  Pb  Pb8       1.0  0.48955  0.50000  0.04881  1.0000
  C   C1        1.0  0.26273  1.00000  0.22128  1.0000
  O   O1        1.0  0.26065  0.99999  0.26325  1.0000
