# generated using pymatgen
data_Li8Mg8Ag8Pb8CO
_symmetry_space_group_name_H-M   'P 1'
_cell_length_a   9.72976000
_cell_length_b   6.87998000
_cell_length_c   27.29730000
_cell_angle_alpha   90.00000000
_cell_angle_beta   90.00000000
_cell_angle_gamma   90.00000000
_symmetry_Int_Tables_number   1
_chemical_formula_structural   Li8Mg8Ag8Pb8CO
_chemical_formula_sum   'Li8 Mg8 Ag8 Pb8 C1 O1'
_cell_volume   1827.29639029
_cell_formula_units_Z   1
loop_
 _symmetry_equiv_pos_site_id
 _symmetry_equiv_pos_as_xyz
  1  'x, y, z'
loop_
 _atom_site_type_symbol
 _atom_site_label
 _atom_site_symmetry_multiplicity
 _atom_site_fract_x
 _atom_site_fract_y
 _atom_site_fract_z
 _atom_site_occupancy
  Li  Li0  1  0.00000000  0.75000000  0.04455000  1.0
  Li  Li1  1  0.50000000  0.75000000  0.04455000  1.0
  Li  Li2  1  0.25000000  0.25000000  0.13366000  1.0
  Li  Li3  1  0.75000000  0.25000000  0.13366000  1.0
  Li  Li4  1  0.50000000  0.74277000  0.86325000  1.0
  Li  Li5  1  0.00000000  0.75311000  0.86267000  1.0
  Li  Li6  1  0.75233000  0.23577000  0.95202000  1.0
  Li  Li7  1  0.24767000  0.23577000  0.95202000  1.0
  Mg  Mg8  1  0.00000000  0.25000000  0.04455000  1.0
  Mg  Mg9  1  0.50000000  0.25000000  0.04455000  1.0
  Mg  Mg10  1  0.25000000  0.75000000  0.13366000  1.0
  Mg  Mg11  1  0.75000000  0.75000000  0.13366000  1.0
  Mg  Mg12  1  0.50000000  0.25234000  0.85646000  1.0
  Mg  Mg13  1  0.00000000  0.23850000  0.86074000  1.0
  Mg  Mg14  1  0.74584000  0.76327000  0.95067000  1.0
  Mg  Mg15  1  0.25416000  0.76327000  0.95067000  1.0
  Ag  Ag16  1  0.00000000  0.00000000  0.13366000  1.0
  Ag  Ag17  1  0.50000000  0.00000000  0.13366000  1.0
  Ag  Ag18  1  0.75000000  0.50000000  0.04455000  1.0
  Ag  Ag19  1  0.25000000  0.50000000  0.04455000  1.0
  Ag  Ag20  1  0.50000000  0.01050000  0.94586000  1.0
  Ag  Ag21  1  0.00000000  0.99727000  0.95009000  1.0
  Ag  Ag22  1  0.25113000  0.48920000  0.86893000  1.0
  Ag  Ag23  1  0.74887000  0.48920000  0.86893000  1.0
  Pb  Pb24  1  0.25000000  1.00000000  0.04455000  1.0
  Pb  Pb25  1  0.75000000  1.00000000  0.04455000  1.0
  Pb  Pb26  1  0.50000000  0.50000000  0.13366000  1.0
  Pb  Pb27  1  0.00000000  0.50000000  0.13366000  1.0
  Pb  Pb28  1  0.74515000  0.98443000  0.85199000  1.0
  Pb  Pb29  1  0.25485000  0.98443000  0.85199000  1.0
  Pb  Pb30  1  0.00000000  0.50045000  0.95048000  1.0
  Pb  Pb31  1  0.50000000  0.48955000  0.95119000  1.0
  C  C32  1  0.00000000  0.26273000  0.77872000  1.0
  O  O33  1  0.00000000  0.26065000  0.73675000  1.0
