# generated using pymatgen
data_Li8Mg8Ag8Pb8CO
_symmetry_space_group_name_H-M   Pm
_cell_length_a   6.87998000
_cell_length_b   9.72976000
_cell_length_c   27.29730000
_cell_angle_alpha   90.00000000
_cell_angle_beta   90.00000000
_cell_angle_gamma   90.00000000
_symmetry_Int_Tables_number   6
_chemical_formula_structural   Li8Mg8Ag8Pb8CO
_chemical_formula_sum   'Li8 Mg8 Ag8 Pb8 C1 O1'
_cell_volume   1827.29639029
_cell_formula_units_Z   1
loop_
 _symmetry_equiv_pos_site_id
 _symmetry_equiv_pos_as_xyz
  1  'x, y, z'
  2  'x, -y, z'
loop_
 _atom_site_type_symbol
 _atom_site_label
 _atom_site_symmetry_multiplicity
 _atom_site_fract_x
 _atom_site_fract_y
 _atom_site_fract_z
 _atom_site_occupancy
  Li  Li0  2  0.23577000  0.24767000  0.04798000  1.0
  Li  Li1  2  0.25000000  0.25000000  0.86634000  1.0
  Li  Li2  1  0.74277000  0.50000000  0.13675000  1.0
  Li  Li3  1  0.75000000  0.00000000  0.95545000  1.0
  Li  Li4  1  0.75000000  0.50000000  0.95545000  1.0
  Li  Li5  1  0.75311000  0.00000000  0.13733000  1.0
  Mg  Mg6  2  0.75000000  0.25000000  0.86634000  1.0
  Mg  Mg7  2  0.76327000  0.25416000  0.04933000  1.0
  Mg  Mg8  1  0.23850000  0.00000000  0.13926000  1.0
  Mg  Mg9  1  0.25000000  0.00000000  0.95545000  1.0
  Mg  Mg10  1  0.25000000  0.50000000  0.95545000  1.0
  Mg  Mg11  1  0.25234000  0.50000000  0.14354000  1.0
  Ag  Ag12  2  0.48920000  0.25113000  0.13107000  1.0
  Ag  Ag13  2  0.50000000  0.25000000  0.95545000  1.0
  Ag  Ag14  1  0.00000000  0.00000000  0.86634000  1.0
  Ag  Ag15  1  0.00000000  0.50000000  0.86634000  1.0
  Ag  Ag16  1  0.01050000  0.50000000  0.05414000  1.0
  Ag  Ag17  1  0.99727000  0.00000000  0.04991000  1.0
  Pb  Pb18  2  -0.00000000  0.25000000  0.95545000  1.0
  Pb  Pb19  2  0.98443000  0.25485000  0.14801000  1.0
  Pb  Pb20  1  0.48955000  0.50000000  0.04881000  1.0
  Pb  Pb21  1  0.50000000  0.00000000  0.86634000  1.0
  Pb  Pb22  1  0.50000000  0.50000000  0.86634000  1.0
  Pb  Pb23  1  0.50045000  0.00000000  0.04952000  1.0
  C  C24  1  0.26273000  0.00000000  0.22128000  1.0
  O  O25  1  0.26065000  0.00000000  0.26325000  1.0
