# generated using pymatgen
data_Li4Al4Ag4Sn4CO
_symmetry_space_group_name_H-M   'P 1'
_cell_length_a   8.56020000
_cell_length_b   5.95223000
_cell_length_c   24.45610000
_cell_angle_alpha   90.00000000
_cell_angle_beta   90.00000000
_cell_angle_gamma   90.00000000
_symmetry_Int_Tables_number   1
_chemical_formula_structural   Li4Al4Ag4Sn4CO
_chemical_formula_sum   'Li4 Al4 Ag4 Sn4 C1 O1'
_cell_volume   1246.09403647
_cell_formula_units_Z   1
loop_
 _symmetry_equiv_pos_site_id
 _symmetry_equiv_pos_as_xyz
  1  'x, y, z'
loop_
 _atom_site_type_symbol
 _atom_site_label
 _atom_site_symmetry_multiplicity
 _atom_site_fract_x
 _atom_site_fract_y
 _atom_site_fract_z
 _atom_site_occupancy
  Li  Li0  1  0.25215000  0.22906000  0.96753000  1.0
  Li  Li1  1  0.25000000  0.70495000  0.09110000  1.0
  Li  Li2  1  0.74785000  0.22906000  0.96753000  1.0
  Li  Li3  1  0.75000000  0.70495000  0.09110000  1.0
  Al  Al4  1  0.00000000  0.47758000  0.91836000  1.0
  Al  Al5  1  0.00000000  0.96997000  0.03037000  1.0
  Al  Al6  1  0.50000000  0.48450000  0.90729000  1.0
  Al  Al7  1  0.50000000  0.96997000  0.03037000  1.0
  Ag  Ag8  1  0.00000000  0.02867000  0.90979000  1.0
  Ag  Ag9  1  0.00000000  0.46997000  0.03037000  1.0
  Ag  Ag10  1  0.50000000  0.04303000  0.91178000  1.0
  Ag  Ag11  1  0.50000000  0.46997000  0.03037000  1.0
  Sn  Sn12  1  0.25481000  0.73533000  0.95644000  1.0
  Sn  Sn13  1  0.25000000  0.20495000  0.09110000  1.0
  Sn  Sn14  1  0.74519000  0.73533000  0.95644000  1.0
  Sn  Sn15  1  0.75000000  0.20495000  0.09110000  1.0
  C  C16  1  0.00000000  0.99414000  0.81812000  1.0
  O  O17  1  0.00000000  0.00835000  0.77157000  1.0
