data_image0
_chemical_formula_structural       Sc8In8Cu16CO
_chemical_formula_sum              "Sc8 In8 Cu16 C1 O1"
_cell_length_a       6.46446
_cell_length_b       9.14213
_cell_length_c       26.8566
_cell_angle_alpha    90
_cell_angle_beta     90
_cell_angle_gamma    90

_space_group_name_H-M_alt    "P 1"
_space_group_IT_number       1

loop_
  _space_group_symop_operation_xyz
  'x, y, z'

loop_
  _atom_site_type_symbol
  _atom_site_label
  _atom_site_symmetry_multiplicity
  _atom_site_fract_x
  _atom_site_fract_y
  _atom_site_fract_z
  _atom_site_occupancy
  Sc  Sc1       1.0  0.00000  0.00000  0.87235  1.0000
  Sc  Sc2       1.0  0.50000  0.25000  0.95745  1.0000
  Sc  Sc3       1.0  0.50000  0.75000  0.95745  1.0000
  Sc  Sc4       1.0  0.00000  0.50000  0.87235  1.0000
  Sc  Sc5       1.0  0.00002  0.49836  0.04292  1.0000
  Sc  Sc6       1.0  0.50002  0.75001  0.12874  1.0000
  Sc  Sc7       1.0  0.50002  0.24998  0.12867  1.0000
  Sc  Sc8       1.0  0.00003  0.00165  0.04292  1.0000
  In  In1       1.0  0.00000  0.75000  0.95745  1.0000
  In  In2       1.0  0.50000  0.00000  0.87235  1.0000
  In  In3       1.0  0.00000  0.25000  0.95745  1.0000
  In  In4       1.0  0.50000  0.50000  0.87235  1.0000
  In  In5       1.0  0.00004  0.25001  0.12969  1.0000
  In  In6       1.0  0.50001  0.50218  0.04183  1.0000
  In  In7       1.0  0.00002  0.74999  0.13222  1.0000
  In  In8       1.0  0.50001  0.99782  0.04183  1.0000
  Cu  Cu1       1.0  0.25000  0.00000  0.95745  1.0000
  Cu  Cu2       1.0  0.75000  0.50000  0.95745  1.0000
  Cu  Cu3       1.0  0.75000  0.00000  0.95745  1.0000
  Cu  Cu4       1.0  0.25000  0.50000  0.95745  1.0000
  Cu  Cu5       1.0  0.75000  0.75000  0.87235  1.0000
  Cu  Cu6       1.0  0.25000  0.25000  0.87235  1.0000
  Cu  Cu7       1.0  0.25000  0.75000  0.87235  1.0000
  Cu  Cu8       1.0  0.75000  0.25000  0.87235  1.0000
  Cu  Cu9       1.0  0.25402  0.50026  0.12663  1.0000
  Cu  Cu10      1.0  0.74612  0.99974  0.12663  1.0000
  Cu  Cu11      1.0  0.74603  0.50026  0.12663  1.0000
  Cu  Cu12      1.0  0.25392  0.99974  0.12663  1.0000
  Cu  Cu13      1.0  0.74157  0.25000  0.04392  1.0000
  Cu  Cu14      1.0  0.24592  0.75001  0.04448  1.0000
  Cu  Cu15      1.0  0.25845  0.25000  0.04392  1.0000
  Cu  Cu16      1.0  0.75412  0.74999  0.04448  1.0000
  C   C1        1.0  0.99909  0.25002  0.28290  1.0000
  O   O1        1.0  0.00006  0.25000  0.32515  1.0000
