# generated using pymatgen
data_Sc8In8Cu16CO
_symmetry_space_group_name_H-M   Pm
_cell_length_a   6.46446000
_cell_length_b   9.14213000
_cell_length_c   26.85660000
_cell_angle_alpha   90.00000000
_cell_angle_beta   90.00000000
_cell_angle_gamma   90.00000000
_symmetry_Int_Tables_number   6
_chemical_formula_structural   Sc8In8Cu16CO
_chemical_formula_sum   'Sc8 In8 Cu16 C1 O1'
_cell_volume   1587.19642280
_cell_formula_units_Z   1
loop_
 _symmetry_equiv_pos_site_id
 _symmetry_equiv_pos_as_xyz
  1  'x, y, z'
  2  'x, -y, z'
loop_
 _atom_site_type_symbol
 _atom_site_label
 _atom_site_symmetry_multiplicity
 _atom_site_fract_x
 _atom_site_fract_y
 _atom_site_fract_z
 _atom_site_occupancy
  Sc  Sc0  2  0.00000000  0.25002000  0.87235000  1.0
  Sc  Sc1  2  0.00002000  0.24834000  0.04292000  1.0
  Sc  Sc2  1  0.50000000  0.00000000  0.95745000  1.0
  Sc  Sc3  1  0.50000000  0.50000000  0.95745000  1.0
  Sc  Sc4  1  0.50002000  0.00000000  0.12867000  1.0
  Sc  Sc5  1  0.50002000  0.50000000  0.12874000  1.0
  In  In6  2  0.50000000  0.25002000  0.87235000  1.0
  In  In7  2  0.50001000  0.25216000  0.04183000  1.0
  In  In8  1  0.00000000  0.00000000  0.95745000  1.0
  In  In9  1  0.00000000  0.50000000  0.95745000  1.0
  In  In10  1  0.00002000  0.50000000  0.13222000  1.0
  In  In11  1  0.00004000  0.00000000  0.12969000  1.0
  Cu  Cu12  2  0.25000000  0.25002000  0.95745000  1.0
  Cu  Cu13  2  0.25402000  0.25024000  0.12663000  1.0
  Cu  Cu14  2  0.74612000  0.25028000  0.12663000  1.0
  Cu  Cu15  2  0.75000000  0.24998000  0.95745000  1.0
  Cu  Cu16  1  0.24592000  0.50000000  0.04448000  1.0
  Cu  Cu17  1  0.25000000  0.00000000  0.87235000  1.0
  Cu  Cu18  1  0.25000000  0.50000000  0.87235000  1.0
  Cu  Cu19  1  0.25845000  0.00000000  0.04392000  1.0
  Cu  Cu20  1  0.74157000  0.00000000  0.04392000  1.0
  Cu  Cu21  1  0.75000000  0.00000000  0.87235000  1.0
  Cu  Cu22  1  0.75000000  0.50000000  0.87235000  1.0
  Cu  Cu23  1  0.75412000  0.50000000  0.04448000  1.0
  C  C24  1  0.99909000  0.00000000  0.28290000  1.0
  O  O25  1  0.00006000  0.00000000  0.32515000  1.0
