# generated using pymatgen
data_LiInGeAu
_symmetry_space_group_name_H-M   'P 1'
_cell_length_a   5.96101000
_cell_length_b   4.28898000
_cell_length_c   24.47060000
_cell_angle_alpha   90.00000000
_cell_angle_beta   90.00000000
_cell_angle_gamma   90.00000000
_symmetry_Int_Tables_number   1
_chemical_formula_structural   LiInGeAu
_chemical_formula_sum   'Li2 In2 Ge2 Au2'
_cell_volume   625.63133082
_cell_formula_units_Z   2
loop_
 _symmetry_equiv_pos_site_id
 _symmetry_equiv_pos_as_xyz
  1  'x, y, z'
loop_
 _atom_site_type_symbol
 _atom_site_label
 _atom_site_symmetry_multiplicity
 _atom_site_fract_x
 _atom_site_fract_y
 _atom_site_fract_z
 _atom_site_occupancy
  Li  Li0  1  0.48655500  0.00000000  0.08819000  1.0
  Li  Li1  1  0.00420000  0.00000000  0.96955000  1.0
  In  In2  1  0.74634000  0.50000000  0.03287000  1.0
  In  In3  1  0.25629000  0.50000000  0.90865000  1.0
  Ge  Ge4  1  0.26443000  0.50000000  0.04035000  1.0
  Ge  Ge5  1  0.75629000  0.50000000  0.90865000  1.0
  Au  Au6  1  0.02014500  0.00000000  0.07575000  1.0
  Au  Au7  1  0.50420000  0.00000000  0.96955000  1.0
