# generated using pymatgen
data_Li8Sc8In8Pd8CO
_symmetry_space_group_name_H-M   'P 1'
_cell_length_a   9.31984000
_cell_length_b   6.59012000
_cell_length_c   26.98990000
_cell_angle_alpha   90.00000000
_cell_angle_beta   90.00000000
_cell_angle_gamma   90.00000000
_symmetry_Int_Tables_number   1
_chemical_formula_structural   Li8Sc8In8Pd8CO
_chemical_formula_sum   'Li8 Sc8 In8 Pd8 C1 O1'
_cell_volume   1657.68899696
_cell_formula_units_Z   1
loop_
 _symmetry_equiv_pos_site_id
 _symmetry_equiv_pos_as_xyz
  1  'x, y, z'
loop_
 _atom_site_type_symbol
 _atom_site_label
 _atom_site_symmetry_multiplicity
 _atom_site_fract_x
 _atom_site_fract_y
 _atom_site_fract_z
 _atom_site_occupancy
  Li  Li0  1  0.74999000  0.75000000  0.04316000  1.0
  Li  Li1  1  0.25001000  0.75000000  0.04316000  1.0
  Li  Li2  1  0.00000000  0.25000000  0.12949000  1.0
  Li  Li3  1  0.50000000  0.25000000  0.12949000  1.0
  Li  Li4  1  0.24002000  0.66625000  0.81985000  1.0
  Li  Li5  1  0.75998000  0.66625000  0.81985000  1.0
  Li  Li6  1  0.50000000  0.26400000  0.95525000  1.0
  Li  Li7  1  0.00000000  0.25008000  0.95713000  1.0
  Sc  Sc8  1  0.00000000  1.00000000  0.04316000  1.0
  Sc  Sc9  1  0.50000000  1.00000000  0.04316000  1.0
  Sc  Sc10  1  0.24999000  0.50000000  0.12949000  1.0
  Sc  Sc11  1  0.75001000  0.50000000  0.12949000  1.0
  Sc  Sc12  1  0.50000000  0.97621000  0.87554000  1.0
  Sc  Sc13  1  0.00000000  0.96609000  0.87255000  1.0
  Sc  Sc14  1  0.75051000  0.52081000  0.94821000  1.0
  Sc  Sc15  1  0.24949000  0.52081000  0.94821000  1.0
  In  In16  1  0.74999000  0.00000000  0.12949000  1.0
  In  In17  1  0.25001000  0.00000000  0.12949000  1.0
  In  In18  1  0.50000000  0.50000000  0.04316000  1.0
  In  In19  1  0.00000000  0.50000000  0.04316000  1.0
  In  In20  1  0.24986000  0.00090000  0.95675000  1.0
  In  In21  1  0.75014000  0.00090000  0.95675000  1.0
  In  In22  1  0.00000000  0.48234000  0.86863000  1.0
  In  In23  1  0.50000000  0.50054000  0.86251000  1.0
  Pd  Pd24  1  0.74999000  0.25000000  0.04316000  1.0
  Pd  Pd25  1  0.25001000  0.25000000  0.04316000  1.0
  Pd  Pd26  1  0.00000000  0.75000000  0.12949000  1.0
  Pd  Pd27  1  0.50000000  0.75000000  0.12949000  1.0
  Pd  Pd28  1  0.25457000  0.24964000  0.87434000  1.0
  Pd  Pd29  1  0.74543000  0.24964000  0.87434000  1.0
  Pd  Pd30  1  0.50000000  0.74834000  0.95864000  1.0
  Pd  Pd31  1  0.00000000  0.74875000  0.96035000  1.0
  C  C32  1  0.00000000  0.84572000  0.79616000  1.0
  O  O33  1  0.00000000  0.80680000  0.75326000  1.0
