# generated using pymatgen
data_Li8Sc8In8Pd8CO
_symmetry_space_group_name_H-M   Pm
_cell_length_a   6.59012000
_cell_length_b   9.31984000
_cell_length_c   26.98990000
_cell_angle_alpha   90.00000000
_cell_angle_beta   90.00000000
_cell_angle_gamma   90.00000000
_symmetry_Int_Tables_number   6
_chemical_formula_structural   Li8Sc8In8Pd8CO
_chemical_formula_sum   'Li8 Sc8 In8 Pd8 C1 O1'
_cell_volume   1657.68899696
_cell_formula_units_Z   1
loop_
 _symmetry_equiv_pos_site_id
 _symmetry_equiv_pos_as_xyz
  1  'x, y, z'
  2  'x, -y, z'
loop_
 _atom_site_type_symbol
 _atom_site_label
 _atom_site_symmetry_multiplicity
 _atom_site_fract_x
 _atom_site_fract_y
 _atom_site_fract_z
 _atom_site_occupancy
  Li  Li0  2  0.66625000  0.24002000  0.18015000  1.0
  Li  Li1  2  0.75000000  0.25001000  0.95684000  1.0
  Li  Li2  1  0.25000000  0.00000000  0.87051000  1.0
  Li  Li3  1  0.25000000  0.50000000  0.87051000  1.0
  Li  Li4  1  0.25008000  0.00000000  0.04287000  1.0
  Li  Li5  1  0.26400000  0.50000000  0.04475000  1.0
  Sc  Sc6  2  0.50000000  0.24999000  0.87051000  1.0
  Sc  Sc7  2  0.52081000  0.24949000  0.05179000  1.0
  Sc  Sc8  1  -0.00000000  0.50000000  0.95684000  1.0
  Sc  Sc9  1  -0.00000000  0.00000000  0.95684000  1.0
  Sc  Sc10  1  0.96609000  0.00000000  0.12745000  1.0
  Sc  Sc11  1  0.97621000  0.50000000  0.12446000  1.0
  In  In12  2  0.00000000  0.25001000  0.87051000  1.0
  In  In13  2  0.00090000  0.24986000  0.04325000  1.0
  In  In14  1  0.48234000  0.00000000  0.13137000  1.0
  In  In15  1  0.50000000  0.00000000  0.95684000  1.0
  In  In16  1  0.50000000  0.50000000  0.95684000  1.0
  In  In17  1  0.50054000  0.50000000  0.13749000  1.0
  Pd  Pd18  2  0.24964000  0.25457000  0.12566000  1.0
  Pd  Pd19  2  0.25000000  0.25001000  0.95684000  1.0
  Pd  Pd20  1  0.74834000  0.50000000  0.04136000  1.0
  Pd  Pd21  1  0.74875000  0.00000000  0.03965000  1.0
  Pd  Pd22  1  0.75000000  0.00000000  0.87051000  1.0
  Pd  Pd23  1  0.75000000  0.50000000  0.87051000  1.0
  C  C24  1  0.84572000  0.00000000  0.20384000  1.0
  O  O25  1  0.80680000  0.00000000  0.24674000  1.0
