# generated using pymatgen
data_Y4Sc4In4Pd4CO
_symmetry_space_group_name_H-M   'P 1'
_cell_length_a   10.11530000
_cell_length_b   6.06590000
_cell_length_c   24.38870000
_cell_angle_alpha   90.00000000
_cell_angle_beta   90.00000000
_cell_angle_gamma   90.00000000
_symmetry_Int_Tables_number   1
_chemical_formula_structural   Y4Sc4In4Pd4CO
_chemical_formula_sum   'Y4 Sc4 In4 Pd4 C1 O1'
_cell_volume   1496.45156789
_cell_formula_units_Z   1
loop_
 _symmetry_equiv_pos_site_id
 _symmetry_equiv_pos_as_xyz
  1  'x, y, z'
loop_
 _atom_site_type_symbol
 _atom_site_label
 _atom_site_symmetry_multiplicity
 _atom_site_fract_x
 _atom_site_fract_y
 _atom_site_fract_z
 _atom_site_occupancy
  Y  Y0  1  0.74992000  0.14895000  0.97037000  1.0
  Y  Y1  1  0.75001000  0.55242000  0.08997000  1.0
  Y  Y2  1  0.25008000  0.14895000  0.97037000  1.0
  Y  Y3  1  0.24999000  0.55242000  0.08997000  1.0
  Sc  Sc4  1  0.50000000  0.62042000  0.91816000  1.0
  Sc  Sc5  1  0.50000000  0.86828000  0.02999000  1.0
  Sc  Sc6  1  0.00000000  0.61826000  0.91974000  1.0
  Sc  Sc7  1  0.00000000  0.86828000  0.02999000  1.0
  In  In8  1  0.50000000  0.12336000  0.89210000  1.0
  In  In9  1  0.50000000  0.36828000  0.02999000  1.0
  In  In10  1  0.00000000  0.12000000  0.89309000  1.0
  In  In11  1  0.00000000  0.36828000  0.02999000  1.0
  Pd  Pd12  1  0.75563000  0.64893000  0.98189000  1.0
  Pd  Pd13  1  0.75001000  0.05242000  0.08997000  1.0
  Pd  Pd14  1  0.24437000  0.64893000  0.98189000  1.0
  Pd  Pd15  1  0.24999000  0.05242000  0.08997000  1.0
  C  C16  1  0.50000000  0.55256000  0.82684000  1.0
  O  O17  1  0.50000000  0.52652000  0.77989000  1.0
