# generated using pymatgen
data_Li8In4Rh4C
_symmetry_space_group_name_H-M   'P 1'
_cell_length_a   6.34973000
_cell_length_b   6.34973000
_cell_length_c   24.76230000
_cell_angle_alpha   90.00000000
_cell_angle_beta   90.00000000
_cell_angle_gamma   90.00000000
_symmetry_Int_Tables_number   1
_chemical_formula_structural   Li8In4Rh4C
_chemical_formula_sum   'Li8 In4 Rh4 C1'
_cell_volume   998.39293363
_cell_formula_units_Z   1
loop_
 _symmetry_equiv_pos_site_id
 _symmetry_equiv_pos_as_xyz
  1  'x, y, z'
loop_
 _atom_site_type_symbol
 _atom_site_label
 _atom_site_symmetry_multiplicity
 _atom_site_fract_x
 _atom_site_fract_y
 _atom_site_fract_z
 _atom_site_occupancy
  Li  Li0  1  0.99995000  0.99997000  0.02603000  1.0
  Li  Li1  1  0.50000000  0.00000000  0.90384000  1.0
  Li  Li2  1  0.00000000  0.50000000  0.90384000  1.0
  Li  Li3  1  0.50003000  0.50004000  0.03415000  1.0
  Li  Li4  1  0.23642000  0.23646000  0.10543000  1.0
  Li  Li5  1  0.25000000  0.75000000  0.96795000  1.0
  Li  Li6  1  0.76357000  0.76354000  0.10542000  1.0
  Li  Li7  1  0.75000000  0.25000000  0.96795000  1.0
  In  In8  1  0.25000000  0.25000000  0.96795000  1.0
  In  In9  1  0.24104000  0.75894000  0.09927000  1.0
  In  In10  1  0.75000000  0.75000000  0.96795000  1.0
  In  In11  1  0.75891000  0.24109000  0.09927000  1.0
  Rh  Rh12  1  0.00000000  0.00000000  0.90384000  1.0
  Rh  Rh13  1  0.50000000  0.50000000  0.90384000  1.0
  Rh  Rh14  1  0.49992000  0.00013000  0.03252000  1.0
  Rh  Rh15  1  0.00019000  0.49980000  0.03258000  1.0
  C  C16  1  0.00000000  0.00001000  0.11141000  1.0
