# generated using pymatgen
data_K24Bi8C
_symmetry_space_group_name_H-M   P1
_cell_length_a   8.83903000
_cell_length_b   12.50030000
_cell_length_c   29.37520000
_cell_angle_alpha   90.00000000
_cell_angle_beta   90.00000000
_cell_angle_gamma   90.00000000
_symmetry_Int_Tables_number   1
_chemical_formula_structural   K24Bi8C
_chemical_formula_sum   'K24 Bi8 C1'
_cell_volume   3245.68132018
_cell_formula_units_Z   1
loop_
 _symmetry_equiv_pos_site_id
 _symmetry_equiv_pos_as_xyz
  1  'x, y, z'
loop_
 _atom_site_type_symbol
 _atom_site_label
 _atom_site_symmetry_multiplicity
 _atom_site_fract_x
 _atom_site_fract_y
 _atom_site_fract_z
 _atom_site_occupancy
  K  K0  1  0.00000000  0.25000000  0.94681000  1.0
  K  K1  1  0.00000000  0.75000000  0.94681000  1.0
  K  K2  1  0.02329000  0.67641000  0.16329000  1.0
  K  K3  1  0.09862000  0.32912000  0.16906000  1.0
  K  K4  1  0.24019000  0.77437000  0.05333000  1.0
  K  K5  1  0.24171000  0.56674000  0.28393000  1.0
  K  K6  1  0.24218000  0.22657000  0.05189000  1.0
  K  K7  1  0.25000000  0.00000000  0.94681000  1.0
  K  K8  1  0.25000000  0.25000000  0.84042000  1.0
  K  K9  1  0.25000000  0.50000000  0.94681000  1.0
  K  K10  1  0.25000000  0.75000000  0.84042000  1.0
  K  K11  1  0.28570000  0.98897000  0.23788000  1.0
  K  K12  1  0.44629000  0.50676000  0.08603000  1.0
  K  K13  1  0.50000000  0.00000000  0.84042000  1.0
  K  K14  1  0.50000000  0.50000000  0.84042000  1.0
  K  K15  1  0.53954000  0.00064000  0.05251000  1.0
  K  K16  1  0.66904000  0.42503000  0.23075000  1.0
  K  K17  1  0.75000000  0.00000000  0.94681000  1.0
  K  K18  1  0.75000000  0.25000000  0.84042000  1.0
  K  K19  1  0.75000000  0.50000000  0.94681000  1.0
  K  K20  1  0.75000000  0.75000000  0.84042000  1.0
  K  K21  1  0.75876000  0.73816000  0.05378000  1.0
  K  K22  1  0.76395000  0.26459000  0.05977000  1.0
  K  K23  1  0.84295000  0.00565000  0.16025000  1.0
  Bi  Bi24  1  0.00000000  0.00000000  0.84042000  1.0
  Bi  Bi25  1  0.00000000  0.50000000  0.84042000  1.0
  Bi  Bi26  1  0.02597000  0.49985000  0.06178000  1.0
  Bi  Bi27  1  0.48405000  0.16625000  0.16105000  1.0
  Bi  Bi28  1  0.49414000  0.82123000  0.16085000  1.0
  Bi  Bi29  1  0.50000000  0.25000000  0.94681000  1.0
  Bi  Bi30  1  0.50000000  0.75000000  0.94681000  1.0
  Bi  Bi31  1  0.98063000  0.99900000  0.04599000  1.0
  C  C32  1  0.49735000  0.99376000  0.15186000  1.0
