# generated using pymatgen
data_Li4Ga4Ni4Pd4CO
_symmetry_space_group_name_H-M   'P 1'
_cell_length_a   5.93220000
_cell_length_b   5.93220000
_cell_length_c   24.44920000
_cell_angle_alpha   90.00000000
_cell_angle_beta   90.00000000
_cell_angle_gamma   90.00000000
_symmetry_Int_Tables_number   1
_chemical_formula_structural   Li4Ga4Ni4Pd4CO
_chemical_formula_sum   'Li4 Ga4 Ni4 Pd4 C1 O1'
_cell_volume   860.39171994
_cell_formula_units_Z   1
loop_
 _symmetry_equiv_pos_site_id
 _symmetry_equiv_pos_as_xyz
  1  'x, y, z'
loop_
 _atom_site_type_symbol
 _atom_site_label
 _atom_site_symmetry_multiplicity
 _atom_site_fract_x
 _atom_site_fract_y
 _atom_site_fract_z
 _atom_site_occupancy
  Li  Li0  1  0.49997000  0.99994000  0.89821000  1
  Li  Li1  1  0.00001500  0.99998500  0.03033000  1
  Li  Li2  1  0.50001500  0.49998500  0.03033000  1
  Li  Li3  1  0.00006000  0.50003000  0.89821000  1
  Ga  Ga4  1  0.99998500  0.00001500  0.91086000  1
  Ga  Ga5  1  0.50000000  0.99997000  0.03033000  1
  Ga  Ga6  1  0.00003000  0.50000000  0.03033000  1
  Ga  Ga7  1  0.49995000  0.50005000  0.91068000  1
  Ni  Ni8  1  0.24967000  0.75033000  0.96563000  1
  Ni  Ni9  1  0.75000000  0.74997000  0.09099000  1
  Ni  Ni10  1  0.25003000  0.25000000  0.09099000  1
  Ni  Ni11  1  0.75042000  0.24958000  0.96566000  1
  Pd  Pd12  1  0.25013000  0.25010000  0.96688000  1
  Pd  Pd13  1  0.75001500  0.24998500  0.09099000  1
  Pd  Pd14  1  0.25001500  0.74998500  0.09099000  1
  Pd  Pd15  1  0.74990000  0.74987000  0.96688000  1
  C  C16  1  0.99999000  0.00001000  0.82764000  1
  O  O17  1  0.00004500  0.99995500  0.78010000  1
