# generated using pymatgen
data_Li8Zn4Ge4CO
_symmetry_space_group_name_H-M   'P 1'
_cell_length_a   6.18893000
_cell_length_b   6.18893000
_cell_length_c   24.64170000
_cell_angle_alpha   90.00000000
_cell_angle_beta   90.00000000
_cell_angle_gamma   90.00000000
_symmetry_Int_Tables_number   1
_chemical_formula_structural   Li8Zn4Ge4CO
_chemical_formula_sum   'Li8 Zn4 Ge4 C1 O1'
_cell_volume   943.84745084
_cell_formula_units_Z   1
loop_
 _symmetry_equiv_pos_site_id
 _symmetry_equiv_pos_as_xyz
  1  'x, y, z'
loop_
 _atom_site_type_symbol
 _atom_site_label
 _atom_site_symmetry_multiplicity
 _atom_site_fract_x
 _atom_site_fract_y
 _atom_site_fract_z
 _atom_site_occupancy
  Li  Li0  1  0.00000500  0.00000500  0.09418000  1
  Li  Li1  1  0.50000500  0.50000500  0.09418000  1
  Li  Li2  1  0.49917000  0.00154000  0.96950000  1
  Li  Li3  1  0.00154000  0.49917000  0.96950000  1
  Li  Li4  1  0.24844000  0.75049000  0.89317000  1
  Li  Li5  1  0.25000500  0.25000500  0.03139000  1
  Li  Li6  1  0.75049000  0.24844000  0.89317000  1
  Li  Li7  1  0.75000500  0.75000500  0.03139000  1
  Zn  Zn8  1  0.25000000  0.75001000  0.03139000  1
  Zn  Zn9  1  0.24996500  0.24996500  0.90335000  1
  Zn  Zn10  1  0.75001000  0.25000000  0.03139000  1
  Zn  Zn11  1  0.75040500  0.75040500  0.90893000  1
  Ge  Ge12  1  0.00497500  0.00497500  0.96008000  1
  Ge  Ge13  1  0.50000000  0.00001000  0.09418000  1
  Ge  Ge14  1  0.00001000  0.50000000  0.09418000  1
  Ge  Ge15  1  0.49553500  0.49553500  0.95980000  1
  C  C16  1  0.75097000  0.75097000  0.82856000  1
  O  O17  1  0.75055000  0.75055000  0.78147000  1
