# generated using pymatgen
data_Li8Zn4Ge4CO
_symmetry_space_group_name_H-M   Cm
_cell_length_a   8.75246874
_cell_length_b   8.75246874
_cell_length_c   24.64170000
_cell_angle_alpha   90.00000000
_cell_angle_beta   90.00000000
_cell_angle_gamma   90.00000000
_symmetry_Int_Tables_number   8
_chemical_formula_structural   Li8Zn4Ge4CO
_chemical_formula_sum   'Li16 Zn8 Ge8 C2 O2'
_cell_volume   1887.69490168
_cell_formula_units_Z   2
loop_
 _symmetry_equiv_pos_site_id
 _symmetry_equiv_pos_as_xyz
  1  'x, y, z'
  2  'x, -y, z'
  3  'x+1/2, y+1/2, z'
  4  'x+1/2, -y+1/2, z'
loop_
 _atom_site_type_symbol
 _atom_site_label
 _atom_site_symmetry_multiplicity
 _atom_site_fract_x
 _atom_site_fract_y
 _atom_site_fract_z
 _atom_site_occupancy
  Li  Li0  4  0.25035500  0.24881500  0.03050000  1.0
  Li  Li1  4  0.49946500  0.25102500  0.10683000  1.0
  Li  Li2  2  0.00000500  0.00000000  0.90582000  1.0
  Li  Li3  2  0.00000500  0.50000000  0.90582000  1.0
  Li  Li4  2  0.25000500  0.00000000  0.96861000  1.0
  Li  Li5  2  0.25000500  0.50000000  0.96861000  1.0
  Zn  Zn6  4  0.00000500  0.24999500  0.96861000  1.0
  Zn  Zn7  2  0.24996500  0.00000000  0.09665000  1.0
  Zn  Zn8  2  0.25040500  0.50000000  0.09107000  1.0
  Ge  Ge9  4  0.25000500  0.24999500  0.90582000  1.0
  Ge  Ge10  2  0.00497500  0.00000000  0.03992000  1.0
  Ge  Ge11  2  0.49553500  0.00000000  0.04020000  1.0
  C  C12  2  0.25097000  0.50000000  0.17144000  1.0
  O  O13  2  0.25055000  0.50000000  0.21853000  1.0
