# generated using pymatgen
data_Li8Y8Sn8Pd8CO
_symmetry_space_group_name_H-M   P1
_cell_length_a   6.77715000
_cell_length_b   9.58434000
_cell_length_c   27.18830000
_cell_angle_alpha   90.00000000
_cell_angle_beta   90.00000000
_cell_angle_gamma   90.00000000
_symmetry_Int_Tables_number   1
_chemical_formula_structural   Li8Y8Sn8Pd8CO
_chemical_formula_sum   'Li8 Y8 Sn8 Pd8 C1 O1'
_cell_volume   1766.00269964
_cell_formula_units_Z   1
loop_
 _symmetry_equiv_pos_site_id
 _symmetry_equiv_pos_as_xyz
  1  'x, y, z'
loop_
 _atom_site_type_symbol
 _atom_site_label
 _atom_site_symmetry_multiplicity
 _atom_site_fract_x
 _atom_site_fract_y
 _atom_site_fract_z
 _atom_site_occupancy
  Li  Li0  1  -0.00000000  0.50000000  0.86781000  1.0
  Li  Li1  1  0.00000000  0.00000000  0.86781000  1.0
  Li  Li2  1  0.00365000  0.00001000  0.04635000  1.0
  Li  Li3  1  0.00590000  0.50001000  0.04699000  1.0
  Li  Li4  1  0.50000000  0.25000000  0.95594000  1.0
  Li  Li5  1  0.50000000  0.75000000  0.95594000  1.0
  Li  Li6  1  0.68456000  0.75020000  0.18090000  1.0
  Li  Li7  1  0.68457000  0.24980000  0.18090000  1.0
  Y  Y8  1  0.25000000  0.00000000  0.95594000  1.0
  Y  Y9  1  0.25000000  0.50000000  0.95594000  1.0
  Y  Y10  1  0.27932000  0.00003000  0.13196000  1.0
  Y  Y11  1  0.28080000  0.49995000  0.13194000  1.0
  Y  Y12  1  0.74329000  0.74898000  0.04834000  1.0
  Y  Y13  1  0.74331000  0.25104000  0.04834000  1.0
  Y  Y14  1  0.75000000  0.25000000  0.86781000  1.0
  Y  Y15  1  0.75000000  0.75000000  0.86781000  1.0
  Sn  Sn16  1  0.25000000  0.25000000  0.86781000  1.0
  Sn  Sn17  1  0.25000000  0.75000000  0.86781000  1.0
  Sn  Sn18  1  0.25654000  0.24940000  0.04345000  1.0
  Sn  Sn19  1  0.25657000  0.75061000  0.04346000  1.0
  Sn  Sn20  1  0.75000000  0.00000000  0.95594000  1.0
  Sn  Sn21  1  0.75000000  0.50000000  0.95594000  1.0
  Sn  Sn22  1  0.76399000  0.00001000  0.13374000  1.0
  Sn  Sn23  1  0.76400000  0.50000000  0.13450000  1.0
  Pd  Pd24  1  -0.00000000  0.25000000  0.95594000  1.0
  Pd  Pd25  1  -0.00000000  0.75000000  0.95594000  1.0
  Pd  Pd26  1  0.01743000  0.25270000  0.12590000  1.0
  Pd  Pd27  1  0.01743000  0.74732000  0.12589000  1.0
  Pd  Pd28  1  0.49643000  0.50001000  0.04242000  1.0
  Pd  Pd29  1  0.50000000  0.00000000  0.86781000  1.0
  Pd  Pd30  1  0.50000000  0.50000000  0.86781000  1.0
  Pd  Pd31  1  0.50410000  0.00001000  0.04109000  1.0
  C  C32  1  0.15588000  0.99998000  0.21887000  1.0
  O  O33  1  0.09704000  0.99992000  0.25870000  1.0
