data_image0
_chemical_formula_structural       Li8Cu8Sn8Ge8C
_chemical_formula_sum              "Li8 Cu8 Sn8 Ge8 C1"
_cell_length_a       6.5741
_cell_length_b       9.29718
_cell_length_c       26.9729
_cell_angle_alpha    90
_cell_angle_beta     90
_cell_angle_gamma    90

_space_group_name_H-M_alt    "P 1"
_space_group_IT_number       1

loop_
  _space_group_symop_operation_xyz
  'x, y, z'

loop_
  _atom_site_type_symbol
  _atom_site_label
  _atom_site_symmetry_multiplicity
  _atom_site_fract_x
  _atom_site_fract_y
  _atom_site_fract_z
  _atom_site_occupancy
  Li  Li1       1.0  0.00000  0.25000  0.95691  1.0000
  Li  Li2       1.0  0.00000  0.75000  0.95691  1.0000
  Li  Li3       1.0  0.50000  0.50000  0.87074  1.0000
  Li  Li4       1.0  0.50000  0.00000  0.87074  1.0000
  Li  Li5       1.0  0.89029  0.72684  0.14190  1.0000
  Li  Li6       1.0  0.89060  0.27290  0.14193  1.0000
  Li  Li7       1.0  0.46147  0.00005  0.05288  1.0000
  Li  Li8       1.0  0.46476  0.49996  0.04156  1.0000
  Cu  Cu1       1.0  0.00000  0.00000  0.87074  1.0000
  Cu  Cu2       1.0  0.00000  0.50000  0.87074  1.0000
  Cu  Cu3       1.0  0.50000  0.75000  0.95691  1.0000
  Cu  Cu4       1.0  0.50000  0.25000  0.95691  1.0000
  Cu  Cu5       1.0  0.86412  0.49996  0.06268  1.0000
  Cu  Cu6       1.0  0.00971  0.99999  0.03346  1.0000
  Cu  Cu7       1.0  0.50911  0.20253  0.12130  1.0000
  Cu  Cu8       1.0  0.50847  0.79819  0.12136  1.0000
  Sn  Sn1       1.0  0.75000  0.00000  0.95691  1.0000
  Sn  Sn2       1.0  0.75000  0.50000  0.95691  1.0000
  Sn  Sn3       1.0  0.25000  0.25000  0.87074  1.0000
  Sn  Sn4       1.0  0.25000  0.75000  0.87074  1.0000
  Sn  Sn5       1.0  0.58143  0.50006  0.14591  1.0000
  Sn  Sn6       1.0  0.65121  0.99985  0.19090  1.0000
  Sn  Sn7       1.0  0.17232  0.73054  0.05504  1.0000
  Sn  Sn8       1.0  0.17222  0.26936  0.05503  1.0000
  Ge  Ge1       1.0  0.25000  0.00000  0.95691  1.0000
  Ge  Ge2       1.0  0.25000  0.50000  0.95691  1.0000
  Ge  Ge3       1.0  0.75000  0.25000  0.87074  1.0000
  Ge  Ge4       1.0  0.75000  0.75000  0.87074  1.0000
  Ge  Ge5       1.0  0.16265  0.49992  0.12988  1.0000
  Ge  Ge6       1.0  0.12244  0.99994  0.12583  1.0000
  Ge  Ge7       1.0  0.71077  0.74983  0.04264  1.0000
  Ge  Ge8       1.0  0.71096  0.25010  0.04252  1.0000
  C   C1        1.0  0.41555  0.99997  0.13584  1.0000
