# generated using pymatgen
data_Mg8Ni24C
_symmetry_space_group_name_H-M   Pmm2
_cell_length_a   7.35611000
_cell_length_b   7.35611000
_cell_length_c   25.51710000
_cell_angle_alpha   90.00000000
_cell_angle_beta   90.00000000
_cell_angle_gamma   90.00000000
_symmetry_Int_Tables_number   25
_chemical_formula_structural   Mg8Ni24C
_chemical_formula_sum   'Mg8 Ni24 C1'
_cell_volume   1380.79035673
_cell_formula_units_Z   1
loop_
 _symmetry_equiv_pos_site_id
 _symmetry_equiv_pos_as_xyz
  1  'x, y, z'
  2  '-x, -y, z'
  3  '-x, y, z'
  4  'x, -y, z'
loop_
 _atom_site_type_symbol
 _atom_site_label
 _atom_site_symmetry_multiplicity
 _atom_site_fract_x
 _atom_site_fract_y
 _atom_site_fract_z
 _atom_site_occupancy
  Mg  Mg0  2  0.25000000  0.00000000  0.10811000  1.0
  Mg  Mg1  2  0.25000000  0.00000000  0.96396000  1.0
  Mg  Mg2  2  0.25000000  0.50000000  0.10811000  1.0
  Mg  Mg3  2  0.25000000  0.50000000  0.96396000  1.0
  Ni  Ni4  4  0.25000000  0.25000000  0.03604000  1.0
  Ni  Ni5  4  0.25000000  0.25000000  0.89189000  1.0
  Ni  Ni6  2  0.00000000  0.25000000  0.10811000  1.0
  Ni  Ni7  2  0.00000000  0.25000000  0.96396000  1.0
  Ni  Ni8  2  0.50000000  0.25000000  0.10811000  1.0
  Ni  Ni9  2  0.50000000  0.25000000  0.96396000  1.0
  Ni  Ni10  1  0.00000000  0.00000000  0.03604000  1.0
  Ni  Ni11  1  0.00000000  0.00000000  0.89189000  1.0
  Ni  Ni12  1  0.00000000  0.50000000  0.03604000  1.0
  Ni  Ni13  1  0.00000000  0.50000000  0.89189000  1.0
  Ni  Ni14  1  0.50000000  0.00000000  0.03604000  1.0
  Ni  Ni15  1  0.50000000  0.00000000  0.89189000  1.0
  Ni  Ni16  1  0.50000000  0.50000000  0.03604000  1.0
  Ni  Ni17  1  0.50000000  0.50000000  0.89189000  1.0
  C  C18  1  0.00000000  0.00000000  0.13946000  1.0
