# generated using pymatgen
data_Ca12Pb4C
_symmetry_space_group_name_H-M   'P 1'
_cell_length_a   7.22598000
_cell_length_b   10.21910000
_cell_length_c   25.41950000
_cell_angle_alpha   90.00000000
_cell_angle_beta   90.00000000
_cell_angle_gamma   90.00000000
_symmetry_Int_Tables_number   1
_chemical_formula_structural   Ca12Pb4C
_chemical_formula_sum   'Ca12 Pb4 C1'
_cell_volume   1877.05244908
_cell_formula_units_Z   1
loop_
 _symmetry_equiv_pos_site_id
 _symmetry_equiv_pos_as_xyz
  1  'x, y, z'
loop_
 _atom_site_type_symbol
 _atom_site_label
 _atom_site_symmetry_multiplicity
 _atom_site_fract_x
 _atom_site_fract_y
 _atom_site_fract_z
 _atom_site_occupancy
  Ca  Ca0  1  0.00000000  0.00000000  0.10660000  1.0
  Ca  Ca1  1  0.25001000  0.24999000  0.03553000  1.0
  Ca  Ca2  1  0.74999000  0.24999000  0.03553000  1.0
  Ca  Ca3  1  0.50000000  0.00000000  0.98025000  1.0
  Ca  Ca4  1  0.77010000  0.17430000  0.88322000  1.0
  Ca  Ca5  1  0.22990000  0.17430000  0.88322000  1.0
  Ca  Ca6  1  0.00000000  0.50000000  0.10660000  1.0
  Ca  Ca7  1  0.25001000  0.75001000  0.03553000  1.0
  Ca  Ca8  1  0.74999000  0.75001000  0.03553000  1.0
  Ca  Ca9  1  0.50000000  0.50000000  0.95557000  1.0
  Ca  Ca10  1  0.77010000  0.82570000  0.88322000  1.0
  Ca  Ca11  1  0.22990000  0.82570000  0.88322000  1.0
  Pb  Pb12  1  0.50000000  0.00000000  0.10660000  1.0
  Pb  Pb13  1  0.00000000  0.00000000  0.97629000  1.0
  Pb  Pb14  1  0.50000000  0.50000000  0.10660000  1.0
  Pb  Pb15  1  0.00000000  0.50000000  0.95448000  1.0
  C  C16  1  0.00000000  0.00000000  0.87626000  1.0
