# generated using pymatgen
data_VPd3
_symmetry_space_group_name_H-M   Pmm2
_cell_length_a   3.92061500
_cell_length_b   5.54458000
_cell_length_c   24.15840000
_cell_angle_alpha   90.00000000
_cell_angle_beta   90.00000000
_cell_angle_gamma   90.00000000
_symmetry_Int_Tables_number   25
_chemical_formula_structural   VPd3
_chemical_formula_sum   'V2 Pd6'
_cell_volume   525.15924950
_cell_formula_units_Z   2
loop_
 _symmetry_equiv_pos_site_id
 _symmetry_equiv_pos_as_xyz
  1  'x, y, z'
  2  '-x, -y, z'
  3  '-x, y, z'
  4  'x, -y, z'
loop_
 _atom_site_type_symbol
 _atom_site_label
 _atom_site_symmetry_multiplicity
 _atom_site_fract_x
 _atom_site_fract_y
 _atom_site_fract_z
 _atom_site_occupancy
  V  V0  1  0.00000000  0.00000000  0.91393000  1.0
  V  V1  1  0.00000000  0.50000000  0.03044500  1.0
  Pd  Pd2  2  0.50000000  0.25000000  0.97131000  1.0
  Pd  Pd3  2  0.50000000  0.26044000  0.08426000  1.0
  Pd  Pd4  1  0.00000000  0.00000000  0.02574000  1.0
  Pd  Pd5  1  0.00000000  0.50000000  0.91393000  1.0
