# generated using pymatgen
data_LiAlAgSn
_symmetry_space_group_name_H-M   'P 1'
_cell_length_a   8.56020000
_cell_length_b   8.66686000
_cell_length_c   26.12070000
_cell_angle_alpha   90.00000000
_cell_angle_beta   90.00000000
_cell_angle_gamma   90.00000000
_symmetry_Int_Tables_number   1
_chemical_formula_structural   LiAlAgSn
_chemical_formula_sum   'Li8 Al8 Ag8 Sn8'
_cell_volume   1937.89616891
_cell_formula_units_Z   8
loop_
 _symmetry_equiv_pos_site_id
 _symmetry_equiv_pos_as_xyz
  1  'x, y, z'
loop_
 _atom_site_type_symbol
 _atom_site_label
 _atom_site_symmetry_multiplicity
 _atom_site_fract_x
 _atom_site_fract_y
 _atom_site_fract_z
 _atom_site_occupancy
  Li  Li0  1  0.24999000  0.00000000  0.03839000  1.0
  Li  Li1  1  0.25000000  0.00000000  0.88284000  1.0
  Li  Li2  1  0.24999000  0.50000000  0.03841000  1.0
  Li  Li3  1  0.25000000  0.50000000  0.88284000  1.0
  Li  Li4  1  0.75001000  0.00000000  0.03839000  1.0
  Li  Li5  1  0.75000000  0.00000000  0.88284000  1.0
  Li  Li6  1  0.75001000  0.50000000  0.03841000  1.0
  Li  Li7  1  0.75000000  0.50000000  0.88284000  1.0
  Al  Al8  1  0.00000000  0.25000000  0.03991000  1.0
  Al  Al9  1  0.00000000  0.25000000  0.88284000  1.0
  Al  Al10  1  0.00000000  0.75000000  0.03991000  1.0
  Al  Al11  1  0.00000000  0.75000000  0.88284000  1.0
  Al  Al12  1  0.50000000  0.25000000  0.03991000  1.0
  Al  Al13  1  0.50000000  0.25000000  0.88284000  1.0
  Al  Al14  1  0.50000000  0.75000000  0.03991000  1.0
  Al  Al15  1  0.50000000  0.75000000  0.88284000  1.0
  Ag  Ag16  1  0.00000000  0.00000000  0.10411000  1.0
  Ag  Ag17  1  0.00000000  0.00000000  0.96095000  1.0
  Ag  Ag18  1  0.00000000  0.50000000  0.10412000  1.0
  Ag  Ag19  1  0.00000000  0.50000000  0.96095000  1.0
  Ag  Ag20  1  0.50000000  0.00000000  0.10410000  1.0
  Ag  Ag21  1  0.50000000  0.00000000  0.96095000  1.0
  Ag  Ag22  1  0.50000000  0.50000000  0.10411000  1.0
  Ag  Ag23  1  0.50000000  0.50000000  0.96095000  1.0
  Sn  Sn24  1  0.25005000  0.24980000  0.12345000  1.0
  Sn  Sn25  1  0.25000000  0.25000000  0.96095000  1.0
  Sn  Sn26  1  0.25005000  0.75020000  0.12345000  1.0
  Sn  Sn27  1  0.25000000  0.75000000  0.96095000  1.0
  Sn  Sn28  1  0.74995000  0.24980000  0.12345000  1.0
  Sn  Sn29  1  0.75000000  0.25000000  0.96095000  1.0
  Sn  Sn30  1  0.74995000  0.75020000  0.12345000  1.0
  Sn  Sn31  1  0.75000000  0.75000000  0.96095000  1.0
