# generated using pymatgen
data_LiAlAgSn
_symmetry_space_group_name_H-M   Pm
_cell_length_a   5.91351000
_cell_length_b   4.33343000
_cell_length_c   24.43010000
_cell_angle_alpha   90.00000000
_cell_angle_beta   90.00000000
_cell_angle_gamma   90.00000000
_symmetry_Int_Tables_number   6
_chemical_formula_structural   LiAlAgSn
_chemical_formula_sum   'Li2 Al2 Ag2 Sn2'
_cell_volume   626.04040803
_cell_formula_units_Z   2
loop_
 _symmetry_equiv_pos_site_id
 _symmetry_equiv_pos_as_xyz
  1  'x, y, z'
  2  'x, -y, z'
loop_
 _atom_site_type_symbol
 _atom_site_label
 _atom_site_symmetry_multiplicity
 _atom_site_fract_x
 _atom_site_fract_y
 _atom_site_fract_z
 _atom_site_occupancy
  Li  Li0  1  0.52100500  0.00000000  0.08517000  1.0
  Li  Li1  1  0.97614000  0.00000000  0.96978000  1.0
  Al  Al2  1  0.26409500  0.50000000  0.02978500  1.0
  Al  Al3  1  0.71421000  0.50000000  0.90933000  1.0
  Ag  Ag4  1  0.05815500  0.00000000  0.07445000  1.0
  Ag  Ag5  1  0.47614000  0.00000000  0.96978000  1.0
  Sn  Sn6  1  0.21421000  0.50000000  0.90933000  1.0
  Sn  Sn7  1  0.75232000  0.50000000  0.03372500  1.0
