# generated using pymatgen
data_Nb8Ni16Sn8C
_symmetry_space_group_name_H-M   Pmm2
_cell_length_a   6.22550000
_cell_length_b   8.80419000
_cell_length_c   26.60310000
_cell_angle_alpha   90.00000000
_cell_angle_beta   90.00000000
_cell_angle_gamma   90.00000000
_symmetry_Int_Tables_number   25
_chemical_formula_structural   Nb8Ni16Sn8C
_chemical_formula_sum   'Nb8 Ni16 Sn8 C1'
_cell_volume   1458.12880938
_cell_formula_units_Z   1
loop_
 _symmetry_equiv_pos_site_id
 _symmetry_equiv_pos_as_xyz
  1  'x, y, z'
  2  '-x, -y, z'
  3  '-x, y, z'
  4  'x, -y, z'
loop_
 _atom_site_type_symbol
 _atom_site_label
 _atom_site_symmetry_multiplicity
 _atom_site_fract_x
 _atom_site_fract_y
 _atom_site_fract_z
 _atom_site_occupancy
  Nb  Nb0  2  0.50000000  0.24926000  0.11801000  1.0
  Nb  Nb1  2  0.50000000  0.24998000  0.95863000  1.0
  Nb  Nb2  1  0.00000000  0.00000000  0.04264000  1.0
  Nb  Nb3  1  0.00000000  0.00000000  0.87590000  1.0
  Nb  Nb4  1  0.00000000  0.50000000  0.04882000  1.0
  Nb  Nb5  1  0.00000000  0.50000000  0.87590000  1.0
  Ni  Ni6  4  0.22813000  0.24374000  0.04429000  1.0
  Ni  Ni7  4  0.25000000  0.25002000  0.87590000  1.0
  Ni  Ni8  2  0.25000000  0.00000000  0.95863000  1.0
  Ni  Ni9  2  0.25000000  0.50000000  0.95863000  1.0
  Ni  Ni10  2  0.28222000  0.00000000  0.11921000  1.0
  Ni  Ni11  2  0.29516000  0.50000000  0.13040000  1.0
  Sn  Sn12  2  0.00000000  0.23054000  0.14150000  1.0
  Sn  Sn13  2  0.00000000  0.25002000  0.95863000  1.0
  Sn  Sn14  1  0.50000000  0.00000000  0.03684000  1.0
  Sn  Sn15  1  0.50000000  0.00000000  0.87590000  1.0
  Sn  Sn16  1  0.50000000  0.50000000  0.03997000  1.0
  Sn  Sn17  1  0.50000000  0.50000000  0.87590000  1.0
  C  C18  1  0.00000000  0.50000000  0.12677000  1.0
