# generated using pymatgen
data_Mg8Sc8In8Pd8CO
_symmetry_space_group_name_H-M   'P 1'
_cell_length_a   6.76782000
_cell_length_b   9.57114000
_cell_length_c   27.17840000
_cell_angle_alpha   90.00000000
_cell_angle_beta   90.00000000
_cell_angle_gamma   90.00000000
_symmetry_Int_Tables_number   1
_chemical_formula_structural   Mg8Sc8In8Pd8CO
_chemical_formula_sum   'Mg8 Sc8 In8 Pd8 C1 O1'
_cell_volume   1760.50131758
_cell_formula_units_Z   1
loop_
 _symmetry_equiv_pos_site_id
 _symmetry_equiv_pos_as_xyz
  1  'x, y, z'
loop_
 _atom_site_type_symbol
 _atom_site_label
 _atom_site_symmetry_multiplicity
 _atom_site_fract_x
 _atom_site_fract_y
 _atom_site_fract_z
 _atom_site_occupancy
  Mg  Mg0  1  0.25000000  0.00000000  0.95598000  1.0
  Mg  Mg1  1  0.25000000  0.50000000  0.95598000  1.0
  Mg  Mg2  1  0.75000000  0.25000000  0.86794000  1.0
  Mg  Mg3  1  0.75000000  0.75000000  0.86794000  1.0
  Mg  Mg4  1  0.24920000  0.51467000  0.13418000  1.0
  Mg  Mg5  1  0.24923000  0.98530000  0.13421000  1.0
  Mg  Mg6  1  0.73679000  0.75000000  0.04594000  1.0
  Mg  Mg7  1  0.73687000  0.25001000  0.04783000  1.0
  Sc  Sc8  1  0.75000000  0.00000000  0.95598000  1.0
  Sc  Sc9  1  0.75000000  0.50000000  0.95598000  1.0
  Sc  Sc10  1  0.25000000  0.25000000  0.86794000  1.0
  Sc  Sc11  1  0.25000000  0.75000000  0.86794000  1.0
  Sc  Sc12  1  0.74197000  0.48490000  0.13481000  1.0
  Sc  Sc13  1  0.74200000  0.01508000  0.13481000  1.0
  Sc  Sc14  1  0.25578000  0.75002000  0.04759000  1.0
  Sc  Sc15  1  0.25659000  0.24999000  0.04530000  1.0
  In  In16  1  0.00000000  0.00000000  0.86794000  1.0
  In  In17  1  0.00000000  0.50000000  0.86794000  1.0
  In  In18  1  0.50000000  0.75000000  0.95598000  1.0
  In  In19  1  0.50000000  0.25000000  0.95598000  1.0
  In  In20  1  0.99490000  0.49833000  0.04674000  1.0
  In  In21  1  0.99493000  0.00169000  0.04679000  1.0
  In  In22  1  0.45386000  0.25001000  0.14827000  1.0
  In  In23  1  0.52254000  0.74997000  0.14854000  1.0
  Pd  Pd24  1  0.00000000  0.25000000  0.95598000  1.0
  Pd  Pd25  1  0.00000000  0.75000000  0.95598000  1.0
  Pd  Pd26  1  0.50000000  0.50000000  0.86794000  1.0
  Pd  Pd27  1  0.50000000  0.00000000  0.86794000  1.0
  Pd  Pd28  1  0.98371000  0.74998000  0.12283000  1.0
  Pd  Pd29  1  0.01395000  0.25000000  0.12972000  1.0
  Pd  Pd30  1  0.50692000  0.99907000  0.04447000  1.0
  Pd  Pd31  1  0.50693000  0.50093000  0.04447000  1.0
  C  C32  1  0.95216000  0.25001000  0.20078000  1.0
  O  O33  1  0.95689000  0.25000000  0.24351000  1.0
