# generated using pymatgen
data_HfAlCo2
_symmetry_space_group_name_H-M   Pmmn
_cell_length_a   4.26667500
_cell_length_b   6.03399000
_cell_length_c   26.40000000
_cell_angle_alpha   90.00000000
_cell_angle_beta   90.00000000
_cell_angle_gamma   90.00000000
_symmetry_Int_Tables_number   59
_chemical_formula_structural   HfAlCo2
_chemical_formula_sum   'Hf4 Al4 Co8'
_cell_volume   679.66996108
_cell_formula_units_Z   4
loop_
 _symmetry_equiv_pos_site_id
 _symmetry_equiv_pos_as_xyz
  1  'x, y, z'
  2  '-x, -y, z'
  3  'x+1/2, -y+1/2, -z'
  4  '-x+1/2, y+1/2, -z'
  5  '-x+1/2, -y+1/2, -z'
  6  'x+1/2, y+1/2, -z'
  7  '-x, y, z'
  8  'x, -y, z'
loop_
 _atom_site_type_symbol
 _atom_site_label
 _atom_site_symmetry_multiplicity
 _atom_site_fract_x
 _atom_site_fract_y
 _atom_site_fract_z
 _atom_site_occupancy
  Hf  Hf0  2  0.00000000  0.00000000  0.12121000  1.0
  Hf  Hf1  2  0.00000000  0.00000000  0.95960000  1.0
  Al  Al2  2  0.00000000  0.50000000  0.12121000  1.0
  Al  Al3  2  0.00000000  0.50000000  0.95960000  1.0
  Co  Co4  4  0.00000000  0.25000000  0.04040000  1.0
  Co  Co5  4  0.00000000  0.25000000  0.87879000  1.0
