# generated using pymatgen
data_Li8Al8Ga8Pd8C
_symmetry_space_group_name_H-M   Pm
_cell_length_a   6.14517000
_cell_length_b   8.69058000
_cell_length_c   26.51790000
_cell_angle_alpha   90.00000000
_cell_angle_beta   90.00000000
_cell_angle_gamma   90.00000000
_symmetry_Int_Tables_number   6
_chemical_formula_structural   Li8Al8Ga8Pd8C
_chemical_formula_sum   'Li8 Al8 Ga8 Pd8 C1'
_cell_volume   1416.19087585
_cell_formula_units_Z   1
loop_
 _symmetry_equiv_pos_site_id
 _symmetry_equiv_pos_as_xyz
  1  'x, y, z'
  2  'x, -y, z'
loop_
 _atom_site_type_symbol
 _atom_site_label
 _atom_site_symmetry_multiplicity
 _atom_site_fract_x
 _atom_site_fract_y
 _atom_site_fract_z
 _atom_site_occupancy
  Li  Li0  2  0.75000000  0.24999000  0.95903000  1.0
  Li  Li1  2  0.75551000  0.23890000  0.15186000  1.0
  Li  Li2  1  0.23461000  0.00000000  0.04001000  1.0
  Li  Li3  1  0.24765000  0.50000000  0.04268000  1.0
  Li  Li4  1  0.25000000  0.00000000  0.87710000  1.0
  Li  Li5  1  0.25000000  0.50000000  0.87710000  1.0
  Al  Al6  2  0.00000000  0.24999000  0.87710000  1.0
  Al  Al7  2  0.98045000  0.25657000  0.04537000  1.0
  Al  Al8  1  0.46277000  0.00000000  0.12421000  1.0
  Al  Al9  1  0.50000000  0.00000000  0.95903000  1.0
  Al  Al10  1  0.50000000  0.50000000  0.95903000  1.0
  Al  Al11  1  0.51915000  0.50000000  0.12238000  1.0
  Ga  Ga12  2  0.50000000  0.25001000  0.87710000  1.0
  Ga  Ga13  2  0.51144000  0.24823000  0.04256000  1.0
  Ga  Ga14  1  0.00000000  0.00000000  0.95903000  1.0
  Ga  Ga15  1  0.00000000  0.50000000  0.95903000  1.0
  Ga  Ga16  1  0.05352000  0.00000000  0.13784000  1.0
  Ga  Ga17  1  0.97919000  0.50000000  0.12957000  1.0
  Pd  Pd18  2  0.25000000  0.24999000  0.95903000  1.0
  Pd  Pd19  2  0.25162000  0.26354000  0.11699000  1.0
  Pd  Pd20  1  0.74604000  0.50000000  0.03494000  1.0
  Pd  Pd21  1  0.75000000  0.00000000  0.87710000  1.0
  Pd  Pd22  1  0.75000000  0.50000000  0.87710000  1.0
  Pd  Pd23  1  0.76136000  0.00000000  0.04443000  1.0
  C  C24  1  0.75253000  0.00000000  0.14331000  1.0
