# generated using pymatgen
data_Mn8Co16Ge8C
_symmetry_space_group_name_H-M   Pmm2
_cell_length_a   5.75846000
_cell_length_b   8.14369000
_cell_length_c   26.10780000
_cell_angle_alpha   90.00000000
_cell_angle_beta   90.00000000
_cell_angle_gamma   90.00000000
_symmetry_Int_Tables_number   25
_chemical_formula_structural   Mn8Co16Ge8C
_chemical_formula_sum   'Mn8 Co16 Ge8 C1'
_cell_volume   1224.32823425
_cell_formula_units_Z   1
loop_
 _symmetry_equiv_pos_site_id
 _symmetry_equiv_pos_as_xyz
  1  'x, y, z'
  2  '-x, -y, z'
  3  '-x, y, z'
  4  'x, -y, z'
loop_
 _atom_site_type_symbol
 _atom_site_label
 _atom_site_symmetry_multiplicity
 _atom_site_fract_x
 _atom_site_fract_y
 _atom_site_fract_z
 _atom_site_occupancy
  Mn  Mn0  2  0.50000000  0.25000000  0.96101000  1.0
  Mn  Mn1  2  0.50000000  0.25797000  0.12146000  1.0
  Mn  Mn2  1  0.00000000  0.00000000  0.03855000  1.0
  Mn  Mn3  1  0.00000000  0.00000000  0.88303000  1.0
  Mn  Mn4  1  0.00000000  0.50000000  0.03701000  1.0
  Mn  Mn5  1  0.00000000  0.50000000  0.88303000  1.0
  Co  Co6  4  0.25000000  0.25000000  0.88303000  1.0
  Co  Co7  4  0.25095000  0.24860000  0.04006000  1.0
  Co  Co8  2  0.23653000  0.50000000  0.11303000  1.0
  Co  Co9  2  0.25000000  0.00000000  0.96101000  1.0
  Co  Co10  2  0.25000000  0.50000000  0.96101000  1.0
  Co  Co11  2  0.25954000  0.00000000  0.11608000  1.0
  Ge  Ge12  2  0.00000000  0.25000000  0.96101000  1.0
  Ge  Ge13  2  0.00000000  0.25789000  0.11854000  1.0
  Ge  Ge14  1  0.50000000  0.00000000  0.03619000  1.0
  Ge  Ge15  1  0.50000000  0.00000000  0.88303000  1.0
  Ge  Ge16  1  0.50000000  0.50000000  0.03958000  1.0
  Ge  Ge17  1  0.50000000  0.50000000  0.88303000  1.0
  C  C18  1  0.00000000  0.00000000  0.15127000  1.0
