# generated using pymatgen
data_Ti8Ga8Co16CO
_symmetry_space_group_name_H-M   Pm
_cell_length_a   5.88011000
_cell_length_b   8.31574000
_cell_length_c   26.23680000
_cell_angle_alpha   90.00000000
_cell_angle_beta   90.00000000
_cell_angle_gamma   90.00000000
_symmetry_Int_Tables_number   6
_chemical_formula_structural   Ti8Ga8Co16CO
_chemical_formula_sum   'Ti8 Ga8 Co16 C1 O1'
_cell_volume   1282.91303415
_cell_formula_units_Z   1
loop_
 _symmetry_equiv_pos_site_id
 _symmetry_equiv_pos_as_xyz
  1  'x, y, z'
  2  'x, -y, z'
loop_
 _atom_site_type_symbol
 _atom_site_label
 _atom_site_symmetry_multiplicity
 _atom_site_fract_x
 _atom_site_fract_y
 _atom_site_fract_z
 _atom_site_occupancy
  Ti  Ti0  2  0.50000000  0.25000000  0.96038000  1.0
  Ti  Ti1  2  0.50000000  0.25000000  0.11886000  1.0
  Ti  Ti2  1  -0.00000000  0.50000000  0.03962000  1.0
  Ti  Ti3  1  -0.00000000  0.50000000  0.88114000  1.0
  Ti  Ti4  1  0.00000000  0.00000000  0.03962000  1.0
  Ti  Ti5  1  0.00000000  0.00000000  0.88114000  1.0
  Ga  Ga6  2  -0.00000000  0.25000000  0.96038000  1.0
  Ga  Ga7  2  -0.00000000  0.25000000  0.11886000  1.0
  Ga  Ga8  1  0.50000000  0.00000000  0.03962000  1.0
  Ga  Ga9  1  0.50000000  0.00000000  0.88114000  1.0
  Ga  Ga10  1  0.50000000  0.50000000  0.03962000  1.0
  Ga  Ga11  1  0.50000000  0.50000000  0.88114000  1.0
  Co  Co12  2  0.25000000  0.25000000  0.88114000  1.0
  Co  Co13  2  0.25000000  0.25000000  0.03962000  1.0
  Co  Co14  2  0.75000000  0.25000000  0.03962000  1.0
  Co  Co15  2  0.75000000  0.25000000  0.88114000  1.0
  Co  Co16  1  0.25000000  0.00000000  0.11886000  1.0
  Co  Co17  1  0.25000000  0.00000000  0.96038000  1.0
  Co  Co18  1  0.25000000  0.50000000  0.11886000  1.0
  Co  Co19  1  0.25000000  0.50000000  0.96038000  1.0
  Co  Co20  1  0.75000000  0.00000000  0.11886000  1.0
  Co  Co21  1  0.75000000  0.00000000  0.96038000  1.0
  Co  Co22  1  0.75000000  0.50000000  0.11886000  1.0
  Co  Co23  1  0.75000000  0.50000000  0.96038000  1.0
  C  C24  1  0.25000000  0.00000000  0.19127000  1.0
  O  O25  1  0.25000000  0.00000000  0.23510000  1.0
