# generated using pymatgen
data_Li8Mn8Al8Pd8CO
_symmetry_space_group_name_H-M   Pm
_cell_length_a   6.10222000
_cell_length_b   8.62984000
_cell_length_c   26.47240000
_cell_angle_alpha   90.00000000
_cell_angle_beta   90.00000000
_cell_angle_gamma   90.00000000
_symmetry_Int_Tables_number   6
_chemical_formula_structural   Li8Mn8Al8Pd8CO
_chemical_formula_sum   'Li8 Mn8 Al8 Pd8 C1 O1'
_cell_volume   1394.06788086
_cell_formula_units_Z   1
loop_
 _symmetry_equiv_pos_site_id
 _symmetry_equiv_pos_as_xyz
  1  'x, y, z'
  2  'x, -y, z'
loop_
 _atom_site_type_symbol
 _atom_site_label
 _atom_site_symmetry_multiplicity
 _atom_site_fract_x
 _atom_site_fract_y
 _atom_site_fract_z
 _atom_site_occupancy
  Li  Li0  2  0.49807000  0.25066000  0.03707000  1.0
  Li  Li1  2  0.50000000  0.25001000  0.87775000  1.0
  Li  Li2  1  -0.00000000  0.50000000  0.95925000  1.0
  Li  Li3  1  0.00000000  0.00000000  0.95925000  1.0
  Li  Li4  1  0.97770000  0.00000000  0.13232000  1.0
  Li  Li5  1  0.98006000  0.50000000  0.13539000  1.0
  Mn  Mn6  2  0.25000000  0.24999000  0.95925000  1.0
  Mn  Mn7  2  0.25628000  0.25663000  0.12003000  1.0
  Mn  Mn8  1  0.75000000  0.00000000  0.87775000  1.0
  Mn  Mn9  1  0.75000000  0.50000000  0.87775000  1.0
  Mn  Mn10  1  0.75470000  0.00000000  0.04159000  1.0
  Mn  Mn11  1  0.75560000  0.50000000  0.04178000  1.0
  Al  Al12  2  0.00000000  0.24999000  0.87775000  1.0
  Al  Al13  2  0.00446000  0.24985000  0.03902000  1.0
  Al  Al14  1  0.50000000  0.00000000  0.95925000  1.0
  Al  Al15  1  0.50000000  0.50000000  0.95925000  1.0
  Al  Al16  1  0.50521000  0.50000000  0.12291000  1.0
  Al  Al17  1  0.51126000  0.00000000  0.12263000  1.0
  Pd  Pd18  2  0.73717000  0.25193000  0.11354000  1.0
  Pd  Pd19  2  0.75000000  0.24999000  0.95925000  1.0
  Pd  Pd20  1  0.24627000  0.50000000  0.04070000  1.0
  Pd  Pd21  1  0.24902000  0.00000000  0.04412000  1.0
  Pd  Pd22  1  0.25000000  0.00000000  0.87775000  1.0
  Pd  Pd23  1  0.25000000  0.50000000  0.87775000  1.0
  C  C24  1  0.44646000  0.00000000  0.19550000  1.0
  O  O25  1  0.42260000  0.00000000  0.23905000  1.0
