# generated using pymatgen
data_Li8In8Ga8Pd8C
_symmetry_space_group_name_H-M   'P 1'
_cell_length_a   9.14544000
_cell_length_b   6.46680000
_cell_length_c   26.85910000
_cell_angle_alpha   90.00000000
_cell_angle_beta   90.00000000
_cell_angle_gamma   90.00000000
_symmetry_Int_Tables_number   1
_chemical_formula_structural   Li8In8Ga8Pd8C
_chemical_formula_sum   'Li8 In8 Ga8 Pd8 C1'
_cell_volume   1588.49367763
_cell_formula_units_Z   1
loop_
 _symmetry_equiv_pos_site_id
 _symmetry_equiv_pos_as_xyz
  1  'x, y, z'
loop_
 _atom_site_type_symbol
 _atom_site_label
 _atom_site_symmetry_multiplicity
 _atom_site_fract_x
 _atom_site_fract_y
 _atom_site_fract_z
 _atom_site_occupancy
  Li  Li0  1  0.75000000  0.75000000  0.04256000  1.0
  Li  Li1  1  0.25000000  0.75000000  0.04256000  1.0
  Li  Li2  1  0.00000000  0.25000000  0.12769000  1.0
  Li  Li3  1  0.50000000  0.25000000  0.12769000  1.0
  Li  Li4  1  0.26890000  0.74289000  0.86112000  1.0
  Li  Li5  1  0.73110000  0.74289000  0.86112000  1.0
  Li  Li6  1  0.50000000  0.21498000  0.95203000  1.0
  Li  Li7  1  0.00000000  0.19136000  0.94241000  1.0
  In  In8  1  0.00000000  0.00000000  0.04256000  1.0
  In  In9  1  0.50000000  1.00000000  0.04256000  1.0
  In  In10  1  0.25000000  0.50000000  0.12769000  1.0
  In  In11  1  0.75000000  0.50000000  0.12769000  1.0
  In  In12  1  0.50000000  0.02222000  0.85340000  1.0
  In  In13  1  0.00000000  0.95249000  0.82161000  1.0
  In  In14  1  0.74427000  0.48820000  0.95388000  1.0
  In  In15  1  0.25573000  0.48820000  0.95388000  1.0
  Ga  Ga16  1  0.75000000  0.00000000  0.12769000  1.0
  Ga  Ga17  1  0.25000000  0.00000000  0.12769000  1.0
  Ga  Ga18  1  0.50000000  0.50000000  0.04256000  1.0
  Ga  Ga19  1  0.00000000  0.50000000  0.04256000  1.0
  Ga  Ga20  1  0.25217000  0.97162000  0.95342000  1.0
  Ga  Ga21  1  0.74783000  0.97162000  0.95342000  1.0
  Ga  Ga22  1  0.00000000  0.54984000  0.87519000  1.0
  Ga  Ga23  1  0.50000000  0.47451000  0.86789000  1.0
  Pd  Pd24  1  0.75000000  0.25000000  0.04256000  1.0
  Pd  Pd25  1  0.25000000  0.25000000  0.04256000  1.0
  Pd  Pd26  1  0.00000000  0.75000000  0.12769000  1.0
  Pd  Pd27  1  0.50000000  0.75000000  0.12769000  1.0
  Pd  Pd28  1  0.22717000  0.20777000  0.87683000  1.0
  Pd  Pd29  1  0.77283000  0.20777000  0.87683000  1.0
  Pd  Pd30  1  0.50000000  0.75194000  0.95859000  1.0
  Pd  Pd31  1  0.00000000  0.73924000  0.96098000  1.0
  C  C32  1  0.00000000  0.25744000  0.85991000  1.0
