# generated using pymatgen
data_Li8In8Ga8Pd8C
_symmetry_space_group_name_H-M   Pm
_cell_length_a   6.46680000
_cell_length_b   9.14544000
_cell_length_c   26.85910000
_cell_angle_alpha   90.00000000
_cell_angle_beta   90.00000000
_cell_angle_gamma   90.00000000
_symmetry_Int_Tables_number   6
_chemical_formula_structural   Li8In8Ga8Pd8C
_chemical_formula_sum   'Li8 In8 Ga8 Pd8 C1'
_cell_volume   1588.49367763
_cell_formula_units_Z   1
loop_
 _symmetry_equiv_pos_site_id
 _symmetry_equiv_pos_as_xyz
  1  'x, y, z'
  2  'x, -y, z'
loop_
 _atom_site_type_symbol
 _atom_site_label
 _atom_site_symmetry_multiplicity
 _atom_site_fract_x
 _atom_site_fract_y
 _atom_site_fract_z
 _atom_site_occupancy
  Li  Li0  2  0.74289000  0.26890000  0.13888000  1.0
  Li  Li1  2  0.75000000  0.25000000  0.95744000  1.0
  Li  Li2  1  0.19136000  0.00000000  0.05759000  1.0
  Li  Li3  1  0.21498000  0.50000000  0.04797000  1.0
  Li  Li4  1  0.25000000  0.00000000  0.87231000  1.0
  Li  Li5  1  0.25000000  0.50000000  0.87231000  1.0
  In  In6  2  0.48820000  0.25573000  0.04612000  1.0
  In  In7  2  0.50000000  0.25000000  0.87231000  1.0
  In  In8  1  -0.00000000  0.50000000  0.95744000  1.0
  In  In9  1  0.00000000  0.00000000  0.95744000  1.0
  In  In10  1  0.02222000  0.50000000  0.14660000  1.0
  In  In11  1  0.95249000  0.00000000  0.17839000  1.0
  Ga  Ga12  2  0.00000000  0.25000000  0.87231000  1.0
  Ga  Ga13  2  0.97162000  0.25217000  0.04658000  1.0
  Ga  Ga14  1  0.47451000  0.50000000  0.13211000  1.0
  Ga  Ga15  1  0.50000000  0.00000000  0.95744000  1.0
  Ga  Ga16  1  0.50000000  0.50000000  0.95744000  1.0
  Ga  Ga17  1  0.54984000  0.00000000  0.12481000  1.0
  Pd  Pd18  2  0.20777000  0.22717000  0.12317000  1.0
  Pd  Pd19  2  0.25000000  0.25000000  0.95744000  1.0
  Pd  Pd20  1  0.73924000  0.00000000  0.03902000  1.0
  Pd  Pd21  1  0.75000000  0.00000000  0.87231000  1.0
  Pd  Pd22  1  0.75000000  0.50000000  0.87231000  1.0
  Pd  Pd23  1  0.75194000  0.50000000  0.04141000  1.0
  C  C24  1  0.25744000  0.00000000  0.14009000  1.0
