# generated using pymatgen
data_Li8Ge8Pd8Pt8C
_symmetry_space_group_name_H-M   P1
_cell_length_a   6.12898000
_cell_length_b   8.66768000
_cell_length_c   26.50080000
_cell_angle_alpha   90.00000000
_cell_angle_beta   90.00000000
_cell_angle_gamma   90.00000000
_symmetry_Int_Tables_number   1
_chemical_formula_structural   Li8Ge8Pd8Pt8C
_chemical_formula_sum   'Li8 Ge8 Pd8 Pt8 C1'
_cell_volume   1407.82948944
_cell_formula_units_Z   1
loop_
 _symmetry_equiv_pos_site_id
 _symmetry_equiv_pos_as_xyz
  1  'x, y, z'
loop_
 _atom_site_type_symbol
 _atom_site_label
 _atom_site_symmetry_multiplicity
 _atom_site_fract_x
 _atom_site_fract_y
 _atom_site_fract_z
 _atom_site_occupancy
  Li  Li0  1  0.00000000  0.25000000  0.95912000  1.0
  Li  Li1  1  0.00000000  0.75000000  0.95912000  1.0
  Li  Li2  1  0.00727000  0.73784000  0.15705000  1.0
  Li  Li3  1  0.01652000  0.23664000  0.13728000  1.0
  Li  Li4  1  0.50000000  0.00000000  0.87735000  1.0
  Li  Li5  1  0.50000000  0.50000000  0.87735000  1.0
  Li  Li6  1  0.50274000  0.99610000  0.04180000  1.0
  Li  Li7  1  0.50291000  0.49538000  0.03888000  1.0
  Ge  Ge8  1  0.00000000  0.00000000  0.87735000  1.0
  Ge  Ge9  1  0.00000000  0.50000000  0.87735000  1.0
  Ge  Ge10  1  0.00271000  0.49032000  0.03879000  1.0
  Ge  Ge11  1  0.50000000  0.25000000  0.95912000  1.0
  Ge  Ge12  1  0.50000000  0.75000000  0.95912000  1.0
  Ge  Ge13  1  0.50040000  0.73004000  0.11741000  1.0
  Ge  Ge14  1  0.51202000  0.29197000  0.12566000  1.0
  Ge  Ge15  1  0.99272000  0.99979000  0.04134000  1.0
  Pd  Pd16  1  0.24246000  0.74896000  0.03780000  1.0
  Pd  Pd17  1  0.25000000  0.25000000  0.87735000  1.0
  Pd  Pd18  1  0.25000000  0.75000000  0.87735000  1.0
  Pd  Pd19  1  0.25401000  0.24072000  0.04264000  1.0
  Pd  Pd20  1  0.73776000  0.97204000  0.12397000  1.0
  Pd  Pd21  1  0.75000000  0.00000000  0.95912000  1.0
  Pd  Pd22  1  0.75000000  0.50000000  0.95912000  1.0
  Pd  Pd23  1  0.76842000  0.50845000  0.11810000  1.0
  Pt  Pt24  1  0.23728000  0.96715000  0.11944000  1.0
  Pt  Pt25  1  0.24555000  0.50543000  0.11616000  1.0
  Pt  Pt26  1  0.25000000  0.00000000  0.95912000  1.0
  Pt  Pt27  1  0.25000000  0.50000000  0.95912000  1.0
  Pt  Pt28  1  0.75000000  0.25000000  0.87735000  1.0
  Pt  Pt29  1  0.75000000  0.75000000  0.87735000  1.0
  Pt  Pt30  1  0.75244000  0.24351000  0.04349000  1.0
  Pt  Pt31  1  0.75380000  0.74712000  0.03854000  1.0
  C  C32  1  0.46544000  0.08890000  0.15103000  1.0
