# generated using pymatgen
data_Li4Y4In4Pb4CO
_symmetry_space_group_name_H-M   'P 1'
_cell_length_a   9.32892000
_cell_length_b   6.51578000
_cell_length_c   24.88170000
_cell_angle_alpha   90.00000000
_cell_angle_beta   90.00000000
_cell_angle_gamma   90.00000000
_symmetry_Int_Tables_number   1
_chemical_formula_structural   Li4Y4In4Pb4CO
_chemical_formula_sum   'Li4 Y4 In4 Pb4 C1 O1'
_cell_volume   1512.43887092
_cell_formula_units_Z   1
loop_
 _symmetry_equiv_pos_site_id
 _symmetry_equiv_pos_as_xyz
  1  'x, y, z'
loop_
 _atom_site_type_symbol
 _atom_site_label
 _atom_site_symmetry_multiplicity
 _atom_site_fract_x
 _atom_site_fract_y
 _atom_site_fract_z
 _atom_site_occupancy
  Li  Li0  1  0.25078000  0.29063000  0.97246000  1.0
  Li  Li1  1  0.25000000  0.71565000  0.09810000  1.0
  Li  Li2  1  0.74922000  0.29063000  0.97246000  1.0
  Li  Li3  1  0.75000000  0.71565000  0.09810000  1.0
  Y  Y4  1  0.00000000  0.58153000  0.90010000  1.0
  Y  Y5  1  0.00000000  0.97710000  0.03270000  1.0
  Y  Y6  1  0.50000000  0.58646000  0.90060000  1.0
  Y  Y7  1  0.50000000  0.97710000  0.03270000  1.0
  In  In8  1  0.00000000  0.09917000  0.89557000  1.0
  In  In9  1  0.00000000  0.47710000  0.03270000  1.0
  In  In10  1  0.50000000  0.09718000  0.89398000  1.0
  In  In11  1  0.50000000  0.47710000  0.03270000  1.0
  Pb  Pb12  1  0.25056000  0.81861000  0.95278000  1.0
  Pb  Pb13  1  0.25000000  0.21565000  0.09810000  1.0
  Pb  Pb14  1  0.74944000  0.81861000  0.95278000  1.0
  Pb  Pb15  1  0.75000000  0.21565000  0.09810000  1.0
  C  C16  1  0.00000000  0.50705000  0.80228000  1.0
  O  O17  1  0.00000000  0.48005000  0.75668000  1.0
