# generated using pymatgen
data_Sc4In4Ge4Pd4C
_symmetry_space_group_name_H-M   'P 1'
_cell_length_a   8.38060000
_cell_length_b   6.05174000
_cell_length_c   24.46740000
_cell_angle_alpha   90.00000000
_cell_angle_beta   90.00000000
_cell_angle_gamma   90.00000000
_symmetry_Int_Tables_number   1
_chemical_formula_structural   Sc4In4Ge4Pd4C
_chemical_formula_sum   'Sc4 In4 Ge4 Pd4 C1'
_cell_volume   1240.91831886
_cell_formula_units_Z   1
loop_
 _symmetry_equiv_pos_site_id
 _symmetry_equiv_pos_as_xyz
  1  'x, y, z'
loop_
 _atom_site_type_symbol
 _atom_site_label
 _atom_site_symmetry_multiplicity
 _atom_site_fract_x
 _atom_site_fract_y
 _atom_site_fract_z
 _atom_site_occupancy
  Sc  Sc0  1  0.25000000  0.20584000  0.03043000  1.0
  Sc  Sc1  1  0.25000000  0.61751000  0.90871000  1.0
  Sc  Sc2  1  0.75000000  0.20584000  0.03043000  1.0
  Sc  Sc3  1  0.75000000  0.61751000  0.90871000  1.0
  In  In4  1  0.00000000  0.50000000  0.09129000  1.0
  In  In5  1  0.00000000  0.91167000  0.96957000  1.0
  In  In6  1  0.50000000  0.50000000  0.09129000  1.0
  In  In7  1  0.50000000  0.91167000  0.96957000  1.0
  Ge  Ge8  1  0.00000000  0.00000000  0.09129000  1.0
  Ge  Ge9  1  0.00000000  0.41167000  0.96957000  1.0
  Ge  Ge10  1  0.50000000  0.00000000  0.09129000  1.0
  Ge  Ge11  1  0.50000000  0.41167000  0.96957000  1.0
  Pd  Pd12  1  0.25000000  0.70584000  0.03043000  1.0
  Pd  Pd13  1  0.25000000  0.11751000  0.90871000  1.0
  Pd  Pd14  1  0.75000000  0.70584000  0.03043000  1.0
  Pd  Pd15  1  0.75000000  0.11751000  0.90871000  1.0
  C  C16  1  0.00000000  0.41167000  0.87601000  1.0
