# generated using pymatgen
data_Li8Sc8In8Pd8CO
_symmetry_space_group_name_H-M   'P 1'
_cell_length_a   6.59012000
_cell_length_b   9.31984000
_cell_length_c   26.98990000
_cell_angle_alpha   90.00000000
_cell_angle_beta   90.00000000
_cell_angle_gamma   90.00000000
_symmetry_Int_Tables_number   1
_chemical_formula_structural   Li8Sc8In8Pd8CO
_chemical_formula_sum   'Li8 Sc8 In8 Pd8 C1 O1'
_cell_volume   1657.68899696
_cell_formula_units_Z   1
loop_
 _symmetry_equiv_pos_site_id
 _symmetry_equiv_pos_as_xyz
  1  'x, y, z'
loop_
 _atom_site_type_symbol
 _atom_site_label
 _atom_site_symmetry_multiplicity
 _atom_site_fract_x
 _atom_site_fract_y
 _atom_site_fract_z
 _atom_site_occupancy
  Li  Li0  1  0.75000000  0.00000000  0.95684000  1.0
  Li  Li1  1  0.75000000  0.50000000  0.95684000  1.0
  Li  Li2  1  0.25000000  0.25000000  0.87051000  1.0
  Li  Li3  1  0.25000000  0.75000000  0.87051000  1.0
  Li  Li4  1  0.60009000  0.49998000  0.18003000  1.0
  Li  Li5  1  0.61247000  0.99993000  0.18947000  1.0
  Li  Li6  1  0.25582000  0.74001000  0.04461000  1.0
  Li  Li7  1  0.25593000  0.25981000  0.04464000  1.0
  Sc  Sc8  1  0.00000000  0.25000000  0.95684000  1.0
  Sc  Sc9  1  0.00000000  0.75000000  0.95684000  1.0
  Sc  Sc10  1  0.50000000  0.50000000  0.87051000  1.0
  Sc  Sc11  1  0.50000000  0.00000000  0.87051000  1.0
  Sc  Sc12  1  0.96184000  0.74823000  0.12568000  1.0
  Sc  Sc13  1  0.96197000  0.25157000  0.12566000  1.0
  Sc  Sc14  1  0.51369000  0.99993000  0.05242000  1.0
  Sc  Sc15  1  0.52871000  0.50001000  0.05275000  1.0
  In  In16  1  0.00000000  0.00000000  0.87051000  1.0
  In  In17  1  0.00000000  0.50000000  0.87051000  1.0
  In  In18  1  0.50000000  0.75000000  0.95684000  1.0
  In  In19  1  0.50000000  0.25000000  0.95684000  1.0
  In  In20  1  0.99715000  0.49989000  0.03996000  1.0
  In  In21  1  0.01183000  0.99994000  0.04339000  1.0
  In  In22  1  0.48565000  0.24641000  0.13362000  1.0
  In  In23  1  0.48467000  0.75362000  0.13375000  1.0
  Pd  Pd24  1  0.25000000  0.00000000  0.95684000  1.0
  Pd  Pd25  1  0.25000000  0.50000000  0.95684000  1.0
  Pd  Pd26  1  0.75000000  0.25000000  0.87051000  1.0
  Pd  Pd27  1  0.75000000  0.75000000  0.87051000  1.0
  Pd  Pd28  1  0.23951000  0.49992000  0.12296000  1.0
  Pd  Pd29  1  0.21390000  0.00036000  0.13795000  1.0
  Pd  Pd30  1  0.74960000  0.75386000  0.04186000  1.0
  Pd  Pd31  1  0.74971000  0.24588000  0.04178000  1.0
  C  C32  1  0.04744000  0.00044000  0.19693000  1.0
  O  O33  1  0.92925000  0.99985000  0.23012000  1.0
