# generated using pymatgen
data_Li4Y4Sn4Pd4CO
_symmetry_space_group_name_H-M   'P 1'
_cell_length_a   6.77715000
_cell_length_b   6.77715000
_cell_length_c   25.08290000
_cell_angle_alpha   90.00000000
_cell_angle_beta   90.00000000
_cell_angle_gamma   90.00000000
_symmetry_Int_Tables_number   1
_chemical_formula_structural   Li4Y4Sn4Pd4CO
_chemical_formula_sum   'Li4 Y4 Sn4 Pd4 C1 O1'
_cell_volume   1152.05163034
_cell_formula_units_Z   1
loop_
 _symmetry_equiv_pos_site_id
 _symmetry_equiv_pos_as_xyz
  1  'x, y, z'
loop_
 _atom_site_type_symbol
 _atom_site_label
 _atom_site_symmetry_multiplicity
 _atom_site_fract_x
 _atom_site_fract_y
 _atom_site_fract_z
 _atom_site_occupancy
  Li  Li0  1  0.00000000  0.00000000  0.87931000  1.0
  Li  Li1  1  0.00000000  0.50000000  0.03377000  1.0
  Li  Li2  1  0.50000000  0.00000000  0.03377000  1.0
  Li  Li3  1  0.50000000  0.50000000  0.87981000  1.0
  Y  Y4  1  0.25071000  0.24909000  0.96631000  1.0
  Y  Y5  1  0.25000000  0.75000000  0.10132000  1.0
  Y  Y6  1  0.75000000  0.25000000  0.10132000  1.0
  Y  Y7  1  0.74929000  0.75091000  0.96631000  1.0
  Sn  Sn8  1  0.75410000  0.25407000  0.96108000  1.0
  Sn  Sn9  1  0.75000000  0.75000000  0.10132000  1.0
  Sn  Sn10  1  0.25000000  0.25000000  0.10132000  1.0
  Sn  Sn11  1  0.24590000  0.74593000  0.96108000  1.0
  Pd  Pd12  1  0.00000000  0.50000000  0.89788000  1.0
  Pd  Pd13  1  0.00000000  0.00000000  0.03377000  1.0
  Pd  Pd14  1  0.50000000  0.50000000  0.03377000  1.0
  Pd  Pd15  1  0.50000000  0.00000000  0.90788000  1.0
  C  C16  1  0.00000000  0.50000000  0.81997000  1.0
  O  O17  1  0.00000000  0.50000000  0.77368000  1.0
