# generated using pymatgen
data_Y4In4Cu4Sn4CO
_symmetry_space_group_name_H-M   Pm
_cell_length_a   6.24938000
_cell_length_b   9.14612000
_cell_length_c   24.68700000
_cell_angle_alpha   90.00000000
_cell_angle_beta   90.00000000
_cell_angle_gamma   90.00000000
_symmetry_Int_Tables_number   6
_chemical_formula_structural   Y4In4Cu4Sn4CO
_chemical_formula_sum   'Y4 In4 Cu4 Sn4 C1 O1'
_cell_volume   1411.04916279
_cell_formula_units_Z   1
loop_
 _symmetry_equiv_pos_site_id
 _symmetry_equiv_pos_as_xyz
  1  'x, y, z'
  2  'x, -y, z'
loop_
 _atom_site_type_symbol
 _atom_site_label
 _atom_site_symmetry_multiplicity
 _atom_site_fract_x
 _atom_site_fract_y
 _atom_site_fract_z
 _atom_site_occupancy
  Y  Y0  1  0.24947000  0.00000000  0.96836000  1.0
  Y  Y1  1  0.24947000  0.50000000  0.96836000  1.0
  Y  Y2  1  0.73113000  0.00000000  0.09419000  1.0
  Y  Y3  1  0.73905000  0.50000000  0.09359000  1.0
  In  In4  2  0.03117000  0.24841000  0.04189000  1.0
  In  In5  2  0.50000000  0.25000000  0.90507000  1.0
  Cu  Cu6  2  0.00000000  0.25000000  0.90507000  1.0
  Cu  Cu7  2  0.49370000  0.25410000  0.03227000  1.0
  Sn  Sn8  1  0.23893000  0.00000000  0.10899000  1.0
  Sn  Sn9  1  0.24682000  0.50000000  0.10499000  1.0
  Sn  Sn10  1  0.74947000  0.00000000  0.96836000  1.0
  Sn  Sn11  1  0.74947000  0.50000000  0.96836000  1.0
  C  C12  1  0.75121000  0.00000000  0.19557000  1.0
  O  O13  1  0.75787000  0.00000000  0.24199000  1.0
