# generated using pymatgen
data_Y8In8Cu8Pd8C
_symmetry_space_group_name_H-M   'P 1'
_cell_length_a   9.57344000
_cell_length_b   6.76944000
_cell_length_c   27.18010000
_cell_angle_alpha   90.00000000
_cell_angle_beta   90.00000000
_cell_angle_gamma   90.00000000
_symmetry_Int_Tables_number   1
_chemical_formula_structural   Y8In8Cu8Pd8C
_chemical_formula_sum   'Y8 In8 Cu8 Pd8 C1'
_cell_volume   1761.45605685
_cell_formula_units_Z   1
loop_
 _symmetry_equiv_pos_site_id
 _symmetry_equiv_pos_as_xyz
  1  'x, y, z'
loop_
 _atom_site_type_symbol
 _atom_site_label
 _atom_site_symmetry_multiplicity
 _atom_site_fract_x
 _atom_site_fract_y
 _atom_site_fract_z
 _atom_site_occupancy
  Y  Y0  1  0.75000000  0.75000000  0.04403000  1.0
  Y  Y1  1  0.25000000  0.75000000  0.04403000  1.0
  Y  Y2  1  0.00000000  0.25000000  0.13208000  1.0
  Y  Y3  1  0.50000000  0.25000000  0.13208000  1.0
  Y  Y4  1  0.26932000  0.73403000  0.86772000  1.0
  Y  Y5  1  0.73068000  0.73403000  0.86772000  1.0
  Y  Y6  1  0.50000000  0.25695000  0.95225000  1.0
  Y  Y7  1  0.00000000  0.24606000  0.95329000  1.0
  In  In8  1  0.75000000  0.25000000  0.04403000  1.0
  In  In9  1  0.25000000  0.25000000  0.04403000  1.0
  In  In10  1  0.00000000  0.75000000  0.13208000  1.0
  In  In11  1  0.50000000  0.75000000  0.13208000  1.0
  In  In12  1  0.24363000  0.23648000  0.86420000  1.0
  In  In13  1  0.75637000  0.23648000  0.86420000  1.0
  In  In14  1  0.50000000  0.75544000  0.95687000  1.0
  In  In15  1  0.00000000  0.74974000  0.95553000  1.0
  Cu  Cu16  1  0.75000000  0.00000000  0.13208000  1.0
  Cu  Cu17  1  0.25000000  0.00000000  0.13208000  1.0
  Cu  Cu18  1  0.50000000  0.50000000  0.04403000  1.0
  Cu  Cu19  1  0.00000000  0.50000000  0.04403000  1.0
  Cu  Cu20  1  0.25247000  0.99422000  0.95555000  1.0
  Cu  Cu21  1  0.74753000  0.99422000  0.95555000  1.0
  Cu  Cu22  1  0.00000000  0.53336000  0.86516000  1.0
  Cu  Cu23  1  0.50000000  0.42792000  0.85221000  1.0
  Pd  Pd24  1  0.00000000  0.00000000  0.04403000  1.0
  Pd  Pd25  1  0.50000000  1.00000000  0.04403000  1.0
  Pd  Pd26  1  0.25000000  0.50000000  0.13208000  1.0
  Pd  Pd27  1  0.75000000  0.50000000  0.13208000  1.0
  Pd  Pd28  1  0.50000000  0.01405000  0.86840000  1.0
  Pd  Pd29  1  0.00000000  0.94624000  0.86433000  1.0
  Pd  Pd30  1  0.74996000  0.50527000  0.95634000  1.0
  Pd  Pd31  1  0.25004000  0.50527000  0.95634000  1.0
  C  C32  1  0.00000000  0.25139000  0.86359000  1.0
