data_image0
_chemical_formula_structural       Fe12Ge4CO
_chemical_formula_sum              "Fe12 Ge4 C1 O1"
_cell_length_a       7.35757
_cell_length_b       5.20259
_cell_length_c       23.9019
_cell_angle_alpha    90
_cell_angle_beta     90
_cell_angle_gamma    90

_space_group_name_H-M_alt    "P 1"
_space_group_IT_number       1

loop_
  _space_group_symop_operation_xyz
  'x, y, z'

loop_
  _atom_site_type_symbol
  _atom_site_label
  _atom_site_symmetry_multiplicity
  _atom_site_fract_x
  _atom_site_fract_y
  _atom_site_fract_z
  _atom_site_occupancy
  Fe  Fe1       1.0  0.99988  0.49996  0.07662  1.0000
  Fe  Fe2       1.0  0.24986  0.75114  0.02787  1.0000
  Fe  Fe3       1.0  0.24985  0.24880  0.02787  1.0000
  Fe  Fe4       1.0  0.00000  0.00000  0.97279  1.0000
  Fe  Fe5       1.0  0.25000  0.25000  0.91838  1.0000
  Fe  Fe6       1.0  0.25000  0.75000  0.91838  1.0000
  Fe  Fe7       1.0  0.49993  0.49996  0.07644  1.0000
  Fe  Fe8       1.0  0.75000  0.75114  0.02786  1.0000
  Fe  Fe9       1.0  0.75000  0.24880  0.02786  1.0000
  Fe  Fe10      1.0  0.50000  0.00000  0.97279  1.0000
  Fe  Fe11      1.0  0.75000  0.25000  0.91838  1.0000
  Fe  Fe12      1.0  0.75000  0.75000  0.91838  1.0000
  Ge  Ge1       1.0  0.99985  0.99996  0.08216  1.0000
  Ge  Ge2       1.0  0.00000  0.50000  0.97279  1.0000
  Ge  Ge3       1.0  0.49989  0.99996  0.08243  1.0000
  Ge  Ge4       1.0  0.50000  0.50000  0.97279  1.0000
  C   C1        1.0  0.00415  0.00121  0.24998  1.0000
  O   O1        1.0  0.99893  0.99962  0.29744  1.0000
