# generated using pymatgen
data_Li4In8Ir4CO
_symmetry_space_group_name_H-M   'P 1'
_cell_length_a   6.57920000
_cell_length_b   6.57920000
_cell_length_c   24.93440000
_cell_angle_alpha   90.00000000
_cell_angle_beta   90.00000000
_cell_angle_gamma   90.00000000
_symmetry_Int_Tables_number   1
_chemical_formula_structural   Li4In8Ir4CO
_chemical_formula_sum   'Li4 In8 Ir4 C1 O1'
_cell_volume   1079.30726275
_cell_formula_units_Z   1
loop_
 _symmetry_equiv_pos_site_id
 _symmetry_equiv_pos_as_xyz
  1  'x, y, z'
loop_
 _atom_site_type_symbol
 _atom_site_label
 _atom_site_symmetry_multiplicity
 _atom_site_fract_x
 _atom_site_fract_y
 _atom_site_fract_z
 _atom_site_occupancy
  Li  Li0  1  0.00000000  0.00000000  0.90105000  1.0
  Li  Li1  1  0.50000000  0.50000000  0.90105000  1.0
  Li  Li2  1  0.51084000  0.98914000  0.03155000  1.0
  Li  Li3  1  0.98915000  0.51090000  0.03155000  1.0
  In  In4  1  0.25000000  0.25000000  0.96702000  1.0
  In  In5  1  0.75000000  0.75001000  0.11072000  1.0
  In  In6  1  0.75000000  0.25000000  0.96702000  1.0
  In  In7  1  0.25001000  0.75002000  0.10132000  1.0
  In  In8  1  0.75000000  0.75000000  0.96702000  1.0
  In  In9  1  0.24999000  0.25003000  0.09477000  1.0
  In  In10  1  0.25000000  0.75000000  0.96702000  1.0
  In  In11  1  0.75000000  0.25001000  0.10130000  1.0
  Ir  Ir12  1  0.99879000  0.99880000  0.03203000  1.0
  Ir  Ir13  1  0.50000000  0.00000000  0.90105000  1.0
  Ir  Ir14  1  1.00000000  0.50000000  0.90105000  1.0
  Ir  Ir15  1  0.50123000  0.50122000  0.03203000  1.0
  C  C16  1  0.24994000  0.24953000  0.22597000  1.0
  O  O17  1  0.25005000  0.25012000  0.27149000  1.0
