data_image0
_chemical_formula_structural       Al16Au16C
_chemical_formula_sum              "Al16 Au16 C1"
_cell_length_a       6.49845
_cell_length_b       9.19019
_cell_length_c       26.8926
_cell_angle_alpha    90
_cell_angle_beta     90
_cell_angle_gamma    90

_space_group_name_H-M_alt    "P 1"
_space_group_IT_number       1

loop_
  _space_group_symop_operation_xyz
  'x, y, z'

loop_
  _atom_site_type_symbol
  _atom_site_label
  _atom_site_symmetry_multiplicity
  _atom_site_fract_x
  _atom_site_fract_y
  _atom_site_fract_z
  _atom_site_occupancy
  Al  Al1       1.0  0.00000  0.00000  0.87185  1.0000
  Al  Al2       1.0  0.00000  0.25000  0.95728  1.0000
  Al  Al3       1.0  0.00000  0.00000  0.05156  1.0000
  Al  Al4       1.0  0.00000  0.22718  0.13912  1.0000
  Al  Al5       1.0  0.00000  0.50000  0.87185  1.0000
  Al  Al6       1.0  0.00000  0.75000  0.95728  1.0000
  Al  Al7       1.0  1.00000  0.50000  0.04908  1.0000
  Al  Al8       1.0  1.00000  0.77284  0.13913  1.0000
  Al  Al9       1.0  0.50000  0.00000  0.87185  1.0000
  Al  Al10      1.0  0.50000  0.25000  0.95728  1.0000
  Al  Al11      1.0  0.50000  0.00000  0.03875  1.0000
  Al  Al12      1.0  0.50000  0.27662  0.12874  1.0000
  Al  Al13      1.0  0.50000  0.50000  0.87185  1.0000
  Al  Al14      1.0  0.50000  0.75000  0.95728  1.0000
  Al  Al15      1.0  0.50000  0.50000  0.04704  1.0000
  Al  Al16      1.0  0.50000  0.72337  0.12874  1.0000
  Au  Au1       1.0  0.25000  0.25000  0.87185  1.0000
  Au  Au2       1.0  0.25000  0.00000  0.95728  1.0000
  Au  Au3       1.0  0.23952  0.25495  0.04247  1.0000
  Au  Au4       1.0  0.30233  0.99999  0.12518  1.0000
  Au  Au5       1.0  0.25000  0.75000  0.87185  1.0000
  Au  Au6       1.0  0.25000  0.50000  0.95728  1.0000
  Au  Au7       1.0  0.23952  0.74505  0.04247  1.0000
  Au  Au8       1.0  0.23022  0.50001  0.13760  1.0000
  Au  Au9       1.0  0.75000  0.25000  0.87185  1.0000
  Au  Au10      1.0  0.75000  0.00000  0.95728  1.0000
  Au  Au11      1.0  0.76048  0.25495  0.04247  1.0000
  Au  Au12      1.0  0.69767  0.99998  0.12518  1.0000
  Au  Au13      1.0  0.75000  0.75000  0.87185  1.0000
  Au  Au14      1.0  0.75000  0.50000  0.95728  1.0000
  Au  Au15      1.0  0.76048  0.74505  0.04247  1.0000
  Au  Au16      1.0  0.76978  0.49999  0.13760  1.0000
  C   C1        1.0  1.00000  0.00002  0.15069  1.0000
