# generated using pymatgen
data_Mg8Au8CO
_symmetry_space_group_name_H-M   Cm
_cell_length_a   9.43980482
_cell_length_b   9.43980482
_cell_length_c   25.00620000
_cell_angle_alpha   90.00000000
_cell_angle_beta   90.00000000
_cell_angle_gamma   90.00000000
_symmetry_Int_Tables_number   8
_chemical_formula_structural   Mg8Au8CO
_chemical_formula_sum   'Mg16 Au16 C2 O2'
_cell_volume   2228.30035660
_cell_formula_units_Z   2
loop_
 _symmetry_equiv_pos_site_id
 _symmetry_equiv_pos_as_xyz
  1  'x, y, z'
  2  'x, -y, z'
  3  'x+1/2, y+1/2, z'
  4  'x+1/2, -y+1/2, z'
loop_
 _atom_site_type_symbol
 _atom_site_label
 _atom_site_symmetry_multiplicity
 _atom_site_fract_x
 _atom_site_fract_y
 _atom_site_fract_z
 _atom_site_occupancy
  Mg  Mg0  4  0.25001000  0.24999000  0.92594000  1.0
  Mg  Mg1  4  0.25109500  0.24780500  0.06311000  1.0
  Mg  Mg2  2  0.00001000  0.00000000  0.92594000  1.0
  Mg  Mg3  2  0.00001000  0.50000000  0.92594000  1.0
  Mg  Mg4  2  0.49895000  0.00000000  0.06396000  1.0
  Mg  Mg5  2  0.49955000  0.50000000  0.06155000  1.0
  Au  Au6  4  0.00001000  0.25001000  0.99267000  1.0
  Au  Au7  4  0.00296000  0.24650000  0.12349000  1.0
  Au  Au8  2  0.23486500  0.00000000  0.12804000  1.0
  Au  Au9  2  0.24982000  0.50000000  0.12236000  1.0
  Au  Au10  2  0.25001000  0.00000000  0.99267000  1.0
  Au  Au11  2  0.25001000  0.50000000  0.99267000  1.0
  C  C12  2  0.28481000  0.00000000  0.22275000  1.0
  O  O13  2  0.21895000  0.00000000  0.26113000  1.0
