# generated using pymatgen
data_Li8Sc8Ge8Pd8C
_symmetry_space_group_name_H-M   'P 1'
_cell_length_a   8.92368000
_cell_length_b   6.30999000
_cell_length_c   26.69280000
_cell_angle_alpha   90.00000000
_cell_angle_beta   90.00000000
_cell_angle_gamma   90.00000000
_symmetry_Int_Tables_number   1
_chemical_formula_structural   Li8Sc8Ge8Pd8C
_chemical_formula_sum   'Li8 Sc8 Ge8 Pd8 C1'
_cell_volume   1503.02703275
_cell_formula_units_Z   1
loop_
 _symmetry_equiv_pos_site_id
 _symmetry_equiv_pos_as_xyz
  1  'x, y, z'
loop_
 _atom_site_type_symbol
 _atom_site_label
 _atom_site_symmetry_multiplicity
 _atom_site_fract_x
 _atom_site_fract_y
 _atom_site_fract_z
 _atom_site_occupancy
  Li  Li0  1  0.74998000  0.75000000  0.04179000  1.0
  Li  Li1  1  0.25002000  0.75000000  0.04179000  1.0
  Li  Li2  1  0.00000000  0.25000000  0.12537000  1.0
  Li  Li3  1  0.50000000  0.25000000  0.12537000  1.0
  Li  Li4  1  0.23578000  0.61131000  0.82252000  1.0
  Li  Li5  1  0.76422000  0.61131000  0.82252000  1.0
  Li  Li6  1  0.50000000  0.24260000  0.95452000  1.0
  Li  Li7  1  0.00000000  0.24042000  0.95404000  1.0
  Sc  Sc8  1  0.00000000  0.00000000  0.04179000  1.0
  Sc  Sc9  1  0.50000000  0.00000000  0.04179000  1.0
  Sc  Sc10  1  0.24998000  0.50000000  0.12537000  1.0
  Sc  Sc11  1  0.75002000  0.50000000  0.12537000  1.0
  Sc  Sc12  1  0.50000000  0.95439000  0.87562000  1.0
  Sc  Sc13  1  0.00000000  0.94209000  0.87405000  1.0
  Sc  Sc14  1  0.74744000  0.50588000  0.95258000  1.0
  Sc  Sc15  1  0.25256000  0.50588000  0.95258000  1.0
  Ge  Ge16  1  0.74998000  0.00000000  0.12537000  1.0
  Ge  Ge17  1  0.25002000  0.00000000  0.12537000  1.0
  Ge  Ge18  1  0.50000000  0.50000000  0.04179000  1.0
  Ge  Ge19  1  0.00000000  0.50000000  0.04179000  1.0
  Ge  Ge20  1  0.24981000  0.98735000  0.95725000  1.0
  Ge  Ge21  1  0.75019000  0.98735000  0.95725000  1.0
  Ge  Ge22  1  0.00000000  0.41461000  0.86051000  1.0
  Ge  Ge23  1  0.50000000  0.49464000  0.87240000  1.0
  Pd  Pd24  1  0.74998000  0.25000000  0.04179000  1.0
  Pd  Pd25  1  0.25002000  0.25000000  0.04179000  1.0
  Pd  Pd26  1  0.00000000  0.75000000  0.12537000  1.0
  Pd  Pd27  1  0.50000000  0.75000000  0.12537000  1.0
  Pd  Pd28  1  0.25919000  0.22938000  0.87851000  1.0
  Pd  Pd29  1  0.74081000  0.22938000  0.87851000  1.0
  Pd  Pd30  1  0.50000000  0.74410000  0.96104000  1.0
  Pd  Pd31  1  0.00000000  0.74640000  0.96270000  1.0
  C  C32  1  0.00000000  0.68143000  0.82860000  1.0
