data_image0
_chemical_formula_structural       K16
_chemical_formula_sum              "K16"
_cell_length_a       9.98137
_cell_length_b       9.98137
_cell_length_c       27.486
_cell_angle_alpha    90
_cell_angle_beta     90
_cell_angle_gamma    90

_space_group_name_H-M_alt    "P 1"
_space_group_IT_number       1

loop_
  _space_group_symop_operation_xyz
  'x, y, z'

loop_
  _atom_site_type_symbol
  _atom_site_label
  _atom_site_symmetry_multiplicity
  _atom_site_fract_x
  _atom_site_fract_y
  _atom_site_fract_z
  _atom_site_occupancy
  K   K1        1.0  0.00000  0.00000  0.86382  1.0000
  K   K2        1.0  0.25000  0.25000  0.95461  1.0000
  K   K3        1.0  0.99862  0.99894  0.06172  1.0000
  K   K4        1.0  0.25026  0.24953  0.16914  1.0000
  K   K5        1.0  0.00000  0.50000  0.86382  1.0000
  K   K6        1.0  0.25000  0.75000  0.95461  1.0000
  K   K7        1.0  0.99862  0.50160  0.06127  1.0000
  K   K8        1.0  0.25021  0.75028  0.17230  1.0000
  K   K9        1.0  0.50000  0.00000  0.86382  1.0000
  K   K10       1.0  0.75000  0.25000  0.95461  1.0000
  K   K11       1.0  0.50155  0.99870  0.06122  1.0000
  K   K12       1.0  0.74884  0.25112  0.17331  1.0000
  K   K13       1.0  0.50000  0.50000  0.86382  1.0000
  K   K14       1.0  0.75000  0.75000  0.95461  1.0000
  K   K15       1.0  0.50134  0.50092  0.06123  1.0000
  K   K16       1.0  0.75015  0.74828  0.17623  1.0000
