# generated using pymatgen
data_K
_symmetry_space_group_name_H-M   'P 1'
_cell_length_a   9.98137000
_cell_length_b   9.98137000
_cell_length_c   27.48600000
_cell_angle_alpha   90.00000000
_cell_angle_beta   90.00000000
_cell_angle_gamma   90.00000000
_symmetry_Int_Tables_number   1
_chemical_formula_structural   K
_chemical_formula_sum   K16
_cell_volume   2738.36825616
_cell_formula_units_Z   16
loop_
 _symmetry_equiv_pos_site_id
 _symmetry_equiv_pos_as_xyz
  1  'x, y, z'
loop_
 _atom_site_type_symbol
 _atom_site_label
 _atom_site_symmetry_multiplicity
 _atom_site_fract_x
 _atom_site_fract_y
 _atom_site_fract_z
 _atom_site_occupancy
  K  K0  1  0.00000000  0.00000000  0.86382000  1.0
  K  K1  1  0.25000000  0.25000000  0.95461000  1.0
  K  K2  1  0.99862000  0.99894000  0.06172000  1.0
  K  K3  1  0.25026000  0.24953000  0.16914000  1.0
  K  K4  1  0.00000000  0.50000000  0.86382000  1.0
  K  K5  1  0.25000000  0.75000000  0.95461000  1.0
  K  K6  1  0.99862000  0.50160000  0.06127000  1.0
  K  K7  1  0.25021000  0.75028000  0.17230000  1.0
  K  K8  1  0.50000000  0.00000000  0.86382000  1.0
  K  K9  1  0.75000000  0.25000000  0.95461000  1.0
  K  K10  1  0.50155000  0.99870000  0.06122000  1.0
  K  K11  1  0.74884000  0.25112000  0.17331000  1.0
  K  K12  1  0.50000000  0.50000000  0.86382000  1.0
  K  K13  1  0.75000000  0.75000000  0.95461000  1.0
  K  K14  1  0.50134000  0.50092000  0.06123000  1.0
  K  K15  1  0.75015000  0.74828000  0.17623000  1.0
