# generated using pymatgen
data_Li8Cu8Ag8Ge8C
_symmetry_space_group_name_H-M   P1
_cell_length_a   6.23049000
_cell_length_b   8.81124000
_cell_length_c   26.60840000
_cell_angle_alpha   90.00000000
_cell_angle_beta   90.00000000
_cell_angle_gamma   90.00000000
_symmetry_Int_Tables_number   1
_chemical_formula_structural   Li8Cu8Ag8Ge8C
_chemical_formula_sum   'Li8 Cu8 Ag8 Ge8 C1'
_cell_volume   1460.75706210
_cell_formula_units_Z   1
loop_
 _symmetry_equiv_pos_site_id
 _symmetry_equiv_pos_as_xyz
  1  'x, y, z'
loop_
 _atom_site_type_symbol
 _atom_site_label
 _atom_site_symmetry_multiplicity
 _atom_site_fract_x
 _atom_site_fract_y
 _atom_site_fract_z
 _atom_site_occupancy
  Li  Li0  1  0.25000000  0.00000000  0.95861000  1.0
  Li  Li1  1  0.25000000  0.50000000  0.95861000  1.0
  Li  Li2  1  0.25587000  0.49999000  0.13728000  1.0
  Li  Li3  1  0.25776000  0.00001000  0.12770000  1.0
  Li  Li4  1  0.74610000  0.25502000  0.03870000  1.0
  Li  Li5  1  0.74611000  0.74501000  0.03870000  1.0
  Li  Li6  1  0.75000000  0.25000000  0.87582000  1.0
  Li  Li7  1  0.75000000  0.75000000  0.87582000  1.0
  Cu  Cu8  1  0.00000000  0.25000000  0.95861000  1.0
  Cu  Cu9  1  0.00000000  0.75000000  0.95861000  1.0
  Cu  Cu10  1  0.50000000  0.00000000  0.87582000  1.0
  Cu  Cu11  1  0.50000000  0.50000000  0.87582000  1.0
  Cu  Cu12  1  0.50237000  0.50001000  0.05489000  1.0
  Cu  Cu13  1  0.51468000  0.00005000  0.04369000  1.0
  Cu  Cu14  1  0.99872000  0.26082000  0.11720000  1.0
  Cu  Cu15  1  0.99874000  0.73918000  0.11721000  1.0
  Ag  Ag16  1  0.00000000  0.00000000  0.87582000  1.0
  Ag  Ag17  1  0.00000000  0.50000000  0.87582000  1.0
  Ag  Ag18  1  0.50000000  0.25000000  0.95861000  1.0
  Ag  Ag19  1  0.50000000  0.75000000  0.95861000  1.0
  Ag  Ag20  1  0.54056000  0.74535000  0.12836000  1.0
  Ag  Ag21  1  0.54059000  0.25464000  0.12837000  1.0
  Ag  Ag22  1  0.99832000  0.00002000  0.04390000  1.0
  Ag  Ag23  1  0.99849000  0.50000000  0.04364000  1.0
  Ge  Ge24  1  0.25000000  0.25000000  0.87582000  1.0
  Ge  Ge25  1  0.25000000  0.75000000  0.87582000  1.0
  Ge  Ge26  1  0.25774000  0.74888000  0.04481000  1.0
  Ge  Ge27  1  0.25779000  0.25113000  0.04482000  1.0
  Ge  Ge28  1  0.75000000  0.00000000  0.95861000  1.0
  Ge  Ge29  1  0.75000000  0.50000000  0.95861000  1.0
  Ge  Ge30  1  0.78242000  0.50000000  0.13499000  1.0
  Ge  Ge31  1  0.85545000  0.00002000  0.14747000  1.0
  C  C32  1  0.58741000  0.99998000  0.11577000  1.0
