# generated using pymatgen
data_Li4Al4Cu4Ge4C
_symmetry_space_group_name_H-M   Pm
_cell_length_a   5.50126000
_cell_length_b   7.61632000
_cell_length_c   24.12590000
_cell_angle_alpha   90.00000000
_cell_angle_beta   90.00000000
_cell_angle_gamma   90.00000000
_symmetry_Int_Tables_number   6
_chemical_formula_structural   Li4Al4Cu4Ge4C
_chemical_formula_sum   'Li4 Al4 Cu4 Ge4 C1'
_cell_volume   1010.85968651
_cell_formula_units_Z   1
loop_
 _symmetry_equiv_pos_site_id
 _symmetry_equiv_pos_as_xyz
  1  'x, y, z'
  2  'x, -y, z'
loop_
 _atom_site_type_symbol
 _atom_site_label
 _atom_site_symmetry_multiplicity
 _atom_site_fract_x
 _atom_site_fract_y
 _atom_site_fract_z
 _atom_site_occupancy
  Li  Li0  2  0.00075000  0.25000000  0.02850000  1.0
  Li  Li1  2  0.53492000  0.30809000  0.89530000  1.0
  Al  Al2  2  0.05861000  0.29531000  0.91409000  1.0
  Al  Al3  2  0.50075000  0.25000000  0.02850000  1.0
  Cu  Cu4  1  0.25938000  0.00000000  0.96432000  1.0
  Cu  Cu5  1  0.28684000  0.50000000  0.98021000  1.0
  Cu  Cu6  1  0.75113000  0.00000000  0.08551000  1.0
  Cu  Cu7  1  0.75113000  0.50000000  0.08551000  1.0
  Ge  Ge8  1  0.25113000  0.00000000  0.08551000  1.0
  Ge  Ge9  1  0.25113000  0.50000000  0.08551000  1.0
  Ge  Ge10  1  0.74727000  0.00000000  0.95634000  1.0
  Ge  Ge11  1  0.76679000  0.50000000  0.97535000  1.0
  C  C12  1  0.25869000  0.50000000  0.89253000  1.0
