data_image0
_chemical_formula_structural       Nb4Al4Ni8Nb4Al4Ni8C
_chemical_formula_sum              "Nb8 Al8 Ni16 C1"
_cell_length_a       6.00915
_cell_length_b       8.49821
_cell_length_c       26.3737
_cell_angle_alpha    90
_cell_angle_beta     90
_cell_angle_gamma    90

_space_group_name_H-M_alt    "P 1"
_space_group_IT_number       1

loop_
  _space_group_symop_operation_xyz
  'x, y, z'

loop_
  _atom_site_type_symbol
  _atom_site_label
  _atom_site_symmetry_multiplicity
  _atom_site_fract_x
  _atom_site_fract_y
  _atom_site_fract_z
  _atom_site_occupancy
  Nb  Nb1       1.0  0.00000  0.00000  0.87917  1.0000
  Nb  Nb2       1.0  0.50000  0.25000  0.95972  1.0000
  Nb  Nb3       1.0  0.50000  0.75000  0.95972  1.0000
  Nb  Nb4       1.0  0.00000  0.50000  0.87917  1.0000
  Al  Al1       1.0  0.00000  0.75000  0.95972  1.0000
  Al  Al2       1.0  0.50000  0.00000  0.87917  1.0000
  Al  Al3       1.0  0.00000  0.25000  0.95972  1.0000
  Al  Al4       1.0  0.50000  0.50000  0.87917  1.0000
  Ni  Ni1       1.0  0.25000  0.00000  0.95972  1.0000
  Ni  Ni2       1.0  0.75000  0.50000  0.95972  1.0000
  Ni  Ni3       1.0  0.75000  0.00000  0.95972  1.0000
  Ni  Ni4       1.0  0.25000  0.50000  0.95972  1.0000
  Ni  Ni5       1.0  0.75000  0.75000  0.87917  1.0000
  Ni  Ni6       1.0  0.25000  0.25000  0.87917  1.0000
  Ni  Ni7       1.0  0.25000  0.75000  0.87917  1.0000
  Ni  Ni8       1.0  0.75000  0.25000  0.87917  1.0000
  Nb  Nb5       1.0  0.00000  0.50000  0.04028  1.0000
  Nb  Nb6       1.0  0.50000  0.75000  0.12083  1.0000
  Nb  Nb7       1.0  0.50000  0.25000  0.12083  1.0000
  Nb  Nb8       1.0  0.00000  0.00000  0.04028  1.0000
  Al  Al5       1.0  0.00000  0.25000  0.12083  1.0000
  Al  Al6       1.0  0.50000  0.50000  0.04028  1.0000
  Al  Al7       1.0  0.00000  0.75000  0.12083  1.0000
  Al  Al8       1.0  0.50000  0.00000  0.04028  1.0000
  Ni  Ni9       1.0  0.25000  0.50000  0.12083  1.0000
  Ni  Ni10      1.0  0.75000  0.00000  0.12083  1.0000
  Ni  Ni11      1.0  0.75000  0.50000  0.12083  1.0000
  Ni  Ni12      1.0  0.25000  0.00000  0.12083  1.0000
  Ni  Ni13      1.0  0.75000  0.25000  0.04028  1.0000
  Ni  Ni14      1.0  0.25000  0.75000  0.04028  1.0000
  Ni  Ni15      1.0  0.25000  0.25000  0.04028  1.0000
  Ni  Ni16      1.0  0.75000  0.75000  0.04028  1.0000
  C   C1        1.0  0.50000  0.00000  0.15117  1.0000
