# generated using pymatgen
data_LiYGePb
_symmetry_space_group_name_H-M   'P 1'
_cell_length_a   8.65500000
_cell_length_b   9.86128000
_cell_length_c   26.41550000
_cell_angle_alpha   90.00000000
_cell_angle_beta   90.00000000
_cell_angle_gamma   90.00000000
_symmetry_Int_Tables_number   1
_chemical_formula_structural   LiYGePb
_chemical_formula_sum   'Li8 Y8 Ge8 Pb8'
_cell_volume   2254.54650513
_cell_formula_units_Z   8
loop_
 _symmetry_equiv_pos_site_id
 _symmetry_equiv_pos_as_xyz
  1  'x, y, z'
loop_
 _atom_site_type_symbol
 _atom_site_label
 _atom_site_symmetry_multiplicity
 _atom_site_fract_x
 _atom_site_fract_y
 _atom_site_fract_z
 _atom_site_occupancy
  Li  Li0  1  0.99993000  0.24082000  0.05810000  1.0
  Li  Li1  1  0.00000000  0.25000000  0.87856000  1.0
  Li  Li2  1  0.99983000  0.73948000  0.05753000  1.0
  Li  Li3  1  0.00000000  0.75000000  0.87856000  1.0
  Li  Li4  1  0.50007000  0.23909000  0.06001000  1.0
  Li  Li5  1  0.50000000  0.25000000  0.87856000  1.0
  Li  Li6  1  0.50019000  0.73893000  0.05675000  1.0
  Li  Li7  1  0.50000000  0.75000000  0.87856000  1.0
  Y  Y8  1  0.24985000  0.99758000  0.03888000  1.0
  Y  Y9  1  0.25000000  0.00000000  0.87856000  1.0
  Y  Y10  1  0.25032000  0.49798000  0.03924000  1.0
  Y  Y11  1  0.25000000  0.50000000  0.87856000  1.0
  Y  Y12  1  0.75017000  0.99786000  0.03895000  1.0
  Y  Y13  1  0.75000000  0.00000000  0.87856000  1.0
  Y  Y14  1  0.74971000  0.49763000  0.03909000  1.0
  Y  Y15  1  0.75000000  0.50000000  0.87856000  1.0
  Ge  Ge16  1  0.00041000  0.97150000  0.11163000  1.0
  Ge  Ge17  1  0.00000000  0.00000000  0.95952000  1.0
  Ge  Ge18  1  0.99944000  0.47542000  0.11217000  1.0
  Ge  Ge19  1  0.00000000  0.50000000  0.95952000  1.0
  Ge  Ge20  1  0.49949000  0.97068000  0.11137000  1.0
  Ge  Ge21  1  0.50000000  0.00000000  0.95952000  1.0
  Ge  Ge22  1  0.50085000  0.47545000  0.11257000  1.0
  Ge  Ge23  1  0.50000000  0.50000000  0.95952000  1.0
  Pb  Pb24  1  0.24950000  0.31240000  0.15232000  1.0
  Pb  Pb25  1  0.25000000  0.25000000  0.95952000  1.0
  Pb  Pb26  1  0.25010000  0.80592000  0.15130000  1.0
  Pb  Pb27  1  0.25000000  0.75000000  0.95952000  1.0
  Pb  Pb28  1  0.75072000  0.30961000  0.15200000  1.0
  Pb  Pb29  1  0.75000000  0.25000000  0.95952000  1.0
  Pb  Pb30  1  0.74984000  0.80718000  0.15144000  1.0
  Pb  Pb31  1  0.75000000  0.75000000  0.95952000  1.0
