# generated using pymatgen
data_V4Ga4Ni8CO
_symmetry_space_group_name_H-M   'P 1'
_cell_length_a   5.82350000
_cell_length_b   5.82350000
_cell_length_c   24.36760000
_cell_angle_alpha   90.00000000
_cell_angle_beta   90.00000000
_cell_angle_gamma   90.00000000
_symmetry_Int_Tables_number   1
_chemical_formula_structural   V4Ga4Ni8CO
_chemical_formula_sum   'V4 Ga4 Ni8 C1 O1'
_cell_volume   826.38212877
_cell_formula_units_Z   1
loop_
 _symmetry_equiv_pos_site_id
 _symmetry_equiv_pos_as_xyz
  1  'x, y, z'
loop_
 _atom_site_type_symbol
 _atom_site_label
 _atom_site_symmetry_multiplicity
 _atom_site_fract_x
 _atom_site_fract_y
 _atom_site_fract_z
 _atom_site_occupancy
  V  V0  1  0.00000000  0.00000000  0.91038000  1.0
  V  V1  1  0.50000000  0.50000000  0.91038000  1.0
  V  V2  1  0.50348000  0.99653000  0.03306000  1.0
  V  V3  1  0.99675000  0.50319000  0.03293000  1.0
  Ga  Ga4  1  0.00096000  0.00077000  0.03177000  1.0
  Ga  Ga5  1  0.50000000  0.00000000  0.91038000  1.0
  Ga  Ga6  1  0.00000000  0.50000000  0.91038000  1.0
  Ga  Ga7  1  0.49917000  0.49904000  0.03180000  1.0
  Ni  Ni8  1  0.25000000  0.25000000  0.97013000  1.0
  Ni  Ni9  1  0.75021000  0.74989000  0.08749000  1.0
  Ni  Ni10  1  0.75000000  0.25000000  0.97013000  1.0
  Ni  Ni11  1  0.24976000  0.74976000  0.08703000  1.0
  Ni  Ni12  1  0.75000000  0.75000000  0.97013000  1.0
  Ni  Ni13  1  0.25000000  0.25000000  0.09169000  1.0
  Ni  Ni14  1  0.25000000  0.75000000  0.97013000  1.0
  Ni  Ni15  1  0.75036000  0.25030000  0.08705000  1.0
  C  C16  1  0.24991000  0.25005000  0.16486000  1.0
  O  O17  1  0.24976000  0.25021000  0.21215000  1.0
