# generated using pymatgen
data_Sc8In8Ge8Pd8CO
_symmetry_space_group_name_H-M   'P 1'
_cell_length_a   8.38060000
_cell_length_b   9.28368000
_cell_length_c   25.82430000
_cell_angle_alpha   90.00000000
_cell_angle_beta   90.00000000
_cell_angle_gamma   90.00000000
_symmetry_Int_Tables_number   1
_chemical_formula_structural   Sc8In8Ge8Pd8CO
_chemical_formula_sum   'Sc8 In8 Ge8 Pd8 C1 O1'
_cell_volume   2009.20307034
_cell_formula_units_Z   1
loop_
 _symmetry_equiv_pos_site_id
 _symmetry_equiv_pos_as_xyz
  1  'x, y, z'
loop_
 _atom_site_type_symbol
 _atom_site_label
 _atom_site_symmetry_multiplicity
 _atom_site_fract_x
 _atom_site_fract_y
 _atom_site_fract_z
 _atom_site_occupancy
  Sc  Sc0  1  0.75000000  0.00000000  0.96241000  1.0
  Sc  Sc1  1  0.75033000  0.00088000  0.10884000  1.0
  Sc  Sc2  1  0.75000000  0.50000000  0.96241000  1.0
  Sc  Sc3  1  0.75033000  0.49931000  0.10876000  1.0
  Sc  Sc4  1  0.25000000  0.00000000  0.96241000  1.0
  Sc  Sc5  1  0.24979000  0.00088000  0.10880000  1.0
  Sc  Sc6  1  0.25000000  0.50000000  0.96241000  1.0
  Sc  Sc7  1  0.24970000  0.49931000  0.10884000  1.0
  In  In8  1  0.00000000  0.75000000  0.96241000  1.0
  In  In9  1  0.00003000  0.75010000  0.11421000  1.0
  In  In10  1  0.00000000  0.25000000  0.96241000  1.0
  In  In11  1  0.99997000  0.24999000  0.12499000  1.0
  In  In12  1  0.50000000  0.75000000  0.96241000  1.0
  In  In13  1  0.49995000  0.74998000  0.12585000  1.0
  In  In14  1  0.50000000  0.25000000  0.96241000  1.0
  In  In15  1  0.50000000  0.25008000  0.11546000  1.0
  Ge  Ge16  1  0.00000000  0.00000000  0.88723000  1.0
  Ge  Ge17  1  0.00002000  0.01328000  0.04054000  1.0
  Ge  Ge18  1  0.00000000  0.50000000  0.88723000  1.0
  Ge  Ge19  1  0.00001000  0.48682000  0.04046000  1.0
  Ge  Ge20  1  0.50000000  0.00000000  0.88723000  1.0
  Ge  Ge21  1  0.49984000  0.98537000  0.03989000  1.0
  Ge  Ge22  1  0.50000000  0.50000000  0.88723000  1.0
  Ge  Ge23  1  0.50001000  0.51497000  0.03984000  1.0
  Pd  Pd24  1  0.75000000  0.75000000  0.88723000  1.0
  Pd  Pd25  1  0.73811000  0.75006000  0.04082000  1.0
  Pd  Pd26  1  0.75000000  0.25000000  0.88723000  1.0
  Pd  Pd27  1  0.76113000  0.24996000  0.04219000  1.0
  Pd  Pd28  1  0.25000000  0.75000000  0.88723000  1.0
  Pd  Pd29  1  0.26187000  0.75005000  0.04082000  1.0
  Pd  Pd30  1  0.25000000  0.25000000  0.88723000  1.0
  Pd  Pd31  1  0.23888000  0.24998000  0.04219000  1.0
  C  C32  1  0.99976000  0.74686000  0.28395000  1.0
  O  O33  1  0.00010000  0.75088000  0.32787000  1.0
