# generated using pymatgen
data_In8Fe8Co16CO
_symmetry_space_group_name_H-M   'P 1'
_cell_length_a   8.51164000
_cell_length_b   6.01864000
_cell_length_c   26.38370000
_cell_angle_alpha   90.00000000
_cell_angle_beta   90.00000000
_cell_angle_gamma   90.00000000
_symmetry_Int_Tables_number   1
_chemical_formula_structural   In8Fe8Co16CO
_chemical_formula_sum   'In8 Fe8 Co16 C1 O1'
_cell_volume   1351.59729550
_cell_formula_units_Z   1
loop_
 _symmetry_equiv_pos_site_id
 _symmetry_equiv_pos_as_xyz
  1  'x, y, z'
loop_
 _atom_site_type_symbol
 _atom_site_label
 _atom_site_symmetry_multiplicity
 _atom_site_fract_x
 _atom_site_fract_y
 _atom_site_fract_z
 _atom_site_occupancy
  In  In0  1  0.50000000  0.00000000  0.12098000  1.0
  In  In1  1  0.75001000  0.50000000  0.04033000  1.0
  In  In2  1  0.24999000  0.50000000  0.04033000  1.0
  In  In3  1  0.00000000  0.00000000  0.12098000  1.0
  In  In4  1  0.00000000  0.00048000  0.96170000  1.0
  In  In5  1  0.25445000  0.49938000  0.86378000  1.0
  In  In6  1  0.74555000  0.49938000  0.86378000  1.0
  In  In7  1  0.50000000  0.00624000  0.96147000  1.0
  Fe  Fe8  1  0.25001000  0.00000000  0.04033000  1.0
  Fe  Fe9  1  0.50000000  0.50000000  0.12098000  1.0
  Fe  Fe10  1  0.74999000  0.00000000  0.04033000  1.0
  Fe  Fe11  1  0.00000000  0.50000000  0.12098000  1.0
  Fe  Fe12  1  0.75683000  0.99891000  0.88454000  1.0
  Fe  Fe13  1  0.00000000  0.50331000  0.95850000  1.0
  Fe  Fe14  1  0.24317000  0.99891000  0.88454000  1.0
  Fe  Fe15  1  0.50000000  0.50437000  0.95717000  1.0
  Co  Co16  1  0.50000000  0.25000000  0.04033000  1.0
  Co  Co17  1  0.00000000  0.75000000  0.04033000  1.0
  Co  Co18  1  0.50000000  0.75000000  0.04033000  1.0
  Co  Co19  1  0.00000000  0.25000000  0.04033000  1.0
  Co  Co20  1  0.25001000  0.75000000  0.12098000  1.0
  Co  Co21  1  0.75001000  0.25000000  0.12098000  1.0
  Co  Co22  1  0.24999000  0.25000000  0.12098000  1.0
  Co  Co23  1  0.74999000  0.75000000  0.12098000  1.0
  Co  Co24  1  0.00000000  0.25479000  0.88319000  1.0
  Co  Co25  1  0.50000000  0.75851000  0.88237000  1.0
  Co  Co26  1  0.00000000  0.74916000  0.88276000  1.0
  Co  Co27  1  0.50000000  0.23090000  0.87667000  1.0
  Co  Co28  1  0.74816000  0.74074000  0.95590000  1.0
  Co  Co29  1  0.24923000  0.26603000  0.95537000  1.0
  Co  Co30  1  0.75077000  0.26603000  0.95537000  1.0
  Co  Co31  1  0.25184000  0.74074000  0.95590000  1.0
  C  C32  1  0.50000000  0.12801000  0.81484000  1.0
  O  O33  1  0.50000000  0.06648000  0.77282000  1.0
