# generated using pymatgen
data_In8Fe8Co16CO
_symmetry_space_group_name_H-M   Pm
_cell_length_a   6.01864000
_cell_length_b   8.51164000
_cell_length_c   26.38370000
_cell_angle_alpha   90.00000000
_cell_angle_beta   90.00000000
_cell_angle_gamma   90.00000000
_symmetry_Int_Tables_number   6
_chemical_formula_structural   In8Fe8Co16CO
_chemical_formula_sum   'In8 Fe8 Co16 C1 O1'
_cell_volume   1351.59729550
_cell_formula_units_Z   1
loop_
 _symmetry_equiv_pos_site_id
 _symmetry_equiv_pos_as_xyz
  1  'x, y, z'
  2  'x, -y, z'
loop_
 _atom_site_type_symbol
 _atom_site_label
 _atom_site_symmetry_multiplicity
 _atom_site_fract_x
 _atom_site_fract_y
 _atom_site_fract_z
 _atom_site_occupancy
  In  In0  2  0.49938000  0.25445000  0.13622000  1.0
  In  In1  2  0.50000000  0.24999000  0.95967000  1.0
  In  In2  1  0.00000000  0.00000000  0.87902000  1.0
  In  In3  1  0.00000000  0.50000000  0.87902000  1.0
  In  In4  1  0.00048000  0.00000000  0.03830000  1.0
  In  In5  1  0.00624000  0.50000000  0.03853000  1.0
  Fe  Fe6  2  0.00000000  0.25001000  0.95967000  1.0
  Fe  Fe7  2  0.99891000  0.24317000  0.11546000  1.0
  Fe  Fe8  1  0.50000000  0.00000000  0.87902000  1.0
  Fe  Fe9  1  0.50000000  0.50000000  0.87902000  1.0
  Fe  Fe10  1  0.50331000  0.00000000  0.04150000  1.0
  Fe  Fe11  1  0.50437000  0.50000000  0.04283000  1.0
  Co  Co12  2  0.25000000  0.24999000  0.87902000  1.0
  Co  Co13  2  0.26603000  0.24923000  0.04463000  1.0
  Co  Co14  2  0.74074000  0.25184000  0.04410000  1.0
  Co  Co15  2  0.75000000  0.25001000  0.87902000  1.0
  Co  Co16  1  0.23090000  0.50000000  0.12333000  1.0
  Co  Co17  1  0.25000000  0.00000000  0.95967000  1.0
  Co  Co18  1  0.25000000  0.50000000  0.95967000  1.0
  Co  Co19  1  0.25479000  0.00000000  0.11681000  1.0
  Co  Co20  1  0.74916000  0.00000000  0.11724000  1.0
  Co  Co21  1  0.75000000  0.00000000  0.95967000  1.0
  Co  Co22  1  0.75000000  0.50000000  0.95967000  1.0
  Co  Co23  1  0.75851000  0.50000000  0.11763000  1.0
  C  C24  1  0.12801000  0.50000000  0.18516000  1.0
  O  O25  1  0.06648000  0.50000000  0.22718000  1.0
