# generated using pymatgen
data_Li8Y8In8Au8C
_symmetry_space_group_name_H-M   P1
_cell_length_a   6.89380000
_cell_length_b   9.74930000
_cell_length_c   27.31200000
_cell_angle_alpha   90.00000000
_cell_angle_beta   90.00000000
_cell_angle_gamma   90.00000000
_symmetry_Int_Tables_number   1
_chemical_formula_structural   Li8Y8In8Au8C
_chemical_formula_sum   'Li8 Y8 In8 Au8 C1'
_cell_volume   1835.63199117
_cell_formula_units_Z   1
loop_
 _symmetry_equiv_pos_site_id
 _symmetry_equiv_pos_as_xyz
  1  'x, y, z'
loop_
 _atom_site_type_symbol
 _atom_site_label
 _atom_site_symmetry_multiplicity
 _atom_site_fract_x
 _atom_site_fract_y
 _atom_site_fract_z
 _atom_site_occupancy
  Li  Li0  1  0.00000000  0.25000000  0.95538000  1.0
  Li  Li1  1  0.00000000  0.75000000  0.95538000  1.0
  Li  Li2  1  0.15576000  0.26922000  0.19698000  1.0
  Li  Li3  1  0.16270000  0.73070000  0.19845000  1.0
  Li  Li4  1  0.46005000  0.49994000  0.04913000  1.0
  Li  Li5  1  0.50000000  0.00000000  0.86614000  1.0
  Li  Li6  1  0.50000000  0.50000000  0.86614000  1.0
  Li  Li7  1  0.52630000  0.00048000  0.03282000  1.0
  Y  Y8  1  0.24716000  0.21567000  0.05702000  1.0
  Y  Y9  1  0.24771000  0.78446000  0.05679000  1.0
  Y  Y10  1  0.25000000  0.25000000  0.86614000  1.0
  Y  Y11  1  0.25000000  0.75000000  0.86614000  1.0
  Y  Y12  1  0.63703000  0.00067000  0.13314000  1.0
  Y  Y13  1  0.75000000  0.00000000  0.95538000  1.0
  Y  Y14  1  0.75000000  0.50000000  0.95538000  1.0
  Y  Y15  1  0.77357000  0.50074000  0.13350000  1.0
  In  In16  1  0.13773000  0.99900000  0.15299000  1.0
  In  In17  1  0.21938000  0.50059000  0.13946000  1.0
  In  In18  1  0.25000000  0.00000000  0.95538000  1.0
  In  In19  1  0.25000000  0.50000000  0.95538000  1.0
  In  In20  1  0.74314000  0.73577000  0.04725000  1.0
  In  In21  1  0.74339000  0.26473000  0.04729000  1.0
  In  In22  1  0.75000000  0.25000000  0.86614000  1.0
  In  In23  1  0.75000000  0.75000000  0.86614000  1.0
  Au  Au24  1  0.00000000  0.00000000  0.86614000  1.0
  Au  Au25  1  0.00000000  0.50000000  0.86614000  1.0
  Au  Au26  1  0.02357000  0.50043000  0.04336000  1.0
  Au  Au27  1  0.49730000  0.28076000  0.14672000  1.0
  Au  Au28  1  0.49755000  0.72077000  0.14687000  1.0
  Au  Au29  1  0.50000000  0.25000000  0.95538000  1.0
  Au  Au30  1  0.50000000  0.75000000  0.95538000  1.0
  Au  Au31  1  0.93220000  0.00001000  0.04942000  1.0
  C  C32  1  0.35098000  0.00021000  0.08892000  1.0
