# generated using pymatgen
data_Li8Al8Ag8Sn8CO
_symmetry_space_group_name_H-M   Pmm2
_cell_length_a   8.16098000
_cell_length_b   8.66686000
_cell_length_c   26.42010000
_cell_angle_alpha   90.00000000
_cell_angle_beta   90.00000000
_cell_angle_gamma   90.00000000
_symmetry_Int_Tables_number   25
_chemical_formula_structural   Li8Al8Ag8Sn8CO
_chemical_formula_sum   'Li8 Al8 Ag8 Sn8 C1 O1'
_cell_volume   1868.69555207
_cell_formula_units_Z   1
loop_
 _symmetry_equiv_pos_site_id
 _symmetry_equiv_pos_as_xyz
  1  'x, y, z'
  2  '-x, -y, z'
  3  '-x, y, z'
  4  'x, -y, z'
loop_
 _atom_site_type_symbol
 _atom_site_label
 _atom_site_symmetry_multiplicity
 _atom_site_fract_x
 _atom_site_fract_y
 _atom_site_fract_z
 _atom_site_occupancy
  Li  Li0  1  0.00000000  0.00000000  0.04050000  1.0
  Li  Li1  1  0.00000000  0.00000000  0.87934000  1.0
  Li  Li2  1  0.00000000  0.50000000  0.04050000  1.0
  Li  Li3  1  0.00000000  0.50000000  0.88274000  1.0
  Li  Li4  1  0.50000000  0.00000000  0.04050000  1.0
  Li  Li5  1  0.50000000  0.00000000  0.88270000  1.0
  Li  Li6  1  0.50000000  0.50000000  0.04050000  1.0
  Li  Li7  1  0.50000000  0.50000000  0.88292000  1.0
  Al  Al8  2  0.00000000  0.24881000  0.95811000  1.0
  Al  Al9  2  0.00000000  0.24999000  0.12150000  1.0
  Al  Al10  2  0.50000000  0.24995000  0.95888000  1.0
  Al  Al11  2  0.50000000  0.24999000  0.12150000  1.0
  Ag  Ag12  2  0.24762000  0.00000000  0.95717000  1.0
  Ag  Ag13  2  0.24964000  0.50000000  0.95912000  1.0
  Ag  Ag14  2  0.25000000  0.00000000  0.12150000  1.0
  Ag  Ag15  2  0.25000000  0.50000000  0.12150000  1.0
  Sn  Sn16  4  0.25000000  0.24999000  0.04050000  1.0
  Sn  Sn17  4  0.25346000  0.25365000  0.87808000  1.0
  C  C18  1  0.00000000  0.00000000  0.79953000  1.0
  O  O19  1  0.00000000  0.00000000  0.75631000  1.0
