# generated using pymatgen
data_Sc4Ga4Ge4Pd4CO
_symmetry_space_group_name_H-M   P1
_cell_length_a   5.81182000
_cell_length_b   8.08666000
_cell_length_c   24.34090000
_cell_angle_alpha   90.00000000
_cell_angle_beta   90.00000000
_cell_angle_gamma   90.00000000
_symmetry_Int_Tables_number   1
_chemical_formula_structural   Sc4Ga4Ge4Pd4CO
_chemical_formula_sum   'Sc4 Ga4 Ge4 Pd4 C1 O1'
_cell_volume   1143.97878629
_cell_formula_units_Z   1
loop_
 _symmetry_equiv_pos_site_id
 _symmetry_equiv_pos_as_xyz
  1  'x, y, z'
loop_
 _atom_site_type_symbol
 _atom_site_label
 _atom_site_symmetry_multiplicity
 _atom_site_fract_x
 _atom_site_fract_y
 _atom_site_fract_z
 _atom_site_occupancy
  Sc  Sc0  1  0.18191000  0.25000000  0.91083000  1.0
  Sc  Sc1  1  0.18191000  0.75000000  0.91083000  1.0
  Sc  Sc2  1  0.72034000  0.74638000  0.02700000  1.0
  Sc  Sc3  1  0.72036000  0.25367000  0.02695000  1.0
  Ga  Ga4  1  0.00226000  0.50006000  0.08476000  1.0
  Ga  Ga5  1  0.00393000  0.99999000  0.08374000  1.0
  Ga  Ga6  1  0.45461000  0.00000000  0.97028000  1.0
  Ga  Ga7  1  0.45461000  0.50000000  0.97028000  1.0
  Ge  Ge8  1  0.46151000  0.50001000  0.08299000  1.0
  Ge  Ge9  1  0.46972000  0.00002000  0.07842000  1.0
  Ge  Ge10  1  0.95461000  0.00000000  0.97028000  1.0
  Ge  Ge11  1  0.95461000  0.50000000  0.97028000  1.0
  Pd  Pd12  1  0.21694000  0.25080000  0.03409000  1.0
  Pd  Pd13  1  0.21706000  0.74920000  0.03414000  1.0
  Pd  Pd14  1  0.68191000  0.25000000  0.91083000  1.0
  Pd  Pd15  1  0.68191000  0.75000000  0.91083000  1.0
  C  C16  1  0.55402000  0.99997000  0.20370000  1.0
  O  O17  1  0.39175000  0.99998000  0.22995000  1.0
