# generated using pymatgen
data_In4Ag12C
_symmetry_space_group_name_H-M   'P 1'
_cell_length_a   8.59601000
_cell_length_b   6.07830000
_cell_length_c   24.55870000
_cell_angle_alpha   90.00000000
_cell_angle_beta   90.00000000
_cell_angle_gamma   90.00000000
_symmetry_Int_Tables_number   1
_chemical_formula_structural   In4Ag12C
_chemical_formula_sum   'In4 Ag12 C1'
_cell_volume   1283.17064957
_cell_formula_units_Z   1
loop_
 _symmetry_equiv_pos_site_id
 _symmetry_equiv_pos_as_xyz
  1  'x, y, z'
loop_
 _atom_site_type_symbol
 _atom_site_label
 _atom_site_symmetry_multiplicity
 _atom_site_fract_x
 _atom_site_fract_y
 _atom_site_fract_z
 _atom_site_occupancy
  In  In0  1  0.71690000  0.02053000  0.11031000  1.0
  In  In1  1  0.75001000  0.50000000  0.96906000  1.0
  In  In2  1  0.28310000  0.02053000  0.11031000  1.0
  In  In3  1  0.24999000  0.50000000  0.96906000  1.0
  Ag  Ag4  1  0.71093000  0.51869000  0.09326000  1.0
  Ag  Ag5  1  0.50000000  0.24407000  0.02852000  1.0
  Ag  Ag6  1  0.50000000  0.76220000  0.02097000  1.0
  Ag  Ag7  1  0.75001000  0.00000000  0.96906000  1.0
  Ag  Ag8  1  0.50000000  0.75000000  0.90719000  1.0
  Ag  Ag9  1  0.50000000  0.25000000  0.90719000  1.0
  Ag  Ag10  1  0.28907000  0.51869000  0.09326000  1.0
  Ag  Ag11  1  0.00000000  0.25616000  0.05143000  1.0
  Ag  Ag12  1  0.00000000  0.75789000  0.04392000  1.0
  Ag  Ag13  1  0.24999000  0.00000000  0.96906000  1.0
  Ag  Ag14  1  0.00000000  0.75000000  0.90719000  1.0
  Ag  Ag15  1  0.00000000  0.25000000  0.90719000  1.0
  C  C16  1  0.50000000  0.79509000  0.11171000  1.0
