# generated using pymatgen
data_In4Ag12C
_symmetry_space_group_name_H-M   Pm
_cell_length_a   6.07830000
_cell_length_b   8.59601000
_cell_length_c   24.55870000
_cell_angle_alpha   90.00000000
_cell_angle_beta   90.00000000
_cell_angle_gamma   90.00000000
_symmetry_Int_Tables_number   6
_chemical_formula_structural   In4Ag12C
_chemical_formula_sum   'In4 Ag12 C1'
_cell_volume   1283.17064957
_cell_formula_units_Z   1
loop_
 _symmetry_equiv_pos_site_id
 _symmetry_equiv_pos_as_xyz
  1  'x, y, z'
  2  'x, -y, z'
loop_
 _atom_site_type_symbol
 _atom_site_label
 _atom_site_symmetry_multiplicity
 _atom_site_fract_x
 _atom_site_fract_y
 _atom_site_fract_z
 _atom_site_occupancy
  In  In0  2  0.02053000  0.28310000  0.88969000  1.0
  In  In1  2  0.50000000  0.24999000  0.03094000  1.0
  Ag  Ag2  2  0.00000000  0.24999000  0.03094000  1.0
  Ag  Ag3  2  0.51869000  0.28907000  0.90674000  1.0
  Ag  Ag4  1  0.24407000  0.50000000  0.97148000  1.0
  Ag  Ag5  1  0.25000000  0.00000000  0.09281000  1.0
  Ag  Ag6  1  0.25000000  0.50000000  0.09281000  1.0
  Ag  Ag7  1  0.25616000  0.00000000  0.94857000  1.0
  Ag  Ag8  1  0.75000000  0.00000000  0.09281000  1.0
  Ag  Ag9  1  0.75000000  0.50000000  0.09281000  1.0
  Ag  Ag10  1  0.75789000  0.00000000  0.95608000  1.0
  Ag  Ag11  1  0.76220000  0.50000000  0.97903000  1.0
  C  C12  1  0.79509000  0.50000000  0.88829000  1.0
