# generated using pymatgen
data_Li8Al8In8Pd8CO
_symmetry_space_group_name_H-M   'P 1'
_cell_length_a   9.04374000
_cell_length_b   6.39489000
_cell_length_c   26.78280000
_cell_angle_alpha   90.00000000
_cell_angle_beta   90.00000000
_cell_angle_gamma   90.00000000
_symmetry_Int_Tables_number   1
_chemical_formula_structural   Li8Al8In8Pd8CO
_chemical_formula_sum   'Li8 Al8 In8 Pd8 C1 O1'
_cell_volume   1548.94902267
_cell_formula_units_Z   1
loop_
 _symmetry_equiv_pos_site_id
 _symmetry_equiv_pos_as_xyz
  1  'x, y, z'
loop_
 _atom_site_type_symbol
 _atom_site_label
 _atom_site_symmetry_multiplicity
 _atom_site_fract_x
 _atom_site_fract_y
 _atom_site_fract_z
 _atom_site_occupancy
  Li  Li0  1  0.75000000  0.75000000  0.04221000  1.0
  Li  Li1  1  0.25000000  0.75000000  0.04221000  1.0
  Li  Li2  1  0.00000000  0.25000000  0.12663000  1.0
  Li  Li3  1  0.50000000  0.25000000  0.12663000  1.0
  Li  Li4  1  0.24827000  0.72502000  0.85408000  1.0
  Li  Li5  1  0.75173000  0.72502000  0.85408000  1.0
  Li  Li6  1  0.50000000  0.22546000  0.95495000  1.0
  Li  Li7  1  0.00000000  0.22245000  0.95610000  1.0
  Al  Al8  1  0.75000000  0.00000000  0.12663000  1.0
  Al  Al9  1  0.25000000  0.00000000  0.12663000  1.0
  Al  Al10  1  0.50000000  0.50000000  0.04221000  1.0
  Al  Al11  1  0.00000000  0.50000000  0.04221000  1.0
  Al  Al12  1  0.25248000  0.97872000  0.95028000  1.0
  Al  Al13  1  0.74752000  0.97872000  0.95028000  1.0
  Al  Al14  1  0.00000000  0.47367000  0.87792000  1.0
  Al  Al15  1  0.50000000  0.48451000  0.87544000  1.0
  In  In16  1  0.00000000  0.00000000  0.04221000  1.0
  In  In17  1  0.50000000  0.00000000  0.04221000  1.0
  In  In18  1  0.25000000  0.50000000  0.12663000  1.0
  In  In19  1  0.75000000  0.50000000  0.12663000  1.0
  In  In20  1  0.50000000  0.98466000  0.85624000  1.0
  In  In21  1  0.00000000  0.00623000  0.85586000  1.0
  In  In22  1  0.74944000  0.50469000  0.95707000  1.0
  In  In23  1  0.25056000  0.50469000  0.95707000  1.0
  Pd  Pd24  1  0.75000000  0.25000000  0.04221000  1.0
  Pd  Pd25  1  0.25000000  0.25000000  0.04221000  1.0
  Pd  Pd26  1  0.00000000  0.75000000  0.12663000  1.0
  Pd  Pd27  1  0.50000000  0.75000000  0.12663000  1.0
  Pd  Pd28  1  0.25530000  0.24525000  0.87864000  1.0
  Pd  Pd29  1  0.74470000  0.24525000  0.87864000  1.0
  Pd  Pd30  1  0.50000000  0.75270000  0.95897000  1.0
  Pd  Pd31  1  0.00000000  0.75878000  0.95315000  1.0
  C  C32  1  0.00000000  0.55558000  0.80659000  1.0
  O  O33  1  0.00000000  0.56454000  0.76303000  1.0
