# generated using pymatgen
data_Li8Ge8Pd8Pb8CO
_symmetry_space_group_name_H-M   'P 1'
_cell_length_a   9.54516000
_cell_length_b   6.74945000
_cell_length_c   27.15890000
_cell_angle_alpha   90.00000000
_cell_angle_beta   90.00000000
_cell_angle_gamma   90.00000000
_symmetry_Int_Tables_number   1
_chemical_formula_structural   Li8Ge8Pd8Pb8CO
_chemical_formula_sum   'Li8 Ge8 Pd8 Pb8 C1 O1'
_cell_volume   1749.70073016
_cell_formula_units_Z   1
loop_
 _symmetry_equiv_pos_site_id
 _symmetry_equiv_pos_as_xyz
  1  'x, y, z'
loop_
 _atom_site_type_symbol
 _atom_site_label
 _atom_site_symmetry_multiplicity
 _atom_site_fract_x
 _atom_site_fract_y
 _atom_site_fract_z
 _atom_site_occupancy
  Li  Li0  1  0.00000000  0.25000000  0.04393000  1.0
  Li  Li1  1  0.50000000  0.25000000  0.04393000  1.0
  Li  Li2  1  0.25000000  0.75000000  0.13180000  1.0
  Li  Li3  1  0.75000000  0.75000000  0.13180000  1.0
  Li  Li4  1  0.50000000  0.31322000  0.85574000  1.0
  Li  Li5  1  0.00000000  0.30189000  0.86086000  1.0
  Li  Li6  1  0.74305000  0.79576000  0.94953000  1.0
  Li  Li7  1  0.25695000  0.79576000  0.94953000  1.0
  Ge  Ge8  1  0.00000000  0.00000000  0.13180000  1.0
  Ge  Ge9  1  0.50000000  1.00000000  0.13180000  1.0
  Ge  Ge10  1  0.75000000  0.50000000  0.04393000  1.0
  Ge  Ge11  1  0.25000000  0.50000000  0.04393000  1.0
  Ge  Ge12  1  0.50000000  0.02994000  0.94045000  1.0
  Ge  Ge13  1  0.00000000  0.00291000  0.93649000  1.0
  Ge  Ge14  1  0.26025000  0.52089000  0.87361000  1.0
  Ge  Ge15  1  0.73975000  0.52089000  0.87361000  1.0
  Pd  Pd16  1  0.00000000  0.75000000  0.04393000  1.0
  Pd  Pd17  1  0.50000000  0.75000000  0.04393000  1.0
  Pd  Pd18  1  0.25000000  0.25000000  0.13180000  1.0
  Pd  Pd19  1  0.75000000  0.25000000  0.13180000  1.0
  Pd  Pd20  1  0.50000000  0.73410000  0.87834000  1.0
  Pd  Pd21  1  0.00000000  0.74110000  0.86018000  1.0
  Pd  Pd22  1  0.76240000  0.21366000  0.93848000  1.0
  Pd  Pd23  1  0.23760000  0.21366000  0.93848000  1.0
  Pb  Pb24  1  0.25000000  1.00000000  0.04393000  1.0
  Pb  Pb25  1  0.75000000  1.00000000  0.04393000  1.0
  Pb  Pb26  1  0.50000000  0.50000000  0.13180000  1.0
  Pb  Pb27  1  0.00000000  0.50000000  0.13180000  1.0
  Pb  Pb28  1  0.73800000  0.99155000  0.84509000  1.0
  Pb  Pb29  1  0.26200000  0.99155000  0.84509000  1.0
  Pb  Pb30  1  0.00000000  0.50742000  0.95503000  1.0
  Pb  Pb31  1  0.50000000  0.47893000  0.95970000  1.0
  C  C32  1  0.00000000  0.68286000  0.78951000  1.0
  O  O33  1  0.00000000  0.67023000  0.74710000  1.0
