# generated using pymatgen
data_Zn8Ni8C
_symmetry_space_group_name_H-M   'P 1'
_cell_length_a   5.79956000
_cell_length_b   5.79956000
_cell_length_c   24.34970000
_cell_angle_alpha   90.00000000
_cell_angle_beta   90.00000000
_cell_angle_gamma   90.00000000
_symmetry_Int_Tables_number   1
_chemical_formula_structural   Zn8Ni8C
_chemical_formula_sum   'Zn8 Ni8 C1'
_cell_volume   818.99963185
_cell_formula_units_Z   1
loop_
 _symmetry_equiv_pos_site_id
 _symmetry_equiv_pos_as_xyz
  1  'x, y, z'
loop_
 _atom_site_type_symbol
 _atom_site_label
 _atom_site_symmetry_multiplicity
 _atom_site_fract_x
 _atom_site_fract_y
 _atom_site_fract_z
 _atom_site_occupancy
  Zn  Zn0  1  0.00000000  0.00000000  0.90908000  1.0
  Zn  Zn1  1  0.00000000  0.00000000  0.02817000  1.0
  Zn  Zn2  1  0.00000000  0.50000000  0.90908000  1.0
  Zn  Zn3  1  0.00000000  0.50000000  0.02817000  1.0
  Zn  Zn4  1  0.50000000  0.00000000  0.90908000  1.0
  Zn  Zn5  1  0.50000000  0.00000000  0.02817000  1.0
  Zn  Zn6  1  0.50000000  0.50000000  0.90908000  1.0
  Zn  Zn7  1  0.50000000  0.50000000  0.02817000  1.0
  Ni  Ni8  1  0.25000000  0.25000000  0.96862000  1.0
  Ni  Ni9  1  0.25000000  0.25000000  0.08771000  1.0
  Ni  Ni10  1  0.25000000  0.75000000  0.96862000  1.0
  Ni  Ni11  1  0.25000000  0.75000000  0.08771000  1.0
  Ni  Ni12  1  0.75000000  0.25000000  0.96862000  1.0
  Ni  Ni13  1  0.75000000  0.25000000  0.08771000  1.0
  Ni  Ni14  1  0.75000000  0.75000000  0.96862000  1.0
  Ni  Ni15  1  0.75000000  0.75000000  0.08771000  1.0
  C  C16  1  0.00000000  0.00000000  0.12057000  1.0
