# generated using pymatgen
data_Al8In8Cu8Pd8CO
_symmetry_space_group_name_H-M   'P 1'
_cell_length_a   8.99448000
_cell_length_b   6.36006000
_cell_length_c   26.74590000
_cell_angle_alpha   90.00000000
_cell_angle_beta   90.00000000
_cell_angle_gamma   90.00000000
_symmetry_Int_Tables_number   1
_chemical_formula_structural   Al8In8Cu8Pd8CO
_chemical_formula_sum   'Al8 In8 Cu8 Pd8 C1 O1'
_cell_volume   1530.01077627
_cell_formula_units_Z   1
loop_
 _symmetry_equiv_pos_site_id
 _symmetry_equiv_pos_as_xyz
  1  'x, y, z'
loop_
 _atom_site_type_symbol
 _atom_site_label
 _atom_site_symmetry_multiplicity
 _atom_site_fract_x
 _atom_site_fract_y
 _atom_site_fract_z
 _atom_site_occupancy
  Al  Al0  1  0.00000000  0.00000000  0.12611000  1.0
  Al  Al1  1  0.50000000  0.00000000  0.12611000  1.0
  Al  Al2  1  0.75000000  0.50000000  0.04204000  1.0
  Al  Al3  1  0.25000000  0.50000000  0.04204000  1.0
  Al  Al4  1  0.50000000  0.99560000  0.95107000  1.0
  Al  Al5  1  0.00000000  0.98998000  0.95215000  1.0
  Al  Al6  1  0.25423000  0.50619000  0.87701000  1.0
  Al  Al7  1  0.74577000  0.50619000  0.87701000  1.0
  In  In8  1  0.25000000  0.00000000  0.04204000  1.0
  In  In9  1  0.75000000  0.00000000  0.04204000  1.0
  In  In10  1  0.50000000  0.50000000  0.12611000  1.0
  In  In11  1  0.00000000  0.50000000  0.12611000  1.0
  In  In12  1  0.73875000  0.98681000  0.84839000  1.0
  In  In13  1  0.26125000  0.98681000  0.84839000  1.0
  In  In14  1  0.00000000  0.49170000  0.95781000  1.0
  In  In15  1  0.50000000  0.48523000  0.96008000  1.0
  Cu  Cu16  1  0.00000000  0.25000000  0.04204000  1.0
  Cu  Cu17  1  0.50000000  0.25000000  0.04204000  1.0
  Cu  Cu18  1  0.25000000  0.75000000  0.12611000  1.0
  Cu  Cu19  1  0.75000000  0.75000000  0.12611000  1.0
  Cu  Cu20  1  0.50000000  0.26280000  0.87215000  1.0
  Cu  Cu21  1  0.00000000  0.25211000  0.87002000  1.0
  Cu  Cu22  1  0.74770000  0.76839000  0.95347000  1.0
  Cu  Cu23  1  0.25230000  0.76839000  0.95347000  1.0
  Pd  Pd24  1  0.00000000  0.75000000  0.04204000  1.0
  Pd  Pd25  1  0.50000000  0.75000000  0.04204000  1.0
  Pd  Pd26  1  0.25000000  0.25000000  0.12611000  1.0
  Pd  Pd27  1  0.75000000  0.25000000  0.12611000  1.0
  Pd  Pd28  1  0.50000000  0.72343000  0.87503000  1.0
  Pd  Pd29  1  0.00000000  0.74369000  0.87575000  1.0
  Pd  Pd30  1  0.75507000  0.21324000  0.94697000  1.0
  Pd  Pd31  1  0.24493000  0.21324000  0.94697000  1.0
  C  C32  1  0.00000000  0.27738000  0.79990000  1.0
  O  O33  1  0.00000000  0.29283000  0.75692000  1.0
