# generated using pymatgen
data_Al8In8Cu8Pd8CO
_symmetry_space_group_name_H-M   Pm
_cell_length_a   6.36006000
_cell_length_b   8.99448000
_cell_length_c   26.74590000
_cell_angle_alpha   90.00000000
_cell_angle_beta   90.00000000
_cell_angle_gamma   90.00000000
_symmetry_Int_Tables_number   6
_chemical_formula_structural   Al8In8Cu8Pd8CO
_chemical_formula_sum   'Al8 In8 Cu8 Pd8 C1 O1'
_cell_volume   1530.01077627
_cell_formula_units_Z   1
loop_
 _symmetry_equiv_pos_site_id
 _symmetry_equiv_pos_as_xyz
  1  'x, y, z'
  2  'x, -y, z'
loop_
 _atom_site_type_symbol
 _atom_site_label
 _atom_site_symmetry_multiplicity
 _atom_site_fract_x
 _atom_site_fract_y
 _atom_site_fract_z
 _atom_site_occupancy
  Al  Al0  2  0.50000000  0.25000000  0.95796000  1.0
  Al  Al1  2  0.50619000  0.25423000  0.12299000  1.0
  Al  Al2  1  0.00000000  0.00000000  0.87389000  1.0
  Al  Al3  1  0.00000000  0.50000000  0.87389000  1.0
  Al  Al4  1  0.98998000  0.00000000  0.04785000  1.0
  Al  Al5  1  0.99560000  0.50000000  0.04893000  1.0
  In  In6  2  0.00000000  0.25000000  0.95796000  1.0
  In  In7  2  0.98681000  0.26125000  0.15161000  1.0
  In  In8  1  0.48523000  0.50000000  0.03992000  1.0
  In  In9  1  0.49170000  0.00000000  0.04219000  1.0
  In  In10  1  0.50000000  0.00000000  0.87389000  1.0
  In  In11  1  0.50000000  0.50000000  0.87389000  1.0
  Cu  Cu12  2  0.75000000  0.25000000  0.87389000  1.0
  Cu  Cu13  2  0.76839000  0.25230000  0.04653000  1.0
  Cu  Cu14  1  0.25000000  0.00000000  0.95796000  1.0
  Cu  Cu15  1  0.25000000  0.50000000  0.95796000  1.0
  Cu  Cu16  1  0.25211000  0.00000000  0.12998000  1.0
  Cu  Cu17  1  0.26280000  0.50000000  0.12785000  1.0
  Pd  Pd18  2  0.21324000  0.24493000  0.05303000  1.0
  Pd  Pd19  2  0.25000000  0.25000000  0.87389000  1.0
  Pd  Pd20  1  0.72343000  0.50000000  0.12497000  1.0
  Pd  Pd21  1  0.74369000  0.00000000  0.12425000  1.0
  Pd  Pd22  1  0.75000000  0.00000000  0.95796000  1.0
  Pd  Pd23  1  0.75000000  0.50000000  0.95796000  1.0
  C  C24  1  0.27738000  0.00000000  0.20010000  1.0
  O  O25  1  0.29283000  0.00000000  0.24308000  1.0
