# generated using pymatgen
data_Li8Mg8In8Ag8CO
_symmetry_space_group_name_H-M   P1
_cell_length_a   6.69019000
_cell_length_b   9.46136000
_cell_length_c   27.09600000
_cell_angle_alpha   90.00000000
_cell_angle_beta   90.00000000
_cell_angle_gamma   90.00000000
_symmetry_Int_Tables_number   1
_chemical_formula_structural   Li8Mg8In8Ag8CO
_chemical_formula_sum   'Li8 Mg8 In8 Ag8 C1 O1'
_cell_volume   1715.13063000
_cell_formula_units_Z   1
loop_
 _symmetry_equiv_pos_site_id
 _symmetry_equiv_pos_as_xyz
  1  'x, y, z'
loop_
 _atom_site_type_symbol
 _atom_site_label
 _atom_site_symmetry_multiplicity
 _atom_site_fract_x
 _atom_site_fract_y
 _atom_site_fract_z
 _atom_site_occupancy
  Li  Li0  1  0.00000000  0.25000000  0.95635000  1.0
  Li  Li1  1  0.00000000  0.75000000  0.95635000  1.0
  Li  Li2  1  0.01177000  0.75000000  0.16192000  1.0
  Li  Li3  1  0.01738000  0.25000000  0.14677000  1.0
  Li  Li4  1  0.49524000  0.50321000  0.04659000  1.0
  Li  Li5  1  0.49525000  0.99679000  0.04663000  1.0
  Li  Li6  1  0.50000000  0.00000000  0.86906000  1.0
  Li  Li7  1  0.50000000  0.50000000  0.86906000  1.0
  Mg  Mg8  1  0.23433000  0.75000000  0.05234000  1.0
  Mg  Mg9  1  0.25000000  0.25000000  0.86906000  1.0
  Mg  Mg10  1  0.25000000  0.75000000  0.86906000  1.0
  Mg  Mg11  1  0.25345000  0.25000000  0.05261000  1.0
  Mg  Mg12  1  0.75000000  0.00000000  0.95635000  1.0
  Mg  Mg13  1  0.75000000  0.50000000  0.95635000  1.0
  Mg  Mg14  1  0.75893000  0.99307000  0.13351000  1.0
  Mg  Mg15  1  0.75898000  0.50691000  0.13347000  1.0
  In  In16  1  0.23394000  0.99455000  0.14015000  1.0
  In  In17  1  0.23395000  0.50545000  0.14013000  1.0
  In  In18  1  0.25000000  0.00000000  0.95635000  1.0
  In  In19  1  0.25000000  0.50000000  0.95635000  1.0
  In  In20  1  0.74990000  0.24999000  0.05229000  1.0
  In  In21  1  0.75000000  0.25000000  0.86906000  1.0
  In  In22  1  0.75000000  0.75000000  0.86906000  1.0
  In  In23  1  0.75456000  0.75001000  0.04833000  1.0
  Ag  Ag24  1  0.00000000  0.00000000  0.86906000  1.0
  Ag  Ag25  1  0.00000000  0.50000000  0.86906000  1.0
  Ag  Ag26  1  0.00433000  0.00292000  0.04208000  1.0
  Ag  Ag27  1  0.00433000  0.49708000  0.04206000  1.0
  Ag  Ag28  1  0.49224000  0.25001000  0.14049000  1.0
  Ag  Ag29  1  0.50000000  0.25000000  0.95635000  1.0
  Ag  Ag30  1  0.50000000  0.75000000  0.95635000  1.0
  Ag  Ag31  1  0.50109000  0.74999000  0.13565000  1.0
  C  C32  1  0.54262000  0.25001000  0.22426000  1.0
  O  O33  1  0.51442000  0.24997000  0.26598000  1.0
