# generated using pymatgen
data_YAlInPd
_symmetry_space_group_name_H-M   Pm
_cell_length_a   6.15545000
_cell_length_b   4.43230000
_cell_length_c   24.58270000
_cell_angle_alpha   90.00000000
_cell_angle_beta   90.00000000
_cell_angle_gamma   90.00000000
_symmetry_Int_Tables_number   6
_chemical_formula_structural   YAlInPd
_chemical_formula_sum   'Y2 Al2 In2 Pd2'
_cell_volume   670.68491300
_cell_formula_units_Z   2
loop_
 _symmetry_equiv_pos_site_id
 _symmetry_equiv_pos_as_xyz
  1  'x, y, z'
  2  'x, -y, z'
loop_
 _atom_site_type_symbol
 _atom_site_label
 _atom_site_symmetry_multiplicity
 _atom_site_fract_x
 _atom_site_fract_y
 _atom_site_fract_z
 _atom_site_occupancy
  Y  Y0  1  0.06047000  0.00000000  0.03107000  1.0
  Y  Y1  1  0.50000000  0.00000000  0.90679000  1.0
  Al  Al2  1  0.00000000  0.00000000  0.90679000  1.0
  Al  Al3  1  0.56047000  0.00000000  0.03107000  1.0
  In  In4  1  0.34071000  0.50000000  0.09321000  1.0
  In  In5  1  0.78024000  0.50000000  0.96893000  1.0
  Pd  Pd6  1  0.28024000  0.50000000  0.96893000  1.0
  Pd  Pd7  1  0.84071000  0.50000000  0.09321000  1.0
