# generated using pymatgen
data_NbIr3
_symmetry_space_group_name_H-M   Pmm2
_cell_length_a   3.93569000
_cell_length_b   5.56590000
_cell_length_c   24.17440000
_cell_angle_alpha   90.00000000
_cell_angle_beta   90.00000000
_cell_angle_gamma   90.00000000
_symmetry_Int_Tables_number   25
_chemical_formula_structural   NbIr3
_chemical_formula_sum   'Nb2 Ir6'
_cell_volume   529.55611388
_cell_formula_units_Z   2
loop_
 _symmetry_equiv_pos_site_id
 _symmetry_equiv_pos_as_xyz
  1  'x, y, z'
  2  '-x, -y, z'
  3  '-x, y, z'
  4  'x, -y, z'
loop_
 _atom_site_type_symbol
 _atom_site_label
 _atom_site_symmetry_multiplicity
 _atom_site_fract_x
 _atom_site_fract_y
 _atom_site_fract_z
 _atom_site_occupancy
  Nb  Nb0  1  0.00000000  0.00000000  0.91366000  1.0
  Nb  Nb1  1  0.00000000  0.50000000  0.03335000  1.0
  Ir  Ir2  2  0.50000000  0.25000000  0.97122000  1.0
  Ir  Ir3  2  0.50000000  0.25500000  0.08178000  1.0
  Ir  Ir4  1  0.00000000  0.00000000  0.02350000  1.0
  Ir  Ir5  1  0.00000000  0.50000000  0.91366000  1.0
