# generated using pymatgen
data_In16Ni16C
_symmetry_space_group_name_H-M   'P 1'
_cell_length_a   6.35210000
_cell_length_b   8.98322000
_cell_length_c   26.73740000
_cell_angle_alpha   90.00000000
_cell_angle_beta   90.00000000
_cell_angle_gamma   90.00000000
_symmetry_Int_Tables_number   1
_chemical_formula_structural   In16Ni16C
_chemical_formula_sum   'In16 Ni16 C1'
_cell_volume   1525.69785451
_cell_formula_units_Z   1
loop_
 _symmetry_equiv_pos_site_id
 _symmetry_equiv_pos_as_xyz
  1  'x, y, z'
loop_
 _atom_site_type_symbol
 _atom_site_label
 _atom_site_symmetry_multiplicity
 _atom_site_fract_x
 _atom_site_fract_y
 _atom_site_fract_z
 _atom_site_occupancy
  In  In0  1  0.00000000  0.00000000  0.87401000  1.0
  In  In1  1  0.00000000  0.25000000  0.95800000  1.0
  In  In2  1  0.00000000  0.00000000  0.04456000  1.0
  In  In3  1  0.00000000  0.26417000  0.13639000  1.0
  In  In4  1  0.00000000  0.50000000  0.87401000  1.0
  In  In5  1  0.00000000  0.75000000  0.95800000  1.0
  In  In6  1  0.00000000  0.50000000  0.04078000  1.0
  In  In7  1  0.00000000  0.73583000  0.13639000  1.0
  In  In8  1  0.50000000  0.00000000  0.87401000  1.0
  In  In9  1  0.50000000  0.25000000  0.95800000  1.0
  In  In10  1  0.50000000  0.00000000  0.04229000  1.0
  In  In11  1  0.50000000  0.25786000  0.13570000  1.0
  In  In12  1  0.50000000  0.50000000  0.87401000  1.0
  In  In13  1  0.50000000  0.75000000  0.95800000  1.0
  In  In14  1  0.50000000  0.50000000  0.04073000  1.0
  In  In15  1  0.50000000  0.74214000  0.13570000  1.0
  Ni  Ni16  1  0.25000000  0.25000000  0.87401000  1.0
  Ni  Ni17  1  0.25000000  0.00000000  0.95800000  1.0
  Ni  Ni18  1  0.24823000  0.25226000  0.04242000  1.0
  Ni  Ni19  1  0.28066000  0.00000000  0.12764000  1.0
  Ni  Ni20  1  0.25000000  0.75000000  0.87401000  1.0
  Ni  Ni21  1  0.25000000  0.50000000  0.95800000  1.0
  Ni  Ni22  1  0.24823000  0.74774000  0.04242000  1.0
  Ni  Ni23  1  0.25390000  0.50000000  0.11999000  1.0
  Ni  Ni24  1  0.75000000  0.25000000  0.87401000  1.0
  Ni  Ni25  1  0.75000000  0.00000000  0.95800000  1.0
  Ni  Ni26  1  0.75177000  0.25226000  0.04242000  1.0
  Ni  Ni27  1  0.71934000  0.00000000  0.12764000  1.0
  Ni  Ni28  1  0.75000000  0.75000000  0.87401000  1.0
  Ni  Ni29  1  0.75000000  0.50000000  0.95800000  1.0
  Ni  Ni30  1  0.75177000  0.74774000  0.04242000  1.0
  Ni  Ni31  1  0.74610000  0.50000000  0.11999000  1.0
  C  C32  1  0.00000000  0.00000000  0.13921000  1.0
