# generated using pymatgen
data_Sc8Ga8Ge8Pd8CO
_symmetry_space_group_name_H-M   Pm
_cell_length_a   8.58414000
_cell_length_b   7.83718000
_cell_length_c   26.06500000
_cell_angle_alpha   90.00000000
_cell_angle_beta   90.00000000
_cell_angle_gamma   90.00000000
_symmetry_Int_Tables_number   6
_chemical_formula_structural   Sc8Ga8Ge8Pd8CO
_chemical_formula_sum   'Sc8 Ga8 Ge8 Pd8 C1 O1'
_cell_volume   1753.53461273
_cell_formula_units_Z   1
loop_
 _symmetry_equiv_pos_site_id
 _symmetry_equiv_pos_as_xyz
  1  'x, y, z'
  2  'x, -y, z'
loop_
 _atom_site_type_symbol
 _atom_site_label
 _atom_site_symmetry_multiplicity
 _atom_site_fract_x
 _atom_site_fract_y
 _atom_site_fract_z
 _atom_site_occupancy
  Sc  Sc0  2  0.25000000  0.25000000  0.88366000  1.0
  Sc  Sc1  2  0.25000000  0.25743000  0.03742000  1.0
  Sc  Sc2  2  0.75000000  0.25000000  0.88366000  1.0
  Sc  Sc3  2  0.75001000  0.24913000  0.03812000  1.0
  Ga  Ga4  2  0.00000000  0.25000000  0.96122000  1.0
  Ga  Ga5  2  0.50000000  0.25000000  0.96122000  1.0
  Ga  Ga6  2  0.50227000  0.27841000  0.11900000  1.0
  Ga  Ga7  2  0.99777000  0.27846000  0.11899000  1.0
  Ge  Ge8  1  0.25000000  0.00000000  0.96122000  1.0
  Ge  Ge9  1  0.25000000  0.50000000  0.96122000  1.0
  Ge  Ge10  1  0.25002000  0.50000000  0.12500000  1.0
  Ge  Ge11  1  0.25003000  0.00000000  0.10845000  1.0
  Ge  Ge12  1  0.74989000  0.00000000  0.12584000  1.0
  Ge  Ge13  1  0.75000000  0.00000000  0.96122000  1.0
  Ge  Ge14  1  0.75000000  0.50000000  0.96122000  1.0
  Ge  Ge15  1  0.75005000  0.50000000  0.12601000  1.0
  Pd  Pd16  1  0.00000000  0.50000000  0.88366000  1.0
  Pd  Pd17  1  0.00000000  0.00000000  0.88366000  1.0
  Pd  Pd18  1  0.50000000  0.00000000  0.88366000  1.0
  Pd  Pd19  1  0.50000000  0.50000000  0.88366000  1.0
  Pd  Pd20  1  0.50393000  0.50000000  0.03701000  1.0
  Pd  Pd21  1  0.50658000  0.00000000  0.05161000  1.0
  Pd  Pd22  1  0.99345000  0.00000000  0.05170000  1.0
  Pd  Pd23  1  0.99607000  0.50000000  0.03700000  1.0
  C  C24  1  0.24965000  0.00000000  0.18297000  1.0
  O  O25  1  0.24999000  0.00000000  0.22731000  1.0
