data_image0
_chemical_formula_structural       Mn16V8Ga8CO
_chemical_formula_sum              "Mn16 V8 Ga8 C1 O1"
_cell_length_a       5.83886
_cell_length_b       8.25739
_cell_length_c       26.193
_cell_angle_alpha    90
_cell_angle_beta     90
_cell_angle_gamma    90

_space_group_name_H-M_alt    "P 1"
_space_group_IT_number       1

loop_
  _space_group_symop_operation_xyz
  'x, y, z'

loop_
  _atom_site_type_symbol
  _atom_site_label
  _atom_site_symmetry_multiplicity
  _atom_site_fract_x
  _atom_site_fract_y
  _atom_site_fract_z
  _atom_site_occupancy
  Mn  Mn1       1.0  0.25000  0.00000  0.96059  1.0000
  Mn  Mn2       1.0  0.75000  0.50000  0.96059  1.0000
  Mn  Mn3       1.0  0.75000  0.00000  0.96059  1.0000
  Mn  Mn4       1.0  0.25000  0.50000  0.96059  1.0000
  Mn  Mn5       1.0  0.75000  0.75000  0.88178  1.0000
  Mn  Mn6       1.0  0.25000  0.25000  0.88178  1.0000
  Mn  Mn7       1.0  0.25000  0.75000  0.88178  1.0000
  Mn  Mn8       1.0  0.75000  0.25000  0.88178  1.0000
  Mn  Mn9       1.0  0.24114  0.49430  0.12015  1.0000
  Mn  Mn10      1.0  0.75851  0.00545  0.12022  1.0000
  Mn  Mn11      1.0  0.75885  0.49430  0.12015  1.0000
  Mn  Mn12      1.0  0.24147  0.00545  0.12021  1.0000
  Mn  Mn13      1.0  0.76101  0.24998  0.04329  1.0000
  Mn  Mn14      1.0  0.25157  0.74999  0.04204  1.0000
  Mn  Mn15      1.0  0.23902  0.24997  0.04328  1.0000
  Mn  Mn16      1.0  0.74843  0.75000  0.04204  1.0000
  V   V1        1.0  0.00000  0.00000  0.88178  1.0000
  V   V2        1.0  0.50000  0.25000  0.96059  1.0000
  V   V3        1.0  0.50000  0.75000  0.96059  1.0000
  V   V4        1.0  0.00000  0.50000  0.88178  1.0000
  V   V5        1.0  0.00000  0.50510  0.03986  1.0000
  V   V6        1.0  0.50000  0.74984  0.11750  1.0000
  V   V7        1.0  0.50000  0.25001  0.12156  1.0000
  V   V8        1.0  0.00001  0.99488  0.03991  1.0000
  Ga  Ga1       1.0  0.00000  0.75000  0.96059  1.0000
  Ga  Ga2       1.0  0.50000  0.00000  0.88178  1.0000
  Ga  Ga3       1.0  0.00000  0.25000  0.96059  1.0000
  Ga  Ga4       1.0  0.50000  0.50000  0.88178  1.0000
  Ga  Ga5       1.0  1.00000  0.24998  0.14801  1.0000
  Ga  Ga6       1.0  0.49999  0.49803  0.04079  1.0000
  Ga  Ga7       1.0  1.00000  0.74982  0.12911  1.0000
  Ga  Ga8       1.0  0.50000  0.00195  0.04075  1.0000
  C   C1        1.0  0.99994  0.25125  0.24040  1.0000
  O   O1        1.0  0.00003  0.25013  0.28388  1.0000
