# generated using pymatgen
data_Mn16V8Ga8CO
_symmetry_space_group_name_H-M   P1
_cell_length_a   5.83886000
_cell_length_b   8.25739000
_cell_length_c   26.19300000
_cell_angle_alpha   90.00000000
_cell_angle_beta   90.00000000
_cell_angle_gamma   90.00000000
_symmetry_Int_Tables_number   1
_chemical_formula_structural   Mn16V8Ga8CO
_chemical_formula_sum   'Mn16 V8 Ga8 C1 O1'
_cell_volume   1262.86260119
_cell_formula_units_Z   1
loop_
 _symmetry_equiv_pos_site_id
 _symmetry_equiv_pos_as_xyz
  1  'x, y, z'
loop_
 _atom_site_type_symbol
 _atom_site_label
 _atom_site_symmetry_multiplicity
 _atom_site_fract_x
 _atom_site_fract_y
 _atom_site_fract_z
 _atom_site_occupancy
  Mn  Mn0  1  0.23902000  0.24997000  0.04328000  1.0
  Mn  Mn1  1  0.24114000  0.49430000  0.12015000  1.0
  Mn  Mn2  1  0.24147000  0.00545000  0.12021000  1.0
  Mn  Mn3  1  0.25000000  0.00000000  0.96059000  1.0
  Mn  Mn4  1  0.25000000  0.25000000  0.88178000  1.0
  Mn  Mn5  1  0.25000000  0.50000000  0.96059000  1.0
  Mn  Mn6  1  0.25000000  0.75000000  0.88178000  1.0
  Mn  Mn7  1  0.25157000  0.74999000  0.04204000  1.0
  Mn  Mn8  1  0.74843000  0.75000000  0.04204000  1.0
  Mn  Mn9  1  0.75000000  0.00000000  0.96059000  1.0
  Mn  Mn10  1  0.75000000  0.25000000  0.88178000  1.0
  Mn  Mn11  1  0.75000000  0.50000000  0.96059000  1.0
  Mn  Mn12  1  0.75000000  0.75000000  0.88178000  1.0
  Mn  Mn13  1  0.75851000  0.00545000  0.12022000  1.0
  Mn  Mn14  1  0.75885000  0.49430000  0.12015000  1.0
  Mn  Mn15  1  0.76101000  0.24998000  0.04329000  1.0
  V  V16  1  0.00000000  0.00000000  0.88178000  1.0
  V  V17  1  0.00000000  0.50000000  0.88178000  1.0
  V  V18  1  0.00000000  0.50510000  0.03986000  1.0
  V  V19  1  0.00001000  0.99488000  0.03991000  1.0
  V  V20  1  0.50000000  0.25000000  0.96059000  1.0
  V  V21  1  0.50000000  0.25001000  0.12156000  1.0
  V  V22  1  0.50000000  0.74984000  0.11750000  1.0
  V  V23  1  0.50000000  0.75000000  0.96059000  1.0
  Ga  Ga24  1  0.00000000  0.24998000  0.14801000  1.0
  Ga  Ga25  1  0.00000000  0.25000000  0.96059000  1.0
  Ga  Ga26  1  0.00000000  0.74982000  0.12911000  1.0
  Ga  Ga27  1  0.00000000  0.75000000  0.96059000  1.0
  Ga  Ga28  1  0.49999000  0.49803000  0.04079000  1.0
  Ga  Ga29  1  0.50000000  0.00000000  0.88178000  1.0
  Ga  Ga30  1  0.50000000  0.00195000  0.04075000  1.0
  Ga  Ga31  1  0.50000000  0.50000000  0.88178000  1.0
  C  C32  1  0.99994000  0.25125000  0.24040000  1.0
  O  O33  1  0.00003000  0.25013000  0.28388000  1.0
