data_image0
_chemical_formula_structural       Hf16Rh16CO
_chemical_formula_sum              "Hf16 Rh16 C1 O1"
_cell_length_a       6.5286
_cell_length_b       9.23283
_cell_length_c       26.9246
_cell_angle_alpha    90
_cell_angle_beta     90
_cell_angle_gamma    90

_space_group_name_H-M_alt    "P 1"
_space_group_IT_number       1

loop_
  _space_group_symop_operation_xyz
  'x, y, z'

loop_
  _atom_site_type_symbol
  _atom_site_label
  _atom_site_symmetry_multiplicity
  _atom_site_fract_x
  _atom_site_fract_y
  _atom_site_fract_z
  _atom_site_occupancy
  Hf  Hf1       1.0  0.00000  0.00000  0.87141  1.0000
  Hf  Hf2       1.0  0.00000  0.25000  0.95714  1.0000
  Hf  Hf3       1.0  1.00000  0.00131  0.04365  1.0000
  Hf  Hf4       1.0  1.00000  0.24999  0.13272  1.0000
  Hf  Hf5       1.0  0.00000  0.50000  0.87141  1.0000
  Hf  Hf6       1.0  0.00000  0.75000  0.95714  1.0000
  Hf  Hf7       1.0  0.00000  0.49869  0.04365  1.0000
  Hf  Hf8       1.0  1.00000  0.75001  0.12957  1.0000
  Hf  Hf9       1.0  0.50000  0.00000  0.87141  1.0000
  Hf  Hf10      1.0  0.50000  0.25000  0.95714  1.0000
  Hf  Hf11      1.0  0.50000  0.99976  0.04338  1.0000
  Hf  Hf12      1.0  0.50000  0.24999  0.12972  1.0000
  Hf  Hf13      1.0  0.50000  0.50000  0.87141  1.0000
  Hf  Hf14      1.0  0.50000  0.75000  0.95714  1.0000
  Hf  Hf15      1.0  0.50000  0.50024  0.04338  1.0000
  Hf  Hf16      1.0  0.50000  0.75001  0.12965  1.0000
  Rh  Rh1       1.0  0.25000  0.25000  0.87141  1.0000
  Rh  Rh2       1.0  0.25000  0.00000  0.95714  1.0000
  Rh  Rh3       1.0  0.25263  0.24999  0.04291  1.0000
  Rh  Rh4       1.0  0.25004  0.99781  0.12096  1.0000
  Rh  Rh5       1.0  0.25000  0.75000  0.87141  1.0000
  Rh  Rh6       1.0  0.25000  0.50000  0.95714  1.0000
  Rh  Rh7       1.0  0.24960  0.75001  0.04333  1.0000
  Rh  Rh8       1.0  0.25004  0.50219  0.12096  1.0000
  Rh  Rh9       1.0  0.75000  0.25000  0.87141  1.0000
  Rh  Rh10      1.0  0.75000  0.00000  0.95714  1.0000
  Rh  Rh11      1.0  0.74737  0.24999  0.04291  1.0000
  Rh  Rh12      1.0  0.74996  0.99781  0.12096  1.0000
  Rh  Rh13      1.0  0.75000  0.75000  0.87141  1.0000
  Rh  Rh14      1.0  0.75000  0.50000  0.95714  1.0000
  Rh  Rh15      1.0  0.75040  0.75001  0.04333  1.0000
  Rh  Rh16      1.0  0.74996  0.50219  0.12096  1.0000
  C   C1        1.0  0.00000  0.25000  0.21635  1.0000
  O   O1        1.0  0.00000  0.25000  0.25916  1.0000
