# generated using pymatgen
data_Hf16Rh16CO
_symmetry_space_group_name_H-M   Pmm2
_cell_length_a   6.52860000
_cell_length_b   9.23283000
_cell_length_c   26.92460000
_cell_angle_alpha   90.00000000
_cell_angle_beta   90.00000000
_cell_angle_gamma   90.00000000
_symmetry_Int_Tables_number   25
_chemical_formula_structural   Hf16Rh16CO
_chemical_formula_sum   'Hf16 Rh16 C1 O1'
_cell_volume   1622.94633630
_cell_formula_units_Z   1
loop_
 _symmetry_equiv_pos_site_id
 _symmetry_equiv_pos_as_xyz
  1  'x, y, z'
  2  '-x, -y, z'
  3  '-x, y, z'
  4  'x, -y, z'
loop_
 _atom_site_type_symbol
 _atom_site_label
 _atom_site_symmetry_multiplicity
 _atom_site_fract_x
 _atom_site_fract_y
 _atom_site_fract_z
 _atom_site_occupancy
  Hf  Hf0  2  0.00000000  0.24869000  0.04365000  1.0
  Hf  Hf1  2  0.00000000  0.25000000  0.87141000  1.0
  Hf  Hf2  2  0.50000000  0.25000000  0.87141000  1.0
  Hf  Hf3  2  0.50000000  0.25024000  0.04338000  1.0
  Hf  Hf4  1  0.00000000  0.00000000  0.13272000  1.0
  Hf  Hf5  1  0.00000000  0.00000000  0.95714000  1.0
  Hf  Hf6  1  0.00000000  0.50000000  0.12957000  1.0
  Hf  Hf7  1  0.00000000  0.50000000  0.95714000  1.0
  Hf  Hf8  1  0.50000000  0.00000000  0.12972000  1.0
  Hf  Hf9  1  0.50000000  0.00000000  0.95714000  1.0
  Hf  Hf10  1  0.50000000  0.50000000  0.12965000  1.0
  Hf  Hf11  1  0.50000000  0.50000000  0.95714000  1.0
  Rh  Rh12  4  0.25000000  0.25000000  0.95714000  1.0
  Rh  Rh13  4  0.25004000  0.25219000  0.12096000  1.0
  Rh  Rh14  2  0.24960000  0.50000000  0.04333000  1.0
  Rh  Rh15  2  0.25000000  0.00000000  0.87141000  1.0
  Rh  Rh16  2  0.25000000  0.50000000  0.87141000  1.0
  Rh  Rh17  2  0.25263000  0.00000000  0.04291000  1.0
  C  C18  1  0.00000000  0.00000000  0.21635000  1.0
  O  O19  1  0.00000000  0.00000000  0.25916000  1.0
