# generated using pymatgen
data_LiYInGe
_symmetry_space_group_name_H-M   'P 1'
_cell_length_a   8.57642000
_cell_length_b   6.30439000
_cell_length_c   24.70800000
_cell_angle_alpha   90.00000000
_cell_angle_beta   90.00000000
_cell_angle_gamma   90.00000000
_symmetry_Int_Tables_number   1
_chemical_formula_structural   LiYInGe
_chemical_formula_sum   'Li4 Y4 In4 Ge4'
_cell_volume   1335.93923592
_cell_formula_units_Z   4
loop_
 _symmetry_equiv_pos_site_id
 _symmetry_equiv_pos_as_xyz
  1  'x, y, z'
loop_
 _atom_site_type_symbol
 _atom_site_label
 _atom_site_symmetry_multiplicity
 _atom_site_fract_x
 _atom_site_fract_y
 _atom_site_fract_z
 _atom_site_occupancy
  Li  Li0  1  0.00000000  0.72689000  0.03176000  1.0
  Li  Li1  1  0.00000000  0.15306000  0.90900000  1.0
  Li  Li2  1  0.50000000  0.72689000  0.03176000  1.0
  Li  Li3  1  0.50000000  0.15315000  0.90900000  1.0
  Y  Y4  1  0.00000000  0.22689000  0.03176000  1.0
  Y  Y5  1  0.00000000  0.64396000  0.90874000  1.0
  Y  Y6  1  0.50000000  0.22689000  0.03176000  1.0
  Y  Y7  1  0.50000000  0.64401000  0.90869000  1.0
  In  In8  1  0.75000000  0.50000000  0.09527000  1.0
  In  In9  1  0.75001000  0.92584000  0.97147000  1.0
  In  In10  1  0.25000000  0.50000000  0.09527000  1.0
  In  In11  1  0.24999000  0.92584000  0.97147000  1.0
  Ge  Ge12  1  0.75000000  0.00000000  0.09527000  1.0
  Ge  Ge13  1  0.74997000  0.40844000  0.95626000  1.0
  Ge  Ge14  1  0.25000000  0.00000000  0.09527000  1.0
  Ge  Ge15  1  0.25003000  0.40844000  0.95626000  1.0
