# generated using pymatgen
data_Ti8Al8Cu16CO
_symmetry_space_group_name_H-M   Pmm2
_cell_length_a   6.05884000
_cell_length_b   8.56849000
_cell_length_c   26.42640000
_cell_angle_alpha   90.00000000
_cell_angle_beta   90.00000000
_cell_angle_gamma   90.00000000
_symmetry_Int_Tables_number   25
_chemical_formula_structural   Ti8Al8Cu16CO
_chemical_formula_sum   'Ti8 Al8 Cu16 C1 O1'
_cell_volume   1371.92946162
_cell_formula_units_Z   1
loop_
 _symmetry_equiv_pos_site_id
 _symmetry_equiv_pos_as_xyz
  1  'x, y, z'
  2  '-x, -y, z'
  3  '-x, y, z'
  4  'x, -y, z'
loop_
 _atom_site_type_symbol
 _atom_site_label
 _atom_site_symmetry_multiplicity
 _atom_site_fract_x
 _atom_site_fract_y
 _atom_site_fract_z
 _atom_site_occupancy
  Ti  Ti0  2  0.00000000  0.25000000  0.87841000  1.0
  Ti  Ti1  2  0.00000000  0.25072000  0.04160000  1.0
  Ti  Ti2  1  0.50000000  0.00000000  0.11913000  1.0
  Ti  Ti3  1  0.50000000  0.00000000  0.95947000  1.0
  Ti  Ti4  1  0.50000000  0.50000000  0.12015000  1.0
  Ti  Ti5  1  0.50000000  0.50000000  0.95947000  1.0
  Al  Al6  2  0.50000000  0.24952000  0.04072000  1.0
  Al  Al7  2  0.50000000  0.25000000  0.87841000  1.0
  Al  Al8  1  0.00000000  0.00000000  0.12163000  1.0
  Al  Al9  1  0.00000000  0.00000000  0.95947000  1.0
  Al  Al10  1  0.00000000  0.50000000  0.12167000  1.0
  Al  Al11  1  0.00000000  0.50000000  0.95947000  1.0
  Cu  Cu12  4  0.25000000  0.25000000  0.95947000  1.0
  Cu  Cu13  4  0.25165000  0.25002000  0.12220000  1.0
  Cu  Cu14  2  0.24701000  0.00000000  0.03913000  1.0
  Cu  Cu15  2  0.25000000  0.00000000  0.87841000  1.0
  Cu  Cu16  2  0.25000000  0.50000000  0.87841000  1.0
  Cu  Cu17  2  0.25389000  0.50000000  0.04012000  1.0
  C  C18  1  0.50000000  0.00000000  0.19804000  1.0
  O  O19  1  0.50000000  0.00000000  0.24176000  1.0
