# generated using pymatgen
data_In8Rh8C
_symmetry_space_group_name_H-M   P4mm
_cell_length_a   6.51708000
_cell_length_b   6.51708000
_cell_length_c   24.88780000
_cell_angle_alpha   90.00000000
_cell_angle_beta   90.00000000
_cell_angle_gamma   90.00000000
_symmetry_Int_Tables_number   99
_chemical_formula_structural   In8Rh8C
_chemical_formula_sum   'In8 Rh8 C1'
_cell_volume   1057.04289754
_cell_formula_units_Z   1
loop_
 _symmetry_equiv_pos_site_id
 _symmetry_equiv_pos_as_xyz
  1  'x, y, z'
  2  '-y, x, z'
  3  '-x, -y, z'
  4  'y, -x, z'
  5  '-x, y, z'
  6  'y, x, z'
  7  'x, -y, z'
  8  '-y, -x, z'
loop_
 _atom_site_type_symbol
 _atom_site_label
 _atom_site_symmetry_multiplicity
 _atom_site_fract_x
 _atom_site_fract_y
 _atom_site_fract_z
 _atom_site_occupancy
  In  In0  4  0.25000000  0.25000000  0.09999000  1.0
  In  In1  4  0.25000000  0.25000000  0.96906000  1.0
  Rh  Rh2  2  0.00000000  0.50000000  0.03452000  1.0
  Rh  Rh3  2  0.00000000  0.50000000  0.90359000  1.0
  Rh  Rh4  1  0.00000000  0.00000000  0.03452000  1.0
  Rh  Rh5  1  0.00000000  0.00000000  0.90359000  1.0
  Rh  Rh6  1  0.50000000  0.50000000  0.03452000  1.0
  Rh  Rh7  1  0.50000000  0.50000000  0.90359000  1.0
  C  C8  1  0.00000000  0.00000000  0.13213000  1.0
