# generated using pymatgen
data_TiAlFe2
_symmetry_space_group_name_H-M   Pmm2
_cell_length_a   4.12869500
_cell_length_b   5.83886000
_cell_length_c   26.19300000
_cell_angle_alpha   90.00000000
_cell_angle_beta   90.00000000
_cell_angle_gamma   90.00000000
_symmetry_Int_Tables_number   25
_chemical_formula_structural   TiAlFe2
_chemical_formula_sum   'Ti4 Al4 Fe8'
_cell_volume   631.43130059
_cell_formula_units_Z   4
loop_
 _symmetry_equiv_pos_site_id
 _symmetry_equiv_pos_as_xyz
  1  'x, y, z'
  2  '-x, -y, z'
  3  '-x, y, z'
  4  'x, -y, z'
loop_
 _atom_site_type_symbol
 _atom_site_label
 _atom_site_symmetry_multiplicity
 _atom_site_fract_x
 _atom_site_fract_y
 _atom_site_fract_z
 _atom_site_occupancy
  Ti  Ti0  1  0.00000000  0.00000000  0.11822000  1.0
  Ti  Ti1  1  0.00000000  0.00000000  0.96182000  1.0
  Ti  Ti2  1  0.50000000  0.50000000  0.03941000  1.0
  Ti  Ti3  1  0.50000000  0.50000000  0.88168500  1.0
  Al  Al4  1  0.00000000  0.50000000  0.11822000  1.0
  Al  Al5  1  0.00000000  0.50000000  0.96146000  1.0
  Al  Al6  1  0.50000000  0.00000000  0.03941000  1.0
  Al  Al7  1  0.50000000  0.00000000  0.87771500  1.0
  Fe  Fe8  2  0.00000000  0.24087500  0.88335000  1.0
  Fe  Fe9  2  0.00000000  0.25000000  0.03941000  1.0
  Fe  Fe10  2  0.50000000  0.25000000  0.11822000  1.0
  Fe  Fe11  2  0.50000000  0.25252000  0.95889500  1.0
