# generated using pymatgen
data_Li8Co8Ge8Pd8CO
_symmetry_space_group_name_H-M   Pm
_cell_length_a   5.88348000
_cell_length_b   8.32050000
_cell_length_c   26.24040000
_cell_angle_alpha   90.00000000
_cell_angle_beta   90.00000000
_cell_angle_gamma   90.00000000
_symmetry_Int_Tables_number   6
_chemical_formula_structural   Li8Co8Ge8Pd8CO
_chemical_formula_sum   'Li8 Co8 Ge8 Pd8 C1 O1'
_cell_volume   1284.55929912
_cell_formula_units_Z   1
loop_
 _symmetry_equiv_pos_site_id
 _symmetry_equiv_pos_as_xyz
  1  'x, y, z'
  2  'x, -y, z'
loop_
 _atom_site_type_symbol
 _atom_site_label
 _atom_site_symmetry_multiplicity
 _atom_site_fract_x
 _atom_site_fract_y
 _atom_site_fract_z
 _atom_site_occupancy
  Li  Li0  2  0.75000000  0.25000000  0.11891000  1.0
  Li  Li1  2  0.75000000  0.25000000  0.96036000  1.0
  Li  Li2  1  0.25000000  0.00000000  0.03964000  1.0
  Li  Li3  1  0.25000000  0.00000000  0.88109000  1.0
  Li  Li4  1  0.25000000  0.50000000  0.03964000  1.0
  Li  Li5  1  0.25000000  0.50000000  0.88109000  1.0
  Co  Co6  2  0.00000000  0.25000000  0.03964000  1.0
  Co  Co7  2  0.00000000  0.25000000  0.88109000  1.0
  Co  Co8  1  0.50000000  0.00000000  0.11891000  1.0
  Co  Co9  1  0.50000000  0.00000000  0.96036000  1.0
  Co  Co10  1  0.50000000  0.50000000  0.11891000  1.0
  Co  Co11  1  0.50000000  0.50000000  0.96036000  1.0
  Ge  Ge12  2  0.25000000  0.25000000  0.11891000  1.0
  Ge  Ge13  2  0.25000000  0.25000000  0.96036000  1.0
  Ge  Ge14  1  0.75000000  0.00000000  0.03964000  1.0
  Ge  Ge15  1  0.75000000  0.00000000  0.88109000  1.0
  Ge  Ge16  1  0.75000000  0.50000000  0.03964000  1.0
  Ge  Ge17  1  0.75000000  0.50000000  0.88109000  1.0
  Pd  Pd18  2  0.50000000  0.25000000  0.03964000  1.0
  Pd  Pd19  2  0.50000000  0.25000000  0.88109000  1.0
  Pd  Pd20  1  0.00000000  0.00000000  0.11891000  1.0
  Pd  Pd21  1  0.00000000  0.00000000  0.96036000  1.0
  Pd  Pd22  1  0.00000000  0.50000000  0.11891000  1.0
  Pd  Pd23  1  0.00000000  0.50000000  0.96036000  1.0
  C  C24  1  0.50000000  0.00000000  0.19132000  1.0
  O  O25  1  0.50000000  0.00000000  0.23514000  1.0
