# generated using pymatgen
data_LiMgInGe
_symmetry_space_group_name_H-M   Pmm2
_cell_length_a   8.41850000
_cell_length_b   8.75068000
_cell_length_c   26.30740000
_cell_angle_alpha   90.00000000
_cell_angle_beta   90.00000000
_cell_angle_gamma   90.00000000
_symmetry_Int_Tables_number   25
_chemical_formula_structural   LiMgInGe
_chemical_formula_sum   'Li8 Mg8 In8 Ge8'
_cell_volume   1938.00300919
_cell_formula_units_Z   8
loop_
 _symmetry_equiv_pos_site_id
 _symmetry_equiv_pos_as_xyz
  1  'x, y, z'
  2  '-x, -y, z'
  3  '-x, y, z'
  4  'x, -y, z'
  5  'x, y+1/2, z'
  6  '-x, -y+1/2, z'
  7  '-x, y+1/2, z'
  8  'x, -y+1/2, z'
  9  'x+1/2, y, z'
  10  '-x+1/2, -y, z'
  11  '-x+1/2, y, z'
  12  'x+1/2, -y, z'
  13  'x+1/2, y+1/2, z'
  14  '-x+1/2, -y+1/2, z'
  15  '-x+1/2, y+1/2, z'
  16  'x+1/2, -y+1/2, z'
loop_
 _atom_site_type_symbol
 _atom_site_label
 _atom_site_symmetry_multiplicity
 _atom_site_fract_x
 _atom_site_fract_y
 _atom_site_fract_z
 _atom_site_occupancy
  Li  Li0  4  0.25000000  0.25000000  0.11988000  1.0
  Li  Li1  4  0.25000000  0.25000000  0.95910000  1.0
  Mg  Mg2  4  0.00000000  0.00000000  0.11988000  1.0
  Mg  Mg3  4  0.00000000  0.00000000  0.95816000  1.0
  In  In4  4  0.00000000  0.24997000  0.86697000  1.0
  In  In5  4  0.00000000  0.25000000  0.03996000  1.0
  Ge  Ge6  4  0.24995000  0.50000000  0.88407000  1.0
  Ge  Ge7  4  0.25000000  0.00000000  0.03996000  1.0
