data_image0
_chemical_formula_structural       In8Pd8CO
_chemical_formula_sum              "In8 Pd8 C1 O1"
_cell_length_a       6.68646
_cell_length_b       6.68646
_cell_length_c       25.0148
_cell_angle_alpha    90
_cell_angle_beta     90
_cell_angle_gamma    90

_space_group_name_H-M_alt    "P 1"
_space_group_IT_number       1

loop_
  _space_group_symop_operation_xyz
  'x, y, z'

loop_
  _atom_site_type_symbol
  _atom_site_label
  _atom_site_symmetry_multiplicity
  _atom_site_fract_x
  _atom_site_fract_y
  _atom_site_fract_z
  _atom_site_occupancy
  In  In1       1.0  0.25000  0.25000  0.96786  1.0000
  In  In2       1.0  0.24789  0.24788  0.09476  1.0000
  In  In3       1.0  0.25000  0.75000  0.96786  1.0000
  In  In4       1.0  0.25023  0.74998  0.10919  1.0000
  In  In5       1.0  0.75000  0.25000  0.96786  1.0000
  In  In6       1.0  0.74996  0.25020  0.10920  1.0000
  In  In7       1.0  0.75000  0.75000  0.96786  1.0000
  In  In8       1.0  0.74914  0.74915  0.10682  1.0000
  Pd  Pd1       1.0  0.00000  0.00000  0.90103  1.0000
  Pd  Pd2       1.0  0.99515  0.99513  0.03536  1.0000
  Pd  Pd3       1.0  0.00000  0.50000  0.90103  1.0000
  Pd  Pd4       1.0  0.99682  0.50425  0.03569  1.0000
  Pd  Pd5       1.0  0.50000  0.00000  0.90103  1.0000
  Pd  Pd6       1.0  0.50425  0.99681  0.03569  1.0000
  Pd  Pd7       1.0  0.50000  0.50000  0.90103  1.0000
  Pd  Pd8       1.0  0.50267  0.50269  0.03598  1.0000
  C   C1        1.0  0.26030  0.26034  0.21195  1.0000
  O   O1        1.0  0.24412  0.24411  0.25693  1.0000
