# generated using pymatgen
data_In8Pd8CO
_symmetry_space_group_name_H-M   'P 1'
_cell_length_a   6.68646000
_cell_length_b   6.68646000
_cell_length_c   25.01480000
_cell_angle_alpha   90.00000000
_cell_angle_beta   90.00000000
_cell_angle_gamma   90.00000000
_symmetry_Int_Tables_number   1
_chemical_formula_structural   In8Pd8CO
_chemical_formula_sum   'In8 Pd8 C1 O1'
_cell_volume   1118.38037275
_cell_formula_units_Z   1
loop_
 _symmetry_equiv_pos_site_id
 _symmetry_equiv_pos_as_xyz
  1  'x, y, z'
loop_
 _atom_site_type_symbol
 _atom_site_label
 _atom_site_symmetry_multiplicity
 _atom_site_fract_x
 _atom_site_fract_y
 _atom_site_fract_z
 _atom_site_occupancy
  In  In0  1  0.25002000  0.74998000  0.03214000  1
  In  In1  1  0.24790500  0.75209500  0.90524000  1
  In  In2  1  0.75000000  0.74996000  0.03214000  1
  In  In3  1  0.74998000  0.74973000  0.89081000  1
  In  In4  1  0.25004000  0.25000000  0.03214000  1
  In  In5  1  0.25027000  0.25002000  0.89081000  1
  In  In6  1  0.75002000  0.24998000  0.03214000  1
  In  In7  1  0.74916500  0.25083500  0.89318000  1
  Pd  Pd8  1  0.00002000  0.99998000  0.09897000  1
  Pd  Pd9  1  0.99516000  0.00484000  0.96464000  1
  Pd  Pd10  1  0.50000000  0.99996000  0.09897000  1
  Pd  Pd11  1  0.50425000  0.00314000  0.96431000  1
  Pd  Pd12  1  0.00004000  0.50000000  0.09897000  1
  Pd  Pd13  1  0.99686000  0.49575000  0.96431000  1
  Pd  Pd14  1  0.50002000  0.49998000  0.09897000  1
  Pd  Pd15  1  0.50270000  0.49730000  0.96402000  1
  C  C16  1  0.26034000  0.73966000  0.78805000  1
  O  O17  1  0.24413500  0.75586500  0.74307000  1
