# generated using pymatgen
data_In8Pd8CO
_symmetry_space_group_name_H-M   Cm
_cell_length_a   9.45608242
_cell_length_b   9.45608242
_cell_length_c   25.01480000
_cell_angle_alpha   90.00000000
_cell_angle_beta   90.00000000
_cell_angle_gamma   90.00000000
_symmetry_Int_Tables_number   8
_chemical_formula_structural   In8Pd8CO
_chemical_formula_sum   'In16 Pd16 C2 O2'
_cell_volume   2236.76074550
_cell_formula_units_Z   2
loop_
 _symmetry_equiv_pos_site_id
 _symmetry_equiv_pos_as_xyz
  1  'x, y, z'
  2  'x, -y, z'
  3  'x+1/2, y+1/2, z'
  4  'x+1/2, -y+1/2, z'
loop_
 _atom_site_type_symbol
 _atom_site_label
 _atom_site_symmetry_multiplicity
 _atom_site_fract_x
 _atom_site_fract_y
 _atom_site_fract_z
 _atom_site_occupancy
  In  In0  4  0.00002000  0.25002000  0.96786000  1.0
  In  In1  4  0.00012500  0.25014500  0.10919000  1.0
  In  In2  2  0.24790500  0.00000000  0.09476000  1.0
  In  In3  2  0.24916500  0.50000000  0.10682000  1.0
  In  In4  2  0.25002000  0.00000000  0.96786000  1.0
  In  In5  2  0.25002000  0.50000000  0.96786000  1.0
  Pd  Pd6  4  0.25002000  0.24998000  0.90103000  1.0
  Pd  Pd7  4  0.25055500  0.25369500  0.03569000  1.0
  Pd  Pd8  2  0.00002000  0.00000000  0.90103000  1.0
  Pd  Pd9  2  0.00002000  0.50000000  0.90103000  1.0
  Pd  Pd10  2  0.00270000  0.50000000  0.03598000  1.0
  Pd  Pd11  2  0.49516000  0.50000000  0.03536000  1.0
  C  C12  2  0.26034000  0.00000000  0.21195000  1.0
  O  O13  2  0.24413500  0.00000000  0.25693000  1.0
