data_image0
_chemical_formula_structural       Li16Be16CO
_chemical_formula_sum              "Li16 Be16 C1 O1"
_cell_length_a       5.62306
_cell_length_b       7.95221
_cell_length_c       25.9642
_cell_angle_alpha    90
_cell_angle_beta     90
_cell_angle_gamma    90

_space_group_name_H-M_alt    "P 1"
_space_group_IT_number       1

loop_
  _space_group_symop_operation_xyz
  'x, y, z'

loop_
  _atom_site_type_symbol
  _atom_site_label
  _atom_site_symmetry_multiplicity
  _atom_site_fract_x
  _atom_site_fract_y
  _atom_site_fract_z
  _atom_site_occupancy
  Li  Li1       1.0  0.00000  0.00000  0.88515  1.0000
  Li  Li2       1.0  0.00000  0.25000  0.96172  1.0000
  Li  Li3       1.0  0.00963  0.99999  0.03344  1.0000
  Li  Li4       1.0  0.00233  0.24584  0.13451  1.0000
  Li  Li5       1.0  0.00000  0.50000  0.88515  1.0000
  Li  Li6       1.0  0.00000  0.75000  0.96172  1.0000
  Li  Li7       1.0  0.00043  0.50000  0.03276  1.0000
  Li  Li8       1.0  0.00232  0.75416  0.13451  1.0000
  Li  Li9       1.0  0.50000  0.00000  0.88515  1.0000
  Li  Li10      1.0  0.50000  0.25000  0.96172  1.0000
  Li  Li11      1.0  0.49037  1.00000  0.03343  1.0000
  Li  Li12      1.0  0.49768  0.24582  0.13451  1.0000
  Li  Li13      1.0  0.50000  0.50000  0.88515  1.0000
  Li  Li14      1.0  0.50000  0.75000  0.96172  1.0000
  Li  Li15      1.0  0.49957  0.50000  0.03274  1.0000
  Li  Li16      1.0  0.49768  0.75418  0.13451  1.0000
  Be  Be1       1.0  0.25000  0.25000  0.88515  1.0000
  Be  Be2       1.0  0.25000  0.00000  0.96172  1.0000
  Be  Be3       1.0  0.25002  0.25031  0.05424  1.0000
  Be  Be4       1.0  0.25000  0.00000  0.10552  1.0000
  Be  Be5       1.0  0.25000  0.75000  0.88515  1.0000
  Be  Be6       1.0  0.25000  0.50000  0.96172  1.0000
  Be  Be7       1.0  0.25003  0.74969  0.05424  1.0000
  Be  Be8       1.0  0.25012  0.50000  0.10100  1.0000
  Be  Be9       1.0  0.75000  0.25000  0.88515  1.0000
  Be  Be10      1.0  0.75000  0.00000  0.96172  1.0000
  Be  Be11      1.0  0.74998  0.25145  0.05395  1.0000
  Be  Be12      1.0  0.75000  1.00000  0.09792  1.0000
  Be  Be13      1.0  0.75000  0.75000  0.88515  1.0000
  Be  Be14      1.0  0.75000  0.50000  0.96172  1.0000
  Be  Be15      1.0  0.74997  0.74855  0.05395  1.0000
  Be  Be16      1.0  0.74989  0.50000  0.10242  1.0000
  C   C1        1.0  0.25000  0.00003  0.16822  1.0000
  O   O1        1.0  0.25000  0.00005  0.21419  1.0000
