# generated using pymatgen
data_Li16Be16CO
_symmetry_space_group_name_H-M   'P 1'
_cell_length_a   7.95221000
_cell_length_b   5.62306000
_cell_length_c   25.96420000
_cell_angle_alpha   90.00000000
_cell_angle_beta   90.00000000
_cell_angle_gamma   90.00000000
_symmetry_Int_Tables_number   1
_chemical_formula_structural   Li16Be16CO
_chemical_formula_sum   'Li16 Be16 C1 O1'
_cell_volume   1161.00877904
_cell_formula_units_Z   1
loop_
 _symmetry_equiv_pos_site_id
 _symmetry_equiv_pos_as_xyz
  1  'x, y, z'
loop_
 _atom_site_type_symbol
 _atom_site_label
 _atom_site_symmetry_multiplicity
 _atom_site_fract_x
 _atom_site_fract_y
 _atom_site_fract_z
 _atom_site_occupancy
  Li  Li0  1  0.00000000  0.00000000  0.11485000  1.0
  Li  Li1  1  0.24997000  1.00000000  0.03828000  1.0
  Li  Li2  1  0.00000000  0.00963000  0.96656000  1.0
  Li  Li3  1  0.24581000  0.00233000  0.86549000  1.0
  Li  Li4  1  0.50000000  1.00000000  0.11485000  1.0
  Li  Li5  1  0.75003000  1.00000000  0.03828000  1.0
  Li  Li6  1  0.50000000  0.00043000  0.96724000  1.0
  Li  Li7  1  0.75419000  0.00233000  0.86549000  1.0
  Li  Li8  1  0.00000000  0.50000000  0.11485000  1.0
  Li  Li9  1  0.24997000  0.50000000  0.03828000  1.0
  Li  Li10  1  0.00000000  0.49037000  0.96657000  1.0
  Li  Li11  1  0.24579000  0.49768000  0.86549000  1.0
  Li  Li12  1  0.50000000  0.50000000  0.11485000  1.0
  Li  Li13  1  0.75003000  0.50000000  0.03828000  1.0
  Li  Li14  1  0.50000000  0.49957000  0.96726000  1.0
  Li  Li15  1  0.75421000  0.49768000  0.86549000  1.0
  Be  Be16  1  0.24997000  0.25000000  0.11485000  1.0
  Be  Be17  1  0.00000000  0.25000000  0.03828000  1.0
  Be  Be18  1  0.25028000  0.25002000  0.94576000  1.0
  Be  Be19  1  0.00000000  0.25000000  0.89448000  1.0
  Be  Be20  1  0.75003000  0.25000000  0.11485000  1.0
  Be  Be21  1  0.50000000  0.25000000  0.03828000  1.0
  Be  Be22  1  0.74972000  0.25002000  0.94576000  1.0
  Be  Be23  1  0.50000000  0.25012000  0.89900000  1.0
  Be  Be24  1  0.24997000  0.75000000  0.11485000  1.0
  Be  Be25  1  0.00000000  0.75000000  0.03828000  1.0
  Be  Be26  1  0.25142000  0.74998000  0.94605000  1.0
  Be  Be27  1  0.00000000  0.75000000  0.90208000  1.0
  Be  Be28  1  0.75003000  0.75000000  0.11485000  1.0
  Be  Be29  1  0.50000000  0.75000000  0.03828000  1.0
  Be  Be30  1  0.74858000  0.74998000  0.94605000  1.0
  Be  Be31  1  0.50000000  0.74989000  0.89758000  1.0
  C  C32  1  0.00000000  0.25000000  0.83178000  1.0
  O  O33  1  0.00000000  0.25000000  0.78581000  1.0
