# generated using pymatgen
data_Li16Be16CO
_symmetry_space_group_name_H-M   Pm
_cell_length_a   5.62306000
_cell_length_b   7.95221000
_cell_length_c   25.96420000
_cell_angle_alpha   90.00000000
_cell_angle_beta   90.00000000
_cell_angle_gamma   90.00000000
_symmetry_Int_Tables_number   6
_chemical_formula_structural   Li16Be16CO
_chemical_formula_sum   'Li16 Be16 C1 O1'
_cell_volume   1161.00877904
_cell_formula_units_Z   1
loop_
 _symmetry_equiv_pos_site_id
 _symmetry_equiv_pos_as_xyz
  1  'x, y, z'
  2  'x, -y, z'
loop_
 _atom_site_type_symbol
 _atom_site_label
 _atom_site_symmetry_multiplicity
 _atom_site_fract_x
 _atom_site_fract_y
 _atom_site_fract_z
 _atom_site_occupancy
  Li  Li0  2  -0.00000000  0.24997000  0.96172000  1.0
  Li  Li1  2  0.00233000  0.24581000  0.13451000  1.0
  Li  Li2  2  0.49768000  0.24579000  0.13451000  1.0
  Li  Li3  2  0.50000000  0.24997000  0.96172000  1.0
  Li  Li4  1  -0.00000000  0.50000000  0.88515000  1.0
  Li  Li5  1  0.00000000  0.00000000  0.88515000  1.0
  Li  Li6  1  0.00043000  0.50000000  0.03276000  1.0
  Li  Li7  1  0.00963000  0.00000000  0.03344000  1.0
  Li  Li8  1  0.49037000  0.00000000  0.03343000  1.0
  Li  Li9  1  0.49957000  0.50000000  0.03274000  1.0
  Li  Li10  1  0.50000000  0.00000000  0.88515000  1.0
  Li  Li11  1  0.50000000  0.50000000  0.88515000  1.0
  Be  Be12  2  0.25000000  0.24997000  0.88515000  1.0
  Be  Be13  2  0.25002000  0.25028000  0.05424000  1.0
  Be  Be14  2  0.74998000  0.25142000  0.05395000  1.0
  Be  Be15  2  0.75000000  0.24997000  0.88515000  1.0
  Be  Be16  1  0.25000000  0.00000000  0.10552000  1.0
  Be  Be17  1  0.25000000  0.00000000  0.96172000  1.0
  Be  Be18  1  0.25000000  0.50000000  0.96172000  1.0
  Be  Be19  1  0.25012000  0.50000000  0.10100000  1.0
  Be  Be20  1  0.74989000  0.50000000  0.10242000  1.0
  Be  Be21  1  0.75000000  0.00000000  0.09792000  1.0
  Be  Be22  1  0.75000000  0.00000000  0.96172000  1.0
  Be  Be23  1  0.75000000  0.50000000  0.96172000  1.0
  C  C24  1  0.25000000  0.00000000  0.16822000  1.0
  O  O25  1  0.25000000  0.00000000  0.21419000  1.0
