data_image0
_chemical_formula_structural       Sc4Al4Ga4Pd4CO
_chemical_formula_sum              "Sc4 Al4 Ga4 Pd4 C1 O1"
_cell_length_a       6.45143
_cell_length_b       6.45143
_cell_length_c       24.8386
_cell_angle_alpha    90
_cell_angle_beta     90
_cell_angle_gamma    90

_space_group_name_H-M_alt    "P 1"
_space_group_IT_number       1

loop_
  _space_group_symop_operation_xyz
  'x, y, z'

loop_
  _atom_site_type_symbol
  _atom_site_label
  _atom_site_symmetry_multiplicity
  _atom_site_fract_x
  _atom_site_fract_y
  _atom_site_fract_z
  _atom_site_occupancy
  Sc  Sc1       1.0  0.00000  0.50000  0.90260  1.0000
  Sc  Sc2       1.0  0.00018  0.99991  0.03684  1.0000
  Sc  Sc3       1.0  0.49960  0.49960  0.03665  1.0000
  Sc  Sc4       1.0  0.50000  0.00000  0.90260  1.0000
  Al  Al1       1.0  0.00000  0.00000  0.90260  1.0000
  Al  Al2       1.0  0.99639  0.50400  0.03493  1.0000
  Al  Al3       1.0  0.50267  0.99766  0.03535  1.0000
  Al  Al4       1.0  0.50000  0.50000  0.90260  1.0000
  Ga  Ga1       1.0  0.75000  0.25000  0.96753  1.0000
  Ga  Ga2       1.0  0.74951  0.75012  0.11098  1.0000
  Ga  Ga3       1.0  0.24821  0.25170  0.10433  1.0000
  Ga  Ga4       1.0  0.25000  0.75000  0.96753  1.0000
  Pd  Pd1       1.0  0.25000  0.25000  0.96753  1.0000
  Pd  Pd2       1.0  0.25032  0.74886  0.09195  1.0000
  Pd  Pd3       1.0  0.75130  0.25088  0.09199  1.0000
  Pd  Pd4       1.0  0.75000  0.75000  0.96753  1.0000
  C   C1        1.0  0.27088  0.23828  0.22114  1.0000
  O   O1        1.0  0.23791  0.25660  0.26582  1.0000
