# generated using pymatgen
data_Sc4Al4Ga4Pd4CO
_symmetry_space_group_name_H-M   P1
_cell_length_a   6.45143000
_cell_length_b   6.45143000
_cell_length_c   24.83860000
_cell_angle_alpha   90.00000000
_cell_angle_beta   90.00000000
_cell_angle_gamma   90.00000000
_symmetry_Int_Tables_number   1
_chemical_formula_structural   Sc4Al4Ga4Pd4CO
_chemical_formula_sum   'Sc4 Al4 Ga4 Pd4 C1 O1'
_cell_volume   1033.80610495
_cell_formula_units_Z   1
loop_
 _symmetry_equiv_pos_site_id
 _symmetry_equiv_pos_as_xyz
  1  'x, y, z'
loop_
 _atom_site_type_symbol
 _atom_site_label
 _atom_site_symmetry_multiplicity
 _atom_site_fract_x
 _atom_site_fract_y
 _atom_site_fract_z
 _atom_site_occupancy
  Sc  Sc0  1  0.00000000  0.50000000  0.90260000  1.0
  Sc  Sc1  1  0.00018000  0.99991000  0.03684000  1.0
  Sc  Sc2  1  0.49960000  0.49960000  0.03665000  1.0
  Sc  Sc3  1  0.50000000  0.00000000  0.90260000  1.0
  Al  Al4  1  0.00000000  0.00000000  0.90260000  1.0
  Al  Al5  1  0.50000000  0.50000000  0.90260000  1.0
  Al  Al6  1  0.50267000  0.99766000  0.03535000  1.0
  Al  Al7  1  0.99639000  0.50400000  0.03493000  1.0
  Ga  Ga8  1  0.24821000  0.25170000  0.10433000  1.0
  Ga  Ga9  1  0.25000000  0.75000000  0.96753000  1.0
  Ga  Ga10  1  0.74951000  0.75012000  0.11098000  1.0
  Ga  Ga11  1  0.75000000  0.25000000  0.96753000  1.0
  Pd  Pd12  1  0.25000000  0.25000000  0.96753000  1.0
  Pd  Pd13  1  0.25032000  0.74886000  0.09195000  1.0
  Pd  Pd14  1  0.75000000  0.75000000  0.96753000  1.0
  Pd  Pd15  1  0.75130000  0.25088000  0.09199000  1.0
  C  C16  1  0.27088000  0.23828000  0.22114000  1.0
  O  O17  1  0.23791000  0.25660000  0.26582000  1.0
