# generated using pymatgen
data_Ti8Co16Sn8CO
_symmetry_space_group_name_H-M   'P 1'
_cell_length_a   6.11439000
_cell_length_b   8.64705000
_cell_length_c   26.48530000
_cell_angle_alpha   90.00000000
_cell_angle_beta   90.00000000
_cell_angle_gamma   90.00000000
_symmetry_Int_Tables_number   1
_chemical_formula_structural   Ti8Co16Sn8CO
_chemical_formula_sum   'Ti8 Co16 Sn8 C1 O1'
_cell_volume   1400.31584520
_cell_formula_units_Z   1
loop_
 _symmetry_equiv_pos_site_id
 _symmetry_equiv_pos_as_xyz
  1  'x, y, z'
loop_
 _atom_site_type_symbol
 _atom_site_label
 _atom_site_symmetry_multiplicity
 _atom_site_fract_x
 _atom_site_fract_y
 _atom_site_fract_z
 _atom_site_occupancy
  Ti  Ti0  1  0.00000000  0.75001000  0.87757000  1.0
  Ti  Ti1  1  0.50000000  0.00000000  0.95919000  1.0
  Ti  Ti2  1  0.50000000  0.50000000  0.95919000  1.0
  Ti  Ti3  1  0.00000000  0.24999000  0.87757000  1.0
  Ti  Ti4  1  0.00000000  0.25086000  0.04285000  1.0
  Ti  Ti5  1  0.50000000  0.50000000  0.11899000  1.0
  Ti  Ti6  1  0.50000000  0.00000000  0.12047000  1.0
  Ti  Ti7  1  0.00000000  0.74914000  0.04285000  1.0
  Co  Co8  1  0.25000000  0.75001000  0.95919000  1.0
  Co  Co9  1  0.75000000  0.24999000  0.95919000  1.0
  Co  Co10  1  0.75000000  0.75001000  0.95919000  1.0
  Co  Co11  1  0.25000000  0.24999000  0.95919000  1.0
  Co  Co12  1  0.75000000  0.50000000  0.87757000  1.0
  Co  Co13  1  0.25000000  0.00000000  0.87757000  1.0
  Co  Co14  1  0.25000000  0.50000000  0.87757000  1.0
  Co  Co15  1  0.75000000  0.00000000  0.87757000  1.0
  Co  Co16  1  0.24201000  0.25171000  0.11590000  1.0
  Co  Co17  1  0.75799000  0.74829000  0.11590000  1.0
  Co  Co18  1  0.75799000  0.25171000  0.11590000  1.0
  Co  Co19  1  0.24201000  0.74829000  0.11590000  1.0
  Co  Co20  1  0.75522000  0.00000000  0.04162000  1.0
  Co  Co21  1  0.24953000  0.50000000  0.04296000  1.0
  Co  Co22  1  0.24478000  0.00000000  0.04162000  1.0
  Co  Co23  1  0.75047000  0.50000000  0.04296000  1.0
  Sn  Sn24  1  0.00000000  0.50000000  0.95919000  1.0
  Sn  Sn25  1  0.50000000  0.75001000  0.87757000  1.0
  Sn  Sn26  1  0.00000000  0.00000000  0.95919000  1.0
  Sn  Sn27  1  0.50000000  0.24999000  0.87757000  1.0
  Sn  Sn28  1  0.00000000  0.00000000  0.13059000  1.0
  Sn  Sn29  1  0.50000000  0.24840000  0.03953000  1.0
  Sn  Sn30  1  0.00000000  0.50000000  0.13280000  1.0
  Sn  Sn31  1  0.50000000  0.75160000  0.03953000  1.0
  C  C32  1  0.50000000  0.00000000  0.20129000  1.0
  O  O33  1  0.50000000  0.00000000  0.24475000  1.0
