# generated using pymatgen
data_Ti8Co16Sn8CO
_symmetry_space_group_name_H-M   Pmm2
_cell_length_a   6.11439000
_cell_length_b   8.64705000
_cell_length_c   26.48530000
_cell_angle_alpha   90.00000000
_cell_angle_beta   90.00000000
_cell_angle_gamma   90.00000000
_symmetry_Int_Tables_number   25
_chemical_formula_structural   Ti8Co16Sn8CO
_chemical_formula_sum   'Ti8 Co16 Sn8 C1 O1'
_cell_volume   1400.31584520
_cell_formula_units_Z   1
loop_
 _symmetry_equiv_pos_site_id
 _symmetry_equiv_pos_as_xyz
  1  'x, y, z'
  2  '-x, -y, z'
  3  '-x, y, z'
  4  'x, -y, z'
loop_
 _atom_site_type_symbol
 _atom_site_label
 _atom_site_symmetry_multiplicity
 _atom_site_fract_x
 _atom_site_fract_y
 _atom_site_fract_z
 _atom_site_occupancy
  Ti  Ti0  2  0.00000000  0.24999000  0.87757000  1.0
  Ti  Ti1  2  0.00000000  0.25086000  0.04285000  1.0
  Ti  Ti2  1  0.50000000  0.00000000  0.12047000  1.0
  Ti  Ti3  1  0.50000000  0.00000000  0.95919000  1.0
  Ti  Ti4  1  0.50000000  0.50000000  0.11899000  1.0
  Ti  Ti5  1  0.50000000  0.50000000  0.95919000  1.0
  Co  Co6  4  0.24201000  0.25171000  0.11590000  1.0
  Co  Co7  4  0.25000000  0.24999000  0.95919000  1.0
  Co  Co8  2  0.24478000  0.00000000  0.04162000  1.0
  Co  Co9  2  0.24953000  0.50000000  0.04296000  1.0
  Co  Co10  2  0.25000000  0.00000000  0.87757000  1.0
  Co  Co11  2  0.25000000  0.50000000  0.87757000  1.0
  Sn  Sn12  2  0.50000000  0.24840000  0.03953000  1.0
  Sn  Sn13  2  0.50000000  0.24999000  0.87757000  1.0
  Sn  Sn14  1  0.00000000  0.00000000  0.13059000  1.0
  Sn  Sn15  1  0.00000000  0.00000000  0.95919000  1.0
  Sn  Sn16  1  0.00000000  0.50000000  0.13280000  1.0
  Sn  Sn17  1  0.00000000  0.50000000  0.95919000  1.0
  C  C18  1  0.50000000  0.00000000  0.20129000  1.0
  O  O19  1  0.50000000  0.00000000  0.24475000  1.0
