data_image0
_chemical_formula_structural       Cu12Sb4CO
_chemical_formula_sum              "Cu12 Sb4 C1 O1"
_cell_length_a       6.30953
_cell_length_b       6.30953
_cell_length_c       24.7321
_cell_angle_alpha    90
_cell_angle_beta     90
_cell_angle_gamma    90

_space_group_name_H-M_alt    "P 1"
_space_group_IT_number       1

loop_
  _space_group_symop_operation_xyz
  'x, y, z'

loop_
  _atom_site_type_symbol
  _atom_site_label
  _atom_site_symmetry_multiplicity
  _atom_site_fract_x
  _atom_site_fract_y
  _atom_site_fract_z
  _atom_site_occupancy
  Cu  Cu1       1.0  0.23522  0.26477  0.03670  1.0000
  Cu  Cu2       1.0  0.75000  0.75000  0.90433  1.0000
  Cu  Cu3       1.0  0.76478  0.26478  0.03670  1.0000
  Cu  Cu4       1.0  0.25000  0.75000  0.90433  1.0000
  Cu  Cu5       1.0  0.76478  0.73524  0.03670  1.0000
  Cu  Cu6       1.0  0.25000  0.25000  0.90433  1.0000
  Cu  Cu7       1.0  0.23522  0.73525  0.03670  1.0000
  Cu  Cu8       1.0  0.75000  0.25000  0.90433  1.0000
  Cu  Cu9       1.0  0.00000  0.00000  0.96811  1.0000
  Cu  Cu10      1.0  0.50000  0.00001  0.07835  1.0000
  Cu  Cu11      1.0  0.00001  0.50001  0.10188  1.0000
  Cu  Cu12      1.0  0.50000  0.50000  0.96811  1.0000
  Sb  Sb1       1.0  1.00000  0.00000  0.09889  1.0000
  Sb  Sb2       1.0  0.49999  0.50000  0.09888  1.0000
  Sb  Sb3       1.0  0.50000  0.00000  0.96811  1.0000
  Sb  Sb4       1.0  0.00000  0.50000  0.96811  1.0000
  C   C1        1.0  1.00000  0.49999  0.17761  1.0000
  O   O1        1.0  0.99999  0.49998  0.22389  1.0000
