# generated using pymatgen
data_Ga8Fe8Co16CO
_symmetry_space_group_name_H-M   'P 1'
_cell_length_a   5.74310000
_cell_length_b   8.12197000
_cell_length_c   26.09150000
_cell_angle_alpha   90.00000000
_cell_angle_beta   90.00000000
_cell_angle_gamma   90.00000000
_symmetry_Int_Tables_number   1
_chemical_formula_structural   Ga8Fe8Co16CO
_chemical_formula_sum   'Ga8 Fe8 Co16 C1 O1'
_cell_volume   1217.04547724
_cell_formula_units_Z   1
loop_
 _symmetry_equiv_pos_site_id
 _symmetry_equiv_pos_as_xyz
  1  'x, y, z'
loop_
 _atom_site_type_symbol
 _atom_site_label
 _atom_site_symmetry_multiplicity
 _atom_site_fract_x
 _atom_site_fract_y
 _atom_site_fract_z
 _atom_site_occupancy
  Ga  Ga0  1  0.00000000  0.00000000  0.88327000  1.0
  Ga  Ga1  1  0.50000000  0.25000000  0.96109000  1.0
  Ga  Ga2  1  0.50000000  0.75000000  0.96109000  1.0
  Ga  Ga3  1  0.00000000  0.50000000  0.88327000  1.0
  Ga  Ga4  1  0.99999000  0.49986000  0.03834000  1.0
  Ga  Ga5  1  0.50001000  0.74995000  0.12353000  1.0
  Ga  Ga6  1  0.50001000  0.25009000  0.12389000  1.0
  Ga  Ga7  1  0.99999000  0.00012000  0.03833000  1.0
  Fe  Fe8  1  0.00000000  0.75000000  0.96109000  1.0
  Fe  Fe9  1  0.50000000  0.00000000  0.88327000  1.0
  Fe  Fe10  1  0.00000000  0.25000000  0.96109000  1.0
  Fe  Fe11  1  0.50000000  0.50000000  0.88327000  1.0
  Fe  Fe12  1  0.99999000  0.25005000  0.11473000  1.0
  Fe  Fe13  1  0.50000000  0.50006000  0.03918000  1.0
  Fe  Fe14  1  0.99999000  0.74995000  0.11462000  1.0
  Fe  Fe15  1  0.50000000  0.99993000  0.03918000  1.0
  Co  Co16  1  0.25000000  0.00000000  0.96109000  1.0
  Co  Co17  1  0.75000000  0.50000000  0.96109000  1.0
  Co  Co18  1  0.75000000  0.00000000  0.96109000  1.0
  Co  Co19  1  0.25000000  0.50000000  0.96109000  1.0
  Co  Co20  1  0.75000000  0.75000000  0.88327000  1.0
  Co  Co21  1  0.25000000  0.25000000  0.88327000  1.0
  Co  Co22  1  0.25000000  0.75000000  0.88327000  1.0
  Co  Co23  1  0.75000000  0.25000000  0.88327000  1.0
  Co  Co24  1  0.25436000  0.49985000  0.11442000  1.0
  Co  Co25  1  0.74560000  0.00017000  0.11441000  1.0
  Co  Co26  1  0.74564000  0.49984000  0.11442000  1.0
  Co  Co27  1  0.25440000  0.00017000  0.11441000  1.0
  Co  Co28  1  0.74738000  0.25002000  0.04001000  1.0
  Co  Co29  1  0.25241000  0.74997000  0.03997000  1.0
  Co  Co30  1  0.25261000  0.25002000  0.04001000  1.0
  Co  Co31  1  0.74758000  0.74997000  0.03997000  1.0
  C  C32  1  0.50015000  0.25006000  0.27441000  1.0
  O  O33  1  0.49998000  0.24994000  0.31790000  1.0
