# generated using pymatgen
data_ScMnInPd
_symmetry_space_group_name_H-M   Pm
_cell_length_a   6.62299000
_cell_length_b   4.68316000
_cell_length_c   27.02470000
_cell_angle_alpha   90.00000000
_cell_angle_beta   90.00000000
_cell_angle_gamma   90.00000000
_symmetry_Int_Tables_number   6
_chemical_formula_structural   ScMnInPd
_chemical_formula_sum   'Sc4 Mn4 In4 Pd4'
_cell_volume   838.21219800
_cell_formula_units_Z   4
loop_
 _symmetry_equiv_pos_site_id
 _symmetry_equiv_pos_as_xyz
  1  'x, y, z'
  2  'x, -y, z'
loop_
 _atom_site_type_symbol
 _atom_site_label
 _atom_site_symmetry_multiplicity
 _atom_site_fract_x
 _atom_site_fract_y
 _atom_site_fract_z
 _atom_site_occupancy
  Sc  Sc0  1  0.00000000  0.50000000  0.04332000  1.0
  Sc  Sc1  1  0.49472500  0.00000000  0.95728000  1.0
  Sc  Sc2  1  0.50000000  0.00000000  0.12997000  1.0
  Sc  Sc3  1  0.99236000  0.50000000  0.87162000  1.0
  Mn  Mn4  1  0.25000000  0.00000000  0.04332000  1.0
  Mn  Mn5  1  0.26895500  0.00000000  0.86397000  1.0
  Mn  Mn6  1  0.74939500  0.50000000  0.95289000  1.0
  Mn  Mn7  1  0.75000000  0.50000000  0.12997000  1.0
  In  In8  1  0.00000000  0.00000000  0.12997000  1.0
  In  In9  1  0.00746500  0.00000000  0.95608500  1.0
  In  In10  1  0.49801500  0.50000000  0.86330500  1.0
  In  In11  1  0.50000000  0.50000000  0.04332000  1.0
  Pd  Pd12  1  0.24962000  0.50000000  0.95720000  1.0
  Pd  Pd13  1  0.25000000  0.50000000  0.12997000  1.0
  Pd  Pd14  1  0.73583500  0.00000000  0.87804000  1.0
  Pd  Pd15  1  0.75000000  0.00000000  0.04332000  1.0
