# generated using pymatgen
data_Li4Sc4Ga4Ge4CO
_symmetry_space_group_name_H-M   'P 1'
_cell_length_a   7.95848000
_cell_length_b   5.81702000
_cell_length_c   24.35990000
_cell_angle_alpha   90.00000000
_cell_angle_beta   90.00000000
_cell_angle_gamma   90.00000000
_symmetry_Int_Tables_number   1
_chemical_formula_structural   Li4Sc4Ga4Ge4CO
_chemical_formula_sum   'Li4 Sc4 Ga4 Ge4 C1 O1'
_cell_volume   1127.73273589
_cell_formula_units_Z   1
loop_
 _symmetry_equiv_pos_site_id
 _symmetry_equiv_pos_as_xyz
  1  'x, y, z'
loop_
 _atom_site_type_symbol
 _atom_site_label
 _atom_site_symmetry_multiplicity
 _atom_site_fract_x
 _atom_site_fract_y
 _atom_site_fract_z
 _atom_site_occupancy
  Li  Li0  1  0.50000000  0.75900000  0.97017000  1.0
  Li  Li1  1  0.50000000  0.28560000  0.08668000  1.0
  Li  Li2  1  0.00000000  0.75900000  0.97017000  1.0
  Li  Li3  1  0.00000000  0.28434000  0.08805000  1.0
  Sc  Sc4  1  0.50000000  0.25900000  0.97017000  1.0
  Sc  Sc5  1  0.50000000  0.78615000  0.08619000  1.0
  Sc  Sc6  1  0.00000000  0.25900000  0.97017000  1.0
  Sc  Sc7  1  0.00000000  0.78378000  0.08398000  1.0
  Ga  Ga8  1  0.75001000  0.00000000  0.91051000  1.0
  Ga  Ga9  1  0.75011000  0.53011000  0.02701000  1.0
  Ga  Ga10  1  0.24999000  0.00000000  0.91051000  1.0
  Ga  Ga11  1  0.24989000  0.53011000  0.02701000  1.0
  Ge  Ge12  1  0.75001000  0.50000000  0.91051000  1.0
  Ge  Ge13  1  0.75004000  0.03009000  0.03586000  1.0
  Ge  Ge14  1  0.24999000  0.50000000  0.91051000  1.0
  Ge  Ge15  1  0.24996000  0.03009000  0.03586000  1.0
  C  C16  1  0.50000000  0.27881000  0.16864000  1.0
  O  O17  1  0.50000000  0.27330000  0.21605000  1.0
