# generated using pymatgen
data_Li4Sc4Ga4Ge4CO
_symmetry_space_group_name_H-M   Pm
_cell_length_a   5.81702000
_cell_length_b   7.95848000
_cell_length_c   24.35990000
_cell_angle_alpha   90.00000000
_cell_angle_beta   90.00000000
_cell_angle_gamma   90.00000000
_symmetry_Int_Tables_number   6
_chemical_formula_structural   Li4Sc4Ga4Ge4CO
_chemical_formula_sum   'Li4 Sc4 Ga4 Ge4 C1 O1'
_cell_volume   1127.73273589
_cell_formula_units_Z   1
loop_
 _symmetry_equiv_pos_site_id
 _symmetry_equiv_pos_as_xyz
  1  'x, y, z'
  2  'x, -y, z'
loop_
 _atom_site_type_symbol
 _atom_site_label
 _atom_site_symmetry_multiplicity
 _atom_site_fract_x
 _atom_site_fract_y
 _atom_site_fract_z
 _atom_site_occupancy
  Li  Li0  1  0.28434000  0.00000000  0.91195000  1.0
  Li  Li1  1  0.28560000  0.50000000  0.91332000  1.0
  Li  Li2  1  0.75900000  0.00000000  0.02983000  1.0
  Li  Li3  1  0.75900000  0.50000000  0.02983000  1.0
  Sc  Sc4  1  0.25900000  0.00000000  0.02983000  1.0
  Sc  Sc5  1  0.25900000  0.50000000  0.02983000  1.0
  Sc  Sc6  1  0.78378000  0.00000000  0.91602000  1.0
  Sc  Sc7  1  0.78615000  0.50000000  0.91381000  1.0
  Ga  Ga8  2  0.00000000  0.24999000  0.08949000  1.0
  Ga  Ga9  2  0.53011000  0.24989000  0.97299000  1.0
  Ge  Ge10  2  0.03009000  0.24996000  0.96414000  1.0
  Ge  Ge11  2  0.50000000  0.24999000  0.08949000  1.0
  C  C12  1  0.27881000  0.50000000  0.83136000  1.0
  O  O13  1  0.27330000  0.50000000  0.78395000  1.0
