data_image0
_chemical_formula_structural       Y4In4Cu4Pd4C
_chemical_formula_sum              "Y4 In4 Cu4 Pd4 C1"
_cell_length_a       6.76944
_cell_length_b       6.76944
_cell_length_c       25.0771
_cell_angle_alpha    90
_cell_angle_beta     90
_cell_angle_gamma    90

_space_group_name_H-M_alt    "P 1"
_space_group_IT_number       1

loop_
  _space_group_symop_operation_xyz
  'x, y, z'

loop_
  _atom_site_type_symbol
  _atom_site_label
  _atom_site_symmetry_multiplicity
  _atom_site_fract_x
  _atom_site_fract_y
  _atom_site_fract_z
  _atom_site_occupancy
  Y   Y1        1.0  0.74972  0.25028  0.02686  1.0000
  Y   Y2        1.0  0.75000  0.75000  0.89877  1.0000
  Y   Y3        1.0  0.25000  0.25000  0.89877  1.0000
  Y   Y4        1.0  0.24965  0.75035  0.04124  1.0000
  In  In1       1.0  0.24973  0.25037  0.04381  1.0000
  In  In2       1.0  0.25000  0.75000  0.89877  1.0000
  In  In3       1.0  0.75000  0.25000  0.89877  1.0000
  In  In4       1.0  0.74963  0.75027  0.04381  1.0000
  Cu  Cu1       1.0  0.95224  0.04776  0.10776  1.0000
  Cu  Cu2       1.0  0.00000  0.50000  0.96626  1.0000
  Cu  Cu3       1.0  0.50000  0.00000  0.96626  1.0000
  Cu  Cu4       1.0  0.54654  0.45347  0.10738  1.0000
  Pd  Pd1       1.0  0.95887  0.46001  0.10527  1.0000
  Pd  Pd2       1.0  0.00000  0.00000  0.96626  1.0000
  Pd  Pd3       1.0  0.50000  0.50000  0.96626  1.0000
  Pd  Pd4       1.0  0.53999  0.04113  0.10527  1.0000
  C   C1        1.0  0.74893  0.25107  0.12772  1.0000
