# generated using pymatgen
data_Y4In4Cu4Pd4C
_symmetry_space_group_name_H-M   Cm
_cell_length_a   9.57343386
_cell_length_b   9.57343386
_cell_length_c   25.07710000
_cell_angle_alpha   90.00000000
_cell_angle_beta   90.00000000
_cell_angle_gamma   90.00000000
_symmetry_Int_Tables_number   8
_chemical_formula_structural   Y4In4Cu4Pd4C
_chemical_formula_sum   'Y8 In8 Cu8 Pd8 C2'
_cell_volume   2298.33215970
_cell_formula_units_Z   2
loop_
 _symmetry_equiv_pos_site_id
 _symmetry_equiv_pos_as_xyz
  1  'x, y, z'
  2  'x, -y, z'
  3  'x+1/2, y+1/2, z'
  4  'x+1/2, -y+1/2, z'
loop_
 _atom_site_type_symbol
 _atom_site_label
 _atom_site_symmetry_multiplicity
 _atom_site_fract_x
 _atom_site_fract_y
 _atom_site_fract_z
 _atom_site_occupancy
  Y  Y0  4  0.00000000  0.25000000  0.89877000  1.0
  Y  Y1  2  0.24965000  0.00000000  0.04124000  1.0
  Y  Y2  2  0.24972000  0.50000000  0.02686000  1.0
  In  In3  4  0.49968000  0.24995000  0.04381000  1.0
  In  In4  2  0.25000000  0.50000000  0.89877000  1.0
  In  In5  2  0.25000000  0.00000000  0.89877000  1.0
  Cu  Cu6  4  0.25000000  0.25000000  0.96626000  1.0
  Cu  Cu7  2  0.04653500  0.50000000  0.10738000  1.0
  Cu  Cu8  2  0.45224000  0.50000000  0.10776000  1.0
  Pd  Pd9  4  0.24943000  0.29056000  0.10527000  1.0
  Pd  Pd10  2  0.00000000  0.00000000  0.96626000  1.0
  Pd  Pd11  2  0.00000000  0.50000000  0.96626000  1.0
  C  C12  2  0.24893000  0.50000000  0.12772000  1.0
