# generated using pymatgen
data_Li16Ga8Rh8C
_symmetry_space_group_name_H-M   'P 1'
_cell_length_a   8.53335000
_cell_length_b   6.03399000
_cell_length_c   26.40000000
_cell_angle_alpha   90.00000000
_cell_angle_beta   90.00000000
_cell_angle_gamma   90.00000000
_symmetry_Int_Tables_number   1
_chemical_formula_structural   Li16Ga8Rh8C
_chemical_formula_sum   'Li16 Ga8 Rh8 C1'
_cell_volume   1359.33992216
_cell_formula_units_Z   1
loop_
 _symmetry_equiv_pos_site_id
 _symmetry_equiv_pos_as_xyz
  1  'x, y, z'
loop_
 _atom_site_type_symbol
 _atom_site_label
 _atom_site_symmetry_multiplicity
 _atom_site_fract_x
 _atom_site_fract_y
 _atom_site_fract_z
 _atom_site_occupancy
  Li  Li0  1  0.50000000  1.00000000  0.04040000  1.0
  Li  Li1  1  0.75000000  0.50000000  0.12121000  1.0
  Li  Li2  1  0.00000000  0.00000000  0.04040000  1.0
  Li  Li3  1  0.25000000  0.50000000  0.12121000  1.0
  Li  Li4  1  0.00000000  0.25000000  0.12121000  1.0
  Li  Li5  1  0.50000000  0.25000000  0.12121000  1.0
  Li  Li6  1  0.25000000  0.75000000  0.04040000  1.0
  Li  Li7  1  0.75000000  0.75000000  0.04040000  1.0
  Li  Li8  1  0.00000000  0.95717000  0.86023000  1.0
  Li  Li9  1  0.24343000  0.50714000  0.95792000  1.0
  Li  Li10  1  0.50000000  0.02388000  0.87914000  1.0
  Li  Li11  1  0.75657000  0.50714000  0.95792000  1.0
  Li  Li12  1  0.50000000  0.23990000  0.96456000  1.0
  Li  Li13  1  0.00000000  0.24056000  0.95422000  1.0
  Li  Li14  1  0.72758000  0.71353000  0.86048000  1.0
  Li  Li15  1  0.27242000  0.71353000  0.86048000  1.0
  Ga  Ga16  1  0.75000000  0.25000000  0.04040000  1.0
  Ga  Ga17  1  0.25000000  0.25000000  0.04040000  1.0
  Ga  Ga18  1  0.50000000  0.75000000  0.12121000  1.0
  Ga  Ga19  1  0.00000000  0.75000000  0.12121000  1.0
  Ga  Ga20  1  0.23452000  0.26225000  0.87481000  1.0
  Ga  Ga21  1  0.76548000  0.26225000  0.87481000  1.0
  Ga  Ga22  1  0.00000000  0.76782000  0.96698000  1.0
  Ga  Ga23  1  0.50000000  0.74691000  0.95915000  1.0
  Rh  Rh24  1  0.75000000  0.00000000  0.12121000  1.0
  Rh  Rh25  1  0.00000000  0.50000000  0.04040000  1.0
  Rh  Rh26  1  0.50000000  0.50000000  0.04040000  1.0
  Rh  Rh27  1  0.25000000  0.00000000  0.12121000  1.0
  Rh  Rh28  1  0.25088000  0.98968000  0.95334000  1.0
  Rh  Rh29  1  0.50000000  0.46052000  0.88862000  1.0
  Rh  Rh30  1  0.00000000  0.56598000  0.88670000  1.0
  Rh  Rh31  1  0.74912000  0.98968000  0.95334000  1.0
  C  C32  1  0.00000000  0.27902000  0.85806000  1.0
