# generated using pymatgen
data_Li16Ga8Rh8C
_symmetry_space_group_name_H-M   Pm
_cell_length_a   6.03399000
_cell_length_b   8.53335000
_cell_length_c   26.40000000
_cell_angle_alpha   90.00000000
_cell_angle_beta   90.00000000
_cell_angle_gamma   90.00000000
_symmetry_Int_Tables_number   6
_chemical_formula_structural   Li16Ga8Rh8C
_chemical_formula_sum   'Li16 Ga8 Rh8 C1'
_cell_volume   1359.33992216
_cell_formula_units_Z   1
loop_
 _symmetry_equiv_pos_site_id
 _symmetry_equiv_pos_as_xyz
  1  'x, y, z'
  2  'x, -y, z'
loop_
 _atom_site_type_symbol
 _atom_site_label
 _atom_site_symmetry_multiplicity
 _atom_site_fract_x
 _atom_site_fract_y
 _atom_site_fract_z
 _atom_site_occupancy
  Li  Li0  2  0.50000000  0.25000000  0.87879000  1.0
  Li  Li1  2  0.50714000  0.24343000  0.04208000  1.0
  Li  Li2  2  0.71353000  0.27242000  0.13952000  1.0
  Li  Li3  2  0.75000000  0.25000000  0.95960000  1.0
  Li  Li4  1  -0.00000000  0.50000000  0.95960000  1.0
  Li  Li5  1  0.00000000  0.00000000  0.95960000  1.0
  Li  Li6  1  0.02388000  0.50000000  0.12086000  1.0
  Li  Li7  1  0.23990000  0.50000000  0.03544000  1.0
  Li  Li8  1  0.24056000  0.00000000  0.04578000  1.0
  Li  Li9  1  0.25000000  0.00000000  0.87879000  1.0
  Li  Li10  1  0.25000000  0.50000000  0.87879000  1.0
  Li  Li11  1  0.95717000  0.00000000  0.13977000  1.0
  Ga  Ga12  2  0.25000000  0.25000000  0.95960000  1.0
  Ga  Ga13  2  0.26225000  0.23452000  0.12519000  1.0
  Ga  Ga14  1  0.74691000  0.50000000  0.04085000  1.0
  Ga  Ga15  1  0.75000000  0.00000000  0.87879000  1.0
  Ga  Ga16  1  0.75000000  0.50000000  0.87879000  1.0
  Ga  Ga17  1  0.76782000  0.00000000  0.03302000  1.0
  Rh  Rh18  2  0.00000000  0.25000000  0.87879000  1.0
  Rh  Rh19  2  0.98968000  0.25088000  0.04666000  1.0
  Rh  Rh20  1  0.46052000  0.50000000  0.11138000  1.0
  Rh  Rh21  1  0.50000000  0.00000000  0.95960000  1.0
  Rh  Rh22  1  0.50000000  0.50000000  0.95960000  1.0
  Rh  Rh23  1  0.56598000  0.00000000  0.11330000  1.0
  C  C24  1  0.27902000  0.00000000  0.14194000  1.0
