# generated using pymatgen
data_Sc8Ga8Cu8Pd8CO
_symmetry_space_group_name_H-M   Pm
_cell_length_a   6.33027000
_cell_length_b   8.95236000
_cell_length_c   26.71430000
_cell_angle_alpha   90.00000000
_cell_angle_beta   90.00000000
_cell_angle_gamma   90.00000000
_symmetry_Int_Tables_number   6
_chemical_formula_structural   Sc8Ga8Cu8Pd8CO
_chemical_formula_sum   'Sc8 Ga8 Cu8 Pd8 C1 O1'
_cell_volume   1513.92224676
_cell_formula_units_Z   1
loop_
 _symmetry_equiv_pos_site_id
 _symmetry_equiv_pos_as_xyz
  1  'x, y, z'
  2  'x, -y, z'
loop_
 _atom_site_type_symbol
 _atom_site_label
 _atom_site_symmetry_multiplicity
 _atom_site_fract_x
 _atom_site_fract_y
 _atom_site_fract_z
 _atom_site_occupancy
  Sc  Sc0  2  0.24885000  0.25350000  0.04192000  1.0
  Sc  Sc1  2  0.25000000  0.25000000  0.87433000  1.0
  Sc  Sc2  1  0.74795000  0.50000000  0.13167000  1.0
  Sc  Sc3  1  0.75000000  0.00000000  0.95811000  1.0
  Sc  Sc4  1  0.75000000  0.50000000  0.95811000  1.0
  Sc  Sc5  1  0.75278000  0.00000000  0.12839000  1.0
  Ga  Ga6  2  0.75000000  0.25000000  0.87433000  1.0
  Ga  Ga7  2  0.75217000  0.24677000  0.04516000  1.0
  Ga  Ga8  1  0.25000000  0.00000000  0.95811000  1.0
  Ga  Ga9  1  0.25000000  0.50000000  0.95811000  1.0
  Ga  Ga10  1  0.25064000  0.00000000  0.12471000  1.0
  Ga  Ga11  1  0.25334000  0.50000000  0.12561000  1.0
  Cu  Cu12  2  0.47995000  0.24976000  0.12638000  1.0
  Cu  Cu13  2  0.50000000  0.25000000  0.95811000  1.0
  Cu  Cu14  1  0.00000000  0.00000000  0.87433000  1.0
  Cu  Cu15  1  0.00000000  0.50000000  0.87433000  1.0
  Cu  Cu16  1  0.97907000  0.50000000  0.04594000  1.0
  Cu  Cu17  1  0.99672000  0.00000000  0.04245000  1.0
  Pd  Pd18  2  0.00000000  0.25000000  0.95811000  1.0
  Pd  Pd19  2  0.01619000  0.25265000  0.12488000  1.0
  Pd  Pd20  1  0.50000000  0.00000000  0.87433000  1.0
  Pd  Pd21  1  0.50000000  0.50000000  0.87433000  1.0
  Pd  Pd22  1  0.50645000  0.00000000  0.04237000  1.0
  Pd  Pd23  1  0.51854000  0.50000000  0.04403000  1.0
  C  C24  1  0.74133000  0.00000000  0.21579000  1.0
  O  O25  1  0.74093000  0.00000000  0.25866000  1.0
