# generated using pymatgen
data_LiYAgSn
_symmetry_space_group_name_H-M   'P 1'
_cell_length_a   10.05810000
_cell_length_b   7.11214000
_cell_length_c   27.54360000
_cell_angle_alpha   90.00000000
_cell_angle_beta   90.00000000
_cell_angle_gamma   90.00000000
_symmetry_Int_Tables_number   1
_chemical_formula_structural   LiYAgSn
_chemical_formula_sum   'Li8 Y8 Ag8 Sn8'
_cell_volume   1970.32083091
_cell_formula_units_Z   8
loop_
 _symmetry_equiv_pos_site_id
 _symmetry_equiv_pos_as_xyz
  1  'x, y, z'
loop_
 _atom_site_type_symbol
 _atom_site_label
 _atom_site_symmetry_multiplicity
 _atom_site_fract_x
 _atom_site_fract_y
 _atom_site_fract_z
 _atom_site_occupancy
  Li  Li0  1  0.00000000  0.25000000  0.04565000  1.0
  Li  Li1  1  0.50000000  0.25000000  0.04565000  1.0
  Li  Li2  1  0.25000000  0.75000000  0.13694000  1.0
  Li  Li3  1  0.75000000  0.75000000  0.13694000  1.0
  Li  Li4  1  0.50000000  0.23855000  0.86722000  1.0
  Li  Li5  1  0.00000000  0.24001000  0.86705000  1.0
  Li  Li6  1  0.75014000  0.75304000  0.95341000  1.0
  Li  Li7  1  0.24986000  0.75304000  0.95341000  1.0
  Y  Y8  1  0.00000000  0.75000000  0.04565000  1.0
  Y  Y9  1  0.50000000  0.75000000  0.04565000  1.0
  Y  Y10  1  0.25000000  0.25000000  0.13694000  1.0
  Y  Y11  1  0.75000000  0.25000000  0.13694000  1.0
  Y  Y12  1  0.50000000  0.76267000  0.86053000  1.0
  Y  Y13  1  0.00000000  0.76267000  0.86054000  1.0
  Y  Y14  1  0.74995000  0.24576000  0.95298000  1.0
  Y  Y15  1  0.25005000  0.24576000  0.95298000  1.0
  Ag  Ag16  1  0.00000000  0.00000000  0.13694000  1.0
  Ag  Ag17  1  0.50000000  0.00000000  0.13694000  1.0
  Ag  Ag18  1  0.75000000  0.50000000  0.04565000  1.0
  Ag  Ag19  1  0.25000000  0.50000000  0.04565000  1.0
  Ag  Ag20  1  0.50000000  0.99021000  0.95349000  1.0
  Ag  Ag21  1  0.00000000  0.99048000  0.95345000  1.0
  Ag  Ag22  1  0.25002000  0.50275000  0.86730000  1.0
  Ag  Ag23  1  0.74998000  0.50275000  0.86730000  1.0
  Sn  Sn24  1  0.25000000  0.00000000  0.04565000  1.0
  Sn  Sn25  1  0.75000000  0.00000000  0.04565000  1.0
  Sn  Sn26  1  0.50000000  0.50000000  0.13694000  1.0
  Sn  Sn27  1  0.00000000  0.50000000  0.13694000  1.0
  Sn  Sn28  1  0.75013000  0.01742000  0.85500000  1.0
  Sn  Sn29  1  0.24987000  0.01742000  0.85500000  1.0
  Sn  Sn30  1  0.00000000  0.50508000  0.95121000  1.0
  Sn  Sn31  1  0.50000000  0.50526000  0.95116000  1.0
