# generated using pymatgen
data_LiYAgSn
_symmetry_space_group_name_H-M   Pm
_cell_length_a   7.11214000
_cell_length_b   10.05810000
_cell_length_c   27.54360000
_cell_angle_alpha   90.00000000
_cell_angle_beta   90.00000000
_cell_angle_gamma   90.00000000
_symmetry_Int_Tables_number   6
_chemical_formula_structural   LiYAgSn
_chemical_formula_sum   'Li8 Y8 Ag8 Sn8'
_cell_volume   1970.32083091
_cell_formula_units_Z   8
loop_
 _symmetry_equiv_pos_site_id
 _symmetry_equiv_pos_as_xyz
  1  'x, y, z'
  2  'x, -y, z'
loop_
 _atom_site_type_symbol
 _atom_site_label
 _atom_site_symmetry_multiplicity
 _atom_site_fract_x
 _atom_site_fract_y
 _atom_site_fract_z
 _atom_site_occupancy
  Li  Li0  2  0.75000000  0.25000000  0.86306000  1.0
  Li  Li1  2  0.75304000  0.24986000  0.04659000  1.0
  Li  Li2  1  0.23855000  0.50000000  0.13278000  1.0
  Li  Li3  1  0.24001000  0.00000000  0.13295000  1.0
  Li  Li4  1  0.25000000  0.00000000  0.95435000  1.0
  Li  Li5  1  0.25000000  0.50000000  0.95435000  1.0
  Y  Y6  2  0.24576000  0.25005000  0.04702000  1.0
  Y  Y7  2  0.25000000  0.25000000  0.86306000  1.0
  Y  Y8  1  0.75000000  0.00000000  0.95435000  1.0
  Y  Y9  1  0.75000000  0.50000000  0.95435000  1.0
  Y  Y10  1  0.76267000  0.00000000  0.13946000  1.0
  Y  Y11  1  0.76267000  0.50000000  0.13947000  1.0
  Ag  Ag12  2  0.50000000  0.25000000  0.95435000  1.0
  Ag  Ag13  2  0.50275000  0.25002000  0.13270000  1.0
  Ag  Ag14  1  0.00000000  0.00000000  0.86306000  1.0
  Ag  Ag15  1  0.00000000  0.50000000  0.86306000  1.0
  Ag  Ag16  1  0.99021000  0.50000000  0.04651000  1.0
  Ag  Ag17  1  0.99048000  0.00000000  0.04655000  1.0
  Sn  Sn18  2  0.00000000  0.25000000  0.95435000  1.0
  Sn  Sn19  2  0.01742000  0.24987000  0.14500000  1.0
  Sn  Sn20  1  0.50000000  0.00000000  0.86306000  1.0
  Sn  Sn21  1  0.50000000  0.50000000  0.86306000  1.0
  Sn  Sn22  1  0.50508000  0.00000000  0.04879000  1.0
  Sn  Sn23  1  0.50526000  0.50000000  0.04884000  1.0
