# generated using pymatgen
data_Li8Y8In8Au8C
_symmetry_space_group_name_H-M   'P 1'
_cell_length_a   9.74930000
_cell_length_b   6.89380000
_cell_length_c   27.31200000
_cell_angle_alpha   90.00000000
_cell_angle_beta   90.00000000
_cell_angle_gamma   90.00000000
_symmetry_Int_Tables_number   1
_chemical_formula_structural   Li8Y8In8Au8C
_chemical_formula_sum   'Li8 Y8 In8 Au8 C1'
_cell_volume   1835.63199117
_cell_formula_units_Z   1
loop_
 _symmetry_equiv_pos_site_id
 _symmetry_equiv_pos_as_xyz
  1  'x, y, z'
loop_
 _atom_site_type_symbol
 _atom_site_label
 _atom_site_symmetry_multiplicity
 _atom_site_fract_x
 _atom_site_fract_y
 _atom_site_fract_z
 _atom_site_occupancy
  Li  Li0  1  0.00000000  0.00000000  0.04462000  1.0
  Li  Li1  1  0.50000000  0.00000000  0.04462000  1.0
  Li  Li2  1  0.25001000  0.50000000  0.13386000  1.0
  Li  Li3  1  0.74999000  0.50000000  0.13386000  1.0
  Li  Li4  1  0.50000000  0.18939000  0.81435000  1.0
  Li  Li5  1  0.00000000  0.11354000  0.82851000  1.0
  Li  Li6  1  0.75058000  0.51112000  0.94991000  1.0
  Li  Li7  1  0.24942000  0.51112000  0.94991000  1.0
  Y  Y8  1  0.75001000  0.75000000  0.04462000  1.0
  Y  Y9  1  0.24999000  0.75000000  0.04462000  1.0
  Y  Y10  1  0.00000000  0.25000000  0.13386000  1.0
  Y  Y11  1  0.50000000  0.25000000  0.13386000  1.0
  Y  Y12  1  0.23319000  0.80543000  0.86301000  1.0
  Y  Y13  1  0.76681000  0.80543000  0.86301000  1.0
  Y  Y14  1  0.50000000  0.24512000  0.94894000  1.0
  Y  Y15  1  0.00000000  0.22610000  0.94601000  1.0
  In  In16  1  0.75001000  0.25000000  0.04462000  1.0
  In  In17  1  0.24999000  0.25000000  0.04462000  1.0
  In  In18  1  0.00000000  0.75000000  0.13386000  1.0
  In  In19  1  0.50000000  0.75000000  0.13386000  1.0
  In  In20  1  0.25185000  0.27995000  0.86057000  1.0
  In  In21  1  0.74815000  0.27995000  0.86057000  1.0
  In  In22  1  0.50000000  0.75580000  0.95691000  1.0
  In  In23  1  0.00000000  0.75637000  0.95488000  1.0
  Au  Au24  1  0.75001000  0.00000000  0.13386000  1.0
  Au  Au25  1  0.24999000  0.00000000  0.13386000  1.0
  Au  Au26  1  0.50000000  0.50000000  0.04462000  1.0
  Au  Au27  1  0.00000000  0.50000000  0.04462000  1.0
  Au  Au28  1  0.25561000  0.00400000  0.95861000  1.0
  Au  Au29  1  0.74439000  0.00400000  0.95861000  1.0
  Au  Au30  1  0.00000000  0.50344000  0.86585000  1.0
  Au  Au31  1  0.50000000  0.52826000  0.86968000  1.0
  C  C32  1  0.00000000  0.84463000  0.86507000  1.0
