# generated using pymatgen
data_Li4In4Ge4Au4C
_symmetry_space_group_name_H-M   'P 1'
_cell_length_a   8.46544000
_cell_length_b   6.00109000
_cell_length_c   24.49980000
_cell_angle_alpha   90.00000000
_cell_angle_beta   90.00000000
_cell_angle_gamma   90.00000000
_symmetry_Int_Tables_number   1
_chemical_formula_structural   Li4In4Ge4Au4C
_chemical_formula_sum   'Li4 In4 Ge4 Au4 C1'
_cell_volume   1244.63558920
_cell_formula_units_Z   1
loop_
 _symmetry_equiv_pos_site_id
 _symmetry_equiv_pos_as_xyz
  1  'x, y, z'
loop_
 _atom_site_type_symbol
 _atom_site_label
 _atom_site_symmetry_multiplicity
 _atom_site_fract_x
 _atom_site_fract_y
 _atom_site_fract_z
 _atom_site_occupancy
  Li  Li0  1  0.75001000  0.24460000  0.03061000  1.0
  Li  Li1  1  0.66726000  0.74593000  0.88523000  1.0
  Li  Li2  1  0.24999000  0.24460000  0.03061000  1.0
  Li  Li3  1  0.33274000  0.74593000  0.88523000  1.0
  In  In4  1  0.50000000  0.50000000  0.09183000  1.0
  In  In5  1  0.50000000  0.00446000  0.97096000  1.0
  In  In6  1  0.00000000  0.50000000  0.09183000  1.0
  In  In7  1  0.00000000  0.96132000  0.95539000  1.0
  Ge  Ge8  1  0.75001000  0.74460000  0.03061000  1.0
  Ge  Ge9  1  0.66399000  0.26538000  0.88203000  1.0
  Ge  Ge10  1  0.24999000  0.74460000  0.03061000  1.0
  Ge  Ge11  1  0.33601000  0.26538000  0.88203000  1.0
  Au  Au12  1  0.50000000  0.00000000  0.09183000  1.0
  Au  Au13  1  0.50000000  0.50383000  0.97155000  1.0
  Au  Au14  1  0.00000000  0.00000000  0.09183000  1.0
  Au  Au15  1  0.00000000  0.44309000  0.97056000  1.0
  C  C16  1  0.50000000  0.49650000  0.87336000  1.0
