# generated using pymatgen
data_Li4In4Ge4Au4C
_symmetry_space_group_name_H-M   Pm
_cell_length_a   6.00109000
_cell_length_b   8.46544000
_cell_length_c   24.49980000
_cell_angle_alpha   90.00000000
_cell_angle_beta   90.00000000
_cell_angle_gamma   90.00000000
_symmetry_Int_Tables_number   6
_chemical_formula_structural   Li4In4Ge4Au4C
_chemical_formula_sum   'Li4 In4 Ge4 Au4 C1'
_cell_volume   1244.63558920
_cell_formula_units_Z   1
loop_
 _symmetry_equiv_pos_site_id
 _symmetry_equiv_pos_as_xyz
  1  'x, y, z'
  2  'x, -y, z'
loop_
 _atom_site_type_symbol
 _atom_site_label
 _atom_site_symmetry_multiplicity
 _atom_site_fract_x
 _atom_site_fract_y
 _atom_site_fract_z
 _atom_site_occupancy
  Li  Li0  2  0.24460000  0.24999000  0.96939000  1.0
  Li  Li1  2  0.74593000  0.33274000  0.11477000  1.0
  In  In2  1  0.00446000  0.50000000  0.02904000  1.0
  In  In3  1  0.50000000  0.00000000  0.90817000  1.0
  In  In4  1  0.50000000  0.50000000  0.90817000  1.0
  In  In5  1  0.96132000  0.00000000  0.04461000  1.0
  Ge  Ge6  2  0.26538000  0.33601000  0.11797000  1.0
  Ge  Ge7  2  0.74460000  0.24999000  0.96939000  1.0
  Au  Au8  1  0.00000000  0.50000000  0.90817000  1.0
  Au  Au9  1  0.00000000  0.00000000  0.90817000  1.0
  Au  Au10  1  0.44309000  0.00000000  0.02944000  1.0
  Au  Au11  1  0.50383000  0.50000000  0.02845000  1.0
  C  C12  1  0.49650000  0.50000000  0.12664000  1.0
