data_image0
_chemical_formula_structural       Li8Mg8Al8Pd8CO
_chemical_formula_sum              "Li8 Mg8 Al8 Pd8 C1 O1"
_cell_length_a       6.2813
_cell_length_b       8.8831
_cell_length_c       26.6623
_cell_angle_alpha    90
_cell_angle_beta     90
_cell_angle_gamma    90

_space_group_name_H-M_alt    "P 1"
_space_group_IT_number       1

loop_
  _space_group_symop_operation_xyz
  'x, y, z'

loop_
  _atom_site_type_symbol
  _atom_site_label
  _atom_site_symmetry_multiplicity
  _atom_site_fract_x
  _atom_site_fract_y
  _atom_site_fract_z
  _atom_site_occupancy
  Li  Li1       1.0  0.25000  0.00000  0.95835  1.0000
  Li  Li2       1.0  0.25000  0.50000  0.95835  1.0000
  Li  Li3       1.0  0.75000  0.25000  0.87506  1.0000
  Li  Li4       1.0  0.75000  0.75000  0.87506  1.0000
  Li  Li5       1.0  0.27943  0.50000  0.13754  1.0000
  Li  Li6       1.0  0.26815  0.00000  0.13427  1.0000
  Li  Li7       1.0  0.75501  0.75037  0.04047  1.0000
  Li  Li8       1.0  0.75501  0.24963  0.04047  1.0000
  Mg  Mg1       1.0  0.00000  0.25000  0.95835  1.0000
  Mg  Mg2       1.0  0.00000  0.75000  0.95835  1.0000
  Mg  Mg3       1.0  0.50000  0.50000  0.87506  1.0000
  Mg  Mg4       1.0  0.50000  0.00000  0.87506  1.0000
  Mg  Mg5       1.0  0.99298  0.74385  0.12774  1.0000
  Mg  Mg6       1.0  0.99297  0.25615  0.12774  1.0000
  Mg  Mg7       1.0  0.50042  0.00000  0.04273  1.0000
  Mg  Mg8       1.0  0.49020  0.50000  0.03959  1.0000
  Al  Al1       1.0  0.00000  0.00000  0.87506  1.0000
  Al  Al2       1.0  0.00000  0.50000  0.87506  1.0000
  Al  Al3       1.0  0.50000  0.75000  0.95835  1.0000
  Al  Al4       1.0  0.50000  0.25000  0.95835  1.0000
  Al  Al5       1.0  0.00317  0.50000  0.04359  1.0000
  Al  Al6       1.0  0.00246  0.00000  0.04454  1.0000
  Al  Al7       1.0  0.51180  0.25299  0.12084  1.0000
  Al  Al8       1.0  0.51180  0.74701  0.12084  1.0000
  Pd  Pd1       1.0  0.75000  0.00000  0.95835  1.0000
  Pd  Pd2       1.0  0.75000  0.50000  0.95835  1.0000
  Pd  Pd3       1.0  0.25000  0.25000  0.87506  1.0000
  Pd  Pd4       1.0  0.25000  0.75000  0.87506  1.0000
  Pd  Pd5       1.0  0.73463  0.50000  0.11798  1.0000
  Pd  Pd6       1.0  0.74699  1.00000  0.12770  1.0000
  Pd  Pd7       1.0  0.24550  0.75135  0.04142  1.0000
  Pd  Pd8       1.0  0.24550  0.24866  0.04142  1.0000
  C   C1        1.0  0.77073  0.00000  0.20156  1.0000
  O   O1        1.0  0.76483  0.00000  0.24490  1.0000
