# generated using pymatgen
data_Li8Mg8Al8Pd8CO
_symmetry_space_group_name_H-M   'P 1'
_cell_length_a   8.88310000
_cell_length_b   6.28130000
_cell_length_c   26.66230000
_cell_angle_alpha   90.00000000
_cell_angle_beta   90.00000000
_cell_angle_gamma   90.00000000
_symmetry_Int_Tables_number   1
_chemical_formula_structural   Li8Mg8Al8Pd8CO
_chemical_formula_sum   'Li8 Mg8 Al8 Pd8 C1 O1'
_cell_volume   1487.68744542
_cell_formula_units_Z   1
loop_
 _symmetry_equiv_pos_site_id
 _symmetry_equiv_pos_as_xyz
  1  'x, y, z'
loop_
 _atom_site_type_symbol
 _atom_site_label
 _atom_site_symmetry_multiplicity
 _atom_site_fract_x
 _atom_site_fract_y
 _atom_site_fract_z
 _atom_site_occupancy
  Li  Li0  1  0.00000000  0.25000000  0.04165000  1.0
  Li  Li1  1  0.50000000  0.25000000  0.04165000  1.0
  Li  Li2  1  0.25000000  0.75000000  0.12494000  1.0
  Li  Li3  1  0.75000000  0.75000000  0.12494000  1.0
  Li  Li4  1  0.50000000  0.27943000  0.86246000  1.0
  Li  Li5  1  0.00000000  0.26815000  0.86573000  1.0
  Li  Li6  1  0.75037000  0.75501000  0.95953000  1.0
  Li  Li7  1  0.24963000  0.75501000  0.95953000  1.0
  Mg  Mg8  1  0.25000000  0.00000000  0.04165000  1.0
  Mg  Mg9  1  0.75000000  0.00000000  0.04165000  1.0
  Mg  Mg10  1  0.50000000  0.50000000  0.12494000  1.0
  Mg  Mg11  1  0.00000000  0.50000000  0.12494000  1.0
  Mg  Mg12  1  0.74385000  0.99298000  0.87226000  1.0
  Mg  Mg13  1  0.25615000  0.99298000  0.87226000  1.0
  Mg  Mg14  1  0.00000000  0.50042000  0.95727000  1.0
  Mg  Mg15  1  0.50000000  0.49020000  0.96041000  1.0
  Al  Al16  1  0.00000000  0.00000000  0.12494000  1.0
  Al  Al17  1  0.50000000  0.00000000  0.12494000  1.0
  Al  Al18  1  0.75000000  0.50000000  0.04165000  1.0
  Al  Al19  1  0.25000000  0.50000000  0.04165000  1.0
  Al  Al20  1  0.50000000  0.00317000  0.95641000  1.0
  Al  Al21  1  0.00000000  0.00246000  0.95546000  1.0
  Al  Al22  1  0.25299000  0.51180000  0.87916000  1.0
  Al  Al23  1  0.74701000  0.51180000  0.87916000  1.0
  Pd  Pd24  1  0.00000000  0.75000000  0.04165000  1.0
  Pd  Pd25  1  0.50000000  0.75000000  0.04165000  1.0
  Pd  Pd26  1  0.25000000  0.25000000  0.12494000  1.0
  Pd  Pd27  1  0.75000000  0.25000000  0.12494000  1.0
  Pd  Pd28  1  0.50000000  0.73463000  0.88202000  1.0
  Pd  Pd29  1  0.00000000  0.74699000  0.87230000  1.0
  Pd  Pd30  1  0.75135000  0.24550000  0.95858000  1.0
  Pd  Pd31  1  0.24865000  0.24550000  0.95858000  1.0
  C  C32  1  0.00000000  0.77073000  0.79844000  1.0
  O  O33  1  0.00000000  0.76483000  0.75510000  1.0
