# generated using pymatgen
data_Li8Mg8Al8Pd8CO
_symmetry_space_group_name_H-M   Pm
_cell_length_a   6.28130000
_cell_length_b   8.88310000
_cell_length_c   26.66230000
_cell_angle_alpha   90.00000000
_cell_angle_beta   90.00000000
_cell_angle_gamma   90.00000000
_symmetry_Int_Tables_number   6
_chemical_formula_structural   Li8Mg8Al8Pd8CO
_chemical_formula_sum   'Li8 Mg8 Al8 Pd8 C1 O1'
_cell_volume   1487.68744542
_cell_formula_units_Z   1
loop_
 _symmetry_equiv_pos_site_id
 _symmetry_equiv_pos_as_xyz
  1  'x, y, z'
  2  'x, -y, z'
loop_
 _atom_site_type_symbol
 _atom_site_label
 _atom_site_symmetry_multiplicity
 _atom_site_fract_x
 _atom_site_fract_y
 _atom_site_fract_z
 _atom_site_occupancy
  Li  Li0  2  0.75000000  0.25000000  0.87506000  1.0
  Li  Li1  2  0.75501000  0.24963000  0.04047000  1.0
  Li  Li2  1  0.25000000  0.00000000  0.95835000  1.0
  Li  Li3  1  0.25000000  0.50000000  0.95835000  1.0
  Li  Li4  1  0.26815000  0.00000000  0.13427000  1.0
  Li  Li5  1  0.27943000  0.50000000  0.13754000  1.0
  Mg  Mg6  2  0.00000000  0.25000000  0.95835000  1.0
  Mg  Mg7  2  0.99298000  0.25615000  0.12774000  1.0
  Mg  Mg8  1  0.49020000  0.50000000  0.03959000  1.0
  Mg  Mg9  1  0.50000000  0.00000000  0.87506000  1.0
  Mg  Mg10  1  0.50000000  0.50000000  0.87506000  1.0
  Mg  Mg11  1  0.50042000  0.00000000  0.04273000  1.0
  Al  Al12  2  0.50000000  0.25000000  0.95835000  1.0
  Al  Al13  2  0.51180000  0.25299000  0.12084000  1.0
  Al  Al14  1  0.00000000  0.00000000  0.87506000  1.0
  Al  Al15  1  0.00000000  0.50000000  0.87506000  1.0
  Al  Al16  1  0.00246000  0.00000000  0.04454000  1.0
  Al  Al17  1  0.00317000  0.50000000  0.04359000  1.0
  Pd  Pd18  2  0.24550000  0.24865000  0.04142000  1.0
  Pd  Pd19  2  0.25000000  0.25000000  0.87506000  1.0
  Pd  Pd20  1  0.73463000  0.50000000  0.11798000  1.0
  Pd  Pd21  1  0.74699000  0.00000000  0.12770000  1.0
  Pd  Pd22  1  0.75000000  0.00000000  0.95835000  1.0
  Pd  Pd23  1  0.75000000  0.50000000  0.95835000  1.0
  C  C24  1  0.77073000  0.00000000  0.20156000  1.0
  O  O25  1  0.76483000  0.00000000  0.24490000  1.0
