# generated using pymatgen
data_Li8In8Cu8Ge8CO
_symmetry_space_group_name_H-M   'P 1'
_cell_length_a   9.18370000
_cell_length_b   6.49386000
_cell_length_c   26.88780000
_cell_angle_alpha   90.00000000
_cell_angle_beta   90.00000000
_cell_angle_gamma   90.00000000
_symmetry_Int_Tables_number   1
_chemical_formula_structural   Li8In8Cu8Ge8CO
_chemical_formula_sum   'Li8 In8 Cu8 Ge8 C1 O1'
_cell_volume   1603.52553053
_cell_formula_units_Z   1
loop_
 _symmetry_equiv_pos_site_id
 _symmetry_equiv_pos_as_xyz
  1  'x, y, z'
loop_
 _atom_site_type_symbol
 _atom_site_label
 _atom_site_symmetry_multiplicity
 _atom_site_fract_x
 _atom_site_fract_y
 _atom_site_fract_z
 _atom_site_occupancy
  Li  Li0  1  0.00000000  0.00000000  0.04269000  1.0
  Li  Li1  1  0.50000000  0.00000000  0.04269000  1.0
  Li  Li2  1  0.25000000  0.50000000  0.12808000  1.0
  Li  Li3  1  0.75000000  0.50000000  0.12808000  1.0
  Li  Li4  1  0.50000000  0.96402000  0.85708000  1.0
  Li  Li5  1  0.00000000  0.97994000  0.85711000  1.0
  Li  Li6  1  0.75015000  0.46561000  0.95413000  1.0
  Li  Li7  1  0.24985000  0.46561000  0.95413000  1.0
  In  In8  1  0.75000000  0.25000000  0.04269000  1.0
  In  In9  1  0.25000000  0.25000000  0.04269000  1.0
  In  In10  1  0.00000000  0.75000000  0.12808000  1.0
  In  In11  1  0.50000000  0.75000000  0.12808000  1.0
  In  In12  1  0.25558000  0.28894000  0.84654000  1.0
  In  In13  1  0.74442000  0.28894000  0.84654000  1.0
  In  In14  1  0.50000000  0.76415000  0.95889000  1.0
  In  In15  1  0.00000000  0.76101000  0.95795000  1.0
  Cu  Cu16  1  0.75000000  0.00000000  0.12808000  1.0
  Cu  Cu17  1  0.25000000  0.00000000  0.12808000  1.0
  Cu  Cu18  1  0.50000000  0.50000000  0.04269000  1.0
  Cu  Cu19  1  0.00000000  0.50000000  0.04269000  1.0
  Cu  Cu20  1  0.24914000  0.02533000  0.94918000  1.0
  Cu  Cu21  1  0.75086000  0.02533000  0.94918000  1.0
  Cu  Cu22  1  0.00000000  0.49758000  0.88219000  1.0
  Cu  Cu23  1  0.50000000  0.50951000  0.88270000  1.0
  Ge  Ge24  1  0.75000000  0.75000000  0.04269000  1.0
  Ge  Ge25  1  0.25000000  0.75000000  0.04269000  1.0
  Ge  Ge26  1  0.00000000  0.25000000  0.12808000  1.0
  Ge  Ge27  1  0.50000000  0.25000000  0.12808000  1.0
  Ge  Ge28  1  0.24979000  0.73404000  0.87820000  1.0
  Ge  Ge29  1  0.75021000  0.73404000  0.87820000  1.0
  Ge  Ge30  1  0.50000000  0.22504000  0.94917000  1.0
  Ge  Ge31  1  0.00000000  0.22759000  0.95084000  1.0
  C  C32  1  0.00000000  0.98762000  0.77853000  1.0
  O  O33  1  0.00000000  0.98841000  0.73611000  1.0
