# generated using pymatgen
data_Mg8Ni16Sb8C
_symmetry_space_group_name_H-M   'P 1'
_cell_length_a   6.21377000
_cell_length_b   8.78760000
_cell_length_c   26.59070000
_cell_angle_alpha   90.00000000
_cell_angle_beta   90.00000000
_cell_angle_gamma   90.00000000
_symmetry_Int_Tables_number   1
_chemical_formula_structural   Mg8Ni16Sb8C
_chemical_formula_sum   'Mg8 Ni16 Sb8 C1'
_cell_volume   1451.96191334
_cell_formula_units_Z   1
loop_
 _symmetry_equiv_pos_site_id
 _symmetry_equiv_pos_as_xyz
  1  'x, y, z'
loop_
 _atom_site_type_symbol
 _atom_site_label
 _atom_site_symmetry_multiplicity
 _atom_site_fract_x
 _atom_site_fract_y
 _atom_site_fract_z
 _atom_site_occupancy
  Mg  Mg0  1  0.00000000  0.00000000  0.87607000  1.0
  Mg  Mg1  1  0.50000000  0.25000000  0.95869000  1.0
  Mg  Mg2  1  0.50000000  0.75000000  0.95869000  1.0
  Mg  Mg3  1  0.00000000  0.50000000  0.87607000  1.0
  Mg  Mg4  1  0.00000000  0.50000000  0.03864000  1.0
  Mg  Mg5  1  0.50000000  0.74519000  0.13329000  1.0
  Mg  Mg6  1  0.50000000  0.25481000  0.13329000  1.0
  Mg  Mg7  1  0.00000000  0.00000000  0.04218000  1.0
  Ni  Ni8  1  0.25000000  0.00000000  0.95869000  1.0
  Ni  Ni9  1  0.75000000  0.50000000  0.95869000  1.0
  Ni  Ni10  1  0.75000000  0.00000000  0.95869000  1.0
  Ni  Ni11  1  0.25000000  0.50000000  0.95869000  1.0
  Ni  Ni12  1  0.75000000  0.75000000  0.87607000  1.0
  Ni  Ni13  1  0.25000000  0.25000000  0.87607000  1.0
  Ni  Ni14  1  0.25000000  0.75000000  0.87607000  1.0
  Ni  Ni15  1  0.75000000  0.25000000  0.87607000  1.0
  Ni  Ni16  1  0.24667000  0.50000000  0.11526000  1.0
  Ni  Ni17  1  0.78316000  0.00000000  0.12887000  1.0
  Ni  Ni18  1  0.75333000  0.50000000  0.11526000  1.0
  Ni  Ni19  1  0.21684000  0.00000000  0.12887000  1.0
  Ni  Ni20  1  0.74929000  0.25009000  0.04527000  1.0
  Ni  Ni21  1  0.25071000  0.74991000  0.04527000  1.0
  Ni  Ni22  1  0.25071000  0.25009000  0.04527000  1.0
  Ni  Ni23  1  0.74929000  0.74991000  0.04527000  1.0
  Sb  Sb24  1  0.00000000  0.75000000  0.95869000  1.0
  Sb  Sb25  1  0.50000000  0.00000000  0.87607000  1.0
  Sb  Sb26  1  0.00000000  0.25000000  0.95869000  1.0
  Sb  Sb27  1  0.50000000  0.50000000  0.87607000  1.0
  Sb  Sb28  1  0.00000000  0.25863000  0.13007000  1.0
  Sb  Sb29  1  0.50000000  0.50000000  0.03997000  1.0
  Sb  Sb30  1  0.00000000  0.74137000  0.13007000  1.0
  Sb  Sb31  1  0.50000000  0.00000000  0.04094000  1.0
  C  C32  1  0.50000000  0.00000000  0.14096000  1.0
