# generated using pymatgen
data_Li4Sc4In4Ge4CO
_symmetry_space_group_name_H-M   'P 1'
_cell_length_a   8.22048000
_cell_length_b   6.05318000
_cell_length_c   24.51760000
_cell_angle_alpha   90.00000000
_cell_angle_beta   90.00000000
_cell_angle_gamma   90.00000000
_symmetry_Int_Tables_number   1
_chemical_formula_structural   Li4Sc4In4Ge4CO
_chemical_formula_sum   'Li4 Sc4 In4 Ge4 C1 O1'
_cell_volume   1219.99688239
_cell_formula_units_Z   1
loop_
 _symmetry_equiv_pos_site_id
 _symmetry_equiv_pos_as_xyz
  1  'x, y, z'
loop_
 _atom_site_type_symbol
 _atom_site_label
 _atom_site_symmetry_multiplicity
 _atom_site_fract_x
 _atom_site_fract_y
 _atom_site_fract_z
 _atom_site_occupancy
  Li  Li0  1  0.75002000  0.50000000  0.09213000  1.0
  Li  Li1  1  0.74975000  0.92609000  0.97021000  1.0
  Li  Li2  1  0.24998000  0.50000000  0.09213000  1.0
  Li  Li3  1  0.25025000  0.92609000  0.97021000  1.0
  Sc  Sc4  1  0.00000000  0.22528000  0.03071000  1.0
  Sc  Sc5  1  0.00000000  0.59532000  0.90762000  1.0
  Sc  Sc6  1  0.50000000  0.22528000  0.03071000  1.0
  Sc  Sc7  1  0.50000000  0.58510000  0.90739000  1.0
  In  In8  1  0.00000000  0.72528000  0.03071000  1.0
  In  In9  1  0.00000000  0.10080000  0.89165000  1.0
  In  In10  1  0.50000000  0.72528000  0.03071000  1.0
  In  In11  1  0.50000000  0.08922000  0.89170000  1.0
  Ge  Ge12  1  0.75002000  0.00000000  0.09213000  1.0
  Ge  Ge13  1  0.74926000  0.38312000  0.95839000  1.0
  Ge  Ge14  1  0.24998000  0.00000000  0.09213000  1.0
  Ge  Ge15  1  0.25074000  0.38312000  0.95839000  1.0
  C  C16  1  0.00000000  0.64424000  0.81435000  1.0
  O  O17  1  0.00000000  0.66901000  0.76784000  1.0
