# generated using pymatgen
data_Li4Sc4In4Ge4CO
_symmetry_space_group_name_H-M   Pm
_cell_length_a   6.05318000
_cell_length_b   8.22048000
_cell_length_c   24.51760000
_cell_angle_alpha   90.00000000
_cell_angle_beta   90.00000000
_cell_angle_gamma   90.00000000
_symmetry_Int_Tables_number   6
_chemical_formula_structural   Li4Sc4In4Ge4CO
_chemical_formula_sum   'Li4 Sc4 In4 Ge4 C1 O1'
_cell_volume   1219.99688239
_cell_formula_units_Z   1
loop_
 _symmetry_equiv_pos_site_id
 _symmetry_equiv_pos_as_xyz
  1  'x, y, z'
  2  'x, -y, z'
loop_
 _atom_site_type_symbol
 _atom_site_label
 _atom_site_symmetry_multiplicity
 _atom_site_fract_x
 _atom_site_fract_y
 _atom_site_fract_z
 _atom_site_occupancy
  Li  Li0  2  0.50000000  0.24998000  0.90787000  1.0
  Li  Li1  2  0.92609000  0.25025000  0.02979000  1.0
  Sc  Sc2  1  0.22528000  0.00000000  0.96929000  1.0
  Sc  Sc3  1  0.22528000  0.50000000  0.96929000  1.0
  Sc  Sc4  1  0.58510000  0.50000000  0.09261000  1.0
  Sc  Sc5  1  0.59532000  0.00000000  0.09238000  1.0
  In  In6  1  0.08922000  0.50000000  0.10830000  1.0
  In  In7  1  0.10080000  0.00000000  0.10835000  1.0
  In  In8  1  0.72528000  0.00000000  0.96929000  1.0
  In  In9  1  0.72528000  0.50000000  0.96929000  1.0
  Ge  Ge10  2  0.00000000  0.24998000  0.90787000  1.0
  Ge  Ge11  2  0.38312000  0.25074000  0.04161000  1.0
  C  C12  1  0.64424000  0.00000000  0.18565000  1.0
  O  O13  1  0.66901000  0.00000000  0.23216000  1.0
