# generated using pymatgen
data_Nb8Ni16Sn8CO
_symmetry_space_group_name_H-M   'P 1'
_cell_length_a   6.22550000
_cell_length_b   8.80419000
_cell_length_c   26.60310000
_cell_angle_alpha   90.00000000
_cell_angle_beta   90.00000000
_cell_angle_gamma   90.00000000
_symmetry_Int_Tables_number   1
_chemical_formula_structural   Nb8Ni16Sn8CO
_chemical_formula_sum   'Nb8 Ni16 Sn8 C1 O1'
_cell_volume   1458.12880938
_cell_formula_units_Z   1
loop_
 _symmetry_equiv_pos_site_id
 _symmetry_equiv_pos_as_xyz
  1  'x, y, z'
loop_
 _atom_site_type_symbol
 _atom_site_label
 _atom_site_symmetry_multiplicity
 _atom_site_fract_x
 _atom_site_fract_y
 _atom_site_fract_z
 _atom_site_occupancy
  Nb  Nb0  1  0.00000000  0.00000000  0.87590000  1.0
  Nb  Nb1  1  0.50000000  0.25000000  0.95863000  1.0
  Nb  Nb2  1  0.50000000  0.75000000  0.95863000  1.0
  Nb  Nb3  1  0.00000000  0.50000000  0.87590000  1.0
  Nb  Nb4  1  0.99526000  0.49999000  0.04196000  1.0
  Nb  Nb5  1  0.49440000  0.74842000  0.11966000  1.0
  Nb  Nb6  1  0.49438000  0.25161000  0.11965000  1.0
  Nb  Nb7  1  0.99931000  0.00003000  0.04279000  1.0
  Ni  Ni8  1  0.25000000  0.00000000  0.95863000  1.0
  Ni  Ni9  1  0.75000000  0.50000000  0.95863000  1.0
  Ni  Ni10  1  0.75000000  0.00000000  0.95863000  1.0
  Ni  Ni11  1  0.25000000  0.50000000  0.95863000  1.0
  Ni  Ni12  1  0.75000000  0.75000000  0.87590000  1.0
  Ni  Ni13  1  0.25000000  0.25000000  0.87590000  1.0
  Ni  Ni14  1  0.25000000  0.75000000  0.87590000  1.0
  Ni  Ni15  1  0.75000000  0.25000000  0.87590000  1.0
  Ni  Ni16  1  0.27099000  0.50008000  0.11730000  1.0
  Ni  Ni17  1  0.73911000  0.99991000  0.11542000  1.0
  Ni  Ni18  1  0.70918000  0.50010000  0.12011000  1.0
  Ni  Ni19  1  0.26112000  0.99991000  0.13218000  1.0
  Ni  Ni20  1  0.76150000  0.24843000  0.04545000  1.0
  Ni  Ni21  1  0.22735000  0.74781000  0.04698000  1.0
  Ni  Ni22  1  0.22751000  0.25224000  0.04696000  1.0
  Ni  Ni23  1  0.76165000  0.75154000  0.04545000  1.0
  Sn  Sn24  1  0.00000000  0.75000000  0.95863000  1.0
  Sn  Sn25  1  0.50000000  0.00000000  0.87590000  1.0
  Sn  Sn26  1  0.00000000  0.25000000  0.95863000  1.0
  Sn  Sn27  1  0.50000000  0.50000000  0.87590000  1.0
  Sn  Sn28  1  0.98976000  0.25732000  0.13540000  1.0
  Sn  Sn29  1  0.49818000  0.50005000  0.03684000  1.0
  Sn  Sn30  1  0.98974000  0.74267000  0.13544000  1.0
  Sn  Sn31  1  0.48617000  0.99996000  0.03959000  1.0
  C  C32  1  0.36944000  0.99991000  0.19302000  1.0
  O  O33  1  0.42253000  0.00001000  0.23493000  1.0
