# generated using pymatgen
data_Zr4Ir12C
_symmetry_space_group_name_H-M   'P 1'
_cell_length_a   7.98758000
_cell_length_b   5.64807000
_cell_length_c   24.23610000
_cell_angle_alpha   90.00000000
_cell_angle_beta   90.00000000
_cell_angle_gamma   90.00000000
_symmetry_Int_Tables_number   1
_chemical_formula_structural   Zr4Ir12C
_chemical_formula_sum   'Zr4 Ir12 C1'
_cell_volume   1093.39737572
_cell_formula_units_Z   1
loop_
 _symmetry_equiv_pos_site_id
 _symmetry_equiv_pos_as_xyz
  1  'x, y, z'
loop_
 _atom_site_type_symbol
 _atom_site_label
 _atom_site_symmetry_multiplicity
 _atom_site_fract_x
 _atom_site_fract_y
 _atom_site_fract_z
 _atom_site_occupancy
  Zr  Zr0  1  0.75807000  0.00017000  0.08084000  1.0
  Zr  Zr1  1  0.75000000  0.50000000  0.97087000  1.0
  Zr  Zr2  1  0.24193000  0.00017000  0.08084000  1.0
  Zr  Zr3  1  0.25000000  0.50000000  0.97087000  1.0
  Ir  Ir4  1  0.74789000  0.50001000  0.08341000  1.0
  Ir  Ir5  1  0.50000000  0.24478000  0.02860000  1.0
  Ir  Ir6  1  0.50000000  0.75570000  0.02855000  1.0
  Ir  Ir7  1  0.75000000  0.00000000  0.97087000  1.0
  Ir  Ir8  1  0.50000000  0.75000000  0.91261000  1.0
  Ir  Ir9  1  0.50000000  0.25000000  0.91261000  1.0
  Ir  Ir10  1  0.25211000  0.50001000  0.08341000  1.0
  Ir  Ir11  1  0.00000000  0.25063000  0.03169000  1.0
  Ir  Ir12  1  0.00000000  0.74922000  0.03180000  1.0
  Ir  Ir13  1  0.25000000  0.00000000  0.97087000  1.0
  Ir  Ir14  1  0.00000000  0.75000000  0.91261000  1.0
  Ir  Ir15  1  0.00000000  0.25000000  0.91261000  1.0
  C  C16  1  0.50000000  0.50085000  0.09348000  1.0
