# generated using pymatgen
data_Y16Mg16C
_symmetry_space_group_name_H-M   Pm
_cell_length_a   10.72040000
_cell_length_b   7.58049000
_cell_length_c   28.04030000
_cell_angle_alpha   90.00000000
_cell_angle_beta   90.00000000
_cell_angle_gamma   90.00000000
_symmetry_Int_Tables_number   6
_chemical_formula_structural   Y16Mg16C
_chemical_formula_sum   'Y16 Mg16 C1'
_cell_volume   2278.71979505
_cell_formula_units_Z   1
loop_
 _symmetry_equiv_pos_site_id
 _symmetry_equiv_pos_as_xyz
  1  'x, y, z'
  2  'x, -y, z'
loop_
 _atom_site_type_symbol
 _atom_site_label
 _atom_site_symmetry_multiplicity
 _atom_site_fract_x
 _atom_site_fract_y
 _atom_site_fract_z
 _atom_site_occupancy
  Y  Y0  2  0.00000000  0.25000000  0.85663000  1.0
  Y  Y1  2  0.24968000  0.21600000  0.14723000  1.0
  Y  Y2  2  0.25000000  0.25000000  0.95221000  1.0
  Y  Y3  2  0.50000000  0.25000000  0.85663000  1.0
  Y  Y4  2  0.50398000  0.24194000  0.04760000  1.0
  Y  Y5  2  0.74972000  0.26810000  0.13711000  1.0
  Y  Y6  2  0.75000000  0.25000000  0.95221000  1.0
  Y  Y7  2  0.99587000  0.24189000  0.04761000  1.0
  Mg  Mg8  1  0.00000000  0.00000000  0.95221000  1.0
  Mg  Mg9  1  0.00000000  0.50000000  0.95221000  1.0
  Mg  Mg10  1  0.02552000  0.50000000  0.14509000  1.0
  Mg  Mg11  1  0.24961000  0.50000000  0.05421000  1.0
  Mg  Mg12  1  0.24971000  0.00000000  0.04597000  1.0
  Mg  Mg13  1  0.25000000  0.00000000  0.85663000  1.0
  Mg  Mg14  1  0.25000000  0.50000000  0.85663000  1.0
  Mg  Mg15  1  0.47377000  0.50000000  0.14502000  1.0
  Mg  Mg16  1  0.50000000  0.00000000  0.95221000  1.0
  Mg  Mg17  1  0.50000000  0.50000000  0.95221000  1.0
  Mg  Mg18  1  0.51386000  0.00000000  0.14638000  1.0
  Mg  Mg19  1  0.75000000  0.00000000  0.85663000  1.0
  Mg  Mg20  1  0.75000000  0.50000000  0.85663000  1.0
  Mg  Mg21  1  0.75020000  0.00000000  0.04693000  1.0
  Mg  Mg22  1  0.75026000  0.50000000  0.04247000  1.0
  Mg  Mg23  1  0.98581000  0.00000000  0.14634000  1.0
  C  C24  1  0.24896000  0.50000000  0.13569000  1.0
