# generated using pymatgen
data_YBiPd2
_symmetry_space_group_name_H-M   'P 1'
_cell_length_a   4.94730795
_cell_length_b   4.94730795
_cell_length_c   25.24740000
_cell_angle_alpha   90.00000000
_cell_angle_beta   90.00000000
_cell_angle_gamma   90.00000000
_symmetry_Int_Tables_number   1
_chemical_formula_structural   YBiPd2
_chemical_formula_sum   'Y2 Bi2 Pd4'
_cell_volume   617.95172554
_cell_formula_units_Z   2
loop_
 _symmetry_equiv_pos_site_id
 _symmetry_equiv_pos_as_xyz
  1  'x, y, z'
loop_
 _atom_site_type_symbol
 _atom_site_label
 _atom_site_symmetry_multiplicity
 _atom_site_fract_x
 _atom_site_fract_y
 _atom_site_fract_z
 _atom_site_occupancy
  Y  Y0  1  0.00000000  0.00000000  0.10392000  1.0
  Y  Y1  1  0.50000000  0.50000000  0.96536000  1.0
  Bi  Bi2  1  0.00000000  0.00000000  0.96536000  1.0
  Bi  Bi3  1  0.50000000  0.50000000  0.10392000  1.0
  Pd  Pd4  1  0.50000000  0.00000000  0.03464000  1.0
  Pd  Pd5  1  0.50000000  0.00000000  0.89608000  1.0
  Pd  Pd6  1  0.00000000  0.50000000  0.03464000  1.0
  Pd  Pd7  1  0.00000000  0.50000000  0.89608000  1.0
