# generated using pymatgen
data_Ti8Co16Ge8CO
_symmetry_space_group_name_H-M   Pmm2
_cell_length_a   5.88044000
_cell_length_b   8.31620000
_cell_length_c   26.23710000
_cell_angle_alpha   90.00000000
_cell_angle_beta   90.00000000
_cell_angle_gamma   90.00000000
_symmetry_Int_Tables_number   25
_chemical_formula_structural   Ti8Co16Ge8CO
_chemical_formula_sum   'Ti8 Co16 Ge8 C1 O1'
_cell_volume   1283.07067450
_cell_formula_units_Z   1
loop_
 _symmetry_equiv_pos_site_id
 _symmetry_equiv_pos_as_xyz
  1  'x, y, z'
  2  '-x, -y, z'
  3  '-x, y, z'
  4  'x, -y, z'
loop_
 _atom_site_type_symbol
 _atom_site_label
 _atom_site_symmetry_multiplicity
 _atom_site_fract_x
 _atom_site_fract_y
 _atom_site_fract_z
 _atom_site_occupancy
  Ti  Ti0  2  0.00000000  0.25001000  0.88114000  1.0
  Ti  Ti1  2  0.00000000  0.25092000  0.03914000  1.0
  Ti  Ti2  1  0.50000000  0.00000000  0.11965000  1.0
  Ti  Ti3  1  0.50000000  0.00000000  0.96038000  1.0
  Ti  Ti4  1  0.50000000  0.50000000  0.11877000  1.0
  Ti  Ti5  1  0.50000000  0.50000000  0.96038000  1.0
  Co  Co6  4  0.23911000  0.25111000  0.11221000  1.0
  Co  Co7  4  0.25000000  0.25001000  0.96038000  1.0
  Co  Co8  2  0.25000000  0.00000000  0.88114000  1.0
  Co  Co9  2  0.25000000  0.50000000  0.88114000  1.0
  Co  Co10  2  0.25239000  0.00000000  0.03850000  1.0
  Co  Co11  2  0.25743000  0.50000000  0.03982000  1.0
  Ge  Ge12  2  0.50000000  0.24843000  0.03976000  1.0
  Ge  Ge13  2  0.50000000  0.25001000  0.88114000  1.0
  Ge  Ge14  1  0.00000000  0.00000000  0.11977000  1.0
  Ge  Ge15  1  0.00000000  0.00000000  0.96038000  1.0
  Ge  Ge16  1  0.00000000  0.50000000  0.12106000  1.0
  Ge  Ge17  1  0.00000000  0.50000000  0.96038000  1.0
  C  C18  1  0.50000000  0.00000000  0.20174000  1.0
  O  O19  1  0.50000000  0.00000000  0.24551000  1.0
