data_image0
_chemical_formula_structural       Y8In8Au16CO
_chemical_formula_sum              "Y8 In8 Au16 C1 O1"
_cell_length_a       7.06522
_cell_length_b       9.99173
_cell_length_c       27.4938
_cell_angle_alpha    90
_cell_angle_beta     90
_cell_angle_gamma    90

_space_group_name_H-M_alt    "P 1"
_space_group_IT_number       1

loop_
  _space_group_symop_operation_xyz
  'x, y, z'

loop_
  _atom_site_type_symbol
  _atom_site_label
  _atom_site_symmetry_multiplicity
  _atom_site_fract_x
  _atom_site_fract_y
  _atom_site_fract_z
  _atom_site_occupancy
  Y   Y1        1.0  0.00000  0.00000  0.86372  1.0000
  Y   Y2        1.0  0.50000  0.25000  0.95457  1.0000
  Y   Y3        1.0  0.50000  0.75000  0.95457  1.0000
  Y   Y4        1.0  0.00000  0.50000  0.86372  1.0000
  Y   Y5        1.0  0.00000  0.50270  0.04979  1.0000
  Y   Y6        1.0  0.50000  0.74997  0.13153  1.0000
  Y   Y7        1.0  0.50000  0.25001  0.13071  1.0000
  Y   Y8        1.0  1.00000  0.99720  0.04979  1.0000
  In  In1       1.0  0.00000  0.75000  0.95457  1.0000
  In  In2       1.0  0.50000  0.00000  0.86372  1.0000
  In  In3       1.0  0.00000  0.25000  0.95457  1.0000
  In  In4       1.0  0.50000  0.50000  0.86372  1.0000
  In  In5       1.0  0.00000  0.24997  0.14350  1.0000
  In  In6       1.0  0.50000  0.49807  0.04423  1.0000
  In  In7       1.0  0.00000  0.74994  0.14289  1.0000
  In  In8       1.0  0.50000  0.00189  0.04423  1.0000
  Au  Au1       1.0  0.25000  0.00000  0.95457  1.0000
  Au  Au2       1.0  0.75000  0.50000  0.95457  1.0000
  Au  Au3       1.0  0.75000  0.00000  0.95457  1.0000
  Au  Au4       1.0  0.25000  0.50000  0.95457  1.0000
  Au  Au5       1.0  0.75000  0.75000  0.86372  1.0000
  Au  Au6       1.0  0.25000  0.25000  0.86372  1.0000
  Au  Au7       1.0  0.25000  0.75000  0.86372  1.0000
  Au  Au8       1.0  0.75000  0.25000  0.86372  1.0000
  Au  Au9       1.0  0.25158  0.50145  0.14012  1.0000
  Au  Au10      1.0  0.74839  0.99849  0.14012  1.0000
  Au  Au11      1.0  0.74842  0.50145  0.14012  1.0000
  Au  Au12      1.0  0.25161  0.99849  0.14012  1.0000
  Au  Au13      1.0  0.76180  0.24995  0.04429  1.0000
  Au  Au14      1.0  0.24853  0.74994  0.04453  1.0000
  Au  Au15      1.0  0.23820  0.24995  0.04429  1.0000
  Au  Au16      1.0  0.75147  0.74994  0.04453  1.0000
  C   C1        1.0  0.50000  0.25082  0.22181  1.0000
  O   O1        1.0  0.50000  0.25100  0.26342  1.0000
