# generated using pymatgen
data_Y8In8Au16CO
_symmetry_space_group_name_H-M   Pm
_cell_length_a   9.99173000
_cell_length_b   7.06522000
_cell_length_c   27.49380000
_cell_angle_alpha   90.00000000
_cell_angle_beta   90.00000000
_cell_angle_gamma   90.00000000
_symmetry_Int_Tables_number   6
_chemical_formula_structural   Y8In8Au16CO
_chemical_formula_sum   'Y8 In8 Au16 C1 O1'
_cell_volume   1940.89101096
_cell_formula_units_Z   1
loop_
 _symmetry_equiv_pos_site_id
 _symmetry_equiv_pos_as_xyz
  1  'x, y, z'
  2  'x, -y, z'
loop_
 _atom_site_type_symbol
 _atom_site_label
 _atom_site_symmetry_multiplicity
 _atom_site_fract_x
 _atom_site_fract_y
 _atom_site_fract_z
 _atom_site_occupancy
  Y  Y0  1  0.00000000  0.00000000  0.86372000  1.0
  Y  Y1  1  0.25000000  0.50000000  0.95457000  1.0
  Y  Y2  1  0.25001000  0.50000000  0.13071000  1.0
  Y  Y3  1  0.50000000  0.00000000  0.86372000  1.0
  Y  Y4  1  0.50270000  0.00000000  0.04979000  1.0
  Y  Y5  1  0.74997000  0.50000000  0.13153000  1.0
  Y  Y6  1  0.75000000  0.50000000  0.95457000  1.0
  Y  Y7  1  0.99720000  0.00000000  0.04979000  1.0
  In  In8  1  0.00000000  0.50000000  0.86372000  1.0
  In  In9  1  0.00189000  0.50000000  0.04423000  1.0
  In  In10  1  0.24997000  0.00000000  0.14350000  1.0
  In  In11  1  0.25000000  0.00000000  0.95457000  1.0
  In  In12  1  0.49807000  0.50000000  0.04423000  1.0
  In  In13  1  0.50000000  0.50000000  0.86372000  1.0
  In  In14  1  0.74994000  0.00000000  0.14289000  1.0
  In  In15  1  0.75000000  0.00000000  0.95457000  1.0
  Au  Au16  2  0.00000000  0.25000000  0.95457000  1.0
  Au  Au17  2  0.24995000  0.23820000  0.04429000  1.0
  Au  Au18  2  0.25000000  0.25000000  0.86372000  1.0
  Au  Au19  2  0.50000000  0.25000000  0.95457000  1.0
  Au  Au20  2  0.50145000  0.25158000  0.14012000  1.0
  Au  Au21  2  0.74994000  0.24853000  0.04453000  1.0
  Au  Au22  2  0.75000000  0.25000000  0.86372000  1.0
  Au  Au23  2  0.99849000  0.25161000  0.14012000  1.0
  C  C24  1  0.25082000  0.50000000  0.22181000  1.0
  O  O25  1  0.25100000  0.50000000  0.26342000  1.0
