# generated using pymatgen
data_V4Ni8Sn4CO
_symmetry_space_group_name_H-M   'P 1'
_cell_length_a   6.09179000
_cell_length_b   6.09179000
_cell_length_c   24.56880000
_cell_angle_alpha   90.00000000
_cell_angle_beta   90.00000000
_cell_angle_gamma   90.00000000
_symmetry_Int_Tables_number   1
_chemical_formula_structural   V4Ni8Sn4CO
_chemical_formula_sum   'V4 Ni8 Sn4 C1 O1'
_cell_volume   911.74584389
_cell_formula_units_Z   1
loop_
 _symmetry_equiv_pos_site_id
 _symmetry_equiv_pos_as_xyz
  1  'x, y, z'
loop_
 _atom_site_type_symbol
 _atom_site_label
 _atom_site_symmetry_multiplicity
 _atom_site_fract_x
 _atom_site_fract_y
 _atom_site_fract_z
 _atom_site_occupancy
  V  V0  1  0.00000000  0.99991000  0.91489000  1.0
  V  V1  1  0.50000000  0.50001000  0.91471000  1.0
  V  V2  1  0.50000000  0.00000000  0.03099000  1.0
  V  V3  1  0.00000000  0.50000000  0.03099000  1.0
  Ni  Ni4  1  0.71536000  0.21583000  0.96177000  1.0
  Ni  Ni5  1  0.24996000  0.75000000  0.09298000  1.0
  Ni  Ni6  1  0.28464000  0.21583000  0.96177000  1.0
  Ni  Ni7  1  0.75004000  0.75000000  0.09298000  1.0
  Ni  Ni8  1  0.28458000  0.78422000  0.96177000  1.0
  Ni  Ni9  1  0.74996000  0.25000000  0.09298000  1.0
  Ni  Ni10  1  0.71542000  0.78422000  0.96177000  1.0
  Ni  Ni11  1  0.25004000  0.25000000  0.09298000  1.0
  Sn  Sn12  1  0.00000000  0.00000000  0.03099000  1.0
  Sn  Sn13  1  0.50000000  0.00005000  0.87732000  1.0
  Sn  Sn14  1  0.00000000  0.50001000  0.91443000  1.0
  Sn  Sn15  1  0.50000000  0.50000000  0.03099000  1.0
  C  C16  1  0.00000000  0.49966000  0.76333000  1.0
  O  O17  1  0.00000000  0.50038000  0.71715000  1.0
