# generated using pymatgen
data_Sc4Ga4Ge4Pd4CO
_symmetry_space_group_name_H-M   'P 1'
_cell_length_a   8.58414000
_cell_length_b   5.63062000
_cell_length_c   24.22090000
_cell_angle_alpha   90.00000000
_cell_angle_beta   90.00000000
_cell_angle_gamma   90.00000000
_symmetry_Int_Tables_number   1
_chemical_formula_structural   Sc4Ga4Ge4Pd4CO
_chemical_formula_sum   'Sc4 Ga4 Ge4 Pd4 C1 O1'
_cell_volume   1170.69371611
_cell_formula_units_Z   1
loop_
 _symmetry_equiv_pos_site_id
 _symmetry_equiv_pos_as_xyz
  1  'x, y, z'
loop_
 _atom_site_type_symbol
 _atom_site_label
 _atom_site_symmetry_multiplicity
 _atom_site_fract_x
 _atom_site_fract_y
 _atom_site_fract_z
 _atom_site_occupancy
  Sc  Sc0  1  0.75022000  0.73569000  0.96637000  1.0
  Sc  Sc1  1  0.75002000  0.22651000  0.08713000  1.0
  Sc  Sc2  1  0.24978000  0.73569000  0.96637000  1.0
  Sc  Sc3  1  0.24998000  0.22651000  0.08713000  1.0
  Ga  Ga4  1  0.50000000  0.00302000  0.91303000  1.0
  Ga  Ga5  1  0.50000000  0.48434000  0.02904000  1.0
  Ga  Ga6  1  0.00000000  0.01174000  0.91346000  1.0
  Ga  Ga7  1  0.00000000  0.48434000  0.02904000  1.0
  Ge  Ge8  1  0.74783000  0.22642000  0.96080000  1.0
  Ge  Ge9  1  0.75002000  0.72651000  0.08713000  1.0
  Ge  Ge10  1  0.25217000  0.22642000  0.96080000  1.0
  Ge  Ge11  1  0.24998000  0.72651000  0.08713000  1.0
  Pd  Pd12  1  0.50000000  0.50905000  0.92023000  1.0
  Pd  Pd13  1  0.50000000  0.98434000  0.02904000  1.0
  Pd  Pd14  1  0.00000000  0.51007000  0.92039000  1.0
  Pd  Pd15  1  0.00000000  0.98434000  0.02904000  1.0
  C  C16  1  0.50000000  0.16420000  0.76792000  1.0
  O  O17  1  0.50000000  0.97899000  0.74937000  1.0
