# generated using pymatgen
data_Li8Sn8Pd16C
_symmetry_space_group_name_H-M   'P 1'
_cell_length_a   6.41477000
_cell_length_b   9.07185000
_cell_length_c   26.80390000
_cell_angle_alpha   90.00000000
_cell_angle_beta   90.00000000
_cell_angle_gamma   90.00000000
_symmetry_Int_Tables_number   1
_chemical_formula_structural   Li8Sn8Pd16C
_chemical_formula_sum   'Li8 Sn8 Pd16 C1'
_cell_volume   1559.82163276
_cell_formula_units_Z   1
loop_
 _symmetry_equiv_pos_site_id
 _symmetry_equiv_pos_as_xyz
  1  'x, y, z'
loop_
 _atom_site_type_symbol
 _atom_site_label
 _atom_site_symmetry_multiplicity
 _atom_site_fract_x
 _atom_site_fract_y
 _atom_site_fract_z
 _atom_site_occupancy
  Li  Li0  1  0.00000000  0.00000000  0.87308000  1.0
  Li  Li1  1  0.50000000  0.25000000  0.95769000  1.0
  Li  Li2  1  0.50000000  0.75000000  0.95769000  1.0
  Li  Li3  1  0.00000000  0.50000000  0.87308000  1.0
  Li  Li4  1  0.00000000  0.50000000  0.04033000  1.0
  Li  Li5  1  0.50000000  0.75208000  0.13386000  1.0
  Li  Li6  1  0.50000000  0.24792000  0.13386000  1.0
  Li  Li7  1  0.00000000  0.00000000  0.03926000  1.0
  Sn  Sn8  1  0.00000000  0.75000000  0.95769000  1.0
  Sn  Sn9  1  0.50000000  0.00000000  0.87308000  1.0
  Sn  Sn10  1  0.00000000  0.25000000  0.95769000  1.0
  Sn  Sn11  1  0.50000000  0.50000000  0.87308000  1.0
  Sn  Sn12  1  0.00000000  0.25867000  0.13205000  1.0
  Sn  Sn13  1  0.50000000  0.50000000  0.04141000  1.0
  Sn  Sn14  1  0.00000000  0.74133000  0.13205000  1.0
  Sn  Sn15  1  0.50000000  0.00000000  0.04164000  1.0
  Pd  Pd16  1  0.25000000  0.00000000  0.95769000  1.0
  Pd  Pd17  1  0.75000000  0.50000000  0.95769000  1.0
  Pd  Pd18  1  0.75000000  0.00000000  0.95769000  1.0
  Pd  Pd19  1  0.25000000  0.50000000  0.95769000  1.0
  Pd  Pd20  1  0.75000000  0.75000000  0.87308000  1.0
  Pd  Pd21  1  0.25000000  0.25000000  0.87308000  1.0
  Pd  Pd22  1  0.25000000  0.75000000  0.87308000  1.0
  Pd  Pd23  1  0.75000000  0.25000000  0.87308000  1.0
  Pd  Pd24  1  0.24001000  0.50000000  0.11978000  1.0
  Pd  Pd25  1  0.78499000  0.00000000  0.12606000  1.0
  Pd  Pd26  1  0.75999000  0.50000000  0.11978000  1.0
  Pd  Pd27  1  0.21501000  0.00000000  0.12606000  1.0
  Pd  Pd28  1  0.75370000  0.24673000  0.04373000  1.0
  Pd  Pd29  1  0.24630000  0.75327000  0.04373000  1.0
  Pd  Pd30  1  0.24630000  0.24673000  0.04373000  1.0
  Pd  Pd31  1  0.75370000  0.75327000  0.04373000  1.0
  C  C32  1  0.50000000  0.00000000  0.14233000  1.0
