# generated using pymatgen
data_Li8Sb4Au4CO
_symmetry_space_group_name_H-M   P1
_cell_length_a   6.66546000
_cell_length_b   6.66546000
_cell_length_c   24.99910000
_cell_angle_alpha   90.00000000
_cell_angle_beta   90.00000000
_cell_angle_gamma   90.00000000
_symmetry_Int_Tables_number   1
_chemical_formula_structural   Li8Sb4Au4CO
_chemical_formula_sum   'Li8 Sb4 Au4 C1 O1'
_cell_volume   1110.66893977
_cell_formula_units_Z   1
loop_
 _symmetry_equiv_pos_site_id
 _symmetry_equiv_pos_as_xyz
  1  'x, y, z'
loop_
 _atom_site_type_symbol
 _atom_site_label
 _atom_site_symmetry_multiplicity
 _atom_site_fract_x
 _atom_site_fract_y
 _atom_site_fract_z
 _atom_site_occupancy
  Li  Li0  1  0.00000000  0.50000000  0.90001000  1.0
  Li  Li1  1  0.00166000  0.00155000  0.02721000  1.0
  Li  Li2  1  0.25000000  0.75000000  0.96667000  1.0
  Li  Li3  1  0.25085000  0.25088000  0.10783000  1.0
  Li  Li4  1  0.49877000  0.49881000  0.02728000  1.0
  Li  Li5  1  0.50000000  0.00000000  0.90001000  1.0
  Li  Li6  1  0.74905000  0.74921000  0.10641000  1.0
  Li  Li7  1  0.75000000  0.25000000  0.96667000  1.0
  Sb  Sb8  1  0.00000000  0.00000000  0.90001000  1.0
  Sb  Sb9  1  0.50000000  0.50000000  0.90001000  1.0
  Sb  Sb10  1  0.50034000  0.99919000  0.04329000  1.0
  Sb  Sb11  1  0.99927000  0.50054000  0.04330000  1.0
  Au  Au12  1  0.25000000  0.25000000  0.96667000  1.0
  Au  Au13  1  0.25065000  0.74898000  0.09145000  1.0
  Au  Au14  1  0.74900000  0.25060000  0.09136000  1.0
  Au  Au15  1  0.75000000  0.75000000  0.96667000  1.0
  C  C16  1  0.25116000  0.25116000  0.19160000  1.0
  O  O17  1  0.25126000  0.25127000  0.23720000  1.0
