# generated using pymatgen
data_Y8In8Cu8Pd8C
_symmetry_space_group_name_H-M   Pm
_cell_length_a   6.76944000
_cell_length_b   9.57344000
_cell_length_c   27.18010000
_cell_angle_alpha   90.00000000
_cell_angle_beta   90.00000000
_cell_angle_gamma   90.00000000
_symmetry_Int_Tables_number   6
_chemical_formula_structural   Y8In8Cu8Pd8C
_chemical_formula_sum   'Y8 In8 Cu8 Pd8 C1'
_cell_volume   1761.45605685
_cell_formula_units_Z   1
loop_
 _symmetry_equiv_pos_site_id
 _symmetry_equiv_pos_as_xyz
  1  'x, y, z'
  2  'x, -y, z'
loop_
 _atom_site_type_symbol
 _atom_site_label
 _atom_site_symmetry_multiplicity
 _atom_site_fract_x
 _atom_site_fract_y
 _atom_site_fract_z
 _atom_site_occupancy
  Y  Y0  2  0.24453000  0.25305000  0.04474000  1.0
  Y  Y1  2  0.25000000  0.25000000  0.86792000  1.0
  Y  Y2  1  0.72444000  0.00000000  0.13172000  1.0
  Y  Y3  1  0.75000000  0.00000000  0.95597000  1.0
  Y  Y4  1  0.75000000  0.50000000  0.95597000  1.0
  Y  Y5  1  0.76503000  0.50000000  0.13414000  1.0
  In  In6  2  0.75000000  0.25000000  0.86792000  1.0
  In  In7  2  0.75327000  0.24891000  0.04683000  1.0
  In  In8  1  0.23786000  0.50000000  0.13238000  1.0
  In  In9  1  0.25000000  0.00000000  0.95597000  1.0
  In  In10  1  0.25000000  0.50000000  0.95597000  1.0
  In  In11  1  0.29019000  0.00000000  0.13607000  1.0
  Cu  Cu12  2  0.48362000  0.26491000  0.12960000  1.0
  Cu  Cu13  2  0.50000000  0.25000000  0.95597000  1.0
  Cu  Cu14  1  -0.00000000  0.50000000  0.86792000  1.0
  Cu  Cu15  1  0.00000000  0.00000000  0.86792000  1.0
  Cu  Cu16  1  0.98615000  0.50000000  0.04395000  1.0
  Cu  Cu17  1  0.99331000  0.00000000  0.04521000  1.0
  Pd  Pd18  2  0.00000000  0.25000000  0.95597000  1.0
  Pd  Pd19  2  0.02028000  0.23298000  0.13451000  1.0
  Pd  Pd20  1  0.49117000  0.00000000  0.04055000  1.0
  Pd  Pd21  1  0.50000000  0.00000000  0.86792000  1.0
  Pd  Pd22  1  0.50000000  0.50000000  0.86792000  1.0
  Pd  Pd23  1  0.51387000  0.50000000  0.04822000  1.0
  C  C24  1  0.01070000  0.00000000  0.16827000  1.0
