# generated using pymatgen
data_Li4Sc4In4Ge4CO
_symmetry_space_group_name_H-M   Pm
_cell_length_a   6.08490000
_cell_length_b   8.12626000
_cell_length_c   24.54620000
_cell_angle_alpha   90.00000000
_cell_angle_beta   90.00000000
_cell_angle_gamma   90.00000000
_symmetry_Int_Tables_number   6
_chemical_formula_structural   Li4Sc4In4Ge4CO
_chemical_formula_sum   'Li4 Sc4 In4 Ge4 C1 O1'
_cell_volume   1213.74772066
_cell_formula_units_Z   1
loop_
 _symmetry_equiv_pos_site_id
 _symmetry_equiv_pos_as_xyz
  1  'x, y, z'
  2  'x, -y, z'
loop_
 _atom_site_type_symbol
 _atom_site_label
 _atom_site_symmetry_multiplicity
 _atom_site_fract_x
 _atom_site_fract_y
 _atom_site_fract_z
 _atom_site_occupancy
  Li  Li0  2  0.22147000  0.25044000  0.95384000  1.0
  Li  Li1  2  0.81559000  0.25001000  0.09260000  1.0
  Sc  Sc2  2  0.31559000  0.25001000  0.09260000  1.0
  Sc  Sc3  2  0.74441000  0.24919000  0.96649000  1.0
  In  In4  1  0.04372000  0.00000000  0.03087000  1.0
  In  In5  1  0.04372000  0.50000000  0.03087000  1.0
  In  In6  1  0.46217000  0.00000000  0.89968000  1.0
  In  In7  1  0.46499000  0.50000000  0.89915000  1.0
  Ge  Ge8  1  0.54372000  0.00000000  0.03087000  1.0
  Ge  Ge9  1  0.54372000  0.50000000  0.03087000  1.0
  Ge  Ge10  1  0.97979000  0.00000000  0.91572000  1.0
  Ge  Ge11  1  0.98081000  0.50000000  0.91643000  1.0
  C  C12  1  0.50098000  0.00000000  0.77064000  1.0
  O  O13  1  0.49276000  0.00000000  0.72443000  1.0
