# generated using pymatgen
data_Mn4Zn12CO
_symmetry_space_group_name_H-M   Pmm2
_cell_length_a   5.40621000
_cell_length_b   7.64553000
_cell_length_c   24.05470000
_cell_angle_alpha   90.00000000
_cell_angle_beta   90.00000000
_cell_angle_gamma   90.00000000
_symmetry_Int_Tables_number   25
_chemical_formula_structural   Mn4Zn12CO
_chemical_formula_sum   'Mn4 Zn12 C1 O1'
_cell_volume   994.26111153
_cell_formula_units_Z   1
loop_
 _symmetry_equiv_pos_site_id
 _symmetry_equiv_pos_as_xyz
  1  'x, y, z'
  2  '-x, -y, z'
  3  '-x, y, z'
  4  'x, -y, z'
loop_
 _atom_site_type_symbol
 _atom_site_label
 _atom_site_symmetry_multiplicity
 _atom_site_fract_x
 _atom_site_fract_y
 _atom_site_fract_z
 _atom_site_occupancy
  Mn  Mn0  1  0.00000000  0.00000000  0.92106000  1.0
  Mn  Mn1  1  0.00000000  0.50000000  0.90854000  1.0
  Mn  Mn2  1  0.50000000  0.00000000  0.02809000  1.0
  Mn  Mn3  1  0.50000000  0.50000000  0.02809000  1.0
  Zn  Zn4  4  0.25000000  0.25000000  0.08428000  1.0
  Zn  Zn5  4  0.25080000  0.25041000  0.96393000  1.0
  Zn  Zn6  1  0.00000000  0.00000000  0.02809000  1.0
  Zn  Zn7  1  0.00000000  0.50000000  0.02809000  1.0
  Zn  Zn8  1  0.50000000  0.00000000  0.90746000  1.0
  Zn  Zn9  1  0.50000000  0.50000000  0.91044000  1.0
  C  C10  1  0.00000000  0.00000000  0.84528000  1.0
  O  O11  1  0.00000000  0.00000000  0.79672000  1.0
