# generated using pymatgen
data_Y8In8Sn8Pd8C
_symmetry_space_group_name_H-M   Pmm2
_cell_length_a   8.73372000
_cell_length_b   9.06394000
_cell_length_c   26.87300000
_cell_angle_alpha   90.00000000
_cell_angle_beta   90.00000000
_cell_angle_gamma   90.00000000
_symmetry_Int_Tables_number   25
_chemical_formula_structural   Y8In8Sn8Pd8C
_chemical_formula_sum   'Y8 In8 Sn8 Pd8 C1'
_cell_volume   2127.31811645
_cell_formula_units_Z   1
loop_
 _symmetry_equiv_pos_site_id
 _symmetry_equiv_pos_as_xyz
  1  'x, y, z'
  2  '-x, -y, z'
  3  '-x, y, z'
  4  'x, -y, z'
loop_
 _atom_site_type_symbol
 _atom_site_label
 _atom_site_symmetry_multiplicity
 _atom_site_fract_x
 _atom_site_fract_y
 _atom_site_fract_z
 _atom_site_occupancy
  Y  Y0  4  0.24736000  0.25528000  0.04662000  1.0
  Y  Y1  4  0.25000000  0.25000000  0.87212000  1.0
  In  In2  2  0.25000000  0.00000000  0.95737000  1.0
  In  In3  2  0.25000000  0.50000000  0.95737000  1.0
  In  In4  2  0.27726000  0.00000000  0.14406000  1.0
  In  In5  2  0.31146000  0.50000000  0.14399000  1.0
  Sn  Sn6  1  0.00000000  0.00000000  0.03678000  1.0
  Sn  Sn7  1  0.00000000  0.00000000  0.87212000  1.0
  Sn  Sn8  1  0.00000000  0.50000000  0.07298000  1.0
  Sn  Sn9  1  0.00000000  0.50000000  0.87212000  1.0
  Sn  Sn10  1  0.50000000  0.00000000  0.04228000  1.0
  Sn  Sn11  1  0.50000000  0.00000000  0.87212000  1.0
  Sn  Sn12  1  0.50000000  0.50000000  0.03935000  1.0
  Sn  Sn13  1  0.50000000  0.50000000  0.87212000  1.0
  Pd  Pd14  2  0.00000000  0.20832000  0.11920000  1.0
  Pd  Pd15  2  0.00000000  0.25000000  0.95737000  1.0
  Pd  Pd16  2  0.50000000  0.24063000  0.12190000  1.0
  Pd  Pd17  2  0.50000000  0.25000000  0.95737000  1.0
  C  C18  1  0.00000000  0.00000000  0.14667000  1.0
