# generated using pymatgen
data_Li8Y8In8Pt8CO
_symmetry_space_group_name_H-M   'P 1'
_cell_length_a   9.62122000
_cell_length_b   6.80323000
_cell_length_c   27.21590000
_cell_angle_alpha   90.00000000
_cell_angle_beta   90.00000000
_cell_angle_gamma   90.00000000
_symmetry_Int_Tables_number   1
_chemical_formula_structural   Li8Y8In8Pt8CO
_chemical_formula_sum   'Li8 Y8 In8 Pt8 C1 O1'
_cell_volume   1781.42687353
_cell_formula_units_Z   1
loop_
 _symmetry_equiv_pos_site_id
 _symmetry_equiv_pos_as_xyz
  1  'x, y, z'
loop_
 _atom_site_type_symbol
 _atom_site_label
 _atom_site_symmetry_multiplicity
 _atom_site_fract_x
 _atom_site_fract_y
 _atom_site_fract_z
 _atom_site_occupancy
  Li  Li0  1  0.50000000  0.75000000  0.04419000  1.0
  Li  Li1  1  0.00000000  0.75000000  0.04419000  1.0
  Li  Li2  1  0.75002000  0.25000000  0.13257000  1.0
  Li  Li3  1  0.24998000  0.25000000  0.13257000  1.0
  Li  Li4  1  0.00000000  0.53678000  0.81391000  1.0
  Li  Li5  1  0.50000000  0.58583000  0.82039000  1.0
  Li  Li6  1  0.24671000  0.23398000  0.95245000  1.0
  Li  Li7  1  0.75329000  0.23398000  0.95245000  1.0
  Y  Y8  1  0.75002000  0.00000000  0.04419000  1.0
  Y  Y9  1  0.24998000  0.00000000  0.04419000  1.0
  Y  Y10  1  0.00000000  0.50000000  0.13257000  1.0
  Y  Y11  1  0.50000000  0.50000000  0.13257000  1.0
  Y  Y12  1  0.25966000  0.95631000  0.86679000  1.0
  Y  Y13  1  0.74034000  0.95631000  0.86679000  1.0
  Y  Y14  1  0.50000000  0.50412000  0.95215000  1.0
  Y  Y15  1  0.00000000  0.50962000  0.94938000  1.0
  In  In16  1  0.50000000  0.00000000  0.13257000  1.0
  In  In17  1  0.00000000  1.00000000  0.13257000  1.0
  In  In18  1  0.25002000  0.50000000  0.04419000  1.0
  In  In19  1  0.74998000  0.50000000  0.04419000  1.0
  In  In20  1  0.00000000  0.99048000  0.95701000  1.0
  In  In21  1  0.50000000  0.99314000  0.95749000  1.0
  In  In22  1  0.74952000  0.46696000  0.86435000  1.0
  In  In23  1  0.25048000  0.46696000  0.86435000  1.0
  Pt  Pt24  1  0.50000000  0.25000000  0.04419000  1.0
  Pt  Pt25  1  0.00000000  0.25000000  0.04419000  1.0
  Pt  Pt26  1  0.75002000  0.75000000  0.13257000  1.0
  Pt  Pt27  1  0.24998000  0.75000000  0.13257000  1.0
  Pt  Pt28  1  0.00000000  0.22815000  0.87499000  1.0
  Pt  Pt29  1  0.50000000  0.23955000  0.87549000  1.0
  Pt  Pt30  1  0.25156000  0.74928000  0.95739000  1.0
  Pt  Pt31  1  0.74844000  0.74928000  0.95739000  1.0
  C  C32  1  0.50000000  0.89711000  0.80904000  1.0
  O  O33  1  0.50000000  0.99459000  0.77283000  1.0
