# generated using pymatgen
data_Li8Y8Ga8Pd8C
_symmetry_space_group_name_H-M   'P 1'
_cell_length_a   9.36046000
_cell_length_b   6.61884000
_cell_length_c   27.02030000
_cell_angle_alpha   90.00000000
_cell_angle_beta   90.00000000
_cell_angle_gamma   90.00000000
_symmetry_Int_Tables_number   1
_chemical_formula_structural   Li8Y8Ga8Pd8C
_chemical_formula_sum   'Li8 Y8 Ga8 Pd8 C1'
_cell_volume   1674.05314515
_cell_formula_units_Z   1
loop_
 _symmetry_equiv_pos_site_id
 _symmetry_equiv_pos_as_xyz
  1  'x, y, z'
loop_
 _atom_site_type_symbol
 _atom_site_label
 _atom_site_symmetry_multiplicity
 _atom_site_fract_x
 _atom_site_fract_y
 _atom_site_fract_z
 _atom_site_occupancy
  Li  Li0  1  0.75000000  0.75000000  0.04330000  1.0
  Li  Li1  1  0.25000000  0.75000000  0.04330000  1.0
  Li  Li2  1  0.00000000  0.25000000  0.12991000  1.0
  Li  Li3  1  0.50000000  0.25000000  0.12991000  1.0
  Li  Li4  1  0.28607000  0.51797000  0.81466000  1.0
  Li  Li5  1  0.71393000  0.51797000  0.81466000  1.0
  Li  Li6  1  0.50000000  0.21859000  0.95306000  1.0
  Li  Li7  1  0.00000000  0.18193000  0.93855000  1.0
  Y  Y8  1  0.00000000  0.00000000  0.04330000  1.0
  Y  Y9  1  0.50000000  0.00000000  0.04330000  1.0
  Y  Y10  1  0.25000000  0.50000000  0.12991000  1.0
  Y  Y11  1  0.75000000  0.50000000  0.12991000  1.0
  Y  Y12  1  0.50000000  0.92459000  0.87171000  1.0
  Y  Y13  1  0.00000000  0.83843000  0.86757000  1.0
  Y  Y14  1  0.75187000  0.48971000  0.95044000  1.0
  Y  Y15  1  0.24813000  0.48971000  0.95044000  1.0
  Ga  Ga16  1  0.75000000  0.00000000  0.12991000  1.0
  Ga  Ga17  1  0.25000000  0.00000000  0.12991000  1.0
  Ga  Ga18  1  0.50000000  0.50000000  0.04330000  1.0
  Ga  Ga19  1  0.00000000  0.50000000  0.04330000  1.0
  Ga  Ga20  1  0.25292000  0.97120000  0.95596000  1.0
  Ga  Ga21  1  0.74708000  0.97120000  0.95596000  1.0
  Ga  Ga22  1  0.00000000  0.42735000  0.82592000  1.0
  Ga  Ga23  1  0.50000000  0.42752000  0.87285000  1.0
  Pd  Pd24  1  0.75000000  0.25000000  0.04330000  1.0
  Pd  Pd25  1  0.25000000  0.25000000  0.04330000  1.0
  Pd  Pd26  1  0.00000000  0.75000000  0.12991000  1.0
  Pd  Pd27  1  0.50000000  0.75000000  0.12991000  1.0
  Pd  Pd28  1  0.23112000  0.20450000  0.87480000  1.0
  Pd  Pd29  1  0.76888000  0.20450000  0.87480000  1.0
  Pd  Pd30  1  0.50000000  0.73301000  0.96217000  1.0
  Pd  Pd31  1  0.00000000  0.74175000  0.96646000  1.0
  C  C32  1  0.00000000  0.16979000  0.85852000  1.0
