# generated using pymatgen
data_Li8In8Cu8Pd8C
_symmetry_space_group_name_H-M   Pm
_cell_length_a   6.33486000
_cell_length_b   8.95884000
_cell_length_c   26.71910000
_cell_angle_alpha   90.00000000
_cell_angle_beta   90.00000000
_cell_angle_gamma   90.00000000
_symmetry_Int_Tables_number   6
_chemical_formula_structural   Li8In8Cu8Pd8C
_chemical_formula_sum   'Li8 In8 Cu8 Pd8 C1'
_cell_volume   1516.38900648
_cell_formula_units_Z   1
loop_
 _symmetry_equiv_pos_site_id
 _symmetry_equiv_pos_as_xyz
  1  'x, y, z'
  2  'x, -y, z'
loop_
 _atom_site_type_symbol
 _atom_site_label
 _atom_site_symmetry_multiplicity
 _atom_site_fract_x
 _atom_site_fract_y
 _atom_site_fract_z
 _atom_site_occupancy
  Li  Li0  2  0.74666000  0.25538000  0.03760000  1.0
  Li  Li1  2  0.75000000  0.25000000  0.87426000  1.0
  Li  Li2  1  0.21781000  0.00000000  0.13138000  1.0
  Li  Li3  1  0.23298000  0.50000000  0.12875000  1.0
  Li  Li4  1  0.25000000  0.00000000  0.95809000  1.0
  Li  Li5  1  0.25000000  0.50000000  0.95809000  1.0
  In  In6  2  0.25000000  0.25000000  0.87426000  1.0
  In  In7  2  0.25152000  0.24178000  0.04257000  1.0
  In  In8  1  0.71094000  0.50000000  0.13218000  1.0
  In  In9  1  0.75000000  0.00000000  0.95809000  1.0
  In  In10  1  0.75000000  0.50000000  0.95809000  1.0
  In  In11  1  0.82876000  0.00000000  0.16688000  1.0
  Cu  Cu12  2  0.50000000  0.25000000  0.95809000  1.0
  Cu  Cu13  2  0.53559000  0.21724000  0.12197000  1.0
  Cu  Cu14  1  -0.00000000  0.50000000  0.87426000  1.0
  Cu  Cu15  1  0.00000000  0.00000000  0.87426000  1.0
  Cu  Cu16  1  0.96771000  0.00000000  0.05083000  1.0
  Cu  Cu17  1  0.99335000  0.50000000  0.04631000  1.0
  Pd  Pd18  2  -0.00000000  0.25000000  0.95809000  1.0
  Pd  Pd19  2  0.96500000  0.25702000  0.11731000  1.0
  Pd  Pd20  1  0.48986000  0.50000000  0.04236000  1.0
  Pd  Pd21  1  0.50000000  0.00000000  0.87426000  1.0
  Pd  Pd22  1  0.50000000  0.50000000  0.87426000  1.0
  Pd  Pd23  1  0.53856000  0.00000000  0.04794000  1.0
  C  C24  1  0.52413000  0.00000000  0.12490000  1.0
