# generated using pymatgen
data_Cu12Sb4CO
_symmetry_space_group_name_H-M   'P 1'
_cell_length_a   6.30953000
_cell_length_b   6.30953000
_cell_length_c   24.73210000
_cell_angle_alpha   90.00000000
_cell_angle_beta   90.00000000
_cell_angle_gamma   90.00000000
_symmetry_Int_Tables_number   1
_chemical_formula_structural   Cu12Sb4CO
_chemical_formula_sum   'Cu12 Sb4 C1 O1'
_cell_volume   984.58907630
_cell_formula_units_Z   1
loop_
 _symmetry_equiv_pos_site_id
 _symmetry_equiv_pos_as_xyz
  1  'x, y, z'
loop_
 _atom_site_type_symbol
 _atom_site_label
 _atom_site_symmetry_multiplicity
 _atom_site_fract_x
 _atom_site_fract_y
 _atom_site_fract_z
 _atom_site_occupancy
  Cu  Cu0  1  0.26843000  0.26845000  0.03534000  1.0
  Cu  Cu1  1  0.75000000  0.75000000  0.90433000  1.0
  Cu  Cu2  1  0.73155000  0.26845000  0.03534000  1.0
  Cu  Cu3  1  0.25000000  0.75000000  0.90433000  1.0
  Cu  Cu4  1  0.73158000  0.73159000  0.03534000  1.0
  Cu  Cu5  1  0.25000000  0.25000000  0.90433000  1.0
  Cu  Cu6  1  0.26841000  0.73162000  0.03534000  1.0
  Cu  Cu7  1  0.75000000  0.25000000  0.90433000  1.0
  Cu  Cu8  1  0.00000000  0.00000000  0.96811000  1.0
  Cu  Cu9  1  0.50001000  0.00000000  0.08397000  1.0
  Cu  Cu10  1  0.00001000  0.50001000  0.08396000  1.0
  Cu  Cu11  1  0.50000000  0.50000000  0.96811000  1.0
  Sb  Sb12  1  0.99998000  0.00004000  0.09174000  1.0
  Sb  Sb13  1  0.49998000  0.50005000  0.10591000  1.0
  Sb  Sb14  1  0.50000000  0.00000000  0.96811000  1.0
  Sb  Sb15  1  0.00000000  0.50000000  0.96811000  1.0
  C  C16  1  0.00013000  0.99938000  0.26276000  1.0
  O  O17  1  0.99998000  0.00010000  0.30863000  1.0
