# generated using pymatgen
data_Li8In8Ge8Pd8CO
_symmetry_space_group_name_H-M   'P 1'
_cell_length_a   9.21874000
_cell_length_b   6.51863000
_cell_length_c   26.91410000
_cell_angle_alpha   90.00000000
_cell_angle_beta   90.00000000
_cell_angle_gamma   90.00000000
_symmetry_Int_Tables_number   1
_chemical_formula_structural   Li8In8Ge8Pd8CO
_chemical_formula_sum   'Li8 In8 Ge8 Pd8 C1 O1'
_cell_volume   1617.36395202
_cell_formula_units_Z   1
loop_
 _symmetry_equiv_pos_site_id
 _symmetry_equiv_pos_as_xyz
  1  'x, y, z'
loop_
 _atom_site_type_symbol
 _atom_site_label
 _atom_site_symmetry_multiplicity
 _atom_site_fract_x
 _atom_site_fract_y
 _atom_site_fract_z
 _atom_site_occupancy
  Li  Li0  1  0.75000000  0.75000000  0.04282000  1.0
  Li  Li1  1  0.25000000  0.75000000  0.04282000  1.0
  Li  Li2  1  0.00000000  0.25000000  0.12845000  1.0
  Li  Li3  1  0.50000000  0.25000000  0.12845000  1.0
  Li  Li4  1  0.25546000  0.70344000  0.85561000  1.0
  Li  Li5  1  0.74454000  0.70344000  0.85561000  1.0
  Li  Li6  1  0.50000000  0.20054000  0.94999000  1.0
  Li  Li7  1  0.00000000  0.20281000  0.95082000  1.0
  In  In8  1  0.00000000  0.00000000  0.04282000  1.0
  In  In9  1  0.50000000  0.00000000  0.04282000  1.0
  In  In10  1  0.25000000  0.50000000  0.12845000  1.0
  In  In11  1  0.75000000  0.50000000  0.12845000  1.0
  In  In12  1  0.50000000  0.01148000  0.84752000  1.0
  In  In13  1  0.00000000  0.99319000  0.85088000  1.0
  In  In14  1  0.74722000  0.49578000  0.95719000  1.0
  In  In15  1  0.25278000  0.49578000  0.95719000  1.0
  Ge  Ge16  1  0.75000000  0.00000000  0.12845000  1.0
  Ge  Ge17  1  0.25000000  0.00000000  0.12845000  1.0
  Ge  Ge18  1  0.50000000  0.50000000  0.04282000  1.0
  Ge  Ge19  1  0.00000000  0.50000000  0.04282000  1.0
  Ge  Ge20  1  0.24855000  0.96334000  0.94904000  1.0
  Ge  Ge21  1  0.75145000  0.96334000  0.94904000  1.0
  Ge  Ge22  1  0.00000000  0.48935000  0.87623000  1.0
  Ge  Ge23  1  0.50000000  0.47926000  0.87485000  1.0
  Pd  Pd24  1  0.75000000  0.25000000  0.04282000  1.0
  Pd  Pd25  1  0.25000000  0.25000000  0.04282000  1.0
  Pd  Pd26  1  0.00000000  0.75000000  0.12845000  1.0
  Pd  Pd27  1  0.50000000  0.75000000  0.12845000  1.0
  Pd  Pd28  1  0.24687000  0.23400000  0.87961000  1.0
  Pd  Pd29  1  0.75313000  0.23400000  0.87961000  1.0
  Pd  Pd30  1  0.50000000  0.75938000  0.95779000  1.0
  Pd  Pd31  1  0.00000000  0.74784000  0.96073000  1.0
  C  C32  1  0.00000000  0.37862000  0.74815000  1.0
  O  O33  1  0.00000000  0.52832000  0.72644000  1.0
