# generated using pymatgen
data_Sc8Al8Ni16CO
_symmetry_space_group_name_H-M   'P 1'
_cell_length_a   6.07419000
_cell_length_b   8.59020000
_cell_length_c   26.44270000
_cell_angle_alpha   90.00000000
_cell_angle_beta   90.00000000
_cell_angle_gamma   90.00000000
_symmetry_Int_Tables_number   1
_chemical_formula_structural   Sc8Al8Ni16CO
_chemical_formula_sum   'Sc8 Al8 Ni16 C1 O1'
_cell_volume   1379.74060541
_cell_formula_units_Z   1
loop_
 _symmetry_equiv_pos_site_id
 _symmetry_equiv_pos_as_xyz
  1  'x, y, z'
loop_
 _atom_site_type_symbol
 _atom_site_label
 _atom_site_symmetry_multiplicity
 _atom_site_fract_x
 _atom_site_fract_y
 _atom_site_fract_z
 _atom_site_occupancy
  Sc  Sc0  1  0.00000000  0.75000000  0.87818000  1.0
  Sc  Sc1  1  0.50000000  0.00000000  0.95939000  1.0
  Sc  Sc2  1  0.50000000  0.50000000  0.95939000  1.0
  Sc  Sc3  1  0.00000000  0.25000000  0.87818000  1.0
  Sc  Sc4  1  0.00000000  0.25073000  0.03838000  1.0
  Sc  Sc5  1  0.50000000  0.50000000  0.12686000  1.0
  Sc  Sc6  1  0.50000000  0.00000000  0.12675000  1.0
  Sc  Sc7  1  0.00000000  0.74927000  0.03838000  1.0
  Al  Al8  1  0.00000000  0.50000000  0.95939000  1.0
  Al  Al9  1  0.50000000  0.75000000  0.87818000  1.0
  Al  Al10  1  0.00000000  0.00000000  0.95939000  1.0
  Al  Al11  1  0.50000000  0.25000000  0.87818000  1.0
  Al  Al12  1  0.00000000  0.00000000  0.11898000  1.0
  Al  Al13  1  0.50000000  0.24960000  0.04351000  1.0
  Al  Al14  1  0.00000000  0.50000000  0.11925000  1.0
  Al  Al15  1  0.50000000  0.75040000  0.04351000  1.0
  Ni  Ni16  1  0.25000000  0.75000000  0.95939000  1.0
  Ni  Ni17  1  0.75000000  0.25000000  0.95939000  1.0
  Ni  Ni18  1  0.75000000  0.75000000  0.95939000  1.0
  Ni  Ni19  1  0.25000000  0.25000000  0.95939000  1.0
  Ni  Ni20  1  0.75000000  0.50000000  0.87818000  1.0
  Ni  Ni21  1  0.25000000  0.00000000  0.87818000  1.0
  Ni  Ni22  1  0.25000000  0.50000000  0.87818000  1.0
  Ni  Ni23  1  0.75000000  0.00000000  0.87818000  1.0
  Ni  Ni24  1  0.22680000  0.25084000  0.11619000  1.0
  Ni  Ni25  1  0.77320000  0.74916000  0.11619000  1.0
  Ni  Ni26  1  0.77320000  0.25084000  0.11619000  1.0
  Ni  Ni27  1  0.22680000  0.74916000  0.11619000  1.0
  Ni  Ni28  1  0.74173000  0.00000000  0.04142000  1.0
  Ni  Ni29  1  0.26302000  0.50000000  0.04264000  1.0
  Ni  Ni30  1  0.25827000  0.00000000  0.04142000  1.0
  Ni  Ni31  1  0.73698000  0.50000000  0.04264000  1.0
  C  C32  1  0.50000000  0.00000000  0.21680000  1.0
  O  O33  1  0.50000000  0.00000000  0.26002000  1.0
