# generated using pymatgen
data_GaNi
_symmetry_space_group_name_H-M   Pmm2
_cell_length_a   2.91485500
_cell_length_b   8.24446000
_cell_length_c   26.18330000
_cell_angle_alpha   90.00000000
_cell_angle_beta   90.00000000
_cell_angle_gamma   90.00000000
_symmetry_Int_Tables_number   25
_chemical_formula_structural   GaNi
_chemical_formula_sum   'Ga8 Ni8'
_cell_volume   629.22149841
_cell_formula_units_Z   8
loop_
 _symmetry_equiv_pos_site_id
 _symmetry_equiv_pos_as_xyz
  1  'x, y, z'
  2  '-x, -y, z'
  3  '-x, y, z'
  4  'x, -y, z'
loop_
 _atom_site_type_symbol
 _atom_site_label
 _atom_site_symmetry_multiplicity
 _atom_site_fract_x
 _atom_site_fract_y
 _atom_site_fract_z
 _atom_site_occupancy
  Ga  Ga0  2  0.00000000  0.25000000  0.88192000  1.0
  Ga  Ga1  2  0.00000000  0.25008000  0.04045000  1.0
  Ga  Ga2  1  0.00000000  0.00000000  0.12557000  1.0
  Ga  Ga3  1  0.00000000  0.00000000  0.96064000  1.0
  Ga  Ga4  1  0.00000000  0.50000000  0.12555000  1.0
  Ga  Ga5  1  0.00000000  0.50000000  0.96064000  1.0
  Ni  Ni6  2  0.50000000  0.25000000  0.96064000  1.0
  Ni  Ni7  2  0.50000000  0.25004000  0.11549000  1.0
  Ni  Ni8  1  0.50000000  0.00000000  0.03814000  1.0
  Ni  Ni9  1  0.50000000  0.00000000  0.88192000  1.0
  Ni  Ni10  1  0.50000000  0.50000000  0.03813000  1.0
  Ni  Ni11  1  0.50000000  0.50000000  0.88192000  1.0
