# generated using pymatgen
data_LiCuSnPd
_symmetry_space_group_name_H-M   Pm
_cell_length_a   6.33545000
_cell_length_b   4.47984000
_cell_length_c   26.71980000
_cell_angle_alpha   90.00000000
_cell_angle_beta   90.00000000
_cell_angle_gamma   90.00000000
_symmetry_Int_Tables_number   6
_chemical_formula_structural   LiCuSnPd
_chemical_formula_sum   'Li4 Cu4 Sn4 Pd4'
_cell_volume   758.35608184
_cell_formula_units_Z   4
loop_
 _symmetry_equiv_pos_site_id
 _symmetry_equiv_pos_as_xyz
  1  'x, y, z'
  2  'x, -y, z'
loop_
 _atom_site_type_symbol
 _atom_site_label
 _atom_site_symmetry_multiplicity
 _atom_site_fract_x
 _atom_site_fract_y
 _atom_site_fract_z
 _atom_site_occupancy
  Li  Li0  1  0.24816000  0.50000000  0.96462000  1.0
  Li  Li1  1  0.25000000  0.50000000  0.12575000  1.0
  Li  Li2  1  0.75000000  0.00000000  0.04192000  1.0
  Li  Li3  1  0.75585000  0.00000000  0.87072000  1.0
  Cu  Cu4  1  0.00000000  0.00000000  0.12575000  1.0
  Cu  Cu5  1  0.01564000  0.00000000  0.95121000  1.0
  Cu  Cu6  1  0.46342000  0.50000000  0.88512000  1.0
  Cu  Cu7  1  0.50000000  0.50000000  0.04192000  1.0
  Sn  Sn8  1  0.25000000  0.00000000  0.04192000  1.0
  Sn  Sn9  1  0.25466000  0.00000000  0.85995000  1.0
  Sn  Sn10  1  0.74905000  0.50000000  0.95878000  1.0
  Sn  Sn11  1  0.75000000  0.50000000  0.12575000  1.0
  Pd  Pd12  1  0.00000000  0.50000000  0.04192000  1.0
  Pd  Pd13  1  0.03120000  0.50000000  0.88339000  1.0
  Pd  Pd14  1  0.48843500  0.00000000  0.95182000  1.0
  Pd  Pd15  1  0.50000000  0.00000000  0.12575000  1.0
