# generated using pymatgen
data_Sc8Al8Cu16C
_symmetry_space_group_name_H-M   'P 1'
_cell_length_a   6.23499000
_cell_length_b   8.81761000
_cell_length_c   26.61320000
_cell_angle_alpha   90.00000000
_cell_angle_beta   90.00000000
_cell_angle_gamma   90.00000000
_symmetry_Int_Tables_number   1
_chemical_formula_structural   Sc8Al8Cu16C
_chemical_formula_sum   'Sc8 Al8 Cu16 C1'
_cell_volume   1463.13279640
_cell_formula_units_Z   1
loop_
 _symmetry_equiv_pos_site_id
 _symmetry_equiv_pos_as_xyz
  1  'x, y, z'
loop_
 _atom_site_type_symbol
 _atom_site_label
 _atom_site_symmetry_multiplicity
 _atom_site_fract_x
 _atom_site_fract_y
 _atom_site_fract_z
 _atom_site_occupancy
  Sc  Sc0  1  0.00000000  0.00000000  0.87575000  1.0
  Sc  Sc1  1  0.50000000  0.25000000  0.95858000  1.0
  Sc  Sc2  1  0.50000000  0.75000000  0.95858000  1.0
  Sc  Sc3  1  0.00000000  0.50000000  0.87575000  1.0
  Sc  Sc4  1  0.00000000  0.50000000  0.04361000  1.0
  Sc  Sc5  1  0.50000000  0.72440000  0.12747000  1.0
  Sc  Sc6  1  0.50000000  0.27560000  0.12747000  1.0
  Sc  Sc7  1  0.00000000  0.00000000  0.04043000  1.0
  Al  Al8  1  0.00000000  0.75000000  0.95858000  1.0
  Al  Al9  1  0.50000000  0.00000000  0.87575000  1.0
  Al  Al10  1  0.00000000  0.25000000  0.95858000  1.0
  Al  Al11  1  0.50000000  0.50000000  0.87575000  1.0
  Al  Al12  1  0.00000000  0.23114000  0.12090000  1.0
  Al  Al13  1  0.50000000  0.50000000  0.04091000  1.0
  Al  Al14  1  0.00000000  0.76886000  0.12090000  1.0
  Al  Al15  1  0.50000000  0.00000000  0.03902000  1.0
  Cu  Cu16  1  0.25000000  0.00000000  0.95858000  1.0
  Cu  Cu17  1  0.75000000  0.50000000  0.95858000  1.0
  Cu  Cu18  1  0.75000000  0.00000000  0.95858000  1.0
  Cu  Cu19  1  0.25000000  0.50000000  0.95858000  1.0
  Cu  Cu20  1  0.75000000  0.75000000  0.87575000  1.0
  Cu  Cu21  1  0.25000000  0.25000000  0.87575000  1.0
  Cu  Cu22  1  0.25000000  0.75000000  0.87575000  1.0
  Cu  Cu23  1  0.75000000  0.25000000  0.87575000  1.0
  Cu  Cu24  1  0.20364000  0.50000000  0.13203000  1.0
  Cu  Cu25  1  0.69715000  0.00000000  0.12342000  1.0
  Cu  Cu26  1  0.79636000  0.50000000  0.13203000  1.0
  Cu  Cu27  1  0.30285000  0.00000000  0.12342000  1.0
  Cu  Cu28  1  0.73949000  0.25135000  0.04165000  1.0
  Cu  Cu29  1  0.26051000  0.74865000  0.04165000  1.0
  Cu  Cu30  1  0.26051000  0.25135000  0.04165000  1.0
  Cu  Cu31  1  0.73949000  0.74865000  0.04165000  1.0
  C  C32  1  0.00000000  0.00000000  0.13069000  1.0
