# generated using pymatgen
data_Li16In8Pd8CO
_symmetry_space_group_name_H-M   'P 1'
_cell_length_a   9.14213000
_cell_length_b   6.46446000
_cell_length_c   26.85660000
_cell_angle_alpha   90.00000000
_cell_angle_beta   90.00000000
_cell_angle_gamma   90.00000000
_symmetry_Int_Tables_number   1
_chemical_formula_structural   Li16In8Pd8CO
_chemical_formula_sum   'Li16 In8 Pd8 C1 O1'
_cell_volume   1587.19642280
_cell_formula_units_Z   1
loop_
 _symmetry_equiv_pos_site_id
 _symmetry_equiv_pos_as_xyz
  1  'x, y, z'
loop_
 _atom_site_type_symbol
 _atom_site_label
 _atom_site_symmetry_multiplicity
 _atom_site_fract_x
 _atom_site_fract_y
 _atom_site_fract_z
 _atom_site_occupancy
  Li  Li0  1  0.75000000  0.00000000  0.04255000  1.0
  Li  Li1  1  0.00000000  0.50000000  0.12765000  1.0
  Li  Li2  1  0.25000000  0.00000000  0.04255000  1.0
  Li  Li3  1  0.50000000  0.50000000  0.12765000  1.0
  Li  Li4  1  0.25000000  0.25000000  0.12765000  1.0
  Li  Li5  1  0.75000000  0.25000000  0.12765000  1.0
  Li  Li6  1  0.50000000  0.75000000  0.04255000  1.0
  Li  Li7  1  0.00000000  0.75000000  0.04255000  1.0
  Li  Li8  1  0.24878000  0.00063000  0.87176000  1.0
  Li  Li9  1  0.50000000  0.49252000  0.95791000  1.0
  Li  Li10  1  0.75122000  0.00063000  0.87176000  1.0
  Li  Li11  1  0.00000000  0.49972000  0.95836000  1.0
  Li  Li12  1  0.75037000  0.24498000  0.96038000  1.0
  Li  Li13  1  0.24963000  0.24498000  0.96038000  1.0
  Li  Li14  1  0.00000000  0.73001000  0.87334000  1.0
  Li  Li15  1  0.50000000  0.72475000  0.87483000  1.0
  In  In16  1  0.00000000  0.25000000  0.04255000  1.0
  In  In17  1  0.50000000  0.25000000  0.04255000  1.0
  In  In18  1  0.75000000  0.75000000  0.12765000  1.0
  In  In19  1  0.25000000  0.75000000  0.12765000  1.0
  In  In20  1  0.50000000  0.24728000  0.86676000  1.0
  In  In21  1  0.00000000  0.25579000  0.86871000  1.0
  In  In22  1  0.25038000  0.75589000  0.95799000  1.0
  In  In23  1  0.74962000  0.75589000  0.95799000  1.0
  Pd  Pd24  1  0.00000000  0.00000000  0.12765000  1.0
  Pd  Pd25  1  0.25000000  0.50000000  0.04255000  1.0
  Pd  Pd26  1  0.75000000  0.50000000  0.04255000  1.0
  Pd  Pd27  1  0.50000000  0.00000000  0.12765000  1.0
  Pd  Pd28  1  0.50000000  0.00421000  0.95566000  1.0
  Pd  Pd29  1  0.74727000  0.47642000  0.88221000  1.0
  Pd  Pd30  1  0.25273000  0.47642000  0.88221000  1.0
  Pd  Pd31  1  0.00000000  0.00312000  0.95580000  1.0
  C  C32  1  0.00000000  0.75858000  0.79654000  1.0
  O  O33  1  0.00000000  0.75821000  0.75391000  1.0
