# generated using pymatgen
data_Li16In8Pd8CO
_symmetry_space_group_name_H-M   Pm
_cell_length_a   6.46446000
_cell_length_b   9.14213000
_cell_length_c   26.85660000
_cell_angle_alpha   90.00000000
_cell_angle_beta   90.00000000
_cell_angle_gamma   90.00000000
_symmetry_Int_Tables_number   6
_chemical_formula_structural   Li16In8Pd8CO
_chemical_formula_sum   'Li16 In8 Pd8 C1 O1'
_cell_volume   1587.19642280
_cell_formula_units_Z   1
loop_
 _symmetry_equiv_pos_site_id
 _symmetry_equiv_pos_as_xyz
  1  'x, y, z'
  2  'x, -y, z'
loop_
 _atom_site_type_symbol
 _atom_site_label
 _atom_site_symmetry_multiplicity
 _atom_site_fract_x
 _atom_site_fract_y
 _atom_site_fract_z
 _atom_site_occupancy
  Li  Li0  2  0.00000000  0.25000000  0.95745000  1.0
  Li  Li1  2  0.00063000  0.24878000  0.12824000  1.0
  Li  Li2  2  0.24498000  0.24963000  0.03962000  1.0
  Li  Li3  2  0.25000000  0.25000000  0.87235000  1.0
  Li  Li4  1  0.49252000  0.50000000  0.04209000  1.0
  Li  Li5  1  0.49972000  0.00000000  0.04164000  1.0
  Li  Li6  1  0.50000000  0.00000000  0.87235000  1.0
  Li  Li7  1  0.50000000  0.50000000  0.87235000  1.0
  Li  Li8  1  0.72475000  0.50000000  0.12517000  1.0
  Li  Li9  1  0.73001000  0.00000000  0.12666000  1.0
  Li  Li10  1  0.75000000  0.00000000  0.95745000  1.0
  Li  Li11  1  0.75000000  0.50000000  0.95745000  1.0
  In  In12  2  0.75000000  0.25000000  0.87235000  1.0
  In  In13  2  0.75589000  0.25038000  0.04201000  1.0
  In  In14  1  0.24728000  0.50000000  0.13324000  1.0
  In  In15  1  0.25000000  0.00000000  0.95745000  1.0
  In  In16  1  0.25000000  0.50000000  0.95745000  1.0
  In  In17  1  0.25579000  0.00000000  0.13129000  1.0
  Pd  Pd18  2  0.47642000  0.25273000  0.11779000  1.0
  Pd  Pd19  2  0.50000000  0.25000000  0.95745000  1.0
  Pd  Pd20  1  0.00000000  0.00000000  0.87235000  1.0
  Pd  Pd21  1  0.00000000  0.50000000  0.87235000  1.0
  Pd  Pd22  1  0.00312000  0.00000000  0.04420000  1.0
  Pd  Pd23  1  0.00421000  0.50000000  0.04434000  1.0
  C  C24  1  0.75858000  0.00000000  0.20346000  1.0
  O  O25  1  0.75821000  0.00000000  0.24609000  1.0
