# generated using pymatgen
data_Li8Sn8Ge8Pd8C
_symmetry_space_group_name_H-M   P1
_cell_length_a   6.61012000
_cell_length_b   9.34812000
_cell_length_c   27.01110000
_cell_angle_alpha   90.00000000
_cell_angle_beta   90.00000000
_cell_angle_gamma   90.00000000
_symmetry_Int_Tables_number   1
_chemical_formula_structural   Li8Sn8Ge8Pd8C
_chemical_formula_sum   'Li8 Sn8 Ge8 Pd8 C1'
_cell_volume   1669.07515767
_cell_formula_units_Z   1
loop_
 _symmetry_equiv_pos_site_id
 _symmetry_equiv_pos_as_xyz
  1  'x, y, z'
loop_
 _atom_site_type_symbol
 _atom_site_label
 _atom_site_symmetry_multiplicity
 _atom_site_fract_x
 _atom_site_fract_y
 _atom_site_fract_z
 _atom_site_occupancy
  Li  Li0  1  0.19780000  0.25002000  0.05675000  1.0
  Li  Li1  1  0.22756000  0.74999000  0.04390000  1.0
  Li  Li2  1  0.25000000  0.25000000  0.87022000  1.0
  Li  Li3  1  0.25000000  0.75000000  0.87022000  1.0
  Li  Li4  1  0.75000000  0.00000000  0.95674000  1.0
  Li  Li5  1  0.75000000  0.50000000  0.95674000  1.0
  Li  Li6  1  0.78596000  0.50983000  0.13876000  1.0
  Li  Li7  1  0.78605000  0.99021000  0.13881000  1.0
  Sn  Sn8  1  0.00000000  0.25000000  0.95674000  1.0
  Sn  Sn9  1  0.00000000  0.75000000  0.95674000  1.0
  Sn  Sn10  1  0.04174000  0.25006000  0.18679000  1.0
  Sn  Sn11  1  0.06282000  0.75005000  0.14231000  1.0
  Sn  Sn12  1  0.50000000  0.00000000  0.87022000  1.0
  Sn  Sn13  1  0.50000000  0.50000000  0.87022000  1.0
  Sn  Sn14  1  0.50648000  0.50907000  0.04718000  1.0
  Sn  Sn15  1  0.50654000  0.99095000  0.04718000  1.0
  Ge  Ge16  1  0.00000000  0.00000000  0.87022000  1.0
  Ge  Ge17  1  0.00000000  0.50000000  0.87022000  1.0
  Ge  Ge18  1  0.50000000  0.25000000  0.95674000  1.0
  Ge  Ge19  1  0.50000000  0.75000000  0.95674000  1.0
  Ge  Ge20  1  0.50671000  0.75015000  0.12281000  1.0
  Ge  Ge21  1  0.57910000  0.24988000  0.12612000  1.0
  Ge  Ge22  1  0.97764000  0.49834000  0.04262000  1.0
  Ge  Ge23  1  0.97767000  0.00164000  0.04265000  1.0
  Pd  Pd24  1  0.19343000  0.47067000  0.12092000  1.0
  Pd  Pd25  1  0.19356000  0.02943000  0.12094000  1.0
  Pd  Pd26  1  0.25000000  0.00000000  0.95674000  1.0
  Pd  Pd27  1  0.25000000  0.50000000  0.95674000  1.0
  Pd  Pd28  1  0.72819000  0.25002000  0.03507000  1.0
  Pd  Pd29  1  0.75000000  0.25000000  0.87022000  1.0
  Pd  Pd30  1  0.75000000  0.75000000  0.87022000  1.0
  Pd  Pd31  1  0.79268000  0.74999000  0.04875000  1.0
  C  C32  1  0.28948000  0.25009000  0.13395000  1.0
