# generated using pymatgen
data_Ti16Al16CO
_symmetry_space_group_name_H-M   'P 1'
_cell_length_a   6.37073000
_cell_length_b   9.00957000
_cell_length_c   26.75720000
_cell_angle_alpha   90.00000000
_cell_angle_beta   90.00000000
_cell_angle_gamma   90.00000000
_symmetry_Int_Tables_number   1
_chemical_formula_structural   Ti16Al16CO
_chemical_formula_sum   'Ti16 Al16 C1 O1'
_cell_volume   1535.79740073
_cell_formula_units_Z   1
loop_
 _symmetry_equiv_pos_site_id
 _symmetry_equiv_pos_as_xyz
  1  'x, y, z'
loop_
 _atom_site_type_symbol
 _atom_site_label
 _atom_site_symmetry_multiplicity
 _atom_site_fract_x
 _atom_site_fract_y
 _atom_site_fract_z
 _atom_site_occupancy
  Ti  Ti0  1  0.75000000  0.00000000  0.87373000  1.0
  Ti  Ti1  1  0.75000000  0.25000000  0.95791000  1.0
  Ti  Ti2  1  0.75467000  0.00000000  0.04618000  1.0
  Ti  Ti3  1  0.73872000  0.25903000  0.12396000  1.0
  Ti  Ti4  1  0.75000000  0.50000000  0.87373000  1.0
  Ti  Ti5  1  0.75000000  0.75000000  0.95791000  1.0
  Ti  Ti6  1  0.74237000  0.50000000  0.04609000  1.0
  Ti  Ti7  1  0.73872000  0.74097000  0.12396000  1.0
  Ti  Ti8  1  0.25000000  0.00000000  0.87373000  1.0
  Ti  Ti9  1  0.25000000  0.25000000  0.95791000  1.0
  Ti  Ti10  1  0.24533000  0.00000000  0.04618000  1.0
  Ti  Ti11  1  0.26128000  0.25903000  0.12396000  1.0
  Ti  Ti12  1  0.25000000  0.50000000  0.87373000  1.0
  Ti  Ti13  1  0.25000000  0.75000000  0.95791000  1.0
  Ti  Ti14  1  0.25763000  0.50000000  0.04609000  1.0
  Ti  Ti15  1  0.26128000  0.74097000  0.12396000  1.0
  Al  Al16  1  0.00000000  0.25000000  0.87373000  1.0
  Al  Al17  1  0.00000000  0.00000000  0.95791000  1.0
  Al  Al18  1  0.00000000  0.25393000  0.04202000  1.0
  Al  Al19  1  0.00000000  0.00000000  0.13053000  1.0
  Al  Al20  1  0.00000000  0.75000000  0.87373000  1.0
  Al  Al21  1  0.00000000  0.50000000  0.95791000  1.0
  Al  Al22  1  0.00000000  0.74607000  0.04202000  1.0
  Al  Al23  1  0.00000000  0.50000000  0.13533000  1.0
  Al  Al24  1  0.50000000  0.25000000  0.87373000  1.0
  Al  Al25  1  0.50000000  0.00000000  0.95791000  1.0
  Al  Al26  1  0.50000000  0.24530000  0.04025000  1.0
  Al  Al27  1  0.50000000  0.00000000  0.13705000  1.0
  Al  Al28  1  0.50000000  0.75000000  0.87373000  1.0
  Al  Al29  1  0.50000000  0.50000000  0.95791000  1.0
  Al  Al30  1  0.50000000  0.75470000  0.04025000  1.0
  Al  Al31  1  0.50000000  0.50000000  0.14245000  1.0
  C  C32  1  0.00000000  0.00000000  0.20339000  1.0
  O  O33  1  0.00000000  0.00000000  0.24673000  1.0
