# generated using pymatgen
data_Ti16Al16CO
_symmetry_space_group_name_H-M   Pmm2
_cell_length_a   6.37073000
_cell_length_b   9.00957000
_cell_length_c   26.75720000
_cell_angle_alpha   90.00000000
_cell_angle_beta   90.00000000
_cell_angle_gamma   90.00000000
_symmetry_Int_Tables_number   25
_chemical_formula_structural   Ti16Al16CO
_chemical_formula_sum   'Ti16 Al16 C1 O1'
_cell_volume   1535.79740073
_cell_formula_units_Z   1
loop_
 _symmetry_equiv_pos_site_id
 _symmetry_equiv_pos_as_xyz
  1  'x, y, z'
  2  '-x, -y, z'
  3  '-x, y, z'
  4  'x, -y, z'
loop_
 _atom_site_type_symbol
 _atom_site_label
 _atom_site_symmetry_multiplicity
 _atom_site_fract_x
 _atom_site_fract_y
 _atom_site_fract_z
 _atom_site_occupancy
  Ti  Ti0  4  0.25000000  0.25000000  0.95791000  1.0
  Ti  Ti1  4  0.26128000  0.25903000  0.12396000  1.0
  Ti  Ti2  2  0.24533000  0.00000000  0.04618000  1.0
  Ti  Ti3  2  0.25000000  0.00000000  0.87373000  1.0
  Ti  Ti4  2  0.25000000  0.50000000  0.87373000  1.0
  Ti  Ti5  2  0.25763000  0.50000000  0.04609000  1.0
  Al  Al6  2  0.00000000  0.25000000  0.87373000  1.0
  Al  Al7  2  0.00000000  0.25393000  0.04202000  1.0
  Al  Al8  2  0.50000000  0.24530000  0.04025000  1.0
  Al  Al9  2  0.50000000  0.25000000  0.87373000  1.0
  Al  Al10  1  0.00000000  0.00000000  0.13053000  1.0
  Al  Al11  1  0.00000000  0.00000000  0.95791000  1.0
  Al  Al12  1  0.00000000  0.50000000  0.13533000  1.0
  Al  Al13  1  0.00000000  0.50000000  0.95791000  1.0
  Al  Al14  1  0.50000000  0.00000000  0.13705000  1.0
  Al  Al15  1  0.50000000  0.00000000  0.95791000  1.0
  Al  Al16  1  0.50000000  0.50000000  0.14245000  1.0
  Al  Al17  1  0.50000000  0.50000000  0.95791000  1.0
  C  C18  1  0.00000000  0.00000000  0.20339000  1.0
  O  O19  1  0.00000000  0.00000000  0.24673000  1.0
