# generated using pymatgen
data_Si4Ni12C
_symmetry_space_group_name_H-M   Pm
_cell_length_a   5.00776000
_cell_length_b   7.08204000
_cell_length_c   23.75580000
_cell_angle_alpha   90.00000000
_cell_angle_beta   90.00000000
_cell_angle_gamma   90.00000000
_symmetry_Int_Tables_number   6
_chemical_formula_structural   Si4Ni12C
_chemical_formula_sum   'Si4 Ni12 C1'
_cell_volume   842.50316788
_cell_formula_units_Z   1
loop_
 _symmetry_equiv_pos_site_id
 _symmetry_equiv_pos_as_xyz
  1  'x, y, z'
  2  'x, -y, z'
loop_
 _atom_site_type_symbol
 _atom_site_label
 _atom_site_symmetry_multiplicity
 _atom_site_fract_x
 _atom_site_fract_y
 _atom_site_fract_z
 _atom_site_occupancy
  Si  Si0  2  0.00385000  0.25861000  0.92589000  1.0
  Si  Si1  2  0.50000000  0.25000000  0.02635000  1.0
  Ni  Ni2  2  0.00000000  0.25000000  0.02635000  1.0
  Ni  Ni3  2  0.51489000  0.27963000  0.91843000  1.0
  Ni  Ni4  1  0.23840000  0.50000000  0.97283000  1.0
  Ni  Ni5  1  0.25000000  0.00000000  0.07905000  1.0
  Ni  Ni6  1  0.25000000  0.50000000  0.07905000  1.0
  Ni  Ni7  1  0.25909000  0.00000000  0.96727000  1.0
  Ni  Ni8  1  0.74065000  0.50000000  0.98256000  1.0
  Ni  Ni9  1  0.75000000  0.00000000  0.07905000  1.0
  Ni  Ni10  1  0.75000000  0.50000000  0.07905000  1.0
  Ni  Ni11  1  0.75534000  0.00000000  0.96596000  1.0
  C  C12  1  0.73455000  0.50000000  0.90479000  1.0
