# generated using pymatgen
data_Li8Mg8Ag8Pd8C
_symmetry_space_group_name_H-M   Pm
_cell_length_a   6.38329000
_cell_length_b   9.02734000
_cell_length_c   26.77050000
_cell_angle_alpha   90.00000000
_cell_angle_beta   90.00000000
_cell_angle_gamma   90.00000000
_symmetry_Int_Tables_number   6
_chemical_formula_structural   Li8Mg8Ag8Pd8C
_chemical_formula_sum   'Li8 Mg8 Ag8 Pd8 C1'
_cell_volume   1542.62674937
_cell_formula_units_Z   1
loop_
 _symmetry_equiv_pos_site_id
 _symmetry_equiv_pos_as_xyz
  1  'x, y, z'
  2  'x, -y, z'
loop_
 _atom_site_type_symbol
 _atom_site_label
 _atom_site_symmetry_multiplicity
 _atom_site_fract_x
 _atom_site_fract_y
 _atom_site_fract_z
 _atom_site_occupancy
  Li  Li0  2  0.75000000  0.25000000  0.95785000  1.0
  Li  Li1  2  0.75860000  0.23813000  0.13803000  1.0
  Li  Li2  1  0.24928000  0.50000000  0.04481000  1.0
  Li  Li3  1  0.25000000  0.00000000  0.87355000  1.0
  Li  Li4  1  0.25000000  0.50000000  0.87355000  1.0
  Li  Li5  1  0.25853000  0.00000000  0.03783000  1.0
  Mg  Mg6  2  0.24117000  0.26682000  0.13229000  1.0
  Mg  Mg7  2  0.25000000  0.25000000  0.95785000  1.0
  Mg  Mg8  1  0.73642000  0.00000000  0.04810000  1.0
  Mg  Mg9  1  0.74737000  0.50000000  0.04104000  1.0
  Mg  Mg10  1  0.75000000  0.00000000  0.87355000  1.0
  Mg  Mg11  1  0.75000000  0.50000000  0.87355000  1.0
  Ag  Ag12  2  0.00000000  0.25000000  0.87355000  1.0
  Ag  Ag13  2  0.99911000  0.24785000  0.04349000  1.0
  Ag  Ag14  1  0.45558000  0.00000000  0.13479000  1.0
  Ag  Ag15  1  0.50000000  0.00000000  0.95785000  1.0
  Ag  Ag16  1  0.50000000  0.50000000  0.95785000  1.0
  Ag  Ag17  1  0.52139000  0.50000000  0.12754000  1.0
  Pd  Pd18  2  0.49289000  0.25045000  0.04497000  1.0
  Pd  Pd19  2  0.50000000  0.25000000  0.87355000  1.0
  Pd  Pd20  1  0.00000000  0.00000000  0.95785000  1.0
  Pd  Pd21  1  0.00000000  0.50000000  0.95785000  1.0
  Pd  Pd22  1  0.04736000  0.00000000  0.11870000  1.0
  Pd  Pd23  1  0.98462000  0.50000000  0.12182000  1.0
  C  C24  1  0.77230000  0.00000000  0.14275000  1.0
