# generated using pymatgen
data_Li8Y8In8Ag8CO
_symmetry_space_group_name_H-M   'P 1'
_cell_length_a   9.76810000
_cell_length_b   6.90709000
_cell_length_c   27.32610000
_cell_angle_alpha   90.00000000
_cell_angle_beta   90.00000000
_cell_angle_gamma   90.00000000
_symmetry_Int_Tables_number   1
_chemical_formula_structural   Li8Y8In8Ag8CO
_chemical_formula_sum   'Li8 Y8 In8 Ag8 C1 O1'
_cell_volume   1843.66862584
_cell_formula_units_Z   1
loop_
 _symmetry_equiv_pos_site_id
 _symmetry_equiv_pos_as_xyz
  1  'x, y, z'
loop_
 _atom_site_type_symbol
 _atom_site_label
 _atom_site_symmetry_multiplicity
 _atom_site_fract_x
 _atom_site_fract_y
 _atom_site_fract_z
 _atom_site_occupancy
  Li  Li0  1  0.00000000  0.00000000  0.04468000  1.0
  Li  Li1  1  0.50000000  0.00000000  0.04468000  1.0
  Li  Li2  1  0.24996000  0.50000000  0.13405000  1.0
  Li  Li3  1  0.75004000  0.50000000  0.13405000  1.0
  Li  Li4  1  0.50000000  0.15511000  0.82357000  1.0
  Li  Li5  1  0.00000000  0.15440000  0.82055000  1.0
  Li  Li6  1  0.74970000  0.52046000  0.94986000  1.0
  Li  Li7  1  0.25030000  0.52046000  0.94986000  1.0
  Y  Y8  1  0.74996000  0.75000000  0.04468000  1.0
  Y  Y9  1  0.25004000  0.75000000  0.04468000  1.0
  Y  Y10  1  0.00000000  0.25000000  0.13405000  1.0
  Y  Y11  1  0.50000000  0.25000000  0.13405000  1.0
  Y  Y12  1  0.22337000  0.79761000  0.86072000  1.0
  Y  Y13  1  0.77663000  0.79761000  0.86072000  1.0
  Y  Y14  1  0.50000000  0.24811000  0.94794000  1.0
  Y  Y15  1  0.00000000  0.23903000  0.95237000  1.0
  In  In16  1  0.74996000  0.25000000  0.04468000  1.0
  In  In17  1  0.25004000  0.25000000  0.04468000  1.0
  In  In18  1  0.00000000  0.75000000  0.13405000  1.0
  In  In19  1  0.50000000  0.75000000  0.13405000  1.0
  In  In20  1  0.25122000  0.26870000  0.86497000  1.0
  In  In21  1  0.74878000  0.26870000  0.86497000  1.0
  In  In22  1  0.50000000  0.75503000  0.95610000  1.0
  In  In23  1  0.00000000  0.75596000  0.95702000  1.0
  Ag  Ag24  1  0.74996000  0.00000000  0.13405000  1.0
  Ag  Ag25  1  0.25004000  0.00000000  0.13405000  1.0
  Ag  Ag26  1  0.50000000  0.50000000  0.04468000  1.0
  Ag  Ag27  1  0.00000000  0.50000000  0.04468000  1.0
  Ag  Ag28  1  0.25073000  0.99920000  0.95550000  1.0
  Ag  Ag29  1  0.74927000  0.99920000  0.95550000  1.0
  Ag  Ag30  1  0.00000000  0.50458000  0.86943000  1.0
  Ag  Ag31  1  0.50000000  0.54165000  0.86468000  1.0
  C  C32  1  0.00000000  0.84696000  0.80549000  1.0
  O  O33  1  0.00000000  0.78239000  0.76479000  1.0
