# generated using pymatgen
data_Li8Y8In8Ag8CO
_symmetry_space_group_name_H-M   Pm
_cell_length_a   6.90709000
_cell_length_b   9.76810000
_cell_length_c   27.32610000
_cell_angle_alpha   90.00000000
_cell_angle_beta   90.00000000
_cell_angle_gamma   90.00000000
_symmetry_Int_Tables_number   6
_chemical_formula_structural   Li8Y8In8Ag8CO
_chemical_formula_sum   'Li8 Y8 In8 Ag8 C1 O1'
_cell_volume   1843.66862584
_cell_formula_units_Z   1
loop_
 _symmetry_equiv_pos_site_id
 _symmetry_equiv_pos_as_xyz
  1  'x, y, z'
  2  'x, -y, z'
loop_
 _atom_site_type_symbol
 _atom_site_label
 _atom_site_symmetry_multiplicity
 _atom_site_fract_x
 _atom_site_fract_y
 _atom_site_fract_z
 _atom_site_occupancy
  Li  Li0  2  0.50000000  0.24996000  0.86595000  1.0
  Li  Li1  2  0.52046000  0.25030000  0.05014000  1.0
  Li  Li2  1  0.00000000  0.00000000  0.95532000  1.0
  Li  Li3  1  0.00000000  0.50000000  0.95532000  1.0
  Li  Li4  1  0.15440000  0.00000000  0.17945000  1.0
  Li  Li5  1  0.15511000  0.50000000  0.17643000  1.0
  Y  Y6  2  0.75000000  0.25004000  0.95532000  1.0
  Y  Y7  2  0.79761000  0.22337000  0.13928000  1.0
  Y  Y8  1  0.23903000  0.00000000  0.04763000  1.0
  Y  Y9  1  0.24811000  0.50000000  0.05206000  1.0
  Y  Y10  1  0.25000000  0.00000000  0.86595000  1.0
  Y  Y11  1  0.25000000  0.50000000  0.86595000  1.0
  In  In12  2  0.25000000  0.25004000  0.95532000  1.0
  In  In13  2  0.26870000  0.25122000  0.13503000  1.0
  In  In14  1  0.75000000  0.00000000  0.86595000  1.0
  In  In15  1  0.75000000  0.50000000  0.86595000  1.0
  In  In16  1  0.75503000  0.50000000  0.04390000  1.0
  In  In17  1  0.75596000  0.00000000  0.04298000  1.0
  Ag  Ag18  2  0.00000000  0.25004000  0.86595000  1.0
  Ag  Ag19  2  0.99920000  0.25073000  0.04450000  1.0
  Ag  Ag20  1  0.50000000  0.00000000  0.95532000  1.0
  Ag  Ag21  1  0.50000000  0.50000000  0.95532000  1.0
  Ag  Ag22  1  0.50458000  0.00000000  0.13057000  1.0
  Ag  Ag23  1  0.54165000  0.50000000  0.13532000  1.0
  C  C24  1  0.84696000  0.00000000  0.19451000  1.0
  O  O25  1  0.78239000  0.00000000  0.23521000  1.0
