# generated using pymatgen
data_Li16Sb8Pt8CO
_symmetry_space_group_name_H-M   Pm
_cell_length_a   6.40528000
_cell_length_b   9.05843000
_cell_length_c   26.79380000
_cell_angle_alpha   90.00000000
_cell_angle_beta   90.00000000
_cell_angle_gamma   90.00000000
_symmetry_Int_Tables_number   6
_chemical_formula_structural   Li16Sb8Pt8CO
_chemical_formula_sum   'Li16 Sb8 Pt8 C1 O1'
_cell_volume   1554.62398264
_cell_formula_units_Z   1
loop_
 _symmetry_equiv_pos_site_id
 _symmetry_equiv_pos_as_xyz
  1  'x, y, z'
  2  'x, -y, z'
loop_
 _atom_site_type_symbol
 _atom_site_label
 _atom_site_symmetry_multiplicity
 _atom_site_fract_x
 _atom_site_fract_y
 _atom_site_fract_z
 _atom_site_occupancy
  Li  Li0  2  0.00000000  0.25001000  0.95774000  1.0
  Li  Li1  2  0.02191000  0.23659000  0.12727000  1.0
  Li  Li2  2  0.25000000  0.24999000  0.87322000  1.0
  Li  Li3  2  0.25976000  0.24767000  0.04405000  1.0
  Li  Li4  1  0.48976000  0.50000000  0.04765000  1.0
  Li  Li5  1  0.50000000  0.00000000  0.87322000  1.0
  Li  Li6  1  0.50000000  0.50000000  0.87322000  1.0
  Li  Li7  1  0.51325000  0.00000000  0.03543000  1.0
  Li  Li8  1  0.71190000  0.00000000  0.12220000  1.0
  Li  Li9  1  0.75000000  0.00000000  0.95774000  1.0
  Li  Li10  1  0.75000000  0.50000000  0.95774000  1.0
  Li  Li11  1  0.76364000  0.50000000  0.13118000  1.0
  Sb  Sb12  2  0.49346000  0.25633000  0.13129000  1.0
  Sb  Sb13  2  0.50000000  0.24999000  0.95774000  1.0
  Sb  Sb14  1  0.00000000  0.00000000  0.87322000  1.0
  Sb  Sb15  1  0.00000000  0.50000000  0.87322000  1.0
  Sb  Sb16  1  0.99266000  0.00000000  0.04206000  1.0
  Sb  Sb17  1  0.99936000  0.50000000  0.04216000  1.0
  Pt  Pt18  2  0.74504000  0.25292000  0.04660000  1.0
  Pt  Pt19  2  0.75000000  0.25001000  0.87322000  1.0
  Pt  Pt20  1  0.20613000  0.50000000  0.13235000  1.0
  Pt  Pt21  1  0.25000000  0.00000000  0.95774000  1.0
  Pt  Pt22  1  0.25000000  0.50000000  0.95774000  1.0
  Pt  Pt23  1  0.28438000  0.00000000  0.11187000  1.0
  C  C24  1  0.10904000  0.50000000  0.19902000  1.0
  O  O25  1  0.06235000  0.50000000  0.24096000  1.0
