# generated using pymatgen
data_Li8Y8Ge8Pd8C
_symmetry_space_group_name_H-M   Pm
_cell_length_a   6.55453000
_cell_length_b   9.26950000
_cell_length_c   26.95210000
_cell_angle_alpha   90.00000000
_cell_angle_beta   90.00000000
_cell_angle_gamma   90.00000000
_symmetry_Int_Tables_number   6
_chemical_formula_structural   Li8Y8Ge8Pd8C
_chemical_formula_sum   'Li8 Y8 Ge8 Pd8 C1'
_cell_volume   1637.53455691
_cell_formula_units_Z   1
loop_
 _symmetry_equiv_pos_site_id
 _symmetry_equiv_pos_as_xyz
  1  'x, y, z'
  2  'x, -y, z'
loop_
 _atom_site_type_symbol
 _atom_site_label
 _atom_site_symmetry_multiplicity
 _atom_site_fract_x
 _atom_site_fract_y
 _atom_site_fract_z
 _atom_site_occupancy
  Li  Li0  2  0.22912000  0.24349000  0.04973000  1.0
  Li  Li1  2  0.25000000  0.25000000  0.87103000  1.0
  Li  Li2  1  0.50725000  0.50000000  0.18075000  1.0
  Li  Li3  1  0.58862000  0.00000000  0.17001000  1.0
  Li  Li4  1  0.75000000  0.00000000  0.95701000  1.0
  Li  Li5  1  0.75000000  0.50000000  0.95701000  1.0
  Y  Y6  2  -0.00000000  0.25000000  0.95701000  1.0
  Y  Y7  2  0.91454000  0.24266000  0.13246000  1.0
  Y  Y8  1  0.49385000  0.50000000  0.05061000  1.0
  Y  Y9  1  0.50000000  0.00000000  0.87103000  1.0
  Y  Y10  1  0.50000000  0.50000000  0.87103000  1.0
  Y  Y11  1  0.54065000  0.00000000  0.06115000  1.0
  Ge  Ge12  2  0.43590000  0.25485000  0.13313000  1.0
  Ge  Ge13  2  0.50000000  0.25000000  0.95701000  1.0
  Ge  Ge14  1  0.00000000  0.00000000  0.87103000  1.0
  Ge  Ge15  1  0.00000000  0.50000000  0.87103000  1.0
  Ge  Ge16  1  0.98663000  0.00000000  0.04397000  1.0
  Ge  Ge17  1  0.98694000  0.50000000  0.04007000  1.0
  Pd  Pd18  2  0.74318000  0.26098000  0.03598000  1.0
  Pd  Pd19  2  0.75000000  0.25000000  0.87103000  1.0
  Pd  Pd20  1  0.19516000  0.50000000  0.12139000  1.0
  Pd  Pd21  1  0.20874000  0.00000000  0.12623000  1.0
  Pd  Pd22  1  0.25000000  0.00000000  0.95701000  1.0
  Pd  Pd23  1  0.25000000  0.50000000  0.95701000  1.0
  C  C24  1  0.84977000  0.00000000  0.11896000  1.0
