# generated using pymatgen
data_Ti8Ni16Sb8CO
_symmetry_space_group_name_H-M   Pmm2
_cell_length_a   6.14873000
_cell_length_b   8.69561000
_cell_length_c   26.52170000
_cell_angle_alpha   90.00000000
_cell_angle_beta   90.00000000
_cell_angle_gamma   90.00000000
_symmetry_Int_Tables_number   25
_chemical_formula_structural   Ti8Ni16Sb8CO
_chemical_formula_sum   'Ti8 Ni16 Sb8 C1 O1'
_cell_volume   1418.03462199
_cell_formula_units_Z   1
loop_
 _symmetry_equiv_pos_site_id
 _symmetry_equiv_pos_as_xyz
  1  'x, y, z'
  2  '-x, -y, z'
  3  '-x, y, z'
  4  'x, -y, z'
loop_
 _atom_site_type_symbol
 _atom_site_label
 _atom_site_symmetry_multiplicity
 _atom_site_fract_x
 _atom_site_fract_y
 _atom_site_fract_z
 _atom_site_occupancy
  Ti  Ti0  2  0.00000000  0.25000000  0.87705000  1.0
  Ti  Ti1  2  0.00000000  0.25144000  0.04263000  1.0
  Ti  Ti2  1  0.50000000  0.00000000  0.12133000  1.0
  Ti  Ti3  1  0.50000000  0.00000000  0.95902000  1.0
  Ti  Ti4  1  0.50000000  0.50000000  0.12019000  1.0
  Ti  Ti5  1  0.50000000  0.50000000  0.95902000  1.0
  Ni  Ni6  4  0.25000000  0.25000000  0.95902000  1.0
  Ni  Ni7  4  0.26908000  0.25129000  0.11631000  1.0
  Ni  Ni8  2  0.22444000  0.00000000  0.04382000  1.0
  Ni  Ni9  2  0.23772000  0.50000000  0.04522000  1.0
  Ni  Ni10  2  0.25000000  0.00000000  0.87705000  1.0
  Ni  Ni11  2  0.25000000  0.50000000  0.87705000  1.0
  Sb  Sb12  2  0.50000000  0.24657000  0.03776000  1.0
  Sb  Sb13  2  0.50000000  0.25000000  0.87705000  1.0
  Sb  Sb14  1  0.00000000  0.00000000  0.13279000  1.0
  Sb  Sb15  1  0.00000000  0.00000000  0.95902000  1.0
  Sb  Sb16  1  0.00000000  0.50000000  0.13331000  1.0
  Sb  Sb17  1  0.00000000  0.50000000  0.95902000  1.0
  C  C18  1  0.50000000  0.00000000  0.20079000  1.0
  O  O19  1  0.50000000  0.00000000  0.24424000  1.0
