# generated using pymatgen
data_Mn16V16CO
_symmetry_space_group_name_H-M   Pmm2
_cell_length_a   5.76229000
_cell_length_b   8.14911000
_cell_length_c   26.11180000
_cell_angle_alpha   90.00000000
_cell_angle_beta   90.00000000
_cell_angle_gamma   90.00000000
_symmetry_Int_Tables_number   25
_chemical_formula_structural   Mn16V16CO
_chemical_formula_sum   'Mn16 V16 C1 O1'
_cell_volume   1226.14576403
_cell_formula_units_Z   1
loop_
 _symmetry_equiv_pos_site_id
 _symmetry_equiv_pos_as_xyz
  1  'x, y, z'
  2  '-x, -y, z'
  3  '-x, y, z'
  4  'x, -y, z'
loop_
 _atom_site_type_symbol
 _atom_site_label
 _atom_site_symmetry_multiplicity
 _atom_site_fract_x
 _atom_site_fract_y
 _atom_site_fract_z
 _atom_site_occupancy
  Mn  Mn0  4  0.24889000  0.25217000  0.11565000  1.0
  Mn  Mn1  4  0.25000000  0.25000000  0.96099000  1.0
  Mn  Mn2  2  0.25000000  0.00000000  0.88297000  1.0
  Mn  Mn3  2  0.25000000  0.50000000  0.88297000  1.0
  Mn  Mn4  2  0.25014000  0.50000000  0.04069000  1.0
  Mn  Mn5  2  0.25134000  0.00000000  0.03945000  1.0
  V  V6  2  0.00000000  0.25000000  0.88297000  1.0
  V  V7  2  0.00000000  0.25092000  0.03995000  1.0
  V  V8  2  0.50000000  0.25000000  0.88297000  1.0
  V  V9  2  0.50000000  0.25150000  0.04019000  1.0
  V  V10  1  0.00000000  0.00000000  0.12039000  1.0
  V  V11  1  0.00000000  0.00000000  0.96099000  1.0
  V  V12  1  0.00000000  0.50000000  0.12289000  1.0
  V  V13  1  0.00000000  0.50000000  0.96099000  1.0
  V  V14  1  0.50000000  0.00000000  0.12014000  1.0
  V  V15  1  0.50000000  0.00000000  0.96099000  1.0
  V  V16  1  0.50000000  0.50000000  0.12321000  1.0
  V  V17  1  0.50000000  0.50000000  0.96099000  1.0
  C  C18  1  0.00000000  0.00000000  0.19657000  1.0
  O  O19  1  0.00000000  0.00000000  0.24082000  1.0
