data_image0
_chemical_formula_structural       Cu12Au4C
_chemical_formula_sum              "Cu12 Au4 C1"
_cell_length_a       7.64441
_cell_length_b       5.40542
_cell_length_c       24.0541
_cell_angle_alpha    90
_cell_angle_beta     90
_cell_angle_gamma    90

_space_group_name_H-M_alt    "P 1"
_space_group_IT_number       1

loop_
  _space_group_symop_operation_xyz
  'x, y, z'

loop_
  _atom_site_type_symbol
  _atom_site_label
  _atom_site_symmetry_multiplicity
  _atom_site_fract_x
  _atom_site_fract_y
  _atom_site_fract_z
  _atom_site_occupancy
  Cu  Cu1       1.0  0.00000  0.50000  0.91573  1.0000
  Cu  Cu2       1.0  0.25000  0.75000  0.97191  1.0000
  Cu  Cu3       1.0  0.25000  0.25000  0.97191  1.0000
  Cu  Cu4       1.0  1.00000  1.00000  0.02725  1.0000
  Cu  Cu5       1.0  0.19958  0.25370  0.08969  1.0000
  Cu  Cu6       1.0  0.19958  0.74630  0.08969  1.0000
  Cu  Cu7       1.0  0.50000  0.50000  0.91573  1.0000
  Cu  Cu8       1.0  0.75000  0.75000  0.97191  1.0000
  Cu  Cu9       1.0  0.75000  0.25000  0.97191  1.0000
  Cu  Cu10      1.0  0.50000  1.00000  0.04614  1.0000
  Cu  Cu11      1.0  0.80042  0.25370  0.08969  1.0000
  Cu  Cu12      1.0  0.80042  0.74630  0.08969  1.0000
  Au  Au1       1.0  0.00000  0.00000  0.91573  1.0000
  Au  Au2       1.0  1.00000  0.50000  0.01717  1.0000
  Au  Au3       1.0  0.50000  0.00000  0.91573  1.0000
  Au  Au4       1.0  0.50000  0.50000  0.04135  1.0000
  C   C1        1.0  0.00000  0.50000  0.10583  1.0000
