# generated using pymatgen
data_Cu12Au4C
_symmetry_space_group_name_H-M   Pmm2
_cell_length_a   5.40542000
_cell_length_b   7.64441000
_cell_length_c   24.05410000
_cell_angle_alpha   90.00000000
_cell_angle_beta   90.00000000
_cell_angle_gamma   90.00000000
_symmetry_Int_Tables_number   25
_chemical_formula_structural   Cu12Au4C
_chemical_formula_sum   'Cu12 Au4 C1'
_cell_volume   993.94540030
_cell_formula_units_Z   1
loop_
 _symmetry_equiv_pos_site_id
 _symmetry_equiv_pos_as_xyz
  1  'x, y, z'
  2  '-x, -y, z'
  3  '-x, y, z'
  4  'x, -y, z'
loop_
 _atom_site_type_symbol
 _atom_site_label
 _atom_site_symmetry_multiplicity
 _atom_site_fract_x
 _atom_site_fract_y
 _atom_site_fract_z
 _atom_site_occupancy
  Cu  Cu0  4  0.25000000  0.25000000  0.02809000  1.0
  Cu  Cu1  4  0.25370000  0.19958000  0.91031000  1.0
  Cu  Cu2  1  0.00000000  0.00000000  0.97275000  1.0
  Cu  Cu3  1  0.00000000  0.50000000  0.95386000  1.0
  Cu  Cu4  1  0.50000000  0.00000000  0.08427000  1.0
  Cu  Cu5  1  0.50000000  0.50000000  0.08427000  1.0
  Au  Au6  1  0.00000000  0.00000000  0.08427000  1.0
  Au  Au7  1  0.00000000  0.50000000  0.08427000  1.0
  Au  Au8  1  0.50000000  0.00000000  0.98283000  1.0
  Au  Au9  1  0.50000000  0.50000000  0.95865000  1.0
  C  C10  1  0.50000000  0.00000000  0.89417000  1.0
