# generated using pymatgen
data_Ti4Rh12C
_symmetry_space_group_name_H-M   'P 1'
_cell_length_a   5.46745000
_cell_length_b   7.73214000
_cell_length_c   24.10060000
_cell_angle_alpha   90.00000000
_cell_angle_beta   90.00000000
_cell_angle_gamma   90.00000000
_symmetry_Int_Tables_number   1
_chemical_formula_structural   Ti4Rh12C
_chemical_formula_sum   'Ti4 Rh12 C1'
_cell_volume   1018.85500617
_cell_formula_units_Z   1
loop_
 _symmetry_equiv_pos_site_id
 _symmetry_equiv_pos_as_xyz
  1  'x, y, z'
loop_
 _atom_site_type_symbol
 _atom_site_label
 _atom_site_symmetry_multiplicity
 _atom_site_fract_x
 _atom_site_fract_y
 _atom_site_fract_z
 _atom_site_occupancy
  Ti  Ti0  1  0.00000000  0.00000000  0.08507000  1.0
  Ti  Ti1  1  0.50000000  0.00000000  0.98555000  1.0
  Ti  Ti2  1  0.00000000  0.50000000  0.08507000  1.0
  Ti  Ti3  1  0.50000000  0.50000000  0.97003000  1.0
  Rh  Rh4  1  0.50000000  0.00000000  0.08507000  1.0
  Rh  Rh5  1  0.75000000  0.25000000  0.02836000  1.0
  Rh  Rh6  1  0.25000000  0.25000000  0.02836000  1.0
  Rh  Rh7  1  0.00000000  0.00000000  0.98197000  1.0
  Rh  Rh8  1  0.25329000  0.19637000  0.91367000  1.0
  Rh  Rh9  1  0.74671000  0.19637000  0.91367000  1.0
  Rh  Rh10  1  0.50000000  0.50000000  0.08507000  1.0
  Rh  Rh11  1  0.75000000  0.75000000  0.02836000  1.0
  Rh  Rh12  1  0.25000000  0.75000000  0.02836000  1.0
  Rh  Rh13  1  0.00000000  0.50000000  0.97108000  1.0
  Rh  Rh14  1  0.25329000  0.80363000  0.91367000  1.0
  Rh  Rh15  1  0.74671000  0.80363000  0.91367000  1.0
  C  C16  1  0.50000000  0.00000000  0.89508000  1.0
