# generated using pymatgen
data_Li8In8Pd8Ru8C
_symmetry_space_group_name_H-M   'P 1'
_cell_length_a   8.93846000
_cell_length_b   6.32045000
_cell_length_c   26.70380000
_cell_angle_alpha   90.00000000
_cell_angle_beta   90.00000000
_cell_angle_gamma   90.00000000
_symmetry_Int_Tables_number   1
_chemical_formula_structural   Li8In8Pd8Ru8C
_chemical_formula_sum   'Li8 In8 Pd8 Ru8 C1'
_cell_volume   1508.63357118
_cell_formula_units_Z   1
loop_
 _symmetry_equiv_pos_site_id
 _symmetry_equiv_pos_as_xyz
  1  'x, y, z'
loop_
 _atom_site_type_symbol
 _atom_site_label
 _atom_site_symmetry_multiplicity
 _atom_site_fract_x
 _atom_site_fract_y
 _atom_site_fract_z
 _atom_site_occupancy
  Li  Li0  1  0.25000000  1.00000000  0.04184000  1.0
  Li  Li1  1  0.75000000  1.00000000  0.04184000  1.0
  Li  Li2  1  0.50000000  0.50000000  0.12552000  1.0
  Li  Li3  1  0.00000000  0.50000000  0.12552000  1.0
  Li  Li4  1  0.76005000  0.99939000  0.86575000  1.0
  Li  Li5  1  0.23995000  0.99939000  0.86575000  1.0
  Li  Li6  1  0.00000000  0.50374000  0.96030000  1.0
  Li  Li7  1  0.50000000  0.49691000  0.95635000  1.0
  In  In8  1  0.00000000  0.00000000  0.12552000  1.0
  In  In9  1  0.50000000  1.00000000  0.12552000  1.0
  In  In10  1  0.75000000  0.50000000  0.04184000  1.0
  In  In11  1  0.25000000  0.50000000  0.04184000  1.0
  In  In12  1  0.50000000  0.00074000  0.96162000  1.0
  In  In13  1  0.00000000  0.99351000  0.95997000  1.0
  In  In14  1  0.27280000  0.49729000  0.86858000  1.0
  In  In15  1  0.72720000  0.49729000  0.86858000  1.0
  Pd  Pd16  1  0.00000000  0.75000000  0.04184000  1.0
  Pd  Pd17  1  0.50000000  0.75000000  0.04184000  1.0
  Pd  Pd18  1  0.25000000  0.25000000  0.12552000  1.0
  Pd  Pd19  1  0.75000000  0.25000000  0.12552000  1.0
  Pd  Pd20  1  0.50000000  0.78369000  0.87550000  1.0
  Pd  Pd21  1  0.00000000  0.74133000  0.87491000  1.0
  Pd  Pd22  1  0.75412000  0.25404000  0.95528000  1.0
  Pd  Pd23  1  0.24588000  0.25404000  0.95528000  1.0
  Ru  Ru24  1  0.00000000  0.25000000  0.04184000  1.0
  Ru  Ru25  1  0.50000000  0.25000000  0.04184000  1.0
  Ru  Ru26  1  0.25000000  0.75000000  0.12552000  1.0
  Ru  Ru27  1  0.75000000  0.75000000  0.12552000  1.0
  Ru  Ru28  1  0.50000000  0.22282000  0.87744000  1.0
  Ru  Ru29  1  0.00000000  0.27207000  0.87532000  1.0
  Ru  Ru30  1  0.75030000  0.74862000  0.95438000  1.0
  Ru  Ru31  1  0.24970000  0.74862000  0.95438000  1.0
  C  C32  1  0.00000000  0.47430000  0.83156000  1.0
