# generated using pymatgen
data_Li8Ga4Ir4C
_symmetry_space_group_name_H-M   'P 1'
_cell_length_a   6.01864000
_cell_length_b   6.01864000
_cell_length_c   24.51400000
_cell_angle_alpha   90.00000000
_cell_angle_beta   90.00000000
_cell_angle_gamma   90.00000000
_symmetry_Int_Tables_number   1
_chemical_formula_structural   Li8Ga4Ir4C
_chemical_formula_sum   'Li8 Ga4 Ir4 C1'
_cell_volume   887.99580890
_cell_formula_units_Z   1
loop_
 _symmetry_equiv_pos_site_id
 _symmetry_equiv_pos_as_xyz
  1  'x, y, z'
loop_
 _atom_site_type_symbol
 _atom_site_label
 _atom_site_symmetry_multiplicity
 _atom_site_fract_x
 _atom_site_fract_y
 _atom_site_fract_z
 _atom_site_occupancy
  Li  Li0  1  0.00000000  0.00000000  0.03069000  1
  Li  Li1  1  0.98747000  0.51238000  0.88606000  1
  Li  Li2  1  0.51238000  0.98747000  0.88606000  1
  Li  Li3  1  0.50000000  0.50000000  0.03069000  1
  Li  Li4  1  0.25014000  0.25014000  0.97522000  1
  Li  Li5  1  0.75000000  0.25000000  0.09207000  1
  Li  Li6  1  0.74904000  0.74904000  0.96488000  1
  Li  Li7  1  0.25000000  0.75000000  0.09207000  1
  Ga  Ga8  1  0.25000000  0.25000000  0.09207000  1
  Ga  Ga9  1  0.74945000  0.25045000  0.96599000  1
  Ga  Ga10  1  0.75000000  0.75000000  0.09207000  1
  Ga  Ga11  1  0.25045000  0.74945000  0.96599000  1
  Ir  Ir12  1  0.03773000  0.03773000  0.90799000  1
  Ir  Ir13  1  0.46131000  0.46131000  0.90766000  1
  Ir  Ir14  1  1.00000000  0.50000000  0.03069000  1
  Ir  Ir15  1  0.50000000  0.00000000  0.03069000  1
  C  C16  1  0.24931000  0.24931000  0.88776000  1
