# generated using pymatgen
data_Li8Ga4Ir4C
_symmetry_space_group_name_H-M   Cm
_cell_length_a   8.51164232
_cell_length_b   8.51164232
_cell_length_c   24.51400000
_cell_angle_alpha   90.00000000
_cell_angle_beta   90.00000000
_cell_angle_gamma   90.00000000
_symmetry_Int_Tables_number   8
_chemical_formula_structural   Li8Ga4Ir4C
_chemical_formula_sum   'Li16 Ga8 Ir8 C2'
_cell_volume   1775.99161780
_cell_formula_units_Z   2
loop_
 _symmetry_equiv_pos_site_id
 _symmetry_equiv_pos_as_xyz
  1  'x, y, z'
  2  'x, -y, z'
  3  'x+1/2, y+1/2, z'
  4  'x+1/2, -y+1/2, z'
loop_
 _atom_site_type_symbol
 _atom_site_label
 _atom_site_symmetry_multiplicity
 _atom_site_fract_x
 _atom_site_fract_y
 _atom_site_fract_z
 _atom_site_occupancy
  Li  Li0  4  0.00000000  0.25000000  0.90793000  1.0
  Li  Li1  4  0.24992500  0.26245500  0.11394000  1.0
  Li  Li2  2  0.00000000  0.00000000  0.96931000  1.0
  Li  Li3  2  0.00000000  0.50000000  0.96931000  1.0
  Li  Li4  2  0.24904000  0.50000000  0.03512000  1.0
  Li  Li5  2  0.25014000  0.00000000  0.02478000  1.0
  Ga  Ga6  4  0.49995000  0.24950000  0.03401000  1.0
  Ga  Ga7  2  0.25000000  0.00000000  0.90793000  1.0
  Ga  Ga8  2  0.25000000  0.50000000  0.90793000  1.0
  Ir  Ir9  4  0.25000000  0.25000000  0.96931000  1.0
  Ir  Ir10  2  0.03773000  0.00000000  0.09201000  1.0
  Ir  Ir11  2  0.46131000  0.00000000  0.09234000  1.0
  C  C12  2  0.24931000  0.00000000  0.11224000  1.0
