# generated using pymatgen
data_Li8Ga16Ir8CO
_symmetry_space_group_name_H-M   'P 1'
_cell_length_a   8.64705000
_cell_length_b   6.11439000
_cell_length_c   26.48530000
_cell_angle_alpha   90.00000000
_cell_angle_beta   90.00000000
_cell_angle_gamma   90.00000000
_symmetry_Int_Tables_number   1
_chemical_formula_structural   Li8Ga16Ir8CO
_chemical_formula_sum   'Li8 Ga16 Ir8 C1 O1'
_cell_volume   1400.31584520
_cell_formula_units_Z   1
loop_
 _symmetry_equiv_pos_site_id
 _symmetry_equiv_pos_as_xyz
  1  'x, y, z'
loop_
 _atom_site_type_symbol
 _atom_site_label
 _atom_site_symmetry_multiplicity
 _atom_site_fract_x
 _atom_site_fract_y
 _atom_site_fract_z
 _atom_site_occupancy
  Li  Li0  1  0.50000000  0.00000000  0.12243000  1.0
  Li  Li1  1  0.75001000  0.50000000  0.04081000  1.0
  Li  Li2  1  0.24999000  0.50000000  0.04081000  1.0
  Li  Li3  1  0.00000000  0.00000000  0.12243000  1.0
  Li  Li4  1  0.00000000  0.00550000  0.95857000  1.0
  Li  Li5  1  0.25052000  0.49866000  0.86852000  1.0
  Li  Li6  1  0.74948000  0.49866000  0.86852000  1.0
  Li  Li7  1  0.50000000  0.99954000  0.96267000  1.0
  Ga  Ga8  1  0.50000000  0.25000000  0.04081000  1.0
  Ga  Ga9  1  0.00000000  0.75000000  0.04081000  1.0
  Ga  Ga10  1  0.50000000  0.75000000  0.04081000  1.0
  Ga  Ga11  1  0.00000000  0.25000000  0.04081000  1.0
  Ga  Ga12  1  0.25001000  0.75000000  0.12243000  1.0
  Ga  Ga13  1  0.75001000  0.25000000  0.12243000  1.0
  Ga  Ga14  1  0.24999000  0.25000000  0.12243000  1.0
  Ga  Ga15  1  0.74999000  0.75000000  0.12243000  1.0
  Ga  Ga16  1  0.00000000  0.22506000  0.86557000  1.0
  Ga  Ga17  1  0.50000000  0.76890000  0.87658000  1.0
  Ga  Ga18  1  0.00000000  0.75738000  0.87436000  1.0
  Ga  Ga19  1  0.50000000  0.22736000  0.87723000  1.0
  Ga  Ga20  1  0.75113000  0.74548000  0.95862000  1.0
  Ga  Ga21  1  0.24837000  0.25583000  0.95845000  1.0
  Ga  Ga22  1  0.75163000  0.25583000  0.95845000  1.0
  Ga  Ga23  1  0.24887000  0.74548000  0.95862000  1.0
  Ir  Ir24  1  0.25001000  0.00000000  0.04081000  1.0
  Ir  Ir25  1  0.50000000  0.50000000  0.12243000  1.0
  Ir  Ir26  1  0.74999000  0.00000000  0.04081000  1.0
  Ir  Ir27  1  0.00000000  0.50000000  0.12243000  1.0
  Ir  Ir28  1  0.75154000  0.99963000  0.88315000  1.0
  Ir  Ir29  1  0.00000000  0.50015000  0.96295000  1.0
  Ir  Ir30  1  0.24846000  0.99963000  0.88315000  1.0
  Ir  Ir31  1  0.50000000  0.49921000  0.95992000  1.0
  C  C32  1  0.50000000  0.42752000  0.74641000  1.0
  O  O33  1  0.50000000  0.31540000  0.71220000  1.0
