# generated using pymatgen
data_Sc8Al8Au16CO
_symmetry_space_group_name_H-M   Pmm2
_cell_length_a   6.63475000
_cell_length_b   9.38295000
_cell_length_c   27.03720000
_cell_angle_alpha   90.00000000
_cell_angle_beta   90.00000000
_cell_angle_gamma   90.00000000
_symmetry_Int_Tables_number   25
_chemical_formula_structural   Sc8Al8Au16CO
_chemical_formula_sum   'Sc8 Al8 Au16 C1 O1'
_cell_volume   1683.16107406
_cell_formula_units_Z   1
loop_
 _symmetry_equiv_pos_site_id
 _symmetry_equiv_pos_as_xyz
  1  'x, y, z'
  2  '-x, -y, z'
  3  '-x, y, z'
  4  'x, -y, z'
loop_
 _atom_site_type_symbol
 _atom_site_label
 _atom_site_symmetry_multiplicity
 _atom_site_fract_x
 _atom_site_fract_y
 _atom_site_fract_z
 _atom_site_occupancy
  Sc  Sc0  2  0.50000000  0.25000000  0.86986000  1.0
  Sc  Sc1  2  0.50000000  0.25269000  0.04351000  1.0
  Sc  Sc2  1  0.00000000  0.00000000  0.13158000  1.0
  Sc  Sc3  1  0.00000000  0.00000000  0.95662000  1.0
  Sc  Sc4  1  0.00000000  0.50000000  0.13316000  1.0
  Sc  Sc5  1  0.00000000  0.50000000  0.95662000  1.0
  Al  Al6  2  0.00000000  0.24809000  0.04525000  1.0
  Al  Al7  2  0.00000000  0.25000000  0.86986000  1.0
  Al  Al8  1  0.50000000  0.00000000  0.12596000  1.0
  Al  Al9  1  0.50000000  0.00000000  0.95662000  1.0
  Al  Al10  1  0.50000000  0.50000000  0.12488000  1.0
  Al  Al11  1  0.50000000  0.50000000  0.95662000  1.0
  Au  Au12  4  0.24999000  0.25000000  0.95662000  1.0
  Au  Au13  4  0.25745000  0.25124000  0.13048000  1.0
  Au  Au14  2  0.23614000  0.50000000  0.04397000  1.0
  Au  Au15  2  0.24651000  0.00000000  0.04292000  1.0
  Au  Au16  2  0.24999000  0.00000000  0.86986000  1.0
  Au  Au17  2  0.25001000  0.50000000  0.86986000  1.0
  C  C18  1  0.00000000  0.00000000  0.21724000  1.0
  O  O19  1  0.00000000  0.00000000  0.25958000  1.0
