# generated using pymatgen
data_LiYInSn
_symmetry_space_group_name_H-M   'P 1'
_cell_length_a   6.50942000
_cell_length_b   4.43428000
_cell_length_c   24.87900000
_cell_angle_alpha   90.00000000
_cell_angle_beta   90.00000000
_cell_angle_gamma   90.00000000
_symmetry_Int_Tables_number   1
_chemical_formula_structural   LiYInSn
_chemical_formula_sum   'Li2 Y2 In2 Sn2'
_cell_volume   718.12215744
_cell_formula_units_Z   2
loop_
 _symmetry_equiv_pos_site_id
 _symmetry_equiv_pos_as_xyz
  1  'x, y, z'
loop_
 _atom_site_type_symbol
 _atom_site_label
 _atom_site_symmetry_multiplicity
 _atom_site_fract_x
 _atom_site_fract_y
 _atom_site_fract_z
 _atom_site_occupancy
  Li  Li0  1  0.25838000  0.50000000  0.95493000  1.0
  Li  Li1  1  0.72356000  0.50000000  0.09806000  1.0
  Y  Y2  1  0.74821500  0.50000000  0.96622000  1.0
  Y  Y3  1  0.22356000  0.50000000  0.09806000  1.0
  In  In4  1  0.02110000  0.00000000  0.90159000  1.0
  In  In5  1  0.48237000  0.00000000  0.03269000  1.0
  Sn  Sn6  1  0.49323000  0.00000000  0.90847000  1.0
  Sn  Sn7  1  0.98237000  0.00000000  0.03269000  1.0
