data_image0
_chemical_formula_structural       Li8Sn8Pd16CO
_chemical_formula_sum              "Li8 Sn8 Pd16 C1 O1"
_cell_length_a       6.41477
_cell_length_b       9.07185
_cell_length_c       26.8039
_cell_angle_alpha    90
_cell_angle_beta     90
_cell_angle_gamma    90

_space_group_name_H-M_alt    "P 1"
_space_group_IT_number       1

loop_
  _space_group_symop_operation_xyz
  'x, y, z'

loop_
  _atom_site_type_symbol
  _atom_site_label
  _atom_site_symmetry_multiplicity
  _atom_site_fract_x
  _atom_site_fract_y
  _atom_site_fract_z
  _atom_site_occupancy
  Li  Li1       1.0  0.00000  0.00000  0.87308  1.0000
  Li  Li2       1.0  0.50000  0.25000  0.95769  1.0000
  Li  Li3       1.0  0.50000  0.75000  0.95769  1.0000
  Li  Li4       1.0  0.00000  0.50000  0.87308  1.0000
  Li  Li5       1.0  0.99759  0.50000  0.03941  1.0000
  Li  Li6       1.0  0.49889  0.74703  0.12928  1.0000
  Li  Li7       1.0  0.49889  0.25297  0.12928  1.0000
  Li  Li8       1.0  0.00283  1.00000  0.04154  1.0000
  Sn  Sn1       1.0  0.00000  0.75000  0.95769  1.0000
  Sn  Sn2       1.0  0.50000  0.00000  0.87308  1.0000
  Sn  Sn3       1.0  0.00000  0.25000  0.95769  1.0000
  Sn  Sn4       1.0  0.50000  0.50000  0.87308  1.0000
  Sn  Sn5       1.0  0.99504  0.25097  0.13071  1.0000
  Sn  Sn6       1.0  0.49685  0.50000  0.04228  1.0000
  Sn  Sn7       1.0  0.99504  0.74903  0.13071  1.0000
  Sn  Sn8       1.0  0.49746  1.00000  0.04169  1.0000
  Pd  Pd1       1.0  0.25000  0.00000  0.95769  1.0000
  Pd  Pd2       1.0  0.75000  0.50000  0.95769  1.0000
  Pd  Pd3       1.0  0.75000  0.00000  0.95769  1.0000
  Pd  Pd4       1.0  0.25000  0.50000  0.95769  1.0000
  Pd  Pd5       1.0  0.75000  0.75000  0.87308  1.0000
  Pd  Pd6       1.0  0.25000  0.25000  0.87308  1.0000
  Pd  Pd7       1.0  0.25000  0.75000  0.87308  1.0000
  Pd  Pd8       1.0  0.75000  0.25000  0.87308  1.0000
  Pd  Pd9       1.0  0.22685  0.50000  0.11968  1.0000
  Pd  Pd10      1.0  0.76900  1.00000  0.11944  1.0000
  Pd  Pd11      1.0  0.76245  0.50000  0.11993  1.0000
  Pd  Pd12      1.0  0.25347  1.00000  0.13019  1.0000
  Pd  Pd13      1.0  0.75024  0.24905  0.04236  1.0000
  Pd  Pd14      1.0  0.24437  0.75321  0.04415  1.0000
  Pd  Pd15      1.0  0.24437  0.24679  0.04415  1.0000
  Pd  Pd16      1.0  0.75024  0.75095  0.04236  1.0000
  C   C1        1.0  0.40502  1.00000  0.19381  1.0000
  O   O1        1.0  0.46101  0.00000  0.23479  1.0000
