data_image0
_chemical_formula_structural       RhHfRhHfRhHfRhHfRhHfRhHfRhHfRhHfCO
_chemical_formula_sum              "Rh8 Hf8 C1 O1"
_cell_length_a       6.5286
_cell_length_b       6.5286
_cell_length_c       24.8964
_cell_angle_alpha    90
_cell_angle_beta     90
_cell_angle_gamma    90

_space_group_name_H-M_alt    "P 1"
_space_group_IT_number       1

loop_
  _space_group_symop_operation_xyz
  'x, y, z'

loop_
  _atom_site_type_symbol
  _atom_site_label
  _atom_site_symmetry_multiplicity
  _atom_site_fract_x
  _atom_site_fract_y
  _atom_site_fract_z
  _atom_site_occupancy
  Rh  Rh1       1.0  0.00000  0.00000  0.91047  1.0000
  Hf  Hf1       1.0  0.25000  0.25000  0.97603  1.0000
  Rh  Rh2       1.0  0.00000  0.00000  0.04158  1.0000
  Hf  Hf2       1.0  0.25000  0.25000  0.10714  1.0000
  Rh  Rh3       1.0  0.00000  0.50000  0.91047  1.0000
  Hf  Hf3       1.0  0.25000  0.75000  0.97603  1.0000
  Rh  Rh4       1.0  0.00000  0.50000  0.04158  1.0000
  Hf  Hf4       1.0  0.25000  0.75000  0.10714  1.0000
  Rh  Rh5       1.0  0.50000  0.00000  0.91047  1.0000
  Hf  Hf5       1.0  0.75000  0.25000  0.97603  1.0000
  Rh  Rh6       1.0  0.50000  0.00000  0.04158  1.0000
  Hf  Hf6       1.0  0.75000  0.25000  0.10714  1.0000
  Rh  Rh7       1.0  0.50000  0.50000  0.91047  1.0000
  Hf  Hf7       1.0  0.75000  0.75000  0.97603  1.0000
  Rh  Rh8       1.0  0.50000  0.50000  0.04158  1.0000
  Hf  Hf8       1.0  0.75000  0.75000  0.10714  1.0000
  C   C1        1.0  0.25000  0.25000  0.18346  1.0000
  O   O1        1.0  0.25000  0.25000  0.22965  1.0000
