# generated using pymatgen
data_Li8Ni8Ge8Pd8CO
_symmetry_space_group_name_H-M   'P 1'
_cell_length_a   5.93854000
_cell_length_b   8.39836000
_cell_length_c   26.29880000
_cell_angle_alpha   90.00000000
_cell_angle_beta   90.00000000
_cell_angle_gamma   90.00000000
_symmetry_Int_Tables_number   1
_chemical_formula_structural   Li8Ni8Ge8Pd8CO
_chemical_formula_sum   'Li8 Ni8 Ge8 Pd8 C1 O1'
_cell_volume   1311.62626690
_cell_formula_units_Z   1
loop_
 _symmetry_equiv_pos_site_id
 _symmetry_equiv_pos_as_xyz
  1  'x, y, z'
loop_
 _atom_site_type_symbol
 _atom_site_label
 _atom_site_symmetry_multiplicity
 _atom_site_fract_x
 _atom_site_fract_y
 _atom_site_fract_z
 _atom_site_occupancy
  Li  Li0  1  0.00000000  0.25000000  0.96008000  1.0
  Li  Li1  1  0.00000000  0.75000000  0.96008000  1.0
  Li  Li2  1  0.50000000  0.50000000  0.88025000  1.0
  Li  Li3  1  0.50000000  0.00000000  0.88025000  1.0
  Li  Li4  1  0.99550000  0.75002000  0.13312000  1.0
  Li  Li5  1  0.99189000  0.24999000  0.13600000  1.0
  Li  Li6  1  0.49822000  0.00020000  0.03616000  1.0
  Li  Li7  1  0.49822000  0.49981000  0.03615000  1.0
  Ni  Ni8  1  0.75000000  0.00000000  0.96008000  1.0
  Ni  Ni9  1  0.75000000  0.50000000  0.96008000  1.0
  Ni  Ni10  1  0.25000000  0.25000000  0.88025000  1.0
  Ni  Ni11  1  0.25000000  0.75000000  0.88025000  1.0
  Ni  Ni12  1  0.72858000  0.49997000  0.11066000  1.0
  Ni  Ni13  1  0.72867000  0.00008000  0.11063000  1.0
  Ni  Ni14  1  0.25155000  0.75006000  0.04136000  1.0
  Ni  Ni15  1  0.25013000  0.24996000  0.04165000  1.0
  Ge  Ge16  1  0.00000000  0.00000000  0.88025000  1.0
  Ge  Ge17  1  0.00000000  0.50000000  0.88025000  1.0
  Ge  Ge18  1  0.50000000  0.75000000  0.96008000  1.0
  Ge  Ge19  1  0.50000000  0.25000000  0.96008000  1.0
  Ge  Ge20  1  0.00477000  0.50039000  0.04152000  1.0
  Ge  Ge21  1  0.00456000  0.99959000  0.04156000  1.0
  Ge  Ge22  1  0.51323000  0.25003000  0.12142000  1.0
  Ge  Ge23  1  0.51513000  0.74997000  0.12258000  1.0
  Pd  Pd24  1  0.25000000  0.00000000  0.96008000  1.0
  Pd  Pd25  1  0.25000000  0.50000000  0.96008000  1.0
  Pd  Pd26  1  0.75000000  0.25000000  0.88025000  1.0
  Pd  Pd27  1  0.75000000  0.75000000  0.88025000  1.0
  Pd  Pd28  1  0.27094000  0.50036000  0.11599000  1.0
  Pd  Pd29  1  0.27100000  0.99964000  0.11605000  1.0
  Pd  Pd30  1  0.75286000  0.74993000  0.03950000  1.0
  Pd  Pd31  1  0.75403000  0.25007000  0.03954000  1.0
  C  C32  1  0.65128000  0.25001000  0.25774000  1.0
  O  O33  1  0.47072000  0.25002000  0.27198000  1.0
