# generated using pymatgen
data_Al16Ir16CO
_symmetry_space_group_name_H-M   'P 1'
_cell_length_a   8.53670000
_cell_length_b   6.03636000
_cell_length_c   26.40250000
_cell_angle_alpha   90.00000000
_cell_angle_beta   90.00000000
_cell_angle_gamma   90.00000000
_symmetry_Int_Tables_number   1
_chemical_formula_structural   Al16Ir16CO
_chemical_formula_sum   'Al16 Ir16 C1 O1'
_cell_volume   1360.53651896
_cell_formula_units_Z   1
loop_
 _symmetry_equiv_pos_site_id
 _symmetry_equiv_pos_as_xyz
  1  'x, y, z'
loop_
 _atom_site_type_symbol
 _atom_site_label
 _atom_site_symmetry_multiplicity
 _atom_site_fract_x
 _atom_site_fract_y
 _atom_site_fract_z
 _atom_site_occupancy
  Al  Al0  1  0.00000000  0.00000000  0.12125000  1.0
  Al  Al1  1  0.25000000  0.00000000  0.04042000  1.0
  Al  Al2  1  0.00000000  0.99752000  0.95898000  1.0
  Al  Al3  1  0.25465000  0.99837000  0.87600000  1.0
  Al  Al4  1  0.50000000  0.00000000  0.12125000  1.0
  Al  Al5  1  0.75000000  0.00000000  0.04042000  1.0
  Al  Al6  1  0.50000000  0.00198000  0.95931000  1.0
  Al  Al7  1  0.74535000  0.99837000  0.87600000  1.0
  Al  Al8  1  0.00000000  0.50000000  0.12125000  1.0
  Al  Al9  1  0.25000000  0.50000000  0.04042000  1.0
  Al  Al10  1  0.00000000  0.50248000  0.95898000  1.0
  Al  Al11  1  0.25460000  0.50165000  0.87599000  1.0
  Al  Al12  1  0.50000000  0.50000000  0.12125000  1.0
  Al  Al13  1  0.75000000  0.50000000  0.04042000  1.0
  Al  Al14  1  0.50000000  0.49807000  0.95931000  1.0
  Al  Al15  1  0.74540000  0.50165000  0.87599000  1.0
  Ir  Ir16  1  0.25000000  0.25000000  0.12125000  1.0
  Ir  Ir17  1  0.00000000  0.25000000  0.04042000  1.0
  Ir  Ir18  1  0.24306000  0.25002000  0.96051000  1.0
  Ir  Ir19  1  0.00000000  0.24987000  0.87417000  1.0
  Ir  Ir20  1  0.75000000  0.25000000  0.12125000  1.0
  Ir  Ir21  1  0.50000000  0.25000000  0.04042000  1.0
  Ir  Ir22  1  0.75694000  0.25002000  0.96051000  1.0
  Ir  Ir23  1  0.50000000  0.25005000  0.88293000  1.0
  Ir  Ir24  1  0.25000000  0.75000000  0.12125000  1.0
  Ir  Ir25  1  0.00000000  0.75000000  0.04042000  1.0
  Ir  Ir26  1  0.25010000  0.75002000  0.96142000  1.0
  Ir  Ir27  1  0.00000000  0.74996000  0.88218000  1.0
  Ir  Ir28  1  0.75000000  0.75000000  0.12125000  1.0
  Ir  Ir29  1  0.50000000  0.75000000  0.04042000  1.0
  Ir  Ir30  1  0.74990000  0.75002000  0.96142000  1.0
  Ir  Ir31  1  0.50000000  0.75001000  0.88231000  1.0
  C  C32  1  0.00000000  0.24937000  0.80307000  1.0
  O  O33  1  0.00000000  0.24938000  0.75921000  1.0
