# generated using pymatgen
data_Al16Ir16CO
_symmetry_space_group_name_H-M   Pm
_cell_length_a   6.03636000
_cell_length_b   8.53670000
_cell_length_c   26.40250000
_cell_angle_alpha   90.00000000
_cell_angle_beta   90.00000000
_cell_angle_gamma   90.00000000
_symmetry_Int_Tables_number   6
_chemical_formula_structural   Al16Ir16CO
_chemical_formula_sum   'Al16 Ir16 C1 O1'
_cell_volume   1360.53651896
_cell_formula_units_Z   1
loop_
 _symmetry_equiv_pos_site_id
 _symmetry_equiv_pos_as_xyz
  1  'x, y, z'
  2  'x, -y, z'
loop_
 _atom_site_type_symbol
 _atom_site_label
 _atom_site_symmetry_multiplicity
 _atom_site_fract_x
 _atom_site_fract_y
 _atom_site_fract_z
 _atom_site_occupancy
  Al  Al0  2  0.00000000  0.25000000  0.95958000  1.0
  Al  Al1  2  0.50000000  0.25000000  0.95958000  1.0
  Al  Al2  2  0.50165000  0.25460000  0.12401000  1.0
  Al  Al3  2  0.99837000  0.25465000  0.12400000  1.0
  Al  Al4  1  0.00000000  0.00000000  0.87875000  1.0
  Al  Al5  1  0.00000000  0.50000000  0.87875000  1.0
  Al  Al6  1  0.00198000  0.50000000  0.04069000  1.0
  Al  Al7  1  0.49807000  0.50000000  0.04069000  1.0
  Al  Al8  1  0.50000000  0.00000000  0.87875000  1.0
  Al  Al9  1  0.50000000  0.50000000  0.87875000  1.0
  Al  Al10  1  0.50248000  0.00000000  0.04102000  1.0
  Al  Al11  1  0.99752000  0.00000000  0.04102000  1.0
  Ir  Ir12  2  0.25000000  0.25000000  0.87875000  1.0
  Ir  Ir13  2  0.25002000  0.24306000  0.03949000  1.0
  Ir  Ir14  2  0.75000000  0.25000000  0.87875000  1.0
  Ir  Ir15  2  0.75002000  0.25010000  0.03858000  1.0
  Ir  Ir16  1  0.24987000  0.00000000  0.12583000  1.0
  Ir  Ir17  1  0.25000000  0.00000000  0.95958000  1.0
  Ir  Ir18  1  0.25000000  0.50000000  0.95958000  1.0
  Ir  Ir19  1  0.25005000  0.50000000  0.11707000  1.0
  Ir  Ir20  1  0.74996000  0.00000000  0.11782000  1.0
  Ir  Ir21  1  0.75000000  0.00000000  0.95958000  1.0
  Ir  Ir22  1  0.75000000  0.50000000  0.95958000  1.0
  Ir  Ir23  1  0.75001000  0.50000000  0.11769000  1.0
  C  C24  1  0.24937000  0.00000000  0.19693000  1.0
  O  O25  1  0.24938000  0.00000000  0.24079000  1.0
