# generated using pymatgen
data_Li8Y8In8Pt8CO
_symmetry_space_group_name_H-M   'P 1'
_cell_length_a   9.62122000
_cell_length_b   6.80323000
_cell_length_c   27.21590000
_cell_angle_alpha   90.00000000
_cell_angle_beta   90.00000000
_cell_angle_gamma   90.00000000
_symmetry_Int_Tables_number   1
_chemical_formula_structural   Li8Y8In8Pt8CO
_chemical_formula_sum   'Li8 Y8 In8 Pt8 C1 O1'
_cell_volume   1781.42687353
_cell_formula_units_Z   1
loop_
 _symmetry_equiv_pos_site_id
 _symmetry_equiv_pos_as_xyz
  1  'x, y, z'
loop_
 _atom_site_type_symbol
 _atom_site_label
 _atom_site_symmetry_multiplicity
 _atom_site_fract_x
 _atom_site_fract_y
 _atom_site_fract_z
 _atom_site_occupancy
  Li  Li0  1  0.74999000  0.75000000  0.04419000  1.0
  Li  Li1  1  0.25001000  0.75000000  0.04419000  1.0
  Li  Li2  1  0.00000000  0.25000000  0.13257000  1.0
  Li  Li3  1  0.50000000  0.25000000  0.13257000  1.0
  Li  Li4  1  0.24083000  0.54947000  0.81233000  1.0
  Li  Li5  1  0.75917000  0.54947000  0.81233000  1.0
  Li  Li6  1  0.50000000  0.24712000  0.95250000  1.0
  Li  Li7  1  0.00000000  0.21829000  0.95287000  1.0
  Y  Y8  1  0.00000000  0.00000000  0.04419000  1.0
  Y  Y9  1  0.50000000  1.00000000  0.04419000  1.0
  Y  Y10  1  0.24999000  0.50000000  0.13257000  1.0
  Y  Y11  1  0.75001000  0.50000000  0.13257000  1.0
  Y  Y12  1  0.50000000  0.95551000  0.86904000  1.0
  Y  Y13  1  0.00000000  0.94418000  0.86469000  1.0
  Y  Y14  1  0.75165000  0.50811000  0.94968000  1.0
  Y  Y15  1  0.24835000  0.50811000  0.94968000  1.0
  In  In16  1  0.74999000  0.00000000  0.13257000  1.0
  In  In17  1  0.25001000  0.00000000  0.13257000  1.0
  In  In18  1  0.50000000  0.50000000  0.04419000  1.0
  In  In19  1  0.00000000  0.50000000  0.04419000  1.0
  In  In20  1  0.25082000  0.99181000  0.95747000  1.0
  In  In21  1  0.74918000  0.99181000  0.95747000  1.0
  In  In22  1  0.00000000  0.45230000  0.86787000  1.0
  In  In23  1  0.50000000  0.46514000  0.85994000  1.0
  Pt  Pt24  1  0.74999000  0.25000000  0.04419000  1.0
  Pt  Pt25  1  0.25001000  0.25000000  0.04419000  1.0
  Pt  Pt26  1  0.00000000  0.75000000  0.13257000  1.0
  Pt  Pt27  1  0.50000000  0.75000000  0.13257000  1.0
  Pt  Pt28  1  0.25358000  0.22747000  0.87466000  1.0
  Pt  Pt29  1  0.74642000  0.22747000  0.87466000  1.0
  Pt  Pt30  1  0.50000000  0.74409000  0.95852000  1.0
  Pt  Pt31  1  0.00000000  0.74923000  0.95980000  1.0
  C  C32  1  0.00000000  0.74870000  0.79019000  1.0
  O  O33  1  0.00000000  0.68189000  0.74987000  1.0
