# generated using pymatgen
data_Li8Y8In8Pt8CO
_symmetry_space_group_name_H-M   Pm
_cell_length_a   6.80323000
_cell_length_b   9.62122000
_cell_length_c   27.21590000
_cell_angle_alpha   90.00000000
_cell_angle_beta   90.00000000
_cell_angle_gamma   90.00000000
_symmetry_Int_Tables_number   6
_chemical_formula_structural   Li8Y8In8Pt8CO
_chemical_formula_sum   'Li8 Y8 In8 Pt8 C1 O1'
_cell_volume   1781.42687353
_cell_formula_units_Z   1
loop_
 _symmetry_equiv_pos_site_id
 _symmetry_equiv_pos_as_xyz
  1  'x, y, z'
  2  'x, -y, z'
loop_
 _atom_site_type_symbol
 _atom_site_label
 _atom_site_symmetry_multiplicity
 _atom_site_fract_x
 _atom_site_fract_y
 _atom_site_fract_z
 _atom_site_occupancy
  Li  Li0  2  0.54947000  0.24083000  0.18767000  1.0
  Li  Li1  2  0.75000000  0.25001000  0.95581000  1.0
  Li  Li2  1  0.21829000  0.00000000  0.04713000  1.0
  Li  Li3  1  0.24712000  0.50000000  0.04750000  1.0
  Li  Li4  1  0.25000000  0.00000000  0.86743000  1.0
  Li  Li5  1  0.25000000  0.50000000  0.86743000  1.0
  Y  Y6  2  0.50000000  0.24999000  0.86743000  1.0
  Y  Y7  2  0.50811000  0.24835000  0.05032000  1.0
  Y  Y8  1  -0.00000000  0.50000000  0.95581000  1.0
  Y  Y9  1  0.00000000  0.00000000  0.95581000  1.0
  Y  Y10  1  0.94418000  0.00000000  0.13531000  1.0
  Y  Y11  1  0.95551000  0.50000000  0.13096000  1.0
  In  In12  2  0.00000000  0.25001000  0.86743000  1.0
  In  In13  2  0.99181000  0.25082000  0.04253000  1.0
  In  In14  1  0.45230000  0.00000000  0.13213000  1.0
  In  In15  1  0.46514000  0.50000000  0.14006000  1.0
  In  In16  1  0.50000000  0.00000000  0.95581000  1.0
  In  In17  1  0.50000000  0.50000000  0.95581000  1.0
  Pt  Pt18  2  0.22747000  0.25358000  0.12534000  1.0
  Pt  Pt19  2  0.25000000  0.25001000  0.95581000  1.0
  Pt  Pt20  1  0.74409000  0.50000000  0.04148000  1.0
  Pt  Pt21  1  0.74923000  0.00000000  0.04020000  1.0
  Pt  Pt22  1  0.75000000  0.00000000  0.86743000  1.0
  Pt  Pt23  1  0.75000000  0.50000000  0.86743000  1.0
  C  C24  1  0.74870000  0.00000000  0.20981000  1.0
  O  O25  1  0.68189000  0.00000000  0.25013000  1.0
