# generated using pymatgen
data_CaPb
_symmetry_space_group_name_H-M   'P 1'
_cell_length_a   3.68369000
_cell_length_b   3.68369000
_cell_length_c   26.89040000
_cell_angle_alpha   90.00000000
_cell_angle_beta   90.00000000
_cell_angle_gamma   90.00000000
_symmetry_Int_Tables_number   1
_chemical_formula_structural   CaPb
_chemical_formula_sum   'Ca2 Pb2'
_cell_volume   364.89121934
_cell_formula_units_Z   2
loop_
 _symmetry_equiv_pos_site_id
 _symmetry_equiv_pos_as_xyz
  1  'x, y, z'
loop_
 _atom_site_type_symbol
 _atom_site_label
 _atom_site_symmetry_multiplicity
 _atom_site_fract_x
 _atom_site_fract_y
 _atom_site_fract_z
 _atom_site_occupancy
  Ca  Ca0  1  0.00000000  0.00000000  0.15698000  1.0
  Ca  Ca1  1  0.00000000  0.00000000  0.98616000  1.0
  Pb  Pb2  1  0.50000000  0.50000000  0.07157000  1.0
  Pb  Pb3  1  0.50000000  0.50000000  0.90074000  1.0
