# generated using pymatgen
data_Nb8Ga8Ni16C
_symmetry_space_group_name_H-M   P1
_cell_length_a   6.00328000
_cell_length_b   8.48992000
_cell_length_c   26.36740000
_cell_angle_alpha   90.00000000
_cell_angle_beta   90.00000000
_cell_angle_gamma   90.00000000
_symmetry_Int_Tables_number   1
_chemical_formula_structural   Nb8Ga8Ni16C
_chemical_formula_sum   'Nb8 Ga8 Ni16 C1'
_cell_volume   1343.87695099
_cell_formula_units_Z   1
loop_
 _symmetry_equiv_pos_site_id
 _symmetry_equiv_pos_as_xyz
  1  'x, y, z'
loop_
 _atom_site_type_symbol
 _atom_site_label
 _atom_site_symmetry_multiplicity
 _atom_site_fract_x
 _atom_site_fract_y
 _atom_site_fract_z
 _atom_site_occupancy
  Nb  Nb0  1  0.00000000  0.00000000  0.87926000  1.0
  Nb  Nb1  1  0.00000000  0.50000000  0.87926000  1.0
  Nb  Nb2  1  0.01254000  0.00034000  0.05196000  1.0
  Nb  Nb3  1  0.01277000  0.49960000  0.05196000  1.0
  Nb  Nb4  1  0.42909000  0.74979000  0.11372000  1.0
  Nb  Nb5  1  0.45919000  0.25022000  0.11228000  1.0
  Nb  Nb6  1  0.50000000  0.25000000  0.95975000  1.0
  Nb  Nb7  1  0.50000000  0.75000000  0.95975000  1.0
  Ga  Ga8  1  -0.00000000  0.25000000  0.95975000  1.0
  Ga  Ga9  1  -0.00000000  0.75000000  0.95975000  1.0
  Ga  Ga10  1  0.50000000  0.00000000  0.87926000  1.0
  Ga  Ga11  1  0.50000000  0.50000000  0.87926000  1.0
  Ga  Ga12  1  0.50310000  0.99945000  0.03811000  1.0
  Ga  Ga13  1  0.50328000  0.50057000  0.03809000  1.0
  Ga  Ga14  1  0.88369000  0.24991000  0.14296000  1.0
  Ga  Ga15  1  0.97109000  0.75007000  0.12872000  1.0
  Ni  Ni16  1  0.17005000  0.48203000  0.13972000  1.0
  Ni  Ni17  1  0.17101000  0.01798000  0.13959000  1.0
  Ni  Ni18  1  0.23778000  0.74999000  0.03402000  1.0
  Ni  Ni19  1  0.23789000  0.24992000  0.03261000  1.0
  Ni  Ni20  1  0.25000000  0.00000000  0.95975000  1.0
  Ni  Ni21  1  0.25000000  0.25000000  0.87926000  1.0
  Ni  Ni22  1  0.25000000  0.50000000  0.95975000  1.0
  Ni  Ni23  1  0.25000000  0.75000000  0.87926000  1.0
  Ni  Ni24  1  0.70187000  0.99033000  0.11877000  1.0
  Ni  Ni25  1  0.70239000  0.50957000  0.11878000  1.0
  Ni  Ni26  1  0.75000000  0.00000000  0.95975000  1.0
  Ni  Ni27  1  0.75000000  0.25000000  0.87926000  1.0
  Ni  Ni28  1  0.75000000  0.50000000  0.95975000  1.0
  Ni  Ni29  1  0.75000000  0.75000000  0.87926000  1.0
  Ni  Ni30  1  0.76705000  0.74996000  0.04197000  1.0
  Ni  Ni31  1  0.78072000  0.24999000  0.03756000  1.0
  C  C32  1  0.20285000  0.25005000  0.15826000  1.0
