# generated using pymatgen
data_V8Fe16Sn8CO
_symmetry_space_group_name_H-M   'P 1'
_cell_length_a   6.09904000
_cell_length_b   8.62534000
_cell_length_c   26.46900000
_cell_angle_alpha   90.00000000
_cell_angle_beta   90.00000000
_cell_angle_gamma   90.00000000
_symmetry_Int_Tables_number   1
_chemical_formula_structural   V8Fe16Sn8CO
_chemical_formula_sum   'V8 Fe16 Sn8 C1 O1'
_cell_volume   1392.43598725
_cell_formula_units_Z   1
loop_
 _symmetry_equiv_pos_site_id
 _symmetry_equiv_pos_as_xyz
  1  'x, y, z'
loop_
 _atom_site_type_symbol
 _atom_site_label
 _atom_site_symmetry_multiplicity
 _atom_site_fract_x
 _atom_site_fract_y
 _atom_site_fract_z
 _atom_site_occupancy
  V  V0  1  0.00000000  0.00000000  0.87780000  1.0
  V  V1  1  0.50000000  0.25000000  0.95927000  1.0
  V  V2  1  0.50000000  0.75000000  0.95927000  1.0
  V  V3  1  1.00000000  0.50000000  0.87780000  1.0
  V  V4  1  0.99989000  0.48713000  0.03671000  1.0
  V  V5  1  0.49976000  0.74996000  0.12641000  1.0
  V  V6  1  0.49979000  0.25007000  0.11430000  1.0
  V  V7  1  0.99992000  0.01296000  0.03673000  1.0
  Fe  Fe8  1  0.25000000  0.00000000  0.95927000  1.0
  Fe  Fe9  1  0.75000000  0.50000000  0.95927000  1.0
  Fe  Fe10  1  0.75000000  0.00000000  0.95927000  1.0
  Fe  Fe11  1  0.25000000  0.50000000  0.95927000  1.0
  Fe  Fe12  1  0.75000000  0.75000000  0.87780000  1.0
  Fe  Fe13  1  0.25000000  0.25000000  0.87780000  1.0
  Fe  Fe14  1  0.25000000  0.75000000  0.87780000  1.0
  Fe  Fe15  1  0.75000000  0.25000000  0.87780000  1.0
  Fe  Fe16  1  0.21727000  0.51518000  0.11809000  1.0
  Fe  Fe17  1  0.78285000  0.98461000  0.11808000  1.0
  Fe  Fe18  1  0.78268000  0.51525000  0.11806000  1.0
  Fe  Fe19  1  0.21706000  0.98466000  0.11811000  1.0
  Fe  Fe20  1  0.74694000  0.25008000  0.04490000  1.0
  Fe  Fe21  1  0.19466000  0.75001000  0.05776000  1.0
  Fe  Fe22  1  0.25289000  0.25008000  0.04492000  1.0
  Fe  Fe23  1  0.80508000  0.75002000  0.05776000  1.0
  Sn  Sn24  1  1.00000000  0.75000000  0.95927000  1.0
  Sn  Sn25  1  0.50000000  0.00000000  0.87780000  1.0
  Sn  Sn26  1  1.00000000  0.25000000  0.95927000  1.0
  Sn  Sn27  1  0.50000000  0.50000000  0.87780000  1.0
  Sn  Sn28  1  0.99990000  0.24997000  0.13686000  1.0
  Sn  Sn29  1  0.49991000  0.51581000  0.04068000  1.0
  Sn  Sn30  1  0.99988000  0.74983000  0.16376000  1.0
  Sn  Sn31  1  0.49992000  0.98429000  0.04071000  1.0
  C  C32  1  0.99052000  0.24824000  0.28437000  1.0
  O  O33  1  0.01123000  0.24961000  0.32697000  1.0
