# generated using pymatgen
data_Li8Sc8Ge8Pd8C
_symmetry_space_group_name_H-M   'P 1'
_cell_length_a   8.92368000
_cell_length_b   6.30999000
_cell_length_c   26.69280000
_cell_angle_alpha   90.00000000
_cell_angle_beta   90.00000000
_cell_angle_gamma   90.00000000
_symmetry_Int_Tables_number   1
_chemical_formula_structural   Li8Sc8Ge8Pd8C
_chemical_formula_sum   'Li8 Sc8 Ge8 Pd8 C1'
_cell_volume   1503.02703275
_cell_formula_units_Z   1
loop_
 _symmetry_equiv_pos_site_id
 _symmetry_equiv_pos_as_xyz
  1  'x, y, z'
loop_
 _atom_site_type_symbol
 _atom_site_label
 _atom_site_symmetry_multiplicity
 _atom_site_fract_x
 _atom_site_fract_y
 _atom_site_fract_z
 _atom_site_occupancy
  Li  Li0  1  0.74999000  0.75000000  0.04179000  1.0
  Li  Li1  1  0.25001000  0.75000000  0.04179000  1.0
  Li  Li2  1  0.00000000  0.25000000  0.12537000  1.0
  Li  Li3  1  0.50000000  0.25000000  0.12537000  1.0
  Li  Li4  1  0.26899000  0.60316000  0.82242000  1.0
  Li  Li5  1  0.73101000  0.60316000  0.82242000  1.0
  Li  Li6  1  0.50000000  0.24546000  0.95716000  1.0
  Li  Li7  1  0.00000000  0.25286000  0.94646000  1.0
  Sc  Sc8  1  0.00000000  0.00000000  0.04179000  1.0
  Sc  Sc9  1  0.50000000  0.00000000  0.04179000  1.0
  Sc  Sc10  1  0.24999000  0.50000000  0.12537000  1.0
  Sc  Sc11  1  0.75001000  0.50000000  0.12537000  1.0
  Sc  Sc12  1  0.50000000  0.97553000  0.87514000  1.0
  Sc  Sc13  1  0.00000000  0.93516000  0.87601000  1.0
  Sc  Sc14  1  0.74616000  0.51122000  0.95408000  1.0
  Sc  Sc15  1  0.25384000  0.51122000  0.95408000  1.0
  Ge  Ge16  1  0.74999000  0.00000000  0.12537000  1.0
  Ge  Ge17  1  0.25001000  0.00000000  0.12537000  1.0
  Ge  Ge18  1  0.50000000  0.50000000  0.04179000  1.0
  Ge  Ge19  1  0.00000000  0.50000000  0.04179000  1.0
  Ge  Ge20  1  0.24809000  0.99246000  0.95759000  1.0
  Ge  Ge21  1  0.75191000  0.99246000  0.95759000  1.0
  Ge  Ge22  1  0.00000000  0.53760000  0.86562000  1.0
  Ge  Ge23  1  0.50000000  0.48706000  0.87432000  1.0
  Pd  Pd24  1  0.74999000  0.25000000  0.04179000  1.0
  Pd  Pd25  1  0.25001000  0.25000000  0.04179000  1.0
  Pd  Pd26  1  0.00000000  0.75000000  0.12537000  1.0
  Pd  Pd27  1  0.50000000  0.75000000  0.12537000  1.0
  Pd  Pd28  1  0.24796000  0.24105000  0.87732000  1.0
  Pd  Pd29  1  0.75204000  0.24105000  0.87732000  1.0
  Pd  Pd30  1  0.50000000  0.75586000  0.95967000  1.0
  Pd  Pd31  1  0.00000000  0.73645000  0.96259000  1.0
  C  C32  1  0.00000000  0.24516000  0.85963000  1.0
