# generated using pymatgen
data_Li8Sc8Ge8Pd8C
_symmetry_space_group_name_H-M   Pm
_cell_length_a   6.30999000
_cell_length_b   8.92368000
_cell_length_c   26.69280000
_cell_angle_alpha   90.00000000
_cell_angle_beta   90.00000000
_cell_angle_gamma   90.00000000
_symmetry_Int_Tables_number   6
_chemical_formula_structural   Li8Sc8Ge8Pd8C
_chemical_formula_sum   'Li8 Sc8 Ge8 Pd8 C1'
_cell_volume   1503.02703275
_cell_formula_units_Z   1
loop_
 _symmetry_equiv_pos_site_id
 _symmetry_equiv_pos_as_xyz
  1  'x, y, z'
  2  'x, -y, z'
loop_
 _atom_site_type_symbol
 _atom_site_label
 _atom_site_symmetry_multiplicity
 _atom_site_fract_x
 _atom_site_fract_y
 _atom_site_fract_z
 _atom_site_occupancy
  Li  Li0  2  0.60316000  0.26899000  0.17758000  1.0
  Li  Li1  2  0.75000000  0.25001000  0.95821000  1.0
  Li  Li2  1  0.24546000  0.50000000  0.04284000  1.0
  Li  Li3  1  0.25000000  0.00000000  0.87463000  1.0
  Li  Li4  1  0.25000000  0.50000000  0.87463000  1.0
  Li  Li5  1  0.25286000  0.00000000  0.05354000  1.0
  Sc  Sc6  2  0.50000000  0.24999000  0.87463000  1.0
  Sc  Sc7  2  0.51122000  0.25384000  0.04592000  1.0
  Sc  Sc8  1  0.00000000  0.00000000  0.95821000  1.0
  Sc  Sc9  1  0.00000000  0.50000000  0.95821000  1.0
  Sc  Sc10  1  0.93516000  0.00000000  0.12399000  1.0
  Sc  Sc11  1  0.97553000  0.50000000  0.12486000  1.0
  Ge  Ge12  2  0.00000000  0.25001000  0.87463000  1.0
  Ge  Ge13  2  0.99246000  0.24809000  0.04241000  1.0
  Ge  Ge14  1  0.48706000  0.50000000  0.12568000  1.0
  Ge  Ge15  1  0.50000000  0.00000000  0.95821000  1.0
  Ge  Ge16  1  0.50000000  0.50000000  0.95821000  1.0
  Ge  Ge17  1  0.53760000  0.00000000  0.13438000  1.0
  Pd  Pd18  2  0.24105000  0.24796000  0.12268000  1.0
  Pd  Pd19  2  0.25000000  0.25001000  0.95821000  1.0
  Pd  Pd20  1  0.73645000  0.00000000  0.03741000  1.0
  Pd  Pd21  1  0.75000000  0.00000000  0.87463000  1.0
  Pd  Pd22  1  0.75000000  0.50000000  0.87463000  1.0
  Pd  Pd23  1  0.75586000  0.50000000  0.04033000  1.0
  C  C24  1  0.24516000  0.00000000  0.14037000  1.0
