# generated using pymatgen
data_Li4Al4Fe4Pd4C
_symmetry_space_group_name_H-M   'P 1'
_cell_length_a   8.60712000
_cell_length_b   5.25393000
_cell_length_c   23.58290000
_cell_angle_alpha   90.00000000
_cell_angle_beta   90.00000000
_cell_angle_gamma   90.00000000
_symmetry_Int_Tables_number   1
_chemical_formula_structural   Li4Al4Fe4Pd4C
_chemical_formula_sum   'Li4 Al4 Fe4 Pd4 C1'
_cell_volume   1066.44717854
_cell_formula_units_Z   1
loop_
 _symmetry_equiv_pos_site_id
 _symmetry_equiv_pos_as_xyz
  1  'x, y, z'
loop_
 _atom_site_type_symbol
 _atom_site_label
 _atom_site_symmetry_multiplicity
 _atom_site_fract_x
 _atom_site_fract_y
 _atom_site_fract_z
 _atom_site_occupancy
  Li  Li0  1  0.00000000  0.64775000  0.96177000  1.0
  Li  Li1  1  0.00000000  0.93782000  0.07596000  1.0
  Li  Li2  1  0.50000000  0.72686000  0.96673000  1.0
  Li  Li3  1  0.50000000  0.93782000  0.07596000  1.0
  Al  Al4  1  0.76815000  0.98330000  0.92727000  1.0
  Al  Al5  1  0.75000000  0.29188000  0.02532000  1.0
  Al  Al6  1  0.23185000  0.98330000  0.92727000  1.0
  Al  Al7  1  0.25000000  0.29188000  0.02532000  1.0
  Fe  Fe8  1  0.00000000  0.18098000  0.98937000  1.0
  Fe  Fe9  1  0.00000000  0.43782000  0.07596000  1.0
  Fe  Fe10  1  0.50000000  0.22729000  0.99176000  1.0
  Fe  Fe11  1  0.50000000  0.43782000  0.07596000  1.0
  Pd  Pd12  1  0.71430000  0.45854000  0.92572000  1.0
  Pd  Pd13  1  0.75000000  0.79188000  0.02532000  1.0
  Pd  Pd14  1  0.28570000  0.45854000  0.92572000  1.0
  Pd  Pd15  1  0.25000000  0.79188000  0.02532000  1.0
  C  C16  1  0.00000000  0.02019000  0.92543000  1.0
