# generated using pymatgen
data_Li4Al4Fe4Pd4C
_symmetry_space_group_name_H-M   Pm
_cell_length_a   5.25393000
_cell_length_b   8.60712000
_cell_length_c   23.58290000
_cell_angle_alpha   90.00000000
_cell_angle_beta   90.00000000
_cell_angle_gamma   90.00000000
_symmetry_Int_Tables_number   6
_chemical_formula_structural   Li4Al4Fe4Pd4C
_chemical_formula_sum   'Li4 Al4 Fe4 Pd4 C1'
_cell_volume   1066.44717854
_cell_formula_units_Z   1
loop_
 _symmetry_equiv_pos_site_id
 _symmetry_equiv_pos_as_xyz
  1  'x, y, z'
  2  'x, -y, z'
loop_
 _atom_site_type_symbol
 _atom_site_label
 _atom_site_symmetry_multiplicity
 _atom_site_fract_x
 _atom_site_fract_y
 _atom_site_fract_z
 _atom_site_occupancy
  Li  Li0  1  0.64775000  0.00000000  0.03823000  1.0
  Li  Li1  1  0.72686000  0.50000000  0.03327000  1.0
  Li  Li2  1  0.93782000  0.00000000  0.92404000  1.0
  Li  Li3  1  0.93782000  0.50000000  0.92404000  1.0
  Al  Al4  2  0.29188000  0.25000000  0.97468000  1.0
  Al  Al5  2  0.98330000  0.23185000  0.07273000  1.0
  Fe  Fe6  1  0.18098000  0.00000000  0.01063000  1.0
  Fe  Fe7  1  0.22729000  0.50000000  0.00824000  1.0
  Fe  Fe8  1  0.43782000  0.00000000  0.92404000  1.0
  Fe  Fe9  1  0.43782000  0.50000000  0.92404000  1.0
  Pd  Pd10  2  0.45854000  0.28570000  0.07428000  1.0
  Pd  Pd11  2  0.79188000  0.25000000  0.97468000  1.0
  C  C12  1  0.02019000  0.00000000  0.07457000  1.0
