# generated using pymatgen
data_Li8Ni16Ge8C
_symmetry_space_group_name_H-M   P1
_cell_length_a   5.73354000
_cell_length_b   8.10846000
_cell_length_c   26.08130000
_cell_angle_alpha   90.00000000
_cell_angle_beta   90.00000000
_cell_angle_gamma   90.00000000
_symmetry_Int_Tables_number   1
_chemical_formula_structural   Li8Ni16Ge8C
_chemical_formula_sum   'Li8 Ni16 Ge8 C1'
_cell_volume   1212.52432507
_cell_formula_units_Z   1
loop_
 _symmetry_equiv_pos_site_id
 _symmetry_equiv_pos_as_xyz
  1  'x, y, z'
loop_
 _atom_site_type_symbol
 _atom_site_label
 _atom_site_symmetry_multiplicity
 _atom_site_fract_x
 _atom_site_fract_y
 _atom_site_fract_z
 _atom_site_occupancy
  Li  Li0  1  0.00000000  0.00000000  0.88342000  1.0
  Li  Li1  1  0.00000000  0.50000000  0.88342000  1.0
  Li  Li2  1  0.00096000  0.49911000  0.03682000  1.0
  Li  Li3  1  0.00100000  0.00097000  0.03685000  1.0
  Li  Li4  1  0.48380000  0.74978000  0.13674000  1.0
  Li  Li5  1  0.50000000  0.25000000  0.96114000  1.0
  Li  Li6  1  0.50000000  0.75000000  0.96114000  1.0
  Li  Li7  1  0.52031000  0.25012000  0.16589000  1.0
  Ni  Ni8  1  0.24969000  0.48155000  0.11168000  1.0
  Ni  Ni9  1  0.24988000  0.01832000  0.11170000  1.0
  Ni  Ni10  1  0.25000000  0.00000000  0.96114000  1.0
  Ni  Ni11  1  0.25000000  0.25000000  0.88342000  1.0
  Ni  Ni12  1  0.25000000  0.50000000  0.96114000  1.0
  Ni  Ni13  1  0.25000000  0.75000000  0.88342000  1.0
  Ni  Ni14  1  0.25213000  0.25002000  0.04149000  1.0
  Ni  Ni15  1  0.25413000  0.75002000  0.04106000  1.0
  Ni  Ni16  1  0.74211000  0.25002000  0.03680000  1.0
  Ni  Ni17  1  0.74971000  0.75001000  0.04002000  1.0
  Ni  Ni18  1  0.75000000  0.00000000  0.96114000  1.0
  Ni  Ni19  1  0.75000000  0.25000000  0.88342000  1.0
  Ni  Ni20  1  0.75000000  0.50000000  0.96114000  1.0
  Ni  Ni21  1  0.75000000  0.75000000  0.88342000  1.0
  Ni  Ni22  1  0.75300000  0.98592000  0.11017000  1.0
  Ni  Ni23  1  0.75312000  0.51386000  0.11014000  1.0
  Ge  Ge24  1  0.00000000  0.25000000  0.96114000  1.0
  Ge  Ge25  1  0.00000000  0.75000000  0.96114000  1.0
  Ge  Ge26  1  0.00974000  0.74995000  0.11721000  1.0
  Ge  Ge27  1  0.50000000  0.00000000  0.88342000  1.0
  Ge  Ge28  1  0.50000000  0.50000000  0.88342000  1.0
  Ge  Ge29  1  0.50079000  0.50255000  0.03719000  1.0
  Ge  Ge30  1  0.50083000  0.99749000  0.03718000  1.0
  Ge  Ge31  1  0.91137000  0.24987000  0.12308000  1.0
  C  C32  1  0.24873000  0.24993000  0.11748000  1.0
