# generated using pymatgen
data_Zr8In8Ni16C
_symmetry_space_group_name_H-M   'P 1'
_cell_length_a   6.34847000
_cell_length_b   8.97809000
_cell_length_c   26.73360000
_cell_angle_alpha   90.00000000
_cell_angle_beta   90.00000000
_cell_angle_gamma   90.00000000
_symmetry_Int_Tables_number   1
_chemical_formula_structural   Zr8In8Ni16C
_chemical_formula_sum   'Zr8 In8 Ni16 C1'
_cell_volume   1523.73860883
_cell_formula_units_Z   1
loop_
 _symmetry_equiv_pos_site_id
 _symmetry_equiv_pos_as_xyz
  1  'x, y, z'
loop_
 _atom_site_type_symbol
 _atom_site_label
 _atom_site_symmetry_multiplicity
 _atom_site_fract_x
 _atom_site_fract_y
 _atom_site_fract_z
 _atom_site_occupancy
  Zr  Zr0  1  0.00000000  0.00000000  0.87406000  1.0
  Zr  Zr1  1  0.50000000  0.25000000  0.95802000  1.0
  Zr  Zr2  1  0.50000000  0.75000000  0.95802000  1.0
  Zr  Zr3  1  0.00000000  0.50000000  0.87406000  1.0
  Zr  Zr4  1  0.00000000  0.50000000  0.04305000  1.0
  Zr  Zr5  1  0.50000000  0.74720000  0.12421000  1.0
  Zr  Zr6  1  0.50000000  0.25280000  0.12421000  1.0
  Zr  Zr7  1  0.00000000  0.00000000  0.04644000  1.0
  In  In8  1  0.00000000  0.75000000  0.95802000  1.0
  In  In9  1  0.50000000  0.00000000  0.87406000  1.0
  In  In10  1  0.00000000  0.25000000  0.95802000  1.0
  In  In11  1  0.50000000  0.50000000  0.87406000  1.0
  In  In12  1  0.00000000  0.26407000  0.13501000  1.0
  In  In13  1  0.50000000  0.50000000  0.03935000  1.0
  In  In14  1  0.00000000  0.73593000  0.13501000  1.0
  In  In15  1  0.50000000  0.00000000  0.04169000  1.0
  Ni  Ni16  1  0.25000000  0.00000000  0.95802000  1.0
  Ni  Ni17  1  0.75000000  0.50000000  0.95802000  1.0
  Ni  Ni18  1  0.75000000  0.00000000  0.95802000  1.0
  Ni  Ni19  1  0.25000000  0.50000000  0.95802000  1.0
  Ni  Ni20  1  0.75000000  0.75000000  0.87406000  1.0
  Ni  Ni21  1  0.25000000  0.25000000  0.87406000  1.0
  Ni  Ni22  1  0.25000000  0.75000000  0.87406000  1.0
  Ni  Ni23  1  0.75000000  0.25000000  0.87406000  1.0
  Ni  Ni24  1  0.26085000  0.50000000  0.12123000  1.0
  Ni  Ni25  1  0.71485000  0.00000000  0.12941000  1.0
  Ni  Ni26  1  0.73915000  0.50000000  0.12123000  1.0
  Ni  Ni27  1  0.28515000  0.00000000  0.12941000  1.0
  Ni  Ni28  1  0.74891000  0.25239000  0.04335000  1.0
  Ni  Ni29  1  0.25109000  0.74761000  0.04335000  1.0
  Ni  Ni30  1  0.25109000  0.25239000  0.04335000  1.0
  Ni  Ni31  1  0.74891000  0.74761000  0.04335000  1.0
  C  C32  1  0.00000000  0.00000000  0.13374000  1.0
