# generated using pymatgen
data_VIr3
_symmetry_space_group_name_H-M   'P 1'
_cell_length_a   3.85099500
_cell_length_b   3.85099500
_cell_length_c   25.77650000
_cell_angle_alpha   90.00000000
_cell_angle_beta   90.00000000
_cell_angle_gamma   90.00000000
_symmetry_Int_Tables_number   1
_chemical_formula_structural   VIr3
_chemical_formula_sum   'V2 Ir6'
_cell_volume   382.26968342
_cell_formula_units_Z   2
loop_
 _symmetry_equiv_pos_site_id
 _symmetry_equiv_pos_as_xyz
  1  'x, y, z'
loop_
 _atom_site_type_symbol
 _atom_site_label
 _atom_site_symmetry_multiplicity
 _atom_site_fract_x
 _atom_site_fract_y
 _atom_site_fract_z
 _atom_site_occupancy
  V  V0  1  0.00000000  0.00000000  0.88795000  1.0
  V  V1  1  0.00000000  0.00000000  0.03735000  1.0
  Ir  Ir2  1  0.50000000  0.00000000  0.96265000  1.0
  Ir  Ir3  1  0.00000000  0.50000000  0.96265000  1.0
  Ir  Ir4  1  0.50000000  0.50000000  0.88795000  1.0
  Ir  Ir5  1  0.50000000  0.00000000  0.11205000  1.0
  Ir  Ir6  1  0.00000000  0.50000000  0.11205000  1.0
  Ir  Ir7  1  0.50000000  0.50000000  0.03735000  1.0
