# generated using pymatgen
data_Li8V8Ge8Pd8CO
_symmetry_space_group_name_H-M   P2
_cell_length_a   5.68832000
_cell_length_b   26.48090000
_cell_length_c   9.40562000
_cell_angle_alpha   90.00000000
_cell_angle_beta   90.00000000
_cell_angle_gamma   90.00000000
_symmetry_Int_Tables_number   3
_chemical_formula_structural   Li8V8Ge8Pd8CO
_chemical_formula_sum   'Li8 V8 Ge8 Pd8 C1 O1'
_cell_volume   1416.78578193
_cell_formula_units_Z   1
loop_
 _symmetry_equiv_pos_site_id
 _symmetry_equiv_pos_as_xyz
  1  'x, y, z'
  2  '-x, y, -z'
  3  '-x, y, z'
  4  'x, y, -z'
loop_
 _atom_site_type_symbol
 _atom_site_label
 _atom_site_symmetry_multiplicity
 _atom_site_fract_x
 _atom_site_fract_y
 _atom_site_fract_z
 _atom_site_occupancy
  Li  Li0  2  0.24898000  0.04251000  0.99997000  1.0
  Li  Li1  2  0.25001000  0.87763000  0.49999000  1.0
  Li  Li2  2  0.25001000  0.87763000  0.99999000  1.0
  Li  Li3  2  0.26232000  0.04452000  0.50000000  1.0
  V  V4  4  0.24999000  0.95921000  0.25001000  1.0
  V  V5  4  0.29362000  0.12289000  0.25062000  1.0
  Ge  Ge6  2  0.00001000  0.87763000  0.74999000  1.0
  Ge  Ge7  2  0.00002000  0.04504000  0.25387000  1.0
  Ge  Ge8  2  0.49997000  0.03864000  0.24642000  1.0
  Ge  Ge9  2  0.49999000  0.87763000  0.25001000  1.0
  Pd  Pd10  1  0.00000000  0.12077000  0.50000000  1.0
  Pd  Pd11  1  0.00000000  0.12280000  0.00000000  1.0
  Pd  Pd12  1  0.00000000  0.95921000  0.00000000  1.0
  Pd  Pd13  1  0.00000000  0.95921000  0.50000000  1.0
  Pd  Pd14  1  0.50000000  0.12547000  0.00000000  1.0
  Pd  Pd15  1  0.50000000  0.14721000  0.50000000  1.0
  Pd  Pd16  1  0.50000000  0.95921000  0.00000000  1.0
  Pd  Pd17  1  0.50000000  0.95921000  0.50000000  1.0
  C  C18  1  0.50000000  0.21968000  0.50000000  1.0
  O  O19  1  0.50000000  0.26318000  0.50000000  1.0
