# generated using pymatgen
data_Li8Mg8Ag8Ge8CO
_symmetry_space_group_name_H-M   'P 1'
_cell_length_a   9.20048000
_cell_length_b   6.50572000
_cell_length_c   26.90040000
_cell_angle_alpha   90.00000000
_cell_angle_beta   90.00000000
_cell_angle_gamma   90.00000000
_symmetry_Int_Tables_number   1
_chemical_formula_structural   Li8Mg8Ag8Ge8CO
_chemical_formula_sum   'Li8 Mg8 Ag8 Ge8 C1 O1'
_cell_volume   1610.14352976
_cell_formula_units_Z   1
loop_
 _symmetry_equiv_pos_site_id
 _symmetry_equiv_pos_as_xyz
  1  'x, y, z'
loop_
 _atom_site_type_symbol
 _atom_site_label
 _atom_site_symmetry_multiplicity
 _atom_site_fract_x
 _atom_site_fract_y
 _atom_site_fract_z
 _atom_site_occupancy
  Li  Li0  1  0.00000000  0.75000000  0.04275000  1.0
  Li  Li1  1  0.50000000  0.75000000  0.04275000  1.0
  Li  Li2  1  0.25000000  0.25000000  0.12826000  1.0
  Li  Li3  1  0.75000000  0.25000000  0.12826000  1.0
  Li  Li4  1  0.50000000  0.75646000  0.86447000  1.0
  Li  Li5  1  0.00000000  0.75230000  0.85943000  1.0
  Li  Li6  1  0.75023000  0.24863000  0.95783000  1.0
  Li  Li7  1  0.24977000  0.24863000  0.95783000  1.0
  Mg  Mg8  1  0.00000000  0.25000000  0.04275000  1.0
  Mg  Mg9  1  0.50000000  0.25000000  0.04275000  1.0
  Mg  Mg10  1  0.25000000  0.75000000  0.12826000  1.0
  Mg  Mg11  1  0.75000000  0.75000000  0.12826000  1.0
  Mg  Mg12  1  0.50000000  0.23137000  0.85968000  1.0
  Mg  Mg13  1  0.00000000  0.23023000  0.85997000  1.0
  Mg  Mg14  1  0.75004000  0.75112000  0.95540000  1.0
  Mg  Mg15  1  0.24996000  0.75112000  0.95540000  1.0
  Ag  Ag16  1  0.00000000  0.00000000  0.12826000  1.0
  Ag  Ag17  1  0.50000000  0.00000000  0.12826000  1.0
  Ag  Ag18  1  0.75000000  0.50000000  0.04275000  1.0
  Ag  Ag19  1  0.25000000  0.50000000  0.04275000  1.0
  Ag  Ag20  1  0.50000000  0.00957000  0.95037000  1.0
  Ag  Ag21  1  0.00000000  0.00621000  0.94950000  1.0
  Ag  Ag22  1  0.25141000  0.48389000  0.87204000  1.0
  Ag  Ag23  1  0.74859000  0.48389000  0.87204000  1.0
  Ge  Ge24  1  0.25000000  0.00000000  0.04275000  1.0
  Ge  Ge25  1  0.75000000  0.00000000  0.04275000  1.0
  Ge  Ge26  1  0.50000000  0.50000000  0.12826000  1.0
  Ge  Ge27  1  0.00000000  0.50000000  0.12826000  1.0
  Ge  Ge28  1  0.74871000  0.99468000  0.86768000  1.0
  Ge  Ge29  1  0.25129000  0.99468000  0.86768000  1.0
  Ge  Ge30  1  0.00000000  0.49440000  0.94745000  1.0
  Ge  Ge31  1  0.50000000  0.49453000  0.94828000  1.0
  C  C32  1  0.00000000  0.74156000  0.78101000  1.0
  O  O33  1  0.00000000  0.74779000  0.73858000  1.0
