data_image0
_chemical_formula_structural       Li8Mg8Al8Pt8CO
_chemical_formula_sum              "Li8 Mg8 Al8 Pt8 C1 O1"
_cell_length_a       6.2488
_cell_length_b       8.83714
_cell_length_c       26.6279
_cell_angle_alpha    90
_cell_angle_beta     90
_cell_angle_gamma    90

_space_group_name_H-M_alt    "P 1"
_space_group_IT_number       1

loop_
  _space_group_symop_operation_xyz
  'x, y, z'

loop_
  _atom_site_type_symbol
  _atom_site_label
  _atom_site_symmetry_multiplicity
  _atom_site_fract_x
  _atom_site_fract_y
  _atom_site_fract_z
  _atom_site_occupancy
  Li  Li1       1.0  0.25000  0.00000  0.95852  1.0000
  Li  Li2       1.0  0.25000  0.50000  0.95852  1.0000
  Li  Li3       1.0  0.75000  0.25000  0.87555  1.0000
  Li  Li4       1.0  0.75000  0.75000  0.87555  1.0000
  Li  Li5       1.0  0.27411  0.50000  0.13294  1.0000
  Li  Li6       1.0  0.26976  1.00000  0.12838  1.0000
  Li  Li7       1.0  0.75802  0.74874  0.03948  1.0000
  Li  Li8       1.0  0.75802  0.25127  0.03948  1.0000
  Mg  Mg1       1.0  0.00000  0.25000  0.95852  1.0000
  Mg  Mg2       1.0  0.00000  0.75000  0.95852  1.0000
  Mg  Mg3       1.0  0.50000  0.50000  0.87555  1.0000
  Mg  Mg4       1.0  0.50000  0.00000  0.87555  1.0000
  Mg  Mg5       1.0  0.98593  0.74993  0.13038  1.0000
  Mg  Mg6       1.0  0.98593  0.25006  0.13038  1.0000
  Mg  Mg7       1.0  0.49173  0.00000  0.03845  1.0000
  Mg  Mg8       1.0  0.49153  0.50000  0.03944  1.0000
  Al  Al1       1.0  0.00000  0.00000  0.87555  1.0000
  Al  Al2       1.0  0.00000  0.50000  0.87555  1.0000
  Al  Al3       1.0  0.50000  0.75000  0.95852  1.0000
  Al  Al4       1.0  0.50000  0.25000  0.95852  1.0000
  Al  Al5       1.0  0.00252  0.50000  0.04383  1.0000
  Al  Al6       1.0  0.00071  0.00000  0.04258  1.0000
  Al  Al7       1.0  0.52276  0.25079  0.12112  1.0000
  Al  Al8       1.0  0.52276  0.74921  0.12112  1.0000
  Pt  Pt1       1.0  0.75000  0.00000  0.95852  1.0000
  Pt  Pt2       1.0  0.75000  0.50000  0.95852  1.0000
  Pt  Pt3       1.0  0.25000  0.25000  0.87555  1.0000
  Pt  Pt4       1.0  0.25000  0.75000  0.87555  1.0000
  Pt  Pt5       1.0  0.73757  0.50000  0.11791  1.0000
  Pt  Pt6       1.0  0.73563  1.00000  0.11608  1.0000
  Pt  Pt7       1.0  0.24325  0.75070  0.04393  1.0000
  Pt  Pt8       1.0  0.24325  0.24930  0.04393  1.0000
  C   C1        1.0  0.23281  0.99999  0.20422  1.0000
  O   O1        1.0  0.23320  0.99999  0.24728  1.0000
