# generated using pymatgen
data_Li4Mg4Ag4Sn4CO
_symmetry_space_group_name_H-M   Cm
_cell_length_a   9.55865533
_cell_length_b   9.55865533
_cell_length_c   25.06920000
_cell_angle_alpha   90.00000000
_cell_angle_beta   90.00000000
_cell_angle_gamma   90.00000000
_symmetry_Int_Tables_number   8
_chemical_formula_structural   Li4Mg4Ag4Sn4CO
_chemical_formula_sum   'Li8 Mg8 Ag8 Sn8 C2 O2'
_cell_volume   2290.51994911
_cell_formula_units_Z   2
loop_
 _symmetry_equiv_pos_site_id
 _symmetry_equiv_pos_as_xyz
  1  'x, y, z'
  2  'x, -y, z'
  3  'x+1/2, y+1/2, z'
  4  'x+1/2, -y+1/2, z'
loop_
 _atom_site_type_symbol
 _atom_site_label
 _atom_site_symmetry_multiplicity
 _atom_site_fract_x
 _atom_site_fract_y
 _atom_site_fract_z
 _atom_site_occupancy
  Li  Li0  4  0.00072000  0.25079000  0.10337000  1.0
  Li  Li1  2  0.24999500  0.00000000  0.96630000  1.0
  Li  Li2  2  0.24999500  0.50000000  0.96630000  1.0
  Mg  Mg3  4  0.49999500  0.24999500  0.96630000  1.0
  Mg  Mg4  2  0.24999000  0.50000000  0.10205000  1.0
  Mg  Mg5  2  0.25133500  0.00000000  0.10922000  1.0
  Ag  Ag6  4  0.25010000  0.24911000  0.03365000  1.0
  Ag  Ag7  2  0.49999500  0.00000000  0.89890000  1.0
  Ag  Ag8  2  0.49999500  0.50000000  0.89890000  1.0
  Sn  Sn9  4  0.24999500  0.24999500  0.89890000  1.0
  Sn  Sn10  2  0.00576500  0.00000000  0.04326000  1.0
  Sn  Sn11  2  0.49436000  0.00000000  0.04296000  1.0
  C  C12  2  0.24817000  0.50000000  0.18966000  1.0
  O  O13  2  0.24743500  0.50000000  0.23561000  1.0
