# generated using pymatgen
data_Y8In8Cu16C
_symmetry_space_group_name_H-M   'P 1'
_cell_length_a   6.69979000
_cell_length_b   9.47494000
_cell_length_c   27.10620000
_cell_angle_alpha   90.00000000
_cell_angle_beta   90.00000000
_cell_angle_gamma   90.00000000
_symmetry_Int_Tables_number   1
_chemical_formula_structural   Y8In8Cu16C
_chemical_formula_sum   'Y8 In8 Cu16 C1'
_cell_volume   1720.70451059
_cell_formula_units_Z   1
loop_
 _symmetry_equiv_pos_site_id
 _symmetry_equiv_pos_as_xyz
  1  'x, y, z'
loop_
 _atom_site_type_symbol
 _atom_site_label
 _atom_site_symmetry_multiplicity
 _atom_site_fract_x
 _atom_site_fract_y
 _atom_site_fract_z
 _atom_site_occupancy
  Y  Y0  1  0.00000000  0.00000000  0.86892000  1.0
  Y  Y1  1  0.50000000  0.25000000  0.95631000  1.0
  Y  Y2  1  0.50000000  0.75000000  0.95631000  1.0
  Y  Y3  1  0.00000000  0.50000000  0.86892000  1.0
  Y  Y4  1  0.01038000  0.50152000  0.04844000  1.0
  Y  Y5  1  0.45468000  0.74990000  0.12636000  1.0
  Y  Y6  1  0.43841000  0.25011000  0.12438000  1.0
  Y  Y7  1  0.01047000  0.99851000  0.04845000  1.0
  In  In8  1  0.00000000  0.75000000  0.95631000  1.0
  In  In9  1  0.50000000  0.00000000  0.86892000  1.0
  In  In10  1  0.00000000  0.25000000  0.95631000  1.0
  In  In11  1  0.50000000  0.50000000  0.86892000  1.0
  In  In12  1  0.82708000  0.24990000  0.18362000  1.0
  In  In13  1  0.50812000  0.50204000  0.04267000  1.0
  In  In14  1  0.97664000  0.74999000  0.13582000  1.0
  In  In15  1  0.50807000  0.99795000  0.04267000  1.0
  Cu  Cu16  1  0.25000000  0.00000000  0.95631000  1.0
  Cu  Cu17  1  0.75000000  0.50000000  0.95631000  1.0
  Cu  Cu18  1  0.75000000  0.00000000  0.95631000  1.0
  Cu  Cu19  1  0.25000000  0.50000000  0.95631000  1.0
  Cu  Cu20  1  0.75000000  0.75000000  0.86892000  1.0
  Cu  Cu21  1  0.25000000  0.25000000  0.86892000  1.0
  Cu  Cu22  1  0.25000000  0.75000000  0.86892000  1.0
  Cu  Cu23  1  0.75000000  0.25000000  0.86892000  1.0
  Cu  Cu24  1  0.11259000  0.45614000  0.15174000  1.0
  Cu  Cu25  1  0.73468000  0.99967000  0.13003000  1.0
  Cu  Cu26  1  0.73476000  0.50033000  0.13007000  1.0
  Cu  Cu27  1  0.11274000  0.04385000  0.15172000  1.0
  Cu  Cu28  1  0.76650000  0.24997000  0.04281000  1.0
  Cu  Cu29  1  0.24170000  0.75004000  0.03887000  1.0
  Cu  Cu30  1  0.23486000  0.25002000  0.03632000  1.0
  Cu  Cu31  1  0.74632000  0.75000000  0.04724000  1.0
  C  C32  1  0.13904000  0.25001000  0.16042000  1.0
