# generated using pymatgen
data_Li8Y8In8Cu8CO
_symmetry_space_group_name_H-M   'P 1'
_cell_length_a   6.68415000
_cell_length_b   9.45282000
_cell_length_c   27.08960000
_cell_angle_alpha   90.00000000
_cell_angle_beta   90.00000000
_cell_angle_gamma   90.00000000
_symmetry_Int_Tables_number   1
_chemical_formula_structural   Li8Y8In8Cu8CO
_chemical_formula_sum   'Li8 Y8 In8 Cu8 C1 O1'
_cell_volume   1711.63109607
_cell_formula_units_Z   1
loop_
 _symmetry_equiv_pos_site_id
 _symmetry_equiv_pos_as_xyz
  1  'x, y, z'
loop_
 _atom_site_type_symbol
 _atom_site_label
 _atom_site_symmetry_multiplicity
 _atom_site_fract_x
 _atom_site_fract_y
 _atom_site_fract_z
 _atom_site_occupancy
  Li  Li0  1  0.00000000  0.25000000  0.95638000  1.0
  Li  Li1  1  0.00000000  0.75000000  0.95638000  1.0
  Li  Li2  1  0.50000000  0.50000000  0.86915000  1.0
  Li  Li3  1  0.50000000  0.00000000  0.86915000  1.0
  Li  Li4  1  0.17258000  0.75001000  0.18281000  1.0
  Li  Li5  1  0.16662000  0.25003000  0.18550000  1.0
  Li  Li6  1  0.51450000  0.00072000  0.04794000  1.0
  Li  Li7  1  0.51450000  0.49928000  0.04794000  1.0
  Y  Y8  1  0.75000000  0.00000000  0.95638000  1.0
  Y  Y9  1  0.75000000  0.50000000  0.95638000  1.0
  Y  Y10  1  0.25000000  0.25000000  0.86915000  1.0
  Y  Y11  1  0.25000000  0.75000000  0.86915000  1.0
  Y  Y12  1  0.79710000  0.49356000  0.13639000  1.0
  Y  Y13  1  0.79710000  0.00637000  0.13638000  1.0
  Y  Y14  1  0.24057000  0.75000000  0.04817000  1.0
  Y  Y15  1  0.23800000  0.25000000  0.04606000  1.0
  In  In16  1  0.25000000  0.00000000  0.95638000  1.0
  In  In17  1  0.25000000  0.50000000  0.95638000  1.0
  In  In18  1  0.75000000  0.25000000  0.86915000  1.0
  In  In19  1  0.75000000  0.75000000  0.86915000  1.0
  In  In20  1  0.27718000  0.50197000  0.13214000  1.0
  In  In21  1  0.27716000  0.99805000  0.13214000  1.0
  In  In22  1  0.75471000  0.75000000  0.04459000  1.0
  In  In23  1  0.74856000  0.25000000  0.04330000  1.0
  Cu  Cu24  1  0.00000000  0.00000000  0.86915000  1.0
  Cu  Cu25  1  0.00000000  0.50000000  0.86915000  1.0
  Cu  Cu26  1  0.50000000  0.75000000  0.95638000  1.0
  Cu  Cu27  1  0.50000000  0.25000000  0.95638000  1.0
  Cu  Cu28  1  0.99552000  0.49876000  0.04309000  1.0
  Cu  Cu29  1  0.99553000  0.00124000  0.04309000  1.0
  Cu  Cu30  1  0.49663000  0.25000000  0.12745000  1.0
  Cu  Cu31  1  0.52487000  0.74999000  0.12786000  1.0
  C  C32  1  0.71707000  0.24997000  0.16804000  1.0
  O  O33  1  0.89163000  0.25013000  0.18619000  1.0
