data_image0
_chemical_formula_structural       Sc8Co16Sn8CO
_chemical_formula_sum              "Sc8 Co16 Sn8 C1 O1"
_cell_length_a       6.22913
_cell_length_b       8.80931
_cell_length_c       26.607
_cell_angle_alpha    90
_cell_angle_beta     90
_cell_angle_gamma    90

_space_group_name_H-M_alt    "P 1"
_space_group_IT_number       1

loop_
  _space_group_symop_operation_xyz
  'x, y, z'

loop_
  _atom_site_type_symbol
  _atom_site_label
  _atom_site_symmetry_multiplicity
  _atom_site_fract_x
  _atom_site_fract_y
  _atom_site_fract_z
  _atom_site_occupancy
  Sc  Sc1       1.0  0.00000  0.00000  0.87584  1.0000
  Sc  Sc2       1.0  0.50000  0.25000  0.95861  1.0000
  Sc  Sc3       1.0  0.50000  0.75000  0.95861  1.0000
  Sc  Sc4       1.0  0.00000  0.50000  0.87584  1.0000
  Sc  Sc5       1.0  0.99999  0.50831  0.04064  1.0000
  Sc  Sc6       1.0  0.50001  0.74997  0.12739  1.0000
  Sc  Sc7       1.0  0.50001  0.25003  0.12626  1.0000
  Sc  Sc8       1.0  1.00000  0.99169  0.04063  1.0000
  Co  Co1       1.0  0.25000  0.00000  0.95861  1.0000
  Co  Co2       1.0  0.75000  0.50000  0.95861  1.0000
  Co  Co3       1.0  0.75000  0.00000  0.95861  1.0000
  Co  Co4       1.0  0.25000  0.50000  0.95861  1.0000
  Co  Co5       1.0  0.75000  0.75000  0.87584  1.0000
  Co  Co6       1.0  0.25000  0.25000  0.87584  1.0000
  Co  Co7       1.0  0.25000  0.75000  0.87584  1.0000
  Co  Co8       1.0  0.75000  0.25000  0.87584  1.0000
  Co  Co9       1.0  0.23247  0.50149  0.11552  1.0000
  Co  Co10      1.0  0.76751  0.99851  0.11552  1.0000
  Co  Co11      1.0  0.76753  0.50149  0.11552  1.0000
  Co  Co12      1.0  0.23249  0.99851  0.11552  1.0000
  Co  Co13      1.0  0.73127  0.24996  0.03838  1.0000
  Co  Co14      1.0  0.25581  0.75003  0.04300  1.0000
  Co  Co15      1.0  0.26873  0.24997  0.03839  1.0000
  Co  Co16      1.0  0.74419  0.75004  0.04300  1.0000
  Sn  Sn1       1.0  0.00000  0.75000  0.95861  1.0000
  Sn  Sn2       1.0  0.50000  0.00000  0.87584  1.0000
  Sn  Sn3       1.0  0.00000  0.25000  0.95861  1.0000
  Sn  Sn4       1.0  0.50000  0.50000  0.87584  1.0000
  Sn  Sn5       1.0  0.00000  0.24998  0.11743  1.0000
  Sn  Sn6       1.0  0.50000  0.50231  0.04226  1.0000
  Sn  Sn7       1.0  0.00001  0.75002  0.13210  1.0000
  Sn  Sn8       1.0  0.50000  0.99769  0.04226  1.0000
  C   C1        1.0  1.00000  0.25000  0.21490  1.0000
  O   O1        1.0  0.00000  0.25000  0.25744  1.0000
