data_image0
_chemical_formula_structural       Be16Ni16
_chemical_formula_sum              "Be16 Ni16"
_cell_length_a       5.23991
_cell_length_b       7.41035
_cell_length_c       25.5578
_cell_angle_alpha    90
_cell_angle_beta     90
_cell_angle_gamma    90

_space_group_name_H-M_alt    "P 1"
_space_group_IT_number       1

loop_
  _space_group_symop_operation_xyz
  'x, y, z'

loop_
  _atom_site_type_symbol
  _atom_site_label
  _atom_site_symmetry_multiplicity
  _atom_site_fract_x
  _atom_site_fract_y
  _atom_site_fract_z
  _atom_site_occupancy
  Be  Be1       1.0  0.00000  0.00000  0.89127  1.0000
  Be  Be2       1.0  0.00000  0.25000  0.96376  1.0000
  Be  Be3       1.0  1.00000  0.99999  0.03658  1.0000
  Be  Be4       1.0  0.00005  0.24998  0.10932  1.0000
  Be  Be5       1.0  0.00000  0.50000  0.89127  1.0000
  Be  Be6       1.0  0.00000  0.75000  0.96376  1.0000
  Be  Be7       1.0  0.00002  0.50003  0.03649  1.0000
  Be  Be8       1.0  0.00005  0.74995  0.10931  1.0000
  Be  Be9       1.0  0.50000  0.00000  0.89127  1.0000
  Be  Be10      1.0  0.50000  0.25000  0.96376  1.0000
  Be  Be11      1.0  0.50004  0.00003  0.03659  1.0000
  Be  Be12      1.0  0.49994  0.24993  0.10933  1.0000
  Be  Be13      1.0  0.50000  0.50000  0.89127  1.0000
  Be  Be14      1.0  0.50000  0.75000  0.96376  1.0000
  Be  Be15      1.0  0.50002  0.49999  0.03648  1.0000
  Be  Be16      1.0  0.50003  0.75000  0.10933  1.0000
  Ni  Ni1       1.0  0.25000  0.25000  0.89127  1.0000
  Ni  Ni2       1.0  0.25000  0.00000  0.96376  1.0000
  Ni  Ni3       1.0  0.24997  0.24994  0.03615  1.0000
  Ni  Ni4       1.0  0.25007  0.50002  0.10723  1.0000
  Ni  Ni5       1.0  0.25000  0.75000  0.89127  1.0000
  Ni  Ni6       1.0  0.25000  0.50000  0.96376  1.0000
  Ni  Ni7       1.0  0.25022  0.75008  0.03612  1.0000
  Ni  Ni8       1.0  0.24997  0.99995  0.10741  1.0000
  Ni  Ni9       1.0  0.75000  0.25000  0.89127  1.0000
  Ni  Ni10      1.0  0.75000  0.00000  0.96376  1.0000
  Ni  Ni11      1.0  0.74993  0.24999  0.03619  1.0000
  Ni  Ni12      1.0  0.74999  0.49994  0.10725  1.0000
  Ni  Ni13      1.0  0.75000  0.75000  0.89127  1.0000
  Ni  Ni14      1.0  0.75000  0.50000  0.96376  1.0000
  Ni  Ni15      1.0  0.75002  0.75006  0.03619  1.0000
  Ni  Ni16      1.0  0.75009  0.99996  0.10741  1.0000
