# generated using pymatgen
data_BeNi
_symmetry_space_group_name_H-M   'P 1'
_cell_length_a   5.23991000
_cell_length_b   7.41035000
_cell_length_c   25.55780000
_cell_angle_alpha   90.00000000
_cell_angle_beta   90.00000000
_cell_angle_gamma   90.00000000
_symmetry_Int_Tables_number   1
_chemical_formula_structural   BeNi
_chemical_formula_sum   'Be16 Ni16'
_cell_volume   992.39830922
_cell_formula_units_Z   16
loop_
 _symmetry_equiv_pos_site_id
 _symmetry_equiv_pos_as_xyz
  1  'x, y, z'
loop_
 _atom_site_type_symbol
 _atom_site_label
 _atom_site_symmetry_multiplicity
 _atom_site_fract_x
 _atom_site_fract_y
 _atom_site_fract_z
 _atom_site_occupancy
  Be  Be0  1  0.00000000  0.00000000  0.89127000  1.0
  Be  Be1  1  0.00000000  0.25000000  0.96376000  1.0
  Be  Be2  1  0.00000000  0.99999000  0.03658000  1.0
  Be  Be3  1  0.00005000  0.24998000  0.10932000  1.0
  Be  Be4  1  0.00000000  0.50000000  0.89127000  1.0
  Be  Be5  1  0.00000000  0.75000000  0.96376000  1.0
  Be  Be6  1  0.00002000  0.50003000  0.03649000  1.0
  Be  Be7  1  0.00005000  0.74995000  0.10931000  1.0
  Be  Be8  1  0.50000000  0.00000000  0.89127000  1.0
  Be  Be9  1  0.50000000  0.25000000  0.96376000  1.0
  Be  Be10  1  0.50004000  0.00003000  0.03659000  1.0
  Be  Be11  1  0.49994000  0.24993000  0.10933000  1.0
  Be  Be12  1  0.50000000  0.50000000  0.89127000  1.0
  Be  Be13  1  0.50000000  0.75000000  0.96376000  1.0
  Be  Be14  1  0.50002000  0.49999000  0.03648000  1.0
  Be  Be15  1  0.50003000  0.75000000  0.10933000  1.0
  Ni  Ni16  1  0.25000000  0.25000000  0.89127000  1.0
  Ni  Ni17  1  0.25000000  0.00000000  0.96376000  1.0
  Ni  Ni18  1  0.24997000  0.24994000  0.03615000  1.0
  Ni  Ni19  1  0.25007000  0.50002000  0.10723000  1.0
  Ni  Ni20  1  0.25000000  0.75000000  0.89127000  1.0
  Ni  Ni21  1  0.25000000  0.50000000  0.96376000  1.0
  Ni  Ni22  1  0.25022000  0.75008000  0.03612000  1.0
  Ni  Ni23  1  0.24997000  0.99995000  0.10741000  1.0
  Ni  Ni24  1  0.75000000  0.25000000  0.89127000  1.0
  Ni  Ni25  1  0.75000000  0.00000000  0.96376000  1.0
  Ni  Ni26  1  0.74993000  0.24999000  0.03619000  1.0
  Ni  Ni27  1  0.74999000  0.49994000  0.10725000  1.0
  Ni  Ni28  1  0.75000000  0.75000000  0.89127000  1.0
  Ni  Ni29  1  0.75000000  0.50000000  0.96376000  1.0
  Ni  Ni30  1  0.75002000  0.75006000  0.03619000  1.0
  Ni  Ni31  1  0.75009000  0.99996000  0.10741000  1.0
