# generated using pymatgen
data_Li8Al8Ag8Pd8C
_symmetry_space_group_name_H-M   Pm
_cell_length_a   6.21941000
_cell_length_b   8.79558000
_cell_length_c   26.59670000
_cell_angle_alpha   90.00000000
_cell_angle_beta   90.00000000
_cell_angle_gamma   90.00000000
_symmetry_Int_Tables_number   6
_chemical_formula_structural   Li8Al8Ag8Pd8C
_chemical_formula_sum   'Li8 Al8 Ag8 Pd8 C1'
_cell_volume   1454.92774338
_cell_formula_units_Z   1
loop_
 _symmetry_equiv_pos_site_id
 _symmetry_equiv_pos_as_xyz
  1  'x, y, z'
  2  'x, -y, z'
loop_
 _atom_site_type_symbol
 _atom_site_label
 _atom_site_symmetry_multiplicity
 _atom_site_fract_x
 _atom_site_fract_y
 _atom_site_fract_z
 _atom_site_occupancy
  Li  Li0  2  0.23999000  0.26684000  0.13317000  1.0
  Li  Li1  2  0.25000000  0.25000000  0.95866000  1.0
  Li  Li2  1  0.74483000  0.00000000  0.04177000  1.0
  Li  Li3  1  0.74641000  0.50000000  0.03919000  1.0
  Li  Li4  1  0.75000000  0.00000000  0.87599000  1.0
  Li  Li5  1  0.75000000  0.50000000  0.87599000  1.0
  Al  Al6  2  0.75000000  0.25000000  0.95866000  1.0
  Al  Al7  2  0.76208000  0.22436000  0.13142000  1.0
  Al  Al8  1  0.25000000  0.00000000  0.87599000  1.0
  Al  Al9  1  0.25000000  0.50000000  0.87599000  1.0
  Al  Al10  1  0.25210000  0.00000000  0.03412000  1.0
  Al  Al11  1  0.25238000  0.50000000  0.04474000  1.0
  Ag  Ag12  2  0.00000000  0.25000000  0.87599000  1.0
  Ag  Ag13  2  0.99693000  0.25335000  0.04187000  1.0
  Ag  Ag14  1  0.45463000  0.00000000  0.11932000  1.0
  Ag  Ag15  1  0.50000000  0.00000000  0.95866000  1.0
  Ag  Ag16  1  0.50000000  0.50000000  0.95866000  1.0
  Ag  Ag17  1  0.52633000  0.50000000  0.12520000  1.0
  Pd  Pd18  2  0.49887000  0.25390000  0.04278000  1.0
  Pd  Pd19  2  0.50000000  0.25000000  0.87599000  1.0
  Pd  Pd20  1  -0.00000000  0.50000000  0.95866000  1.0
  Pd  Pd21  1  0.00000000  0.00000000  0.95866000  1.0
  Pd  Pd22  1  0.03804000  0.00000000  0.11236000  1.0
  Pd  Pd23  1  0.97277000  0.50000000  0.11860000  1.0
  C  C24  1  0.76238000  0.00000000  0.15190000  1.0
