# generated using pymatgen
data_Cu16Au16CO
_symmetry_space_group_name_H-M   Pmm2
_cell_length_a   7.29474000
_cell_length_b   8.22139000
_cell_length_c   26.16600000
_cell_angle_alpha   90.00000000
_cell_angle_beta   90.00000000
_cell_angle_gamma   90.00000000
_symmetry_Int_Tables_number   25
_chemical_formula_structural   Cu16Au16CO
_chemical_formula_sum   'Cu16 Au16 C1 O1'
_cell_volume   1569.25096652
_cell_formula_units_Z   1
loop_
 _symmetry_equiv_pos_site_id
 _symmetry_equiv_pos_as_xyz
  1  'x, y, z'
  2  '-x, -y, z'
  3  '-x, y, z'
  4  'x, -y, z'
loop_
 _atom_site_type_symbol
 _atom_site_label
 _atom_site_symmetry_multiplicity
 _atom_site_fract_x
 _atom_site_fract_y
 _atom_site_fract_z
 _atom_site_occupancy
  Cu  Cu0  2  0.00000000  0.25000000  0.11783000  1.0
  Cu  Cu1  2  0.00000000  0.25000000  0.96072000  1.0
  Cu  Cu2  2  0.50000000  0.25000000  0.11783000  1.0
  Cu  Cu3  2  0.50000000  0.25000000  0.96072000  1.0
  Cu  Cu4  1  0.00000000  0.00000000  0.03928000  1.0
  Cu  Cu5  1  0.00000000  0.00000000  0.88217000  1.0
  Cu  Cu6  1  0.00000000  0.50000000  0.03928000  1.0
  Cu  Cu7  1  0.00000000  0.50000000  0.88217000  1.0
  Cu  Cu8  1  0.50000000  0.00000000  0.03928000  1.0
  Cu  Cu9  1  0.50000000  0.00000000  0.88217000  1.0
  Cu  Cu10  1  0.50000000  0.50000000  0.03928000  1.0
  Cu  Cu11  1  0.50000000  0.50000000  0.88217000  1.0
  Au  Au12  4  0.25000000  0.25000000  0.03928000  1.0
  Au  Au13  4  0.25000000  0.25000000  0.88217000  1.0
  Au  Au14  2  0.25000000  0.00000000  0.11783000  1.0
  Au  Au15  2  0.25000000  0.00000000  0.96072000  1.0
  Au  Au16  2  0.25000000  0.50000000  0.11783000  1.0
  Au  Au17  2  0.25000000  0.50000000  0.96072000  1.0
  C  C18  1  0.00000000  0.00000000  0.80956000  1.0
  O  O19  1  0.00000000  0.00000000  0.76561000  1.0
