# generated using pymatgen
data_Mn12Ge4CO
_symmetry_space_group_name_H-M   Pmm2
_cell_length_a   5.24858000
_cell_length_b   7.42262000
_cell_length_c   23.93640000
_cell_angle_alpha   90.00000000
_cell_angle_beta   90.00000000
_cell_angle_gamma   90.00000000
_symmetry_Int_Tables_number   25
_chemical_formula_structural   Mn12Ge4CO
_chemical_formula_sum   'Mn12 Ge4 C1 O1'
_cell_volume   932.51941464
_cell_formula_units_Z   1
loop_
 _symmetry_equiv_pos_site_id
 _symmetry_equiv_pos_as_xyz
  1  'x, y, z'
  2  '-x, -y, z'
  3  '-x, y, z'
  4  'x, -y, z'
loop_
 _atom_site_type_symbol
 _atom_site_label
 _atom_site_symmetry_multiplicity
 _atom_site_fract_x
 _atom_site_fract_y
 _atom_site_fract_z
 _atom_site_occupancy
  Mn  Mn0  4  0.25000000  0.25000000  0.08223000  1.0
  Mn  Mn1  4  0.25000000  0.25000000  0.97259000  1.0
  Mn  Mn2  1  0.00000000  0.00000000  0.02741000  1.0
  Mn  Mn3  1  0.00000000  0.50000000  0.02741000  1.0
  Mn  Mn4  1  0.50000000  0.00000000  0.91777000  1.0
  Mn  Mn5  1  0.50000000  0.50000000  0.91777000  1.0
  Ge  Ge6  1  0.00000000  0.00000000  0.91777000  1.0
  Ge  Ge7  1  0.00000000  0.50000000  0.91777000  1.0
  Ge  Ge8  1  0.50000000  0.00000000  0.02741000  1.0
  Ge  Ge9  1  0.50000000  0.50000000  0.02741000  1.0
  C  C10  1  0.00000000  0.00000000  0.83840000  1.0
  O  O11  1  0.00000000  0.00000000  0.79035000  1.0
