data_image0
_chemical_formula_structural       Mg4In4Ag8
_chemical_formula_sum              "Mg4 In4 Ag8"
_cell_length_a       6.85111
_cell_length_b       6.85111
_cell_length_c       25.1383
_cell_angle_alpha    90
_cell_angle_beta     90
_cell_angle_gamma    90

_space_group_name_H-M_alt    "P 1"
_space_group_IT_number       1

loop_
  _space_group_symop_operation_xyz
  'x, y, z'

loop_
  _atom_site_type_symbol
  _atom_site_label
  _atom_site_symmetry_multiplicity
  _atom_site_fract_x
  _atom_site_fract_y
  _atom_site_fract_z
  _atom_site_occupancy
  Mg  Mg1       1.0  0.99997  0.99987  0.09752  1.0000
  Mg  Mg2       1.0  0.50018  0.50021  0.09769  1.0000
  Mg  Mg3       1.0  0.50000  0.00000  0.96593  1.0000
  Mg  Mg4       1.0  0.00000  0.50000  0.96593  1.0000
  In  In1       1.0  0.00000  0.00000  0.96593  1.0000
  In  In2       1.0  0.50044  0.99963  0.11389  1.0000
  In  In3       1.0  0.99997  0.50036  0.11499  1.0000
  In  In4       1.0  0.50000  0.50000  0.96593  1.0000
  Ag  Ag1       1.0  0.24984  0.25035  0.03769  1.0000
  Ag  Ag2       1.0  0.75000  0.75000  0.89780  1.0000
  Ag  Ag3       1.0  0.74917  0.25020  0.03788  1.0000
  Ag  Ag4       1.0  0.25000  0.75000  0.89780  1.0000
  Ag  Ag5       1.0  0.74939  0.74932  0.03799  1.0000
  Ag  Ag6       1.0  0.25000  0.25000  0.89780  1.0000
  Ag  Ag7       1.0  0.25102  0.74985  0.03790  1.0000
  Ag  Ag8       1.0  0.75000  0.25000  0.89780  1.0000
