# generated using pymatgen
data_MgInAg2
_symmetry_space_group_name_H-M   P1
_cell_length_a   6.85111000
_cell_length_b   6.85111000
_cell_length_c   25.13830000
_cell_angle_alpha   90.00000000
_cell_angle_beta   90.00000000
_cell_angle_gamma   90.00000000
_symmetry_Int_Tables_number   1
_chemical_formula_structural   MgInAg2
_chemical_formula_sum   'Mg4 In4 Ag8'
_cell_volume   1179.93419085
_cell_formula_units_Z   4
loop_
 _symmetry_equiv_pos_site_id
 _symmetry_equiv_pos_as_xyz
  1  'x, y, z'
loop_
 _atom_site_type_symbol
 _atom_site_label
 _atom_site_symmetry_multiplicity
 _atom_site_fract_x
 _atom_site_fract_y
 _atom_site_fract_z
 _atom_site_occupancy
  Mg  Mg0  1  0.00000000  0.50000000  0.96593000  1.0
  Mg  Mg1  1  0.50000000  0.00000000  0.96593000  1.0
  Mg  Mg2  1  0.50018000  0.50021000  0.09769000  1.0
  Mg  Mg3  1  0.99997000  0.99987000  0.09752000  1.0
  In  In4  1  0.00000000  0.00000000  0.96593000  1.0
  In  In5  1  0.50000000  0.50000000  0.96593000  1.0
  In  In6  1  0.50044000  0.99963000  0.11389000  1.0
  In  In7  1  0.99997000  0.50036000  0.11499000  1.0
  Ag  Ag8  1  0.24984000  0.25035000  0.03769000  1.0
  Ag  Ag9  1  0.25000000  0.25000000  0.89780000  1.0
  Ag  Ag10  1  0.25000000  0.75000000  0.89780000  1.0
  Ag  Ag11  1  0.25102000  0.74985000  0.03790000  1.0
  Ag  Ag12  1  0.74917000  0.25020000  0.03788000  1.0
  Ag  Ag13  1  0.74939000  0.74932000  0.03799000  1.0
  Ag  Ag14  1  0.75000000  0.25000000  0.89780000  1.0
  Ag  Ag15  1  0.75000000  0.75000000  0.89780000  1.0
