# generated using pymatgen
data_Zr8Ni16Sn8C
_symmetry_space_group_name_H-M   Pm
_cell_length_a   6.34024000
_cell_length_b   8.96645000
_cell_length_c   26.72480000
_cell_angle_alpha   90.00000000
_cell_angle_beta   90.00000000
_cell_angle_gamma   90.00000000
_symmetry_Int_Tables_number   6
_chemical_formula_structural   Zr8Ni16Sn8C
_chemical_formula_sum   'Zr8 Ni16 Sn8 C1'
_cell_volume   1519.29004635
_cell_formula_units_Z   1
loop_
 _symmetry_equiv_pos_site_id
 _symmetry_equiv_pos_as_xyz
  1  'x, y, z'
  2  'x, -y, z'
loop_
 _atom_site_type_symbol
 _atom_site_label
 _atom_site_symmetry_multiplicity
 _atom_site_fract_x
 _atom_site_fract_y
 _atom_site_fract_z
 _atom_site_occupancy
  Zr  Zr0  2  0.00000000  0.25003000  0.87418000  1.0
  Zr  Zr1  2  0.99018000  0.25629000  0.04076000  1.0
  Zr  Zr2  1  0.49158000  0.50000000  0.12534000  1.0
  Zr  Zr3  1  0.50000000  0.00000000  0.95806000  1.0
  Zr  Zr4  1  0.50000000  0.50000000  0.95806000  1.0
  Zr  Zr5  1  0.53694000  0.00000000  0.11951000  1.0
  Ni  Ni6  2  0.18669000  0.21643000  0.12329000  1.0
  Ni  Ni7  2  0.25000000  0.25003000  0.95806000  1.0
  Ni  Ni8  2  0.75000000  0.24997000  0.95806000  1.0
  Ni  Ni9  2  0.75437000  0.26003000  0.12042000  1.0
  Ni  Ni10  1  0.19531000  0.00000000  0.05506000  1.0
  Ni  Ni11  1  0.25000000  0.00000000  0.87418000  1.0
  Ni  Ni12  1  0.25000000  0.50000000  0.87418000  1.0
  Ni  Ni13  1  0.26777000  0.50000000  0.04231000  1.0
  Ni  Ni14  1  0.72643000  0.50000000  0.04662000  1.0
  Ni  Ni15  1  0.75000000  0.00000000  0.87418000  1.0
  Ni  Ni16  1  0.75000000  0.50000000  0.87418000  1.0
  Ni  Ni17  1  0.76125000  0.00000000  0.03859000  1.0
  Sn  Sn18  2  0.48856000  0.24492000  0.04173000  1.0
  Sn  Sn19  2  0.50000000  0.25003000  0.87418000  1.0
  Sn  Sn20  1  0.00000000  0.00000000  0.95806000  1.0
  Sn  Sn21  1  0.00000000  0.50000000  0.95806000  1.0
  Sn  Sn22  1  0.01026000  0.50000000  0.13216000  1.0
  Sn  Sn23  1  0.93002000  0.00000000  0.17694000  1.0
  C  C24  1  0.21191000  0.00000000  0.13093000  1.0
