# generated using pymatgen
data_Ti8In8Au16C
_symmetry_space_group_name_H-M   Pm
_cell_length_a   9.50495000
_cell_length_b   6.72102000
_cell_length_c   27.12870000
_cell_angle_alpha   90.00000000
_cell_angle_beta   90.00000000
_cell_angle_gamma   90.00000000
_symmetry_Int_Tables_number   6
_chemical_formula_structural   Ti8In8Au16C
_chemical_formula_sum   'Ti8 In8 Au16 C1'
_cell_volume   1733.06163115
_cell_formula_units_Z   1
loop_
 _symmetry_equiv_pos_site_id
 _symmetry_equiv_pos_as_xyz
  1  'x, y, z'
  2  'x, -y, z'
loop_
 _atom_site_type_symbol
 _atom_site_label
 _atom_site_symmetry_multiplicity
 _atom_site_fract_x
 _atom_site_fract_y
 _atom_site_fract_z
 _atom_site_occupancy
  Ti  Ti0  1  0.00000000  0.00000000  0.86861000  1.0
  Ti  Ti1  1  0.21378000  0.50000000  0.12203000  1.0
  Ti  Ti2  1  0.25000000  0.50000000  0.95620000  1.0
  Ti  Ti3  1  0.49999000  0.00000000  0.04679000  1.0
  Ti  Ti4  1  0.50000000  0.00000000  0.86861000  1.0
  Ti  Ti5  1  0.75000000  0.50000000  0.95620000  1.0
  Ti  Ti6  1  0.78621000  0.50000000  0.12200000  1.0
  Ti  Ti7  1  0.99999000  0.00000000  0.04630000  1.0
  In  In8  1  0.00000000  0.50000000  0.86861000  1.0
  In  In9  1  0.00001000  0.50000000  0.04082000  1.0
  In  In10  1  0.25000000  0.00000000  0.95620000  1.0
  In  In11  1  0.27355000  0.00000000  0.14501000  1.0
  In  In12  1  0.50000000  0.50000000  0.86861000  1.0
  In  In13  1  0.50001000  0.50000000  0.04108000  1.0
  In  In14  1  0.72651000  0.00000000  0.14507000  1.0
  In  In15  1  0.75000000  0.00000000  0.95620000  1.0
  Au  Au16  2  0.00000000  0.25000000  0.95620000  1.0
  Au  Au17  2  0.00008000  0.19577000  0.14837000  1.0
  Au  Au18  2  0.24939000  0.23428000  0.04607000  1.0
  Au  Au19  2  0.25000000  0.25000000  0.86861000  1.0
  Au  Au20  2  0.49996000  0.28386000  0.13285000  1.0
  Au  Au21  2  0.50000000  0.25000000  0.95620000  1.0
  Au  Au22  2  0.75000000  0.25000000  0.86861000  1.0
  Au  Au23  2  0.75059000  0.23421000  0.04608000  1.0
  C  C24  1  0.99999000  0.50000000  0.13019000  1.0
