# generated using pymatgen
data_Li8Ag4Sb4C
_symmetry_space_group_name_H-M   Cm
_cell_length_a   9.47493388
_cell_length_b   9.47493388
_cell_length_c   25.02480000
_cell_angle_alpha   90.00000000
_cell_angle_beta   90.00000000
_cell_angle_gamma   90.00000000
_symmetry_Int_Tables_number   8
_chemical_formula_structural   Li8Ag4Sb4C
_chemical_formula_sum   'Li16 Ag8 Sb8 C2'
_cell_volume   2246.58570663
_cell_formula_units_Z   2
loop_
 _symmetry_equiv_pos_site_id
 _symmetry_equiv_pos_as_xyz
  1  'x, y, z'
  2  'x, -y, z'
  3  'x+1/2, y+1/2, z'
  4  'x+1/2, -y+1/2, z'
loop_
 _atom_site_type_symbol
 _atom_site_label
 _atom_site_symmetry_multiplicity
 _atom_site_fract_x
 _atom_site_fract_y
 _atom_site_fract_z
 _atom_site_occupancy
  Li  Li0  4  0.00000000  0.25000000  0.89960000  1.0
  Li  Li1  4  0.25017000  0.21939000  0.10670000  1.0
  Li  Li2  2  0.00000000  0.00000000  0.96653000  1.0
  Li  Li3  2  0.00000000  0.50000000  0.96653000  1.0
  Li  Li4  2  0.24949000  0.50000000  0.03227000  1.0
  Li  Li5  2  0.25058000  0.00000000  0.03131000  1.0
  Ag  Ag6  4  0.00014000  0.24969000  0.03801000  1.0
  Ag  Ag7  2  0.25000000  0.50000000  0.89960000  1.0
  Ag  Ag8  2  0.25000000  0.00000000  0.89960000  1.0
  Sb  Sb9  4  0.25000000  0.25000000  0.96653000  1.0
  Sb  Sb10  2  0.03120000  0.00000000  0.10810000  1.0
  Sb  Sb11  2  0.46985000  0.00000000  0.10803000  1.0
  C  C12  2  0.25061000  0.00000000  0.12108000  1.0
