# generated using pymatgen
data_Nb8Co16Sn8C
_symmetry_space_group_name_H-M   Pm
_cell_length_a   6.19479000
_cell_length_b   8.76076000
_cell_length_c   26.57060000
_cell_angle_alpha   90.00000000
_cell_angle_beta   90.00000000
_cell_angle_gamma   90.00000000
_symmetry_Int_Tables_number   6
_chemical_formula_structural   Nb8Co16Sn8C
_chemical_formula_sum   'Nb8 Co16 Sn8 C1'
_cell_volume   1442.01485110
_cell_formula_units_Z   1
loop_
 _symmetry_equiv_pos_site_id
 _symmetry_equiv_pos_as_xyz
  1  'x, y, z'
  2  'x, -y, z'
loop_
 _atom_site_type_symbol
 _atom_site_label
 _atom_site_symmetry_multiplicity
 _atom_site_fract_x
 _atom_site_fract_y
 _atom_site_fract_z
 _atom_site_occupancy
  Nb  Nb0  2  0.00000000  0.24999000  0.87636000  1.0
  Nb  Nb1  2  0.00050000  0.24996000  0.04584000  1.0
  Nb  Nb2  1  0.50000000  0.00000000  0.95879000  1.0
  Nb  Nb3  1  0.50000000  0.50000000  0.95879000  1.0
  Nb  Nb4  1  0.50492000  0.50000000  0.12137000  1.0
  Nb  Nb5  1  0.52530000  0.00000000  0.11776000  1.0
  Co  Co6  2  0.23290000  0.21166000  0.12071000  1.0
  Co  Co7  2  0.25000000  0.24999000  0.95879000  1.0
  Co  Co8  2  0.74704000  0.25796000  0.11834000  1.0
  Co  Co9  2  0.75000000  0.25001000  0.95879000  1.0
  Co  Co10  1  0.24246000  0.00000000  0.04126000  1.0
  Co  Co11  1  0.25000000  0.00000000  0.87636000  1.0
  Co  Co12  1  0.25000000  0.50000000  0.87636000  1.0
  Co  Co13  1  0.25548000  0.50000000  0.04279000  1.0
  Co  Co14  1  0.75000000  0.00000000  0.87636000  1.0
  Co  Co15  1  0.75000000  0.50000000  0.87636000  1.0
  Co  Co16  1  0.75503000  0.50000000  0.04480000  1.0
  Co  Co17  1  0.77741000  0.00000000  0.04112000  1.0
  Sn  Sn18  2  0.49743000  0.25005000  0.04118000  1.0
  Sn  Sn19  2  0.50000000  0.24999000  0.87636000  1.0
  Sn  Sn20  1  0.00000000  0.00000000  0.95879000  1.0
  Sn  Sn21  1  0.00000000  0.50000000  0.95879000  1.0
  Sn  Sn22  1  0.01889000  0.50000000  0.13497000  1.0
  Sn  Sn23  1  0.90300000  0.00000000  0.17013000  1.0
  C  C24  1  0.23496000  0.00000000  0.14966000  1.0
