# generated using pymatgen
data_Mn8Ga8Co16C
_symmetry_space_group_name_H-M   'P 1'
_cell_length_a   8.10855000
_cell_length_b   5.73361000
_cell_length_c   26.08140000
_cell_angle_alpha   90.00000000
_cell_angle_beta   90.00000000
_cell_angle_gamma   90.00000000
_symmetry_Int_Tables_number   1
_chemical_formula_structural   Mn8Ga8Co16C
_chemical_formula_sum   'Mn8 Ga8 Co16 C1'
_cell_volume   1212.55723634
_cell_formula_units_Z   1
loop_
 _symmetry_equiv_pos_site_id
 _symmetry_equiv_pos_as_xyz
  1  'x, y, z'
loop_
 _atom_site_type_symbol
 _atom_site_label
 _atom_site_symmetry_multiplicity
 _atom_site_fract_x
 _atom_site_fract_y
 _atom_site_fract_z
 _atom_site_occupancy
  Mn  Mn0  1  0.75001000  0.00000000  0.11659000  1.0
  Mn  Mn1  1  0.00000000  0.50000000  0.03886000  1.0
  Mn  Mn2  1  0.50000000  0.50000000  0.03886000  1.0
  Mn  Mn3  1  0.24999000  0.00000000  0.11659000  1.0
  Mn  Mn4  1  0.25352000  0.99536000  0.96220000  1.0
  Mn  Mn5  1  0.50000000  0.48866000  0.88079000  1.0
  Mn  Mn6  1  0.00000000  0.55307000  0.88533000  1.0
  Mn  Mn7  1  0.74648000  0.99536000  0.96220000  1.0
  Ga  Ga8  1  0.50000000  0.00000000  0.03886000  1.0
  Ga  Ga9  1  0.75001000  0.50000000  0.11659000  1.0
  Ga  Ga10  1  0.00000000  0.00000000  0.03886000  1.0
  Ga  Ga11  1  0.24999000  0.50000000  0.11659000  1.0
  Ga  Ga12  1  0.00000000  0.93050000  0.84609000  1.0
  Ga  Ga13  1  0.24889000  0.49798000  0.96040000  1.0
  Ga  Ga14  1  0.50000000  0.00909000  0.87958000  1.0
  Ga  Ga15  1  0.75111000  0.49798000  0.96040000  1.0
  Co  Co16  1  0.75001000  0.25000000  0.03886000  1.0
  Co  Co17  1  0.25001000  0.75000000  0.03886000  1.0
  Co  Co18  1  0.74999000  0.75000000  0.03886000  1.0
  Co  Co19  1  0.24999000  0.25000000  0.03886000  1.0
  Co  Co20  1  0.50000000  0.75000000  0.11659000  1.0
  Co  Co21  1  0.00000000  0.25000000  0.11659000  1.0
  Co  Co22  1  0.50000000  0.25000000  0.11659000  1.0
  Co  Co23  1  0.00000000  0.75000000  0.11659000  1.0
  Co  Co24  1  0.22942000  0.21901000  0.88398000  1.0
  Co  Co25  1  0.74592000  0.76362000  0.88420000  1.0
  Co  Co26  1  0.25408000  0.76362000  0.88420000  1.0
  Co  Co27  1  0.77058000  0.21901000  0.88398000  1.0
  Co  Co28  1  0.00000000  0.76045000  0.96095000  1.0
  Co  Co29  1  0.50000000  0.24856000  0.95997000  1.0
  Co  Co30  1  0.00000000  0.24005000  0.95513000  1.0
  Co  Co31  1  0.50000000  0.74531000  0.95932000  1.0
  C  C32  1  0.00000000  0.24342000  0.87776000  1.0
