# generated using pymatgen
data_Mn8Ga8Co16C
_symmetry_space_group_name_H-M   Pm
_cell_length_a   5.73361000
_cell_length_b   8.10855000
_cell_length_c   26.08140000
_cell_angle_alpha   90.00000000
_cell_angle_beta   90.00000000
_cell_angle_gamma   90.00000000
_symmetry_Int_Tables_number   6
_chemical_formula_structural   Mn8Ga8Co16C
_chemical_formula_sum   'Mn8 Ga8 Co16 C1'
_cell_volume   1212.55723634
_cell_formula_units_Z   1
loop_
 _symmetry_equiv_pos_site_id
 _symmetry_equiv_pos_as_xyz
  1  'x, y, z'
  2  'x, -y, z'
loop_
 _atom_site_type_symbol
 _atom_site_label
 _atom_site_symmetry_multiplicity
 _atom_site_fract_x
 _atom_site_fract_y
 _atom_site_fract_z
 _atom_site_occupancy
  Mn  Mn0  2  0.00000000  0.24999000  0.88341000  1.0
  Mn  Mn1  2  0.99536000  0.25352000  0.03780000  1.0
  Mn  Mn2  1  0.48866000  0.50000000  0.11921000  1.0
  Mn  Mn3  1  0.50000000  0.00000000  0.96114000  1.0
  Mn  Mn4  1  0.50000000  0.50000000  0.96114000  1.0
  Mn  Mn5  1  0.55307000  0.00000000  0.11467000  1.0
  Ga  Ga6  2  0.49798000  0.24889000  0.03960000  1.0
  Ga  Ga7  2  0.50000000  0.24999000  0.88341000  1.0
  Ga  Ga8  1  0.00000000  0.00000000  0.96114000  1.0
  Ga  Ga9  1  0.00000000  0.50000000  0.96114000  1.0
  Ga  Ga10  1  0.00909000  0.50000000  0.12042000  1.0
  Ga  Ga11  1  0.93050000  0.00000000  0.15391000  1.0
  Co  Co12  2  0.21901000  0.22942000  0.11602000  1.0
  Co  Co13  2  0.25000000  0.24999000  0.96114000  1.0
  Co  Co14  2  0.75000000  0.25001000  0.96114000  1.0
  Co  Co15  2  0.76362000  0.25408000  0.11580000  1.0
  Co  Co16  1  0.24005000  0.00000000  0.04487000  1.0
  Co  Co17  1  0.24856000  0.50000000  0.04003000  1.0
  Co  Co18  1  0.25000000  0.00000000  0.88341000  1.0
  Co  Co19  1  0.25000000  0.50000000  0.88341000  1.0
  Co  Co20  1  0.74531000  0.50000000  0.04068000  1.0
  Co  Co21  1  0.75000000  0.00000000  0.88341000  1.0
  Co  Co22  1  0.75000000  0.50000000  0.88341000  1.0
  Co  Co23  1  0.76045000  0.00000000  0.03905000  1.0
  C  C24  1  0.24342000  0.00000000  0.12224000  1.0
