# generated using pymatgen
data_Ti16Rh16CO
_symmetry_space_group_name_H-M   Pmm2
_cell_length_a   6.91892000
_cell_length_b   8.39027000
_cell_length_c   26.29270000
_cell_angle_alpha   90.00000000
_cell_angle_beta   90.00000000
_cell_angle_gamma   90.00000000
_symmetry_Int_Tables_number   25
_chemical_formula_structural   Ti16Rh16CO
_chemical_formula_sum   'Ti16 Rh16 C1 O1'
_cell_volume   1526.33348496
_cell_formula_units_Z   1
loop_
 _symmetry_equiv_pos_site_id
 _symmetry_equiv_pos_as_xyz
  1  'x, y, z'
  2  '-x, -y, z'
  3  '-x, y, z'
  4  'x, -y, z'
loop_
 _atom_site_type_symbol
 _atom_site_label
 _atom_site_symmetry_multiplicity
 _atom_site_fract_x
 _atom_site_fract_y
 _atom_site_fract_z
 _atom_site_occupancy
  Ti  Ti0  2  0.00000000  0.25000000  0.11967000  1.0
  Ti  Ti1  2  0.00000000  0.25000000  0.96011000  1.0
  Ti  Ti2  2  0.50000000  0.25000000  0.11967000  1.0
  Ti  Ti3  2  0.50000000  0.25000000  0.96011000  1.0
  Ti  Ti4  1  0.00000000  0.00000000  0.03989000  1.0
  Ti  Ti5  1  0.00000000  0.00000000  0.88033000  1.0
  Ti  Ti6  1  0.00000000  0.50000000  0.03989000  1.0
  Ti  Ti7  1  0.00000000  0.50000000  0.88033000  1.0
  Ti  Ti8  1  0.50000000  0.00000000  0.03989000  1.0
  Ti  Ti9  1  0.50000000  0.00000000  0.88033000  1.0
  Ti  Ti10  1  0.50000000  0.50000000  0.03989000  1.0
  Ti  Ti11  1  0.50000000  0.50000000  0.88033000  1.0
  Rh  Rh12  4  0.25000000  0.25000000  0.03989000  1.0
  Rh  Rh13  4  0.25000000  0.25000000  0.88033000  1.0
  Rh  Rh14  2  0.25000000  0.00000000  0.11967000  1.0
  Rh  Rh15  2  0.25000000  0.00000000  0.96011000  1.0
  Rh  Rh16  2  0.25000000  0.50000000  0.11967000  1.0
  Rh  Rh17  2  0.25000000  0.50000000  0.96011000  1.0
  C  C18  1  0.00000000  0.00000000  0.80807000  1.0
  O  O19  1  0.00000000  0.00000000  0.76433000  1.0
