# generated using pymatgen
data_ZrCo2Sn
_symmetry_space_group_name_H-M   'P 1'
_cell_length_a   4.46407000
_cell_length_b   6.31315000
_cell_length_c   26.69610000
_cell_angle_alpha   90.00000000
_cell_angle_beta   90.00000000
_cell_angle_gamma   90.00000000
_symmetry_Int_Tables_number   1
_chemical_formula_structural   ZrCo2Sn
_chemical_formula_sum   'Zr4 Co8 Sn4'
_cell_volume   752.35866086
_cell_formula_units_Z   4
loop_
 _symmetry_equiv_pos_site_id
 _symmetry_equiv_pos_as_xyz
  1  'x, y, z'
loop_
 _atom_site_type_symbol
 _atom_site_label
 _atom_site_symmetry_multiplicity
 _atom_site_fract_x
 _atom_site_fract_y
 _atom_site_fract_z
 _atom_site_occupancy
  Zr  Zr0  1  0.00000000  0.00000000  0.12541000  1.0
  Zr  Zr1  1  0.50000000  0.50000000  0.04180000  1.0
  Zr  Zr2  1  0.00000000  0.00000000  0.95821000  1.0
  Zr  Zr3  1  0.50000000  0.50000000  0.87453000  1.0
  Co  Co4  1  0.00000000  0.75000000  0.04180000  1.0
  Co  Co5  1  0.00000000  0.25000000  0.04180000  1.0
  Co  Co6  1  0.50000000  0.25000000  0.12541000  1.0
  Co  Co7  1  0.50000000  0.75000000  0.12541000  1.0
  Co  Co8  1  0.00000000  0.76235000  0.88156000  1.0
  Co  Co9  1  0.00000000  0.23765000  0.88156000  1.0
  Co  Co10  1  0.50000000  0.25573000  0.95587500  1.0
  Co  Co11  1  0.50000000  0.74427000  0.95587500  1.0
  Sn  Sn12  1  0.50000000  0.00000000  0.04180000  1.0
  Sn  Sn13  1  0.00000000  0.50000000  0.12541000  1.0
  Sn  Sn14  1  0.50000000  0.00000000  0.86813000  1.0
  Sn  Sn15  1  0.00000000  0.50000000  0.95833000  1.0
