# generated using pymatgen
data_Li4In8Ir4C
_symmetry_space_group_name_H-M   Cm
_cell_length_a   9.30439387
_cell_length_b   9.30439387
_cell_length_c   24.93440000
_cell_angle_alpha   90.00000000
_cell_angle_beta   90.00000000
_cell_angle_gamma   90.00000000
_symmetry_Int_Tables_number   8
_chemical_formula_structural   Li4In8Ir4C
_chemical_formula_sum   'Li8 In16 Ir8 C2'
_cell_volume   2158.61452551
_cell_formula_units_Z   2
loop_
 _symmetry_equiv_pos_site_id
 _symmetry_equiv_pos_as_xyz
  1  'x, y, z'
  2  'x, -y, z'
  3  'x+1/2, y+1/2, z'
  4  'x+1/2, -y+1/2, z'
loop_
 _atom_site_type_symbol
 _atom_site_label
 _atom_site_symmetry_multiplicity
 _atom_site_fract_x
 _atom_site_fract_y
 _atom_site_fract_z
 _atom_site_occupancy
  Li  Li0  4  0.24995000  0.25005000  0.03495000  1.0
  Li  Li1  2  0.49995500  0.00000000  0.90105000  1.0
  Li  Li2  2  0.49995500  0.50000000  0.90105000  1.0
  In  In3  4  0.49995500  0.24995500  0.96702000  1.0
  In  In4  4  0.49996000  0.24344000  0.11842000  1.0
  In  In5  2  0.24377500  0.50000000  0.11884000  1.0
  In  In6  2  0.24995500  0.00000000  0.96702000  1.0
  In  In7  2  0.24995500  0.50000000  0.96702000  1.0
  In  In8  2  0.25616000  0.00000000  0.11883000  1.0
  Ir  Ir9  4  0.24995500  0.25004500  0.90105000  1.0
  Ir  Ir10  2  0.49995000  0.00000000  0.03428000  1.0
  Ir  Ir11  2  0.49995500  0.50000000  0.02321000  1.0
  C  C12  2  0.00001000  0.00000000  0.09900000  1.0
