# generated using pymatgen
data_Li4Y4In4Pb4C
_symmetry_space_group_name_H-M   Pm
_cell_length_a   6.48172000
_cell_length_b   9.42336000
_cell_length_c   24.85820000
_cell_angle_alpha   90.00000000
_cell_angle_beta   90.00000000
_cell_angle_gamma   90.00000000
_symmetry_Int_Tables_number   6
_chemical_formula_structural   Li4Y4In4Pb4C
_chemical_formula_sum   'Li4 Y4 In4 Pb4 C1'
_cell_volume   1518.32843990
_cell_formula_units_Z   1
loop_
 _symmetry_equiv_pos_site_id
 _symmetry_equiv_pos_as_xyz
  1  'x, y, z'
  2  'x, -y, z'
loop_
 _atom_site_type_symbol
 _atom_site_label
 _atom_site_symmetry_multiplicity
 _atom_site_fract_x
 _atom_site_fract_y
 _atom_site_fract_z
 _atom_site_occupancy
  Li  Li0  2  0.55872000  0.25523000  0.09660000  1.0
  Li  Li1  2  0.98213000  0.25001000  0.96743000  1.0
  Y  Y2  1  0.23270000  0.50000000  0.04005000  1.0
  Y  Y3  1  0.28287000  0.00000000  0.03432000  1.0
  Y  Y4  1  0.72319000  0.00000000  0.90228000  1.0
  Y  Y5  1  0.72319000  0.50000000  0.90228000  1.0
  In  In6  2  0.08079000  0.23829000  0.11458000  1.0
  In  In7  2  0.48213000  0.25001000  0.96743000  1.0
  Pb  Pb8  1  0.22319000  0.00000000  0.90228000  1.0
  Pb  Pb9  1  0.22319000  0.50000000  0.90228000  1.0
  Pb  Pb10  1  0.74507000  0.50000000  0.04245000  1.0
  Pb  Pb11  1  0.76558000  0.00000000  0.04353000  1.0
  C  C12  1  0.05863000  0.00000000  0.10455000  1.0
