data_image0
_chemical_formula_structural       Zr4Al12CO
_chemical_formula_sum              "Zr4 Al12 C1 O1"
_cell_length_a       8.19423
_cell_length_b       5.79419
_cell_length_c       24.3456
_cell_angle_alpha    90
_cell_angle_beta     90
_cell_angle_gamma    90

_space_group_name_H-M_alt    "P 1"
_space_group_IT_number       1

loop_
  _space_group_symop_operation_xyz
  'x, y, z'

loop_
  _atom_site_type_symbol
  _atom_site_label
  _atom_site_symmetry_multiplicity
  _atom_site_fract_x
  _atom_site_fract_y
  _atom_site_fract_z
  _atom_site_occupancy
  Zr  Zr1       1.0  0.00000  0.00000  0.91075  1.0000
  Zr  Zr2       1.0  0.99977  0.49868  0.02957  1.0000
  Zr  Zr3       1.0  0.50000  0.00000  0.91075  1.0000
  Zr  Zr4       1.0  0.50023  0.49869  0.02957  1.0000
  Al  Al1       1.0  0.00000  0.50000  0.91075  1.0000
  Al  Al2       1.0  0.25000  0.75000  0.97025  1.0000
  Al  Al3       1.0  0.25000  0.25000  0.97025  1.0000
  Al  Al4       1.0  0.00211  0.99878  0.03745  1.0000
  Al  Al5       1.0  0.25000  0.24437  0.08977  1.0000
  Al  Al6       1.0  0.25000  0.75265  0.08667  1.0000
  Al  Al7       1.0  0.50000  0.50000  0.91075  1.0000
  Al  Al8       1.0  0.75000  0.75000  0.97025  1.0000
  Al  Al9       1.0  0.75000  0.25000  0.97025  1.0000
  Al  Al10      1.0  0.49789  0.99878  0.03745  1.0000
  Al  Al11      1.0  0.75000  0.23700  0.08747  1.0000
  Al  Al12      1.0  0.75000  0.75906  0.08749  1.0000
  C   C1        1.0  0.25000  0.24329  0.17187  1.0000
  O   O1        1.0  0.25000  0.24151  0.21919  1.0000
