# generated using pymatgen
data_Zr4Al12CO
_symmetry_space_group_name_H-M   Pm
_cell_length_a   5.79419000
_cell_length_b   8.19423000
_cell_length_c   24.34560000
_cell_angle_alpha   90.00000000
_cell_angle_beta   90.00000000
_cell_angle_gamma   90.00000000
_symmetry_Int_Tables_number   6
_chemical_formula_structural   Zr4Al12CO
_chemical_formula_sum   'Zr4 Al12 C1 O1'
_cell_volume   1155.90292923
_cell_formula_units_Z   1
loop_
 _symmetry_equiv_pos_site_id
 _symmetry_equiv_pos_as_xyz
  1  'x, y, z'
  2  'x, -y, z'
loop_
 _atom_site_type_symbol
 _atom_site_label
 _atom_site_symmetry_multiplicity
 _atom_site_fract_x
 _atom_site_fract_y
 _atom_site_fract_z
 _atom_site_occupancy
  Zr  Zr0  2  0.00000000  0.25000000  0.08925000  1.0
  Zr  Zr1  2  0.50132000  0.24977000  0.97043000  1.0
  Al  Al2  2  0.00122000  0.25211000  0.96255000  1.0
  Al  Al3  2  0.50000000  0.25000000  0.08925000  1.0
  Al  Al4  1  0.24094000  0.00000000  0.91251000  1.0
  Al  Al5  1  0.24735000  0.50000000  0.91333000  1.0
  Al  Al6  1  0.25000000  0.00000000  0.02975000  1.0
  Al  Al7  1  0.25000000  0.50000000  0.02975000  1.0
  Al  Al8  1  0.75000000  0.00000000  0.02975000  1.0
  Al  Al9  1  0.75000000  0.50000000  0.02975000  1.0
  Al  Al10  1  0.75563000  0.50000000  0.91023000  1.0
  Al  Al11  1  0.76300000  0.00000000  0.91253000  1.0
  C  C12  1  0.75671000  0.50000000  0.82813000  1.0
  O  O13  1  0.75849000  0.50000000  0.78081000  1.0
