# generated using pymatgen
data_Li4Al4Fe4Pd4CO
_symmetry_space_group_name_H-M   Pm
_cell_length_a   5.15535000
_cell_length_b   8.84236000
_cell_length_c   23.55420000
_cell_angle_alpha   90.00000000
_cell_angle_beta   90.00000000
_cell_angle_gamma   90.00000000
_symmetry_Int_Tables_number   6
_chemical_formula_structural   Li4Al4Fe4Pd4CO
_chemical_formula_sum   'Li4 Al4 Fe4 Pd4 C1 O1'
_cell_volume   1073.72905668
_cell_formula_units_Z   1
loop_
 _symmetry_equiv_pos_site_id
 _symmetry_equiv_pos_as_xyz
  1  'x, y, z'
  2  'x, -y, z'
loop_
 _atom_site_type_symbol
 _atom_site_label
 _atom_site_symmetry_multiplicity
 _atom_site_fract_x
 _atom_site_fract_y
 _atom_site_fract_z
 _atom_site_occupancy
  Li  Li0  1  0.65157000  0.00000000  0.97485000  1.0
  Li  Li1  1  0.65157000  0.50000000  0.97485000  1.0
  Li  Li2  1  0.93526000  0.00000000  0.08142000  1.0
  Li  Li3  1  0.96536000  0.50000000  0.08072000  1.0
  Al  Al4  2  0.00000000  0.24999000  0.92455000  1.0
  Al  Al5  2  0.26646000  0.25118000  0.02682000  1.0
  Fe  Fe6  2  0.50000000  0.24999000  0.92455000  1.0
  Fe  Fe7  2  0.73568000  0.25147000  0.00502000  1.0
  Pd  Pd8  1  0.15157000  0.00000000  0.97485000  1.0
  Pd  Pd9  1  0.15157000  0.50000000  0.97485000  1.0
  Pd  Pd10  1  0.44189000  0.00000000  0.07558000  1.0
  Pd  Pd11  1  0.47529000  0.50000000  0.07081000  1.0
  C  C12  1  0.46226000  0.00000000  0.15771000  1.0
  O  O13  1  0.47112000  0.00000000  0.20670000  1.0
