# generated using pymatgen
data_Li8Ga4Pt4CO
_symmetry_space_group_name_H-M   'P 1'
_cell_length_a   6.10853000
_cell_length_b   6.10853000
_cell_length_c   24.58140000
_cell_angle_alpha   90.00000000
_cell_angle_beta   90.00000000
_cell_angle_gamma   90.00000000
_symmetry_Int_Tables_number   1
_chemical_formula_structural   Li8Ga4Pt4CO
_chemical_formula_sum   'Li8 Ga4 Pt4 C1 O1'
_cell_volume   917.23377054
_cell_formula_units_Z   1
loop_
 _symmetry_equiv_pos_site_id
 _symmetry_equiv_pos_as_xyz
  1  'x, y, z'
loop_
 _atom_site_type_symbol
 _atom_site_label
 _atom_site_symmetry_multiplicity
 _atom_site_fract_x
 _atom_site_fract_y
 _atom_site_fract_z
 _atom_site_occupancy
  Li  Li0  1  0.00211000  0.99789000  0.97317000  1
  Li  Li1  1  0.00000000  0.49999000  0.09319000  1
  Li  Li2  1  0.50001000  1.00000000  0.09319000  1
  Li  Li3  1  0.49849000  0.50151000  0.97337000  1
  Li  Li4  1  0.24974000  0.75026000  0.89627000  1
  Li  Li5  1  0.75000000  0.74999000  0.03106000  1
  Li  Li6  1  0.74890500  0.25109500  0.89953000  1
  Li  Li7  1  0.25001000  0.25000000  0.03106000  1
  Ga  Ga8  1  0.25000500  0.74999500  0.03106000  1
  Ga  Ga9  1  0.74935000  0.74986000  0.91358000  1
  Ga  Ga10  1  0.75000500  0.24999500  0.03106000  1
  Ga  Ga11  1  0.25014000  0.25065000  0.91358000  1
  Pt  Pt12  1  0.00000500  0.99999500  0.09319000  1
  Pt  Pt13  1  0.50000500  0.49999500  0.09319000  1
  Pt  Pt14  1  0.99877000  0.49916000  0.96852000  1
  Pt  Pt15  1  0.50084000  0.00123000  0.96852000  1
  C  C16  1  0.24915000  0.75085000  0.81138000  1
  O  O17  1  0.24907500  0.75092500  0.76489000  1
