# generated using pymatgen
data_Li8Ga4Pt4CO
_symmetry_space_group_name_H-M   Cm
_cell_length_a   8.63876597
_cell_length_b   8.63876597
_cell_length_c   24.58140000
_cell_angle_alpha   90.00000000
_cell_angle_beta   90.00000000
_cell_angle_gamma   90.00000000
_symmetry_Int_Tables_number   8
_chemical_formula_structural   Li8Ga4Pt4CO
_chemical_formula_sum   'Li16 Ga8 Pt8 C2 O2'
_cell_volume   1834.46754107
_cell_formula_units_Z   2
loop_
 _symmetry_equiv_pos_site_id
 _symmetry_equiv_pos_as_xyz
  1  'x, y, z'
  2  'x, -y, z'
  3  'x+1/2, y+1/2, z'
  4  'x+1/2, -y+1/2, z'
loop_
 _atom_site_type_symbol
 _atom_site_label
 _atom_site_symmetry_multiplicity
 _atom_site_fract_x
 _atom_site_fract_y
 _atom_site_fract_z
 _atom_site_occupancy
  Li  Li0  4  0.00000500  0.25000500  0.96894000  1.0
  Li  Li1  4  0.25000500  0.25000500  0.90681000  1.0
  Li  Li2  2  0.00211000  0.00000000  0.02683000  1.0
  Li  Li3  2  0.24890500  0.50000000  0.10047000  1.0
  Li  Li4  2  0.24974000  0.00000000  0.10373000  1.0
  Li  Li5  2  0.49849000  0.00000000  0.02663000  1.0
  Ga  Ga6  4  0.49974500  0.24960500  0.08642000  1.0
  Ga  Ga7  2  0.25000500  0.50000000  0.96894000  1.0
  Ga  Ga8  2  0.25000500  0.00000000  0.96894000  1.0
  Pt  Pt9  4  0.24980500  0.25103500  0.03148000  1.0
  Pt  Pt10  2  0.00000500  0.00000000  0.90681000  1.0
  Pt  Pt11  2  0.00000500  0.50000000  0.90681000  1.0
  C  C12  2  0.24915000  0.00000000  0.18862000  1.0
  O  O13  2  0.24907500  0.00000000  0.23511000  1.0
