# generated using pymatgen
data_Ga4Fe4Co8CO
_symmetry_space_group_name_H-M   'P 1'
_cell_length_a   5.74310000
_cell_length_b   5.74310000
_cell_length_c   24.30730000
_cell_angle_alpha   90.00000000
_cell_angle_beta   90.00000000
_cell_angle_gamma   90.00000000
_symmetry_Int_Tables_number   1
_chemical_formula_structural   Ga4Fe4Co8CO
_chemical_formula_sum   'Ga4 Fe4 Co8 C1 O1'
_cell_volume   801.73247927
_cell_formula_units_Z   1
loop_
 _symmetry_equiv_pos_site_id
 _symmetry_equiv_pos_as_xyz
  1  'x, y, z'
loop_
 _atom_site_type_symbol
 _atom_site_label
 _atom_site_symmetry_multiplicity
 _atom_site_fract_x
 _atom_site_fract_y
 _atom_site_fract_z
 _atom_site_occupancy
  Ga  Ga0  1  0.75000000  0.25000000  0.91140000  1
  Ga  Ga1  1  0.25000000  0.75000000  0.91140000  1
  Ga  Ga2  1  0.74905500  0.74905500  0.03177000  1
  Ga  Ga3  1  0.25094500  0.25094500  0.03177000  1
  Fe  Fe4  1  0.75462500  0.24537500  0.03282000  1
  Fe  Fe5  1  0.75000000  0.75000000  0.91140000  1
  Fe  Fe6  1  0.25000000  0.25000000  0.91140000  1
  Fe  Fe7  1  0.24537500  0.75462500  0.03282000  1
  Co  Co8  1  0.50000000  0.50000000  0.97047000  1
  Co  Co9  1  0.00000000  0.00000000  0.08800000  1
  Co  Co10  1  0.50000000  1.00000000  0.97047000  1
  Co  Co11  1  1.00000000  0.50000000  0.08864000  1
  Co  Co12  1  0.00000000  0.00000000  0.97047000  1
  Co  Co13  1  0.50000000  0.50000000  0.08749000  1
  Co  Co14  1  1.00000000  0.50000000  0.97047000  1
  Co  Co15  1  0.50000000  1.00000000  0.08864000  1
  C  C16  1  0.50000000  0.50000000  0.15930000  1
  O  O17  1  0.50000000  0.50000000  0.20710000  1
