# generated using pymatgen
data_Ga4Fe4Co8CO
_symmetry_space_group_name_H-M   Cmm2
_cell_length_a   8.12196991
_cell_length_b   8.12196991
_cell_length_c   24.30730000
_cell_angle_alpha   90.00000000
_cell_angle_beta   90.00000000
_cell_angle_gamma   90.00000000
_symmetry_Int_Tables_number   35
_chemical_formula_structural   Ga4Fe4Co8CO
_chemical_formula_sum   'Ga8 Fe8 Co16 C2 O2'
_cell_volume   1603.46495853
_cell_formula_units_Z   2
loop_
 _symmetry_equiv_pos_site_id
 _symmetry_equiv_pos_as_xyz
  1  'x, y, z'
  2  '-x, -y, z'
  3  '-x, y, z'
  4  'x, -y, z'
  5  'x+1/2, y+1/2, z'
  6  '-x+1/2, -y+1/2, z'
  7  '-x+1/2, y+1/2, z'
  8  'x+1/2, -y+1/2, z'
loop_
 _atom_site_type_symbol
 _atom_site_label
 _atom_site_symmetry_multiplicity
 _atom_site_fract_x
 _atom_site_fract_y
 _atom_site_fract_z
 _atom_site_occupancy
  Ga  Ga0  4  0.00000000  0.25000000  0.91140000  1.0
  Ga  Ga1  4  0.24905500  0.50000000  0.03177000  1.0
  Fe  Fe2  4  0.00000000  0.24537500  0.03282000  1.0
  Fe  Fe3  4  0.25000000  0.00000000  0.91140000  1.0
  Co  Co4  4  0.25000000  0.25000000  0.08864000  1.0
  Co  Co5  4  0.25000000  0.25000000  0.97047000  1.0
  Co  Co6  2  0.00000000  0.00000000  0.08800000  1.0
  Co  Co7  2  0.00000000  0.00000000  0.97047000  1.0
  Co  Co8  2  0.00000000  0.50000000  0.08749000  1.0
  Co  Co9  2  0.00000000  0.50000000  0.97047000  1.0
  C  C10  2  0.00000000  0.50000000  0.15930000  1.0
  O  O11  2  0.00000000  0.50000000  0.20710000  1.0
