# generated using pymatgen
data_ScInCuPd
_symmetry_space_group_name_H-M   Pm
_cell_length_a   6.53831000
_cell_length_b   4.62328000
_cell_length_c   26.93490000
_cell_angle_alpha   90.00000000
_cell_angle_beta   90.00000000
_cell_angle_gamma   90.00000000
_symmetry_Int_Tables_number   6
_chemical_formula_structural   ScInCuPd
_chemical_formula_sum   'Sc4 In4 Cu4 Pd4'
_cell_volume   814.19995083
_cell_formula_units_Z   4
loop_
 _symmetry_equiv_pos_site_id
 _symmetry_equiv_pos_as_xyz
  1  'x, y, z'
  2  'x, -y, z'
loop_
 _atom_site_type_symbol
 _atom_site_label
 _atom_site_symmetry_multiplicity
 _atom_site_fract_x
 _atom_site_fract_y
 _atom_site_fract_z
 _atom_site_occupancy
  Sc  Sc0  1  0.24665000  0.00000000  0.87175000  1.0
  Sc  Sc1  1  0.25000000  0.00000000  0.04291000  1.0
  Sc  Sc2  1  0.75000000  0.50000000  0.12873000  1.0
  Sc  Sc3  1  0.75403000  0.50000000  0.95577000  1.0
  In  In4  1  0.25000000  0.50000000  0.12873000  1.0
  In  In5  1  0.25099000  0.50000000  0.95734000  1.0
  In  In6  1  0.74605000  0.00000000  0.86472000  1.0
  In  In7  1  0.75000000  0.00000000  0.04291000  1.0
  Cu  Cu8  1  0.00000000  0.00000000  0.12873000  1.0
  Cu  Cu9  1  0.50000000  0.50000000  0.04291000  1.0
  Cu  Cu10  1  0.50156000  0.50000000  0.87340500  1.0
  Cu  Cu11  1  0.99987500  0.00000000  0.95579000  1.0
  Pd  Pd12  1  0.00000000  0.50000000  0.04291000  1.0
  Pd  Pd13  1  0.50000000  0.00000000  0.12873000  1.0
  Pd  Pd14  1  0.50155000  0.00000000  0.95509000  1.0
  Pd  Pd15  1  0.99867000  0.50000000  0.87305000  1.0
