# generated using pymatgen
data_Li8Nb8Al8Pd8C
_symmetry_space_group_name_H-M   Pm
_cell_length_a   6.26744000
_cell_length_b   8.86350000
_cell_length_c   26.64760000
_cell_angle_alpha   90.00000000
_cell_angle_beta   90.00000000
_cell_angle_gamma   90.00000000
_symmetry_Int_Tables_number   6
_chemical_formula_structural   Li8Nb8Al8Pd8C
_chemical_formula_sum   'Li8 Nb8 Al8 Pd8 C1'
_cell_volume   1480.31293734
_cell_formula_units_Z   1
loop_
 _symmetry_equiv_pos_site_id
 _symmetry_equiv_pos_as_xyz
  1  'x, y, z'
  2  'x, -y, z'
loop_
 _atom_site_type_symbol
 _atom_site_label
 _atom_site_symmetry_multiplicity
 _atom_site_fract_x
 _atom_site_fract_y
 _atom_site_fract_z
 _atom_site_occupancy
  Li  Li0  2  0.75000000  0.25000000  0.87527000  1.0
  Li  Li1  2  0.76426000  0.25024000  0.04457000  1.0
  Li  Li2  1  0.25000000  0.00000000  0.95842000  1.0
  Li  Li3  1  0.25000000  0.50000000  0.95842000  1.0
  Li  Li4  1  0.29371000  0.50000000  0.16227000  1.0
  Li  Li5  1  0.37523000  0.00000000  0.17429000  1.0
  Nb  Nb6  2  -0.00000000  0.25000000  0.95842000  1.0
  Nb  Nb7  2  0.05466000  0.21462000  0.12596000  1.0
  Nb  Nb8  1  0.48257000  0.00000000  0.04487000  1.0
  Nb  Nb9  1  0.49709000  0.50000000  0.04598000  1.0
  Nb  Nb10  1  0.50000000  0.00000000  0.87527000  1.0
  Nb  Nb11  1  0.50000000  0.50000000  0.87527000  1.0
  Al  Al12  2  0.50000000  0.25000000  0.95842000  1.0
  Al  Al13  2  0.51797000  0.25536000  0.12300000  1.0
  Al  Al14  1  -0.00000000  0.50000000  0.87527000  1.0
  Al  Al15  1  0.00000000  0.00000000  0.87527000  1.0
  Al  Al16  1  0.00224000  0.00000000  0.04026000  1.0
  Al  Al17  1  0.01236000  0.50000000  0.04409000  1.0
  Pd  Pd18  2  0.24986000  0.25197000  0.03727000  1.0
  Pd  Pd19  2  0.25000000  0.25000000  0.87527000  1.0
  Pd  Pd20  1  0.73735000  0.00000000  0.11701000  1.0
  Pd  Pd21  1  0.75000000  0.00000000  0.95842000  1.0
  Pd  Pd22  1  0.75000000  0.50000000  0.95842000  1.0
  Pd  Pd23  1  0.77953000  0.50000000  0.12071000  1.0
  C  C24  1  0.06329000  0.00000000  0.15148000  1.0
