# generated using pymatgen
data_Ca4Sn12CO
_symmetry_space_group_name_H-M   'P 1'
_cell_length_a   9.62927000
_cell_length_b   6.80892000
_cell_length_c   25.10670000
_cell_angle_alpha   90.00000000
_cell_angle_beta   90.00000000
_cell_angle_gamma   90.00000000
_symmetry_Int_Tables_number   1
_chemical_formula_structural   Ca4Sn12CO
_chemical_formula_sum   'Ca4 Sn12 C1 O1'
_cell_volume   1646.11900514
_cell_formula_units_Z   1
loop_
 _symmetry_equiv_pos_site_id
 _symmetry_equiv_pos_as_xyz
  1  'x, y, z'
loop_
 _atom_site_type_symbol
 _atom_site_label
 _atom_site_symmetry_multiplicity
 _atom_site_fract_x
 _atom_site_fract_y
 _atom_site_fract_z
 _atom_site_occupancy
  Ca  Ca0  1  0.75003000  0.00000000  0.89830000  1.0
  Ca  Ca1  1  0.74982000  0.49711000  0.03461000  1.0
  Ca  Ca2  1  0.24997000  0.00000000  0.89830000  1.0
  Ca  Ca3  1  0.25018000  0.49711000  0.03461000  1.0
  Sn  Sn4  1  0.75003000  0.50000000  0.89830000  1.0
  Sn  Sn5  1  0.50000000  0.25000000  0.96610000  1.0
  Sn  Sn6  1  0.50000000  0.75000000  0.96610000  1.0
  Sn  Sn7  1  0.75014000  0.99768000  0.03619000  1.0
  Sn  Sn8  1  0.50000000  0.77096000  0.09082000  1.0
  Sn  Sn9  1  0.50000000  0.22303000  0.09154000  1.0
  Sn  Sn10  1  0.24997000  0.50000000  0.89830000  1.0
  Sn  Sn11  1  0.00000000  0.25000000  0.96610000  1.0
  Sn  Sn12  1  0.00000000  0.75000000  0.96610000  1.0
  Sn  Sn13  1  0.24986000  0.99768000  0.03619000  1.0
  Sn  Sn14  1  0.00000000  0.77046000  0.09120000  1.0
  Sn  Sn15  1  0.00000000  0.22317000  0.09161000  1.0
  C  C16  1  0.50000000  0.82433000  0.23972000  1.0
  O  O17  1  0.50000000  0.72719000  0.27647000  1.0
