# generated using pymatgen
data_Ca4Sn12CO
_symmetry_space_group_name_H-M   Pm
_cell_length_a   6.80892000
_cell_length_b   9.62927000
_cell_length_c   25.10670000
_cell_angle_alpha   90.00000000
_cell_angle_beta   90.00000000
_cell_angle_gamma   90.00000000
_symmetry_Int_Tables_number   6
_chemical_formula_structural   Ca4Sn12CO
_chemical_formula_sum   'Ca4 Sn12 C1 O1'
_cell_volume   1646.11900514
_cell_formula_units_Z   1
loop_
 _symmetry_equiv_pos_site_id
 _symmetry_equiv_pos_as_xyz
  1  'x, y, z'
  2  'x, -y, z'
loop_
 _atom_site_type_symbol
 _atom_site_label
 _atom_site_symmetry_multiplicity
 _atom_site_fract_x
 _atom_site_fract_y
 _atom_site_fract_z
 _atom_site_occupancy
  Ca  Ca0  2  0.00000000  0.24997000  0.10170000  1.0
  Ca  Ca1  2  0.49711000  0.25018000  0.96539000  1.0
  Sn  Sn2  2  0.50000000  0.24997000  0.10170000  1.0
  Sn  Sn3  2  0.99768000  0.24986000  0.96381000  1.0
  Sn  Sn4  1  0.22303000  0.50000000  0.90846000  1.0
  Sn  Sn5  1  0.22317000  0.00000000  0.90839000  1.0
  Sn  Sn6  1  0.25000000  0.00000000  0.03390000  1.0
  Sn  Sn7  1  0.25000000  0.50000000  0.03390000  1.0
  Sn  Sn8  1  0.75000000  0.00000000  0.03390000  1.0
  Sn  Sn9  1  0.75000000  0.50000000  0.03390000  1.0
  Sn  Sn10  1  0.77046000  0.00000000  0.90880000  1.0
  Sn  Sn11  1  0.77096000  0.50000000  0.90918000  1.0
  C  C12  1  0.82433000  0.50000000  0.76028000  1.0
  O  O13  1  0.72719000  0.50000000  0.72353000  1.0
