# generated using pymatgen
data_Y4Pb12C
_symmetry_space_group_name_H-M   Pmm2
_cell_length_a   7.01086000
_cell_length_b   9.91485000
_cell_length_c   25.25810000
_cell_angle_alpha   90.00000000
_cell_angle_beta   90.00000000
_cell_angle_gamma   90.00000000
_symmetry_Int_Tables_number   25
_chemical_formula_structural   Y4Pb12C
_chemical_formula_sum   'Y4 Pb12 C1'
_cell_volume   1755.73158226
_cell_formula_units_Z   1
loop_
 _symmetry_equiv_pos_site_id
 _symmetry_equiv_pos_as_xyz
  1  'x, y, z'
  2  '-x, -y, z'
  3  '-x, y, z'
  4  'x, -y, z'
loop_
 _atom_site_type_symbol
 _atom_site_label
 _atom_site_symmetry_multiplicity
 _atom_site_fract_x
 _atom_site_fract_y
 _atom_site_fract_z
 _atom_site_occupancy
  Y  Y0  1  0.00000000  0.00000000  0.10409000  1.0
  Y  Y1  1  0.00000000  0.50000000  0.10409000  1.0
  Y  Y2  1  0.50000000  0.00000000  0.98037000  1.0
  Y  Y3  1  0.50000000  0.50000000  0.96772000  1.0
  Pb  Pb4  4  0.25000000  0.25000000  0.03470000  1.0
  Pb  Pb5  4  0.27030000  0.20364000  0.88863000  1.0
  Pb  Pb6  1  0.00000000  0.00000000  0.96627000  1.0
  Pb  Pb7  1  0.00000000  0.50000000  0.96312000  1.0
  Pb  Pb8  1  0.50000000  0.00000000  0.10409000  1.0
  Pb  Pb9  1  0.50000000  0.50000000  0.10409000  1.0
  C  C10  1  0.50000000  0.00000000  0.89207000  1.0
