# generated using pymatgen
data_Li8Al8In8Cu8CO
_symmetry_space_group_name_H-M   'P 1'
_cell_length_a   9.01514000
_cell_length_b   6.37467000
_cell_length_c   26.76140000
_cell_angle_alpha   90.00000000
_cell_angle_beta   90.00000000
_cell_angle_gamma   90.00000000
_symmetry_Int_Tables_number   1
_chemical_formula_structural   Li8Al8In8Cu8CO
_chemical_formula_sum   'Li8 Al8 In8 Cu8 C1 O1'
_cell_volume   1537.93865336
_cell_formula_units_Z   1
loop_
 _symmetry_equiv_pos_site_id
 _symmetry_equiv_pos_as_xyz
  1  'x, y, z'
loop_
 _atom_site_type_symbol
 _atom_site_label
 _atom_site_symmetry_multiplicity
 _atom_site_fract_x
 _atom_site_fract_y
 _atom_site_fract_z
 _atom_site_occupancy
  Li  Li0  1  0.00000000  0.75000000  0.04211000  1.0
  Li  Li1  1  0.50000000  0.75000000  0.04211000  1.0
  Li  Li2  1  0.25000000  0.25000000  0.12633000  1.0
  Li  Li3  1  0.75000000  0.25000000  0.12633000  1.0
  Li  Li4  1  0.50000000  0.68104000  0.83014000  1.0
  Li  Li5  1  0.00000000  0.71284000  0.84813000  1.0
  Li  Li6  1  0.74891000  0.22911000  0.95597000  1.0
  Li  Li7  1  0.25109000  0.22911000  0.95597000  1.0
  Al  Al8  1  0.00000000  0.00000000  0.12633000  1.0
  Al  Al9  1  0.50000000  1.00000000  0.12633000  1.0
  Al  Al10  1  0.75000000  0.50000000  0.04211000  1.0
  Al  Al11  1  0.25000000  0.50000000  0.04211000  1.0
  Al  Al12  1  0.50000000  0.97735000  0.95109000  1.0
  Al  Al13  1  0.00000000  0.97722000  0.94659000  1.0
  Al  Al14  1  0.26040000  0.48683000  0.87524000  1.0
  Al  Al15  1  0.73960000  0.48683000  0.87524000  1.0
  In  In16  1  0.25000000  0.00000000  0.04211000  1.0
  In  In17  1  0.75000000  0.00000000  0.04211000  1.0
  In  In18  1  0.50000000  0.50000000  0.12633000  1.0
  In  In19  1  0.00000000  0.50000000  0.12633000  1.0
  In  In20  1  0.73459000  0.97005000  0.86595000  1.0
  In  In21  1  0.26541000  0.97005000  0.86595000  1.0
  In  In22  1  0.00000000  0.49728000  0.95208000  1.0
  In  In23  1  0.50000000  0.50929000  0.95610000  1.0
  Cu  Cu24  1  0.00000000  0.25000000  0.04211000  1.0
  Cu  Cu25  1  0.50000000  0.25000000  0.04211000  1.0
  Cu  Cu26  1  0.25000000  0.75000000  0.12633000  1.0
  Cu  Cu27  1  0.75000000  0.75000000  0.12633000  1.0
  Cu  Cu28  1  0.50000000  0.25153000  0.87853000  1.0
  Cu  Cu29  1  0.00000000  0.24317000  0.87000000  1.0
  Cu  Cu30  1  0.75163000  0.75074000  0.96131000  1.0
  Cu  Cu31  1  0.24837000  0.75074000  0.96131000  1.0
  C  C32  1  0.00000000  0.25986000  0.79977000  1.0
  O  O33  1  0.00000000  0.27247000  0.75669000  1.0
