# generated using pymatgen
data_Li8Al8In8Cu8CO
_symmetry_space_group_name_H-M   Pm
_cell_length_a   6.37467000
_cell_length_b   9.01514000
_cell_length_c   26.76140000
_cell_angle_alpha   90.00000000
_cell_angle_beta   90.00000000
_cell_angle_gamma   90.00000000
_symmetry_Int_Tables_number   6
_chemical_formula_structural   Li8Al8In8Cu8CO
_chemical_formula_sum   'Li8 Al8 In8 Cu8 C1 O1'
_cell_volume   1537.93865336
_cell_formula_units_Z   1
loop_
 _symmetry_equiv_pos_site_id
 _symmetry_equiv_pos_as_xyz
  1  'x, y, z'
  2  'x, -y, z'
loop_
 _atom_site_type_symbol
 _atom_site_label
 _atom_site_symmetry_multiplicity
 _atom_site_fract_x
 _atom_site_fract_y
 _atom_site_fract_z
 _atom_site_occupancy
  Li  Li0  2  0.22911000  0.25109000  0.04403000  1.0
  Li  Li1  2  0.25000000  0.25000000  0.87367000  1.0
  Li  Li2  1  0.68104000  0.50000000  0.16986000  1.0
  Li  Li3  1  0.71284000  0.00000000  0.15187000  1.0
  Li  Li4  1  0.75000000  0.00000000  0.95789000  1.0
  Li  Li5  1  0.75000000  0.50000000  0.95789000  1.0
  Al  Al6  2  0.48683000  0.26040000  0.12476000  1.0
  Al  Al7  2  0.50000000  0.25000000  0.95789000  1.0
  Al  Al8  1  -0.00000000  0.50000000  0.87367000  1.0
  Al  Al9  1  0.00000000  0.00000000  0.87367000  1.0
  Al  Al10  1  0.97722000  0.00000000  0.05341000  1.0
  Al  Al11  1  0.97735000  0.50000000  0.04891000  1.0
  In  In12  2  0.00000000  0.25000000  0.95789000  1.0
  In  In13  2  0.97005000  0.26541000  0.13405000  1.0
  In  In14  1  0.49728000  0.00000000  0.04792000  1.0
  In  In15  1  0.50000000  0.00000000  0.87367000  1.0
  In  In16  1  0.50000000  0.50000000  0.87367000  1.0
  In  In17  1  0.50929000  0.50000000  0.04390000  1.0
  Cu  Cu18  2  0.75000000  0.25000000  0.87367000  1.0
  Cu  Cu19  2  0.75074000  0.24837000  0.03869000  1.0
  Cu  Cu20  1  0.24317000  0.00000000  0.13000000  1.0
  Cu  Cu21  1  0.25000000  0.00000000  0.95789000  1.0
  Cu  Cu22  1  0.25000000  0.50000000  0.95789000  1.0
  Cu  Cu23  1  0.25153000  0.50000000  0.12147000  1.0
  C  C24  1  0.25986000  0.00000000  0.20023000  1.0
  O  O25  1  0.27247000  0.00000000  0.24331000  1.0
