# generated using pymatgen
data_Li8Al8Co8Pd8CO
_symmetry_space_group_name_H-M   Pm
_cell_length_a   5.87254000
_cell_length_b   8.30502000
_cell_length_c   26.22880000
_cell_angle_alpha   90.00000000
_cell_angle_beta   90.00000000
_cell_angle_gamma   90.00000000
_symmetry_Int_Tables_number   6
_chemical_formula_structural   Li8Al8Co8Pd8CO
_chemical_formula_sum   'Li8 Al8 Co8 Pd8 C1 O1'
_cell_volume   1279.21954934
_cell_formula_units_Z   1
loop_
 _symmetry_equiv_pos_site_id
 _symmetry_equiv_pos_as_xyz
  1  'x, y, z'
  2  'x, -y, z'
loop_
 _atom_site_type_symbol
 _atom_site_label
 _atom_site_symmetry_multiplicity
 _atom_site_fract_x
 _atom_site_fract_y
 _atom_site_fract_z
 _atom_site_occupancy
  Li  Li0  2  -0.00000000  0.24999000  0.96042000  1.0
  Li  Li1  2  0.98937000  0.25466000  0.13424000  1.0
  Li  Li2  1  0.48845000  0.00000000  0.03951000  1.0
  Li  Li3  1  0.49443000  0.50000000  0.03707000  1.0
  Li  Li4  1  0.50000000  0.00000000  0.88126000  1.0
  Li  Li5  1  0.50000000  0.50000000  0.88126000  1.0
  Al  Al6  2  0.49854000  0.24993000  0.11655000  1.0
  Al  Al7  2  0.50000000  0.25001000  0.96042000  1.0
  Al  Al8  1  0.00000000  0.00000000  0.88126000  1.0
  Al  Al9  1  0.00000000  0.50000000  0.88126000  1.0
  Al  Al10  1  0.00212000  0.50000000  0.03842000  1.0
  Al  Al11  1  0.00942000  0.00000000  0.04003000  1.0
  Co  Co12  2  0.24389000  0.24849000  0.04085000  1.0
  Co  Co13  2  0.25000000  0.24999000  0.88126000  1.0
  Co  Co14  1  0.73336000  0.50000000  0.11273000  1.0
  Co  Co15  1  0.73617000  0.00000000  0.11338000  1.0
  Co  Co16  1  0.75000000  0.00000000  0.96042000  1.0
  Co  Co17  1  0.75000000  0.50000000  0.96042000  1.0
  Pd  Pd18  2  0.75000000  0.24999000  0.88126000  1.0
  Pd  Pd19  2  0.75528000  0.24811000  0.03954000  1.0
  Pd  Pd20  1  0.24269000  0.00000000  0.12544000  1.0
  Pd  Pd21  1  0.25000000  0.00000000  0.96042000  1.0
  Pd  Pd22  1  0.25000000  0.50000000  0.96042000  1.0
  Pd  Pd23  1  0.25180000  0.50000000  0.11602000  1.0
  C  C24  1  0.19534000  0.00000000  0.19906000  1.0
  O  O25  1  0.19014000  0.00000000  0.24308000  1.0
