# generated using pymatgen
data_Li4Y4Sn4Ge4C
_symmetry_space_group_name_H-M   Pm
_cell_length_a   6.38551000
_cell_length_b   8.52742000
_cell_length_c   24.76910000
_cell_angle_alpha   90.00000000
_cell_angle_beta   90.00000000
_cell_angle_gamma   90.00000000
_symmetry_Int_Tables_number   6
_chemical_formula_structural   Li4Y4Sn4Ge4C
_chemical_formula_sum   'Li4 Y4 Sn4 Ge4 C1'
_cell_volume   1348.72519246
_cell_formula_units_Z   1
loop_
 _symmetry_equiv_pos_site_id
 _symmetry_equiv_pos_as_xyz
  1  'x, y, z'
  2  'x, -y, z'
loop_
 _atom_site_type_symbol
 _atom_site_label
 _atom_site_symmetry_multiplicity
 _atom_site_fract_x
 _atom_site_fract_y
 _atom_site_fract_z
 _atom_site_occupancy
  Li  Li0  1  0.18150000  0.00000000  0.90373000  1.0
  Li  Li1  1  0.18150000  0.50000000  0.90373000  1.0
  Li  Li2  1  0.75971000  0.50000000  0.04189000  1.0
  Li  Li3  1  0.76024000  0.00000000  0.04836000  1.0
  Y  Y4  1  0.24892000  0.00000000  0.03342000  1.0
  Y  Y5  1  0.25089000  0.50000000  0.03521000  1.0
  Y  Y6  1  0.68150000  0.00000000  0.90373000  1.0
  Y  Y7  1  0.68150000  0.50000000  0.90373000  1.0
  Sn  Sn8  2  0.53688000  0.24336000  0.10770000  1.0
  Sn  Sn9  2  0.95433000  0.25000000  0.96791000  1.0
  Ge  Ge10  2  0.45433000  0.25000000  0.96791000  1.0
  Ge  Ge11  2  0.98662000  0.25430000  0.07951000  1.0
  C  C12  1  0.49090000  0.00000000  0.10087000  1.0
