data_image0
_chemical_formula_structural       Li8Cu4Sn4CO
_chemical_formula_sum              "Li8 Cu4 Sn4 C1 O1"
_cell_length_a       6.34973
_cell_length_b       6.34973
_cell_length_c       24.7623
_cell_angle_alpha    90
_cell_angle_beta     90
_cell_angle_gamma    90

_space_group_name_H-M_alt    "P 1"
_space_group_IT_number       1

loop_
  _space_group_symop_operation_xyz
  'x, y, z'

loop_
  _atom_site_type_symbol
  _atom_site_label
  _atom_site_symmetry_multiplicity
  _atom_site_fract_x
  _atom_site_fract_y
  _atom_site_fract_z
  _atom_site_occupancy
  Li  Li1       1.0  0.00000  0.00000  0.96795  1.0000
  Li  Li2       1.0  0.49997  0.99998  0.10677  1.0000
  Li  Li3       1.0  0.00000  0.50000  0.10879  1.0000
  Li  Li4       1.0  0.50000  0.50000  0.96795  1.0000
  Li  Li5       1.0  0.25019  0.24983  0.03513  1.0000
  Li  Li6       1.0  0.25000  0.75000  0.90384  1.0000
  Li  Li7       1.0  0.74982  0.75017  0.03512  1.0000
  Li  Li8       1.0  0.75000  0.25000  0.90384  1.0000
  Cu  Cu1       1.0  0.25000  0.25000  0.90384  1.0000
  Cu  Cu2       1.0  0.24986  0.74988  0.03397  1.0000
  Cu  Cu3       1.0  0.75000  0.75000  0.90384  1.0000
  Cu  Cu4       1.0  0.75011  0.25010  0.03395  1.0000
  Sn  Sn1       1.0  0.99984  0.00012  0.10061  1.0000
  Sn  Sn2       1.0  0.50020  0.49992  0.10060  1.0000
  Sn  Sn3       1.0  0.50000  0.00000  0.96795  1.0000
  Sn  Sn4       1.0  0.00000  0.50000  0.96795  1.0000
  C   C1        1.0  0.00001  0.50000  0.19449  1.0000
  O   O1        1.0  0.00000  0.50000  0.24050  1.0000
