# generated using pymatgen
data_Li8Cu4Sn4CO
_symmetry_space_group_name_H-M   'P 1'
_cell_length_a   6.34973000
_cell_length_b   6.34973000
_cell_length_c   24.76230000
_cell_angle_alpha   90.00000000
_cell_angle_beta   90.00000000
_cell_angle_gamma   90.00000000
_symmetry_Int_Tables_number   1
_chemical_formula_structural   Li8Cu4Sn4CO
_chemical_formula_sum   'Li8 Cu4 Sn4 C1 O1'
_cell_volume   998.39293363
_cell_formula_units_Z   1
loop_
 _symmetry_equiv_pos_site_id
 _symmetry_equiv_pos_as_xyz
  1  'x, y, z'
loop_
 _atom_site_type_symbol
 _atom_site_label
 _atom_site_symmetry_multiplicity
 _atom_site_fract_x
 _atom_site_fract_y
 _atom_site_fract_z
 _atom_site_occupancy
  Li  Li0  1  0.00000000  0.00000000  0.96795000  1.0
  Li  Li1  1  0.49994000  0.99998000  0.10489000  1.0
  Li  Li2  1  0.00001000  0.50002000  0.10878000  1.0
  Li  Li3  1  0.50000000  0.50000000  0.96795000  1.0
  Li  Li4  1  0.24927000  0.25058000  0.03508000  1.0
  Li  Li5  1  0.25000000  0.75000000  0.90384000  1.0
  Li  Li6  1  0.75072000  0.74947000  0.03507000  1.0
  Li  Li7  1  0.75000000  0.25000000  0.90384000  1.0
  Cu  Cu8  1  0.25000000  0.25000000  0.90384000  1.0
  Cu  Cu9  1  0.24955000  0.74950000  0.03392000  1.0
  Cu  Cu10  1  0.75000000  0.75000000  0.90384000  1.0
  Cu  Cu11  1  0.75047000  0.25045000  0.03387000  1.0
  Sn  Sn12  1  0.99995000  0.00005000  0.10036000  1.0
  Sn  Sn13  1  0.50038000  0.49990000  0.10039000  1.0
  Sn  Sn14  1  0.50000000  0.00000000  0.96795000  1.0
  Sn  Sn15  1  0.00000000  0.50000000  0.96795000  1.0
  C  C16  1  0.99999000  0.50002000  0.19446000  1.0
  O  O17  1  0.99989000  0.49992000  0.24047000  1.0
