# generated using pymatgen
data_YScGaPd
_symmetry_space_group_name_H-M   'P 1'
_cell_length_a   7.06732000
_cell_length_b   9.48206000
_cell_length_c   27.39200000
_cell_angle_alpha   90.00000000
_cell_angle_beta   90.00000000
_cell_angle_gamma   90.00000000
_symmetry_Int_Tables_number   1
_chemical_formula_structural   YScGaPd
_chemical_formula_sum   'Y8 Sc8 Ga8 Pd8'
_cell_volume   1835.61331043
_cell_formula_units_Z   8
loop_
 _symmetry_equiv_pos_site_id
 _symmetry_equiv_pos_as_xyz
  1  'x, y, z'
loop_
 _atom_site_type_symbol
 _atom_site_label
 _atom_site_symmetry_multiplicity
 _atom_site_fract_x
 _atom_site_fract_y
 _atom_site_fract_z
 _atom_site_occupancy
  Y  Y0  1  0.24997000  0.99982000  0.04604000  1.0
  Y  Y1  1  0.25000000  0.00000000  0.86507000  1.0
  Y  Y2  1  0.24999000  0.50017000  0.04607000  1.0
  Y  Y3  1  0.25000000  0.50000000  0.86507000  1.0
  Y  Y4  1  0.74998000  0.99982000  0.04605000  1.0
  Y  Y5  1  0.75000000  0.00000000  0.86507000  1.0
  Y  Y6  1  0.74999000  0.50018000  0.04610000  1.0
  Y  Y7  1  0.75000000  0.50000000  0.86507000  1.0
  Sc  Sc8  1  0.25000000  0.24997000  0.13363000  1.0
  Sc  Sc9  1  0.25000000  0.25000000  0.95502000  1.0
  Sc  Sc10  1  0.25005000  0.75002000  0.13352000  1.0
  Sc  Sc11  1  0.25000000  0.75000000  0.95502000  1.0
  Sc  Sc12  1  0.75000000  0.24999000  0.13367000  1.0
  Sc  Sc13  1  0.75000000  0.25000000  0.95502000  1.0
  Sc  Sc14  1  0.74997000  0.75000000  0.13352000  1.0
  Sc  Sc15  1  0.75000000  0.75000000  0.95502000  1.0
  Ga  Ga16  1  0.00005000  0.00010000  0.14172000  1.0
  Ga  Ga17  1  0.00000000  0.00000000  0.95502000  1.0
  Ga  Ga18  1  0.00005000  0.49992000  0.14175000  1.0
  Ga  Ga19  1  0.00000000  0.50000000  0.95502000  1.0
  Ga  Ga20  1  0.49993000  0.00003000  0.14172000  1.0
  Ga  Ga21  1  0.50000000  0.00000000  0.95502000  1.0
  Ga  Ga22  1  0.49996000  0.49994000  0.14175000  1.0
  Ga  Ga23  1  0.50000000  0.50000000  0.95502000  1.0
  Pd  Pd24  1  0.99997000  0.25000000  0.04439000  1.0
  Pd  Pd25  1  0.00000000  0.25000000  0.86507000  1.0
  Pd  Pd26  1  0.00002000  0.74999000  0.04441000  1.0
  Pd  Pd27  1  0.00000000  0.75000000  0.86507000  1.0
  Pd  Pd28  1  0.49997000  0.25000000  0.04439000  1.0
  Pd  Pd29  1  0.50000000  0.25000000  0.86507000  1.0
  Pd  Pd30  1  0.49997000  0.74999000  0.04441000  1.0
  Pd  Pd31  1  0.50000000  0.75000000  0.86507000  1.0
