# generated using pymatgen
data_Li8In16Ru8C
_symmetry_space_group_name_H-M   Pm
_cell_length_a   9.29097000
_cell_length_b   6.56971000
_cell_length_c   26.96820000
_cell_angle_alpha   90.00000000
_cell_angle_beta   90.00000000
_cell_angle_gamma   90.00000000
_symmetry_Int_Tables_number   6
_chemical_formula_structural   Li8In16Ru8C
_chemical_formula_sum   'Li8 In16 Ru8 C1'
_cell_volume   1646.11138049
_cell_formula_units_Z   1
loop_
 _symmetry_equiv_pos_site_id
 _symmetry_equiv_pos_as_xyz
  1  'x, y, z'
  2  'x, -y, z'
loop_
 _atom_site_type_symbol
 _atom_site_label
 _atom_site_symmetry_multiplicity
 _atom_site_fract_x
 _atom_site_fract_y
 _atom_site_fract_z
 _atom_site_occupancy
  Li  Li0  1  0.00000000  0.00000000  0.87081000  1.0
  Li  Li1  1  0.00001000  0.00000000  0.04255000  1.0
  Li  Li2  1  0.22774000  0.50000000  0.16405000  1.0
  Li  Li3  1  0.25000000  0.50000000  0.95694000  1.0
  Li  Li4  1  0.49999000  0.00000000  0.04379000  1.0
  Li  Li5  1  0.50000000  0.00000000  0.87081000  1.0
  Li  Li6  1  0.75000000  0.50000000  0.95694000  1.0
  Li  Li7  1  0.77224000  0.50000000  0.16406000  1.0
  In  In8  2  0.00000000  0.25000000  0.95694000  1.0
  In  In9  2  0.00004000  0.22416000  0.13255000  1.0
  In  In10  2  0.24992000  0.25682000  0.04391000  1.0
  In  In11  2  0.25000000  0.25000000  0.87081000  1.0
  In  In12  2  0.49998000  0.25004000  0.13285000  1.0
  In  In13  2  0.50000000  0.25000000  0.95694000  1.0
  In  In14  2  0.75000000  0.25000000  0.87081000  1.0
  In  In15  2  0.75008000  0.25679000  0.04390000  1.0
  Ru  Ru16  1  0.00000000  0.50000000  0.87081000  1.0
  Ru  Ru17  1  0.25000000  0.00000000  0.95694000  1.0
  Ru  Ru18  1  0.26130000  0.00000000  0.12137000  1.0
  Ru  Ru19  1  0.50000000  0.50000000  0.04185000  1.0
  Ru  Ru20  1  0.50000000  0.50000000  0.87081000  1.0
  Ru  Ru21  1  0.73875000  0.00000000  0.12136000  1.0
  Ru  Ru22  1  0.75000000  0.00000000  0.95694000  1.0
  Ru  Ru23  1  0.99998000  0.50000000  0.04286000  1.0
  C  C24  1  0.99998000  0.50000000  0.17479000  1.0
