# generated using pymatgen
data_Sc16Co16C
_symmetry_space_group_name_H-M   'P 1'
_cell_length_a   6.24301000
_cell_length_b   8.82895000
_cell_length_c   26.62170000
_cell_angle_alpha   90.00000000
_cell_angle_beta   90.00000000
_cell_angle_gamma   90.00000000
_symmetry_Int_Tables_number   1
_chemical_formula_structural   Sc16Co16C
_chemical_formula_sum   'Sc16 Co16 C1'
_cell_volume   1467.36742265
_cell_formula_units_Z   1
loop_
 _symmetry_equiv_pos_site_id
 _symmetry_equiv_pos_as_xyz
  1  'x, y, z'
loop_
 _atom_site_type_symbol
 _atom_site_label
 _atom_site_symmetry_multiplicity
 _atom_site_fract_x
 _atom_site_fract_y
 _atom_site_fract_z
 _atom_site_occupancy
  Sc  Sc0  1  0.25000000  0.75001000  0.87563000  1.0
  Sc  Sc1  1  0.25000000  0.50000000  0.95854000  1.0
  Sc  Sc2  1  0.24909000  0.75326000  0.04242000  1.0
  Sc  Sc3  1  0.28581000  0.50000000  0.12331000  1.0
  Sc  Sc4  1  0.25000000  0.24999000  0.87563000  1.0
  Sc  Sc5  1  0.25000000  0.00000000  0.95854000  1.0
  Sc  Sc6  1  0.24909000  0.24674000  0.04242000  1.0
  Sc  Sc7  1  0.24711000  0.00000000  0.12810000  1.0
  Sc  Sc8  1  0.75000000  0.75001000  0.87563000  1.0
  Sc  Sc9  1  0.75000000  0.50000000  0.95854000  1.0
  Sc  Sc10  1  0.75091000  0.75326000  0.04242000  1.0
  Sc  Sc11  1  0.71419000  0.50000000  0.12331000  1.0
  Sc  Sc12  1  0.75000000  0.24999000  0.87563000  1.0
  Sc  Sc13  1  0.75000000  0.00000000  0.95854000  1.0
  Sc  Sc14  1  0.75091000  0.24674000  0.04242000  1.0
  Sc  Sc15  1  0.75289000  0.00000000  0.12810000  1.0
  Co  Co16  1  0.00000000  0.50000000  0.87563000  1.0
  Co  Co17  1  0.00000000  0.75001000  0.95854000  1.0
  Co  Co18  1  0.00000000  0.50000000  0.04185000  1.0
  Co  Co19  1  0.00000000  0.70945000  0.12662000  1.0
  Co  Co20  1  0.00000000  0.00000000  0.87563000  1.0
  Co  Co21  1  0.00000000  0.24999000  0.95854000  1.0
  Co  Co22  1  0.00000000  0.00000000  0.04602000  1.0
  Co  Co23  1  0.00000000  0.29055000  0.12662000  1.0
  Co  Co24  1  0.50000000  0.50000000  0.87563000  1.0
  Co  Co25  1  0.50000000  0.75001000  0.95854000  1.0
  Co  Co26  1  0.50000000  0.50000000  0.03581000  1.0
  Co  Co27  1  0.50000000  0.77243000  0.11753000  1.0
  Co  Co28  1  0.50000000  0.00000000  0.87563000  1.0
  Co  Co29  1  0.50000000  0.24999000  0.95854000  1.0
  Co  Co30  1  0.50000000  0.00000000  0.04360000  1.0
  Co  Co31  1  0.50000000  0.22757000  0.11753000  1.0
  C  C32  1  0.00000000  0.50000000  0.16388000  1.0
