# generated using pymatgen
data_Li4Al4Ag4Sn4C
_symmetry_space_group_name_H-M   'P 1'
_cell_length_a   8.16098000
_cell_length_b   6.09080000
_cell_length_c   24.56780000
_cell_angle_alpha   90.00000000
_cell_angle_beta   90.00000000
_cell_angle_gamma   90.00000000
_symmetry_Int_Tables_number   1
_chemical_formula_structural   Li4Al4Ag4Sn4C
_chemical_formula_sum   'Li4 Al4 Ag4 Sn4 C1'
_cell_volume   1221.18910372
_cell_formula_units_Z   1
loop_
 _symmetry_equiv_pos_site_id
 _symmetry_equiv_pos_as_xyz
  1  'x, y, z'
loop_
 _atom_site_type_symbol
 _atom_site_label
 _atom_site_symmetry_multiplicity
 _atom_site_fract_x
 _atom_site_fract_y
 _atom_site_fract_z
 _atom_site_occupancy
  Li  Li0  1  0.25001000  0.75310000  0.96901000  1.0
  Li  Li1  1  0.31985000  0.23392000  0.10958000  1.0
  Li  Li2  1  0.74999000  0.75310000  0.96901000  1.0
  Li  Li3  1  0.68015000  0.23392000  0.10958000  1.0
  Al  Al4  1  0.25001000  0.25310000  0.96901000  1.0
  Al  Al5  1  0.31984000  0.76082000  0.09925000  1.0
  Al  Al6  1  0.74999000  0.25310000  0.96901000  1.0
  Al  Al7  1  0.68016000  0.76082000  0.09925000  1.0
  Ag  Ag8  1  0.50000000  0.00000000  0.90704000  1.0
  Ag  Ag9  1  0.50000000  0.50449000  0.03057000  1.0
  Ag  Ag10  1  0.00000000  0.00000000  0.90704000  1.0
  Ag  Ag11  1  0.00000000  0.45259000  0.03186000  1.0
  Sn  Sn12  1  0.50000000  0.50000000  0.90704000  1.0
  Sn  Sn13  1  0.50000000  0.02069000  0.02115000  1.0
  Sn  Sn14  1  0.00000000  0.50000000  0.90704000  1.0
  Sn  Sn15  1  0.00000000  0.95729000  0.06167000  1.0
  C  C16  1  0.50000000  0.97766000  0.11394000  1.0
