# generated using pymatgen
data_MnCo2Si
_symmetry_space_group_name_H-M   'P 1'
_cell_length_a   3.98996500
_cell_length_b   5.64266000
_cell_length_c   25.98490000
_cell_angle_alpha   90.00000000
_cell_angle_beta   90.00000000
_cell_angle_gamma   90.00000000
_symmetry_Int_Tables_number   1
_chemical_formula_structural   MnCo2Si
_chemical_formula_sum   'Mn4 Co8 Si4'
_cell_volume   585.02445194
_cell_formula_units_Z   4
loop_
 _symmetry_equiv_pos_site_id
 _symmetry_equiv_pos_as_xyz
  1  'x, y, z'
loop_
 _atom_site_type_symbol
 _atom_site_label
 _atom_site_symmetry_multiplicity
 _atom_site_fract_x
 _atom_site_fract_y
 _atom_site_fract_z
 _atom_site_occupancy
  Mn  Mn0  1  0.00000000  0.00000000  0.11516000  1.0
  Mn  Mn1  1  0.50000000  0.50000000  0.03839000  1.0
  Mn  Mn2  1  0.00000000  0.00000000  0.96285000  1.0
  Mn  Mn3  1  0.50000000  0.50000000  0.87913500  1.0
  Co  Co4  1  0.00000000  0.75000000  0.03839000  1.0
  Co  Co5  1  0.00000000  0.25000000  0.03839000  1.0
  Co  Co6  1  0.50000000  0.25000000  0.11516000  1.0
  Co  Co7  1  0.50000000  0.75000000  0.11516000  1.0
  Co  Co8  1  0.00000000  0.76333500  0.88786500  1.0
  Co  Co9  1  0.00000000  0.23666500  0.88786500  1.0
  Co  Co10  1  0.50000000  0.25329000  0.96166500  1.0
  Co  Co11  1  0.50000000  0.74671000  0.96166500  1.0
  Si  Si12  1  0.50000000  0.00000000  0.03839000  1.0
  Si  Si13  1  0.00000000  0.50000000  0.11516000  1.0
  Si  Si14  1  0.50000000  0.00000000  0.88701000  1.0
  Si  Si15  1  0.00000000  0.50000000  0.96036000  1.0
