# generated using pymatgen
data_Sc4Al4In4Pd4C
_symmetry_space_group_name_H-M   Pm
_cell_length_a   5.88291000
_cell_length_b   8.60736000
_cell_length_c   24.41210000
_cell_angle_alpha   90.00000000
_cell_angle_beta   90.00000000
_cell_angle_gamma   90.00000000
_symmetry_Int_Tables_number   6
_chemical_formula_structural   Sc4Al4In4Pd4C
_chemical_formula_sum   'Sc4 Al4 In4 Pd4 C1'
_cell_volume   1236.13901043
_cell_formula_units_Z   1
loop_
 _symmetry_equiv_pos_site_id
 _symmetry_equiv_pos_as_xyz
  1  'x, y, z'
  2  'x, -y, z'
loop_
 _atom_site_type_symbol
 _atom_site_label
 _atom_site_symmetry_multiplicity
 _atom_site_fract_x
 _atom_site_fract_y
 _atom_site_fract_z
 _atom_site_occupancy
  Sc  Sc0  2  0.24896000  0.24999000  0.96988000  1.0
  Sc  Sc1  2  0.74097000  0.24007000  0.09174000  1.0
  Al  Al2  1  0.00000000  0.00000000  0.90963000  1.0
  Al  Al3  1  0.00000000  0.50000000  0.90963000  1.0
  Al  Al4  1  0.47688000  0.00000000  0.03901000  1.0
  Al  Al5  1  0.49348000  0.50000000  0.03303000  1.0
  In  In6  1  0.50000000  0.00000000  0.90963000  1.0
  In  In7  1  0.50000000  0.50000000  0.90963000  1.0
  In  In8  1  0.97243000  0.50000000  0.03104000  1.0
  In  In9  1  0.99423000  0.00000000  0.02932000  1.0
  Pd  Pd10  2  0.26607000  0.26534000  0.07537000  1.0
  Pd  Pd11  2  0.74896000  0.24999000  0.96988000  1.0
  C  C12  1  0.71778000  0.00000000  0.09588000  1.0
