# generated using pymatgen
data_Cr8Ir24C
_symmetry_space_group_name_H-M   Pmm2
_cell_length_a   7.64708000
_cell_length_b   7.64708000
_cell_length_c   25.73530000
_cell_angle_alpha   90.00000000
_cell_angle_beta   90.00000000
_cell_angle_gamma   90.00000000
_symmetry_Int_Tables_number   25
_chemical_formula_structural   Cr8Ir24C
_chemical_formula_sum   'Cr8 Ir24 C1'
_cell_volume   1504.94456342
_cell_formula_units_Z   1
loop_
 _symmetry_equiv_pos_site_id
 _symmetry_equiv_pos_as_xyz
  1  'x, y, z'
  2  '-x, -y, z'
  3  '-x, y, z'
  4  'x, -y, z'
loop_
 _atom_site_type_symbol
 _atom_site_label
 _atom_site_symmetry_multiplicity
 _atom_site_fract_x
 _atom_site_fract_y
 _atom_site_fract_z
 _atom_site_occupancy
  Cr  Cr0  2  0.25000000  0.00000000  0.11143000  1.0
  Cr  Cr1  2  0.25000000  0.00000000  0.96286000  1.0
  Cr  Cr2  2  0.25000000  0.50000000  0.11143000  1.0
  Cr  Cr3  2  0.25000000  0.50000000  0.96286000  1.0
  Ir  Ir4  4  0.25000000  0.25000000  0.03714000  1.0
  Ir  Ir5  4  0.25000000  0.25000000  0.88857000  1.0
  Ir  Ir6  2  0.00000000  0.25000000  0.11143000  1.0
  Ir  Ir7  2  0.00000000  0.25000000  0.96286000  1.0
  Ir  Ir8  2  0.50000000  0.25000000  0.11143000  1.0
  Ir  Ir9  2  0.50000000  0.25000000  0.96286000  1.0
  Ir  Ir10  1  0.00000000  0.00000000  0.03714000  1.0
  Ir  Ir11  1  0.00000000  0.00000000  0.88857000  1.0
  Ir  Ir12  1  0.00000000  0.50000000  0.03714000  1.0
  Ir  Ir13  1  0.00000000  0.50000000  0.88857000  1.0
  Ir  Ir14  1  0.50000000  0.00000000  0.03714000  1.0
  Ir  Ir15  1  0.50000000  0.00000000  0.88857000  1.0
  Ir  Ir16  1  0.50000000  0.50000000  0.03714000  1.0
  Ir  Ir17  1  0.50000000  0.50000000  0.88857000  1.0
  C  C18  1  0.00000000  0.00000000  0.14251000  1.0
