# generated using pymatgen
data_Sc16Al16CO
_symmetry_space_group_name_H-M   'P 1'
_cell_length_a   6.75388000
_cell_length_b   9.55143000
_cell_length_c   27.16360000
_cell_angle_alpha   90.00000000
_cell_angle_beta   90.00000000
_cell_angle_gamma   90.00000000
_symmetry_Int_Tables_number   1
_chemical_formula_structural   Sc16Al16CO
_chemical_formula_sum   'Sc16 Al16 C1 O1'
_cell_volume   1752.30243240
_cell_formula_units_Z   1
loop_
 _symmetry_equiv_pos_site_id
 _symmetry_equiv_pos_as_xyz
  1  'x, y, z'
loop_
 _atom_site_type_symbol
 _atom_site_label
 _atom_site_symmetry_multiplicity
 _atom_site_fract_x
 _atom_site_fract_y
 _atom_site_fract_z
 _atom_site_occupancy
  Sc  Sc0  1  0.25000000  0.00000000  0.86814000  1.0
  Sc  Sc1  1  0.25000000  0.74999000  0.95605000  1.0
  Sc  Sc2  1  0.24739000  0.00000000  0.04377000  1.0
  Sc  Sc3  1  0.25166000  0.25178000  0.13579000  1.0
  Sc  Sc4  1  0.25000000  0.50000000  0.86814000  1.0
  Sc  Sc5  1  0.25000000  0.25001000  0.95605000  1.0
  Sc  Sc6  1  0.25377000  0.50000000  0.04237000  1.0
  Sc  Sc7  1  0.25166000  0.74822000  0.13579000  1.0
  Sc  Sc8  1  0.75000000  0.00000000  0.86814000  1.0
  Sc  Sc9  1  0.75000000  0.74999000  0.95605000  1.0
  Sc  Sc10  1  0.75261000  0.00000000  0.04377000  1.0
  Sc  Sc11  1  0.74834000  0.25178000  0.13579000  1.0
  Sc  Sc12  1  0.75000000  0.50000000  0.86814000  1.0
  Sc  Sc13  1  0.75000000  0.25001000  0.95605000  1.0
  Sc  Sc14  1  0.74623000  0.50000000  0.04237000  1.0
  Sc  Sc15  1  0.74834000  0.74822000  0.13579000  1.0
  Al  Al16  1  0.00000000  0.74999000  0.86814000  1.0
  Al  Al17  1  0.00000000  0.00000000  0.95605000  1.0
  Al  Al18  1  0.00000000  0.74832000  0.04660000  1.0
  Al  Al19  1  0.00000000  0.00000000  0.12771000  1.0
  Al  Al20  1  0.00000000  0.25001000  0.86814000  1.0
  Al  Al21  1  0.00000000  0.50000000  0.95605000  1.0
  Al  Al22  1  0.00000000  0.25168000  0.04660000  1.0
  Al  Al23  1  0.00000000  0.50000000  0.12955000  1.0
  Al  Al24  1  0.50000000  0.74999000  0.86814000  1.0
  Al  Al25  1  0.50000000  0.00000000  0.95605000  1.0
  Al  Al26  1  0.50000000  0.75237000  0.04661000  1.0
  Al  Al27  1  0.50000000  0.00000000  0.13278000  1.0
  Al  Al28  1  0.50000000  0.25001000  0.86814000  1.0
  Al  Al29  1  0.50000000  0.50000000  0.95605000  1.0
  Al  Al30  1  0.50000000  0.24763000  0.04661000  1.0
  Al  Al31  1  0.50000000  0.50000000  0.13215000  1.0
  C  C32  1  0.00000000  0.00000000  0.19899000  1.0
  O  O33  1  0.00000000  0.00000000  0.24222000  1.0
