# generated using pymatgen
data_Sc16Al16CO
_symmetry_space_group_name_H-M   Pmm2
_cell_length_a   6.75388000
_cell_length_b   9.55143000
_cell_length_c   27.16360000
_cell_angle_alpha   90.00000000
_cell_angle_beta   90.00000000
_cell_angle_gamma   90.00000000
_symmetry_Int_Tables_number   25
_chemical_formula_structural   Sc16Al16CO
_chemical_formula_sum   'Sc16 Al16 C1 O1'
_cell_volume   1752.30243240
_cell_formula_units_Z   1
loop_
 _symmetry_equiv_pos_site_id
 _symmetry_equiv_pos_as_xyz
  1  'x, y, z'
  2  '-x, -y, z'
  3  '-x, y, z'
  4  'x, -y, z'
loop_
 _atom_site_type_symbol
 _atom_site_label
 _atom_site_symmetry_multiplicity
 _atom_site_fract_x
 _atom_site_fract_y
 _atom_site_fract_z
 _atom_site_occupancy
  Sc  Sc0  4  0.25000000  0.25001000  0.95605000  1.0
  Sc  Sc1  4  0.25166000  0.25178000  0.13579000  1.0
  Sc  Sc2  2  0.24739000  0.00000000  0.04377000  1.0
  Sc  Sc3  2  0.25000000  0.00000000  0.86814000  1.0
  Sc  Sc4  2  0.25000000  0.50000000  0.86814000  1.0
  Sc  Sc5  2  0.25377000  0.50000000  0.04237000  1.0
  Al  Al6  2  0.00000000  0.25001000  0.86814000  1.0
  Al  Al7  2  0.00000000  0.25168000  0.04660000  1.0
  Al  Al8  2  0.50000000  0.24763000  0.04661000  1.0
  Al  Al9  2  0.50000000  0.25001000  0.86814000  1.0
  Al  Al10  1  0.00000000  0.00000000  0.12771000  1.0
  Al  Al11  1  0.00000000  0.00000000  0.95605000  1.0
  Al  Al12  1  0.00000000  0.50000000  0.12955000  1.0
  Al  Al13  1  0.00000000  0.50000000  0.95605000  1.0
  Al  Al14  1  0.50000000  0.00000000  0.13278000  1.0
  Al  Al15  1  0.50000000  0.00000000  0.95605000  1.0
  Al  Al16  1  0.50000000  0.50000000  0.13215000  1.0
  Al  Al17  1  0.50000000  0.50000000  0.95605000  1.0
  C  C18  1  0.00000000  0.00000000  0.19899000  1.0
  O  O19  1  0.00000000  0.00000000  0.24222000  1.0
