# generated using pymatgen
data_V4Co8Sn4C
_symmetry_space_group_name_H-M   'P 1'
_cell_length_a   6.04348000
_cell_length_b   6.04348000
_cell_length_c   24.53260000
_cell_angle_alpha   90.00000000
_cell_angle_beta   90.00000000
_cell_angle_gamma   90.00000000
_symmetry_Int_Tables_number   1
_chemical_formula_structural   V4Co8Sn4C
_chemical_formula_sum   'V4 Co8 Sn4 C1'
_cell_volume   896.02010851
_cell_formula_units_Z   1
loop_
 _symmetry_equiv_pos_site_id
 _symmetry_equiv_pos_as_xyz
  1  'x, y, z'
loop_
 _atom_site_type_symbol
 _atom_site_label
 _atom_site_symmetry_multiplicity
 _atom_site_fract_x
 _atom_site_fract_y
 _atom_site_fract_z
 _atom_site_occupancy
  V  V0  1  0.00000000  0.50000000  0.90762000  1.0
  V  V1  1  0.50000000  0.00000000  0.90762000  1.0
  V  V2  1  0.50000000  0.50000000  0.03079000  1.0
  V  V3  1  0.00000000  0.00000000  0.03079000  1.0
  Co  Co4  1  0.25000000  0.75000000  0.96921000  1.0
  Co  Co5  1  0.75000000  0.25000000  0.09238000  1.0
  Co  Co6  1  0.75000000  0.75000000  0.96921000  1.0
  Co  Co7  1  0.25000000  0.25000000  0.09238000  1.0
  Co  Co8  1  0.75000000  0.25000000  0.96921000  1.0
  Co  Co9  1  0.25000000  0.75000000  0.09238000  1.0
  Co  Co10  1  0.25000000  0.25000000  0.96921000  1.0
  Co  Co11  1  0.75000000  0.75000000  0.09238000  1.0
  Sn  Sn12  1  0.00000000  0.50000000  0.03079000  1.0
  Sn  Sn13  1  0.50000000  0.50000000  0.90762000  1.0
  Sn  Sn14  1  0.00000000  0.00000000  0.90762000  1.0
  Sn  Sn15  1  0.50000000  0.00000000  0.03079000  1.0
  C  C16  1  0.00000000  0.00000000  0.12499000  1.0
