# generated using pymatgen
data_LiSnPd2
_symmetry_space_group_name_H-M   Pmm2
_cell_length_a   4.53592500
_cell_length_b   6.41477000
_cell_length_c   26.80390000
_cell_angle_alpha   90.00000000
_cell_angle_beta   90.00000000
_cell_angle_gamma   90.00000000
_symmetry_Int_Tables_number   25
_chemical_formula_structural   LiSnPd2
_chemical_formula_sum   'Li4 Sn4 Pd8'
_cell_volume   779.91081638
_cell_formula_units_Z   4
loop_
 _symmetry_equiv_pos_site_id
 _symmetry_equiv_pos_as_xyz
  1  'x, y, z'
  2  '-x, -y, z'
  3  '-x, y, z'
  4  'x, -y, z'
loop_
 _atom_site_type_symbol
 _atom_site_label
 _atom_site_symmetry_multiplicity
 _atom_site_fract_x
 _atom_site_fract_y
 _atom_site_fract_z
 _atom_site_occupancy
  Li  Li0  1  0.00000000  0.00000000  0.12692000  1.0
  Li  Li1  1  0.00000000  0.00000000  0.95991000  1.0
  Li  Li2  1  0.50000000  0.50000000  0.04231000  1.0
  Li  Li3  1  0.50000000  0.50000000  0.87060500  1.0
  Sn  Sn4  1  0.00000000  0.50000000  0.12692000  1.0
  Sn  Sn5  1  0.00000000  0.50000000  0.95806000  1.0
  Sn  Sn6  1  0.50000000  0.00000000  0.04231000  1.0
  Sn  Sn7  1  0.50000000  0.00000000  0.86750000  1.0
  Pd  Pd8  2  0.00000000  0.23230000  0.88022000  1.0
  Pd  Pd9  2  0.00000000  0.25000000  0.04231000  1.0
  Pd  Pd10  2  0.50000000  0.24519000  0.95663000  1.0
  Pd  Pd11  2  0.50000000  0.25000000  0.12692000  1.0
