# generated using pymatgen
data_Li2SnAu
_symmetry_space_group_name_H-M   Pm
_cell_length_a   6.60404000
_cell_length_b   4.66976000
_cell_length_c   27.00460000
_cell_angle_alpha   90.00000000
_cell_angle_beta   90.00000000
_cell_angle_gamma   90.00000000
_symmetry_Int_Tables_number   6
_chemical_formula_structural   Li2SnAu
_chemical_formula_sum   'Li8 Sn4 Au4'
_cell_volume   832.80247012
_cell_formula_units_Z   4
loop_
 _symmetry_equiv_pos_site_id
 _symmetry_equiv_pos_as_xyz
  1  'x, y, z'
  2  'x, -y, z'
loop_
 _atom_site_type_symbol
 _atom_site_label
 _atom_site_symmetry_multiplicity
 _atom_site_fract_x
 _atom_site_fract_y
 _atom_site_fract_z
 _atom_site_occupancy
  Li  Li0  1  0.00000000  0.50000000  0.04323000  1.0
  Li  Li1  1  0.25000000  0.00000000  0.04323000  1.0
  Li  Li2  1  0.27806000  0.00000000  0.87274000  1.0
  Li  Li3  1  0.48877500  0.00000000  0.96173000  1.0
  Li  Li4  1  0.50000000  0.00000000  0.12969000  1.0
  Li  Li5  1  0.72438500  0.50000000  0.95187000  1.0
  Li  Li6  1  0.75000000  0.50000000  0.12969000  1.0
  Li  Li7  1  0.97787500  0.50000000  0.87270000  1.0
  Sn  Sn8  1  0.00000000  0.00000000  0.12969000  1.0
  Sn  Sn9  1  0.00625000  0.00000000  0.95640000  1.0
  Sn  Sn10  1  0.49907000  0.50000000  0.85619000  1.0
  Sn  Sn11  1  0.50000000  0.50000000  0.04323000  1.0
  Au  Au12  1  0.25000000  0.50000000  0.12969000  1.0
  Au  Au13  1  0.26896000  0.50000000  0.94923000  1.0
  Au  Au14  1  0.71687000  0.00000000  0.88145000  1.0
  Au  Au15  1  0.75000000  0.00000000  0.04323000  1.0
