# generated using pymatgen
data_Li8Mg8In8Cu8CO
_symmetry_space_group_name_H-M   'P 1'
_cell_length_a   9.10482000
_cell_length_b   6.43808000
_cell_length_c   26.82860000
_cell_angle_alpha   90.00000000
_cell_angle_beta   90.00000000
_cell_angle_gamma   90.00000000
_symmetry_Int_Tables_number   1
_chemical_formula_structural   Li8Mg8In8Cu8CO
_chemical_formula_sum   'Li8 Mg8 In8 Cu8 C1 O1'
_cell_volume   1572.62705803
_cell_formula_units_Z   1
loop_
 _symmetry_equiv_pos_site_id
 _symmetry_equiv_pos_as_xyz
  1  'x, y, z'
loop_
 _atom_site_type_symbol
 _atom_site_label
 _atom_site_symmetry_multiplicity
 _atom_site_fract_x
 _atom_site_fract_y
 _atom_site_fract_z
 _atom_site_occupancy
  Li  Li0  1  0.00000000  0.00000000  0.04242000  1.0
  Li  Li1  1  0.50000000  0.00000000  0.04242000  1.0
  Li  Li2  1  0.25001000  0.50000000  0.12726000  1.0
  Li  Li3  1  0.74999000  0.50000000  0.12726000  1.0
  Li  Li4  1  0.50000000  0.07682000  0.81916000  1.0
  Li  Li5  1  0.00000000  0.01076000  0.84435000  1.0
  Li  Li6  1  0.75088000  0.50010000  0.95226000  1.0
  Li  Li7  1  0.24912000  0.50010000  0.95226000  1.0
  Mg  Mg8  1  0.75001000  0.75000000  0.04242000  1.0
  Mg  Mg9  1  0.24999000  0.75000000  0.04242000  1.0
  Mg  Mg10  1  0.00000000  0.25000000  0.12726000  1.0
  Mg  Mg11  1  0.50000000  0.25000000  0.12726000  1.0
  Mg  Mg12  1  0.27422000  0.76729000  0.86815000  1.0
  Mg  Mg13  1  0.72578000  0.76729000  0.86815000  1.0
  Mg  Mg14  1  0.50000000  0.23255000  0.95173000  1.0
  Mg  Mg15  1  0.00000000  0.24173000  0.94919000  1.0
  In  In16  1  0.75001000  0.25000000  0.04242000  1.0
  In  In17  1  0.24999000  0.25000000  0.04242000  1.0
  In  In18  1  0.00000000  0.75000000  0.12726000  1.0
  In  In19  1  0.50000000  0.75000000  0.12726000  1.0
  In  In20  1  0.25313000  0.24564000  0.86539000  1.0
  In  In21  1  0.74687000  0.24564000  0.86539000  1.0
  In  In22  1  0.50000000  0.75341000  0.95499000  1.0
  In  In23  1  0.00000000  0.76090000  0.95103000  1.0
  Cu  Cu24  1  0.75001000  0.00000000  0.12726000  1.0
  Cu  Cu25  1  0.24999000  0.00000000  0.12726000  1.0
  Cu  Cu26  1  0.50000000  0.50000000  0.04242000  1.0
  Cu  Cu27  1  0.00000000  0.50000000  0.04242000  1.0
  Cu  Cu28  1  0.24925000  0.00179000  0.95966000  1.0
  Cu  Cu29  1  0.75075000  0.00179000  0.95966000  1.0
  Cu  Cu30  1  0.00000000  0.51041000  0.86979000  1.0
  Cu  Cu31  1  0.50000000  0.48702000  0.87375000  1.0
  C  C32  1  0.00000000  0.57776000  0.80230000  1.0
  O  O33  1  0.00000000  0.59196000  0.75908000  1.0
