# generated using pymatgen
data_YPd2Pb
_symmetry_space_group_name_H-M   'P 1'
_cell_length_a   4.92144500
_cell_length_b   6.95998000
_cell_length_c   27.38220000
_cell_angle_alpha   90.00000000
_cell_angle_beta   90.00000000
_cell_angle_gamma   90.00000000
_symmetry_Int_Tables_number   1
_chemical_formula_structural   YPd2Pb
_chemical_formula_sum   'Y4 Pd8 Pb4'
_cell_volume   937.92684410
_cell_formula_units_Z   4
loop_
 _symmetry_equiv_pos_site_id
 _symmetry_equiv_pos_as_xyz
  1  'x, y, z'
loop_
 _atom_site_type_symbol
 _atom_site_label
 _atom_site_symmetry_multiplicity
 _atom_site_fract_x
 _atom_site_fract_y
 _atom_site_fract_z
 _atom_site_occupancy
  Y  Y0  1  0.00000000  0.00000000  0.13480000  1.0
  Y  Y1  1  0.50000000  0.50000000  0.04493000  1.0
  Y  Y2  1  0.00000000  0.00000000  0.95360000  1.0
  Y  Y3  1  0.50000000  0.50000000  0.86712000  1.0
  Pd  Pd4  1  0.00000000  0.75000000  0.04493000  1.0
  Pd  Pd5  1  0.00000000  0.25000000  0.04493000  1.0
  Pd  Pd6  1  0.50000000  0.25000000  0.13480000  1.0
  Pd  Pd7  1  0.50000000  0.75000000  0.13480000  1.0
  Pd  Pd8  1  0.00000000  0.74981000  0.86983000  1.0
  Pd  Pd9  1  0.00000000  0.25019000  0.86983000  1.0
  Pd  Pd10  1  0.50000000  0.24369000  0.95123000  1.0
  Pd  Pd11  1  0.50000000  0.75631000  0.95123000  1.0
  Pb  Pb12  1  0.50000000  0.00000000  0.04493000  1.0
  Pb  Pb13  1  0.00000000  0.50000000  0.13480000  1.0
  Pb  Pb14  1  0.50000000  0.00000000  0.85630000  1.0
  Pb  Pb15  1  0.00000000  0.50000000  0.95564000  1.0
