data_image0
_chemical_formula_structural       Li8Cu8Si8Pd8C
_chemical_formula_sum              "Li8 Cu8 Si8 Pd8 C1"
_cell_length_a       5.89837
_cell_length_b       8.34156
_cell_length_c       26.2562
_cell_angle_alpha    90
_cell_angle_beta     90
_cell_angle_gamma    90

_space_group_name_H-M_alt    "P 1"
_space_group_IT_number       1

loop_
  _space_group_symop_operation_xyz
  'x, y, z'

loop_
  _atom_site_type_symbol
  _atom_site_label
  _atom_site_symmetry_multiplicity
  _atom_site_fract_x
  _atom_site_fract_y
  _atom_site_fract_z
  _atom_site_occupancy
  Li  Li1       1.0  0.25000  0.00000  0.96029  1.0000
  Li  Li2       1.0  0.25000  0.50000  0.96029  1.0000
  Li  Li3       1.0  0.75000  0.25000  0.88086  1.0000
  Li  Li4       1.0  0.75000  0.75000  0.88086  1.0000
  Li  Li5       1.0  0.24172  0.50092  0.13789  1.0000
  Li  Li6       1.0  0.24173  0.99908  0.13789  1.0000
  Li  Li7       1.0  0.74577  0.75000  0.03514  1.0000
  Li  Li8       1.0  0.77978  0.25000  0.04393  1.0000
  Cu  Cu1       1.0  0.00000  0.00000  0.88086  1.0000
  Cu  Cu2       1.0  0.00000  0.50000  0.88086  1.0000
  Cu  Cu3       1.0  0.50000  0.75000  0.96029  1.0000
  Cu  Cu4       1.0  0.50000  0.25000  0.96029  1.0000
  Cu  Cu5       1.0  0.00788  0.50454  0.03967  1.0000
  Cu  Cu6       1.0  0.00788  0.99546  0.03967  1.0000
  Cu  Cu7       1.0  0.50601  0.25000  0.11376  1.0000
  Cu  Cu8       1.0  0.51868  0.75000  0.11342  1.0000
  Si  Si1       1.0  0.75000  0.00000  0.96029  1.0000
  Si  Si2       1.0  0.75000  0.50000  0.96029  1.0000
  Si  Si3       1.0  0.25000  0.25000  0.88086  1.0000
  Si  Si4       1.0  0.25000  0.75000  0.88086  1.0000
  Si  Si5       1.0  0.75205  0.50348  0.11789  1.0000
  Si  Si6       1.0  0.75205  0.99652  0.11789  1.0000
  Si  Si7       1.0  0.25278  0.75000  0.04028  1.0000
  Si  Si8       1.0  0.24466  0.25000  0.03939  1.0000
  Pd  Pd1       1.0  0.00000  0.25000  0.96029  1.0000
  Pd  Pd2       1.0  0.00000  0.75000  0.96029  1.0000
  Pd  Pd3       1.0  0.50000  0.50000  0.88086  1.0000
  Pd  Pd4       1.0  0.50000  0.00000  0.88086  1.0000
  Pd  Pd5       1.0  0.98437  0.75000  0.11217  1.0000
  Pd  Pd6       1.0  0.90918  0.25000  0.14645  1.0000
  Pd  Pd7       1.0  0.49428  0.00352  0.04205  1.0000
  Pd  Pd8       1.0  0.49428  0.49648  0.04205  1.0000
  C   C1        1.0  0.22290  0.25000  0.13986  1.0000
