# generated using pymatgen
data_Li8Cu8Si8Pd8C
_symmetry_space_group_name_H-M   'P 1'
_cell_length_a   8.34156000
_cell_length_b   5.89837000
_cell_length_c   26.25620000
_cell_angle_alpha   90.00000000
_cell_angle_beta   90.00000000
_cell_angle_gamma   90.00000000
_symmetry_Int_Tables_number   1
_chemical_formula_structural   Li8Cu8Si8Pd8C
_chemical_formula_sum   'Li8 Cu8 Si8 Pd8 C1'
_cell_volume   1291.84724047
_cell_formula_units_Z   1
loop_
 _symmetry_equiv_pos_site_id
 _symmetry_equiv_pos_as_xyz
  1  'x, y, z'
loop_
 _atom_site_type_symbol
 _atom_site_label
 _atom_site_symmetry_multiplicity
 _atom_site_fract_x
 _atom_site_fract_y
 _atom_site_fract_z
 _atom_site_occupancy
  Li  Li0  1  0.75000000  0.25000000  0.03971000  1.0
  Li  Li1  1  0.25000000  0.25000000  0.03971000  1.0
  Li  Li2  1  0.00000000  0.75000000  0.11914000  1.0
  Li  Li3  1  0.50000000  0.75000000  0.11914000  1.0
  Li  Li4  1  0.25092000  0.24172000  0.86211000  1.0
  Li  Li5  1  0.74908000  0.24172000  0.86211000  1.0
  Li  Li6  1  0.50000000  0.74577000  0.96486000  1.0
  Li  Li7  1  0.00000000  0.77978000  0.95607000  1.0
  Cu  Cu8  1  0.75000000  0.00000000  0.11914000  1.0
  Cu  Cu9  1  0.25000000  0.00000000  0.11914000  1.0
  Cu  Cu10  1  0.50000000  0.50000000  0.03971000  1.0
  Cu  Cu11  1  0.00000000  0.50000000  0.03971000  1.0
  Cu  Cu12  1  0.25454000  0.00788000  0.96033000  1.0
  Cu  Cu13  1  0.74546000  0.00788000  0.96033000  1.0
  Cu  Cu14  1  0.00000000  0.50601000  0.88624000  1.0
  Cu  Cu15  1  0.50000000  0.51868000  0.88658000  1.0
  Si  Si16  1  0.75000000  0.75000000  0.03971000  1.0
  Si  Si17  1  0.25000000  0.75000000  0.03971000  1.0
  Si  Si18  1  0.00000000  0.25000000  0.11914000  1.0
  Si  Si19  1  0.50000000  0.25000000  0.11914000  1.0
  Si  Si20  1  0.25348000  0.75205000  0.88211000  1.0
  Si  Si21  1  0.74652000  0.75205000  0.88211000  1.0
  Si  Si22  1  0.50000000  0.25278000  0.95972000  1.0
  Si  Si23  1  0.00000000  0.24466000  0.96061000  1.0
  Pd  Pd24  1  0.00000000  0.00000000  0.03971000  1.0
  Pd  Pd25  1  0.50000000  0.00000000  0.03971000  1.0
  Pd  Pd26  1  0.25000000  0.50000000  0.11914000  1.0
  Pd  Pd27  1  0.75000000  0.50000000  0.11914000  1.0
  Pd  Pd28  1  0.50000000  0.98437000  0.88783000  1.0
  Pd  Pd29  1  0.00000000  0.90918000  0.85355000  1.0
  Pd  Pd30  1  0.75352000  0.49428000  0.95795000  1.0
  Pd  Pd31  1  0.24648000  0.49428000  0.95795000  1.0
  C  C32  1  0.00000000  0.22290000  0.86014000  1.0
