data_image0
_chemical_formula_structural       Li8Mg8Sn8Pd8C
_chemical_formula_sum              "Li8 Mg8 Sn8 Pd8 C1"
_cell_length_a       6.52546
_cell_length_b       9.2284
_cell_length_c       26.9213
_cell_angle_alpha    90
_cell_angle_beta     90
_cell_angle_gamma    90

_space_group_name_H-M_alt    "P 1"
_space_group_IT_number       1

loop_
  _space_group_symop_operation_xyz
  'x, y, z'

loop_
  _atom_site_type_symbol
  _atom_site_label
  _atom_site_symmetry_multiplicity
  _atom_site_fract_x
  _atom_site_fract_y
  _atom_site_fract_z
  _atom_site_occupancy
  Li  Li1       1.0  0.00000  0.00000  0.87145  1.0000
  Li  Li2       1.0  0.00000  0.50000  0.87145  1.0000
  Li  Li3       1.0  0.50000  0.75000  0.95715  1.0000
  Li  Li4       1.0  0.50000  0.25000  0.95715  1.0000
  Li  Li5       1.0  0.99003  0.50000  0.04746  1.0000
  Li  Li6       1.0  0.98534  1.00000  0.04142  1.0000
  Li  Li7       1.0  0.51403  0.22688  0.14989  1.0000
  Li  Li8       1.0  0.51403  0.77312  0.14989  1.0000
  Mg  Mg1       1.0  0.25000  0.00000  0.95715  1.0000
  Mg  Mg2       1.0  0.25000  0.50000  0.95715  1.0000
  Mg  Mg3       1.0  0.75000  0.25000  0.87145  1.0000
  Mg  Mg4       1.0  0.75000  0.75000  0.87145  1.0000
  Mg  Mg5       1.0  0.25451  0.50000  0.12860  1.0000
  Mg  Mg6       1.0  0.21728  1.00000  0.12579  1.0000
  Mg  Mg7       1.0  0.73342  0.74453  0.04441  1.0000
  Mg  Mg8       1.0  0.73342  0.25547  0.04441  1.0000
  Sn  Sn1       1.0  0.75000  0.00000  0.95715  1.0000
  Sn  Sn2       1.0  0.75000  0.50000  0.95715  1.0000
  Sn  Sn3       1.0  0.25000  0.25000  0.87145  1.0000
  Sn  Sn4       1.0  0.25000  0.75000  0.87145  1.0000
  Sn  Sn5       1.0  0.72816  0.50000  0.13938  1.0000
  Sn  Sn6       1.0  0.80834  0.00000  0.14274  1.0000
  Sn  Sn7       1.0  0.25530  0.75305  0.04436  1.0000
  Sn  Sn8       1.0  0.25530  0.24695  0.04436  1.0000
  Pd  Pd1       1.0  0.00000  0.25000  0.95715  1.0000
  Pd  Pd2       1.0  0.00000  0.75000  0.95715  1.0000
  Pd  Pd3       1.0  0.50000  0.50000  0.87145  1.0000
  Pd  Pd4       1.0  0.50000  0.00000  0.87145  1.0000
  Pd  Pd5       1.0  0.98547  0.73245  0.12075  1.0000
  Pd  Pd6       1.0  0.98547  0.26755  0.12075  1.0000
  Pd  Pd7       1.0  0.51636  1.00000  0.04813  1.0000
  Pd  Pd8       1.0  0.49465  0.50000  0.04021  1.0000
  C   C1        1.0  0.50276  1.00000  0.15270  1.0000
