# generated using pymatgen
data_Li8Mg8Sn8Pd8C
_symmetry_space_group_name_H-M   'P 1'
_cell_length_a   9.22840000
_cell_length_b   6.52546000
_cell_length_c   26.92130000
_cell_angle_alpha   90.00000000
_cell_angle_beta   90.00000000
_cell_angle_gamma   90.00000000
_symmetry_Int_Tables_number   1
_chemical_formula_structural   Li8Mg8Sn8Pd8C
_chemical_formula_sum   'Li8 Mg8 Sn8 Pd8 C1'
_cell_volume   1621.18870774
_cell_formula_units_Z   1
loop_
 _symmetry_equiv_pos_site_id
 _symmetry_equiv_pos_as_xyz
  1  'x, y, z'
loop_
 _atom_site_type_symbol
 _atom_site_label
 _atom_site_symmetry_multiplicity
 _atom_site_fract_x
 _atom_site_fract_y
 _atom_site_fract_z
 _atom_site_occupancy
  Li  Li0  1  0.00000000  0.00000000  0.12855000  1.0
  Li  Li1  1  0.50000000  1.00000000  0.12855000  1.0
  Li  Li2  1  0.75000000  0.50000000  0.04285000  1.0
  Li  Li3  1  0.25000000  0.50000000  0.04285000  1.0
  Li  Li4  1  0.50000000  0.99003000  0.95254000  1.0
  Li  Li5  1  0.00000000  0.98534000  0.95858000  1.0
  Li  Li6  1  0.22688000  0.51403000  0.85011000  1.0
  Li  Li7  1  0.77312000  0.51403000  0.85011000  1.0
  Mg  Mg8  1  0.00000000  0.25000000  0.04285000  1.0
  Mg  Mg9  1  0.50000000  0.25000000  0.04285000  1.0
  Mg  Mg10  1  0.25000000  0.75000000  0.12855000  1.0
  Mg  Mg11  1  0.75000000  0.75000000  0.12855000  1.0
  Mg  Mg12  1  0.50000000  0.25451000  0.87140000  1.0
  Mg  Mg13  1  0.00000000  0.21728000  0.87421000  1.0
  Mg  Mg14  1  0.74453000  0.73342000  0.95559000  1.0
  Mg  Mg15  1  0.25547000  0.73342000  0.95559000  1.0
  Sn  Sn16  1  0.00000000  0.75000000  0.04285000  1.0
  Sn  Sn17  1  0.50000000  0.75000000  0.04285000  1.0
  Sn  Sn18  1  0.25000000  0.25000000  0.12855000  1.0
  Sn  Sn19  1  0.75000000  0.25000000  0.12855000  1.0
  Sn  Sn20  1  0.50000000  0.72816000  0.86062000  1.0
  Sn  Sn21  1  0.00000000  0.80834000  0.85726000  1.0
  Sn  Sn22  1  0.75305000  0.25530000  0.95564000  1.0
  Sn  Sn23  1  0.24695000  0.25530000  0.95564000  1.0
  Pd  Pd24  1  0.25000000  1.00000000  0.04285000  1.0
  Pd  Pd25  1  0.75000000  1.00000000  0.04285000  1.0
  Pd  Pd26  1  0.50000000  0.50000000  0.12855000  1.0
  Pd  Pd27  1  0.00000000  0.50000000  0.12855000  1.0
  Pd  Pd28  1  0.73245000  0.98547000  0.87925000  1.0
  Pd  Pd29  1  0.26755000  0.98547000  0.87925000  1.0
  Pd  Pd30  1  0.00000000  0.51636000  0.95187000  1.0
  Pd  Pd31  1  0.50000000  0.49465000  0.95979000  1.0
  C  C32  1  0.00000000  0.50276000  0.84730000  1.0
