# generated using pymatgen
data_Sc4Ga12C
_symmetry_space_group_name_H-M   'P 1'
_cell_length_a   8.31483000
_cell_length_b   5.87947000
_cell_length_c   24.40960000
_cell_angle_alpha   90.00000000
_cell_angle_beta   90.00000000
_cell_angle_gamma   90.00000000
_symmetry_Int_Tables_number   1
_chemical_formula_structural   Sc4Ga12C
_chemical_formula_sum   'Sc4 Ga12 C1'
_cell_volume   1193.30707560
_cell_formula_units_Z   1
loop_
 _symmetry_equiv_pos_site_id
 _symmetry_equiv_pos_as_xyz
  1  'x, y, z'
loop_
 _atom_site_type_symbol
 _atom_site_label
 _atom_site_symmetry_multiplicity
 _atom_site_fract_x
 _atom_site_fract_y
 _atom_site_fract_z
 _atom_site_occupancy
  Sc  Sc0  1  0.70636000  0.00185000  0.09072000  1.0
  Sc  Sc1  1  0.75000000  0.50000000  0.96989000  1.0
  Sc  Sc2  1  0.29364000  0.00185000  0.09072000  1.0
  Sc  Sc3  1  0.25000000  0.50000000  0.96989000  1.0
  Ga  Ga4  1  0.68400000  0.49804000  0.10907000  1.0
  Ga  Ga5  1  0.50000000  0.26757000  0.02526000  1.0
  Ga  Ga6  1  0.50000000  0.74003000  0.02319000  1.0
  Ga  Ga7  1  0.75000000  0.00000000  0.96989000  1.0
  Ga  Ga8  1  0.50000000  0.75000000  0.90967000  1.0
  Ga  Ga9  1  0.50000000  0.25000000  0.90967000  1.0
  Ga  Ga10  1  0.31600000  0.49804000  0.10907000  1.0
  Ga  Ga11  1  0.00000000  0.22095000  0.03224000  1.0
  Ga  Ga12  1  0.00000000  0.71147000  0.05028000  1.0
  Ga  Ga13  1  0.25000000  0.00000000  0.96989000  1.0
  Ga  Ga14  1  0.00000000  0.75000000  0.90967000  1.0
  Ga  Ga15  1  0.00000000  0.25000000  0.90967000  1.0
  C  C16  1  0.50000000  0.78171000  0.10805000  1.0
