# generated using pymatgen
data_Sc4Ga12C
_symmetry_space_group_name_H-M   Pm
_cell_length_a   5.87947000
_cell_length_b   8.31483000
_cell_length_c   24.40960000
_cell_angle_alpha   90.00000000
_cell_angle_beta   90.00000000
_cell_angle_gamma   90.00000000
_symmetry_Int_Tables_number   6
_chemical_formula_structural   Sc4Ga12C
_chemical_formula_sum   'Sc4 Ga12 C1'
_cell_volume   1193.30707560
_cell_formula_units_Z   1
loop_
 _symmetry_equiv_pos_site_id
 _symmetry_equiv_pos_as_xyz
  1  'x, y, z'
  2  'x, -y, z'
loop_
 _atom_site_type_symbol
 _atom_site_label
 _atom_site_symmetry_multiplicity
 _atom_site_fract_x
 _atom_site_fract_y
 _atom_site_fract_z
 _atom_site_occupancy
  Sc  Sc0  2  0.00185000  0.29364000  0.90928000  1.0
  Sc  Sc1  2  0.50000000  0.25000000  0.03011000  1.0
  Ga  Ga2  2  0.00000000  0.25000000  0.03011000  1.0
  Ga  Ga3  2  0.49804000  0.31600000  0.89093000  1.0
  Ga  Ga4  1  0.22095000  0.00000000  0.96776000  1.0
  Ga  Ga5  1  0.25000000  0.00000000  0.09033000  1.0
  Ga  Ga6  1  0.25000000  0.50000000  0.09033000  1.0
  Ga  Ga7  1  0.26757000  0.50000000  0.97474000  1.0
  Ga  Ga8  1  0.71147000  0.00000000  0.94972000  1.0
  Ga  Ga9  1  0.74003000  0.50000000  0.97681000  1.0
  Ga  Ga10  1  0.75000000  0.00000000  0.09033000  1.0
  Ga  Ga11  1  0.75000000  0.50000000  0.09033000  1.0
  C  C12  1  0.78171000  0.50000000  0.89195000  1.0
