# generated using pymatgen
data_Li8Mg8Al8Cu8CO
_symmetry_space_group_name_H-M   P1
_cell_length_a   6.19386000
_cell_length_b   8.75944000
_cell_length_c   26.56960000
_cell_angle_alpha   90.00000000
_cell_angle_beta   90.00000000
_cell_angle_gamma   90.00000000
_symmetry_Int_Tables_number   1
_chemical_formula_structural   Li8Mg8Al8Cu8CO
_chemical_formula_sum   'Li8 Mg8 Al8 Cu8 C1 O1'
_cell_volume   1441.52687377
_cell_formula_units_Z   1
loop_
 _symmetry_equiv_pos_site_id
 _symmetry_equiv_pos_as_xyz
  1  'x, y, z'
loop_
 _atom_site_type_symbol
 _atom_site_label
 _atom_site_symmetry_multiplicity
 _atom_site_fract_x
 _atom_site_fract_y
 _atom_site_fract_z
 _atom_site_occupancy
  Li  Li0  1  0.25000000  0.00000000  0.95879000  1.0
  Li  Li1  1  0.25000000  0.50000000  0.95879000  1.0
  Li  Li2  1  0.34213000  0.50209000  0.17084000  1.0
  Li  Li3  1  0.42366000  0.00079000  0.18828000  1.0
  Li  Li4  1  0.75000000  0.25000000  0.87637000  1.0
  Li  Li5  1  0.75000000  0.75000000  0.87637000  1.0
  Li  Li6  1  0.76263000  0.25469000  0.04128000  1.0
  Li  Li7  1  0.76470000  0.75381000  0.04400000  1.0
  Mg  Mg8  1  0.00000000  0.25000000  0.95879000  1.0
  Mg  Mg9  1  0.00000000  0.75000000  0.95879000  1.0
  Mg  Mg10  1  0.02206000  0.26017000  0.12661000  1.0
  Mg  Mg11  1  0.03699000  0.75570000  0.12962000  1.0
  Mg  Mg12  1  0.48769000  0.50586000  0.04542000  1.0
  Mg  Mg13  1  0.48858000  0.00108000  0.04424000  1.0
  Mg  Mg14  1  0.50000000  0.00000000  0.87637000  1.0
  Mg  Mg15  1  0.50000000  0.50000000  0.87637000  1.0
  Al  Al16  1  0.00000000  0.00000000  0.87637000  1.0
  Al  Al17  1  0.00000000  0.50000000  0.87637000  1.0
  Al  Al18  1  0.01494000  0.50355000  0.04617000  1.0
  Al  Al19  1  0.01567000  0.00491000  0.04544000  1.0
  Al  Al20  1  0.50000000  0.25000000  0.95879000  1.0
  Al  Al21  1  0.50000000  0.75000000  0.95879000  1.0
  Al  Al22  1  0.51907000  0.75587000  0.12548000  1.0
  Al  Al23  1  0.53289000  0.25112000  0.12216000  1.0
  Cu  Cu24  1  0.24600000  0.75410000  0.03840000  1.0
  Cu  Cu25  1  0.25000000  0.25000000  0.87637000  1.0
  Cu  Cu26  1  0.25000000  0.75000000  0.87637000  1.0
  Cu  Cu27  1  0.25452000  0.25413000  0.03906000  1.0
  Cu  Cu28  1  0.74904000  0.50793000  0.12007000  1.0
  Cu  Cu29  1  0.75000000  0.00000000  0.95879000  1.0
  Cu  Cu30  1  0.75000000  0.50000000  0.95879000  1.0
  Cu  Cu31  1  0.75583000  0.99852000  0.11830000  1.0
  C  C32  1  0.32517000  0.24398000  0.17985000  1.0
  O  O33  1  0.29567000  0.17636000  0.22055000  1.0
