data_image0
_chemical_formula_structural       Li8In16Ru8CO
_chemical_formula_sum              "Li8 In16 Ru8 C1 O1"
_cell_length_a       6.56971
_cell_length_b       9.29097
_cell_length_c       26.9682
_cell_angle_alpha    90
_cell_angle_beta     90
_cell_angle_gamma    90

_space_group_name_H-M_alt    "P 1"
_space_group_IT_number       1

loop_
  _space_group_symop_operation_xyz
  'x, y, z'

loop_
  _atom_site_type_symbol
  _atom_site_label
  _atom_site_symmetry_multiplicity
  _atom_site_fract_x
  _atom_site_fract_y
  _atom_site_fract_z
  _atom_site_occupancy
  Li  Li1       1.0  0.00000  0.00000  0.87081  1.0000
  Li  Li2       1.0  0.50000  0.25000  0.95694  1.0000
  Li  Li3       1.0  0.50000  0.75000  0.95694  1.0000
  Li  Li4       1.0  0.00000  0.50000  0.87081  1.0000
  Li  Li5       1.0  0.99826  0.50001  0.04374  1.0000
  Li  Li6       1.0  0.49553  0.74985  0.13145  1.0000
  Li  Li7       1.0  0.49553  0.25014  0.13145  1.0000
  Li  Li8       1.0  0.99766  0.99999  0.04318  1.0000
  In  In1       1.0  0.25000  0.00000  0.95694  1.0000
  In  In2       1.0  0.75000  0.50000  0.95694  1.0000
  In  In3       1.0  0.75000  0.00000  0.95694  1.0000
  In  In4       1.0  0.25000  0.50000  0.95694  1.0000
  In  In5       1.0  0.75000  0.75000  0.87081  1.0000
  In  In6       1.0  0.25000  0.25000  0.87081  1.0000
  In  In7       1.0  0.25000  0.75000  0.87081  1.0000
  In  In8       1.0  0.75000  0.25000  0.87081  1.0000
  In  In9       1.0  0.23195  0.50005  0.13504  1.0000
  In  In10      1.0  0.76170  0.99995  0.13456  1.0000
  In  In11      1.0  0.76022  0.50004  0.13464  1.0000
  In  In12      1.0  0.23231  0.99995  0.13320  1.0000
  In  In13      1.0  0.74690  0.25010  0.04240  1.0000
  In  In14      1.0  0.24908  0.74967  0.04249  1.0000
  In  In15      1.0  0.24911  0.25033  0.04248  1.0000
  In  In16      1.0  0.74692  0.74989  0.04241  1.0000
  Ru  Ru1       1.0  0.00000  0.75000  0.95694  1.0000
  Ru  Ru2       1.0  0.50000  0.00000  0.87081  1.0000
  Ru  Ru3       1.0  0.00000  0.25000  0.95694  1.0000
  Ru  Ru4       1.0  0.50000  0.50000  0.87081  1.0000
  Ru  Ru5       1.0  0.99687  0.25016  0.12300  1.0000
  Ru  Ru6       1.0  0.49815  0.49998  0.04526  1.0000
  Ru  Ru7       1.0  0.99689  0.74984  0.12300  1.0000
  Ru  Ru8       1.0  0.49805  0.00002  0.04535  1.0000
  C   C1        1.0  0.37104  0.00001  0.26652  1.0000
  O   O1        1.0  0.22858  1.00000  0.29039  1.0000
