data_image0
_chemical_formula_structural       LiVGePdLiVGePdLiVGePdLiVGePdC
_chemical_formula_sum              "Li4 V4 Ge4 Pd4 C1"
_cell_length_a       5.49597
_cell_length_b       8.64114
_cell_length_c       23.6506
_cell_angle_alpha    90
_cell_angle_beta     90
_cell_angle_gamma    90

_space_group_name_H-M_alt    "P 1"
_space_group_IT_number       1

loop_
  _space_group_symop_operation_xyz
  'x, y, z'

loop_
  _atom_site_type_symbol
  _atom_site_label
  _atom_site_symmetry_multiplicity
  _atom_site_fract_x
  _atom_site_fract_y
  _atom_site_fract_z
  _atom_site_occupancy
  Li  Li1       1.0  0.50000  0.00000  0.92282  1.0000
  V   V1        1.0  0.13390  0.25000  0.97427  1.0000
  Ge  Ge1       1.0  0.00000  0.00000  0.92282  1.0000
  Pd  Pd1       1.0  0.63390  0.25000  0.97427  1.0000
  Li  Li2       1.0  0.76781  0.00000  0.02573  1.0000
  V   V2        1.0  0.40171  0.25000  0.07718  1.0000
  Ge  Ge2       1.0  0.26781  0.00000  0.02573  1.0000
  Pd  Pd2       1.0  0.90171  0.25000  0.07718  1.0000
  Li  Li3       1.0  0.50000  0.50000  0.92282  1.0000
  V   V3        1.0  0.13390  0.75000  0.97427  1.0000
  Ge  Ge3       1.0  0.00000  0.50000  0.92282  1.0000
  Pd  Pd3       1.0  0.63390  0.75000  0.97427  1.0000
  Li  Li4       1.0  0.76781  0.50000  0.02573  1.0000
  V   V4        1.0  0.40171  0.75000  0.07718  1.0000
  Ge  Ge4       1.0  0.26781  0.50000  0.02573  1.0000
  Pd  Pd4       1.0  0.90171  0.75000  0.07718  1.0000
  C   C1        1.0  0.26781  0.00000  0.11100  1.0000
