# generated using pymatgen
data_Li16In8Rh8C
_symmetry_space_group_name_H-M   Pm
_cell_length_a   6.34973000
_cell_length_b   8.97987000
_cell_length_c   26.73490000
_cell_angle_alpha   90.00000000
_cell_angle_beta   90.00000000
_cell_angle_gamma   90.00000000
_symmetry_Int_Tables_number   6
_chemical_formula_structural   Li16In8Rh8C
_chemical_formula_sum   'Li16 In8 Rh8 C1'
_cell_volume   1524.41731254
_cell_formula_units_Z   1
loop_
 _symmetry_equiv_pos_site_id
 _symmetry_equiv_pos_as_xyz
  1  'x, y, z'
  2  'x, -y, z'
loop_
 _atom_site_type_symbol
 _atom_site_label
 _atom_site_symmetry_multiplicity
 _atom_site_fract_x
 _atom_site_fract_y
 _atom_site_fract_z
 _atom_site_occupancy
  Li  Li0  2  0.00000000  0.25000000  0.95801000  1.0
  Li  Li1  2  0.03431000  0.24507000  0.12189000  1.0
  Li  Li2  2  0.25000000  0.25000000  0.87404000  1.0
  Li  Li3  2  0.25488000  0.25742000  0.03749000  1.0
  Li  Li4  1  0.47876000  0.00000000  0.04458000  1.0
  Li  Li5  1  0.50000000  0.00000000  0.87404000  1.0
  Li  Li6  1  0.50000000  0.50000000  0.87404000  1.0
  Li  Li7  1  0.52283000  0.50000000  0.03883000  1.0
  Li  Li8  1  0.73409000  0.50000000  0.12876000  1.0
  Li  Li9  1  0.75000000  0.00000000  0.95801000  1.0
  Li  Li10  1  0.75000000  0.50000000  0.95801000  1.0
  Li  Li11  1  0.77419000  0.00000000  0.13156000  1.0
  In  In12  2  0.75000000  0.25000000  0.87404000  1.0
  In  In13  2  0.75841000  0.24090000  0.04173000  1.0
  In  In14  1  0.17653000  0.00000000  0.17986000  1.0
  In  In15  1  0.25000000  0.00000000  0.95801000  1.0
  In  In16  1  0.25000000  0.50000000  0.95801000  1.0
  In  In17  1  0.27991000  0.50000000  0.12499000  1.0
  Rh  Rh18  2  0.46005000  0.20517000  0.11865000  1.0
  Rh  Rh19  2  0.50000000  0.25000000  0.95801000  1.0
  Rh  Rh20  1  0.00000000  0.00000000  0.87404000  1.0
  Rh  Rh21  1  0.00000000  0.50000000  0.87404000  1.0
  Rh  Rh22  1  0.03035000  0.00000000  0.04958000  1.0
  Rh  Rh23  1  0.99865000  0.50000000  0.04716000  1.0
  C  C24  1  0.45656000  0.00000000  0.12448000  1.0
