# generated using pymatgen
data_K12Pd4C
_symmetry_space_group_name_H-M   P1
_cell_length_a   7.83179000
_cell_length_b   11.07580000
_cell_length_c   25.87380000
_cell_angle_alpha   90.00000000
_cell_angle_beta   90.00000000
_cell_angle_gamma   90.00000000
_symmetry_Int_Tables_number   1
_chemical_formula_structural   K12Pd4C
_chemical_formula_sum   'K12 Pd4 C1'
_cell_volume   2244.37982226
_cell_formula_units_Z   1
loop_
 _symmetry_equiv_pos_site_id
 _symmetry_equiv_pos_as_xyz
  1  'x, y, z'
loop_
 _atom_site_type_symbol
 _atom_site_label
 _atom_site_symmetry_multiplicity
 _atom_site_fract_x
 _atom_site_fract_y
 _atom_site_fract_z
 _atom_site_occupancy
  K  K0  1  0.00000000  0.00000000  0.03784000  1.0
  K  K1  1  0.00000000  0.50000000  0.03784000  1.0
  K  K2  1  0.24491000  0.75076000  0.95544000  1.0
  K  K3  1  0.25000000  0.25000000  0.11351000  1.0
  K  K4  1  0.25000000  0.75000000  0.11351000  1.0
  K  K5  1  0.27503000  0.24967000  0.95153000  1.0
  K  K6  1  0.57072000  0.54223000  0.85199000  1.0
  K  K7  1  0.57090000  0.95815000  0.85198000  1.0
  K  K8  1  0.68178000  0.75026000  0.97919000  1.0
  K  K9  1  0.73531000  0.24958000  0.95620000  1.0
  K  K10  1  0.75000000  0.25000000  0.11351000  1.0
  K  K11  1  0.75000000  0.75000000  0.11351000  1.0
  Pd  Pd12  1  0.50000000  0.00000000  0.03784000  1.0
  Pd  Pd13  1  0.50000000  0.50000000  0.03784000  1.0
  Pd  Pd14  1  0.93794000  0.60026000  0.89963000  1.0
  Pd  Pd15  1  0.93873000  0.90274000  0.89982000  1.0
  C  C16  1  0.84932000  0.75167000  0.87873000  1.0
