# generated using pymatgen
data_Al4Ni12C
_symmetry_space_group_name_H-M   Pm
_cell_length_a   7.20976000
_cell_length_b   5.09807000
_cell_length_c   23.82360000
_cell_angle_alpha   90.00000000
_cell_angle_beta   90.00000000
_cell_angle_gamma   90.00000000
_symmetry_Int_Tables_number   6
_chemical_formula_structural   Al4Ni12C
_chemical_formula_sum   'Al4 Ni12 C1'
_cell_volume   875.65693401
_cell_formula_units_Z   1
loop_
 _symmetry_equiv_pos_site_id
 _symmetry_equiv_pos_as_xyz
  1  'x, y, z'
  2  'x, -y, z'
loop_
 _atom_site_type_symbol
 _atom_site_label
 _atom_site_symmetry_multiplicity
 _atom_site_fract_x
 _atom_site_fract_y
 _atom_site_fract_z
 _atom_site_occupancy
  Al  Al0  1  0.00000000  0.00000000  0.91975000  1.0
  Al  Al1  1  0.00000000  0.50000000  0.01473000  1.0
  Al  Al2  1  0.49996000  0.50000000  0.03615000  1.0
  Al  Al3  1  0.50000000  0.00000000  0.91975000  1.0
  Ni  Ni4  2  0.19191000  0.25536000  0.08159000  1.0
  Ni  Ni5  2  0.25000000  0.25000000  0.97325000  1.0
  Ni  Ni6  2  0.75000000  0.25000000  0.97325000  1.0
  Ni  Ni7  2  0.80794000  0.25538000  0.08156000  1.0
  Ni  Ni8  1  0.00000000  0.50000000  0.91975000  1.0
  Ni  Ni9  1  0.50000000  0.00000000  0.03361000  1.0
  Ni  Ni10  1  0.50000000  0.50000000  0.91975000  1.0
  Ni  Ni11  1  0.99999000  0.00000000  0.01914000  1.0
  C  C12  1  0.99992000  0.50000000  0.10231000  1.0
