# generated using pymatgen
data_Li4Sc4Al4In4CO
_symmetry_space_group_name_H-M   'P 1'
_cell_length_a   8.37392000
_cell_length_b   6.08380000
_cell_length_c   24.56130000
_cell_angle_alpha   90.00000000
_cell_angle_beta   90.00000000
_cell_angle_gamma   90.00000000
_symmetry_Int_Tables_number   1
_chemical_formula_structural   Li4Sc4Al4In4CO
_chemical_formula_sum   'Li4 Sc4 Al4 In4 C1 O1'
_cell_volume   1251.28167925
_cell_formula_units_Z   1
loop_
 _symmetry_equiv_pos_site_id
 _symmetry_equiv_pos_as_xyz
  1  'x, y, z'
loop_
 _atom_site_type_symbol
 _atom_site_label
 _atom_site_symmetry_multiplicity
 _atom_site_fract_x
 _atom_site_fract_y
 _atom_site_fract_z
 _atom_site_occupancy
  Li  Li0  1  0.75000000  0.50000000  0.90714000  1.0
  Li  Li1  1  0.75078000  0.04352000  0.03132000  1.0
  Li  Li2  1  0.25000000  0.50000000  0.90714000  1.0
  Li  Li3  1  0.24922000  0.04352000  0.03132000  1.0
  Sc  Sc4  1  0.50000000  0.75642000  0.96905000  1.0
  Sc  Sc5  1  0.50000000  0.32198000  0.09511000  1.0
  Sc  Sc6  1  0.00000000  0.75642000  0.96905000  1.0
  Sc  Sc7  1  0.00000000  0.32659000  0.09593000  1.0
  Al  Al8  1  0.75000000  0.00000000  0.90714000  1.0
  Al  Al9  1  0.75127000  0.53942000  0.03295000  1.0
  Al  Al10  1  0.25000000  0.00000000  0.90714000  1.0
  Al  Al11  1  0.24873000  0.53942000  0.03295000  1.0
  In  In12  1  0.50000000  0.25642000  0.96905000  1.0
  In  In13  1  0.50000000  0.81568000  0.10087000  1.0
  In  In14  1  0.00000000  0.25642000  0.96905000  1.0
  In  In15  1  0.00000000  0.81853000  0.09973000  1.0
  C  C16  1  0.50000000  0.28468000  0.18881000  1.0
  O  O17  1  0.50000000  0.26611000  0.23536000  1.0
