# generated using pymatgen
data_Li4Sc4Al4In4CO
_symmetry_space_group_name_H-M   Pm
_cell_length_a   6.08380000
_cell_length_b   8.37392000
_cell_length_c   24.56130000
_cell_angle_alpha   90.00000000
_cell_angle_beta   90.00000000
_cell_angle_gamma   90.00000000
_symmetry_Int_Tables_number   6
_chemical_formula_structural   Li4Sc4Al4In4CO
_chemical_formula_sum   'Li4 Sc4 Al4 In4 C1 O1'
_cell_volume   1251.28167925
_cell_formula_units_Z   1
loop_
 _symmetry_equiv_pos_site_id
 _symmetry_equiv_pos_as_xyz
  1  'x, y, z'
  2  'x, -y, z'
loop_
 _atom_site_type_symbol
 _atom_site_label
 _atom_site_symmetry_multiplicity
 _atom_site_fract_x
 _atom_site_fract_y
 _atom_site_fract_z
 _atom_site_occupancy
  Li  Li0  2  0.04352000  0.24922000  0.96868000  1.0
  Li  Li1  2  0.50000000  0.25000000  0.09286000  1.0
  Sc  Sc2  1  0.32198000  0.50000000  0.90489000  1.0
  Sc  Sc3  1  0.32659000  0.00000000  0.90407000  1.0
  Sc  Sc4  1  0.75642000  0.00000000  0.03095000  1.0
  Sc  Sc5  1  0.75642000  0.50000000  0.03095000  1.0
  Al  Al6  2  0.00000000  0.25000000  0.09286000  1.0
  Al  Al7  2  0.53942000  0.24873000  0.96705000  1.0
  In  In8  1  0.25642000  0.00000000  0.03095000  1.0
  In  In9  1  0.25642000  0.50000000  0.03095000  1.0
  In  In10  1  0.81568000  0.50000000  0.89913000  1.0
  In  In11  1  0.81853000  0.00000000  0.90027000  1.0
  C  C12  1  0.28468000  0.50000000  0.81119000  1.0
  O  O13  1  0.26611000  0.50000000  0.76464000  1.0
