# generated using pymatgen
data_Ta8Al8Co16C
_symmetry_space_group_name_H-M   Pm
_cell_length_a   5.95946000
_cell_length_b   8.42794000
_cell_length_c   26.32100000
_cell_angle_alpha   90.00000000
_cell_angle_beta   90.00000000
_cell_angle_gamma   90.00000000
_symmetry_Int_Tables_number   6
_chemical_formula_structural   Ta8Al8Co16C
_chemical_formula_sum   'Ta8 Al8 Co16 C1'
_cell_volume   1321.99779091
_cell_formula_units_Z   1
loop_
 _symmetry_equiv_pos_site_id
 _symmetry_equiv_pos_as_xyz
  1  'x, y, z'
  2  'x, -y, z'
loop_
 _atom_site_type_symbol
 _atom_site_label
 _atom_site_symmetry_multiplicity
 _atom_site_fract_x
 _atom_site_fract_y
 _atom_site_fract_z
 _atom_site_occupancy
  Ta  Ta0  2  0.00000000  0.25000000  0.87993000  1.0
  Ta  Ta1  2  0.99808000  0.25175000  0.04225000  1.0
  Ta  Ta2  1  0.49917000  0.50000000  0.11989000  1.0
  Ta  Ta3  1  0.50000000  0.00000000  0.95998000  1.0
  Ta  Ta4  1  0.50000000  0.50000000  0.95998000  1.0
  Ta  Ta5  1  0.52656000  0.00000000  0.11925000  1.0
  Al  Al6  2  0.49981000  0.25000000  0.04138000  1.0
  Al  Al7  2  0.50000000  0.25000000  0.87993000  1.0
  Al  Al8  1  0.00000000  0.00000000  0.95998000  1.0
  Al  Al9  1  0.00000000  0.50000000  0.95998000  1.0
  Al  Al10  1  0.00108000  0.50000000  0.12219000  1.0
  Al  Al11  1  0.97324000  0.00000000  0.12076000  1.0
  Co  Co12  2  0.24641000  0.24333000  0.11872000  1.0
  Co  Co13  2  0.25000000  0.25000000  0.95998000  1.0
  Co  Co14  2  0.74994000  0.25708000  0.11521000  1.0
  Co  Co15  2  0.75000000  0.25000000  0.95998000  1.0
  Co  Co16  1  0.25000000  0.00000000  0.87993000  1.0
  Co  Co17  1  0.25000000  0.50000000  0.87993000  1.0
  Co  Co18  1  0.25134000  0.00000000  0.03868000  1.0
  Co  Co19  1  0.25553000  0.50000000  0.04069000  1.0
  Co  Co20  1  0.74504000  0.50000000  0.04067000  1.0
  Co  Co21  1  0.75000000  0.00000000  0.87993000  1.0
  Co  Co22  1  0.75000000  0.50000000  0.87993000  1.0
  Co  Co23  1  0.75761000  0.00000000  0.03570000  1.0
  C  C24  1  0.25120000  0.00000000  0.15704000  1.0
