# generated using pymatgen
data_Li8Mg8Ga8Pd8CO
_symmetry_space_group_name_H-M   'P 1'
_cell_length_a   8.87710000
_cell_length_b   6.27706000
_cell_length_c   26.65780000
_cell_angle_alpha   90.00000000
_cell_angle_beta   90.00000000
_cell_angle_gamma   90.00000000
_symmetry_Int_Tables_number   1
_chemical_formula_structural   Li8Mg8Ga8Pd8CO
_chemical_formula_sum   'Li8 Mg8 Ga8 Pd8 C1 O1'
_cell_volume   1485.42831283
_cell_formula_units_Z   1
loop_
 _symmetry_equiv_pos_site_id
 _symmetry_equiv_pos_as_xyz
  1  'x, y, z'
loop_
 _atom_site_type_symbol
 _atom_site_label
 _atom_site_symmetry_multiplicity
 _atom_site_fract_x
 _atom_site_fract_y
 _atom_site_fract_z
 _atom_site_occupancy
  Li  Li0  1  0.00000000  0.25000000  0.04163000  1.0
  Li  Li1  1  0.50000000  0.25000000  0.04163000  1.0
  Li  Li2  1  0.25000000  0.75000000  0.12488000  1.0
  Li  Li3  1  0.75000000  0.75000000  0.12488000  1.0
  Li  Li4  1  0.50000000  0.27580000  0.86575000  1.0
  Li  Li5  1  0.00000000  0.27383000  0.86946000  1.0
  Li  Li6  1  0.74984000  0.75430000  0.95816000  1.0
  Li  Li7  1  0.25016000  0.75430000  0.95816000  1.0
  Mg  Mg8  1  0.25000000  0.00000000  0.04163000  1.0
  Mg  Mg9  1  0.75000000  0.00000000  0.04163000  1.0
  Mg  Mg10  1  0.50000000  0.50000000  0.12488000  1.0
  Mg  Mg11  1  0.00000000  0.50000000  0.12488000  1.0
  Mg  Mg12  1  0.75048000  0.98246000  0.86827000  1.0
  Mg  Mg13  1  0.24952000  0.98246000  0.86827000  1.0
  Mg  Mg14  1  0.00000000  0.48997000  0.96088000  1.0
  Mg  Mg15  1  0.50000000  0.49100000  0.95924000  1.0
  Ga  Ga16  1  0.00000000  0.00000000  0.12488000  1.0
  Ga  Ga17  1  0.50000000  0.00000000  0.12488000  1.0
  Ga  Ga18  1  0.75000000  0.50000000  0.04163000  1.0
  Ga  Ga19  1  0.25000000  0.50000000  0.04163000  1.0
  Ga  Ga20  1  0.50000000  0.00366000  0.95596000  1.0
  Ga  Ga21  1  0.00000000  0.00249000  0.95698000  1.0
  Ga  Ga22  1  0.25168000  0.51591000  0.87290000  1.0
  Ga  Ga23  1  0.74832000  0.51591000  0.87290000  1.0
  Pd  Pd24  1  0.00000000  0.75000000  0.04163000  1.0
  Pd  Pd25  1  0.50000000  0.75000000  0.04163000  1.0
  Pd  Pd26  1  0.25000000  0.25000000  0.12488000  1.0
  Pd  Pd27  1  0.75000000  0.25000000  0.12488000  1.0
  Pd  Pd28  1  0.50000000  0.73837000  0.87985000  1.0
  Pd  Pd29  1  0.00000000  0.73272000  0.88204000  1.0
  Pd  Pd30  1  0.75091000  0.24101000  0.95375000  1.0
  Pd  Pd31  1  0.24909000  0.24101000  0.95375000  1.0
  C  C32  1  0.00000000  0.23183000  0.79361000  1.0
  O  O33  1  0.00000000  0.22774000  0.75061000  1.0
