# generated using pymatgen
data_Li8Mg8Ga8Pd8CO
_symmetry_space_group_name_H-M   Pm
_cell_length_a   6.27706000
_cell_length_b   8.87710000
_cell_length_c   26.65780000
_cell_angle_alpha   90.00000000
_cell_angle_beta   90.00000000
_cell_angle_gamma   90.00000000
_symmetry_Int_Tables_number   6
_chemical_formula_structural   Li8Mg8Ga8Pd8CO
_chemical_formula_sum   'Li8 Mg8 Ga8 Pd8 C1 O1'
_cell_volume   1485.42831283
_cell_formula_units_Z   1
loop_
 _symmetry_equiv_pos_site_id
 _symmetry_equiv_pos_as_xyz
  1  'x, y, z'
  2  'x, -y, z'
loop_
 _atom_site_type_symbol
 _atom_site_label
 _atom_site_symmetry_multiplicity
 _atom_site_fract_x
 _atom_site_fract_y
 _atom_site_fract_z
 _atom_site_occupancy
  Li  Li0  2  0.75000000  0.25000000  0.87512000  1.0
  Li  Li1  2  0.75430000  0.25016000  0.04184000  1.0
  Li  Li2  1  0.25000000  0.00000000  0.95837000  1.0
  Li  Li3  1  0.25000000  0.50000000  0.95837000  1.0
  Li  Li4  1  0.27383000  0.00000000  0.13054000  1.0
  Li  Li5  1  0.27580000  0.50000000  0.13425000  1.0
  Mg  Mg6  2  0.00000000  0.25000000  0.95837000  1.0
  Mg  Mg7  2  0.98246000  0.24952000  0.13173000  1.0
  Mg  Mg8  1  0.48997000  0.00000000  0.03912000  1.0
  Mg  Mg9  1  0.49100000  0.50000000  0.04076000  1.0
  Mg  Mg10  1  0.50000000  0.00000000  0.87512000  1.0
  Mg  Mg11  1  0.50000000  0.50000000  0.87512000  1.0
  Ga  Ga12  2  0.50000000  0.25000000  0.95837000  1.0
  Ga  Ga13  2  0.51591000  0.25168000  0.12710000  1.0
  Ga  Ga14  1  0.00000000  0.00000000  0.87512000  1.0
  Ga  Ga15  1  0.00000000  0.50000000  0.87512000  1.0
  Ga  Ga16  1  0.00249000  0.00000000  0.04302000  1.0
  Ga  Ga17  1  0.00366000  0.50000000  0.04404000  1.0
  Pd  Pd18  2  0.24101000  0.24909000  0.04625000  1.0
  Pd  Pd19  2  0.25000000  0.25000000  0.87512000  1.0
  Pd  Pd20  1  0.73272000  0.00000000  0.11796000  1.0
  Pd  Pd21  1  0.73837000  0.50000000  0.12015000  1.0
  Pd  Pd22  1  0.75000000  0.00000000  0.95837000  1.0
  Pd  Pd23  1  0.75000000  0.50000000  0.95837000  1.0
  C  C24  1  0.23183000  0.00000000  0.20639000  1.0
  O  O25  1  0.22774000  0.00000000  0.24939000  1.0
