# generated using pymatgen
data_LiInPdRu
_symmetry_space_group_name_H-M   'P 1'
_cell_length_a   8.93846000
_cell_length_b   6.32045000
_cell_length_c   26.70380000
_cell_angle_alpha   90.00000000
_cell_angle_beta   90.00000000
_cell_angle_gamma   90.00000000
_symmetry_Int_Tables_number   1
_chemical_formula_structural   LiInPdRu
_chemical_formula_sum   'Li8 In8 Pd8 Ru8'
_cell_volume   1508.63357118
_cell_formula_units_Z   8
loop_
 _symmetry_equiv_pos_site_id
 _symmetry_equiv_pos_as_xyz
  1  'x, y, z'
loop_
 _atom_site_type_symbol
 _atom_site_label
 _atom_site_symmetry_multiplicity
 _atom_site_fract_x
 _atom_site_fract_y
 _atom_site_fract_z
 _atom_site_occupancy
  Li  Li0  1  0.25000000  1.00000000  0.04184000  1.0
  Li  Li1  1  0.75000000  1.00000000  0.04184000  1.0
  Li  Li2  1  0.50000000  0.50000000  0.12552000  1.0
  Li  Li3  1  0.00000000  0.50000000  0.12552000  1.0
  Li  Li4  1  0.75001000  0.99809000  0.86850000  1.0
  Li  Li5  1  0.24999000  0.99809000  0.86850000  1.0
  Li  Li6  1  0.00000000  0.49800000  0.95885000  1.0
  Li  Li7  1  0.50000000  0.49800000  0.95886000  1.0
  In  In8  1  0.00000000  0.00000000  0.12552000  1.0
  In  In9  1  0.50000000  1.00000000  0.12552000  1.0
  In  In10  1  0.75000000  0.50000000  0.04184000  1.0
  In  In11  1  0.25000000  0.50000000  0.04184000  1.0
  In  In12  1  0.50000000  0.99894000  0.95983000  1.0
  In  In13  1  0.00000000  0.99893000  0.95984000  1.0
  In  In14  1  0.24999000  0.49013000  0.86709000  1.0
  In  In15  1  0.75001000  0.49013000  0.86709000  1.0
  Pd  Pd16  1  0.00000000  0.75000000  0.04184000  1.0
  Pd  Pd17  1  0.50000000  0.75000000  0.04184000  1.0
  Pd  Pd18  1  0.25000000  0.25000000  0.12552000  1.0
  Pd  Pd19  1  0.75000000  0.25000000  0.12552000  1.0
  Pd  Pd20  1  0.50000000  0.74449000  0.87874000  1.0
  Pd  Pd21  1  0.00000000  0.74455000  0.87874000  1.0
  Pd  Pd22  1  0.75001000  0.25293000  0.95723000  1.0
  Pd  Pd23  1  0.24999000  0.25293000  0.95723000  1.0
  Ru  Ru24  1  0.00000000  0.25000000  0.04184000  1.0
  Ru  Ru25  1  0.50000000  0.25000000  0.04184000  1.0
  Ru  Ru26  1  0.25000000  0.75000000  0.12552000  1.0
  Ru  Ru27  1  0.75000000  0.75000000  0.12552000  1.0
  Ru  Ru28  1  0.50000000  0.25344000  0.87951000  1.0
  Ru  Ru29  1  0.00000000  0.25324000  0.87950000  1.0
  Ru  Ru30  1  0.74999000  0.74492000  0.95421000  1.0
  Ru  Ru31  1  0.25001000  0.74492000  0.95421000  1.0
