# generated using pymatgen
data_Ta8Ga8Ni16CO
_symmetry_space_group_name_H-M   'P 1'
_cell_length_a   8.48992000
_cell_length_b   6.00328000
_cell_length_c   26.36740000
_cell_angle_alpha   90.00000000
_cell_angle_beta   90.00000000
_cell_angle_gamma   90.00000000
_symmetry_Int_Tables_number   1
_chemical_formula_structural   Ta8Ga8Ni16CO
_chemical_formula_sum   'Ta8 Ga8 Ni16 C1 O1'
_cell_volume   1343.87695099
_cell_formula_units_Z   1
loop_
 _symmetry_equiv_pos_site_id
 _symmetry_equiv_pos_as_xyz
  1  'x, y, z'
loop_
 _atom_site_type_symbol
 _atom_site_label
 _atom_site_symmetry_multiplicity
 _atom_site_fract_x
 _atom_site_fract_y
 _atom_site_fract_z
 _atom_site_occupancy
  Ta  Ta0  1  0.00000000  0.00000000  0.12074000  1.0
  Ta  Ta1  1  0.25000000  0.50000000  0.04025000  1.0
  Ta  Ta2  1  0.75000000  0.50000000  0.04025000  1.0
  Ta  Ta3  1  0.50000000  0.00000000  0.12074000  1.0
  Ta  Ta4  1  0.50210000  0.00000000  0.95864000  1.0
  Ta  Ta5  1  0.74998000  0.50000000  0.87928000  1.0
  Ta  Ta6  1  0.24998000  0.50000000  0.88278000  1.0
  Ta  Ta7  1  0.99789000  0.00000000  0.95864000  1.0
  Ga  Ga8  1  0.75000000  0.00000000  0.04025000  1.0
  Ga  Ga9  1  0.00000000  0.50000000  0.12074000  1.0
  Ga  Ga10  1  0.25000000  0.00000000  0.04025000  1.0
  Ga  Ga11  1  0.50000000  0.50000000  0.12074000  1.0
  Ga  Ga12  1  0.24997000  0.00000000  0.87646000  1.0
  Ga  Ga13  1  0.49920000  0.50000000  0.96221000  1.0
  Ga  Ga14  1  0.74998000  0.00000000  0.87631000  1.0
  Ga  Ga15  1  0.00079000  0.50000000  0.96221000  1.0
  Ni  Ni16  1  0.00000000  0.74999000  0.04025000  1.0
  Ni  Ni17  1  0.50000000  0.24999000  0.04025000  1.0
  Ni  Ni18  1  0.00000000  0.25001000  0.04025000  1.0
  Ni  Ni19  1  0.50000000  0.75001000  0.04025000  1.0
  Ni  Ni20  1  0.75000000  0.24999000  0.12074000  1.0
  Ni  Ni21  1  0.25000000  0.74999000  0.12074000  1.0
  Ni  Ni22  1  0.75000000  0.75001000  0.12074000  1.0
  Ni  Ni23  1  0.25000000  0.25001000  0.12074000  1.0
  Ni  Ni24  1  0.50113000  0.73568000  0.88427000  1.0
  Ni  Ni25  1  0.99886000  0.26431000  0.88427000  1.0
  Ni  Ni26  1  0.50113000  0.26432000  0.88427000  1.0
  Ni  Ni27  1  0.99886000  0.73569000  0.88427000  1.0
  Ni  Ni28  1  0.25000000  0.24447000  0.95895000  1.0
  Ni  Ni29  1  0.75000000  0.74362000  0.95786000  1.0
  Ni  Ni30  1  0.25000000  0.75553000  0.95895000  1.0
  Ni  Ni31  1  0.75000000  0.25638000  0.95786000  1.0
  C  C32  1  0.24994000  0.00000000  0.79683000  1.0
  O  O33  1  0.25000000  0.00000000  0.75330000  1.0
