# generated using pymatgen
data_Ta8Ga8Ni16CO
_symmetry_space_group_name_H-M   Pm
_cell_length_a   8.48992000
_cell_length_b   6.00328000
_cell_length_c   26.36740000
_cell_angle_alpha   90.00000000
_cell_angle_beta   90.00000000
_cell_angle_gamma   90.00000000
_symmetry_Int_Tables_number   6
_chemical_formula_structural   Ta8Ga8Ni16CO
_chemical_formula_sum   'Ta8 Ga8 Ni16 C1 O1'
_cell_volume   1343.87695099
_cell_formula_units_Z   1
loop_
 _symmetry_equiv_pos_site_id
 _symmetry_equiv_pos_as_xyz
  1  'x, y, z'
  2  'x, -y, z'
loop_
 _atom_site_type_symbol
 _atom_site_label
 _atom_site_symmetry_multiplicity
 _atom_site_fract_x
 _atom_site_fract_y
 _atom_site_fract_z
 _atom_site_occupancy
  Ta  Ta0  1  0.00000000  0.00000000  0.87926000  1.0
  Ta  Ta1  1  0.24998000  0.50000000  0.11722000  1.0
  Ta  Ta2  1  0.25000000  0.50000000  0.95975000  1.0
  Ta  Ta3  1  0.50000000  0.00000000  0.87926000  1.0
  Ta  Ta4  1  0.50210000  0.00000000  0.04136000  1.0
  Ta  Ta5  1  0.74998000  0.50000000  0.12072000  1.0
  Ta  Ta6  1  0.75000000  0.50000000  0.95975000  1.0
  Ta  Ta7  1  0.99789000  0.00000000  0.04136000  1.0
  Ga  Ga8  1  0.00000000  0.50000000  0.87926000  1.0
  Ga  Ga9  1  0.00079000  0.50000000  0.03779000  1.0
  Ga  Ga10  1  0.24997000  0.00000000  0.12354000  1.0
  Ga  Ga11  1  0.25000000  0.00000000  0.95975000  1.0
  Ga  Ga12  1  0.49920000  0.50000000  0.03779000  1.0
  Ga  Ga13  1  0.50000000  0.50000000  0.87926000  1.0
  Ga  Ga14  1  0.74998000  0.00000000  0.12369000  1.0
  Ga  Ga15  1  0.75000000  0.00000000  0.95975000  1.0
  Ni  Ni16  2  0.00000000  0.25001000  0.95975000  1.0
  Ni  Ni17  2  0.25000000  0.24447000  0.04105000  1.0
  Ni  Ni18  2  0.25000000  0.25001000  0.87926000  1.0
  Ni  Ni19  2  0.50000000  0.24999000  0.95975000  1.0
  Ni  Ni20  2  0.50113000  0.26432000  0.11573000  1.0
  Ni  Ni21  2  0.75000000  0.24999000  0.87926000  1.0
  Ni  Ni22  2  0.75000000  0.25638000  0.04214000  1.0
  Ni  Ni23  2  0.99886000  0.26431000  0.11573000  1.0
  C  C24  1  0.24994000  0.00000000  0.20317000  1.0
  O  O25  1  0.25000000  0.00000000  0.24670000  1.0
