# generated using pymatgen
data_Mg8Ag8C
_symmetry_space_group_name_H-M   'P 1'
_cell_length_a   6.75388000
_cell_length_b   6.75388000
_cell_length_c   25.06540000
_cell_angle_alpha   90.00000000
_cell_angle_beta   90.00000000
_cell_angle_gamma   90.00000000
_symmetry_Int_Tables_number   1
_chemical_formula_structural   Mg8Ag8C
_chemical_formula_sum   'Mg8 Ag8 C1'
_cell_volume   1143.35559050
_cell_formula_units_Z   1
loop_
 _symmetry_equiv_pos_site_id
 _symmetry_equiv_pos_as_xyz
  1  'x, y, z'
loop_
 _atom_site_type_symbol
 _atom_site_label
 _atom_site_symmetry_multiplicity
 _atom_site_fract_x
 _atom_site_fract_y
 _atom_site_fract_z
 _atom_site_occupancy
  Mg  Mg0  1  0.25000000  0.25000000  0.98761000  1.0
  Mg  Mg1  1  0.25000000  0.25000000  0.12234000  1.0
  Mg  Mg2  1  0.25000000  0.75000000  0.98761000  1.0
  Mg  Mg3  1  0.25000000  0.75000000  0.12234000  1.0
  Mg  Mg4  1  0.75000000  0.25000000  0.98761000  1.0
  Mg  Mg5  1  0.75000000  0.25000000  0.12234000  1.0
  Mg  Mg6  1  0.75000000  0.75000000  0.98761000  1.0
  Mg  Mg7  1  0.75000000  0.75000000  0.12234000  1.0
  Ag  Ag8  1  0.00000000  0.00000000  0.92025000  1.0
  Ag  Ag9  1  0.00000000  0.00000000  0.05498000  1.0
  Ag  Ag10  1  0.00000000  0.50000000  0.92025000  1.0
  Ag  Ag11  1  0.00000000  0.50000000  0.05498000  1.0
  Ag  Ag12  1  0.50000000  0.00000000  0.92025000  1.0
  Ag  Ag13  1  0.50000000  0.00000000  0.05498000  1.0
  Ag  Ag14  1  0.50000000  0.50000000  0.92025000  1.0
  Ag  Ag15  1  0.50000000  0.50000000  0.05498000  1.0
  C  C16  1  0.00000000  0.00000000  0.15425000  1.0
