data_image0
_chemical_formula_structural       MgAgMgAgMgAgMgAgMgAgMgAgMgAgMgAgC
_chemical_formula_sum              "Mg8 Ag8 C1"
_cell_length_a       6.75388
_cell_length_b       6.75388
_cell_length_c       25.0654
_cell_angle_alpha    90
_cell_angle_beta     90
_cell_angle_gamma    90

_space_group_name_H-M_alt    "P 1"
_space_group_IT_number       1

loop_
  _space_group_symop_operation_xyz
  'x, y, z'

loop_
  _atom_site_type_symbol
  _atom_site_label
  _atom_site_symmetry_multiplicity
  _atom_site_fract_x
  _atom_site_fract_y
  _atom_site_fract_z
  _atom_site_occupancy
  Mg  Mg1       1.0  0.25000  0.25000  0.98761  1.0000
  Ag  Ag1       1.0  0.00000  0.00000  0.92025  1.0000
  Mg  Mg2       1.0  0.25000  0.25000  0.12234  1.0000
  Ag  Ag2       1.0  0.00000  0.00000  0.05498  1.0000
  Mg  Mg3       1.0  0.25000  0.75000  0.98761  1.0000
  Ag  Ag3       1.0  0.00000  0.50000  0.92025  1.0000
  Mg  Mg4       1.0  0.25000  0.75000  0.12234  1.0000
  Ag  Ag4       1.0  0.00000  0.50000  0.05498  1.0000
  Mg  Mg5       1.0  0.75000  0.25000  0.98761  1.0000
  Ag  Ag5       1.0  0.50000  0.00000  0.92025  1.0000
  Mg  Mg6       1.0  0.75000  0.25000  0.12234  1.0000
  Ag  Ag6       1.0  0.50000  0.00000  0.05498  1.0000
  Mg  Mg7       1.0  0.75000  0.75000  0.98761  1.0000
  Ag  Ag7       1.0  0.50000  0.50000  0.92025  1.0000
  Mg  Mg8       1.0  0.75000  0.75000  0.12234  1.0000
  Ag  Ag8       1.0  0.50000  0.50000  0.05498  1.0000
  C   C1        1.0  0.00000  0.00000  0.15425  1.0000
