# generated using pymatgen
data_Sc4Ga12C
_symmetry_space_group_name_H-M   'P 1'
_cell_length_a   8.31483000
_cell_length_b   5.87947000
_cell_length_c   24.40960000
_cell_angle_alpha   90.00000000
_cell_angle_beta   90.00000000
_cell_angle_gamma   90.00000000
_symmetry_Int_Tables_number   1
_chemical_formula_structural   Sc4Ga12C
_chemical_formula_sum   'Sc4 Ga12 C1'
_cell_volume   1193.30707560
_cell_formula_units_Z   1
loop_
 _symmetry_equiv_pos_site_id
 _symmetry_equiv_pos_as_xyz
  1  'x, y, z'
loop_
 _atom_site_type_symbol
 _atom_site_label
 _atom_site_symmetry_multiplicity
 _atom_site_fract_x
 _atom_site_fract_y
 _atom_site_fract_z
 _atom_site_occupancy
  Sc  Sc0  1  0.50000000  0.00000000  0.90967000  1.0
  Sc  Sc1  1  0.50000000  0.50005000  0.01964000  1.0
  Sc  Sc2  1  0.00000000  0.00000000  0.90967000  1.0
  Sc  Sc3  1  0.00000000  0.49998000  0.04131000  1.0
  Ga  Ga4  1  0.50000000  0.50000000  0.90967000  1.0
  Ga  Ga5  1  0.25001000  0.25000000  0.96989000  1.0
  Ga  Ga6  1  0.25001000  0.75000000  0.96989000  1.0
  Ga  Ga7  1  0.50000000  0.00007000  0.02888000  1.0
  Ga  Ga8  1  0.29588000  0.74220000  0.10334000  1.0
  Ga  Ga9  1  0.29589000  0.25785000  0.10333000  1.0
  Ga  Ga10  1  0.00000000  0.50000000  0.90967000  1.0
  Ga  Ga11  1  0.74999000  0.25000000  0.96989000  1.0
  Ga  Ga12  1  0.74999000  0.75000000  0.96989000  1.0
  Ga  Ga13  1  0.00000000  0.00000000  0.03787000  1.0
  Ga  Ga14  1  0.70412000  0.74220000  0.10334000  1.0
  Ga  Ga15  1  0.70411000  0.25785000  0.10333000  1.0
  C  C16  1  0.50000000  0.50037000  0.10660000  1.0
