# generated using pymatgen
data_Ni3Sn
_symmetry_space_group_name_H-M   'P 1'
_cell_length_a   7.54412000
_cell_length_b   7.54412000
_cell_length_c   25.65810000
_cell_angle_alpha   90.00000000
_cell_angle_beta   90.00000000
_cell_angle_gamma   90.00000000
_symmetry_Int_Tables_number   1
_chemical_formula_structural   Ni3Sn
_chemical_formula_sum   'Ni24 Sn8'
_cell_volume   1460.29860098
_cell_formula_units_Z   8
loop_
 _symmetry_equiv_pos_site_id
 _symmetry_equiv_pos_as_xyz
  1  'x, y, z'
loop_
 _atom_site_type_symbol
 _atom_site_label
 _atom_site_symmetry_multiplicity
 _atom_site_fract_x
 _atom_site_fract_y
 _atom_site_fract_z
 _atom_site_occupancy
  Ni  Ni0  1  0.00000000  0.25000000  0.96325000  1.0
  Ni  Ni1  1  0.25000000  0.00000000  0.96325000  1.0
  Ni  Ni2  1  0.25000000  0.25000000  0.88974000  1.0
  Ni  Ni3  1  0.00020000  0.24999000  0.10664000  1.0
  Ni  Ni4  1  0.25030000  0.99994000  0.10674000  1.0
  Ni  Ni5  1  0.25028000  0.24996000  0.03554000  1.0
  Ni  Ni6  1  0.00000000  0.75000000  0.96325000  1.0
  Ni  Ni7  1  0.25000000  0.50000000  0.96325000  1.0
  Ni  Ni8  1  0.25000000  0.75000000  0.88974000  1.0
  Ni  Ni9  1  0.99976000  0.74975000  0.10657000  1.0
  Ni  Ni10  1  0.25014000  0.50000000  0.10674000  1.0
  Ni  Ni11  1  0.25015000  0.74993000  0.03549000  1.0
  Ni  Ni12  1  0.50000000  0.25000000  0.96325000  1.0
  Ni  Ni13  1  0.75000000  0.00000000  0.96325000  1.0
  Ni  Ni14  1  0.75000000  0.25000000  0.88974000  1.0
  Ni  Ni15  1  0.50018000  0.25012000  0.10686000  1.0
  Ni  Ni16  1  0.75001000  0.99994000  0.10669000  1.0
  Ni  Ni17  1  0.74996000  0.24995000  0.03561000  1.0
  Ni  Ni18  1  0.50000000  0.75000000  0.96325000  1.0
  Ni  Ni19  1  0.75000000  0.50000000  0.96325000  1.0
  Ni  Ni20  1  0.75000000  0.75000000  0.88974000  1.0
  Ni  Ni21  1  0.50012000  0.74994000  0.10663000  1.0
  Ni  Ni22  1  0.74999000  0.50000000  0.10669000  1.0
  Ni  Ni23  1  0.74996000  0.74994000  0.03544000  1.0
  Sn  Sn24  1  0.00000000  0.00000000  0.88974000  1.0
  Sn  Sn25  1  0.00020000  0.00003000  0.03732000  1.0
  Sn  Sn26  1  0.00000000  0.50000000  0.88974000  1.0
  Sn  Sn27  1  0.00014000  0.49979000  0.03727000  1.0
  Sn  Sn28  1  0.50000000  0.00000000  0.88974000  1.0
  Sn  Sn29  1  0.50006000  0.00015000  0.03734000  1.0
  Sn  Sn30  1  0.50000000  0.50000000  0.88974000  1.0
  Sn  Sn31  1  0.50002000  0.49986000  0.03732000  1.0
