# generated using pymatgen
data_Li8Sc8Ga8Ge8C
_symmetry_space_group_name_H-M   Pmm2
_cell_length_a   7.95848000
_cell_length_b   8.37322000
_cell_length_c   26.05780000
_cell_angle_alpha   90.00000000
_cell_angle_beta   90.00000000
_cell_angle_gamma   90.00000000
_symmetry_Int_Tables_number   25
_chemical_formula_structural   Li8Sc8Ga8Ge8C
_chemical_formula_sum   'Li8 Sc8 Ga8 Ge8 C1'
_cell_volume   1736.44238395
_cell_formula_units_Z   1
loop_
 _symmetry_equiv_pos_site_id
 _symmetry_equiv_pos_as_xyz
  1  'x, y, z'
  2  '-x, -y, z'
  3  '-x, y, z'
  4  'x, -y, z'
loop_
 _atom_site_type_symbol
 _atom_site_label
 _atom_site_symmetry_multiplicity
 _atom_site_fract_x
 _atom_site_fract_y
 _atom_site_fract_z
 _atom_site_occupancy
  Li  Li0  1  0.00000000  0.00000000  0.11624000  1.0
  Li  Li1  1  0.00000000  0.00000000  0.96125000  1.0
  Li  Li2  1  0.00000000  0.50000000  0.11624000  1.0
  Li  Li3  1  0.00000000  0.50000000  0.96125000  1.0
  Li  Li4  1  0.50000000  0.00000000  0.11624000  1.0
  Li  Li5  1  0.50000000  0.00000000  0.96125000  1.0
  Li  Li6  1  0.50000000  0.50000000  0.11624000  1.0
  Li  Li7  1  0.50000000  0.50000000  0.96125000  1.0
  Sc  Sc8  2  0.00000000  0.25000000  0.03875000  1.0
  Sc  Sc9  2  0.00000000  0.25000000  0.88376000  1.0
  Sc  Sc10  2  0.50000000  0.25000000  0.03875000  1.0
  Sc  Sc11  2  0.50000000  0.25000000  0.88376000  1.0
  Ga  Ga12  2  0.25000000  0.00000000  0.03875000  1.0
  Ga  Ga13  2  0.25000000  0.00000000  0.88376000  1.0
  Ga  Ga14  2  0.25000000  0.50000000  0.03875000  1.0
  Ga  Ga15  2  0.25000000  0.50000000  0.88376000  1.0
  Ge  Ge16  4  0.25000000  0.25000000  0.11624000  1.0
  Ge  Ge17  4  0.25000000  0.25000000  0.96125000  1.0
  C  C18  1  0.00000000  0.00000000  0.85306000  1.0
