# generated using pymatgen
data_Li4Mn4Sb4Pd4CO
_symmetry_space_group_name_H-M   P1
_cell_length_a   6.44934000
_cell_length_b   6.44934000
_cell_length_c   24.83700000
_cell_angle_alpha   90.00000000
_cell_angle_beta   90.00000000
_cell_angle_gamma   90.00000000
_symmetry_Int_Tables_number   1
_chemical_formula_structural   Li4Mn4Sb4Pd4CO
_chemical_formula_sum   'Li4 Mn4 Sb4 Pd4 C1 O1'
_cell_volume   1033.06984110
_cell_formula_units_Z   1
loop_
 _symmetry_equiv_pos_site_id
 _symmetry_equiv_pos_as_xyz
  1  'x, y, z'
loop_
 _atom_site_type_symbol
 _atom_site_label
 _atom_site_symmetry_multiplicity
 _atom_site_fract_x
 _atom_site_fract_y
 _atom_site_fract_z
 _atom_site_occupancy
  Li  Li0  1  0.00000000  0.00000000  0.90263000  1.0
  Li  Li1  1  0.50000000  0.50000000  0.90263000  1.0
  Li  Li2  1  0.50328000  0.99672000  0.03371000  1.0
  Li  Li3  1  0.99671000  0.50328000  0.03371000  1.0
  Mn  Mn4  1  0.00000000  0.50000000  0.90263000  1.0
  Mn  Mn5  1  0.50000000  0.00000000  0.90263000  1.0
  Mn  Mn6  1  0.50211000  0.50211000  0.03360000  1.0
  Mn  Mn7  1  0.99789000  0.99789000  0.03359000  1.0
  Sb  Sb8  1  0.24999000  0.25000000  0.09693000  1.0
  Sb  Sb9  1  0.25000000  0.75000000  0.96754000  1.0
  Sb  Sb10  1  0.75000000  0.25000000  0.96754000  1.0
  Sb  Sb11  1  0.75000000  0.75000000  0.10017000  1.0
  Pd  Pd12  1  0.24999000  0.75000000  0.08983000  1.0
  Pd  Pd13  1  0.25000000  0.25000000  0.96754000  1.0
  Pd  Pd14  1  0.75000000  0.25000000  0.08983000  1.0
  Pd  Pd15  1  0.75000000  0.75000000  0.96754000  1.0
  C  C16  1  0.25010000  0.25000000  0.25989000  1.0
  O  O17  1  0.24998000  0.25000000  0.30558000  1.0
