# generated using pymatgen
data_Fe3Sn
_symmetry_space_group_name_H-M   'P 1'
_cell_length_a   3.82354000
_cell_length_b   3.82354000
_cell_length_c   25.73530000
_cell_angle_alpha   90.00000000
_cell_angle_beta   90.00000000
_cell_angle_gamma   90.00000000
_symmetry_Int_Tables_number   1
_chemical_formula_structural   Fe3Sn
_chemical_formula_sum   'Fe6 Sn2'
_cell_volume   376.23614085
_cell_formula_units_Z   2
loop_
 _symmetry_equiv_pos_site_id
 _symmetry_equiv_pos_as_xyz
  1  'x, y, z'
loop_
 _atom_site_type_symbol
 _atom_site_label
 _atom_site_symmetry_multiplicity
 _atom_site_fract_x
 _atom_site_fract_y
 _atom_site_fract_z
 _atom_site_occupancy
  Fe  Fe0  1  0.50000000  0.00000000  0.96286000  1.0
  Fe  Fe1  1  0.00000000  0.50000000  0.96286000  1.0
  Fe  Fe2  1  0.50000000  0.50000000  0.88857000  1.0
  Fe  Fe3  1  0.50000000  0.00000000  0.11143000  1.0
  Fe  Fe4  1  0.00000000  0.50000000  0.11143000  1.0
  Fe  Fe5  1  0.50000000  0.50000000  0.03714000  1.0
  Sn  Sn6  1  0.00000000  0.00000000  0.88857000  1.0
  Sn  Sn7  1  0.00000000  0.00000000  0.03714000  1.0
