# generated using pymatgen
data_Nb8Ga8Co16C
_symmetry_space_group_name_H-M   Pm
_cell_length_a   5.97844000
_cell_length_b   8.45478000
_cell_length_c   26.34110000
_cell_angle_alpha   90.00000000
_cell_angle_beta   90.00000000
_cell_angle_gamma   90.00000000
_symmetry_Int_Tables_number   6
_chemical_formula_structural   Nb8Ga8Co16C
_chemical_formula_sum   'Nb8 Ga8 Co16 C1'
_cell_volume   1331.44764384
_cell_formula_units_Z   1
loop_
 _symmetry_equiv_pos_site_id
 _symmetry_equiv_pos_as_xyz
  1  'x, y, z'
  2  'x, -y, z'
loop_
 _atom_site_type_symbol
 _atom_site_label
 _atom_site_symmetry_multiplicity
 _atom_site_fract_x
 _atom_site_fract_y
 _atom_site_fract_z
 _atom_site_occupancy
  Nb  Nb0  2  0.00000000  0.25000000  0.87964000  1.0
  Nb  Nb1  2  0.99929000  0.25060000  0.04106000  1.0
  Nb  Nb2  1  0.49943000  0.50000000  0.12011000  1.0
  Nb  Nb3  1  0.50000000  0.00000000  0.95988000  1.0
  Nb  Nb4  1  0.50000000  0.50000000  0.95988000  1.0
  Nb  Nb5  1  0.52768000  0.00000000  0.11842000  1.0
  Ga  Ga6  2  0.49991000  0.25001000  0.04054000  1.0
  Ga  Ga7  2  0.50000000  0.25000000  0.87964000  1.0
  Ga  Ga8  1  0.00000000  0.00000000  0.95988000  1.0
  Ga  Ga9  1  0.00000000  0.50000000  0.95988000  1.0
  Ga  Ga10  1  0.00053000  0.50000000  0.12106000  1.0
  Ga  Ga11  1  0.97492000  0.00000000  0.11886000  1.0
  Co  Co12  2  0.24860000  0.24849000  0.12000000  1.0
  Co  Co13  2  0.25000000  0.25000000  0.95988000  1.0
  Co  Co14  2  0.75000000  0.25000000  0.95988000  1.0
  Co  Co15  2  0.75038000  0.25275000  0.11895000  1.0
  Co  Co16  1  0.25000000  0.00000000  0.87964000  1.0
  Co  Co17  1  0.25000000  0.50000000  0.87964000  1.0
  Co  Co18  1  0.25030000  0.00000000  0.03922000  1.0
  Co  Co19  1  0.25179000  0.50000000  0.04026000  1.0
  Co  Co20  1  0.74840000  0.50000000  0.04037000  1.0
  Co  Co21  1  0.75000000  0.00000000  0.87964000  1.0
  Co  Co22  1  0.75000000  0.50000000  0.87964000  1.0
  Co  Co23  1  0.75363000  0.00000000  0.03863000  1.0
  C  C24  1  0.24721000  0.00000000  0.15640000  1.0
