# generated using pymatgen
data_Zn8Ni16Ge8CO
_symmetry_space_group_name_H-M   P1
_cell_length_a   5.89777000
_cell_length_b   8.34071000
_cell_length_c   26.25550000
_cell_angle_alpha   90.00000000
_cell_angle_beta   90.00000000
_cell_angle_gamma   90.00000000
_symmetry_Int_Tables_number   1
_chemical_formula_structural   Zn8Ni16Ge8CO
_chemical_formula_sum   'Zn8 Ni16 Ge8 C1 O1'
_cell_volume   1291.54977068
_cell_formula_units_Z   1
loop_
 _symmetry_equiv_pos_site_id
 _symmetry_equiv_pos_as_xyz
  1  'x, y, z'
loop_
 _atom_site_type_symbol
 _atom_site_label
 _atom_site_symmetry_multiplicity
 _atom_site_fract_x
 _atom_site_fract_y
 _atom_site_fract_z
 _atom_site_occupancy
  Zn  Zn0  1  0.00000000  0.00000000  0.88087000  1.0
  Zn  Zn1  1  0.00000000  0.50000000  0.88087000  1.0
  Zn  Zn2  1  0.00002000  0.49985000  0.03646000  1.0
  Zn  Zn3  1  0.49999000  0.25002000  0.12418000  1.0
  Zn  Zn4  1  0.49999000  0.74998000  0.12406000  1.0
  Zn  Zn5  1  0.50000000  0.25000000  0.96029000  1.0
  Zn  Zn6  1  0.50000000  0.75000000  0.96029000  1.0
  Zn  Zn7  1  0.99998000  0.00017000  0.03646000  1.0
  Ni  Ni8  1  0.23793000  0.00004000  0.11237000  1.0
  Ni  Ni9  1  0.23802000  0.49994000  0.11235000  1.0
  Ni  Ni10  1  0.25000000  0.00000000  0.96029000  1.0
  Ni  Ni11  1  0.25000000  0.25000000  0.88087000  1.0
  Ni  Ni12  1  0.25000000  0.50000000  0.96029000  1.0
  Ni  Ni13  1  0.25000000  0.75000000  0.88087000  1.0
  Ni  Ni14  1  0.25038000  0.75001000  0.03819000  1.0
  Ni  Ni15  1  0.25166000  0.25000000  0.03804000  1.0
  Ni  Ni16  1  0.74834000  0.25007000  0.03803000  1.0
  Ni  Ni17  1  0.74961000  0.74997000  0.03820000  1.0
  Ni  Ni18  1  0.75000000  0.00000000  0.96029000  1.0
  Ni  Ni19  1  0.75000000  0.25000000  0.88087000  1.0
  Ni  Ni20  1  0.75000000  0.50000000  0.96029000  1.0
  Ni  Ni21  1  0.75000000  0.75000000  0.88087000  1.0
  Ni  Ni22  1  0.76204000  0.00006000  0.11237000  1.0
  Ni  Ni23  1  0.76207000  0.49995000  0.11235000  1.0
  Ge  Ge24  1  0.00000000  0.25000000  0.96029000  1.0
  Ge  Ge25  1  0.00000000  0.75000000  0.96029000  1.0
  Ge  Ge26  1  0.00001000  0.74994000  0.12047000  1.0
  Ge  Ge27  1  0.49998000  0.50052000  0.04035000  1.0
  Ge  Ge28  1  0.50000000  0.00000000  0.88087000  1.0
  Ge  Ge29  1  0.50000000  0.50000000  0.88087000  1.0
  Ge  Ge30  1  0.50001000  0.99949000  0.04036000  1.0
  Ge  Ge31  1  0.99999000  0.25004000  0.11980000  1.0
  C  C32  1  0.00015000  0.25006000  0.26880000  1.0
  O  O33  1  0.99996000  0.24994000  0.31203000  1.0
