# generated using pymatgen
data_Zr16Pd16CO
_symmetry_space_group_name_H-M   'P 1'
_cell_length_a   6.75388000
_cell_length_b   9.55143000
_cell_length_c   27.16360000
_cell_angle_alpha   90.00000000
_cell_angle_beta   90.00000000
_cell_angle_gamma   90.00000000
_symmetry_Int_Tables_number   1
_chemical_formula_structural   Zr16Pd16CO
_chemical_formula_sum   'Zr16 Pd16 C1 O1'
_cell_volume   1752.30243240
_cell_formula_units_Z   1
loop_
 _symmetry_equiv_pos_site_id
 _symmetry_equiv_pos_as_xyz
  1  'x, y, z'
loop_
 _atom_site_type_symbol
 _atom_site_label
 _atom_site_symmetry_multiplicity
 _atom_site_fract_x
 _atom_site_fract_y
 _atom_site_fract_z
 _atom_site_occupancy
  Zr  Zr0  1  0.00000000  0.75000000  0.86814000  1.0
  Zr  Zr1  1  0.00000000  0.00000000  0.95605000  1.0
  Zr  Zr2  1  0.00000000  0.75213000  0.04087000  1.0
  Zr  Zr3  1  0.00000000  0.00000000  0.13075000  1.0
  Zr  Zr4  1  0.00000000  0.25000000  0.86814000  1.0
  Zr  Zr5  1  0.00000000  0.50000000  0.95605000  1.0
  Zr  Zr6  1  0.00000000  0.24787000  0.04087000  1.0
  Zr  Zr7  1  0.00000000  0.50000000  0.12420000  1.0
  Zr  Zr8  1  0.50000000  0.75000000  0.86814000  1.0
  Zr  Zr9  1  0.50000000  0.00000000  0.95605000  1.0
  Zr  Zr10  1  0.50000000  0.75160000  0.04197000  1.0
  Zr  Zr11  1  0.50000000  0.00000000  0.13656000  1.0
  Zr  Zr12  1  0.50000000  0.25000000  0.86814000  1.0
  Zr  Zr13  1  0.50000000  0.50000000  0.95605000  1.0
  Zr  Zr14  1  0.50000000  0.24840000  0.04197000  1.0
  Zr  Zr15  1  0.50000000  0.50000000  0.13385000  1.0
  Pd  Pd16  1  0.25000000  0.00000000  0.86814000  1.0
  Pd  Pd17  1  0.25000000  0.75000000  0.95605000  1.0
  Pd  Pd18  1  0.27586000  0.00000000  0.04989000  1.0
  Pd  Pd19  1  0.25669000  0.25091000  0.12331000  1.0
  Pd  Pd20  1  0.25000000  0.50000000  0.86814000  1.0
  Pd  Pd21  1  0.25000000  0.25000000  0.95605000  1.0
  Pd  Pd22  1  0.27651000  0.50000000  0.04674000  1.0
  Pd  Pd23  1  0.25669000  0.74909000  0.12331000  1.0
  Pd  Pd24  1  0.75000000  0.00000000  0.86814000  1.0
  Pd  Pd25  1  0.75000000  0.75000000  0.95605000  1.0
  Pd  Pd26  1  0.72414000  0.00000000  0.04989000  1.0
  Pd  Pd27  1  0.74331000  0.25091000  0.12331000  1.0
  Pd  Pd28  1  0.75000000  0.50000000  0.86814000  1.0
  Pd  Pd29  1  0.75000000  0.25000000  0.95605000  1.0
  Pd  Pd30  1  0.72349000  0.50000000  0.04674000  1.0
  Pd  Pd31  1  0.74331000  0.74909000  0.12331000  1.0
  C  C32  1  0.00000000  0.00000000  0.21422000  1.0
  O  O33  1  0.00000000  0.00000000  0.25683000  1.0
