# generated using pymatgen
data_Zr16Pd16CO
_symmetry_space_group_name_H-M   Pmm2
_cell_length_a   6.75388000
_cell_length_b   9.55143000
_cell_length_c   27.16360000
_cell_angle_alpha   90.00000000
_cell_angle_beta   90.00000000
_cell_angle_gamma   90.00000000
_symmetry_Int_Tables_number   25
_chemical_formula_structural   Zr16Pd16CO
_chemical_formula_sum   'Zr16 Pd16 C1 O1'
_cell_volume   1752.30243240
_cell_formula_units_Z   1
loop_
 _symmetry_equiv_pos_site_id
 _symmetry_equiv_pos_as_xyz
  1  'x, y, z'
  2  '-x, -y, z'
  3  '-x, y, z'
  4  'x, -y, z'
loop_
 _atom_site_type_symbol
 _atom_site_label
 _atom_site_symmetry_multiplicity
 _atom_site_fract_x
 _atom_site_fract_y
 _atom_site_fract_z
 _atom_site_occupancy
  Zr  Zr0  2  0.00000000  0.24787000  0.04087000  1.0
  Zr  Zr1  2  0.00000000  0.25000000  0.86814000  1.0
  Zr  Zr2  2  0.50000000  0.24840000  0.04197000  1.0
  Zr  Zr3  2  0.50000000  0.25000000  0.86814000  1.0
  Zr  Zr4  1  0.00000000  0.00000000  0.13075000  1.0
  Zr  Zr5  1  0.00000000  0.00000000  0.95605000  1.0
  Zr  Zr6  1  0.00000000  0.50000000  0.12420000  1.0
  Zr  Zr7  1  0.00000000  0.50000000  0.95605000  1.0
  Zr  Zr8  1  0.50000000  0.00000000  0.13656000  1.0
  Zr  Zr9  1  0.50000000  0.00000000  0.95605000  1.0
  Zr  Zr10  1  0.50000000  0.50000000  0.13385000  1.0
  Zr  Zr11  1  0.50000000  0.50000000  0.95605000  1.0
  Pd  Pd12  4  0.25000000  0.25000000  0.95605000  1.0
  Pd  Pd13  4  0.25669000  0.25091000  0.12331000  1.0
  Pd  Pd14  2  0.25000000  0.00000000  0.86814000  1.0
  Pd  Pd15  2  0.25000000  0.50000000  0.86814000  1.0
  Pd  Pd16  2  0.27586000  0.00000000  0.04989000  1.0
  Pd  Pd17  2  0.27651000  0.50000000  0.04674000  1.0
  C  C18  1  0.00000000  0.00000000  0.21422000  1.0
  O  O19  1  0.00000000  0.00000000  0.25683000  1.0
