# generated using pymatgen
data_Li4Au12CO
_symmetry_space_group_name_H-M   Pmm2
_cell_length_a   5.82869000
_cell_length_b   8.24301000
_cell_length_c   24.37150000
_cell_angle_alpha   90.00000000
_cell_angle_beta   90.00000000
_cell_angle_gamma   90.00000000
_symmetry_Int_Tables_number   25
_chemical_formula_structural   Li4Au12CO
_chemical_formula_sum   'Li4 Au12 C1 O1'
_cell_volume   1170.95186937
_cell_formula_units_Z   1
loop_
 _symmetry_equiv_pos_site_id
 _symmetry_equiv_pos_as_xyz
  1  'x, y, z'
  2  '-x, -y, z'
  3  '-x, y, z'
  4  'x, -y, z'
loop_
 _atom_site_type_symbol
 _atom_site_label
 _atom_site_symmetry_multiplicity
 _atom_site_fract_x
 _atom_site_fract_y
 _atom_site_fract_z
 _atom_site_occupancy
  Li  Li0  1  0.00000000  0.00000000  0.91470000  1.0
  Li  Li1  1  0.00000000  0.50000000  0.91546000  1.0
  Li  Li2  1  0.50000000  0.00000000  0.02989000  1.0
  Li  Li3  1  0.50000000  0.50000000  0.02989000  1.0
  Au  Au4  4  0.24193000  0.25058000  0.96478000  1.0
  Au  Au5  4  0.25000000  0.25000000  0.08968000  1.0
  Au  Au6  1  0.00000000  0.00000000  0.02989000  1.0
  Au  Au7  1  0.00000000  0.50000000  0.02989000  1.0
  Au  Au8  1  0.50000000  0.00000000  0.91832000  1.0
  Au  Au9  1  0.50000000  0.50000000  0.91753000  1.0
  C  C10  1  0.00000000  0.00000000  0.82649000  1.0
  O  O11  1  0.00000000  0.00000000  0.77986000  1.0
