# generated using pymatgen
data_Ni24Sn8C
_symmetry_space_group_name_H-M   Pm
_cell_length_a   8.51054000
_cell_length_b   6.01786000
_cell_length_c   26.38290000
_cell_angle_alpha   90.00000000
_cell_angle_beta   90.00000000
_cell_angle_gamma   90.00000000
_symmetry_Int_Tables_number   6
_chemical_formula_structural   Ni24Sn8C
_chemical_formula_sum   'Ni24 Sn8 C1'
_cell_volume   1351.20650908
_cell_formula_units_Z   1
loop_
 _symmetry_equiv_pos_site_id
 _symmetry_equiv_pos_as_xyz
  1  'x, y, z'
  2  'x, -y, z'
loop_
 _atom_site_type_symbol
 _atom_site_label
 _atom_site_symmetry_multiplicity
 _atom_site_fract_x
 _atom_site_fract_y
 _atom_site_fract_z
 _atom_site_occupancy
  Ni  Ni0  2  0.00000000  0.25000000  0.95968000  1.0
  Ni  Ni1  2  0.00003000  0.20915000  0.12275000  1.0
  Ni  Ni2  2  0.25000000  0.25000000  0.87903000  1.0
  Ni  Ni3  2  0.25174000  0.26365000  0.04115000  1.0
  Ni  Ni4  2  0.49999000  0.22054000  0.11835000  1.0
  Ni  Ni5  2  0.50000000  0.25000000  0.95968000  1.0
  Ni  Ni6  2  0.74825000  0.26346000  0.04114000  1.0
  Ni  Ni7  2  0.75000000  0.25000000  0.87903000  1.0
  Ni  Ni8  1  0.00000000  0.50000000  0.87903000  1.0
  Ni  Ni9  1  0.25000000  0.00000000  0.95968000  1.0
  Ni  Ni10  1  0.25008000  0.00000000  0.11595000  1.0
  Ni  Ni11  1  0.50000000  0.50000000  0.87903000  1.0
  Ni  Ni12  1  0.50001000  0.50000000  0.04145000  1.0
  Ni  Ni13  1  0.75000000  0.00000000  0.95968000  1.0
  Ni  Ni14  1  0.75003000  0.00000000  0.11603000  1.0
  Ni  Ni15  1  0.99998000  0.50000000  0.04352000  1.0
  Sn  Sn16  1  0.00000000  0.00000000  0.87903000  1.0
  Sn  Sn17  1  0.00005000  0.00000000  0.03750000  1.0
  Sn  Sn18  1  0.25000000  0.50000000  0.95968000  1.0
  Sn  Sn19  1  0.27111000  0.50000000  0.13004000  1.0
  Sn  Sn20  1  0.49991000  0.00000000  0.03653000  1.0
  Sn  Sn21  1  0.50000000  0.00000000  0.87903000  1.0
  Sn  Sn22  1  0.72886000  0.50000000  0.13002000  1.0
  Sn  Sn23  1  0.75000000  0.50000000  0.95968000  1.0
  C  C24  1  0.00000000  0.50000000  0.11365000  1.0
