# generated using pymatgen
data_Li8In16Ru8C
_symmetry_space_group_name_H-M   'P 1'
_cell_length_a   9.29097000
_cell_length_b   6.56971000
_cell_length_c   26.96820000
_cell_angle_alpha   90.00000000
_cell_angle_beta   90.00000000
_cell_angle_gamma   90.00000000
_symmetry_Int_Tables_number   1
_chemical_formula_structural   Li8In16Ru8C
_chemical_formula_sum   'Li8 In16 Ru8 C1'
_cell_volume   1646.11138049
_cell_formula_units_Z   1
loop_
 _symmetry_equiv_pos_site_id
 _symmetry_equiv_pos_as_xyz
  1  'x, y, z'
loop_
 _atom_site_type_symbol
 _atom_site_label
 _atom_site_symmetry_multiplicity
 _atom_site_fract_x
 _atom_site_fract_y
 _atom_site_fract_z
 _atom_site_occupancy
  Li  Li0  1  0.74999000  0.00000000  0.12919000  1.0
  Li  Li1  1  0.00000000  0.50000000  0.04306000  1.0
  Li  Li2  1  0.50000000  0.50000000  0.04306000  1.0
  Li  Li3  1  0.25001000  0.00000000  0.12919000  1.0
  Li  Li4  1  0.24885000  0.00027000  0.95564000  1.0
  Li  Li5  1  0.50000000  0.52325000  0.86675000  1.0
  Li  Li6  1  0.00000000  0.51759000  0.86053000  1.0
  Li  Li7  1  0.75115000  0.00027000  0.95564000  1.0
  In  In8  1  0.74999000  0.25000000  0.04306000  1.0
  In  In9  1  0.24999000  0.75000000  0.04306000  1.0
  In  In10  1  0.75001000  0.75000000  0.04306000  1.0
  In  In11  1  0.25001000  0.25000000  0.04306000  1.0
  In  In12  1  0.50000000  0.75000000  0.12919000  1.0
  In  In13  1  0.00000000  0.25000000  0.12919000  1.0
  In  In14  1  0.50000000  0.25000000  0.12919000  1.0
  In  In15  1  0.00000000  0.75000000  0.12919000  1.0
  In  In16  1  0.26611000  0.25359000  0.86634000  1.0
  In  In17  1  0.74700000  0.77191000  0.86309000  1.0
  In  In18  1  0.25300000  0.77191000  0.86309000  1.0
  In  In19  1  0.73389000  0.25359000  0.86634000  1.0
  In  In20  1  0.00000000  0.73994000  0.95958000  1.0
  In  In21  1  0.50000000  0.25563000  0.95887000  1.0
  In  In22  1  0.00000000  0.25201000  0.95657000  1.0
  In  In23  1  0.50000000  0.74844000  0.95776000  1.0
  Ru  Ru24  1  0.50000000  0.00000000  0.04306000  1.0
  Ru  Ru25  1  0.74999000  0.50000000  0.12919000  1.0
  Ru  Ru26  1  0.00000000  0.00000000  0.04306000  1.0
  Ru  Ru27  1  0.25001000  0.50000000  0.12919000  1.0
  Ru  Ru28  1  0.00000000  0.00300000  0.87176000  1.0
  Ru  Ru29  1  0.24842000  0.50239000  0.95409000  1.0
  Ru  Ru30  1  0.50000000  0.00033000  0.87798000  1.0
  Ru  Ru31  1  0.75158000  0.50239000  0.95409000  1.0
  C  C32  1  0.00000000  0.21022000  0.83256000  1.0
