# generated using pymatgen
data_Li8In16Ru8C
_symmetry_space_group_name_H-M   Pm
_cell_length_a   6.56971000
_cell_length_b   9.29097000
_cell_length_c   26.96820000
_cell_angle_alpha   90.00000000
_cell_angle_beta   90.00000000
_cell_angle_gamma   90.00000000
_symmetry_Int_Tables_number   6
_chemical_formula_structural   Li8In16Ru8C
_chemical_formula_sum   'Li8 In16 Ru8 C1'
_cell_volume   1646.11138049
_cell_formula_units_Z   1
loop_
 _symmetry_equiv_pos_site_id
 _symmetry_equiv_pos_as_xyz
  1  'x, y, z'
  2  'x, -y, z'
loop_
 _atom_site_type_symbol
 _atom_site_label
 _atom_site_symmetry_multiplicity
 _atom_site_fract_x
 _atom_site_fract_y
 _atom_site_fract_z
 _atom_site_occupancy
  Li  Li0  2  0.00000000  0.25001000  0.87081000  1.0
  Li  Li1  2  0.00027000  0.24885000  0.04436000  1.0
  Li  Li2  1  0.50000000  0.00000000  0.95694000  1.0
  Li  Li3  1  0.50000000  0.50000000  0.95694000  1.0
  Li  Li4  1  0.51759000  0.00000000  0.13947000  1.0
  Li  Li5  1  0.52325000  0.50000000  0.13325000  1.0
  In  In6  2  0.25000000  0.25001000  0.95694000  1.0
  In  In7  2  0.25359000  0.26611000  0.13366000  1.0
  In  In8  2  0.75000000  0.24999000  0.95694000  1.0
  In  In9  2  0.77191000  0.25300000  0.13691000  1.0
  In  In10  1  0.25000000  0.00000000  0.87081000  1.0
  In  In11  1  0.25000000  0.50000000  0.87081000  1.0
  In  In12  1  0.25201000  0.00000000  0.04343000  1.0
  In  In13  1  0.25563000  0.50000000  0.04113000  1.0
  In  In14  1  0.73994000  0.00000000  0.04042000  1.0
  In  In15  1  0.74844000  0.50000000  0.04224000  1.0
  In  In16  1  0.75000000  0.00000000  0.87081000  1.0
  In  In17  1  0.75000000  0.50000000  0.87081000  1.0
  Ru  Ru18  2  0.50000000  0.25001000  0.87081000  1.0
  Ru  Ru19  2  0.50239000  0.24842000  0.04591000  1.0
  Ru  Ru20  1  0.00000000  0.00000000  0.95694000  1.0
  Ru  Ru21  1  0.00000000  0.50000000  0.95694000  1.0
  Ru  Ru22  1  0.00033000  0.50000000  0.12202000  1.0
  Ru  Ru23  1  0.00300000  0.00000000  0.12824000  1.0
  C  C24  1  0.21022000  0.00000000  0.16744000  1.0
