data_image0
_chemical_formula_structural       Mg4In4Cu4Pd4CO
_chemical_formula_sum              "Mg4 In4 Cu4 Pd4 C1 O1"
_cell_length_a       6.45956
_cell_length_b       6.45956
_cell_length_c       24.8447
_cell_angle_alpha    90
_cell_angle_beta     90
_cell_angle_gamma    90

_space_group_name_H-M_alt    "P 1"
_space_group_IT_number       1

loop_
  _space_group_symop_operation_xyz
  'x, y, z'

loop_
  _atom_site_type_symbol
  _atom_site_label
  _atom_site_symmetry_multiplicity
  _atom_site_fract_x
  _atom_site_fract_y
  _atom_site_fract_z
  _atom_site_occupancy
  Mg  Mg1       1.0  0.25000  0.25000  0.96750  1.0000
  Mg  Mg2       1.0  0.25000  0.75000  0.09750  1.0000
  Mg  Mg3       1.0  0.75000  0.25000  0.09750  1.0000
  Mg  Mg4       1.0  0.75000  0.75000  0.96750  1.0000
  In  In1       1.0  0.75000  0.25000  0.96750  1.0000
  In  In2       1.0  0.75000  0.75000  0.09750  1.0000
  In  In3       1.0  0.25000  0.25000  0.09750  1.0000
  In  In4       1.0  0.25000  0.75000  0.96750  1.0000
  Cu  Cu1       1.0  0.00000  0.00000  0.90250  1.0000
  Cu  Cu2       1.0  0.00000  0.50000  0.03250  1.0000
  Cu  Cu3       1.0  0.50000  0.00000  0.03250  1.0000
  Cu  Cu4       1.0  0.50000  0.50000  0.90250  1.0000
  Pd  Pd1       1.0  0.00000  0.50000  0.90250  1.0000
  Pd  Pd2       1.0  0.00000  0.00000  0.03250  1.0000
  Pd  Pd3       1.0  0.50000  0.50000  0.03250  1.0000
  Pd  Pd4       1.0  0.50000  0.00000  0.90250  1.0000
  C   C1        1.0  0.75000  0.25000  0.17397  1.0000
  O   O1        1.0  0.75000  0.25000  0.22026  1.0000
