# generated using pymatgen
data_Fe16Co16C
_symmetry_space_group_name_H-M   Pmm2
_cell_length_a   5.71351000
_cell_length_b   8.08012000
_cell_length_c   26.06010000
_cell_angle_alpha   90.00000000
_cell_angle_beta   90.00000000
_cell_angle_gamma   90.00000000
_symmetry_Int_Tables_number   25
_chemical_formula_structural   Fe16Co16C
_chemical_formula_sum   'Fe16 Co16 C1'
_cell_volume   1203.08657432
_cell_formula_units_Z   1
loop_
 _symmetry_equiv_pos_site_id
 _symmetry_equiv_pos_as_xyz
  1  'x, y, z'
  2  '-x, -y, z'
  3  '-x, y, z'
  4  'x, -y, z'
loop_
 _atom_site_type_symbol
 _atom_site_label
 _atom_site_symmetry_multiplicity
 _atom_site_fract_x
 _atom_site_fract_y
 _atom_site_fract_z
 _atom_site_occupancy
  Fe  Fe0  2  0.00000000  0.24386000  0.11962000  1.0
  Fe  Fe1  2  0.00000000  0.25000000  0.96124000  1.0
  Fe  Fe2  2  0.50000000  0.25000000  0.96124000  1.0
  Fe  Fe3  2  0.50000000  0.26119000  0.11844000  1.0
  Fe  Fe4  1  0.00000000  0.00000000  0.04044000  1.0
  Fe  Fe5  1  0.00000000  0.00000000  0.88373000  1.0
  Fe  Fe6  1  0.00000000  0.50000000  0.03913000  1.0
  Fe  Fe7  1  0.00000000  0.50000000  0.88373000  1.0
  Fe  Fe8  1  0.50000000  0.00000000  0.03592000  1.0
  Fe  Fe9  1  0.50000000  0.00000000  0.88373000  1.0
  Fe  Fe10  1  0.50000000  0.50000000  0.03976000  1.0
  Fe  Fe11  1  0.50000000  0.50000000  0.88373000  1.0
  Co  Co12  4  0.25000000  0.25000000  0.88373000  1.0
  Co  Co13  4  0.25022000  0.24909000  0.04009000  1.0
  Co  Co14  2  0.23906000  0.50000000  0.11330000  1.0
  Co  Co15  2  0.25000000  0.00000000  0.96124000  1.0
  Co  Co16  2  0.25000000  0.50000000  0.96124000  1.0
  Co  Co17  2  0.28741000  0.00000000  0.11338000  1.0
  C  C18  1  0.00000000  0.00000000  0.13856000  1.0
