data_image0
_chemical_formula_structural       Li8Al8Cu8Pd8C
_chemical_formula_sum              "Li8 Al8 Cu8 Pd8 C1"
_cell_length_a       6.00833
_cell_length_b       8.49706
_cell_length_c       26.3728
_cell_angle_alpha    90
_cell_angle_beta     90
_cell_angle_gamma    90

_space_group_name_H-M_alt    "P 1"
_space_group_IT_number       1

loop_
  _space_group_symop_operation_xyz
  'x, y, z'

loop_
  _atom_site_type_symbol
  _atom_site_label
  _atom_site_symmetry_multiplicity
  _atom_site_fract_x
  _atom_site_fract_y
  _atom_site_fract_z
  _atom_site_occupancy
  Li  Li1       1.0  0.00000  0.25000  0.95973  1.0000
  Li  Li2       1.0  0.00000  0.75000  0.95973  1.0000
  Li  Li3       1.0  0.50000  0.50000  0.87918  1.0000
  Li  Li4       1.0  0.50000  0.00000  0.87918  1.0000
  Li  Li5       1.0  0.98765  0.75305  0.13250  1.0000
  Li  Li6       1.0  0.98765  0.24695  0.13250  1.0000
  Li  Li7       1.0  0.52573  0.00000  0.04725  1.0000
  Li  Li8       1.0  0.49912  0.50000  0.03745  1.0000
  Al  Al1       1.0  0.00000  0.00000  0.87918  1.0000
  Al  Al2       1.0  0.00000  0.50000  0.87918  1.0000
  Al  Al3       1.0  0.50000  0.75000  0.95973  1.0000
  Al  Al4       1.0  0.50000  0.25000  0.95973  1.0000
  Al  Al5       1.0  0.00269  0.50000  0.04035  1.0000
  Al  Al6       1.0  0.00455  0.00000  0.03606  1.0000
  Al  Al7       1.0  0.49387  0.25614  0.12233  1.0000
  Al  Al8       1.0  0.49387  0.74386  0.12233  1.0000
  Cu  Cu1       1.0  0.25000  0.00000  0.95973  1.0000
  Cu  Cu2       1.0  0.25000  0.50000  0.95973  1.0000
  Cu  Cu3       1.0  0.75000  0.25000  0.87918  1.0000
  Cu  Cu4       1.0  0.75000  0.75000  0.87918  1.0000
  Cu  Cu5       1.0  0.25788  0.50000  0.11553  1.0000
  Cu  Cu6       1.0  0.25184  0.00000  0.12267  1.0000
  Cu  Cu7       1.0  0.75275  0.74323  0.03948  1.0000
  Cu  Cu8       1.0  0.75275  0.25678  0.03948  1.0000
  Pd  Pd1       1.0  0.75000  0.00000  0.95973  1.0000
  Pd  Pd2       1.0  0.75000  0.50000  0.95973  1.0000
  Pd  Pd3       1.0  0.25000  0.25000  0.87918  1.0000
  Pd  Pd4       1.0  0.25000  0.75000  0.87918  1.0000
  Pd  Pd5       1.0  0.73529  0.50000  0.11516  1.0000
  Pd  Pd6       1.0  0.66709  0.00000  0.14813  1.0000
  Pd  Pd7       1.0  0.25412  0.75113  0.04080  1.0000
  Pd  Pd8       1.0  0.25412  0.24887  0.04080  1.0000
  C   C1        1.0  0.94297  0.00000  0.10865  1.0000
