# generated using pymatgen
data_Li8Al8Cu8Pd8C
_symmetry_space_group_name_H-M   'P 1'
_cell_length_a   8.49706000
_cell_length_b   6.00833000
_cell_length_c   26.37280000
_cell_angle_alpha   90.00000000
_cell_angle_beta   90.00000000
_cell_angle_gamma   90.00000000
_symmetry_Int_Tables_number   1
_chemical_formula_structural   Li8Al8Cu8Pd8C
_chemical_formula_sum   'Li8 Al8 Cu8 Pd8 C1'
_cell_volume   1346.41426404
_cell_formula_units_Z   1
loop_
 _symmetry_equiv_pos_site_id
 _symmetry_equiv_pos_as_xyz
  1  'x, y, z'
loop_
 _atom_site_type_symbol
 _atom_site_label
 _atom_site_symmetry_multiplicity
 _atom_site_fract_x
 _atom_site_fract_y
 _atom_site_fract_z
 _atom_site_occupancy
  Li  Li0  1  0.25000000  0.00000000  0.04027000  1.0
  Li  Li1  1  0.75000000  0.00000000  0.04027000  1.0
  Li  Li2  1  0.50000000  0.50000000  0.12082000  1.0
  Li  Li3  1  0.00000000  0.50000000  0.12082000  1.0
  Li  Li4  1  0.75310000  0.98767000  0.86750000  1.0
  Li  Li5  1  0.24690000  0.98767000  0.86750000  1.0
  Li  Li6  1  0.00000000  0.52572000  0.95274000  1.0
  Li  Li7  1  0.50000000  0.49913000  0.96255000  1.0
  Al  Al8  1  0.00000000  0.00000000  0.12082000  1.0
  Al  Al9  1  0.50000000  0.00000000  0.12082000  1.0
  Al  Al10  1  0.75000000  0.50000000  0.04027000  1.0
  Al  Al11  1  0.25000000  0.50000000  0.04027000  1.0
  Al  Al12  1  0.50000000  0.00268000  0.95966000  1.0
  Al  Al13  1  0.00000000  0.00454000  0.96395000  1.0
  Al  Al14  1  0.25611000  0.49381000  0.87768000  1.0
  Al  Al15  1  0.74389000  0.49381000  0.87768000  1.0
  Cu  Cu16  1  0.00000000  0.25000000  0.04027000  1.0
  Cu  Cu17  1  0.50000000  0.25000000  0.04027000  1.0
  Cu  Cu18  1  0.25000000  0.75000000  0.12082000  1.0
  Cu  Cu19  1  0.75000000  0.75000000  0.12082000  1.0
  Cu  Cu20  1  0.50000000  0.25785000  0.88447000  1.0
  Cu  Cu21  1  0.00000000  0.25188000  0.87733000  1.0
  Cu  Cu22  1  0.74323000  0.75272000  0.96053000  1.0
  Cu  Cu23  1  0.25677000  0.75272000  0.96053000  1.0
  Pd  Pd24  1  0.00000000  0.75000000  0.04027000  1.0
  Pd  Pd25  1  0.50000000  0.75000000  0.04027000  1.0
  Pd  Pd26  1  0.25000000  0.25000000  0.12082000  1.0
  Pd  Pd27  1  0.75000000  0.25000000  0.12082000  1.0
  Pd  Pd28  1  0.50000000  0.73525000  0.88483000  1.0
  Pd  Pd29  1  0.00000000  0.66699000  0.85189000  1.0
  Pd  Pd30  1  0.75109000  0.25409000  0.95920000  1.0
  Pd  Pd31  1  0.24891000  0.25409000  0.95920000  1.0
  C  C32  1  0.00000000  0.94294000  0.89136000  1.0
