# generated using pymatgen
data_Li8Al8Cu8Pd8C
_symmetry_space_group_name_H-M   Pm
_cell_length_a   6.00833000
_cell_length_b   8.49706000
_cell_length_c   26.37280000
_cell_angle_alpha   90.00000000
_cell_angle_beta   90.00000000
_cell_angle_gamma   90.00000000
_symmetry_Int_Tables_number   6
_chemical_formula_structural   Li8Al8Cu8Pd8C
_chemical_formula_sum   'Li8 Al8 Cu8 Pd8 C1'
_cell_volume   1346.41426404
_cell_formula_units_Z   1
loop_
 _symmetry_equiv_pos_site_id
 _symmetry_equiv_pos_as_xyz
  1  'x, y, z'
  2  'x, -y, z'
loop_
 _atom_site_type_symbol
 _atom_site_label
 _atom_site_symmetry_multiplicity
 _atom_site_fract_x
 _atom_site_fract_y
 _atom_site_fract_z
 _atom_site_occupancy
  Li  Li0  2  0.00000000  0.25000000  0.95973000  1.0
  Li  Li1  2  0.98767000  0.24690000  0.13250000  1.0
  Li  Li2  1  0.49913000  0.50000000  0.03745000  1.0
  Li  Li3  1  0.50000000  0.00000000  0.87918000  1.0
  Li  Li4  1  0.50000000  0.50000000  0.87918000  1.0
  Li  Li5  1  0.52572000  0.00000000  0.04726000  1.0
  Al  Al6  2  0.49381000  0.25611000  0.12232000  1.0
  Al  Al7  2  0.50000000  0.25000000  0.95973000  1.0
  Al  Al8  1  0.00000000  0.00000000  0.87918000  1.0
  Al  Al9  1  0.00000000  0.50000000  0.87918000  1.0
  Al  Al10  1  0.00268000  0.50000000  0.04034000  1.0
  Al  Al11  1  0.00454000  0.00000000  0.03605000  1.0
  Cu  Cu12  2  0.75000000  0.25000000  0.87918000  1.0
  Cu  Cu13  2  0.75272000  0.25677000  0.03947000  1.0
  Cu  Cu14  1  0.25000000  0.00000000  0.95973000  1.0
  Cu  Cu15  1  0.25000000  0.50000000  0.95973000  1.0
  Cu  Cu16  1  0.25188000  0.00000000  0.12267000  1.0
  Cu  Cu17  1  0.25785000  0.50000000  0.11553000  1.0
  Pd  Pd18  2  0.25000000  0.25000000  0.87918000  1.0
  Pd  Pd19  2  0.25409000  0.24891000  0.04080000  1.0
  Pd  Pd20  1  0.66699000  0.00000000  0.14811000  1.0
  Pd  Pd21  1  0.73525000  0.50000000  0.11517000  1.0
  Pd  Pd22  1  0.75000000  0.00000000  0.95973000  1.0
  Pd  Pd23  1  0.75000000  0.50000000  0.95973000  1.0
  C  C24  1  0.94294000  0.00000000  0.10864000  1.0
