# generated using pymatgen
data_K24Pd8CO
_symmetry_space_group_name_H-M   'P 1'
_cell_length_a   11.07580000
_cell_length_b   11.07580000
_cell_length_c   28.30690000
_cell_angle_alpha   90.00000000
_cell_angle_beta   90.00000000
_cell_angle_gamma   90.00000000
_symmetry_Int_Tables_number   1
_chemical_formula_structural   K24Pd8CO
_chemical_formula_sum   'K24 Pd8 C1 O1'
_cell_volume   3472.50212770
_cell_formula_units_Z   1
loop_
 _symmetry_equiv_pos_site_id
 _symmetry_equiv_pos_as_xyz
  1  'x, y, z'
loop_
 _atom_site_type_symbol
 _atom_site_label
 _atom_site_symmetry_multiplicity
 _atom_site_fract_x
 _atom_site_fract_y
 _atom_site_fract_z
 _atom_site_occupancy
  K  K0  1  0.00038000  0.24994000  0.04862000  1.0
  K  K1  1  0.24994000  0.00034000  0.04861000  1.0
  K  K2  1  0.24993000  0.24993000  0.16236000  1.0
  K  K3  1  0.00000000  0.25000000  0.85327000  1.0
  K  K4  1  0.25000000  0.00000000  0.85327000  1.0
  K  K5  1  0.25000000  0.25000000  0.95109000  1.0
  K  K6  1  0.00119000  0.75001000  0.05146000  1.0
  K  K7  1  0.24994000  0.49965000  0.04867000  1.0
  K  K8  1  0.24985000  0.75031000  0.16459000  1.0
  K  K9  1  0.00000000  0.75000000  0.85327000  1.0
  K  K10  1  0.25000000  0.50000000  0.85327000  1.0
  K  K11  1  0.25000000  0.75000000  0.95109000  1.0
  K  K12  1  0.49961000  0.24994000  0.04867000  1.0
  K  K13  1  0.75001000  0.00126000  0.05145000  1.0
  K  K14  1  0.75031000  0.24984000  0.16442000  1.0
  K  K15  1  0.50000000  0.25000000  0.85327000  1.0
  K  K16  1  0.75000000  0.00000000  0.85327000  1.0
  K  K17  1  0.75000000  0.25000000  0.95109000  1.0
  K  K18  1  0.49885000  0.74999000  0.05154000  1.0
  K  K19  1  0.74999000  0.49877000  0.05154000  1.0
  K  K20  1  0.75048000  0.75047000  0.16659000  1.0
  K  K21  1  0.50000000  0.75000000  0.85327000  1.0
  K  K22  1  0.75000000  0.50000000  0.85327000  1.0
  K  K23  1  0.75000000  0.75000000  0.95109000  1.0
  Pd  Pd24  1  0.00205000  0.00203000  0.12100000  1.0
  Pd  Pd25  1  0.00000000  0.00000000  0.95109000  1.0
  Pd  Pd26  1  0.00211000  0.49781000  0.12097000  1.0
  Pd  Pd27  1  0.00000000  0.50000000  0.95109000  1.0
  Pd  Pd28  1  0.49778000  0.00210000  0.12097000  1.0
  Pd  Pd29  1  0.50000000  0.00000000  0.95109000  1.0
  Pd  Pd30  1  0.49767000  0.49770000  0.12096000  1.0
  Pd  Pd31  1  0.50000000  0.50000000  0.95109000  1.0
  C  C32  1  0.24923000  0.24923000  0.27156000  1.0
  O  O33  1  0.24967000  0.24968000  0.31163000  1.0
