# generated using pymatgen
data_Li8Y8Cu8Pd8C
_symmetry_space_group_name_H-M   'P 1'
_cell_length_a   9.43388000
_cell_length_b   6.67076000
_cell_length_c   27.07540000
_cell_angle_alpha   90.00000000
_cell_angle_beta   90.00000000
_cell_angle_gamma   90.00000000
_symmetry_Int_Tables_number   1
_chemical_formula_structural   Li8Y8Cu8Pd8C
_chemical_formula_sum   'Li8 Y8 Cu8 Pd8 C1'
_cell_volume   1703.88604108
_cell_formula_units_Z   1
loop_
 _symmetry_equiv_pos_site_id
 _symmetry_equiv_pos_as_xyz
  1  'x, y, z'
loop_
 _atom_site_type_symbol
 _atom_site_label
 _atom_site_symmetry_multiplicity
 _atom_site_fract_x
 _atom_site_fract_y
 _atom_site_fract_z
 _atom_site_occupancy
  Li  Li0  1  0.75000000  0.25000000  0.04355000  1.0
  Li  Li1  1  0.25000000  0.25000000  0.04355000  1.0
  Li  Li2  1  0.00000000  0.75000000  0.13066000  1.0
  Li  Li3  1  0.50000000  0.75000000  0.13066000  1.0
  Li  Li4  1  0.25382000  0.24778000  0.87042000  1.0
  Li  Li5  1  0.74618000  0.24778000  0.87042000  1.0
  Li  Li6  1  0.50000000  0.75602000  0.95010000  1.0
  Li  Li7  1  0.00000000  0.75421000  0.94600000  1.0
  Y  Y8  1  0.75000000  0.75000000  0.04355000  1.0
  Y  Y9  1  0.25000000  0.75000000  0.04355000  1.0
  Y  Y10  1  0.00000000  0.25000000  0.13066000  1.0
  Y  Y11  1  0.50000000  0.25000000  0.13066000  1.0
  Y  Y12  1  0.24205000  0.75345000  0.86000000  1.0
  Y  Y13  1  0.75795000  0.75345000  0.86000000  1.0
  Y  Y14  1  0.50000000  0.25593000  0.95893000  1.0
  Y  Y15  1  0.00000000  0.25343000  0.95792000  1.0
  Cu  Cu16  1  0.75000000  0.00000000  0.13066000  1.0
  Cu  Cu17  1  0.25000000  0.00000000  0.13066000  1.0
  Cu  Cu18  1  0.50000000  0.50000000  0.04355000  1.0
  Cu  Cu19  1  0.00000000  0.50000000  0.04355000  1.0
  Cu  Cu20  1  0.25609000  0.98384000  0.95106000  1.0
  Cu  Cu21  1  0.74391000  0.98384000  0.95106000  1.0
  Cu  Cu22  1  0.00000000  0.44551000  0.86671000  1.0
  Cu  Cu23  1  0.50000000  0.47751000  0.87142000  1.0
  Pd  Pd24  1  0.00000000  1.00000000  0.04355000  1.0
  Pd  Pd25  1  0.50000000  0.00000000  0.04355000  1.0
  Pd  Pd26  1  0.25000000  0.50000000  0.13066000  1.0
  Pd  Pd27  1  0.75000000  0.50000000  0.13066000  1.0
  Pd  Pd28  1  0.50000000  0.02228000  0.87489000  1.0
  Pd  Pd29  1  0.00000000  0.04929000  0.86965000  1.0
  Pd  Pd30  1  0.74528000  0.51856000  0.95165000  1.0
  Pd  Pd31  1  0.25472000  0.51856000  0.95165000  1.0
  C  C32  1  0.00000000  0.73096000  0.86276000  1.0
