# generated using pymatgen
data_YMgSnPd
_symmetry_space_group_name_H-M   'P 1'
_cell_length_a   7.00634000
_cell_length_b   4.95423000
_cell_length_c   27.43130000
_cell_angle_alpha   90.00000000
_cell_angle_beta   90.00000000
_cell_angle_gamma   90.00000000
_symmetry_Int_Tables_number   1
_chemical_formula_structural   YMgSnPd
_chemical_formula_sum   'Y4 Mg4 Sn4 Pd4'
_cell_volume   952.16839794
_cell_formula_units_Z   4
loop_
 _symmetry_equiv_pos_site_id
 _symmetry_equiv_pos_as_xyz
  1  'x, y, z'
loop_
 _atom_site_type_symbol
 _atom_site_label
 _atom_site_symmetry_multiplicity
 _atom_site_fract_x
 _atom_site_fract_y
 _atom_site_fract_z
 _atom_site_occupancy
  Y  Y0  1  0.00000000  0.50000000  0.95485000  1.0
  Y  Y1  1  0.50000000  0.00000000  0.86455000  1.0
  Y  Y2  1  0.98331000  0.50000000  0.14003000  1.0
  Y  Y3  1  0.51177000  0.00000000  0.04851000  1.0
  Mg  Mg4  1  0.00000000  0.00000000  0.86455000  1.0
  Mg  Mg5  1  0.50000000  0.50000000  0.95485000  1.0
  Mg  Mg6  1  0.98931000  0.00000000  0.05086000  1.0
  Mg  Mg7  1  0.49419000  0.50000000  0.13614000  1.0
  Sn  Sn8  1  0.75000000  0.00000000  0.95485000  1.0
  Sn  Sn9  1  0.25000000  0.50000000  0.86455000  1.0
  Sn  Sn10  1  0.71454000  0.00000000  0.15599000  1.0
  Sn  Sn11  1  0.24147000  0.50000000  0.04893000  1.0
  Pd  Pd12  1  0.25000000  0.00000000  0.95485000  1.0
  Pd  Pd13  1  0.75000000  0.50000000  0.86455000  1.0
  Pd  Pd14  1  0.25739000  0.00000000  0.12675000  1.0
  Pd  Pd15  1  0.77554500  0.50000000  0.04730000  1.0
