# generated using pymatgen
data_Zr4In4Pt8CO
_symmetry_space_group_name_H-M   'P 1'
_cell_length_a   6.69031000
_cell_length_b   6.69031000
_cell_length_c   25.01770000
_cell_angle_alpha   90.00000000
_cell_angle_beta   90.00000000
_cell_angle_gamma   90.00000000
_symmetry_Int_Tables_number   1
_chemical_formula_structural   Zr4In4Pt8CO
_chemical_formula_sum   'Zr4 In4 Pt8 C1 O1'
_cell_volume   1119.79845379
_cell_formula_units_Z   1
loop_
 _symmetry_equiv_pos_site_id
 _symmetry_equiv_pos_as_xyz
  1  'x, y, z'
loop_
 _atom_site_type_symbol
 _atom_site_label
 _atom_site_symmetry_multiplicity
 _atom_site_fract_x
 _atom_site_fract_y
 _atom_site_fract_z
 _atom_site_occupancy
  Zr  Zr0  1  0.00001000  0.00003000  0.09366000  1.0
  Zr  Zr1  1  0.50003000  0.50002000  0.09365000  1.0
  Zr  Zr2  1  0.50000000  0.00000000  0.96657000  1.0
  Zr  Zr3  1  0.00000000  0.50000000  0.96657000  1.0
  In  In4  1  0.00000000  0.00000000  0.96657000  1.0
  In  In5  1  0.49998000  0.00000000  0.10914000  1.0
  In  In6  1  0.99998000  0.49999000  0.11066000  1.0
  In  In7  1  0.50000000  0.50000000  0.96657000  1.0
  Pt  Pt8  1  0.24927000  0.25077000  0.03834000  1.0
  Pt  Pt9  1  0.75000000  0.75000000  0.89972000  1.0
  Pt  Pt10  1  0.75069000  0.25069000  0.03834000  1.0
  Pt  Pt11  1  0.25000000  0.75000000  0.89972000  1.0
  Pt  Pt12  1  0.75075000  0.74930000  0.03833000  1.0
  Pt  Pt13  1  0.25000000  0.25000000  0.89972000  1.0
  Pt  Pt14  1  0.24924000  0.74924000  0.03834000  1.0
  Pt  Pt15  1  0.75000000  0.25000000  0.89972000  1.0
  C  C16  1  0.00032000  0.50000000  0.28635000  1.0
  O  O17  1  0.99983000  0.49990000  0.33172000  1.0
