# generated using pymatgen
data_ZnPt3
_symmetry_space_group_name_H-M   'P 1'
_cell_length_a   3.95432000
_cell_length_b   5.59226000
_cell_length_c   24.19420000
_cell_angle_alpha   90.00000000
_cell_angle_beta   90.00000000
_cell_angle_gamma   90.00000000
_symmetry_Int_Tables_number   1
_chemical_formula_structural   ZnPt3
_chemical_formula_sum   'Zn2 Pt6'
_cell_volume   535.02051183
_cell_formula_units_Z   2
loop_
 _symmetry_equiv_pos_site_id
 _symmetry_equiv_pos_as_xyz
  1  'x, y, z'
loop_
 _atom_site_type_symbol
 _atom_site_label
 _atom_site_symmetry_multiplicity
 _atom_site_fract_x
 _atom_site_fract_y
 _atom_site_fract_z
 _atom_site_occupancy
  Zn  Zn0  1  0.00000000  0.00000000  0.08377000  1.0
  Zn  Zn1  1  0.00000000  0.50000000  0.97111000  1.0
  Pt  Pt2  1  0.00000000  0.50000000  0.08257000  1.0
  Pt  Pt3  1  0.50000000  0.75498000  0.03212000  1.0
  Pt  Pt4  1  0.50000000  0.24502000  0.03212000  1.0
  Pt  Pt5  1  0.00000000  0.00000000  0.97111000  1.0
  Pt  Pt6  1  0.50000000  0.25000000  0.91332000  1.0
  Pt  Pt7  1  0.50000000  0.75000000  0.91332000  1.0
