data_image0
_chemical_formula_structural       Na8Li16Sb8C
_chemical_formula_sum              "Na8 Li16 Sb8 C1"
_cell_length_a       6.84524
_cell_length_b       9.68063
_cell_length_c       27.2605
_cell_angle_alpha    90
_cell_angle_beta     90
_cell_angle_gamma    90

_space_group_name_H-M_alt    "P 1"
_space_group_IT_number       1

loop_
  _space_group_symop_operation_xyz
  'x, y, z'

loop_
  _atom_site_type_symbol
  _atom_site_label
  _atom_site_symmetry_multiplicity
  _atom_site_fract_x
  _atom_site_fract_y
  _atom_site_fract_z
  _atom_site_occupancy
  Na  Na1       1.0  0.00000  0.00000  0.86683  1.0000
  Na  Na2       1.0  0.50000  0.25000  0.95561  1.0000
  Na  Na3       1.0  0.50000  0.75000  0.95561  1.0000
  Na  Na4       1.0  0.00000  0.50000  0.86683  1.0000
  Na  Na5       1.0  1.00000  0.50001  0.04037  1.0000
  Na  Na6       1.0  0.50000  0.75486  0.14881  1.0000
  Na  Na7       1.0  0.50000  0.24514  0.14881  1.0000
  Na  Na8       1.0  0.00000  0.00000  0.04825  1.0000
  Li  Li1       1.0  0.25000  0.00000  0.95561  1.0000
  Li  Li2       1.0  0.75000  0.50000  0.95561  1.0000
  Li  Li3       1.0  0.75000  0.00000  0.95561  1.0000
  Li  Li4       1.0  0.25000  0.50000  0.95561  1.0000
  Li  Li5       1.0  0.75000  0.75000  0.86683  1.0000
  Li  Li6       1.0  0.25000  0.25000  0.86683  1.0000
  Li  Li7       1.0  0.25000  0.75000  0.86683  1.0000
  Li  Li8       1.0  0.75000  0.25000  0.86683  1.0000
  Li  Li9       1.0  0.20813  0.50000  0.13054  1.0000
  Li  Li10      1.0  0.78917  1.00000  0.14414  1.0000
  Li  Li11      1.0  0.79187  0.50000  0.13054  1.0000
  Li  Li12      1.0  0.21083  1.00000  0.14414  1.0000
  Li  Li13      1.0  0.74508  0.25345  0.05017  1.0000
  Li  Li14      1.0  0.25492  0.74655  0.05017  1.0000
  Li  Li15      1.0  0.25492  0.25345  0.05017  1.0000
  Li  Li16      1.0  0.74508  0.74655  0.05017  1.0000
  Sb  Sb1       1.0  0.00000  0.75000  0.95561  1.0000
  Sb  Sb2       1.0  0.50000  0.00000  0.86683  1.0000
  Sb  Sb3       1.0  0.00000  0.25000  0.95561  1.0000
  Sb  Sb4       1.0  0.50000  0.50000  0.86683  1.0000
  Sb  Sb5       1.0  0.00000  0.25208  0.13341  1.0000
  Sb  Sb6       1.0  0.50000  0.50000  0.05062  1.0000
  Sb  Sb7       1.0  0.00000  0.74792  0.13341  1.0000
  Sb  Sb8       1.0  0.50000  0.00000  0.04151  1.0000
  C   C1        1.0  0.50000  0.99999  0.11901  1.0000
