data_image0
_chemical_formula_structural       Li4Y4Sn4Pb4CO
_chemical_formula_sum              "Li4 Y4 Sn4 Pb4 C1 O1"
_cell_length_a       6.5522
_cell_length_b       9.36828
_cell_length_c       24.8971
_cell_angle_alpha    90
_cell_angle_beta     90
_cell_angle_gamma    90

_space_group_name_H-M_alt    "P 1"
_space_group_IT_number       1

loop_
  _space_group_symop_operation_xyz
  'x, y, z'

loop_
  _atom_site_type_symbol
  _atom_site_label
  _atom_site_symmetry_multiplicity
  _atom_site_fract_x
  _atom_site_fract_y
  _atom_site_fract_z
  _atom_site_occupancy
  Li  Li1       1.0  0.03982  0.99996  0.11443  1.0000
  Li  Li2       1.0  0.45833  0.00000  0.96722  1.0000
  Li  Li3       1.0  0.03127  0.49989  0.10221  1.0000
  Li  Li4       1.0  0.45833  0.50000  0.96722  1.0000
  Y   Y1        1.0  0.74985  0.24814  0.03306  1.0000
  Y   Y2        1.0  0.18749  0.25000  0.90165  1.0000
  Y   Y3        1.0  0.74941  0.75183  0.03302  1.0000
  Y   Y4        1.0  0.18749  0.75000  0.90165  1.0000
  Sn  Sn1       1.0  0.51408  0.99996  0.09437  1.0000
  Sn  Sn2       1.0  0.95833  0.00000  0.96722  1.0000
  Sn  Sn3       1.0  0.51238  0.50010  0.09444  1.0000
  Sn  Sn4       1.0  0.95833  0.50000  0.96722  1.0000
  Pb  Pb1       1.0  0.24418  0.24821  0.04997  1.0000
  Pb  Pb2       1.0  0.68749  0.25000  0.90165  1.0000
  Pb  Pb3       1.0  0.24383  0.75190  0.05005  1.0000
  Pb  Pb4       1.0  0.68749  0.75000  0.90165  1.0000
  C   C1        1.0  0.14919  0.99980  0.19398  1.0000
  O   O1        1.0  0.22050  0.99968  0.23576  1.0000
