# generated using pymatgen
data_Li4Y4Sn4Pb4CO
_symmetry_space_group_name_H-M   'P 1'
_cell_length_a   6.55220000
_cell_length_b   9.36828000
_cell_length_c   24.89710000
_cell_angle_alpha   90.00000000
_cell_angle_beta   90.00000000
_cell_angle_gamma   90.00000000
_symmetry_Int_Tables_number   1
_chemical_formula_structural   Li4Y4Sn4Pb4CO
_chemical_formula_sum   'Li4 Y4 Sn4 Pb4 C1 O1'
_cell_volume   1528.25481073
_cell_formula_units_Z   1
loop_
 _symmetry_equiv_pos_site_id
 _symmetry_equiv_pos_as_xyz
  1  'x, y, z'
loop_
 _atom_site_type_symbol
 _atom_site_label
 _atom_site_symmetry_multiplicity
 _atom_site_fract_x
 _atom_site_fract_y
 _atom_site_fract_z
 _atom_site_occupancy
  Li  Li0  1  0.03982000  0.99996000  0.11443000  1.0
  Li  Li1  1  0.45833000  0.00000000  0.96722000  1.0
  Li  Li2  1  0.03127000  0.49989000  0.10221000  1.0
  Li  Li3  1  0.45833000  0.50000000  0.96722000  1.0
  Y  Y4  1  0.74985000  0.24814000  0.03306000  1.0
  Y  Y5  1  0.18749000  0.25000000  0.90165000  1.0
  Y  Y6  1  0.74941000  0.75183000  0.03302000  1.0
  Y  Y7  1  0.18749000  0.75000000  0.90165000  1.0
  Sn  Sn8  1  0.51408000  0.99996000  0.09437000  1.0
  Sn  Sn9  1  0.95833000  0.00000000  0.96722000  1.0
  Sn  Sn10  1  0.51238000  0.50010000  0.09444000  1.0
  Sn  Sn11  1  0.95833000  0.50000000  0.96722000  1.0
  Pb  Pb12  1  0.24418000  0.24821000  0.04997000  1.0
  Pb  Pb13  1  0.68749000  0.25000000  0.90165000  1.0
  Pb  Pb14  1  0.24383000  0.75190000  0.05005000  1.0
  Pb  Pb15  1  0.68749000  0.75000000  0.90165000  1.0
  C  C16  1  0.14919000  0.99980000  0.19398000  1.0
  O  O17  1  0.22050000  0.99968000  0.23576000  1.0
