data_image0
_chemical_formula_structural       Li8Co16Ge8C
_chemical_formula_sum              "Li8 Co16 Ge8 C1"
_cell_length_a       5.64259
_cell_length_b       7.97982
_cell_length_c       25.9849
_cell_angle_alpha    90
_cell_angle_beta     90
_cell_angle_gamma    90

_space_group_name_H-M_alt    "P 1"
_space_group_IT_number       1

loop_
  _space_group_symop_operation_xyz
  'x, y, z'

loop_
  _atom_site_type_symbol
  _atom_site_label
  _atom_site_symmetry_multiplicity
  _atom_site_fract_x
  _atom_site_fract_y
  _atom_site_fract_z
  _atom_site_occupancy
  Li  Li1       1.0  0.00000  0.00000  0.88484  1.0000
  Li  Li2       1.0  0.50000  0.25000  0.96161  1.0000
  Li  Li3       1.0  0.50000  0.75000  0.96161  1.0000
  Li  Li4       1.0  0.00000  0.50000  0.88484  1.0000
  Li  Li5       1.0  0.00001  0.50000  0.03632  1.0000
  Li  Li6       1.0  0.50000  0.76043  0.14850  1.0000
  Li  Li7       1.0  0.50000  0.23957  0.14850  1.0000
  Li  Li8       1.0  0.00000  1.00000  0.03660  1.0000
  Co  Co1       1.0  0.25000  0.00000  0.96161  1.0000
  Co  Co2       1.0  0.75000  0.50000  0.96161  1.0000
  Co  Co3       1.0  0.75000  0.00000  0.96161  1.0000
  Co  Co4       1.0  0.25000  0.50000  0.96161  1.0000
  Co  Co5       1.0  0.75000  0.75000  0.88484  1.0000
  Co  Co6       1.0  0.25000  0.25000  0.88484  1.0000
  Co  Co7       1.0  0.25000  0.75000  0.88484  1.0000
  Co  Co8       1.0  0.75000  0.25000  0.88484  1.0000
  Co  Co9       1.0  0.27290  0.50000  0.11114  1.0000
  Co  Co10      1.0  0.75631  0.00000  0.11339  1.0000
  Co  Co11      1.0  0.72711  0.50000  0.11115  1.0000
  Co  Co12      1.0  0.24367  0.00000  0.11340  1.0000
  Co  Co13      1.0  0.74436  0.24850  0.04087  1.0000
  Co  Co14      1.0  0.25566  0.75149  0.04087  1.0000
  Co  Co15      1.0  0.25563  0.24851  0.04087  1.0000
  Co  Co16      1.0  0.74434  0.75150  0.04088  1.0000
  Ge  Ge1       1.0  0.00000  0.75000  0.96161  1.0000
  Ge  Ge2       1.0  0.50000  0.00000  0.88484  1.0000
  Ge  Ge3       1.0  0.00000  0.25000  0.96161  1.0000
  Ge  Ge4       1.0  0.50000  0.50000  0.88484  1.0000
  Ge  Ge5       1.0  0.00001  0.26655  0.11492  1.0000
  Ge  Ge6       1.0  0.50000  0.49999  0.03449  1.0000
  Ge  Ge7       1.0  0.00000  0.73345  0.11493  1.0000
  Ge  Ge8       1.0  0.50000  0.00001  0.03524  1.0000
  C   C1        1.0  0.99998  1.00000  0.15426  1.0000
