data_image0
_chemical_formula_structural       Hf4Al4Co8CO
_chemical_formula_sum              "Hf4 Al4 Co8 C1 O1"
_cell_length_a       6.03399
_cell_length_b       6.03399
_cell_length_c       24.5255
_cell_angle_alpha    90
_cell_angle_beta     90
_cell_angle_gamma    90

_space_group_name_H-M_alt    "P 1"
_space_group_IT_number       1

loop_
  _space_group_symop_operation_xyz
  'x, y, z'

loop_
  _atom_site_type_symbol
  _atom_site_label
  _atom_site_symmetry_multiplicity
  _atom_site_fract_x
  _atom_site_fract_y
  _atom_site_fract_z
  _atom_site_occupancy
  Hf  Hf1       1.0  0.00000  0.00000  0.09226  1.0000
  Hf  Hf2       1.0  0.50000  0.50000  0.09226  1.0000
  Hf  Hf3       1.0  0.50000  0.00000  0.96925  1.0000
  Hf  Hf4       1.0  0.00000  0.50000  0.96925  1.0000
  Al  Al1       1.0  0.00000  0.00000  0.96925  1.0000
  Al  Al2       1.0  0.50000  0.00000  0.09226  1.0000
  Al  Al3       1.0  0.00000  0.50000  0.09226  1.0000
  Al  Al4       1.0  0.50000  0.50000  0.96925  1.0000
  Co  Co1       1.0  0.25000  0.25000  0.03075  1.0000
  Co  Co2       1.0  0.75000  0.75000  0.90774  1.0000
  Co  Co3       1.0  0.75000  0.25000  0.03075  1.0000
  Co  Co4       1.0  0.25000  0.75000  0.90774  1.0000
  Co  Co5       1.0  0.75000  0.75000  0.03075  1.0000
  Co  Co6       1.0  0.25000  0.25000  0.90774  1.0000
  Co  Co7       1.0  0.25000  0.75000  0.03075  1.0000
  Co  Co8       1.0  0.75000  0.25000  0.90774  1.0000
  C   C1        1.0  0.00000  0.00000  0.16973  1.0000
  O   O1        1.0  0.00000  0.00000  0.21662  1.0000
