# generated using pymatgen
data_Mn4Co8Sb4CO
_symmetry_space_group_name_H-M   'P 1'
_cell_length_a   6.03986000
_cell_length_b   6.03986000
_cell_length_c   24.52990000
_cell_angle_alpha   90.00000000
_cell_angle_beta   90.00000000
_cell_angle_gamma   90.00000000
_symmetry_Int_Tables_number   1
_chemical_formula_structural   Mn4Co8Sb4CO
_chemical_formula_sum   'Mn4 Co8 Sb4 C1 O1'
_cell_volume   894.84851535
_cell_formula_units_Z   1
loop_
 _symmetry_equiv_pos_site_id
 _symmetry_equiv_pos_as_xyz
  1  'x, y, z'
loop_
 _atom_site_type_symbol
 _atom_site_label
 _atom_site_symmetry_multiplicity
 _atom_site_fract_x
 _atom_site_fract_y
 _atom_site_fract_z
 _atom_site_occupancy
  Mn  Mn0  1  0.00000000  0.00000000  0.09233000  1.0
  Mn  Mn1  1  0.50000000  0.50000000  0.09233000  1.0
  Mn  Mn2  1  0.50000000  0.00000000  0.96922000  1.0
  Mn  Mn3  1  0.00000000  0.50000000  0.96922000  1.0
  Co  Co4  1  0.25000000  0.25000000  0.03078000  1.0
  Co  Co5  1  0.75000000  0.75000000  0.90767000  1.0
  Co  Co6  1  0.75000000  0.25000000  0.03078000  1.0
  Co  Co7  1  0.25000000  0.75000000  0.90767000  1.0
  Co  Co8  1  0.75000000  0.75000000  0.03078000  1.0
  Co  Co9  1  0.25000000  0.25000000  0.90767000  1.0
  Co  Co10  1  0.25000000  0.75000000  0.03078000  1.0
  Co  Co11  1  0.75000000  0.25000000  0.90767000  1.0
  Sb  Sb12  1  0.00000000  0.00000000  0.96922000  1.0
  Sb  Sb13  1  0.50000000  0.00000000  0.09233000  1.0
  Sb  Sb14  1  0.00000000  0.50000000  0.09233000  1.0
  Sb  Sb15  1  0.50000000  0.50000000  0.96922000  1.0
  C  C16  1  0.00000000  0.00000000  0.16979000  1.0
  O  O17  1  0.00000000  0.00000000  0.21667000  1.0
