# generated using pymatgen
data_Li4Ti4Al4Pd4CO
_symmetry_space_group_name_H-M   'P 1'
_cell_length_a   6.17553000
_cell_length_b   6.17553000
_cell_length_c   24.63160000
_cell_angle_alpha   90.00000000
_cell_angle_beta   90.00000000
_cell_angle_gamma   90.00000000
_symmetry_Int_Tables_number   1
_chemical_formula_structural   Li4Ti4Al4Pd4CO
_chemical_formula_sum   'Li4 Ti4 Al4 Pd4 C1 O1'
_cell_volume   939.37953581
_cell_formula_units_Z   1
loop_
 _symmetry_equiv_pos_site_id
 _symmetry_equiv_pos_as_xyz
  1  'x, y, z'
loop_
 _atom_site_type_symbol
 _atom_site_label
 _atom_site_symmetry_multiplicity
 _atom_site_fract_x
 _atom_site_fract_y
 _atom_site_fract_z
 _atom_site_occupancy
  Li  Li0  1  0.25000000  0.25000000  0.03134000  1
  Li  Li1  1  0.75080500  0.24919500  0.88089000  1
  Li  Li2  1  0.24993500  0.75006500  0.87819000  1
  Li  Li3  1  0.75000000  0.75000000  0.03134000  1
  Ti  Ti4  1  0.50000000  1.00000000  0.09402000  1
  Ti  Ti5  1  0.00360000  0.99640000  0.96768000  1
  Ti  Ti6  1  0.49636500  0.50363500  0.96764000  1
  Ti  Ti7  1  1.00000000  0.50000000  0.09402000  1
  Al  Al8  1  0.00000000  0.00000000  0.09402000  1
  Al  Al9  1  0.50069000  0.00057000  0.96655000  1
  Al  Al10  1  0.99943000  0.49931000  0.96655000  1
  Al  Al11  1  0.50000000  0.50000000  0.09402000  1
  Pd  Pd12  1  0.25000000  0.75000000  0.03134000  1
  Pd  Pd13  1  0.75020000  0.74993000  0.91221000  1
  Pd  Pd14  1  0.25007000  0.24980000  0.91221000  1
  Pd  Pd15  1  0.75000000  0.25000000  0.03134000  1
  C  C16  1  0.24848000  0.75152000  0.79255000  1
  O  O17  1  0.24787500  0.75212500  0.74626000  1
