data_image0
_chemical_formula_structural       Sc16Zn16C
_chemical_formula_sum              "Sc16 Zn16 C1"
_cell_length_a       6.7051
_cell_length_b       9.48244
_cell_length_c       27.1118
_cell_angle_alpha    90
_cell_angle_beta     90
_cell_angle_gamma    90

_space_group_name_H-M_alt    "P 1"
_space_group_IT_number       1

loop_
  _space_group_symop_operation_xyz
  'x, y, z'

loop_
  _atom_site_type_symbol
  _atom_site_label
  _atom_site_symmetry_multiplicity
  _atom_site_fract_x
  _atom_site_fract_y
  _atom_site_fract_z
  _atom_site_occupancy
  Sc  Sc1       1.0  0.00000  0.00000  0.86884  1.0000
  Sc  Sc2       1.0  0.00000  0.25000  0.95628  1.0000
  Sc  Sc3       1.0  0.00144  0.99817  0.04392  1.0000
  Sc  Sc4       1.0  0.97517  0.25000  0.13192  1.0000
  Sc  Sc5       1.0  0.00000  0.50000  0.86884  1.0000
  Sc  Sc6       1.0  0.00000  0.75000  0.95628  1.0000
  Sc  Sc7       1.0  0.00146  0.50184  0.04392  1.0000
  Sc  Sc8       1.0  0.01775  0.74999  0.12817  1.0000
  Sc  Sc9       1.0  0.50000  0.00000  0.86884  1.0000
  Sc  Sc10      1.0  0.50000  0.25000  0.95628  1.0000
  Sc  Sc11      1.0  0.49838  0.99816  0.04389  1.0000
  Sc  Sc12      1.0  0.52564  0.25001  0.13200  1.0000
  Sc  Sc13      1.0  0.50000  0.50000  0.86884  1.0000
  Sc  Sc14      1.0  0.50000  0.75000  0.95628  1.0000
  Sc  Sc15      1.0  0.49836  0.50184  0.04389  1.0000
  Sc  Sc16      1.0  0.48198  0.75000  0.12819  1.0000
  Zn  Zn1       1.0  0.25000  0.25000  0.86884  1.0000
  Zn  Zn2       1.0  0.25000  0.00000  0.95628  1.0000
  Zn  Zn3       1.0  0.25026  0.25002  0.04413  1.0000
  Zn  Zn4       1.0  0.25055  0.02335  0.13884  1.0000
  Zn  Zn5       1.0  0.25000  0.75000  0.86884  1.0000
  Zn  Zn6       1.0  0.25000  0.50000  0.95628  1.0000
  Zn  Zn7       1.0  0.25013  0.74998  0.03937  1.0000
  Zn  Zn8       1.0  0.25055  0.47665  0.13883  1.0000
  Zn  Zn9       1.0  0.75000  0.25000  0.86884  1.0000
  Zn  Zn10      1.0  0.75000  0.00000  0.95628  1.0000
  Zn  Zn11      1.0  0.74977  0.25011  0.04044  1.0000
  Zn  Zn12      1.0  0.74964  0.98735  0.12838  1.0000
  Zn  Zn13      1.0  0.75000  0.75000  0.86884  1.0000
  Zn  Zn14      1.0  0.75000  0.50000  0.95628  1.0000
  Zn  Zn15      1.0  0.74972  0.74996  0.04504  1.0000
  Zn  Zn16      1.0  0.74963  0.51264  0.12837  1.0000
  C   C1        1.0  0.25039  0.25000  0.16083  1.0000
