# generated using pymatgen
data_Sc16Zn16C
_symmetry_space_group_name_H-M   'P 1'
_cell_length_a   6.70510000
_cell_length_b   9.48244000
_cell_length_c   27.11180000
_cell_angle_alpha   90.00000000
_cell_angle_beta   90.00000000
_cell_angle_gamma   90.00000000
_symmetry_Int_Tables_number   1
_chemical_formula_structural   Sc16Zn16C
_chemical_formula_sum   'Sc16 Zn16 C1'
_cell_volume   1723.78745119
_cell_formula_units_Z   1
loop_
 _symmetry_equiv_pos_site_id
 _symmetry_equiv_pos_as_xyz
  1  'x, y, z'
loop_
 _atom_site_type_symbol
 _atom_site_label
 _atom_site_symmetry_multiplicity
 _atom_site_fract_x
 _atom_site_fract_y
 _atom_site_fract_z
 _atom_site_occupancy
  Sc  Sc0  1  0.00000000  0.00000000  0.86884000  1.0
  Sc  Sc1  1  0.00000000  0.25000000  0.95628000  1.0
  Sc  Sc2  1  0.00144000  0.99817000  0.04392000  1.0
  Sc  Sc3  1  0.97517000  0.25000000  0.13192000  1.0
  Sc  Sc4  1  0.00000000  0.50000000  0.86884000  1.0
  Sc  Sc5  1  0.00000000  0.75000000  0.95628000  1.0
  Sc  Sc6  1  0.00146000  0.50184000  0.04392000  1.0
  Sc  Sc7  1  0.01775000  0.74999000  0.12817000  1.0
  Sc  Sc8  1  0.50000000  0.00000000  0.86884000  1.0
  Sc  Sc9  1  0.50000000  0.25000000  0.95628000  1.0
  Sc  Sc10  1  0.49838000  0.99816000  0.04389000  1.0
  Sc  Sc11  1  0.52564000  0.25001000  0.13200000  1.0
  Sc  Sc12  1  0.50000000  0.50000000  0.86884000  1.0
  Sc  Sc13  1  0.50000000  0.75000000  0.95628000  1.0
  Sc  Sc14  1  0.49836000  0.50184000  0.04389000  1.0
  Sc  Sc15  1  0.48198000  0.75000000  0.12819000  1.0
  Zn  Zn16  1  0.25000000  0.25000000  0.86884000  1.0
  Zn  Zn17  1  0.25000000  0.00000000  0.95628000  1.0
  Zn  Zn18  1  0.25026000  0.25002000  0.04413000  1.0
  Zn  Zn19  1  0.25055000  0.02335000  0.13884000  1.0
  Zn  Zn20  1  0.25000000  0.75000000  0.86884000  1.0
  Zn  Zn21  1  0.25000000  0.50000000  0.95628000  1.0
  Zn  Zn22  1  0.25013000  0.74998000  0.03937000  1.0
  Zn  Zn23  1  0.25055000  0.47665000  0.13883000  1.0
  Zn  Zn24  1  0.75000000  0.25000000  0.86884000  1.0
  Zn  Zn25  1  0.75000000  0.00000000  0.95628000  1.0
  Zn  Zn26  1  0.74977000  0.25011000  0.04044000  1.0
  Zn  Zn27  1  0.74964000  0.98735000  0.12838000  1.0
  Zn  Zn28  1  0.75000000  0.75000000  0.86884000  1.0
  Zn  Zn29  1  0.75000000  0.50000000  0.95628000  1.0
  Zn  Zn30  1  0.74972000  0.74996000  0.04504000  1.0
  Zn  Zn31  1  0.74963000  0.51264000  0.12837000  1.0
  C  C32  1  0.25039000  0.25000000  0.16083000  1.0
