data_image0
_chemical_formula_structural       Li16Mg8Pb8CO
_chemical_formula_sum              "Li16 Mg8 Pb8 C1 O1"
_cell_length_a       6.88544
_cell_length_b       9.73748
_cell_length_c       27.3031
_cell_angle_alpha    90
_cell_angle_beta     90
_cell_angle_gamma    90

_space_group_name_H-M_alt    "P 1"
_space_group_IT_number       1

loop_
  _space_group_symop_operation_xyz
  'x, y, z'

loop_
  _atom_site_type_symbol
  _atom_site_label
  _atom_site_symmetry_multiplicity
  _atom_site_fract_x
  _atom_site_fract_y
  _atom_site_fract_z
  _atom_site_occupancy
  Li  Li1       1.0  0.25000  0.00000  0.95542  1.0000
  Li  Li2       1.0  0.75000  0.50000  0.95542  1.0000
  Li  Li3       1.0  0.75000  0.00000  0.95542  1.0000
  Li  Li4       1.0  0.25000  0.50000  0.95542  1.0000
  Li  Li5       1.0  0.75000  0.75000  0.86626  1.0000
  Li  Li6       1.0  0.25000  0.25000  0.86626  1.0000
  Li  Li7       1.0  0.25000  0.75000  0.86626  1.0000
  Li  Li8       1.0  0.75000  0.25000  0.86626  1.0000
  Li  Li9       1.0  0.23287  0.50000  0.14194  1.0000
  Li  Li10      1.0  0.76745  0.00000  0.14168  1.0000
  Li  Li11      1.0  0.76710  0.50000  0.14205  1.0000
  Li  Li12      1.0  0.23543  1.00000  0.14234  1.0000
  Li  Li13      1.0  0.75509  0.24974  0.04198  1.0000
  Li  Li14      1.0  0.24438  0.75030  0.04220  1.0000
  Li  Li15      1.0  0.24438  0.24970  0.04220  1.0000
  Li  Li16      1.0  0.75509  0.75026  0.04198  1.0000
  Mg  Mg1       1.0  0.00000  0.00000  0.86626  1.0000
  Mg  Mg2       1.0  0.50000  0.25000  0.95542  1.0000
  Mg  Mg3       1.0  0.50000  0.75000  0.95542  1.0000
  Mg  Mg4       1.0  0.00000  0.50000  0.86626  1.0000
  Mg  Mg5       1.0  0.99913  0.50000  0.05090  1.0000
  Mg  Mg6       1.0  0.50195  0.74782  0.12934  1.0000
  Mg  Mg7       1.0  0.50195  0.25218  0.12934  1.0000
  Mg  Mg8       1.0  0.00029  1.00000  0.05104  1.0000
  Pb  Pb1       1.0  0.00000  0.75000  0.95542  1.0000
  Pb  Pb2       1.0  0.50000  0.00000  0.86626  1.0000
  Pb  Pb3       1.0  0.00000  0.25000  0.95542  1.0000
  Pb  Pb4       1.0  0.50000  0.50000  0.86626  1.0000
  Pb  Pb5       1.0  0.99691  0.25159  0.13293  1.0000
  Pb  Pb6       1.0  0.49922  0.50000  0.04948  1.0000
  Pb  Pb7       1.0  0.99690  0.74842  0.13293  1.0000
  Pb  Pb8       1.0  0.49900  1.00000  0.04954  1.0000
  C   C1        1.0  0.26650  1.00000  0.21783  1.0000
  O   O1        1.0  0.26994  1.00000  0.25972  1.0000
