# generated using pymatgen
data_Li16Mg8Pb8CO
_symmetry_space_group_name_H-M   'P 1'
_cell_length_a   9.73748000
_cell_length_b   6.88544000
_cell_length_c   27.30310000
_cell_angle_alpha   90.00000000
_cell_angle_beta   90.00000000
_cell_angle_gamma   90.00000000
_symmetry_Int_Tables_number   1
_chemical_formula_structural   Li16Mg8Pb8CO
_chemical_formula_sum   'Li16 Mg8 Pb8 C1 O1'
_cell_volume   1830.58642134
_cell_formula_units_Z   1
loop_
 _symmetry_equiv_pos_site_id
 _symmetry_equiv_pos_as_xyz
  1  'x, y, z'
loop_
 _atom_site_type_symbol
 _atom_site_label
 _atom_site_symmetry_multiplicity
 _atom_site_fract_x
 _atom_site_fract_y
 _atom_site_fract_z
 _atom_site_occupancy
  Li  Li0  1  0.00000000  0.25000000  0.04458000  1.0
  Li  Li1  1  0.50000000  0.75000000  0.04458000  1.0
  Li  Li2  1  0.00000000  0.75000000  0.04458000  1.0
  Li  Li3  1  0.50000000  0.25000000  0.04458000  1.0
  Li  Li4  1  0.75000000  0.75000000  0.13374000  1.0
  Li  Li5  1  0.25000000  0.25000000  0.13374000  1.0
  Li  Li6  1  0.75000000  0.25000000  0.13374000  1.0
  Li  Li7  1  0.25000000  0.75000000  0.13374000  1.0
  Li  Li8  1  0.50000000  0.23287000  0.85806000  1.0
  Li  Li9  1  0.00000000  0.76745000  0.85832000  1.0
  Li  Li10  1  0.50000000  0.76710000  0.85795000  1.0
  Li  Li11  1  0.00000000  0.23543000  0.85766000  1.0
  Li  Li12  1  0.24974000  0.75509000  0.95802000  1.0
  Li  Li13  1  0.75030000  0.24438000  0.95780000  1.0
  Li  Li14  1  0.24970000  0.24438000  0.95780000  1.0
  Li  Li15  1  0.75026000  0.75509000  0.95802000  1.0
  Mg  Mg16  1  0.00000000  0.00000000  0.13374000  1.0
  Mg  Mg17  1  0.25000000  0.50000000  0.04458000  1.0
  Mg  Mg18  1  0.75000000  0.50000000  0.04458000  1.0
  Mg  Mg19  1  0.50000000  1.00000000  0.13374000  1.0
  Mg  Mg20  1  0.50000000  0.99913000  0.94910000  1.0
  Mg  Mg21  1  0.74782000  0.50195000  0.87066000  1.0
  Mg  Mg22  1  0.25218000  0.50195000  0.87066000  1.0
  Mg  Mg23  1  0.00000000  0.00029000  0.94896000  1.0
  Pb  Pb24  1  0.75000000  1.00000000  0.04458000  1.0
  Pb  Pb25  1  0.00000000  0.50000000  0.13374000  1.0
  Pb  Pb26  1  0.25000000  1.00000000  0.04458000  1.0
  Pb  Pb27  1  0.50000000  0.50000000  0.13374000  1.0
  Pb  Pb28  1  0.25159000  0.99691000  0.86707000  1.0
  Pb  Pb29  1  0.50000000  0.49922000  0.95052000  1.0
  Pb  Pb30  1  0.74841000  0.99691000  0.86707000  1.0
  Pb  Pb31  1  0.00000000  0.49900000  0.95046000  1.0
  C  C32  1  0.00000000  0.26650000  0.78217000  1.0
  O  O33  1  0.00000000  0.26994000  0.74028000  1.0
