# generated using pymatgen
data_BeRh
_symmetry_space_group_name_H-M   'P 1'
_cell_length_a   2.78714000
_cell_length_b   3.94161000
_cell_length_c   25.91240000
_cell_angle_alpha   90.00000000
_cell_angle_beta   90.00000000
_cell_angle_gamma   90.00000000
_symmetry_Int_Tables_number   1
_chemical_formula_structural   BeRh
_chemical_formula_sum   'Be4 Rh4'
_cell_volume   284.66893355
_cell_formula_units_Z   4
loop_
 _symmetry_equiv_pos_site_id
 _symmetry_equiv_pos_as_xyz
  1  'x, y, z'
loop_
 _atom_site_type_symbol
 _atom_site_label
 _atom_site_symmetry_multiplicity
 _atom_site_fract_x
 _atom_site_fract_y
 _atom_site_fract_z
 _atom_site_occupancy
  Be  Be0  1  0.00000000  0.00000000  0.88592000  1.0
  Be  Be1  1  0.00000000  0.50000000  0.96197000  1.0
  Be  Be2  1  0.00000000  0.00000000  0.03962000  1.0
  Be  Be3  1  0.00000000  0.50000000  0.10804000  1.0
  Rh  Rh4  1  0.50000000  0.50000000  0.88592000  1.0
  Rh  Rh5  1  0.50000000  0.00000000  0.96197000  1.0
  Rh  Rh6  1  0.50000000  0.50000000  0.03711000  1.0
  Rh  Rh7  1  0.50000000  0.00000000  0.11479250  1.0
