# generated using pymatgen
data_LiScAlIn
_symmetry_space_group_name_H-M   'P 1'
_cell_length_a   8.49254000
_cell_length_b   6.04255000
_cell_length_c   24.52830000
_cell_angle_alpha   90.00000000
_cell_angle_beta   90.00000000
_cell_angle_gamma   90.00000000
_symmetry_Int_Tables_number   1
_chemical_formula_structural   LiScAlIn
_chemical_formula_sum   'Li4 Sc4 Al4 In4'
_cell_volume   1258.70890035
_cell_formula_units_Z   4
loop_
 _symmetry_equiv_pos_site_id
 _symmetry_equiv_pos_as_xyz
  1  'x, y, z'
loop_
 _atom_site_type_symbol
 _atom_site_label
 _atom_site_symmetry_multiplicity
 _atom_site_fract_x
 _atom_site_fract_y
 _atom_site_fract_z
 _atom_site_occupancy
  Li  Li0  1  0.00000000  0.74006000  0.03077000  1.0
  Li  Li1  1  0.00000000  0.21429000  0.91139000  1.0
  Li  Li2  1  0.50000000  0.74006000  0.03077000  1.0
  Li  Li3  1  0.50000000  0.21431000  0.91138000  1.0
  Sc  Sc4  1  0.00000000  0.24006000  0.03077000  1.0
  Sc  Sc5  1  0.00000000  0.70268000  0.91331000  1.0
  Sc  Sc6  1  0.50000000  0.24006000  0.03077000  1.0
  Sc  Sc7  1  0.50000000  0.70272000  0.91326000  1.0
  Al  Al8  1  0.75000000  0.00000000  0.09231000  1.0
  Al  Al9  1  0.75002000  0.46595000  0.96596000  1.0
  Al  Al10  1  0.25000000  0.00000000  0.09231000  1.0
  Al  Al11  1  0.24998000  0.46595000  0.96596000  1.0
  In  In12  1  0.75000000  0.50000000  0.09231000  1.0
  In  In13  1  0.75002000  0.96968000  0.96719000  1.0
  In  In14  1  0.25000000  0.50000000  0.09231000  1.0
  In  In15  1  0.24998000  0.96968000  0.96719000  1.0
