data_image0
_chemical_formula_structural       Si16Os16C
_chemical_formula_sum              "Si16 Os16 C1"
_cell_length_a       5.90864
_cell_length_b       8.35608
_cell_length_c       26.2671
_cell_angle_alpha    90
_cell_angle_beta     90
_cell_angle_gamma    90

_space_group_name_H-M_alt    "P 1"
_space_group_IT_number       1

loop_
  _space_group_symop_operation_xyz
  'x, y, z'

loop_
  _atom_site_type_symbol
  _atom_site_label
  _atom_site_symmetry_multiplicity
  _atom_site_fract_x
  _atom_site_fract_y
  _atom_site_fract_z
  _atom_site_occupancy
  Si  Si1       1.0  0.25000  0.25000  0.88070  1.0000
  Si  Si2       1.0  0.25000  0.00000  0.96023  1.0000
  Si  Si3       1.0  0.25000  0.25000  0.03977  1.0000
  Si  Si4       1.0  0.25000  0.00000  0.11930  1.0000
  Si  Si5       1.0  0.25000  0.75000  0.88070  1.0000
  Si  Si6       1.0  0.25000  0.50000  0.96023  1.0000
  Si  Si7       1.0  0.25000  0.75000  0.03977  1.0000
  Si  Si8       1.0  0.25000  0.50000  0.11930  1.0000
  Si  Si9       1.0  0.75000  0.25000  0.88070  1.0000
  Si  Si10      1.0  0.75000  0.00000  0.96023  1.0000
  Si  Si11      1.0  0.75000  0.25000  0.03977  1.0000
  Si  Si12      1.0  0.75000  0.00000  0.11930  1.0000
  Si  Si13      1.0  0.75000  0.75000  0.88070  1.0000
  Si  Si14      1.0  0.75000  0.50000  0.96023  1.0000
  Si  Si15      1.0  0.75000  0.75000  0.03977  1.0000
  Si  Si16      1.0  0.75000  0.50000  0.11930  1.0000
  Os  Os1       1.0  0.00000  0.00000  0.88070  1.0000
  Os  Os2       1.0  0.00000  0.25000  0.96023  1.0000
  Os  Os3       1.0  0.00000  0.00000  0.03977  1.0000
  Os  Os4       1.0  0.00000  0.25000  0.11930  1.0000
  Os  Os5       1.0  0.00000  0.50000  0.88070  1.0000
  Os  Os6       1.0  0.00000  0.75000  0.96023  1.0000
  Os  Os7       1.0  0.00000  0.50000  0.03977  1.0000
  Os  Os8       1.0  0.00000  0.75000  0.11930  1.0000
  Os  Os9       1.0  0.50000  0.00000  0.88070  1.0000
  Os  Os10      1.0  0.50000  0.25000  0.96023  1.0000
  Os  Os11      1.0  0.50000  0.00000  0.03977  1.0000
  Os  Os12      1.0  0.50000  0.25000  0.11930  1.0000
  Os  Os13      1.0  0.50000  0.50000  0.88070  1.0000
  Os  Os14      1.0  0.50000  0.75000  0.96023  1.0000
  Os  Os15      1.0  0.50000  0.50000  0.03977  1.0000
  Os  Os16      1.0  0.50000  0.75000  0.11930  1.0000
  C   C1        1.0  0.00000  0.00000  0.14975  1.0000
