# generated using pymatgen
data_Si16Os16C
_symmetry_space_group_name_H-M   'P 1'
_cell_length_a   5.90864000
_cell_length_b   8.35608000
_cell_length_c   26.26710000
_cell_angle_alpha   90.00000000
_cell_angle_beta   90.00000000
_cell_angle_gamma   90.00000000
_symmetry_Int_Tables_number   1
_chemical_formula_structural   Si16Os16C
_chemical_formula_sum   'Si16 Os16 C1'
_cell_volume   1296.88732842
_cell_formula_units_Z   1
loop_
 _symmetry_equiv_pos_site_id
 _symmetry_equiv_pos_as_xyz
  1  'x, y, z'
loop_
 _atom_site_type_symbol
 _atom_site_label
 _atom_site_symmetry_multiplicity
 _atom_site_fract_x
 _atom_site_fract_y
 _atom_site_fract_z
 _atom_site_occupancy
  Si  Si0  1  0.25000000  0.25000000  0.88070000  1.0
  Si  Si1  1  0.25000000  0.00000000  0.96023000  1.0
  Si  Si2  1  0.25283000  0.25153000  0.04095000  1.0
  Si  Si3  1  0.30070000  0.00000000  0.12937000  1.0
  Si  Si4  1  0.25000000  0.75000000  0.88070000  1.0
  Si  Si5  1  0.25000000  0.50000000  0.96023000  1.0
  Si  Si6  1  0.25283000  0.74847000  0.04095000  1.0
  Si  Si7  1  0.23951000  0.50000000  0.12243000  1.0
  Si  Si8  1  0.75000000  0.25000000  0.88070000  1.0
  Si  Si9  1  0.75000000  0.00000000  0.96023000  1.0
  Si  Si10  1  0.74717000  0.25153000  0.04095000  1.0
  Si  Si11  1  0.69930000  0.00000000  0.12937000  1.0
  Si  Si12  1  0.75000000  0.75000000  0.88070000  1.0
  Si  Si13  1  0.75000000  0.50000000  0.96023000  1.0
  Si  Si14  1  0.74717000  0.74847000  0.04095000  1.0
  Si  Si15  1  0.76049000  0.50000000  0.12243000  1.0
  Os  Os16  1  0.00000000  0.00000000  0.88070000  1.0
  Os  Os17  1  0.00000000  0.25000000  0.96023000  1.0
  Os  Os18  1  0.00000000  0.00000000  0.03713000  1.0
  Os  Os19  1  0.00000000  0.26028000  0.11429000  1.0
  Os  Os20  1  0.00000000  0.50000000  0.88070000  1.0
  Os  Os21  1  0.00000000  0.75000000  0.96023000  1.0
  Os  Os22  1  0.00000000  0.50000000  0.03588000  1.0
  Os  Os23  1  0.00000000  0.73972000  0.11429000  1.0
  Os  Os24  1  0.50000000  0.00000000  0.88070000  1.0
  Os  Os25  1  0.50000000  0.25000000  0.96023000  1.0
  Os  Os26  1  0.50000000  0.00000000  0.03911000  1.0
  Os  Os27  1  0.50000000  0.25141000  0.11676000  1.0
  Os  Os28  1  0.50000000  0.50000000  0.88070000  1.0
  Os  Os29  1  0.50000000  0.75000000  0.96023000  1.0
  Os  Os30  1  0.50000000  0.50000000  0.03860000  1.0
  Os  Os31  1  0.50000000  0.74859000  0.11676000  1.0
  C  C32  1  0.00000000  0.00000000  0.12131000  1.0
