# generated using pymatgen
data_Li8Mg4Pb4CO
_symmetry_space_group_name_H-M   P4mm
_cell_length_a   6.88544000
_cell_length_b   6.88544000
_cell_length_c   25.16410000
_cell_angle_alpha   90.00000000
_cell_angle_beta   90.00000000
_cell_angle_gamma   90.00000000
_symmetry_Int_Tables_number   99
_chemical_formula_structural   Li8Mg4Pb4CO
_chemical_formula_sum   'Li8 Mg4 Pb4 C1 O1'
_cell_volume   1193.01196334
_cell_formula_units_Z   1
loop_
 _symmetry_equiv_pos_site_id
 _symmetry_equiv_pos_as_xyz
  1  'x, y, z'
  2  '-y, x, z'
  3  '-x, -y, z'
  4  'y, -x, z'
  5  '-x, y, z'
  6  'y, x, z'
  7  'x, -y, z'
  8  '-y, -x, z'
loop_
 _atom_site_type_symbol
 _atom_site_label
 _atom_site_symmetry_multiplicity
 _atom_site_fract_x
 _atom_site_fract_y
 _atom_site_fract_z
 _atom_site_occupancy
  Li  Li0  4  0.25000500  0.25000500  0.89739000  1.0
  Li  Li1  4  0.25077500  0.25077500  0.03586000  1.0
  Mg  Mg2  2  0.00000000  0.50000000  0.11049000  1.0
  Mg  Mg3  1  0.00000000  0.00000000  0.96580000  1.0
  Mg  Mg4  1  0.50000000  0.50000000  0.96580000  1.0
  Pb  Pb5  2  0.00000000  0.50000000  0.96580000  1.0
  Pb  Pb6  1  0.00000000  0.00000000  0.10906000  1.0
  Pb  Pb7  1  0.50000000  0.50000000  0.11076000  1.0
  C  C8  1  0.00000000  0.00000000  0.28184000  1.0
  O  O9  1  0.00000000  0.00000000  0.32693000  1.0
