data_image0
_chemical_formula_structural       Ca16Pb16CO
_chemical_formula_sum              "Ca16 Pb16 C1 O1"
_cell_length_a       10.419
_cell_length_b       9.18716
_cell_length_c       27.8143
_cell_angle_alpha    90
_cell_angle_beta     90
_cell_angle_gamma    90

_space_group_name_H-M_alt    "P 1"
_space_group_IT_number       1

loop_
  _space_group_symop_operation_xyz
  'x, y, z'

loop_
  _atom_site_type_symbol
  _atom_site_label
  _atom_site_symmetry_multiplicity
  _atom_site_fract_x
  _atom_site_fract_y
  _atom_site_fract_z
  _atom_site_occupancy
  Ca  Ca1       1.0  0.00000  0.00000  0.85953  1.0000
  Ca  Ca2       1.0  0.25000  0.00000  0.95318  1.0000
  Ca  Ca3       1.0  0.00008  0.99919  0.04639  1.0000
  Ca  Ca4       1.0  0.24985  0.00070  0.14459  1.0000
  Ca  Ca5       1.0  0.00000  0.50000  0.85953  1.0000
  Ca  Ca6       1.0  0.25000  0.50000  0.95318  1.0000
  Ca  Ca7       1.0  0.00008  0.50082  0.04640  1.0000
  Ca  Ca8       1.0  0.24983  0.49931  0.14460  1.0000
  Ca  Ca9       1.0  0.50000  0.00000  0.85953  1.0000
  Ca  Ca10      1.0  0.75000  0.00000  0.95318  1.0000
  Ca  Ca11      1.0  0.50007  0.00101  0.04662  1.0000
  Ca  Ca12      1.0  0.75034  0.00075  0.14457  1.0000
  Ca  Ca13      1.0  0.50000  0.50000  0.85953  1.0000
  Ca  Ca14      1.0  0.75000  0.50000  0.95318  1.0000
  Ca  Ca15      1.0  0.50006  0.49898  0.04662  1.0000
  Ca  Ca16      1.0  0.75033  0.49928  0.14457  1.0000
  Pb  Pb1       1.0  0.25000  0.25000  0.85953  1.0000
  Pb  Pb2       1.0  0.00000  0.25000  0.95318  1.0000
  Pb  Pb3       1.0  0.24903  0.25000  0.05184  1.0000
  Pb  Pb4       1.0  0.00020  0.25001  0.13718  1.0000
  Pb  Pb5       1.0  0.25000  0.75000  0.85953  1.0000
  Pb  Pb6       1.0  0.00000  0.75000  0.95318  1.0000
  Pb  Pb7       1.0  0.25093  0.75001  0.05248  1.0000
  Pb  Pb8       1.0  0.00007  0.75000  0.13783  1.0000
  Pb  Pb9       1.0  0.75000  0.25000  0.85953  1.0000
  Pb  Pb10      1.0  0.50000  0.25000  0.95318  1.0000
  Pb  Pb11      1.0  0.75110  0.25000  0.05181  1.0000
  Pb  Pb12      1.0  0.50006  0.25000  0.13852  1.0000
  Pb  Pb13      1.0  0.75000  0.75000  0.85953  1.0000
  Pb  Pb14      1.0  0.50000  0.75000  0.95318  1.0000
  Pb  Pb15      1.0  0.74919  0.75000  0.05248  1.0000
  Pb  Pb16      1.0  0.50013  0.75000  0.13729  1.0000
  C   C1        1.0  0.99633  0.24999  0.30725  1.0000
  O   O1        1.0  0.00038  0.25002  0.34804  1.0000
