# generated using pymatgen
data_Ca16Pb16CO
_symmetry_space_group_name_H-M   Pm
_cell_length_a   10.41900000
_cell_length_b   9.18716000
_cell_length_c   27.81430000
_cell_angle_alpha   90.00000000
_cell_angle_beta   90.00000000
_cell_angle_gamma   90.00000000
_symmetry_Int_Tables_number   6
_chemical_formula_structural   Ca16Pb16CO
_chemical_formula_sum   'Ca16 Pb16 C1 O1'
_cell_volume   2662.41316770
_cell_formula_units_Z   1
loop_
 _symmetry_equiv_pos_site_id
 _symmetry_equiv_pos_as_xyz
  1  'x, y, z'
  2  'x, -y, z'
loop_
 _atom_site_type_symbol
 _atom_site_label
 _atom_site_symmetry_multiplicity
 _atom_site_fract_x
 _atom_site_fract_y
 _atom_site_fract_z
 _atom_site_occupancy
  Ca  Ca0  2  0.00000000  0.24999000  0.85953000  1.0
  Ca  Ca1  2  0.00008000  0.25080000  0.04639000  1.0
  Ca  Ca2  2  0.24985000  0.24929000  0.14459000  1.0
  Ca  Ca3  2  0.25000000  0.24999000  0.95318000  1.0
  Ca  Ca4  2  0.50000000  0.24999000  0.85953000  1.0
  Ca  Ca5  2  0.50007000  0.24898000  0.04662000  1.0
  Ca  Ca6  2  0.75000000  0.24999000  0.95318000  1.0
  Ca  Ca7  2  0.75034000  0.24924000  0.14457000  1.0
  Pb  Pb8  1  0.00000000  0.50000000  0.95318000  1.0
  Pb  Pb9  1  0.00000000  0.00000000  0.95318000  1.0
  Pb  Pb10  1  0.00007000  0.50000000  0.13783000  1.0
  Pb  Pb11  1  0.00020000  0.00000000  0.13718000  1.0
  Pb  Pb12  1  0.24903000  0.00000000  0.05184000  1.0
  Pb  Pb13  1  0.25000000  0.00000000  0.85953000  1.0
  Pb  Pb14  1  0.25000000  0.50000000  0.85953000  1.0
  Pb  Pb15  1  0.25093000  0.50000000  0.05248000  1.0
  Pb  Pb16  1  0.50000000  0.00000000  0.95318000  1.0
  Pb  Pb17  1  0.50000000  0.50000000  0.95318000  1.0
  Pb  Pb18  1  0.50006000  0.00000000  0.13852000  1.0
  Pb  Pb19  1  0.50013000  0.50000000  0.13729000  1.0
  Pb  Pb20  1  0.74919000  0.50000000  0.05248000  1.0
  Pb  Pb21  1  0.75000000  0.00000000  0.85953000  1.0
  Pb  Pb22  1  0.75000000  0.50000000  0.85953000  1.0
  Pb  Pb23  1  0.75110000  0.00000000  0.05181000  1.0
  C  C24  1  0.99633000  0.00000000  0.30725000  1.0
  O  O25  1  0.00038000  0.00000000  0.34804000  1.0
