data_image0
_chemical_formula_structural       Li4Sc4In4Ag4CO
_chemical_formula_sum              "Li4 Sc4 In4 Ag4 C1 O1"
_cell_length_a       6.68683
_cell_length_b       6.68683
_cell_length_c       25.0151
_cell_angle_alpha    90
_cell_angle_beta     90
_cell_angle_gamma    90

_space_group_name_H-M_alt    "P 1"
_space_group_IT_number       1

loop_
  _space_group_symop_operation_xyz
  'x, y, z'

loop_
  _atom_site_type_symbol
  _atom_site_label
  _atom_site_symmetry_multiplicity
  _atom_site_fract_x
  _atom_site_fract_y
  _atom_site_fract_z
  _atom_site_occupancy
  Li  Li1       1.0  0.00000  0.50000  0.89976  1.0000
  Li  Li2       1.0  0.99816  0.99817  0.03848  1.0000
  Li  Li3       1.0  0.50133  0.50133  0.03837  1.0000
  Li  Li4       1.0  0.50000  0.00000  0.89976  1.0000
  Sc  Sc1       1.0  0.75000  0.25000  0.96659  1.0000
  Sc  Sc2       1.0  0.75044  0.75045  0.10882  1.0000
  Sc  Sc3       1.0  0.25005  0.25004  0.10902  1.0000
  Sc  Sc4       1.0  0.25000  0.75000  0.96659  1.0000
  In  In1       1.0  0.25000  0.25000  0.96659  1.0000
  In  In2       1.0  0.24976  0.75023  0.10950  1.0000
  In  In3       1.0  0.75023  0.24976  0.10950  1.0000
  In  In4       1.0  0.75000  0.75000  0.96659  1.0000
  Ag  Ag1       1.0  0.00000  0.00000  0.89976  1.0000
  Ag  Ag2       1.0  0.99806  0.50191  0.03673  1.0000
  Ag  Ag3       1.0  0.50193  0.99809  0.03673  1.0000
  Ag  Ag4       1.0  0.50000  0.50000  0.89976  1.0000
  C   C1        1.0  0.25205  0.25205  0.20078  1.0000
  O   O1        1.0  0.25166  0.25166  0.24669  1.0000
