# generated using pymatgen
data_Li16Pb8Au8CO
_symmetry_space_group_name_H-M   'P 1'
_cell_length_a   9.64550000
_cell_length_b   6.82040000
_cell_length_c   27.23410000
_cell_angle_alpha   90.00000000
_cell_angle_beta   90.00000000
_cell_angle_gamma   90.00000000
_symmetry_Int_Tables_number   1
_chemical_formula_structural   Li16Pb8Au8CO
_chemical_formula_sum   'Li16 Pb8 Au8 C1 O1'
_cell_volume   1791.62708338
_cell_formula_units_Z   1
loop_
 _symmetry_equiv_pos_site_id
 _symmetry_equiv_pos_as_xyz
  1  'x, y, z'
loop_
 _atom_site_type_symbol
 _atom_site_label
 _atom_site_symmetry_multiplicity
 _atom_site_fract_x
 _atom_site_fract_y
 _atom_site_fract_z
 _atom_site_occupancy
  Li  Li0  1  0.50000000  1.00000000  0.04427000  1.0
  Li  Li1  1  0.75000000  0.50000000  0.13281000  1.0
  Li  Li2  1  0.00000000  0.00000000  0.04427000  1.0
  Li  Li3  1  0.25000000  0.50000000  0.13281000  1.0
  Li  Li4  1  0.75000000  0.25000000  0.04427000  1.0
  Li  Li5  1  0.25000000  0.25000000  0.04427000  1.0
  Li  Li6  1  0.50000000  0.75000000  0.13281000  1.0
  Li  Li7  1  0.00000000  0.75000000  0.13281000  1.0
  Li  Li8  1  0.00000000  0.97870000  0.87250000  1.0
  Li  Li9  1  0.24964000  0.50034000  0.96360000  1.0
  Li  Li10  1  0.50000000  0.97758000  0.87248000  1.0
  Li  Li11  1  0.75036000  0.50034000  0.96360000  1.0
  Li  Li12  1  0.25040000  0.30037000  0.87773000  1.0
  Li  Li13  1  0.74960000  0.30037000  0.87773000  1.0
  Li  Li14  1  0.00000000  0.71961000  0.94898000  1.0
  Li  Li15  1  0.50000000  0.71192000  0.94713000  1.0
  Pb  Pb16  1  0.75000000  0.00000000  0.13281000  1.0
  Pb  Pb17  1  0.00000000  0.50000000  0.04427000  1.0
  Pb  Pb18  1  0.50000000  0.50000000  0.04427000  1.0
  Pb  Pb19  1  0.25000000  0.00000000  0.13281000  1.0
  Pb  Pb20  1  0.25134000  0.01295000  0.95776000  1.0
  Pb  Pb21  1  0.50000000  0.50792000  0.84580000  1.0
  Pb  Pb22  1  0.00000000  0.50707000  0.84909000  1.0
  Pb  Pb23  1  0.74866000  0.01295000  0.95776000  1.0
  Au  Au24  1  0.00000000  0.25000000  0.13281000  1.0
  Au  Au25  1  0.50000000  0.25000000  0.13281000  1.0
  Au  Au26  1  0.25000000  0.75000000  0.04427000  1.0
  Au  Au27  1  0.75000000  0.75000000  0.04427000  1.0
  Au  Au28  1  0.50000000  0.28730000  0.94173000  1.0
  Au  Au29  1  0.00000000  0.28251000  0.94375000  1.0
  Au  Au30  1  0.74850000  0.71764000  0.88154000  1.0
  Au  Au31  1  0.25150000  0.71764000  0.88154000  1.0
  C  C32  1  0.00000000  0.61939000  0.72176000  1.0
  O  O33  1  0.00000000  0.47919000  0.69919000  1.0
