# generated using pymatgen
data_Ca12In4CO
_symmetry_space_group_name_H-M   'P 1'
_cell_length_a   8.11767000
_cell_length_b   8.11767000
_cell_length_c   26.08830000
_cell_angle_alpha   90.00000000
_cell_angle_beta   90.00000000
_cell_angle_gamma   90.00000000
_symmetry_Int_Tables_number   1
_chemical_formula_structural   Ca12In4CO
_chemical_formula_sum   'Ca12 In4 C1 O1'
_cell_volume   1719.12938875
_cell_formula_units_Z   1
loop_
 _symmetry_equiv_pos_site_id
 _symmetry_equiv_pos_as_xyz
  1  'x, y, z'
loop_
 _atom_site_type_symbol
 _atom_site_label
 _atom_site_symmetry_multiplicity
 _atom_site_fract_x
 _atom_site_fract_y
 _atom_site_fract_z
 _atom_site_occupancy
  Ca  Ca0  1  0.74490000  0.25503000  0.95739000  1.0
  Ca  Ca1  1  0.24999000  0.75000000  0.11669000  1.0
  Ca  Ca2  1  0.25510000  0.25503000  0.95739000  1.0
  Ca  Ca3  1  0.75001000  0.75000000  0.11669000  1.0
  Ca  Ca4  1  0.25508000  0.74496000  0.95739000  1.0
  Ca  Ca5  1  0.74999000  0.25000000  0.11669000  1.0
  Ca  Ca6  1  0.74492000  0.74496000  0.95739000  1.0
  Ca  Ca7  1  0.25001000  0.25000000  0.11669000  1.0
  Ca  Ca8  1  0.00000000  0.00000000  0.03890000  1.0
  Ca  Ca9  1  0.50000000  0.00002000  0.86397000  1.0
  Ca  Ca10  1  0.00000000  0.49999000  0.86389000  1.0
  Ca  Ca11  1  0.50000000  0.50000000  0.03890000  1.0
  In  In12  1  0.00000000  0.99998000  0.89859000  1.0
  In  In13  1  0.50000000  0.50001000  0.89208000  1.0
  In  In14  1  0.50000000  0.00000000  0.03890000  1.0
  In  In15  1  0.00000000  0.50000000  0.03890000  1.0
  C  C16  1  0.00000000  0.00003000  0.81202000  1.0
  O  O17  1  0.00000000  0.00002000  0.76732000  1.0
