# generated using pymatgen
data_Ca12In4CO
_symmetry_space_group_name_H-M   Pm
_cell_length_a   8.11767000
_cell_length_b   8.11767000
_cell_length_c   26.08830000
_cell_angle_alpha   90.00000000
_cell_angle_beta   90.00000000
_cell_angle_gamma   90.00000000
_symmetry_Int_Tables_number   6
_chemical_formula_structural   Ca12In4CO
_chemical_formula_sum   'Ca12 In4 C1 O1'
_cell_volume   1719.12938875
_cell_formula_units_Z   1
loop_
 _symmetry_equiv_pos_site_id
 _symmetry_equiv_pos_as_xyz
  1  'x, y, z'
  2  '-x, -y, z'
  3  '-x, y, z'
  4  'x, -y, z'
loop_
 _atom_site_type_symbol
 _atom_site_label
 _atom_site_symmetry_multiplicity
 _atom_site_fract_x
 _atom_site_fract_y
 _atom_site_fract_z
 _atom_site_occupancy
  Ca  Ca0  4  0.25000000  0.25001000  0.88331000  1.0
  Ca  Ca1  4  0.25503000  0.25510000  0.04261000  1.0
  Ca  Ca2  1  0.00000000  0.00000000  0.96110000  1.0
  Ca  Ca3  1  0.00002000  0.50000000  0.13603000  1.0
  Ca  Ca4  1  0.49999000  0.00000000  0.13611000  1.0
  Ca  Ca5  1  0.50000000  0.50000000  0.96110000  1.0
  In  In6  1  0.00000000  0.50000000  0.96110000  1.0
  In  In7  1  0.50000000  0.00000000  0.96110000  1.0
  In  In8  1  0.50001000  0.50000000  0.10792000  1.0
  In  In9  1  0.99998000  0.00000000  0.10141000  1.0
  C  C10  1  0.00003000  0.00000000  0.18798000  1.0
  O  O11  1  0.00002000  0.00000000  0.23268000  1.0
