data_image0
_chemical_formula_structural       Cu4Ni8Sn4CO
_chemical_formula_sum              "Cu4 Ni8 Sn4 C1 O1"
_cell_length_a       6.01864
_cell_length_b       6.01864
_cell_length_c       24.514
_cell_angle_alpha    90
_cell_angle_beta     90
_cell_angle_gamma    90

_space_group_name_H-M_alt    "P 1"
_space_group_IT_number       1

loop_
  _space_group_symop_operation_xyz
  'x, y, z'

loop_
  _atom_site_type_symbol
  _atom_site_label
  _atom_site_symmetry_multiplicity
  _atom_site_fract_x
  _atom_site_fract_y
  _atom_site_fract_z
  _atom_site_occupancy
  Cu  Cu1       1.0  0.00000  0.00000  0.90793  1.0000
  Cu  Cu2       1.0  0.50000  0.50000  0.90793  1.0000
  Cu  Cu3       1.0  0.49882  0.00087  0.03239  1.0000
  Cu  Cu4       1.0  0.00098  0.49880  0.03240  1.0000
  Ni  Ni1       1.0  0.25000  0.25000  0.96931  1.0000
  Ni  Ni2       1.0  0.74875  0.74869  0.08937  1.0000
  Ni  Ni3       1.0  0.75000  0.25000  0.96931  1.0000
  Ni  Ni4       1.0  0.25124  0.74852  0.08986  1.0000
  Ni  Ni5       1.0  0.75000  0.75000  0.96931  1.0000
  Ni  Ni6       1.0  0.25161  0.25139  0.09374  1.0000
  Ni  Ni7       1.0  0.25000  0.75000  0.96931  1.0000
  Ni  Ni8       1.0  0.74848  0.25141  0.08983  1.0000
  Sn  Sn1       1.0  0.99927  0.99925  0.03286  1.0000
  Sn  Sn2       1.0  0.50000  0.00000  0.90793  1.0000
  Sn  Sn3       1.0  0.00000  0.50000  0.90793  1.0000
  Sn  Sn4       1.0  0.50074  0.50093  0.03195  1.0000
  C   C1        1.0  0.25019  0.25008  0.16590  1.0000
  O   O1        1.0  0.24958  0.24954  0.21298  1.0000
