# generated using pymatgen
data_Cu4Ni8Sn4CO
_symmetry_space_group_name_H-M   'P 1'
_cell_length_a   6.01864000
_cell_length_b   6.01864000
_cell_length_c   24.51400000
_cell_angle_alpha   90.00000000
_cell_angle_beta   90.00000000
_cell_angle_gamma   90.00000000
_symmetry_Int_Tables_number   1
_chemical_formula_structural   Cu4Ni8Sn4CO
_chemical_formula_sum   'Cu4 Ni8 Sn4 C1 O1'
_cell_volume   887.99580890
_cell_formula_units_Z   1
loop_
 _symmetry_equiv_pos_site_id
 _symmetry_equiv_pos_as_xyz
  1  'x, y, z'
loop_
 _atom_site_type_symbol
 _atom_site_label
 _atom_site_symmetry_multiplicity
 _atom_site_fract_x
 _atom_site_fract_y
 _atom_site_fract_z
 _atom_site_occupancy
  Cu  Cu0  1  0.00000000  0.00000000  0.90793000  1.0
  Cu  Cu1  1  0.50000000  0.50000000  0.90793000  1.0
  Cu  Cu2  1  0.49882000  0.00087000  0.03239000  1.0
  Cu  Cu3  1  0.00098000  0.49880000  0.03240000  1.0
  Ni  Ni4  1  0.25000000  0.25000000  0.96931000  1.0
  Ni  Ni5  1  0.74875000  0.74869000  0.08937000  1.0
  Ni  Ni6  1  0.75000000  0.25000000  0.96931000  1.0
  Ni  Ni7  1  0.25124000  0.74852000  0.08986000  1.0
  Ni  Ni8  1  0.75000000  0.75000000  0.96931000  1.0
  Ni  Ni9  1  0.25161000  0.25139000  0.09374000  1.0
  Ni  Ni10  1  0.25000000  0.75000000  0.96931000  1.0
  Ni  Ni11  1  0.74848000  0.25141000  0.08983000  1.0
  Sn  Sn12  1  0.99927000  0.99925000  0.03286000  1.0
  Sn  Sn13  1  0.50000000  0.00000000  0.90793000  1.0
  Sn  Sn14  1  0.00000000  0.50000000  0.90793000  1.0
  Sn  Sn15  1  0.50074000  0.50093000  0.03195000  1.0
  C  C16  1  0.25019000  0.25008000  0.16590000  1.0
  O  O17  1  0.24958000  0.24954000  0.21298000  1.0
