# generated using pymatgen
data_Li8In8Cu8Pt8C
_symmetry_space_group_name_H-M   'P 1'
_cell_length_a   8.95862000
_cell_length_b   6.33470000
_cell_length_c   26.71900000
_cell_angle_alpha   90.00000000
_cell_angle_beta   90.00000000
_cell_angle_gamma   90.00000000
_symmetry_Int_Tables_number   1
_chemical_formula_structural   Li8In8Cu8Pt8C
_chemical_formula_sum   'Li8 In8 Cu8 Pt8 C1'
_cell_volume   1516.30779528
_cell_formula_units_Z   1
loop_
 _symmetry_equiv_pos_site_id
 _symmetry_equiv_pos_as_xyz
  1  'x, y, z'
loop_
 _atom_site_type_symbol
 _atom_site_label
 _atom_site_symmetry_multiplicity
 _atom_site_fract_x
 _atom_site_fract_y
 _atom_site_fract_z
 _atom_site_occupancy
  Li  Li0  1  0.75001000  0.75000000  0.04191000  1.0
  Li  Li1  1  0.24999000  0.75000000  0.04191000  1.0
  Li  Li2  1  0.00000000  0.25000000  0.12573000  1.0
  Li  Li3  1  0.50000000  0.25000000  0.12573000  1.0
  Li  Li4  1  0.23960000  0.71249000  0.86594000  1.0
  Li  Li5  1  0.76040000  0.71249000  0.86594000  1.0
  Li  Li6  1  0.50000000  0.23857000  0.95833000  1.0
  Li  Li7  1  0.00000000  0.20202000  0.94621000  1.0
  In  In8  1  0.00000000  1.00000000  0.04191000  1.0
  In  In9  1  0.50000000  0.00000000  0.04191000  1.0
  In  In10  1  0.25001000  0.50000000  0.12573000  1.0
  In  In11  1  0.74999000  0.50000000  0.12573000  1.0
  In  In12  1  0.50000000  0.99211000  0.86762000  1.0
  In  In13  1  0.00000000  0.04449000  0.83895000  1.0
  In  In14  1  0.75570000  0.50077000  0.95964000  1.0
  In  In15  1  0.24430000  0.50077000  0.95964000  1.0
  Cu  Cu16  1  0.75001000  0.00000000  0.12573000  1.0
  Cu  Cu17  1  0.24999000  0.00000000  0.12573000  1.0
  Cu  Cu18  1  0.50000000  0.50000000  0.04191000  1.0
  Cu  Cu19  1  0.00000000  0.50000000  0.04191000  1.0
  Cu  Cu20  1  0.25590000  0.98784000  0.96011000  1.0
  Cu  Cu21  1  0.74410000  0.98784000  0.96011000  1.0
  Cu  Cu22  1  0.00000000  0.44361000  0.86385000  1.0
  Cu  Cu23  1  0.50000000  0.47236000  0.88293000  1.0
  Pt  Pt24  1  0.75001000  0.25000000  0.04191000  1.0
  Pt  Pt25  1  0.24999000  0.25000000  0.04191000  1.0
  Pt  Pt26  1  0.00000000  0.75000000  0.12573000  1.0
  Pt  Pt27  1  0.50000000  0.75000000  0.12573000  1.0
  Pt  Pt28  1  0.25202000  0.23589000  0.87993000  1.0
  Pt  Pt29  1  0.74798000  0.23589000  0.87993000  1.0
  Pt  Pt30  1  0.50000000  0.74625000  0.95768000  1.0
  Pt  Pt31  1  0.00000000  0.77315000  0.94877000  1.0
  C  C32  1  0.00000000  0.73141000  0.87487000  1.0
