# generated using pymatgen
data_Li4Mg4In4Ge4CO
_symmetry_space_group_name_H-M   'P 1'
_cell_length_a   8.41850000
_cell_length_b   6.06838000
_cell_length_c   24.54770000
_cell_angle_alpha   90.00000000
_cell_angle_beta   90.00000000
_cell_angle_gamma   90.00000000
_symmetry_Int_Tables_number   1
_chemical_formula_structural   Li4Mg4In4Ge4CO
_chemical_formula_sum   'Li4 Mg4 In4 Ge4 C1 O1'
_cell_volume   1254.05993078
_cell_formula_units_Z   1
loop_
 _symmetry_equiv_pos_site_id
 _symmetry_equiv_pos_as_xyz
  1  'x, y, z'
loop_
 _atom_site_type_symbol
 _atom_site_label
 _atom_site_symmetry_multiplicity
 _atom_site_fract_x
 _atom_site_fract_y
 _atom_site_fract_z
 _atom_site_occupancy
  Li  Li0  1  0.50000000  0.45495000  0.08556000  1.0
  Li  Li1  1  0.50000000  0.01985000  0.96912000  1.0
  Li  Li2  1  0.00000000  0.46547000  0.11517000  1.0
  Li  Li3  1  0.00000000  0.01985000  0.96912000  1.0
  Mg  Mg4  1  0.22086000  0.72099000  0.03833000  1.0
  Mg  Mg5  1  0.25001000  0.27977000  0.90737000  1.0
  Mg  Mg6  1  0.77914000  0.72099000  0.03833000  1.0
  Mg  Mg7  1  0.74999000  0.27977000  0.90737000  1.0
  In  In8  1  0.22678000  0.22281000  0.04627000  1.0
  In  In9  1  0.25001000  0.77977000  0.90737000  1.0
  In  In10  1  0.77322000  0.22281000  0.04627000  1.0
  In  In11  1  0.74999000  0.77977000  0.90737000  1.0
  Ge  Ge12  1  0.50000000  0.92083000  0.07869000  1.0
  Ge  Ge13  1  0.50000000  0.51985000  0.96912000  1.0
  Ge  Ge14  1  0.00000000  0.96625000  0.10220000  1.0
  Ge  Ge15  1  0.00000000  0.51985000  0.96912000  1.0
  C  C16  1  0.50000000  0.02333000  0.15250000  1.0
  O  O17  1  0.50000000  0.06589000  0.19891000  1.0
