data_image0
_chemical_formula_structural       Li16Pb8Au8C
_chemical_formula_sum              "Li16 Pb8 Au8 C1"
_cell_length_a       6.8204
_cell_length_b       9.6455
_cell_length_c       27.2341
_cell_angle_alpha    90
_cell_angle_beta     90
_cell_angle_gamma    90

_space_group_name_H-M_alt    "P 1"
_space_group_IT_number       1

loop_
  _space_group_symop_operation_xyz
  'x, y, z'

loop_
  _atom_site_type_symbol
  _atom_site_label
  _atom_site_symmetry_multiplicity
  _atom_site_fract_x
  _atom_site_fract_y
  _atom_site_fract_z
  _atom_site_occupancy
  Li  Li1       1.0  0.00000  0.75000  0.95573  1.0000
  Li  Li2       1.0  0.50000  0.00000  0.86719  1.0000
  Li  Li3       1.0  0.00000  0.25000  0.95573  1.0000
  Li  Li4       1.0  0.50000  0.50000  0.86719  1.0000
  Li  Li5       1.0  0.25000  0.00000  0.95573  1.0000
  Li  Li6       1.0  0.25000  0.50000  0.95573  1.0000
  Li  Li7       1.0  0.75000  0.75000  0.86719  1.0000
  Li  Li8       1.0  0.75000  0.25000  0.86719  1.0000
  Li  Li9       1.0  0.00925  0.25003  0.13257  1.0000
  Li  Li10      1.0  0.49811  0.50784  0.03830  1.0000
  Li  Li11      1.0  0.99351  0.75001  0.12787  1.0000
  Li  Li12      1.0  0.49812  0.99216  0.03830  1.0000
  Li  Li13      1.0  0.30549  0.46747  0.13078  1.0000
  Li  Li14      1.0  0.30548  0.03262  0.13077  1.0000
  Li  Li15      1.0  0.70262  0.24999  0.05637  1.0000
  Li  Li16      1.0  0.71562  0.75000  0.05275  1.0000
  Pb  Pb1       1.0  0.00000  0.00000  0.86719  1.0000
  Pb  Pb2       1.0  0.50000  0.25000  0.95573  1.0000
  Pb  Pb3       1.0  0.50000  0.75000  0.95573  1.0000
  Pb  Pb4       1.0  0.00000  0.50000  0.86719  1.0000
  Pb  Pb5       1.0  0.00721  0.48880  0.04343  1.0000
  Pb  Pb6       1.0  0.46144  0.75004  0.15094  1.0000
  Pb  Pb7       1.0  0.59518  0.25002  0.17012  1.0000
  Pb  Pb8       1.0  0.00722  0.01121  0.04342  1.0000
  Au  Au1       1.0  0.25000  0.25000  0.86719  1.0000
  Au  Au2       1.0  0.25000  0.75000  0.86719  1.0000
  Au  Au3       1.0  0.75000  0.50000  0.95573  1.0000
  Au  Au4       1.0  0.75000  0.00000  0.95573  1.0000
  Au  Au5       1.0  0.26784  0.75001  0.05190  1.0000
  Au  Au6       1.0  0.30166  0.25000  0.05125  1.0000
  Au  Au7       1.0  0.72223  0.97598  0.12121  1.0000
  Au  Au8       1.0  0.72224  0.52406  0.12122  1.0000
  C   C1        1.0  0.30923  0.25005  0.13020  1.0000
