# generated using pymatgen
data_Li16Pb8Au8C
_symmetry_space_group_name_H-M   P1
_cell_length_a   6.82040000
_cell_length_b   9.64550000
_cell_length_c   27.23410000
_cell_angle_alpha   90.00000000
_cell_angle_beta   90.00000000
_cell_angle_gamma   90.00000000
_symmetry_Int_Tables_number   1
_chemical_formula_structural   Li16Pb8Au8C
_chemical_formula_sum   'Li16 Pb8 Au8 C1'
_cell_volume   1791.62708338
_cell_formula_units_Z   1
loop_
 _symmetry_equiv_pos_site_id
 _symmetry_equiv_pos_as_xyz
  1  'x, y, z'
loop_
 _atom_site_type_symbol
 _atom_site_label
 _atom_site_symmetry_multiplicity
 _atom_site_fract_x
 _atom_site_fract_y
 _atom_site_fract_z
 _atom_site_occupancy
  Li  Li0  1  0.00000000  0.25000000  0.95573000  1.0
  Li  Li1  1  0.00000000  0.75000000  0.95573000  1.0
  Li  Li2  1  0.00925000  0.25003000  0.13257000  1.0
  Li  Li3  1  0.25000000  0.00000000  0.95573000  1.0
  Li  Li4  1  0.25000000  0.50000000  0.95573000  1.0
  Li  Li5  1  0.30548000  0.03262000  0.13077000  1.0
  Li  Li6  1  0.30549000  0.46747000  0.13078000  1.0
  Li  Li7  1  0.49811000  0.50784000  0.03830000  1.0
  Li  Li8  1  0.49812000  0.99216000  0.03830000  1.0
  Li  Li9  1  0.50000000  0.00000000  0.86719000  1.0
  Li  Li10  1  0.50000000  0.50000000  0.86719000  1.0
  Li  Li11  1  0.70262000  0.24999000  0.05637000  1.0
  Li  Li12  1  0.71562000  0.75000000  0.05275000  1.0
  Li  Li13  1  0.75000000  0.25000000  0.86719000  1.0
  Li  Li14  1  0.75000000  0.75000000  0.86719000  1.0
  Li  Li15  1  0.99351000  0.75001000  0.12787000  1.0
  Pb  Pb16  1  0.00000000  0.00000000  0.86719000  1.0
  Pb  Pb17  1  0.00000000  0.50000000  0.86719000  1.0
  Pb  Pb18  1  0.00721000  0.48880000  0.04343000  1.0
  Pb  Pb19  1  0.00722000  0.01121000  0.04342000  1.0
  Pb  Pb20  1  0.46144000  0.75004000  0.15094000  1.0
  Pb  Pb21  1  0.50000000  0.25000000  0.95573000  1.0
  Pb  Pb22  1  0.50000000  0.75000000  0.95573000  1.0
  Pb  Pb23  1  0.59518000  0.25002000  0.17012000  1.0
  Au  Au24  1  0.25000000  0.25000000  0.86719000  1.0
  Au  Au25  1  0.25000000  0.75000000  0.86719000  1.0
  Au  Au26  1  0.26784000  0.75001000  0.05190000  1.0
  Au  Au27  1  0.30166000  0.25000000  0.05125000  1.0
  Au  Au28  1  0.72223000  0.97598000  0.12121000  1.0
  Au  Au29  1  0.72224000  0.52406000  0.12122000  1.0
  Au  Au30  1  0.75000000  0.00000000  0.95573000  1.0
  Au  Au31  1  0.75000000  0.50000000  0.95573000  1.0
  C  C32  1  0.30923000  0.25005000  0.13020000  1.0
