# generated using pymatgen
data_Li8Cu16Si8CO
_symmetry_space_group_name_H-M   'P 1'
_cell_length_a   5.78917000
_cell_length_b   8.18712000
_cell_length_c   26.14030000
_cell_angle_alpha   90.00000000
_cell_angle_beta   90.00000000
_cell_angle_gamma   90.00000000
_symmetry_Int_Tables_number   1
_chemical_formula_structural   Li8Cu16Si8CO
_chemical_formula_sum   'Li8 Cu16 Si8 C1 O1'
_cell_volume   1238.96211387
_cell_formula_units_Z   1
loop_
 _symmetry_equiv_pos_site_id
 _symmetry_equiv_pos_as_xyz
  1  'x, y, z'
loop_
 _atom_site_type_symbol
 _atom_site_label
 _atom_site_symmetry_multiplicity
 _atom_site_fract_x
 _atom_site_fract_y
 _atom_site_fract_z
 _atom_site_occupancy
  Li  Li0  1  0.00000000  0.00000000  0.88255000  1.0
  Li  Li1  1  0.50000000  0.25000000  0.96085000  1.0
  Li  Li2  1  0.50000000  0.75000000  0.96085000  1.0
  Li  Li3  1  0.00000000  0.50000000  0.88255000  1.0
  Li  Li4  1  0.00106000  0.50005000  0.03491000  1.0
  Li  Li5  1  0.50493000  0.74833000  0.13036000  1.0
  Li  Li6  1  0.50486000  0.25157000  0.13031000  1.0
  Li  Li7  1  0.01317000  0.99997000  0.03625000  1.0
  Cu  Cu8  1  0.25000000  0.00000000  0.96085000  1.0
  Cu  Cu9  1  0.75000000  0.50000000  0.96085000  1.0
  Cu  Cu10  1  0.75000000  0.00000000  0.96085000  1.0
  Cu  Cu11  1  0.25000000  0.50000000  0.96085000  1.0
  Cu  Cu12  1  0.75000000  0.75000000  0.88255000  1.0
  Cu  Cu13  1  0.25000000  0.25000000  0.88255000  1.0
  Cu  Cu14  1  0.25000000  0.75000000  0.88255000  1.0
  Cu  Cu15  1  0.75000000  0.25000000  0.88255000  1.0
  Cu  Cu16  1  0.22730000  0.49996000  0.11293000  1.0
  Cu  Cu17  1  0.77929000  0.99997000  0.11031000  1.0
  Cu  Cu18  1  0.77420000  0.49997000  0.11322000  1.0
  Cu  Cu19  1  0.22777000  0.99993000  0.12261000  1.0
  Cu  Cu20  1  0.74350000  0.24819000  0.04062000  1.0
  Cu  Cu21  1  0.26080000  0.75033000  0.04312000  1.0
  Cu  Cu22  1  0.26070000  0.24969000  0.04308000  1.0
  Cu  Cu23  1  0.74340000  0.75178000  0.04066000  1.0
  Si  Si24  1  0.00000000  0.75000000  0.96085000  1.0
  Si  Si25  1  0.50000000  0.00000000  0.88255000  1.0
  Si  Si26  1  0.00000000  0.25000000  0.96085000  1.0
  Si  Si27  1  0.50000000  0.50000000  0.88255000  1.0
  Si  Si28  1  0.99510000  0.25193000  0.11621000  1.0
  Si  Si29  1  0.50136000  0.49998000  0.04240000  1.0
  Si  Si30  1  0.99516000  0.74799000  0.11621000  1.0
  Si  Si31  1  0.49630000  0.00002000  0.04156000  1.0
  C  C32  1  0.34267000  0.00006000  0.18947000  1.0
  O  O33  1  0.37439000  0.00016000  0.23307000  1.0
