# generated using pymatgen
data_V12Au4C
_symmetry_space_group_name_H-M   Pm
_cell_length_a   5.50195000
_cell_length_b   7.78093000
_cell_length_c   24.12650000
_cell_angle_alpha   90.00000000
_cell_angle_beta   90.00000000
_cell_angle_gamma   90.00000000
_symmetry_Int_Tables_number   6
_chemical_formula_structural   V12Au4C
_chemical_formula_sum   'V12 Au4 C1'
_cell_volume   1032.86240893
_cell_formula_units_Z   1
loop_
 _symmetry_equiv_pos_site_id
 _symmetry_equiv_pos_as_xyz
  1  'x, y, z'
  2  'x, -y, z'
loop_
 _atom_site_type_symbol
 _atom_site_label
 _atom_site_symmetry_multiplicity
 _atom_site_fract_x
 _atom_site_fract_y
 _atom_site_fract_z
 _atom_site_occupancy
  V  V0  2  0.00000000  0.25000000  0.02851000  1.0
  V  V1  2  0.48670000  0.31267000  0.91770000  1.0
  V  V2  1  0.23333000  0.00000000  0.98563000  1.0
  V  V3  1  0.24497000  0.50000000  0.97696000  1.0
  V  V4  1  0.25000000  0.00000000  0.08552000  1.0
  V  V5  1  0.25000000  0.50000000  0.08552000  1.0
  V  V6  1  0.75000000  0.00000000  0.08552000  1.0
  V  V7  1  0.75000000  0.50000000  0.08552000  1.0
  V  V8  1  0.75800000  0.50000000  0.97055000  1.0
  V  V9  1  0.76114000  0.00000000  0.98804000  1.0
  Au  Au10  2  0.50000000  0.25000000  0.02851000  1.0
  Au  Au11  2  0.99923000  0.23017000  0.91516000  1.0
  C  C12  1  0.64683000  0.50000000  0.88676000  1.0
