# generated using pymatgen
data_Ca16Pd16C
_symmetry_space_group_name_H-M   'P 1'
_cell_length_a   7.14855000
_cell_length_b   10.10960000
_cell_length_c   27.58220000
_cell_angle_alpha   90.00000000
_cell_angle_beta   90.00000000
_cell_angle_gamma   90.00000000
_symmetry_Int_Tables_number   1
_chemical_formula_structural   Ca16Pd16C
_chemical_formula_sum   'Ca16 Pd16 C1'
_cell_volume   1993.33748994
_cell_formula_units_Z   1
loop_
 _symmetry_equiv_pos_site_id
 _symmetry_equiv_pos_as_xyz
  1  'x, y, z'
loop_
 _atom_site_type_symbol
 _atom_site_label
 _atom_site_symmetry_multiplicity
 _atom_site_fract_x
 _atom_site_fract_y
 _atom_site_fract_z
 _atom_site_occupancy
  Ca  Ca0  1  0.00000000  0.00000000  0.86255000  1.0
  Ca  Ca1  1  0.00000000  0.25000000  0.95418000  1.0
  Ca  Ca2  1  0.00000000  0.50000000  0.04448000  1.0
  Ca  Ca3  1  0.00000000  0.25511000  0.14157000  1.0
  Ca  Ca4  1  0.00000000  0.50000000  0.86255000  1.0
  Ca  Ca5  1  0.00000000  0.75000000  0.95418000  1.0
  Ca  Ca6  1  0.00000000  0.00000000  0.04880000  1.0
  Ca  Ca7  1  0.00000000  0.74489000  0.14157000  1.0
  Ca  Ca8  1  0.50000000  0.00000000  0.86255000  1.0
  Ca  Ca9  1  0.50000000  0.25000000  0.95418000  1.0
  Ca  Ca10  1  0.50000000  0.50000000  0.04409000  1.0
  Ca  Ca11  1  0.50000000  0.25892000  0.14054000  1.0
  Ca  Ca12  1  0.50000000  0.50000000  0.86255000  1.0
  Ca  Ca13  1  0.50000000  0.75000000  0.95418000  1.0
  Ca  Ca14  1  0.50000000  0.00000000  0.04437000  1.0
  Ca  Ca15  1  0.50000000  0.74108000  0.14054000  1.0
  Pd  Pd16  1  0.25000000  0.25000000  0.86255000  1.0
  Pd  Pd17  1  0.25000000  0.00000000  0.95418000  1.0
  Pd  Pd18  1  0.25194000  0.25150000  0.04985000  1.0
  Pd  Pd19  1  0.24913000  0.50000000  0.12956000  1.0
  Pd  Pd20  1  0.25000000  0.75000000  0.86255000  1.0
  Pd  Pd21  1  0.25000000  0.50000000  0.95418000  1.0
  Pd  Pd22  1  0.25194000  0.74850000  0.04985000  1.0
  Pd  Pd23  1  0.27323000  0.00000000  0.13620000  1.0
  Pd  Pd24  1  0.75000000  0.25000000  0.86255000  1.0
  Pd  Pd25  1  0.75000000  0.00000000  0.95418000  1.0
  Pd  Pd26  1  0.74806000  0.25150000  0.04985000  1.0
  Pd  Pd27  1  0.75087000  0.50000000  0.12956000  1.0
  Pd  Pd28  1  0.75000000  0.75000000  0.86255000  1.0
  Pd  Pd29  1  0.75000000  0.50000000  0.95418000  1.0
  Pd  Pd30  1  0.74806000  0.74850000  0.04985000  1.0
  Pd  Pd31  1  0.72677000  0.00000000  0.13620000  1.0
  C  C32  1  0.00000000  0.00000000  0.14532000  1.0
