# generated using pymatgen
data_Ca16Pd16C
_symmetry_space_group_name_H-M   Pmm2
_cell_length_a   7.14855000
_cell_length_b   10.10960000
_cell_length_c   27.58220000
_cell_angle_alpha   90.00000000
_cell_angle_beta   90.00000000
_cell_angle_gamma   90.00000000
_symmetry_Int_Tables_number   25
_chemical_formula_structural   Ca16Pd16C
_chemical_formula_sum   'Ca16 Pd16 C1'
_cell_volume   1993.33748994
_cell_formula_units_Z   1
loop_
 _symmetry_equiv_pos_site_id
 _symmetry_equiv_pos_as_xyz
  1  'x, y, z'
  2  '-x, -y, z'
  3  '-x, y, z'
  4  'x, -y, z'
loop_
 _atom_site_type_symbol
 _atom_site_label
 _atom_site_symmetry_multiplicity
 _atom_site_fract_x
 _atom_site_fract_y
 _atom_site_fract_z
 _atom_site_occupancy
  Ca  Ca0  2  0.00000000  0.25000000  0.95418000  1.0
  Ca  Ca1  2  0.00000000  0.25511000  0.14157000  1.0
  Ca  Ca2  2  0.50000000  0.25000000  0.95418000  1.0
  Ca  Ca3  2  0.50000000  0.25892000  0.14054000  1.0
  Ca  Ca4  1  0.00000000  0.00000000  0.04880000  1.0
  Ca  Ca5  1  0.00000000  0.00000000  0.86255000  1.0
  Ca  Ca6  1  0.00000000  0.50000000  0.04448000  1.0
  Ca  Ca7  1  0.00000000  0.50000000  0.86255000  1.0
  Ca  Ca8  1  0.50000000  0.00000000  0.04437000  1.0
  Ca  Ca9  1  0.50000000  0.00000000  0.86255000  1.0
  Ca  Ca10  1  0.50000000  0.50000000  0.04409000  1.0
  Ca  Ca11  1  0.50000000  0.50000000  0.86255000  1.0
  Pd  Pd12  4  0.25000000  0.25000000  0.86255000  1.0
  Pd  Pd13  4  0.25194000  0.25150000  0.04985000  1.0
  Pd  Pd14  2  0.24913000  0.50000000  0.12956000  1.0
  Pd  Pd15  2  0.25000000  0.00000000  0.95418000  1.0
  Pd  Pd16  2  0.25000000  0.50000000  0.95418000  1.0
  Pd  Pd17  2  0.27323000  0.00000000  0.13620000  1.0
  C  C18  1  0.00000000  0.00000000  0.14532000  1.0
