# generated using pymatgen
data_Hf8In8Cu16C
_symmetry_space_group_name_H-M   'P 1'
_cell_length_a   6.35005000
_cell_length_b   8.98033000
_cell_length_c   26.73520000
_cell_angle_alpha   90.00000000
_cell_angle_beta   90.00000000
_cell_angle_gamma   90.00000000
_symmetry_Int_Tables_number   1
_chemical_formula_structural   Hf8In8Cu16C
_chemical_formula_sum   'Hf8 In8 Cu16 C1'
_cell_volume   1524.58933776
_cell_formula_units_Z   1
loop_
 _symmetry_equiv_pos_site_id
 _symmetry_equiv_pos_as_xyz
  1  'x, y, z'
loop_
 _atom_site_type_symbol
 _atom_site_label
 _atom_site_symmetry_multiplicity
 _atom_site_fract_x
 _atom_site_fract_y
 _atom_site_fract_z
 _atom_site_occupancy
  Hf  Hf0  1  0.00000000  0.00000000  0.87404000  1.0
  Hf  Hf1  1  0.50000000  0.25000000  0.95801000  1.0
  Hf  Hf2  1  0.50000000  0.75000000  0.95801000  1.0
  Hf  Hf3  1  0.00000000  0.50000000  0.87404000  1.0
  Hf  Hf4  1  0.00000000  0.50000000  0.04621000  1.0
  Hf  Hf5  1  0.50000000  0.77333000  0.12755000  1.0
  Hf  Hf6  1  0.50000000  0.22667000  0.12755000  1.0
  Hf  Hf7  1  0.00000000  0.00000000  0.04975000  1.0
  In  In8  1  0.00000000  0.75000000  0.95801000  1.0
  In  In9  1  0.50000000  0.00000000  0.87404000  1.0
  In  In10  1  0.00000000  0.25000000  0.95801000  1.0
  In  In11  1  0.50000000  0.50000000  0.87404000  1.0
  In  In12  1  0.00000000  0.27036000  0.13707000  1.0
  In  In13  1  0.50000000  0.50000000  0.04254000  1.0
  In  In14  1  0.00000000  0.72964000  0.13707000  1.0
  In  In15  1  0.50000000  0.00000000  0.04166000  1.0
  Cu  Cu16  1  0.25000000  0.00000000  0.95801000  1.0
  Cu  Cu17  1  0.75000000  0.50000000  0.95801000  1.0
  Cu  Cu18  1  0.75000000  0.00000000  0.95801000  1.0
  Cu  Cu19  1  0.25000000  0.50000000  0.95801000  1.0
  Cu  Cu20  1  0.75000000  0.75000000  0.87404000  1.0
  Cu  Cu21  1  0.25000000  0.25000000  0.87404000  1.0
  Cu  Cu22  1  0.25000000  0.75000000  0.87404000  1.0
  Cu  Cu23  1  0.75000000  0.25000000  0.87404000  1.0
  Cu  Cu24  1  0.28642000  0.50000000  0.13228000  1.0
  Cu  Cu25  1  0.80713000  0.00000000  0.14271000  1.0
  Cu  Cu26  1  0.71358000  0.50000000  0.13228000  1.0
  Cu  Cu27  1  0.19287000  0.00000000  0.14271000  1.0
  Cu  Cu28  1  0.75455000  0.25094000  0.04414000  1.0
  Cu  Cu29  1  0.24545000  0.74906000  0.04414000  1.0
  Cu  Cu30  1  0.24545000  0.25094000  0.04414000  1.0
  Cu  Cu31  1  0.75455000  0.74906000  0.04414000  1.0
  C  C32  1  0.50000000  0.00000000  0.15036000  1.0
