# generated using pymatgen
data_Li8Ge8Rh16CO
_symmetry_space_group_name_H-M   Pm
_cell_length_a   5.94410000
_cell_length_b   8.40623000
_cell_length_c   26.30470000
_cell_angle_alpha   90.00000000
_cell_angle_beta   90.00000000
_cell_angle_gamma   90.00000000
_symmetry_Int_Tables_number   6
_chemical_formula_structural   Li8Ge8Rh16CO
_chemical_formula_sum   'Li8 Ge8 Rh16 C1 O1'
_cell_volume   1314.37935396
_cell_formula_units_Z   1
loop_
 _symmetry_equiv_pos_site_id
 _symmetry_equiv_pos_as_xyz
  1  'x, y, z'
  2  'x, -y, z'
loop_
 _atom_site_type_symbol
 _atom_site_label
 _atom_site_symmetry_multiplicity
 _atom_site_fract_x
 _atom_site_fract_y
 _atom_site_fract_z
 _atom_site_occupancy
  Li  Li0  2  0.00000000  0.25001000  0.88016000  1.0
  Li  Li1  2  0.99999000  0.24970000  0.03872000  1.0
  Li  Li2  1  0.49998000  0.00000000  0.13900000  1.0
  Li  Li3  1  0.49999000  0.50000000  0.13855000  1.0
  Li  Li4  1  0.50000000  0.00000000  0.96005000  1.0
  Li  Li5  1  0.50000000  0.50000000  0.96005000  1.0
  Ge  Ge6  2  0.49999000  0.25017000  0.03929000  1.0
  Ge  Ge7  2  0.50000000  0.25001000  0.88016000  1.0
  Ge  Ge8  1  -0.00000000  0.50000000  0.96005000  1.0
  Ge  Ge9  1  0.00000000  0.00000000  0.96005000  1.0
  Ge  Ge10  1  0.99998000  0.00000000  0.11931000  1.0
  Ge  Ge11  1  0.99999000  0.50000000  0.11925000  1.0
  Rh  Rh12  2  0.24405000  0.24988000  0.11544000  1.0
  Rh  Rh13  2  0.25000000  0.25001000  0.96005000  1.0
  Rh  Rh14  2  0.75000000  0.24999000  0.96005000  1.0
  Rh  Rh15  2  0.75592000  0.24990000  0.11544000  1.0
  Rh  Rh16  1  0.25000000  0.00000000  0.88016000  1.0
  Rh  Rh17  1  0.25000000  0.50000000  0.88016000  1.0
  Rh  Rh18  1  0.25273000  0.50000000  0.03975000  1.0
  Rh  Rh19  1  0.25296000  0.00000000  0.03980000  1.0
  Rh  Rh20  1  0.74702000  0.00000000  0.03980000  1.0
  Rh  Rh21  1  0.74725000  0.50000000  0.03975000  1.0
  Rh  Rh22  1  0.75000000  0.00000000  0.88016000  1.0
  Rh  Rh23  1  0.75000000  0.50000000  0.88016000  1.0
  C  C24  1  0.00064000  0.00000000  0.27600000  1.0
  O  O25  1  0.99990000  0.00000000  0.31916000  1.0
