# generated using pymatgen
data_Li8Sc8Ge8Pd8C
_symmetry_space_group_name_H-M   'P 1'
_cell_length_a   8.92368000
_cell_length_b   6.30999000
_cell_length_c   26.69280000
_cell_angle_alpha   90.00000000
_cell_angle_beta   90.00000000
_cell_angle_gamma   90.00000000
_symmetry_Int_Tables_number   1
_chemical_formula_structural   Li8Sc8Ge8Pd8C
_chemical_formula_sum   'Li8 Sc8 Ge8 Pd8 C1'
_cell_volume   1503.02703275
_cell_formula_units_Z   1
loop_
 _symmetry_equiv_pos_site_id
 _symmetry_equiv_pos_as_xyz
  1  'x, y, z'
loop_
 _atom_site_type_symbol
 _atom_site_label
 _atom_site_symmetry_multiplicity
 _atom_site_fract_x
 _atom_site_fract_y
 _atom_site_fract_z
 _atom_site_occupancy
  Li  Li0  1  0.50000000  0.75000000  0.04179000  1.0
  Li  Li1  1  0.00000000  0.75000000  0.04179000  1.0
  Li  Li2  1  0.75002000  0.25000000  0.12537000  1.0
  Li  Li3  1  0.24998000  0.25000000  0.12537000  1.0
  Li  Li4  1  0.00000000  0.58456000  0.81906000  1.0
  Li  Li5  1  0.50000000  0.72551000  0.82464000  1.0
  Li  Li6  1  0.25049000  0.24918000  0.95514000  1.0
  Li  Li7  1  0.74951000  0.24918000  0.95514000  1.0
  Sc  Sc8  1  0.75002000  0.00000000  0.04179000  1.0
  Sc  Sc9  1  0.24998000  0.00000000  0.04179000  1.0
  Sc  Sc10  1  0.00000000  0.50000000  0.12537000  1.0
  Sc  Sc11  1  0.50000000  0.50000000  0.12537000  1.0
  Sc  Sc12  1  0.23046000  0.96061000  0.87329000  1.0
  Sc  Sc13  1  0.76954000  0.96061000  0.87329000  1.0
  Sc  Sc14  1  0.50000000  0.52400000  0.95201000  1.0
  Sc  Sc15  1  0.00000000  0.51025000  0.95416000  1.0
  Ge  Ge16  1  0.50000000  0.00000000  0.12537000  1.0
  Ge  Ge17  1  0.00000000  0.00000000  0.12537000  1.0
  Ge  Ge18  1  0.25002000  0.50000000  0.04179000  1.0
  Ge  Ge19  1  0.74998000  0.50000000  0.04179000  1.0
  Ge  Ge20  1  0.00000000  0.99985000  0.95857000  1.0
  Ge  Ge21  1  0.50000000  0.99025000  0.95856000  1.0
  Ge  Ge22  1  0.73330000  0.51028000  0.86968000  1.0
  Ge  Ge23  1  0.26670000  0.51028000  0.86968000  1.0
  Pd  Pd24  1  0.50000000  0.25000000  0.04179000  1.0
  Pd  Pd25  1  0.00000000  0.25000000  0.04179000  1.0
  Pd  Pd26  1  0.75002000  0.75000000  0.12537000  1.0
  Pd  Pd27  1  0.24998000  0.75000000  0.12537000  1.0
  Pd  Pd28  1  0.00000000  0.24250000  0.87686000  1.0
  Pd  Pd29  1  0.50000000  0.14876000  0.87070000  1.0
  Pd  Pd30  1  0.24557000  0.75368000  0.96018000  1.0
  Pd  Pd31  1  0.75443000  0.75368000  0.96018000  1.0
  C  C32  1  0.50000000  0.46867000  0.87215000  1.0
