# generated using pymatgen
data_Li8Sc8Ge8Pd8C
_symmetry_space_group_name_H-M   Pm
_cell_length_a   6.30999000
_cell_length_b   8.92368000
_cell_length_c   26.69280000
_cell_angle_alpha   90.00000000
_cell_angle_beta   90.00000000
_cell_angle_gamma   90.00000000
_symmetry_Int_Tables_number   6
_chemical_formula_structural   Li8Sc8Ge8Pd8C
_chemical_formula_sum   'Li8 Sc8 Ge8 Pd8 C1'
_cell_volume   1503.02703275
_cell_formula_units_Z   1
loop_
 _symmetry_equiv_pos_site_id
 _symmetry_equiv_pos_as_xyz
  1  'x, y, z'
  2  'x, -y, z'
loop_
 _atom_site_type_symbol
 _atom_site_label
 _atom_site_symmetry_multiplicity
 _atom_site_fract_x
 _atom_site_fract_y
 _atom_site_fract_z
 _atom_site_occupancy
  Li  Li0  2  0.24918000  0.25049000  0.04486000  1.0
  Li  Li1  2  0.25000000  0.24998000  0.87463000  1.0
  Li  Li2  1  0.58456000  0.00000000  0.18094000  1.0
  Li  Li3  1  0.72551000  0.50000000  0.17536000  1.0
  Li  Li4  1  0.75000000  0.00000000  0.95821000  1.0
  Li  Li5  1  0.75000000  0.50000000  0.95821000  1.0
  Sc  Sc6  2  0.00000000  0.24998000  0.95821000  1.0
  Sc  Sc7  2  0.96061000  0.23046000  0.12671000  1.0
  Sc  Sc8  1  0.50000000  0.00000000  0.87463000  1.0
  Sc  Sc9  1  0.50000000  0.50000000  0.87463000  1.0
  Sc  Sc10  1  0.51025000  0.00000000  0.04584000  1.0
  Sc  Sc11  1  0.52400000  0.50000000  0.04799000  1.0
  Ge  Ge12  2  0.50000000  0.25002000  0.95821000  1.0
  Ge  Ge13  2  0.51028000  0.26670000  0.13032000  1.0
  Ge  Ge14  1  0.00000000  0.00000000  0.87463000  1.0
  Ge  Ge15  1  0.00000000  0.50000000  0.87463000  1.0
  Ge  Ge16  1  0.99025000  0.50000000  0.04144000  1.0
  Ge  Ge17  1  0.99985000  0.00000000  0.04143000  1.0
  Pd  Pd18  2  0.75000000  0.24998000  0.87463000  1.0
  Pd  Pd19  2  0.75368000  0.24557000  0.03982000  1.0
  Pd  Pd20  1  0.14876000  0.50000000  0.12930000  1.0
  Pd  Pd21  1  0.24250000  0.00000000  0.12314000  1.0
  Pd  Pd22  1  0.25000000  0.00000000  0.95821000  1.0
  Pd  Pd23  1  0.25000000  0.50000000  0.95821000  1.0
  C  C24  1  0.46867000  0.50000000  0.12785000  1.0
