# generated using pymatgen
data_LiScAlIn
_symmetry_space_group_name_H-M   'P 1'
_cell_length_a   4.18696000
_cell_length_b   4.24627000
_cell_length_c   26.53520000
_cell_angle_alpha   90.00000000
_cell_angle_beta   90.00000000
_cell_angle_gamma   90.00000000
_symmetry_Int_Tables_number   1
_chemical_formula_structural   LiScAlIn
_chemical_formula_sum   'Li2 Sc2 Al2 In2'
_cell_volume   471.76832942
_cell_formula_units_Z   2
loop_
 _symmetry_equiv_pos_site_id
 _symmetry_equiv_pos_as_xyz
  1  'x, y, z'
loop_
 _atom_site_type_symbol
 _atom_site_label
 _atom_site_symmetry_multiplicity
 _atom_site_fract_x
 _atom_site_fract_y
 _atom_site_fract_z
 _atom_site_occupancy
  Li  Li0  1  0.00000000  0.50000000  0.04105000  1.0
  Li  Li1  1  0.00000000  0.50000000  0.87686000  1.0
  Sc  Sc2  1  0.50000000  0.50000000  0.12314000  1.0
  Sc  Sc3  1  0.50000000  0.50000000  0.95895000  1.0
  Al  Al4  1  0.00000000  0.00000000  0.12314000  1.0
  Al  Al5  1  0.00000000  0.00000000  0.95895000  1.0
  In  In6  1  0.50000000  0.00000000  0.04105000  1.0
  In  In7  1  0.50000000  0.00000000  0.87686000  1.0
