# generated using pymatgen
data_LiScInGe
_symmetry_space_group_name_H-M   Pm
_cell_length_a   6.08490000
_cell_length_b   4.06313000
_cell_length_c   24.54620000
_cell_angle_alpha   90.00000000
_cell_angle_beta   90.00000000
_cell_angle_gamma   90.00000000
_symmetry_Int_Tables_number   6
_chemical_formula_structural   LiScInGe
_chemical_formula_sum   'Li2 Sc2 In2 Ge2'
_cell_volume   606.87386033
_cell_formula_units_Z   2
loop_
 _symmetry_equiv_pos_site_id
 _symmetry_equiv_pos_as_xyz
  1  'x, y, z'
  2  'x, -y, z'
loop_
 _atom_site_type_symbol
 _atom_site_label
 _atom_site_symmetry_multiplicity
 _atom_site_fract_x
 _atom_site_fract_y
 _atom_site_fract_z
 _atom_site_occupancy
  Li  Li0  1  0.16655000  0.50000000  0.09275000  1.0
  Li  Li1  1  0.72814000  0.50000000  0.96913000  1.0
  Sc  Sc2  1  0.22814000  0.50000000  0.96913000  1.0
  Sc  Sc3  1  0.65186000  0.50000000  0.08663000  1.0
  In  In4  1  0.50000000  0.00000000  0.90740000  1.0
  In  In5  1  0.93939500  0.00000000  0.03094000  1.0
  Ge  Ge6  1  0.00000000  0.00000000  0.90740000  1.0
  Ge  Ge7  1  0.42440500  0.00000000  0.04002500  1.0
