data_image0
_chemical_formula_structural       K24Sb8C
_chemical_formula_sum              "K24 Sb8 C1"
_cell_length_a       8.65338
_cell_length_b       12.2377
_cell_length_c       29.1783
_cell_angle_alpha    90
_cell_angle_beta     90
_cell_angle_gamma    90

_space_group_name_H-M_alt    "P 1"
_space_group_IT_number       1

loop_
  _space_group_symop_operation_xyz
  'x, y, z'

loop_
  _atom_site_type_symbol
  _atom_site_label
  _atom_site_symmetry_multiplicity
  _atom_site_fract_x
  _atom_site_fract_y
  _atom_site_fract_z
  _atom_site_occupancy
  K   K1        1.0  0.25000  0.00000  0.94757  1.0000
  K   K2        1.0  0.75000  0.50000  0.94757  1.0000
  K   K3        1.0  0.75000  0.00000  0.94757  1.0000
  K   K4        1.0  0.25000  0.50000  0.94757  1.0000
  K   K5        1.0  0.75000  0.75000  0.84272  1.0000
  K   K6        1.0  0.25000  0.25000  0.84272  1.0000
  K   K7        1.0  0.25000  0.75000  0.84272  1.0000
  K   K8        1.0  0.75000  0.25000  0.84272  1.0000
  K   K9        1.0  0.00000  0.75000  0.94757  1.0000
  K   K10       1.0  0.50000  0.00000  0.84272  1.0000
  K   K11       1.0  0.00000  0.25000  0.94757  1.0000
  K   K12       1.0  0.50000  0.50000  0.84272  1.0000
  K   K13       1.0  0.28500  0.50000  0.18575  1.0000
  K   K14       1.0  0.79689  1.00000  0.17879  1.0000
  K   K15       1.0  0.71500  0.50001  0.18576  1.0000
  K   K16       1.0  0.20310  0.00000  0.17878  1.0000
  K   K17       1.0  0.75903  0.24206  0.05229  1.0000
  K   K18       1.0  0.24097  0.75794  0.05229  1.0000
  K   K19       1.0  0.24097  0.24205  0.05229  1.0000
  K   K20       1.0  0.75903  0.75794  0.05229  1.0000
  K   K21       1.0  0.99999  0.27935  0.15517  1.0000
  K   K22       1.0  0.50000  0.50000  0.04900  1.0000
  K   K23       1.0  0.00001  0.72065  0.15517  1.0000
  K   K24       1.0  0.50001  0.00000  0.04532  1.0000
  Sb  Sb1       1.0  0.00000  0.00000  0.84272  1.0000
  Sb  Sb2       1.0  0.50000  0.25000  0.94757  1.0000
  Sb  Sb3       1.0  0.50000  0.75000  0.94757  1.0000
  Sb  Sb4       1.0  0.00000  0.50000  0.84272  1.0000
  Sb  Sb5       1.0  0.00000  0.50000  0.06517  1.0000
  Sb  Sb6       1.0  0.50000  0.83109  0.14989  1.0000
  Sb  Sb7       1.0  0.50000  0.16892  0.14989  1.0000
  Sb  Sb8       1.0  1.00000  1.00000  0.05601  1.0000
  C   C1        1.0  0.49999  0.00000  0.14312  1.0000
