# generated using pymatgen
data_K24Sb8C
_symmetry_space_group_name_H-M   'P 1'
_cell_length_a   8.65338000
_cell_length_b   12.23770000
_cell_length_c   29.17830000
_cell_angle_alpha   90.00000000
_cell_angle_beta   90.00000000
_cell_angle_gamma   90.00000000
_symmetry_Int_Tables_number   1
_chemical_formula_structural   K24Sb8C
_chemical_formula_sum   'K24 Sb8 C1'
_cell_volume   3089.90810297
_cell_formula_units_Z   1
loop_
 _symmetry_equiv_pos_site_id
 _symmetry_equiv_pos_as_xyz
  1  'x, y, z'
loop_
 _atom_site_type_symbol
 _atom_site_label
 _atom_site_symmetry_multiplicity
 _atom_site_fract_x
 _atom_site_fract_y
 _atom_site_fract_z
 _atom_site_occupancy
  K  K0  1  0.75001000  0.00000000  0.94757000  1.0
  K  K1  1  0.25001000  0.50000000  0.94757000  1.0
  K  K2  1  0.24999000  0.00000000  0.94757000  1.0
  K  K3  1  0.74999000  0.50000000  0.94757000  1.0
  K  K4  1  0.25001000  0.75000000  0.84272000  1.0
  K  K5  1  0.74999000  0.25000000  0.84272000  1.0
  K  K6  1  0.74999000  0.75000000  0.84272000  1.0
  K  K7  1  0.25001000  0.25000000  0.84272000  1.0
  K  K8  1  0.50000000  0.75000000  0.94757000  1.0
  K  K9  1  0.00000000  0.00000000  0.84272000  1.0
  K  K10  1  0.50000000  0.25000000  0.94757000  1.0
  K  K11  1  0.00000000  0.50000000  0.84272000  1.0
  K  K12  1  0.78501000  0.50000000  0.18575000  1.0
  K  K13  1  0.29690000  0.00000000  0.17879000  1.0
  K  K14  1  0.21499000  0.50000000  0.18575000  1.0
  K  K15  1  0.70310000  0.00000000  0.17879000  1.0
  K  K16  1  0.25904000  0.24206000  0.05229000  1.0
  K  K17  1  0.74096000  0.75794000  0.05229000  1.0
  K  K18  1  0.74096000  0.24206000  0.05229000  1.0
  K  K19  1  0.25904000  0.75794000  0.05229000  1.0
  K  K20  1  0.50000000  0.27935000  0.15517000  1.0
  K  K21  1  0.00000000  0.50000000  0.04900000  1.0
  K  K22  1  0.50000000  0.72065000  0.15517000  1.0
  K  K23  1  0.00000000  0.00000000  0.04532000  1.0
  Sb  Sb24  1  0.50000000  0.00000000  0.84272000  1.0
  Sb  Sb25  1  0.00000000  0.25000000  0.94757000  1.0
  Sb  Sb26  1  0.00000000  0.75000000  0.94757000  1.0
  Sb  Sb27  1  0.50000000  0.50000000  0.84272000  1.0
  Sb  Sb28  1  0.50000000  0.50000000  0.06517000  1.0
  Sb  Sb29  1  0.00000000  0.83109000  0.14989000  1.0
  Sb  Sb30  1  0.00000000  0.16891000  0.14989000  1.0
  Sb  Sb31  1  0.50000000  0.00000000  0.05601000  1.0
  C  C32  1  0.00000000  0.00000000  0.14312000  1.0
