# generated using pymatgen
data_K24Sb8C
_symmetry_space_group_name_H-M   Pmm2
_cell_length_a   8.65338000
_cell_length_b   12.23770000
_cell_length_c   29.17830000
_cell_angle_alpha   90.00000000
_cell_angle_beta   90.00000000
_cell_angle_gamma   90.00000000
_symmetry_Int_Tables_number   25
_chemical_formula_structural   K24Sb8C
_chemical_formula_sum   'K24 Sb8 C1'
_cell_volume   3089.90810297
_cell_formula_units_Z   1
loop_
 _symmetry_equiv_pos_site_id
 _symmetry_equiv_pos_as_xyz
  1  'x, y, z'
  2  '-x, -y, z'
  3  '-x, y, z'
  4  'x, -y, z'
loop_
 _atom_site_type_symbol
 _atom_site_label
 _atom_site_symmetry_multiplicity
 _atom_site_fract_x
 _atom_site_fract_y
 _atom_site_fract_z
 _atom_site_occupancy
  K  K0  4  0.25001000  0.25000000  0.84272000  1.0
  K  K1  4  0.25904000  0.24206000  0.05229000  1.0
  K  K2  2  0.21499000  0.50000000  0.18575000  1.0
  K  K3  2  0.24999000  0.00000000  0.94757000  1.0
  K  K4  2  0.25001000  0.50000000  0.94757000  1.0
  K  K5  2  0.29690000  0.00000000  0.17879000  1.0
  K  K6  2  0.50000000  0.25000000  0.94757000  1.0
  K  K7  2  0.50000000  0.27935000  0.15517000  1.0
  K  K8  1  0.00000000  0.00000000  0.04532000  1.0
  K  K9  1  0.00000000  0.00000000  0.84272000  1.0
  K  K10  1  0.00000000  0.50000000  0.04900000  1.0
  K  K11  1  0.00000000  0.50000000  0.84272000  1.0
  Sb  Sb12  2  0.00000000  0.16891000  0.14989000  1.0
  Sb  Sb13  2  0.00000000  0.25000000  0.94757000  1.0
  Sb  Sb14  1  0.50000000  0.00000000  0.05601000  1.0
  Sb  Sb15  1  0.50000000  0.00000000  0.84272000  1.0
  Sb  Sb16  1  0.50000000  0.50000000  0.06517000  1.0
  Sb  Sb17  1  0.50000000  0.50000000  0.84272000  1.0
  C  C18  1  0.00000000  0.00000000  0.14312000  1.0
