data_image0
_chemical_formula_structural       Zn16Cu8Au8CO
_chemical_formula_sum              "Zn16 Cu8 Au8 C1 O1"
_cell_length_a       6.22913
_cell_length_b       8.80931
_cell_length_c       26.607
_cell_angle_alpha    90
_cell_angle_beta     90
_cell_angle_gamma    90

_space_group_name_H-M_alt    "P 1"
_space_group_IT_number       1

loop_
  _space_group_symop_operation_xyz
  'x, y, z'

loop_
  _atom_site_type_symbol
  _atom_site_label
  _atom_site_symmetry_multiplicity
  _atom_site_fract_x
  _atom_site_fract_y
  _atom_site_fract_z
  _atom_site_occupancy
  Zn  Zn1       1.0  0.25000  0.00000  0.95861  1.0000
  Zn  Zn2       1.0  0.75000  0.50000  0.95861  1.0000
  Zn  Zn3       1.0  0.75000  0.00000  0.95861  1.0000
  Zn  Zn4       1.0  0.25000  0.50000  0.95861  1.0000
  Zn  Zn5       1.0  0.75000  0.75000  0.87584  1.0000
  Zn  Zn6       1.0  0.25000  0.25000  0.87584  1.0000
  Zn  Zn7       1.0  0.25000  0.75000  0.87584  1.0000
  Zn  Zn8       1.0  0.75000  0.25000  0.87584  1.0000
  Zn  Zn9       1.0  0.27215  0.50517  0.12928  1.0000
  Zn  Zn10      1.0  0.72785  0.99482  0.12929  1.0000
  Zn  Zn11      1.0  0.72785  0.50518  0.12929  1.0000
  Zn  Zn12      1.0  0.27215  0.99482  0.12929  1.0000
  Zn  Zn13      1.0  0.77272  0.25000  0.04662  1.0000
  Zn  Zn14      1.0  0.25978  0.75000  0.04175  1.0000
  Zn  Zn15      1.0  0.22728  0.25000  0.04662  1.0000
  Zn  Zn16      1.0  0.74022  0.75000  0.04175  1.0000
  Cu  Cu1       1.0  0.00000  0.00000  0.87584  1.0000
  Cu  Cu2       1.0  0.50000  0.25000  0.95861  1.0000
  Cu  Cu3       1.0  0.50000  0.75000  0.95861  1.0000
  Cu  Cu4       1.0  0.00000  0.50000  0.87584  1.0000
  Cu  Cu5       1.0  1.00000  0.50556  0.04601  1.0000
  Cu  Cu6       1.0  0.50000  0.75000  0.12446  1.0000
  Cu  Cu7       1.0  0.50001  0.25000  0.12018  1.0000
  Cu  Cu8       1.0  0.00000  0.99443  0.04602  1.0000
  Au  Au1       1.0  0.00000  0.75000  0.95861  1.0000
  Au  Au2       1.0  0.50000  0.00000  0.87584  1.0000
  Au  Au3       1.0  0.00000  0.25000  0.95861  1.0000
  Au  Au4       1.0  0.50000  0.50000  0.87584  1.0000
  Au  Au5       1.0  0.99999  0.24999  0.13481  1.0000
  Au  Au6       1.0  0.50000  0.48953  0.03839  1.0000
  Au  Au7       1.0  0.00000  0.75000  0.12309  1.0000
  Au  Au8       1.0  0.50000  0.01046  0.03839  1.0000
  C   C1        1.0  0.00004  0.25003  0.21418  1.0000
  O   O1        1.0  1.00000  0.25000  0.25718  1.0000
