# generated using pymatgen
data_Zn16Cu8Au8CO
_symmetry_space_group_name_H-M   Pmm2
_cell_length_a   6.22913000
_cell_length_b   8.80931000
_cell_length_c   26.60700000
_cell_angle_alpha   90.00000000
_cell_angle_beta   90.00000000
_cell_angle_gamma   90.00000000
_symmetry_Int_Tables_number   25
_chemical_formula_structural   Zn16Cu8Au8CO
_chemical_formula_sum   'Zn16 Cu8 Au8 C1 O1'
_cell_volume   1460.04148989
_cell_formula_units_Z   1
loop_
 _symmetry_equiv_pos_site_id
 _symmetry_equiv_pos_as_xyz
  1  'x, y, z'
  2  '-x, -y, z'
  3  '-x, y, z'
  4  'x, -y, z'
loop_
 _atom_site_type_symbol
 _atom_site_label
 _atom_site_symmetry_multiplicity
 _atom_site_fract_x
 _atom_site_fract_y
 _atom_site_fract_z
 _atom_site_occupancy
  Zn  Zn0  4  0.24996000  0.25003000  0.95861000  1.0
  Zn  Zn1  4  0.27211000  0.25514000  0.12928000  1.0
  Zn  Zn2  2  0.22732000  0.00000000  0.04662000  1.0
  Zn  Zn3  2  0.24996000  0.00000000  0.87584000  1.0
  Zn  Zn4  2  0.25004000  0.50000000  0.87584000  1.0
  Zn  Zn5  2  0.25974000  0.50000000  0.04175000  1.0
  Cu  Cu6  2  0.00000000  0.25003000  0.87584000  1.0
  Cu  Cu7  2  0.00000000  0.25553000  0.04601000  1.0
  Cu  Cu8  1  0.50000000  0.00000000  0.12018000  1.0
  Cu  Cu9  1  0.50000000  0.00000000  0.95861000  1.0
  Cu  Cu10  1  0.50000000  0.50000000  0.12446000  1.0
  Cu  Cu11  1  0.50000000  0.50000000  0.95861000  1.0
  Au  Au12  2  0.50000000  0.23950000  0.03839000  1.0
  Au  Au13  2  0.50000000  0.25003000  0.87584000  1.0
  Au  Au14  1  0.00000000  0.00000000  0.13481000  1.0
  Au  Au15  1  0.00000000  0.00000000  0.95861000  1.0
  Au  Au16  1  0.00000000  0.50000000  0.12309000  1.0
  Au  Au17  1  0.00000000  0.50000000  0.95861000  1.0
  C  C18  1  0.00000000  0.00000000  0.21418000  1.0
  O  O19  1  0.00000000  0.00000000  0.25718000  1.0
