# generated using pymatgen
data_Li16Al8Pt8C
_symmetry_space_group_name_H-M   'P 1'
_cell_length_a   8.59020000
_cell_length_b   6.07419000
_cell_length_c   26.44270000
_cell_angle_alpha   90.00000000
_cell_angle_beta   90.00000000
_cell_angle_gamma   90.00000000
_symmetry_Int_Tables_number   1
_chemical_formula_structural   Li16Al8Pt8C
_chemical_formula_sum   'Li16 Al8 Pt8 C1'
_cell_volume   1379.74060541
_cell_formula_units_Z   1
loop_
 _symmetry_equiv_pos_site_id
 _symmetry_equiv_pos_as_xyz
  1  'x, y, z'
loop_
 _atom_site_type_symbol
 _atom_site_label
 _atom_site_symmetry_multiplicity
 _atom_site_fract_x
 _atom_site_fract_y
 _atom_site_fract_z
 _atom_site_occupancy
  Li  Li0  1  0.50000000  0.00000000  0.04061000  1.0
  Li  Li1  1  0.75000000  0.50000000  0.12182000  1.0
  Li  Li2  1  0.00000000  0.00000000  0.04061000  1.0
  Li  Li3  1  0.25000000  0.50000000  0.12182000  1.0
  Li  Li4  1  0.75000000  0.25000000  0.04061000  1.0
  Li  Li5  1  0.25000000  0.25000000  0.04061000  1.0
  Li  Li6  1  0.50000000  0.75000000  0.12182000  1.0
  Li  Li7  1  0.00000000  0.75000000  0.12182000  1.0
  Li  Li8  1  0.00000000  0.98742000  0.84508000  1.0
  Li  Li9  1  0.24378000  0.49847000  0.96031000  1.0
  Li  Li10  1  0.50000000  0.00125000  0.87301000  1.0
  Li  Li11  1  0.75622000  0.49847000  0.96031000  1.0
  Li  Li12  1  0.23961000  0.26179000  0.87448000  1.0
  Li  Li13  1  0.76039000  0.26179000  0.87448000  1.0
  Li  Li14  1  0.00000000  0.76761000  0.95535000  1.0
  Li  Li15  1  0.50000000  0.75729000  0.96232000  1.0
  Al  Al16  1  0.75000000  0.00000000  0.12182000  1.0
  Al  Al17  1  0.00000000  0.50000000  0.04061000  1.0
  Al  Al18  1  0.50000000  0.50000000  0.04061000  1.0
  Al  Al19  1  0.25000000  0.00000000  0.12182000  1.0
  Al  Al20  1  0.25651000  0.00454000  0.96140000  1.0
  Al  Al21  1  0.50000000  0.52647000  0.88284000  1.0
  Al  Al22  1  0.00000000  0.57693000  0.86254000  1.0
  Al  Al23  1  0.74349000  0.00454000  0.96140000  1.0
  Pt  Pt24  1  0.00000000  0.25000000  0.12182000  1.0
  Pt  Pt25  1  0.50000000  0.25000000  0.12182000  1.0
  Pt  Pt26  1  0.25000000  0.75000000  0.04061000  1.0
  Pt  Pt27  1  0.75000000  0.75000000  0.04061000  1.0
  Pt  Pt28  1  0.50000000  0.25486000  0.95779000  1.0
  Pt  Pt29  1  0.00000000  0.23424000  0.95615000  1.0
  Pt  Pt30  1  0.74467000  0.75652000  0.88469000  1.0
  Pt  Pt31  1  0.25533000  0.75652000  0.88469000  1.0
  C  C32  1  0.00000000  0.27511000  0.88033000  1.0
