# generated using pymatgen
data_Li16Al8Pt8C
_symmetry_space_group_name_H-M   Pm
_cell_length_a   6.07419000
_cell_length_b   8.59020000
_cell_length_c   26.44270000
_cell_angle_alpha   90.00000000
_cell_angle_beta   90.00000000
_cell_angle_gamma   90.00000000
_symmetry_Int_Tables_number   6
_chemical_formula_structural   Li16Al8Pt8C
_chemical_formula_sum   'Li16 Al8 Pt8 C1'
_cell_volume   1379.74060541
_cell_formula_units_Z   1
loop_
 _symmetry_equiv_pos_site_id
 _symmetry_equiv_pos_as_xyz
  1  'x, y, z'
  2  'x, -y, z'
loop_
 _atom_site_type_symbol
 _atom_site_label
 _atom_site_symmetry_multiplicity
 _atom_site_fract_x
 _atom_site_fract_y
 _atom_site_fract_z
 _atom_site_occupancy
  Li  Li0  2  0.25000000  0.25000000  0.95939000  1.0
  Li  Li1  2  0.26179000  0.23961000  0.12552000  1.0
  Li  Li2  2  0.49847000  0.24378000  0.03969000  1.0
  Li  Li3  2  0.50000000  0.25000000  0.87818000  1.0
  Li  Li4  1  0.00000000  0.00000000  0.95939000  1.0
  Li  Li5  1  0.00000000  0.50000000  0.95939000  1.0
  Li  Li6  1  0.00125000  0.50000000  0.12699000  1.0
  Li  Li7  1  0.75000000  0.00000000  0.87818000  1.0
  Li  Li8  1  0.75000000  0.50000000  0.87818000  1.0
  Li  Li9  1  0.75729000  0.50000000  0.03768000  1.0
  Li  Li10  1  0.76761000  0.00000000  0.04465000  1.0
  Li  Li11  1  0.98742000  0.00000000  0.15492000  1.0
  Al  Al12  2  0.00000000  0.25000000  0.87818000  1.0
  Al  Al13  2  0.00454000  0.25651000  0.03860000  1.0
  Al  Al14  1  0.50000000  0.00000000  0.95939000  1.0
  Al  Al15  1  0.50000000  0.50000000  0.95939000  1.0
  Al  Al16  1  0.52647000  0.50000000  0.11716000  1.0
  Al  Al17  1  0.57693000  0.00000000  0.13746000  1.0
  Pt  Pt18  2  0.75000000  0.25000000  0.95939000  1.0
  Pt  Pt19  2  0.75652000  0.25533000  0.11531000  1.0
  Pt  Pt20  1  0.23424000  0.00000000  0.04385000  1.0
  Pt  Pt21  1  0.25000000  0.00000000  0.87818000  1.0
  Pt  Pt22  1  0.25000000  0.50000000  0.87818000  1.0
  Pt  Pt23  1  0.25486000  0.50000000  0.04221000  1.0
  C  C24  1  0.27511000  0.00000000  0.11967000  1.0
