# generated using pymatgen
data_Sc8Ga8Cu8Pd8C
_symmetry_space_group_name_H-M   'P 1'
_cell_length_a   8.95236000
_cell_length_b   6.33027000
_cell_length_c   26.71430000
_cell_angle_alpha   90.00000000
_cell_angle_beta   90.00000000
_cell_angle_gamma   90.00000000
_symmetry_Int_Tables_number   1
_chemical_formula_structural   Sc8Ga8Cu8Pd8C
_chemical_formula_sum   'Sc8 Ga8 Cu8 Pd8 C1'
_cell_volume   1513.92224676
_cell_formula_units_Z   1
loop_
 _symmetry_equiv_pos_site_id
 _symmetry_equiv_pos_as_xyz
  1  'x, y, z'
loop_
 _atom_site_type_symbol
 _atom_site_label
 _atom_site_symmetry_multiplicity
 _atom_site_fract_x
 _atom_site_fract_y
 _atom_site_fract_z
 _atom_site_occupancy
  Sc  Sc0  1  0.50000000  0.75000000  0.04189000  1.0
  Sc  Sc1  1  0.00000000  0.75000000  0.04189000  1.0
  Sc  Sc2  1  0.75002000  0.25000000  0.12567000  1.0
  Sc  Sc3  1  0.24998000  0.25000000  0.12567000  1.0
  Sc  Sc4  1  0.00000000  0.68314000  0.87031000  1.0
  Sc  Sc5  1  0.50000000  0.72691000  0.87635000  1.0
  Sc  Sc6  1  0.23956000  0.24980000  0.95316000  1.0
  Sc  Sc7  1  0.76044000  0.24980000  0.95316000  1.0
  Ga  Ga8  1  0.50000000  0.25000000  0.04189000  1.0
  Ga  Ga9  1  0.00000000  0.25000000  0.04189000  1.0
  Ga  Ga10  1  0.75002000  0.75000000  0.12567000  1.0
  Ga  Ga11  1  0.24998000  0.75000000  0.12567000  1.0
  Ga  Ga12  1  0.00000000  0.23888000  0.87192000  1.0
  Ga  Ga13  1  0.50000000  0.16596000  0.87420000  1.0
  Ga  Ga14  1  0.25519000  0.74317000  0.95835000  1.0
  Ga  Ga15  1  0.74481000  0.74317000  0.95835000  1.0
  Cu  Cu16  1  0.50000000  0.00000000  0.12567000  1.0
  Cu  Cu17  1  0.00000000  0.00000000  0.12567000  1.0
  Cu  Cu18  1  0.25002000  0.50000000  0.04189000  1.0
  Cu  Cu19  1  0.74998000  0.50000000  0.04189000  1.0
  Cu  Cu20  1  0.00000000  0.96303000  0.94957000  1.0
  Cu  Cu21  1  0.50000000  0.00737000  0.96135000  1.0
  Cu  Cu22  1  0.72649000  0.40890000  0.85236000  1.0
  Cu  Cu23  1  0.27351000  0.40890000  0.85236000  1.0
  Pd  Pd24  1  0.75002000  0.00000000  0.04189000  1.0
  Pd  Pd25  1  0.24998000  0.00000000  0.04189000  1.0
  Pd  Pd26  1  0.00000000  0.50000000  0.12567000  1.0
  Pd  Pd27  1  0.50000000  0.50000000  0.12567000  1.0
  Pd  Pd28  1  0.23473000  0.97315000  0.87659000  1.0
  Pd  Pd29  1  0.76527000  0.97315000  0.87659000  1.0
  Pd  Pd30  1  0.50000000  0.48482000  0.96088000  1.0
  Pd  Pd31  1  0.00000000  0.50839000  0.96077000  1.0
  C  C32  1  0.50000000  0.43502000  0.84115000  1.0
