# generated using pymatgen
data_Sc8Ga8Cu8Pd8C
_symmetry_space_group_name_H-M   Pm
_cell_length_a   6.33027000
_cell_length_b   8.95236000
_cell_length_c   26.71430000
_cell_angle_alpha   90.00000000
_cell_angle_beta   90.00000000
_cell_angle_gamma   90.00000000
_symmetry_Int_Tables_number   6
_chemical_formula_structural   Sc8Ga8Cu8Pd8C
_chemical_formula_sum   'Sc8 Ga8 Cu8 Pd8 C1'
_cell_volume   1513.92224676
_cell_formula_units_Z   1
loop_
 _symmetry_equiv_pos_site_id
 _symmetry_equiv_pos_as_xyz
  1  'x, y, z'
  2  'x, -y, z'
loop_
 _atom_site_type_symbol
 _atom_site_label
 _atom_site_symmetry_multiplicity
 _atom_site_fract_x
 _atom_site_fract_y
 _atom_site_fract_z
 _atom_site_occupancy
  Sc  Sc0  2  0.24980000  0.23956000  0.04684000  1.0
  Sc  Sc1  2  0.25000000  0.24998000  0.87433000  1.0
  Sc  Sc2  1  0.68314000  0.00000000  0.12969000  1.0
  Sc  Sc3  1  0.72691000  0.50000000  0.12365000  1.0
  Sc  Sc4  1  0.75000000  0.00000000  0.95811000  1.0
  Sc  Sc5  1  0.75000000  0.50000000  0.95811000  1.0
  Ga  Ga6  2  0.74317000  0.25519000  0.04165000  1.0
  Ga  Ga7  2  0.75000000  0.24998000  0.87433000  1.0
  Ga  Ga8  1  0.16596000  0.50000000  0.12580000  1.0
  Ga  Ga9  1  0.23888000  0.00000000  0.12808000  1.0
  Ga  Ga10  1  0.25000000  0.00000000  0.95811000  1.0
  Ga  Ga11  1  0.25000000  0.50000000  0.95811000  1.0
  Cu  Cu12  2  0.40890000  0.27351000  0.14764000  1.0
  Cu  Cu13  2  0.50000000  0.25002000  0.95811000  1.0
  Cu  Cu14  1  0.00000000  0.00000000  0.87433000  1.0
  Cu  Cu15  1  0.00000000  0.50000000  0.87433000  1.0
  Cu  Cu16  1  0.00737000  0.50000000  0.03865000  1.0
  Cu  Cu17  1  0.96303000  0.00000000  0.05043000  1.0
  Pd  Pd18  2  0.00000000  0.24998000  0.95811000  1.0
  Pd  Pd19  2  0.97315000  0.23473000  0.12341000  1.0
  Pd  Pd20  1  0.48482000  0.50000000  0.03912000  1.0
  Pd  Pd21  1  0.50000000  0.00000000  0.87433000  1.0
  Pd  Pd22  1  0.50000000  0.50000000  0.87433000  1.0
  Pd  Pd23  1  0.50839000  0.00000000  0.03923000  1.0
  C  C24  1  0.43502000  0.50000000  0.15885000  1.0
