# generated using pymatgen
data_Sc4Ga4Ge4Pd4CO
_symmetry_space_group_name_H-M   Pm
_cell_length_a   5.89664000
_cell_length_b   7.83718000
_cell_length_c   24.41460000
_cell_angle_alpha   90.00000000
_cell_angle_beta   90.00000000
_cell_angle_gamma   90.00000000
_symmetry_Int_Tables_number   6
_chemical_formula_structural   Sc4Ga4Ge4Pd4CO
_chemical_formula_sum   'Sc4 Ga4 Ge4 Pd4 C1 O1'
_cell_volume   1128.27261966
_cell_formula_units_Z   1
loop_
 _symmetry_equiv_pos_site_id
 _symmetry_equiv_pos_as_xyz
  1  'x, y, z'
  2  'x, -y, z'
loop_
 _atom_site_type_symbol
 _atom_site_label
 _atom_site_symmetry_multiplicity
 _atom_site_fract_x
 _atom_site_fract_y
 _atom_site_fract_z
 _atom_site_occupancy
  Sc  Sc0  1  0.02981000  0.00000000  0.03014000  1.0
  Sc  Sc1  1  0.02981000  0.50000000  0.03014000  1.0
  Sc  Sc2  1  0.50014000  0.00000000  0.91231000  1.0
  Sc  Sc3  1  0.50083000  0.50000000  0.91200000  1.0
  Ga  Ga4  1  0.00038000  0.00000000  0.90090000  1.0
  Ga  Ga5  1  0.00463000  0.50000000  0.89979000  1.0
  Ga  Ga6  1  0.52981000  0.00000000  0.03014000  1.0
  Ga  Ga7  1  0.52981000  0.50000000  0.03014000  1.0
  Ge  Ge8  2  0.24201000  0.25129000  0.96143000  1.0
  Ge  Ge9  2  0.79472000  0.25000000  0.09041000  1.0
  Pd  Pd10  2  0.29472000  0.25000000  0.09041000  1.0
  Pd  Pd11  2  0.76985000  0.25191000  0.96826000  1.0
  C  C12  1  0.49719000  0.00000000  0.81731000  1.0
  O  O13  1  0.49598000  0.00000000  0.77026000  1.0
