# generated using pymatgen
data_Mn2SnW
_symmetry_space_group_name_H-M   'P 1'
_cell_length_a   4.31681619
_cell_length_b   4.31681619
_cell_length_c   24.57870000
_cell_angle_alpha   90.00000000
_cell_angle_beta   90.00000000
_cell_angle_gamma   90.00000000
_symmetry_Int_Tables_number   1
_chemical_formula_structural   Mn2SnW
_chemical_formula_sum   'Mn4 Sn2 W2'
_cell_volume   458.02166591
_cell_formula_units_Z   2
loop_
 _symmetry_equiv_pos_site_id
 _symmetry_equiv_pos_as_xyz
  1  'x, y, z'
loop_
 _atom_site_type_symbol
 _atom_site_label
 _atom_site_symmetry_multiplicity
 _atom_site_fract_x
 _atom_site_fract_y
 _atom_site_fract_z
 _atom_site_occupancy
  Mn  Mn0  1  0.50000000  0.00000000  0.03105000  1.0
  Mn  Mn1  1  0.50000000  0.00000000  0.90686000  1.0
  Mn  Mn2  1  0.00000000  0.50000000  0.03105000  1.0
  Mn  Mn3  1  0.00000000  0.50000000  0.90686000  1.0
  Sn  Sn4  1  0.00000000  0.00000000  0.09314000  1.0
  Sn  Sn5  1  0.50000000  0.50000000  0.96895000  1.0
  W  W6  1  0.00000000  0.00000000  0.96895000  1.0
  W  W7  1  0.50000000  0.50000000  0.09314000  1.0
