# generated using pymatgen
data_Sc4In4Ge4Pd4CO
_symmetry_space_group_name_H-M   'P 1'
_cell_length_a   9.28368000
_cell_length_b   5.71274000
_cell_length_c   24.27220000
_cell_angle_alpha   90.00000000
_cell_angle_beta   90.00000000
_cell_angle_gamma   90.00000000
_symmetry_Int_Tables_number   1
_chemical_formula_structural   Sc4In4Ge4Pd4CO
_chemical_formula_sum   'Sc4 In4 Ge4 Pd4 C1 O1'
_cell_volume   1287.28219707
_cell_formula_units_Z   1
loop_
 _symmetry_equiv_pos_site_id
 _symmetry_equiv_pos_as_xyz
  1  'x, y, z'
loop_
 _atom_site_type_symbol
 _atom_site_label
 _atom_site_symmetry_multiplicity
 _atom_site_fract_x
 _atom_site_fract_y
 _atom_site_fract_z
 _atom_site_occupancy
  Sc  Sc0  1  0.75000000  0.50000000  0.08801000  1.0
  Sc  Sc1  1  0.75034000  0.88385000  0.96896000  1.0
  Sc  Sc2  1  0.25000000  0.50000000  0.08801000  1.0
  Sc  Sc3  1  0.24966000  0.88385000  0.96896000  1.0
  In  In4  1  0.00000000  0.23099000  0.02934000  1.0
  In  In5  1  0.00000000  0.61436000  0.90442000  1.0
  In  In6  1  0.50000000  0.23099000  0.02934000  1.0
  In  In7  1  0.50000000  0.60626000  0.90623000  1.0
  Ge  Ge8  1  0.75000000  0.00000000  0.08801000  1.0
  Ge  Ge9  1  0.75167000  0.37758000  0.94743000  1.0
  Ge  Ge10  1  0.25000000  0.00000000  0.08801000  1.0
  Ge  Ge11  1  0.24833000  0.37758000  0.94743000  1.0
  Pd  Pd12  1  0.00000000  0.73099000  0.02934000  1.0
  Pd  Pd13  1  0.00000000  0.10304000  0.92150000  1.0
  Pd  Pd14  1  0.50000000  0.73099000  0.02934000  1.0
  Pd  Pd15  1  0.50000000  0.09741000  0.92247000  1.0
  C  C16  1  0.00000000  0.59063000  0.73236000  1.0
  O  O17  1  0.00000000  0.74630000  0.70333000  1.0
