# generated using pymatgen
data_Sc4In4Ge4Pd4CO
_symmetry_space_group_name_H-M   Pm
_cell_length_a   5.71274000
_cell_length_b   9.28368000
_cell_length_c   24.27220000
_cell_angle_alpha   90.00000000
_cell_angle_beta   90.00000000
_cell_angle_gamma   90.00000000
_symmetry_Int_Tables_number   6
_chemical_formula_structural   Sc4In4Ge4Pd4CO
_chemical_formula_sum   'Sc4 In4 Ge4 Pd4 C1 O1'
_cell_volume   1287.28219707
_cell_formula_units_Z   1
loop_
 _symmetry_equiv_pos_site_id
 _symmetry_equiv_pos_as_xyz
  1  'x, y, z'
  2  'x, -y, z'
loop_
 _atom_site_type_symbol
 _atom_site_label
 _atom_site_symmetry_multiplicity
 _atom_site_fract_x
 _atom_site_fract_y
 _atom_site_fract_z
 _atom_site_occupancy
  Sc  Sc0  2  0.50000000  0.25000000  0.91199000  1.0
  Sc  Sc1  2  0.88385000  0.24966000  0.03104000  1.0
  In  In2  1  0.23099000  0.00000000  0.97066000  1.0
  In  In3  1  0.23099000  0.50000000  0.97066000  1.0
  In  In4  1  0.60626000  0.50000000  0.09377000  1.0
  In  In5  1  0.61436000  0.00000000  0.09558000  1.0
  Ge  Ge6  2  0.00000000  0.25000000  0.91199000  1.0
  Ge  Ge7  2  0.37758000  0.24833000  0.05257000  1.0
  Pd  Pd8  1  0.09741000  0.50000000  0.07753000  1.0
  Pd  Pd9  1  0.10304000  0.00000000  0.07850000  1.0
  Pd  Pd10  1  0.73099000  0.00000000  0.97066000  1.0
  Pd  Pd11  1  0.73099000  0.50000000  0.97066000  1.0
  C  C12  1  0.59063000  0.00000000  0.26764000  1.0
  O  O13  1  0.74630000  0.00000000  0.29667000  1.0
