# generated using pymatgen
data_Y4Ga4Sn4Pd4CO
_symmetry_space_group_name_H-M   Pm
_cell_length_a   6.14219000
_cell_length_b   8.88338000
_cell_length_c   24.60430000
_cell_angle_alpha   90.00000000
_cell_angle_beta   90.00000000
_cell_angle_gamma   90.00000000
_symmetry_Int_Tables_number   6
_chemical_formula_structural   Y4Ga4Sn4Pd4CO
_chemical_formula_sum   'Y4 Ga4 Sn4 Pd4 C1 O1'
_cell_volume   1342.49445459
_cell_formula_units_Z   1
loop_
 _symmetry_equiv_pos_site_id
 _symmetry_equiv_pos_as_xyz
  1  'x, y, z'
  2  'x, -y, z'
loop_
 _atom_site_type_symbol
 _atom_site_label
 _atom_site_symmetry_multiplicity
 _atom_site_fract_x
 _atom_site_fract_y
 _atom_site_fract_z
 _atom_site_occupancy
  Y  Y0  1  0.24196000  0.00000000  0.96881000  1.0
  Y  Y1  1  0.24196000  0.50000000  0.96881000  1.0
  Y  Y2  1  0.71004000  0.50000000  0.08243000  1.0
  Y  Y3  1  0.71201000  0.00000000  0.08751000  1.0
  Ga  Ga4  2  0.00000000  0.25000000  0.90643000  1.0
  Ga  Ga5  2  0.47181000  0.24430000  0.03131000  1.0
  Sn  Sn6  2  0.50000000  0.25000000  0.90643000  1.0
  Sn  Sn7  2  0.98580000  0.24481000  0.03403000  1.0
  Pd  Pd8  1  0.23207000  0.50000000  0.07938000  1.0
  Pd  Pd9  1  0.23511000  0.00000000  0.09088000  1.0
  Pd  Pd10  1  0.74196000  0.00000000  0.96881000  1.0
  Pd  Pd11  1  0.74196000  0.50000000  0.96881000  1.0
  C  C12  1  0.23360000  0.00000000  0.16949000  1.0
  O  O13  1  0.22272000  0.00000000  0.21670000  1.0
