# generated using pymatgen
data_V4Pd12C
_symmetry_space_group_name_H-M   Pmm2
_cell_length_a   5.54458000
_cell_length_b   7.84123000
_cell_length_c   24.15840000
_cell_angle_alpha   90.00000000
_cell_angle_beta   90.00000000
_cell_angle_gamma   90.00000000
_symmetry_Int_Tables_number   25
_chemical_formula_structural   V4Pd12C
_chemical_formula_sum   'V4 Pd12 C1'
_cell_volume   1050.31849900
_cell_formula_units_Z   1
loop_
 _symmetry_equiv_pos_site_id
 _symmetry_equiv_pos_as_xyz
  1  'x, y, z'
  2  '-x, -y, z'
  3  '-x, y, z'
  4  'x, -y, z'
loop_
 _atom_site_type_symbol
 _atom_site_label
 _atom_site_symmetry_multiplicity
 _atom_site_fract_x
 _atom_site_fract_y
 _atom_site_fract_z
 _atom_site_occupancy
  V  V0  1  0.00000000  0.00000000  0.08607000  1.0
  V  V1  1  0.00000000  0.50000000  0.08607000  1.0
  V  V2  1  0.50000000  0.00000000  0.97931000  1.0
  V  V3  1  0.50000000  0.50000000  0.97528000  1.0
  Pd  Pd4  4  0.25000000  0.25000000  0.02869000  1.0
  Pd  Pd5  4  0.25473000  0.19719000  0.90942000  1.0
  Pd  Pd6  1  0.00000000  0.00000000  0.98150000  1.0
  Pd  Pd7  1  0.00000000  0.50000000  0.96736000  1.0
  Pd  Pd8  1  0.50000000  0.00000000  0.08607000  1.0
  Pd  Pd9  1  0.50000000  0.50000000  0.08607000  1.0
  C  C10  1  0.00000000  0.00000000  0.89588000  1.0
