# generated using pymatgen
data_Mg8Sc8In8Pd8C
_symmetry_space_group_name_H-M   P1
_cell_length_a   6.76782000
_cell_length_b   9.57114000
_cell_length_c   27.17840000
_cell_angle_alpha   90.00000000
_cell_angle_beta   90.00000000
_cell_angle_gamma   90.00000000
_symmetry_Int_Tables_number   1
_chemical_formula_structural   Mg8Sc8In8Pd8C
_chemical_formula_sum   'Mg8 Sc8 In8 Pd8 C1'
_cell_volume   1760.50131758
_cell_formula_units_Z   1
loop_
 _symmetry_equiv_pos_site_id
 _symmetry_equiv_pos_as_xyz
  1  'x, y, z'
loop_
 _atom_site_type_symbol
 _atom_site_label
 _atom_site_symmetry_multiplicity
 _atom_site_fract_x
 _atom_site_fract_y
 _atom_site_fract_z
 _atom_site_occupancy
  Mg  Mg0  1  0.23246000  0.49998000  0.13582000  1.0
  Mg  Mg1  1  0.25000000  0.00000000  0.95598000  1.0
  Mg  Mg2  1  0.25000000  0.50000000  0.95598000  1.0
  Mg  Mg3  1  0.27307000  0.00007000  0.15428000  1.0
  Mg  Mg4  1  0.73694000  0.74596000  0.04751000  1.0
  Mg  Mg5  1  0.73696000  0.25403000  0.04751000  1.0
  Mg  Mg6  1  0.75000000  0.25000000  0.86794000  1.0
  Mg  Mg7  1  0.75000000  0.75000000  0.86794000  1.0
  Sc  Sc8  1  0.25000000  0.25000000  0.86794000  1.0
  Sc  Sc9  1  0.25000000  0.75000000  0.86794000  1.0
  Sc  Sc10  1  0.26786000  0.24868000  0.04951000  1.0
  Sc  Sc11  1  0.26787000  0.75131000  0.04951000  1.0
  Sc  Sc12  1  0.69073000  0.99997000  0.12888000  1.0
  Sc  Sc13  1  0.75000000  0.00000000  0.95598000  1.0
  Sc  Sc14  1  0.75000000  0.50000000  0.95598000  1.0
  Sc  Sc15  1  0.75328000  0.50004000  0.13222000  1.0
  In  In16  1  0.00000000  0.00000000  0.86794000  1.0
  In  In17  1  0.00000000  0.50000000  0.86794000  1.0
  In  In18  1  0.00613000  0.49999000  0.04442000  1.0
  In  In19  1  0.48805000  0.73414000  0.15502000  1.0
  In  In20  1  0.48823000  0.26589000  0.15501000  1.0
  In  In21  1  0.50000000  0.25000000  0.95598000  1.0
  In  In22  1  0.50000000  0.75000000  0.95598000  1.0
  In  In23  1  0.99688000  0.00000000  0.04548000  1.0
  Pd  Pd24  1  0.00000000  0.25000000  0.95598000  1.0
  Pd  Pd25  1  0.00000000  0.75000000  0.95598000  1.0
  Pd  Pd26  1  0.01058000  0.24017000  0.12335000  1.0
  Pd  Pd27  1  0.01065000  0.75985000  0.12335000  1.0
  Pd  Pd28  1  0.49942000  0.50001000  0.04571000  1.0
  Pd  Pd29  1  0.50000000  0.00000000  0.86794000  1.0
  Pd  Pd30  1  0.50000000  0.50000000  0.86794000  1.0
  Pd  Pd31  1  0.50064000  0.00000000  0.03741000  1.0
  C  C32  1  0.98649000  0.00000000  0.13015000  1.0
