data_image0
_chemical_formula_structural       Li4Y4Sn4Ge4CO
_chemical_formula_sum              "Li4 Y4 Sn4 Ge4 C1 O1"
_cell_length_a       6.38551
_cell_length_b       8.52742
_cell_length_c       24.7691
_cell_angle_alpha    90
_cell_angle_beta     90
_cell_angle_gamma    90

_space_group_name_H-M_alt    "P 1"
_space_group_IT_number       1

loop_
  _space_group_symop_operation_xyz
  'x, y, z'

loop_
  _atom_site_type_symbol
  _atom_site_label
  _atom_site_symmetry_multiplicity
  _atom_site_fract_x
  _atom_site_fract_y
  _atom_site_fract_z
  _atom_site_occupancy
  Li  Li1       1.0  0.72717  0.25000  0.96791  1.0000
  Li  Li2       1.0  0.18762  0.25000  0.09468  1.0000
  Li  Li3       1.0  0.72717  0.75000  0.96791  1.0000
  Li  Li4       1.0  0.19122  0.75000  0.08858  1.0000
  Y   Y1        1.0  0.22717  0.25000  0.96791  1.0000
  Y   Y2        1.0  0.68141  0.25000  0.08720  1.0000
  Y   Y3        1.0  0.22717  0.75000  0.96791  1.0000
  Y   Y4        1.0  0.68301  0.75000  0.08976  1.0000
  Sn  Sn1       1.0  0.50000  0.00000  0.90373  1.0000
  Sn  Sn2       1.0  0.95675  0.99857  0.03035  1.0000
  Sn  Sn3       1.0  0.50000  0.50000  0.90373  1.0000
  Sn  Sn4       1.0  0.95676  0.50143  0.03036  1.0000
  Ge  Ge1       1.0  0.00000  0.00000  0.90373  1.0000
  Ge  Ge2       1.0  0.44362  0.99645  0.03501  1.0000
  Ge  Ge3       1.0  0.00000  0.50000  0.90373  1.0000
  Ge  Ge4       1.0  0.44364  0.50355  0.03500  1.0000
  C   C1        1.0  0.68353  0.25000  0.18573  1.0000
  O   O1        1.0  0.68103  0.25000  0.23248  1.0000
