# generated using pymatgen
data_ScInNi2
_symmetry_space_group_name_H-M   'P 1'
_cell_length_a   6.35421000
_cell_length_b   8.98620000
_cell_length_c   26.73970000
_cell_angle_alpha   90.00000000
_cell_angle_beta   90.00000000
_cell_angle_gamma   90.00000000
_symmetry_Int_Tables_number   1
_chemical_formula_structural   ScInNi2
_chemical_formula_sum   'Sc8 In8 Ni16'
_cell_volume   1526.84226880
_cell_formula_units_Z   8
loop_
 _symmetry_equiv_pos_site_id
 _symmetry_equiv_pos_as_xyz
  1  'x, y, z'
loop_
 _atom_site_type_symbol
 _atom_site_label
 _atom_site_symmetry_multiplicity
 _atom_site_fract_x
 _atom_site_fract_y
 _atom_site_fract_z
 _atom_site_occupancy
  Sc  Sc0  1  0.00000000  0.00000000  0.87398000  1.0
  Sc  Sc1  1  0.50000000  0.25000000  0.95799000  1.0
  Sc  Sc2  1  0.50000000  0.75000000  0.95799000  1.0
  Sc  Sc3  1  0.00000000  0.50000000  0.87398000  1.0
  Sc  Sc4  1  0.99998000  0.49995000  0.04090000  1.0
  Sc  Sc5  1  0.50003000  0.74998000  0.12349000  1.0
  Sc  Sc6  1  0.49998000  0.25001000  0.12353000  1.0
  Sc  Sc7  1  0.00002000  0.00004000  0.04089000  1.0
  In  In8  1  0.00000000  0.75000000  0.95799000  1.0
  In  In9  1  0.50000000  0.00000000  0.87398000  1.0
  In  In10  1  0.00000000  0.25000000  0.95799000  1.0
  In  In11  1  0.50000000  0.50000000  0.87398000  1.0
  In  In12  1  0.00003000  0.24998000  0.13100000  1.0
  In  In13  1  0.50003000  0.50004000  0.04165000  1.0
  In  In14  1  0.00000000  0.75001000  0.13102000  1.0
  In  In15  1  0.49997000  0.99995000  0.04163000  1.0
  Ni  Ni16  1  0.25000000  0.00000000  0.95799000  1.0
  Ni  Ni17  1  0.75000000  0.50000000  0.95799000  1.0
  Ni  Ni18  1  0.75000000  0.00000000  0.95799000  1.0
  Ni  Ni19  1  0.25000000  0.50000000  0.95799000  1.0
  Ni  Ni20  1  0.75000000  0.75000000  0.87398000  1.0
  Ni  Ni21  1  0.25000000  0.25000000  0.87398000  1.0
  Ni  Ni22  1  0.25000000  0.75000000  0.87398000  1.0
  Ni  Ni23  1  0.75000000  0.25000000  0.87398000  1.0
  Ni  Ni24  1  0.23120000  0.50000000  0.11855000  1.0
  Ni  Ni25  1  0.76877000  0.00002000  0.11852000  1.0
  Ni  Ni26  1  0.76887000  0.49995000  0.11856000  1.0
  Ni  Ni27  1  0.23128000  0.00001000  0.11853000  1.0
  Ni  Ni28  1  0.74962000  0.25002000  0.04373000  1.0
  Ni  Ni29  1  0.25017000  0.74994000  0.04368000  1.0
  Ni  Ni30  1  0.25027000  0.25003000  0.04370000  1.0
  Ni  Ni31  1  0.74990000  0.75000000  0.04367000  1.0
