# generated using pymatgen
data_Ti4In4Ni8C
_symmetry_space_group_name_H-M   P4mm
_cell_length_a   6.14958000
_cell_length_b   6.14958000
_cell_length_c   24.61220000
_cell_angle_alpha   90.00000000
_cell_angle_beta   90.00000000
_cell_angle_gamma   90.00000000
_symmetry_Int_Tables_number   99
_chemical_formula_structural   Ti4In4Ni8C
_chemical_formula_sum   'Ti4 In4 Ni8 C1'
_cell_volume   930.76779222
_cell_formula_units_Z   1
loop_
 _symmetry_equiv_pos_site_id
 _symmetry_equiv_pos_as_xyz
  1  'x, y, z'
  2  '-y, x, z'
  3  '-x, -y, z'
  4  'y, -x, z'
  5  '-x, y, z'
  6  'y, x, z'
  7  'x, -y, z'
  8  '-y, -x, z'
loop_
 _atom_site_type_symbol
 _atom_site_label
 _atom_site_symmetry_multiplicity
 _atom_site_fract_x
 _atom_site_fract_y
 _atom_site_fract_z
 _atom_site_occupancy
  Ti  Ti0  2  0.00000000  0.50000000  0.90630000  1.0
  Ti  Ti1  1  0.00000000  0.00000000  0.03123000  1.0
  Ti  Ti2  1  0.50000000  0.50000000  0.03123000  1.0
  In  In3  2  0.00000000  0.50000000  0.03123000  1.0
  In  In4  1  0.00000000  0.00000000  0.90630000  1.0
  In  In5  1  0.50000000  0.50000000  0.90630000  1.0
  Ni  Ni6  4  0.25000000  0.25000000  0.09370000  1.0
  Ni  Ni7  4  0.25000000  0.25000000  0.96877000  1.0
  C  C8  1  0.00000000  0.00000000  0.12620000  1.0
