# generated using pymatgen
data_Li8In4Au4CO
_symmetry_space_group_name_H-M   'P 1'
_cell_length_a   6.60991000
_cell_length_b   6.60991000
_cell_length_c   24.95740000
_cell_angle_alpha   90.00000000
_cell_angle_beta   90.00000000
_cell_angle_gamma   90.00000000
_symmetry_Int_Tables_number   1
_chemical_formula_structural   Li8In4Au4CO
_chemical_formula_sum   'Li8 In4 Au4 C1 O1'
_cell_volume   1090.41152243
_cell_formula_units_Z   1
loop_
 _symmetry_equiv_pos_site_id
 _symmetry_equiv_pos_as_xyz
  1  'x, y, z'
loop_
 _atom_site_type_symbol
 _atom_site_label
 _atom_site_symmetry_multiplicity
 _atom_site_fract_x
 _atom_site_fract_y
 _atom_site_fract_z
 _atom_site_occupancy
  Li  Li0  1  0.99836000  0.50163000  0.96478000  1
  Li  Li1  1  0.50000500  0.50000500  0.09932000  1
  Li  Li2  1  0.00000500  0.00000500  0.09932000  1
  Li  Li3  1  0.50163000  0.99836000  0.96478000  1
  Li  Li4  1  0.25002500  0.25002500  0.88792000  1
  Li  Li5  1  0.25000000  0.75001000  0.03311000  1
  Li  Li6  1  0.74996000  0.74996000  0.88694000  1
  Li  Li7  1  0.75001000  0.25000000  0.03311000  1
  In  In8  1  0.00000000  0.50001000  0.09932000  1
  In  In9  1  0.50001000  1.00000000  0.09932000  1
  In  In10  1  0.50058500  0.50058500  0.96642000  1
  In  In11  1  0.99942000  0.99942000  0.96641000  1
  Au  Au12  1  0.25000500  0.25000500  0.03311000  1
  Au  Au13  1  0.25001000  0.75001000  0.90639000  1
  Au  Au14  1  0.75000500  0.75000500  0.03311000  1
  Au  Au15  1  0.75001000  0.25001000  0.90639000  1
  C  C16  1  0.25001000  0.25001000  0.80332000  1
  O  O17  1  0.25000000  0.25000000  0.75766000  1
