# generated using pymatgen
data_Li8In4Au4CO
_symmetry_space_group_name_H-M   Cm
_cell_length_a   9.34782437
_cell_length_b   9.34782437
_cell_length_c   24.95740000
_cell_angle_alpha   90.00000000
_cell_angle_beta   90.00000000
_cell_angle_gamma   90.00000000
_symmetry_Int_Tables_number   8
_chemical_formula_structural   Li8In4Au4CO
_chemical_formula_sum   'Li16 In8 Au8 C2 O2'
_cell_volume   2180.82304486
_cell_formula_units_Z   2
loop_
 _symmetry_equiv_pos_site_id
 _symmetry_equiv_pos_as_xyz
  1  'x, y, z'
  2  '-x+1/2, -y, z'
  3  '-x+1/2, y, z'
  4  'x, -y, z'
  5  'x+1/2, y+1/2, z'
  6  '-x, -y+1/2, z'
  7  '-x, y+1/2, z'
  8  'x+1/2, -y+1/2, z'
loop_
 _atom_site_type_symbol
 _atom_site_label
 _atom_site_symmetry_multiplicity
 _atom_site_fract_x
 _atom_site_fract_y
 _atom_site_fract_z
 _atom_site_occupancy
  Li  Li0  4  0.00000500  0.00000000  0.90068000  1.0
  Li  Li1  4  0.00000500  0.24999500  0.96689000  1.0
  Li  Li2  4  0.24999500  0.25163500  0.03522000  1.0
  Li  Li3  2  0.24996000  0.50000000  0.11306000  1.0
  Li  Li4  2  0.25002500  0.00000000  0.11208000  1.0
  In  In5  4  0.00058500  0.50000000  0.03358000  1.0
  In  In6  4  0.25000500  0.25000500  0.90068000  1.0
  Au  Au7  4  0.00001000  0.25000000  0.09361000  1.0
  Au  Au8  2  0.25000500  0.00000000  0.96689000  1.0
  Au  Au9  2  0.25000500  0.50000000  0.96689000  1.0
  C  C10  2  0.25001000  0.00000000  0.19668000  1.0
  O  O11  2  0.25000000  0.00000000  0.24234000  1.0
