data_image0
_chemical_formula_structural       In8Ni24CO
_chemical_formula_sum              "In8 Ni24 C1 O1"
_cell_length_a       7.54029
_cell_length_b       7.54029
_cell_length_c       25.6552
_cell_angle_alpha    90
_cell_angle_beta     90
_cell_angle_gamma    90

_space_group_name_H-M_alt    "P 1"
_space_group_IT_number       1

loop_
  _space_group_symop_operation_xyz
  'x, y, z'

loop_
  _atom_site_type_symbol
  _atom_site_label
  _atom_site_symmetry_multiplicity
  _atom_site_fract_x
  _atom_site_fract_y
  _atom_site_fract_z
  _atom_site_occupancy
  In  In1       1.0  0.99639  0.99637  0.11452  1.0000
  In  In2       1.0  0.00000  0.00000  0.96326  1.0000
  In  In3       1.0  0.99635  0.50363  0.11451  1.0000
  In  In4       1.0  0.00000  0.50000  0.96326  1.0000
  In  In5       1.0  0.50361  0.99638  0.11451  1.0000
  In  In6       1.0  0.50000  0.00000  0.96326  1.0000
  In  In7       1.0  0.50365  0.50363  0.11450  1.0000
  In  In8       1.0  0.50000  0.50000  0.96326  1.0000
  Ni  Ni1       1.0  0.00923  0.24999  0.03752  1.0000
  Ni  Ni2       1.0  0.25000  0.00917  0.03751  1.0000
  Ni  Ni3       1.0  0.25001  0.24997  0.11412  1.0000
  Ni  Ni4       1.0  0.00000  0.25000  0.88978  1.0000
  Ni  Ni5       1.0  0.25000  0.00000  0.88978  1.0000
  Ni  Ni6       1.0  0.25000  0.25000  0.96326  1.0000
  Ni  Ni7       1.0  0.00054  0.75001  0.03531  1.0000
  Ni  Ni8       1.0  0.25000  0.49083  0.03751  1.0000
  Ni  Ni9       1.0  0.25000  0.75002  0.09660  1.0000
  Ni  Ni10      1.0  0.00000  0.75000  0.88978  1.0000
  Ni  Ni11      1.0  0.25000  0.50000  0.88978  1.0000
  Ni  Ni12      1.0  0.25000  0.75000  0.96326  1.0000
  Ni  Ni13      1.0  0.49077  0.24999  0.03752  1.0000
  Ni  Ni14      1.0  0.74999  0.00052  0.03530  1.0000
  Ni  Ni15      1.0  0.75000  0.24999  0.09660  1.0000
  Ni  Ni16      1.0  0.50000  0.25000  0.88978  1.0000
  Ni  Ni17      1.0  0.75000  0.00000  0.88978  1.0000
  Ni  Ni18      1.0  0.75000  0.25000  0.96326  1.0000
  Ni  Ni19      1.0  0.49946  0.75001  0.03530  1.0000
  Ni  Ni20      1.0  0.75000  0.49948  0.03530  1.0000
  Ni  Ni21      1.0  0.74999  0.75001  0.09791  1.0000
  Ni  Ni22      1.0  0.50000  0.75000  0.88978  1.0000
  Ni  Ni23      1.0  0.75000  0.50000  0.88978  1.0000
  Ni  Ni24      1.0  0.75000  0.75000  0.96326  1.0000
  C   C1        1.0  0.25000  0.24999  0.18340  1.0000
  O   O1        1.0  0.25000  0.25000  0.22860  1.0000
