# generated using pymatgen
data_In8Ni24CO
_symmetry_space_group_name_H-M   P4mm
_cell_length_a   7.54029000
_cell_length_b   7.54029000
_cell_length_c   25.65520000
_cell_angle_alpha   90.00000000
_cell_angle_beta   90.00000000
_cell_angle_gamma   90.00000000
_symmetry_Int_Tables_number   99
_chemical_formula_structural   In8Ni24CO
_chemical_formula_sum   'In8 Ni24 C1 O1'
_cell_volume   1458.65136580
_cell_formula_units_Z   1
loop_
 _symmetry_equiv_pos_site_id
 _symmetry_equiv_pos_as_xyz
  1  'x, y, z'
  2  '-y, x, z'
  3  '-x, -y, z'
  4  'y, -x, z'
  5  '-x, y, z'
  6  'y, x, z'
  7  'x, -y, z'
  8  '-y, -x, z'
loop_
 _atom_site_type_symbol
 _atom_site_label
 _atom_site_symmetry_multiplicity
 _atom_site_fract_x
 _atom_site_fract_y
 _atom_site_fract_z
 _atom_site_occupancy
  In  In0  4  0.24638500  0.24638500  0.11452000  1.0
  In  In1  4  0.25000500  0.25000500  0.96326000  1.0
  Ni  Ni2  4  0.00000000  0.25000000  0.88978000  1.0
  Ni  Ni3  4  0.00000000  0.25054000  0.03531000  1.0
  Ni  Ni4  4  0.25000000  0.50000000  0.88978000  1.0
  Ni  Ni5  4  0.25923000  0.50000000  0.03752000  1.0
  Ni  Ni6  2  0.00000000  0.50000000  0.09660000  1.0
  Ni  Ni7  2  0.00000000  0.50000000  0.96326000  1.0
  Ni  Ni8  1  0.00000000  0.00000000  0.09791000  1.0
  Ni  Ni9  1  0.00000000  0.00000000  0.96326000  1.0
  Ni  Ni10  1  0.50000000  0.50000000  0.11412000  1.0
  Ni  Ni11  1  0.50000000  0.50000000  0.96326000  1.0
  C  C12  1  0.50000000  0.50000000  0.18340000  1.0
  O  O13  1  0.50000000  0.50000000  0.22860000  1.0
