# generated using pymatgen
data_Al8V8Fe16CO
_symmetry_space_group_name_H-M   'P 1'
_cell_length_a   8.07854000
_cell_length_b   5.71239000
_cell_length_c   26.05890000
_cell_angle_alpha   90.00000000
_cell_angle_beta   90.00000000
_cell_angle_gamma   90.00000000
_symmetry_Int_Tables_number   1
_chemical_formula_structural   Al8V8Fe16CO
_chemical_formula_sum   'Al8 V8 Fe16 C1 O1'
_cell_volume   1202.56015259
_cell_formula_units_Z   1
loop_
 _symmetry_equiv_pos_site_id
 _symmetry_equiv_pos_as_xyz
  1  'x, y, z'
loop_
 _atom_site_type_symbol
 _atom_site_label
 _atom_site_symmetry_multiplicity
 _atom_site_fract_x
 _atom_site_fract_y
 _atom_site_fract_z
 _atom_site_occupancy
  Al  Al0  1  0.00000000  0.00000000  0.11625000  1.0
  Al  Al1  1  0.25000000  0.50000000  0.03875000  1.0
  Al  Al2  1  0.75000000  0.50000000  0.03875000  1.0
  Al  Al3  1  0.50000000  1.00000000  0.11625000  1.0
  Al  Al4  1  0.50000000  0.99922000  0.96126000  1.0
  Al  Al5  1  0.75509000  0.49334000  0.87686000  1.0
  Al  Al6  1  0.24491000  0.49334000  0.87686000  1.0
  Al  Al7  1  0.00000000  0.00235000  0.96136000  1.0
  V  V8  1  0.75000000  1.00000000  0.03875000  1.0
  V  V9  1  0.00000000  0.50000000  0.11625000  1.0
  V  V10  1  0.25000000  1.00000000  0.03875000  1.0
  V  V11  1  0.50000000  0.50000000  0.11625000  1.0
  V  V12  1  0.25066000  0.99700000  0.88523000  1.0
  V  V13  1  0.50000000  0.50068000  0.95983000  1.0
  V  V14  1  0.74934000  0.99700000  0.88523000  1.0
  V  V15  1  0.00000000  0.50139000  0.95955000  1.0
  Fe  Fe16  1  0.00000000  0.25000000  0.03875000  1.0
  Fe  Fe17  1  0.50000000  0.75000000  0.03875000  1.0
  Fe  Fe18  1  0.00000000  0.75000000  0.03875000  1.0
  Fe  Fe19  1  0.50000000  0.25000000  0.03875000  1.0
  Fe  Fe20  1  0.75000000  0.75000000  0.11625000  1.0
  Fe  Fe21  1  0.25000000  0.25000000  0.11625000  1.0
  Fe  Fe22  1  0.75000000  0.25000000  0.11625000  1.0
  Fe  Fe23  1  0.25000000  0.75000000  0.11625000  1.0
  Fe  Fe24  1  0.50000000  0.25294000  0.88431000  1.0
  Fe  Fe25  1  0.00000000  0.74795000  0.88419000  1.0
  Fe  Fe26  1  0.50000000  0.74074000  0.88275000  1.0
  Fe  Fe27  1  0.00000000  0.23533000  0.88126000  1.0
  Fe  Fe28  1  0.24970000  0.74913000  0.95967000  1.0
  Fe  Fe29  1  0.75052000  0.25218000  0.95992000  1.0
  Fe  Fe30  1  0.24948000  0.25218000  0.95992000  1.0
  Fe  Fe31  1  0.75030000  0.74913000  0.95967000  1.0
  C  C32  1  0.00000000  0.15828000  0.81567000  1.0
  O  O33  1  0.00000000  0.11617000  0.77170000  1.0
