# generated using pymatgen
data_Li4Cu4Ge4Pd4CO
_symmetry_space_group_name_H-M   P2
_cell_length_a   6.04231000
_cell_length_b   24.53170000
_cell_length_c   6.04231000
_cell_angle_alpha   90.00000000
_cell_angle_beta   90.00000000
_cell_angle_gamma   90.00000000
_symmetry_Int_Tables_number   3
_chemical_formula_structural   Li4Cu4Ge4Pd4CO
_chemical_formula_sum   'Li4 Cu4 Ge4 Pd4 C1 O1'
_cell_volume   895.64034981
_cell_formula_units_Z   1
loop_
 _symmetry_equiv_pos_site_id
 _symmetry_equiv_pos_as_xyz
  1  'x, y, z'
  2  '-x, y, -z'
loop_
 _atom_site_type_symbol
 _atom_site_label
 _atom_site_symmetry_multiplicity
 _atom_site_fract_x
 _atom_site_fract_y
 _atom_site_fract_z
 _atom_site_occupancy
  Li  Li0  2  0.25000000  0.90764000  0.75000000  1.0
  Li  Li1  2  0.25218000  0.03129000  0.24813000  1.0
  Cu  Cu2  1  0.00000000  0.08970000  0.00000000  1.0
  Cu  Cu3  1  0.00000000  0.96921000  0.50000000  1.0
  Cu  Cu4  1  0.50000000  0.08960000  0.50000000  1.0
  Cu  Cu5  1  0.50000000  0.96921000  0.00000000  1.0
  Ge  Ge6  2  0.25000000  0.90764000  0.25000000  1.0
  Ge  Ge7  2  0.25221000  0.03322000  0.75231000  1.0
  Pd  Pd8  1  0.00000000  0.08930000  0.50000000  1.0
  Pd  Pd9  1  0.00000000  0.96921000  0.00000000  1.0
  Pd  Pd10  1  0.50000000  0.09933000  0.00000000  1.0
  Pd  Pd11  1  0.50000000  0.96921000  0.50000000  1.0
  C  C12  1  0.50000000  0.17961000  0.00000000  1.0
  O  O13  1  0.50000000  0.22639000  0.00000000  1.0
