# generated using pymatgen
data_Mg8Pd24CO
_symmetry_space_group_name_H-M   'P 1'
_cell_length_a   8.03636000
_cell_length_b   8.03636000
_cell_length_c   26.02730000
_cell_angle_alpha   90.00000000
_cell_angle_beta   90.00000000
_cell_angle_gamma   90.00000000
_symmetry_Int_Tables_number   1
_chemical_formula_structural   Mg8Pd24CO
_chemical_formula_sum   'Mg8 Pd24 C1 O1'
_cell_volume   1680.92325143
_cell_formula_units_Z   1
loop_
 _symmetry_equiv_pos_site_id
 _symmetry_equiv_pos_as_xyz
  1  'x, y, z'
loop_
 _atom_site_type_symbol
 _atom_site_label
 _atom_site_symmetry_multiplicity
 _atom_site_fract_x
 _atom_site_fract_y
 _atom_site_fract_z
 _atom_site_occupancy
  Mg  Mg0  1  0.00000000  0.00000000  0.11579000  1.0
  Mg  Mg1  1  0.00000000  0.00000000  0.96140000  1.0
  Mg  Mg2  1  0.00000000  0.50000000  0.11579000  1.0
  Mg  Mg3  1  0.00000000  0.50000000  0.96140000  1.0
  Mg  Mg4  1  0.50000000  0.00000000  0.11579000  1.0
  Mg  Mg5  1  0.50000000  0.00000000  0.96140000  1.0
  Mg  Mg6  1  0.50000000  0.50000000  0.11579000  1.0
  Mg  Mg7  1  0.50000000  0.50000000  0.96140000  1.0
  Pd  Pd8  1  0.00000000  0.25000000  0.03860000  1.0
  Pd  Pd9  1  0.25000000  0.00000000  0.03860000  1.0
  Pd  Pd10  1  0.25000000  0.25000000  0.11579000  1.0
  Pd  Pd11  1  0.00000000  0.25000000  0.88421000  1.0
  Pd  Pd12  1  0.25000000  0.00000000  0.88421000  1.0
  Pd  Pd13  1  0.25000000  0.25000000  0.96140000  1.0
  Pd  Pd14  1  0.00000000  0.75000000  0.03860000  1.0
  Pd  Pd15  1  0.25000000  0.50000000  0.03860000  1.0
  Pd  Pd16  1  0.25000000  0.75000000  0.11579000  1.0
  Pd  Pd17  1  0.00000000  0.75000000  0.88421000  1.0
  Pd  Pd18  1  0.25000000  0.50000000  0.88421000  1.0
  Pd  Pd19  1  0.25000000  0.75000000  0.96140000  1.0
  Pd  Pd20  1  0.50000000  0.25000000  0.03860000  1.0
  Pd  Pd21  1  0.75000000  0.00000000  0.03860000  1.0
  Pd  Pd22  1  0.75000000  0.25000000  0.11579000  1.0
  Pd  Pd23  1  0.50000000  0.25000000  0.88421000  1.0
  Pd  Pd24  1  0.75000000  0.00000000  0.88421000  1.0
  Pd  Pd25  1  0.75000000  0.25000000  0.96140000  1.0
  Pd  Pd26  1  0.50000000  0.75000000  0.03860000  1.0
  Pd  Pd27  1  0.75000000  0.50000000  0.03860000  1.0
  Pd  Pd28  1  0.75000000  0.75000000  0.11579000  1.0
  Pd  Pd29  1  0.50000000  0.75000000  0.88421000  1.0
  Pd  Pd30  1  0.75000000  0.50000000  0.88421000  1.0
  Pd  Pd31  1  0.75000000  0.75000000  0.96140000  1.0
  C  C32  1  0.00000000  0.00000000  0.18879000  1.0
  O  O33  1  0.00000000  0.00000000  0.23297000  1.0
