# generated using pymatgen
data_Mg8Pd24CO
_symmetry_space_group_name_H-M   P4mm
_cell_length_a   8.03636000
_cell_length_b   8.03636000
_cell_length_c   26.02730000
_cell_angle_alpha   90.00000000
_cell_angle_beta   90.00000000
_cell_angle_gamma   90.00000000
_symmetry_Int_Tables_number   99
_chemical_formula_structural   Mg8Pd24CO
_chemical_formula_sum   'Mg8 Pd24 C1 O1'
_cell_volume   1680.92325143
_cell_formula_units_Z   1
loop_
 _symmetry_equiv_pos_site_id
 _symmetry_equiv_pos_as_xyz
  1  'x, y, z'
  2  '-y, x, z'
  3  '-x, -y, z'
  4  'y, -x, z'
  5  '-x, y, z'
  6  'y, x, z'
  7  'x, -y, z'
  8  '-y, -x, z'
loop_
 _atom_site_type_symbol
 _atom_site_label
 _atom_site_symmetry_multiplicity
 _atom_site_fract_x
 _atom_site_fract_y
 _atom_site_fract_z
 _atom_site_occupancy
  Mg  Mg0  2  0.00000000  0.50000000  0.11579000  1.0
  Mg  Mg1  2  0.00000000  0.50000000  0.96140000  1.0
  Mg  Mg2  1  0.00000000  0.00000000  0.11579000  1.0
  Mg  Mg3  1  0.00000000  0.00000000  0.96140000  1.0
  Mg  Mg4  1  0.50000000  0.50000000  0.11579000  1.0
  Mg  Mg5  1  0.50000000  0.50000000  0.96140000  1.0
  Pd  Pd6  4  0.00000000  0.25000000  0.03860000  1.0
  Pd  Pd7  4  0.00000000  0.25000000  0.88421000  1.0
  Pd  Pd8  4  0.25000000  0.25000000  0.11579000  1.0
  Pd  Pd9  4  0.25000000  0.25000000  0.96140000  1.0
  Pd  Pd10  4  0.25000000  0.50000000  0.03860000  1.0
  Pd  Pd11  4  0.25000000  0.50000000  0.88421000  1.0
  C  C12  1  0.00000000  0.00000000  0.18879000  1.0
  O  O13  1  0.00000000  0.00000000  0.23297000  1.0
