data_image0
_chemical_formula_structural       Sc3InSc3InSc3InSc3InSc3InSc3InSc3InSc3InC
_chemical_formula_sum              "Sc24 In8 C1"
_cell_length_a       9.0581
_cell_length_b       9.0581
_cell_length_c       26.7936
_cell_angle_alpha    90
_cell_angle_beta     90
_cell_angle_gamma    90

_space_group_name_H-M_alt    "P 1"
_space_group_IT_number       1

loop_
  _space_group_symop_operation_xyz
  'x, y, z'

loop_
  _atom_site_type_symbol
  _atom_site_label
  _atom_site_symmetry_multiplicity
  _atom_site_fract_x
  _atom_site_fract_y
  _atom_site_fract_z
  _atom_site_occupancy
  Sc  Sc1       1.0  0.00000  0.25000  0.95774  1.0000
  Sc  Sc2       1.0  0.25000  0.00000  0.95774  1.0000
  Sc  Sc3       1.0  0.25000  0.25000  0.87322  1.0000
  In  In1       1.0  0.00000  0.00000  0.87322  1.0000
  Sc  Sc4       1.0  0.00000  0.25000  0.12678  1.0000
  Sc  Sc5       1.0  0.25000  0.00000  0.12678  1.0000
  Sc  Sc6       1.0  0.25000  0.25000  0.04226  1.0000
  In  In2       1.0  0.00000  0.00000  0.04226  1.0000
  Sc  Sc7       1.0  0.00000  0.75000  0.95774  1.0000
  Sc  Sc8       1.0  0.25000  0.50000  0.95774  1.0000
  Sc  Sc9       1.0  0.25000  0.75000  0.87322  1.0000
  In  In3       1.0  0.00000  0.50000  0.87322  1.0000
  Sc  Sc10      1.0  0.00000  0.75000  0.12678  1.0000
  Sc  Sc11      1.0  0.25000  0.50000  0.12678  1.0000
  Sc  Sc12      1.0  0.25000  0.75000  0.04226  1.0000
  In  In4       1.0  0.00000  0.50000  0.04226  1.0000
  Sc  Sc13      1.0  0.50000  0.25000  0.95774  1.0000
  Sc  Sc14      1.0  0.75000  0.00000  0.95774  1.0000
  Sc  Sc15      1.0  0.75000  0.25000  0.87322  1.0000
  In  In5       1.0  0.50000  0.00000  0.87322  1.0000
  Sc  Sc16      1.0  0.50000  0.25000  0.12678  1.0000
  Sc  Sc17      1.0  0.75000  0.00000  0.12678  1.0000
  Sc  Sc18      1.0  0.75000  0.25000  0.04226  1.0000
  In  In6       1.0  0.50000  0.00000  0.04226  1.0000
  Sc  Sc19      1.0  0.50000  0.75000  0.95774  1.0000
  Sc  Sc20      1.0  0.75000  0.50000  0.95774  1.0000
  Sc  Sc21      1.0  0.75000  0.75000  0.87322  1.0000
  In  In7       1.0  0.50000  0.50000  0.87322  1.0000
  Sc  Sc22      1.0  0.50000  0.75000  0.12678  1.0000
  Sc  Sc23      1.0  0.75000  0.50000  0.12678  1.0000
  Sc  Sc24      1.0  0.75000  0.75000  0.04226  1.0000
  In  In8       1.0  0.50000  0.50000  0.04226  1.0000
  C   C1        1.0  0.25000  0.25000  0.15663  1.0000
