# generated using pymatgen
data_Sc8Al8Ga8Pd8CO
_symmetry_space_group_name_H-M   P1
_cell_length_a   6.45143000
_cell_length_b   9.12370000
_cell_length_c   26.84280000
_cell_angle_alpha   90.00000000
_cell_angle_beta   90.00000000
_cell_angle_gamma   90.00000000
_symmetry_Int_Tables_number   1
_chemical_formula_structural   Sc8Al8Ga8Pd8CO
_chemical_formula_sum   'Sc8 Al8 Ga8 Pd8 C1 O1'
_cell_volume   1579.99168571
_cell_formula_units_Z   1
loop_
 _symmetry_equiv_pos_site_id
 _symmetry_equiv_pos_as_xyz
  1  'x, y, z'
loop_
 _atom_site_type_symbol
 _atom_site_label
 _atom_site_symmetry_multiplicity
 _atom_site_fract_x
 _atom_site_fract_y
 _atom_site_fract_z
 _atom_site_occupancy
  Sc  Sc0  1  -0.00000000  0.25000000  0.95751000  1.0
  Sc  Sc1  1  -0.00000000  0.75000000  0.95751000  1.0
  Sc  Sc2  1  0.50000000  0.00000000  0.87254000  1.0
  Sc  Sc3  1  0.50000000  0.50000000  0.87254000  1.0
  Sc  Sc4  1  0.50393000  0.00161000  0.04314000  1.0
  Sc  Sc5  1  0.50425000  0.49830000  0.04316000  1.0
  Sc  Sc6  1  0.98060000  0.24995000  0.13086000  1.0
  Sc  Sc7  1  0.98281000  0.74991000  0.12936000  1.0
  Al  Al8  1  0.00000000  0.00000000  0.87254000  1.0
  Al  Al9  1  0.00000000  0.50000000  0.87254000  1.0
  Al  Al10  1  0.49339000  0.75017000  0.12557000  1.0
  Al  Al11  1  0.50000000  0.25000000  0.95751000  1.0
  Al  Al12  1  0.50000000  0.75000000  0.95751000  1.0
  Al  Al13  1  0.51042000  0.24991000  0.12396000  1.0
  Al  Al14  1  0.98791000  0.99832000  0.04551000  1.0
  Al  Al15  1  0.98803000  0.50186000  0.04555000  1.0
  Ga  Ga16  1  0.23382000  0.25036000  0.04508000  1.0
  Ga  Ga17  1  0.24560000  0.75012000  0.04288000  1.0
  Ga  Ga18  1  0.25000000  0.25000000  0.87254000  1.0
  Ga  Ga19  1  0.25000000  0.75000000  0.87254000  1.0
  Ga  Ga20  1  0.71812000  0.50405000  0.14496000  1.0
  Ga  Ga21  1  0.71838000  0.99568000  0.14480000  1.0
  Ga  Ga22  1  0.75000000  0.00000000  0.95751000  1.0
  Ga  Ga23  1  0.75000000  0.50000000  0.95751000  1.0
  Pd  Pd24  1  0.25000000  0.00000000  0.95751000  1.0
  Pd  Pd25  1  0.25000000  0.50000000  0.95751000  1.0
  Pd  Pd26  1  0.25232000  0.99494000  0.11967000  1.0
  Pd  Pd27  1  0.25249000  0.50495000  0.11969000  1.0
  Pd  Pd28  1  0.75000000  0.25000000  0.87254000  1.0
  Pd  Pd29  1  0.75000000  0.75000000  0.87254000  1.0
  Pd  Pd30  1  0.75316000  0.75028000  0.04215000  1.0
  Pd  Pd31  1  0.76282000  0.25006000  0.04065000  1.0
  C  C32  1  0.33082000  0.24996000  0.18415000  1.0
  O  O33  1  0.24280000  0.25007000  0.22271000  1.0
