data_image0
_chemical_formula_structural       Al16Pd16CO
_chemical_formula_sum              "Al16 Pd16 C1 O1"
_cell_length_a       6.18271
_cell_length_b       8.74368
_cell_length_c       26.5578
_cell_angle_alpha    90
_cell_angle_beta     90
_cell_angle_gamma    90

_space_group_name_H-M_alt    "P 1"
_space_group_IT_number       1

loop_
  _space_group_symop_operation_xyz
  'x, y, z'

loop_
  _atom_site_type_symbol
  _atom_site_label
  _atom_site_symmetry_multiplicity
  _atom_site_fract_x
  _atom_site_fract_y
  _atom_site_fract_z
  _atom_site_occupancy
  Al  Al1       1.0  0.00000  0.00000  0.87654  1.0000
  Al  Al2       1.0  0.00000  0.25000  0.95885  1.0000
  Al  Al3       1.0  0.00422  1.00000  0.04301  1.0000
  Al  Al4       1.0  0.99281  0.25460  0.12281  1.0000
  Al  Al5       1.0  0.00000  0.50000  0.87654  1.0000
  Al  Al6       1.0  0.00000  0.75000  0.95885  1.0000
  Al  Al7       1.0  0.00178  0.50000  0.04158  1.0000
  Al  Al8       1.0  0.99281  0.74540  0.12281  1.0000
  Al  Al9       1.0  0.50000  0.00000  0.87654  1.0000
  Al  Al10      1.0  0.50000  0.25000  0.95885  1.0000
  Al  Al11      1.0  0.49574  0.00000  0.04303  1.0000
  Al  Al12      1.0  0.50725  0.25449  0.12287  1.0000
  Al  Al13      1.0  0.50000  0.50000  0.87654  1.0000
  Al  Al14      1.0  0.50000  0.75000  0.95885  1.0000
  Al  Al15      1.0  0.49833  0.50000  0.04158  1.0000
  Al  Al16      1.0  0.50725  0.74551  0.12287  1.0000
  Pd  Pd1       1.0  0.25000  0.25000  0.87654  1.0000
  Pd  Pd2       1.0  0.25000  0.00000  0.95885  1.0000
  Pd  Pd3       1.0  0.25006  0.24498  0.04086  1.0000
  Pd  Pd4       1.0  0.24983  0.00000  0.13083  1.0000
  Pd  Pd5       1.0  0.25000  0.75000  0.87654  1.0000
  Pd  Pd6       1.0  0.25000  0.50000  0.95885  1.0000
  Pd  Pd7       1.0  0.25006  0.75502  0.04086  1.0000
  Pd  Pd8       1.0  0.25014  0.50000  0.12027  1.0000
  Pd  Pd9       1.0  0.75000  0.25000  0.87654  1.0000
  Pd  Pd10      1.0  0.75000  0.00000  0.95885  1.0000
  Pd  Pd11      1.0  0.75000  0.24979  0.03721  1.0000
  Pd  Pd12      1.0  0.74987  0.00000  0.11844  1.0000
  Pd  Pd13      1.0  0.75000  0.75000  0.87654  1.0000
  Pd  Pd14      1.0  0.75000  0.50000  0.95885  1.0000
  Pd  Pd15      1.0  0.75000  0.75021  0.03721  1.0000
  Pd  Pd16      1.0  0.75003  0.50000  0.11997  1.0000
  C   C1        1.0  0.24815  1.00000  0.20589  1.0000
  O   O1        1.0  0.24766  1.00000  0.24908  1.0000
