# generated using pymatgen
data_Al16Pd16CO
_symmetry_space_group_name_H-M   Pm
_cell_length_a   6.18271000
_cell_length_b   8.74368000
_cell_length_c   26.55780000
_cell_angle_alpha   90.00000000
_cell_angle_beta   90.00000000
_cell_angle_gamma   90.00000000
_symmetry_Int_Tables_number   6
_chemical_formula_structural   Al16Pd16CO
_chemical_formula_sum   'Al16 Pd16 C1 O1'
_cell_volume   1435.70504804
_cell_formula_units_Z   1
loop_
 _symmetry_equiv_pos_site_id
 _symmetry_equiv_pos_as_xyz
  1  'x, y, z'
  2  'x, -y, z'
loop_
 _atom_site_type_symbol
 _atom_site_label
 _atom_site_symmetry_multiplicity
 _atom_site_fract_x
 _atom_site_fract_y
 _atom_site_fract_z
 _atom_site_occupancy
  Al  Al0  2  0.00000000  0.25000000  0.95885000  1.0
  Al  Al1  2  0.50000000  0.25000000  0.95885000  1.0
  Al  Al2  2  0.50725000  0.25449000  0.12287000  1.0
  Al  Al3  2  0.99281000  0.25460000  0.12281000  1.0
  Al  Al4  1  0.00000000  0.00000000  0.87654000  1.0
  Al  Al5  1  0.00000000  0.50000000  0.87654000  1.0
  Al  Al6  1  0.00178000  0.50000000  0.04158000  1.0
  Al  Al7  1  0.00422000  0.00000000  0.04301000  1.0
  Al  Al8  1  0.49574000  0.00000000  0.04303000  1.0
  Al  Al9  1  0.49833000  0.50000000  0.04158000  1.0
  Al  Al10  1  0.50000000  0.00000000  0.87654000  1.0
  Al  Al11  1  0.50000000  0.50000000  0.87654000  1.0
  Pd  Pd12  2  0.25000000  0.25000000  0.87654000  1.0
  Pd  Pd13  2  0.25006000  0.24498000  0.04086000  1.0
  Pd  Pd14  2  0.75000000  0.24979000  0.03721000  1.0
  Pd  Pd15  2  0.75000000  0.25000000  0.87654000  1.0
  Pd  Pd16  1  0.24983000  0.00000000  0.13083000  1.0
  Pd  Pd17  1  0.25000000  0.00000000  0.95885000  1.0
  Pd  Pd18  1  0.25000000  0.50000000  0.95885000  1.0
  Pd  Pd19  1  0.25014000  0.50000000  0.12027000  1.0
  Pd  Pd20  1  0.74987000  0.00000000  0.11844000  1.0
  Pd  Pd21  1  0.75000000  0.00000000  0.95885000  1.0
  Pd  Pd22  1  0.75000000  0.50000000  0.95885000  1.0
  Pd  Pd23  1  0.75003000  0.50000000  0.11997000  1.0
  C  C24  1  0.24815000  0.00000000  0.20589000  1.0
  O  O25  1  0.24766000  0.00000000  0.24908000  1.0
