# generated using pymatgen
data_Sc4Rh12CO
_symmetry_space_group_name_H-M   Pmm2
_cell_length_a   5.57908000
_cell_length_b   7.89001000
_cell_length_c   24.18430000
_cell_angle_alpha   90.00000000
_cell_angle_beta   90.00000000
_cell_angle_gamma   90.00000000
_symmetry_Int_Tables_number   25
_chemical_formula_structural   Sc4Rh12CO
_chemical_formula_sum   'Sc4 Rh12 C1 O1'
_cell_volume   1064.56862892
_cell_formula_units_Z   1
loop_
 _symmetry_equiv_pos_site_id
 _symmetry_equiv_pos_as_xyz
  1  'x, y, z'
  2  '-x, -y, z'
  3  '-x, y, z'
  4  'x, -y, z'
loop_
 _atom_site_type_symbol
 _atom_site_label
 _atom_site_symmetry_multiplicity
 _atom_site_fract_x
 _atom_site_fract_y
 _atom_site_fract_z
 _atom_site_occupancy
  Sc  Sc0  1  0.00000000  0.00000000  0.92031000  1.0
  Sc  Sc1  1  0.00000000  0.50000000  0.92150000  1.0
  Sc  Sc2  1  0.50000000  0.00000000  0.02884000  1.0
  Sc  Sc3  1  0.50000000  0.50000000  0.02884000  1.0
  Rh  Rh4  4  0.25000000  0.25000000  0.08651000  1.0
  Rh  Rh5  4  0.25665000  0.24972000  0.97314000  1.0
  Rh  Rh6  1  0.00000000  0.00000000  0.02884000  1.0
  Rh  Rh7  1  0.00000000  0.50000000  0.02884000  1.0
  Rh  Rh8  1  0.50000000  0.00000000  0.91773000  1.0
  Rh  Rh9  1  0.50000000  0.50000000  0.91854000  1.0
  C  C10  1  0.00000000  0.00000000  0.82026000  1.0
  O  O11  1  0.00000000  0.00000000  0.77301000  1.0
