# generated using pymatgen
data_Ag24Pt8C
_symmetry_space_group_name_H-M   Pmm2
_cell_length_a   8.32195000
_cell_length_b   8.32195000
_cell_length_c   26.24150000
_cell_angle_alpha   90.00000000
_cell_angle_beta   90.00000000
_cell_angle_gamma   90.00000000
_symmetry_Int_Tables_number   25
_chemical_formula_structural   Ag24Pt8C
_chemical_formula_sum   'Ag24 Pt8 C1'
_cell_volume   1817.35119358
_cell_formula_units_Z   1
loop_
 _symmetry_equiv_pos_site_id
 _symmetry_equiv_pos_as_xyz
  1  'x, y, z'
  2  '-x, -y, z'
  3  '-x, y, z'
  4  'x, -y, z'
loop_
 _atom_site_type_symbol
 _atom_site_label
 _atom_site_symmetry_multiplicity
 _atom_site_fract_x
 _atom_site_fract_y
 _atom_site_fract_z
 _atom_site_occupancy
  Ag  Ag0  4  0.25000000  0.25000000  0.03964000  1.0
  Ag  Ag1  4  0.25000000  0.25000000  0.88108000  1.0
  Ag  Ag2  2  0.00000000  0.25000000  0.11892000  1.0
  Ag  Ag3  2  0.00000000  0.25000000  0.96036000  1.0
  Ag  Ag4  2  0.50000000  0.25000000  0.11892000  1.0
  Ag  Ag5  2  0.50000000  0.25000000  0.96036000  1.0
  Ag  Ag6  1  0.00000000  0.00000000  0.03964000  1.0
  Ag  Ag7  1  0.00000000  0.00000000  0.88108000  1.0
  Ag  Ag8  1  0.00000000  0.50000000  0.03964000  1.0
  Ag  Ag9  1  0.00000000  0.50000000  0.88108000  1.0
  Ag  Ag10  1  0.50000000  0.00000000  0.03964000  1.0
  Ag  Ag11  1  0.50000000  0.00000000  0.88108000  1.0
  Ag  Ag12  1  0.50000000  0.50000000  0.03964000  1.0
  Ag  Ag13  1  0.50000000  0.50000000  0.88108000  1.0
  Pt  Pt14  2  0.25000000  0.00000000  0.11892000  1.0
  Pt  Pt15  2  0.25000000  0.00000000  0.96036000  1.0
  Pt  Pt16  2  0.25000000  0.50000000  0.11892000  1.0
  Pt  Pt17  2  0.25000000  0.50000000  0.96036000  1.0
  C  C18  1  0.00000000  0.00000000  0.14941000  1.0
