# generated using pymatgen
data_Y8Sc8Ga8Pd8C
_symmetry_space_group_name_H-M   'P 1'
_cell_length_a   9.85606000
_cell_length_b   7.06732000
_cell_length_c   27.11150000
_cell_angle_alpha   90.00000000
_cell_angle_beta   90.00000000
_cell_angle_gamma   90.00000000
_symmetry_Int_Tables_number   1
_chemical_formula_structural   Y8Sc8Ga8Pd8C
_chemical_formula_sum   'Y8 Sc8 Ga8 Pd8 C1'
_cell_volume   1888.47674509
_cell_formula_units_Z   1
loop_
 _symmetry_equiv_pos_site_id
 _symmetry_equiv_pos_as_xyz
  1  'x, y, z'
loop_
 _atom_site_type_symbol
 _atom_site_label
 _atom_site_symmetry_multiplicity
 _atom_site_fract_x
 _atom_site_fract_y
 _atom_site_fract_z
 _atom_site_occupancy
  Y  Y0  1  0.25001000  0.30066000  0.85910000  1.0
  Y  Y1  1  0.25000000  0.24999000  0.04372000  1.0
  Y  Y2  1  0.25001000  0.69934000  0.85910000  1.0
  Y  Y3  1  0.25000000  0.75001000  0.04372000  1.0
  Y  Y4  1  0.75000000  0.23861000  0.86582000  1.0
  Y  Y5  1  0.75000000  0.24999000  0.04372000  1.0
  Y  Y6  1  0.75000000  0.76139000  0.86582000  1.0
  Y  Y7  1  0.75000000  0.75001000  0.04372000  1.0
  Sc  Sc8  1  0.00384000  0.25097000  0.95587000  1.0
  Sc  Sc9  1  1.00000000  0.24999000  0.13115000  1.0
  Sc  Sc10  1  0.00384000  0.74903000  0.95587000  1.0
  Sc  Sc11  1  1.00000000  0.75001000  0.13115000  1.0
  Sc  Sc12  1  0.49618000  0.25096000  0.95587000  1.0
  Sc  Sc13  1  0.50000000  0.24999000  0.13115000  1.0
  Sc  Sc14  1  0.49618000  0.74904000  0.95587000  1.0
  Sc  Sc15  1  0.50000000  0.75001000  0.13115000  1.0
  Ga  Ga16  1  0.02845000  0.00000000  0.86583000  1.0
  Ga  Ga17  1  0.00000000  0.00000000  0.04372000  1.0
  Ga  Ga18  1  0.98305000  0.50000000  0.86810000  1.0
  Ga  Ga19  1  0.00000000  0.50000000  0.04372000  1.0
  Ga  Ga20  1  0.47159000  0.00000000  0.86583000  1.0
  Ga  Ga21  1  0.50000000  0.00000000  0.04372000  1.0
  Ga  Ga22  1  0.51697000  0.50000000  0.86810000  1.0
  Ga  Ga23  1  0.50000000  0.50000000  0.04372000  1.0
  Pd  Pd24  1  0.25000000  0.00000000  0.94114000  1.0
  Pd  Pd25  1  0.25000000  0.00000000  0.13115000  1.0
  Pd  Pd26  1  0.25002000  0.50000000  0.95840000  1.0
  Pd  Pd27  1  0.25000000  0.50000000  0.13115000  1.0
  Pd  Pd28  1  0.75001000  0.00000000  0.95787000  1.0
  Pd  Pd29  1  0.75000000  0.00000000  0.13115000  1.0
  Pd  Pd30  1  0.75003000  0.50000000  0.94841000  1.0
  Pd  Pd31  1  0.75000000  0.50000000  0.13115000  1.0
  C  C32  1  0.25005000  0.00000000  0.85587000  1.0
