# generated using pymatgen
data_Y8Sc8Ga8Pd8C
_symmetry_space_group_name_H-M   Pm
_cell_length_a   9.85606000
_cell_length_b   7.06732000
_cell_length_c   27.11150000
_cell_angle_alpha   90.00000000
_cell_angle_beta   90.00000000
_cell_angle_gamma   90.00000000
_symmetry_Int_Tables_number   6
_chemical_formula_structural   Y8Sc8Ga8Pd8C
_chemical_formula_sum   'Y8 Sc8 Ga8 Pd8 C1'
_cell_volume   1888.47674509
_cell_formula_units_Z   1
loop_
 _symmetry_equiv_pos_site_id
 _symmetry_equiv_pos_as_xyz
  1  'x, y, z'
  2  '-x+1/2, -y, z'
  3  'x, -y, z'
  4  '-x+1/2, y, z'
loop_
 _atom_site_type_symbol
 _atom_site_label
 _atom_site_symmetry_multiplicity
 _atom_site_fract_x
 _atom_site_fract_y
 _atom_site_fract_z
 _atom_site_occupancy
  Y  Y0  2  0.25000000  0.24999000  0.95628000  1.0
  Y  Y1  2  0.25001000  0.30066000  0.14090000  1.0
  Y  Y2  2  0.75000000  0.23861000  0.13418000  1.0
  Y  Y3  2  0.75000000  0.24999000  0.95628000  1.0
  Sc  Sc4  4  -0.00000000  0.24999000  0.86885000  1.0
  Sc  Sc5  4  0.00384000  0.25097000  0.04413000  1.0
  Ga  Ga6  2  0.00000000  0.00000000  0.95628000  1.0
  Ga  Ga7  2  0.00000000  0.50000000  0.95628000  1.0
  Ga  Ga8  2  0.02845000  0.00000000  0.13417000  1.0
  Ga  Ga9  2  0.51697000  0.50000000  0.13190000  1.0
  Pd  Pd10  1  0.25000000  0.00000000  0.05886000  1.0
  Pd  Pd11  1  0.25000000  0.00000000  0.86885000  1.0
  Pd  Pd12  1  0.25000000  0.50000000  0.86885000  1.0
  Pd  Pd13  1  0.25002000  0.50000000  0.04160000  1.0
  Pd  Pd14  1  0.75000000  0.00000000  0.86885000  1.0
  Pd  Pd15  1  0.75000000  0.50000000  0.86885000  1.0
  Pd  Pd16  1  0.75001000  0.00000000  0.04213000  1.0
  Pd  Pd17  1  0.75003000  0.50000000  0.05159000  1.0
  C  C18  1  0.25005000  0.00000000  0.14413000  1.0
