data_image0
_chemical_formula_structural       Li16Ag8Sn8CO
_chemical_formula_sum              "Li16 Ag8 Sn8 C1 O1"
_cell_length_a       6.6596
_cell_length_b       9.41809
_cell_length_c       27.0636
_cell_angle_alpha    90
_cell_angle_beta     90
_cell_angle_gamma    90

_space_group_name_H-M_alt    "P 1"
_space_group_IT_number       1

loop_
  _space_group_symop_operation_xyz
  'x, y, z'

loop_
  _atom_site_type_symbol
  _atom_site_label
  _atom_site_symmetry_multiplicity
  _atom_site_fract_x
  _atom_site_fract_y
  _atom_site_fract_z
  _atom_site_occupancy
  Li  Li1       1.0  0.00000  0.75000  0.95650  1.0000
  Li  Li2       1.0  0.50000  0.00000  0.86950  1.0000
  Li  Li3       1.0  0.00000  0.25000  0.95650  1.0000
  Li  Li4       1.0  0.50000  0.50000  0.86950  1.0000
  Li  Li5       1.0  0.25000  0.00000  0.95650  1.0000
  Li  Li6       1.0  0.25000  0.50000  0.95650  1.0000
  Li  Li7       1.0  0.75000  0.75000  0.86950  1.0000
  Li  Li8       1.0  0.75000  0.25000  0.86950  1.0000
  Li  Li9       1.0  0.98480  0.25389  0.12609  1.0000
  Li  Li10      1.0  0.48909  0.50000  0.03912  1.0000
  Li  Li11      1.0  0.98483  0.74611  0.12609  1.0000
  Li  Li12      1.0  0.49979  0.00000  0.04197  1.0000
  Li  Li13      1.0  0.26713  0.50000  0.13353  1.0000
  Li  Li14      1.0  0.26618  0.00001  0.13032  1.0000
  Li  Li15      1.0  0.73765  0.24847  0.04657  1.0000
  Li  Li16      1.0  0.73764  0.75153  0.04658  1.0000
  Ag  Ag1       1.0  0.25000  0.25000  0.86950  1.0000
  Ag  Ag2       1.0  0.25000  0.75000  0.86950  1.0000
  Ag  Ag3       1.0  0.75000  0.50000  0.95650  1.0000
  Ag  Ag4       1.0  0.75000  0.00000  0.95650  1.0000
  Ag  Ag5       1.0  0.25623  0.75260  0.04511  1.0000
  Ag  Ag6       1.0  0.25623  0.24740  0.04511  1.0000
  Ag  Ag7       1.0  0.72366  0.00000  0.12799  1.0000
  Ag  Ag8       1.0  0.71638  0.50000  0.12122  1.0000
  Sn  Sn1       1.0  0.00000  0.00000  0.86950  1.0000
  Sn  Sn2       1.0  0.50000  0.25000  0.95650  1.0000
  Sn  Sn3       1.0  0.50000  0.75000  0.95650  1.0000
  Sn  Sn4       1.0  0.00000  0.50000  0.86950  1.0000
  Sn  Sn5       1.0  0.00558  0.50000  0.04559  1.0000
  Sn  Sn6       1.0  0.48397  0.74852  0.13674  1.0000
  Sn  Sn7       1.0  0.48397  0.25148  0.13674  1.0000
  Sn  Sn8       1.0  0.99993  0.00000  0.04568  1.0000
  C   C1        1.0  0.83267  0.99999  0.21060  1.0000
  O   O1        1.0  0.78373  0.00001  0.25114  1.0000
