# generated using pymatgen
data_Y8Cu8Ge8Pd8C
_symmetry_space_group_name_H-M   'P 1'
_cell_length_a   6.58158000
_cell_length_b   9.30776000
_cell_length_c   26.98080000
_cell_angle_alpha   90.00000000
_cell_angle_beta   90.00000000
_cell_angle_gamma   90.00000000
_symmetry_Int_Tables_number   1
_chemical_formula_structural   Y8Cu8Ge8Pd8C
_chemical_formula_sum   'Y8 Cu8 Ge8 Pd8 C1'
_cell_volume   1652.83752311
_cell_formula_units_Z   1
loop_
 _symmetry_equiv_pos_site_id
 _symmetry_equiv_pos_as_xyz
  1  'x, y, z'
loop_
 _atom_site_type_symbol
 _atom_site_label
 _atom_site_symmetry_multiplicity
 _atom_site_fract_x
 _atom_site_fract_y
 _atom_site_fract_z
 _atom_site_occupancy
  Y  Y0  1  0.25000000  0.00000000  0.95688000  1.0
  Y  Y1  1  0.25000000  0.50000000  0.95688000  1.0
  Y  Y2  1  0.75000000  0.75000000  0.87063000  1.0
  Y  Y3  1  0.75000000  0.25000000  0.87063000  1.0
  Y  Y4  1  0.30515000  0.50984000  0.12787000  1.0
  Y  Y5  1  0.24908000  0.01254000  0.14160000  1.0
  Y  Y6  1  0.72880000  0.26112000  0.04680000  1.0
  Y  Y7  1  0.75609000  0.80708000  0.04767000  1.0
  Cu  Cu8  1  0.00000000  0.00000000  0.87063000  1.0
  Cu  Cu9  1  0.00000000  0.50000000  0.87063000  1.0
  Cu  Cu10  1  0.50000000  0.25000000  0.95688000  1.0
  Cu  Cu11  1  0.50000000  0.75000000  0.95688000  1.0
  Cu  Cu12  1  0.97423000  0.53094000  0.04531000  1.0
  Cu  Cu13  1  0.04106000  0.06178000  0.04637000  1.0
  Cu  Cu14  1  0.59602000  0.75115000  0.15255000  1.0
  Cu  Cu15  1  0.62899000  0.27164000  0.15283000  1.0
  Ge  Ge16  1  0.75000000  0.00000000  0.95688000  1.0
  Ge  Ge17  1  0.75000000  0.50000000  0.95688000  1.0
  Ge  Ge18  1  0.25000000  0.75000000  0.87063000  1.0
  Ge  Ge19  1  0.25000000  0.25000000  0.87063000  1.0
  Ge  Ge20  1  0.76674000  0.51469000  0.12794000  1.0
  Ge  Ge21  1  0.68722000  0.01123000  0.13822000  1.0
  Ge  Ge22  1  0.24951000  0.28370000  0.04227000  1.0
  Ge  Ge23  1  0.25631000  0.75212000  0.04265000  1.0
  Pd  Pd24  1  0.00000000  0.75000000  0.95688000  1.0
  Pd  Pd25  1  0.00000000  0.25000000  0.95688000  1.0
  Pd  Pd26  1  0.50000000  0.50000000  0.87063000  1.0
  Pd  Pd27  1  0.50000000  0.00000000  0.87063000  1.0
  Pd  Pd28  1  0.02859000  0.28277000  0.12451000  1.0
  Pd  Pd29  1  0.01407000  0.73527000  0.12862000  1.0
  Pd  Pd30  1  0.44814000  0.02242000  0.04867000  1.0
  Pd  Pd31  1  0.53371000  0.54195000  0.03930000  1.0
  C  C32  1  0.94286000  0.96419000  0.10659000  1.0
