# generated using pymatgen
data_Y8Cu8Ge8Pd8C
_symmetry_space_group_name_H-M   P1
_cell_length_a   6.58158000
_cell_length_b   9.30776000
_cell_length_c   26.98080000
_cell_angle_alpha   90.00000000
_cell_angle_beta   90.00000000
_cell_angle_gamma   90.00000000
_symmetry_Int_Tables_number   1
_chemical_formula_structural   Y8Cu8Ge8Pd8C
_chemical_formula_sum   'Y8 Cu8 Ge8 Pd8 C1'
_cell_volume   1652.83752311
_cell_formula_units_Z   1
loop_
 _symmetry_equiv_pos_site_id
 _symmetry_equiv_pos_as_xyz
  1  'x, y, z'
loop_
 _atom_site_type_symbol
 _atom_site_label
 _atom_site_symmetry_multiplicity
 _atom_site_fract_x
 _atom_site_fract_y
 _atom_site_fract_z
 _atom_site_occupancy
  Y  Y0  1  0.24391000  0.19292000  0.04767000  1.0
  Y  Y1  1  0.25000000  0.25000000  0.87063000  1.0
  Y  Y2  1  0.25000000  0.75000000  0.87063000  1.0
  Y  Y3  1  0.27120000  0.73888000  0.04680000  1.0
  Y  Y4  1  0.69485000  0.49016000  0.12787000  1.0
  Y  Y5  1  0.75000000  0.00000000  0.95688000  1.0
  Y  Y6  1  0.75000000  0.50000000  0.95688000  1.0
  Y  Y7  1  0.75092000  0.98746000  0.14160000  1.0
  Cu  Cu8  1  0.00000000  0.00000000  0.87063000  1.0
  Cu  Cu9  1  0.00000000  0.50000000  0.87063000  1.0
  Cu  Cu10  1  0.02577000  0.46906000  0.04531000  1.0
  Cu  Cu11  1  0.37101000  0.72836000  0.15283000  1.0
  Cu  Cu12  1  0.40398000  0.24885000  0.15255000  1.0
  Cu  Cu13  1  0.50000000  0.25000000  0.95688000  1.0
  Cu  Cu14  1  0.50000000  0.75000000  0.95688000  1.0
  Cu  Cu15  1  0.95894000  0.93822000  0.04637000  1.0
  Ge  Ge16  1  0.23326000  0.48531000  0.12794000  1.0
  Ge  Ge17  1  0.25000000  0.00000000  0.95688000  1.0
  Ge  Ge18  1  0.25000000  0.50000000  0.95688000  1.0
  Ge  Ge19  1  0.31278000  0.98877000  0.13822000  1.0
  Ge  Ge20  1  0.74369000  0.24788000  0.04265000  1.0
  Ge  Ge21  1  0.75000000  0.25000000  0.87063000  1.0
  Ge  Ge22  1  0.75000000  0.75000000  0.87063000  1.0
  Ge  Ge23  1  0.75049000  0.71630000  0.04227000  1.0
  Pd  Pd24  1  -0.00000000  0.25000000  0.95688000  1.0
  Pd  Pd25  1  -0.00000000  0.75000000  0.95688000  1.0
  Pd  Pd26  1  0.46629000  0.45805000  0.03930000  1.0
  Pd  Pd27  1  0.50000000  0.00000000  0.87063000  1.0
  Pd  Pd28  1  0.50000000  0.50000000  0.87063000  1.0
  Pd  Pd29  1  0.55186000  0.97758000  0.04867000  1.0
  Pd  Pd30  1  0.97141000  0.71723000  0.12451000  1.0
  Pd  Pd31  1  0.98593000  0.26473000  0.12862000  1.0
  C  C32  1  0.05714000  0.03581000  0.10659000  1.0
