# generated using pymatgen
data_Li4Y4In4Ge4C
_symmetry_space_group_name_H-M   'P 1'
_cell_length_a   8.57642000
_cell_length_b   6.30439000
_cell_length_c   24.70800000
_cell_angle_alpha   90.00000000
_cell_angle_beta   90.00000000
_cell_angle_gamma   90.00000000
_symmetry_Int_Tables_number   1
_chemical_formula_structural   Li4Y4In4Ge4C
_chemical_formula_sum   'Li4 Y4 In4 Ge4 C1'
_cell_volume   1335.93923592
_cell_formula_units_Z   1
loop_
 _symmetry_equiv_pos_site_id
 _symmetry_equiv_pos_as_xyz
  1  'x, y, z'
loop_
 _atom_site_type_symbol
 _atom_site_label
 _atom_site_symmetry_multiplicity
 _atom_site_fract_x
 _atom_site_fract_y
 _atom_site_fract_z
 _atom_site_occupancy
  Li  Li0  1  0.25000000  0.72689000  0.03176000  1.0
  Li  Li1  1  0.16109000  0.15177000  0.90035000  1.0
  Li  Li2  1  0.75000000  0.72689000  0.03176000  1.0
  Li  Li3  1  0.83891000  0.15177000  0.90035000  1.0
  Y  Y4  1  0.25000000  0.22689000  0.03176000  1.0
  Y  Y5  1  0.21525000  0.67563000  0.90427000  1.0
  Y  Y6  1  0.75000000  0.22689000  0.03176000  1.0
  Y  Y7  1  0.78475000  0.67563000  0.90427000  1.0
  In  In8  1  0.00000000  0.50000000  0.09527000  1.0
  In  In9  1  0.00000000  0.92061000  0.98259000  1.0
  In  In10  1  0.50000000  0.50000000  0.09527000  1.0
  In  In11  1  0.50000000  0.93670000  0.96707000  1.0
  Ge  Ge12  1  0.00000000  0.00000000  0.09527000  1.0
  Ge  Ge13  1  0.00000000  0.42878000  0.96849000  1.0
  Ge  Ge14  1  0.50000000  0.00000000  0.09527000  1.0
  Ge  Ge15  1  0.50000000  0.43410000  0.95423000  1.0
  C  C16  1  0.00000000  0.88752000  0.88844000  1.0
