# generated using pymatgen
data_Y4In4Pd4Au4CO
_symmetry_space_group_name_H-M   P1
_cell_length_a   6.93157000
_cell_length_b   6.93157000
_cell_length_c   25.19870000
_cell_angle_alpha   90.00000000
_cell_angle_beta   90.00000000
_cell_angle_gamma   90.00000000
_symmetry_Int_Tables_number   1
_chemical_formula_structural   Y4In4Pd4Au4CO
_chemical_formula_sum   'Y4 In4 Pd4 Au4 C1 O1'
_cell_volume   1210.71343849
_cell_formula_units_Z   1
loop_
 _symmetry_equiv_pos_site_id
 _symmetry_equiv_pos_as_xyz
  1  'x, y, z'
loop_
 _atom_site_type_symbol
 _atom_site_label
 _atom_site_symmetry_multiplicity
 _atom_site_fract_x
 _atom_site_fract_y
 _atom_site_fract_z
 _atom_site_occupancy
  Y  Y0  1  0.25000000  0.75000000  0.96562000  1.0
  Y  Y1  1  0.25203000  0.24856000  0.10460000  1.0
  Y  Y2  1  0.74882000  0.75288000  0.10470000  1.0
  Y  Y3  1  0.75000000  0.25000000  0.96562000  1.0
  In  In4  1  0.24887000  0.74758000  0.11518000  1.0
  In  In5  1  0.25000000  0.25000000  0.96562000  1.0
  In  In6  1  0.74752000  0.24551000  0.10529000  1.0
  In  In7  1  0.75000000  0.75000000  0.96562000  1.0
  Pd  Pd8  1  0.00000000  0.50000000  0.89685000  1.0
  Pd  Pd9  1  0.01185000  0.99009000  0.04009000  1.0
  Pd  Pd10  1  0.49165000  0.51055000  0.04043000  1.0
  Pd  Pd11  1  0.50000000  0.00000000  0.89685000  1.0
  Au  Au12  1  0.00000000  0.00000000  0.89685000  1.0
  Au  Au13  1  0.00261000  0.50257000  0.04116000  1.0
  Au  Au14  1  0.49232000  0.99201000  0.03846000  1.0
  Au  Au15  1  0.50000000  0.50000000  0.89685000  1.0
  C  C16  1  0.78434000  0.29917000  0.24480000  1.0
  O  O17  1  0.73107000  0.22365000  0.28233000  1.0
