# generated using pymatgen
data_Sc8Al8Au16CO
_symmetry_space_group_name_H-M   Pm
_cell_length_a   6.63475000
_cell_length_b   9.38295000
_cell_length_c   27.03720000
_cell_angle_alpha   90.00000000
_cell_angle_beta   90.00000000
_cell_angle_gamma   90.00000000
_symmetry_Int_Tables_number   6
_chemical_formula_structural   Sc8Al8Au16CO
_chemical_formula_sum   'Sc8 Al8 Au16 C1 O1'
_cell_volume   1683.16107406
_cell_formula_units_Z   1
loop_
 _symmetry_equiv_pos_site_id
 _symmetry_equiv_pos_as_xyz
  1  'x, y, z'
  2  'x, -y, z'
loop_
 _atom_site_type_symbol
 _atom_site_label
 _atom_site_symmetry_multiplicity
 _atom_site_fract_x
 _atom_site_fract_y
 _atom_site_fract_z
 _atom_site_occupancy
  Sc  Sc0  2  0.46549000  0.23835000  0.12862000  1.0
  Sc  Sc1  2  0.50000000  0.24999000  0.95662000  1.0
  Sc  Sc2  1  -0.00000000  0.50000000  0.86986000  1.0
  Sc  Sc3  1  0.00000000  0.00000000  0.86986000  1.0
  Sc  Sc4  1  0.02144000  0.00000000  0.05092000  1.0
  Sc  Sc5  1  0.99896000  0.50000000  0.04514000  1.0
  Al  Al6  2  -0.00000000  0.25001000  0.95662000  1.0
  Al  Al7  2  0.99562000  0.25701000  0.12512000  1.0
  Al  Al8  1  0.49816000  0.50000000  0.04243000  1.0
  Al  Al9  1  0.50000000  0.00000000  0.86986000  1.0
  Al  Al10  1  0.50000000  0.50000000  0.86986000  1.0
  Al  Al11  1  0.50636000  0.00000000  0.04147000  1.0
  Au  Au12  2  0.25000000  0.24999000  0.86986000  1.0
  Au  Au13  2  0.25536000  0.25459000  0.03991000  1.0
  Au  Au14  2  0.75000000  0.25001000  0.86986000  1.0
  Au  Au15  2  0.75261000  0.24787000  0.04393000  1.0
  Au  Au16  1  0.14839000  0.00000000  0.15343000  1.0
  Au  Au17  1  0.23184000  0.50000000  0.13324000  1.0
  Au  Au18  1  0.25000000  0.00000000  0.95662000  1.0
  Au  Au19  1  0.25000000  0.50000000  0.95662000  1.0
  Au  Au20  1  0.71529000  0.50000000  0.12722000  1.0
  Au  Au21  1  0.71548000  0.00000000  0.12695000  1.0
  Au  Au22  1  0.75000000  0.00000000  0.95662000  1.0
  Au  Au23  1  0.75000000  0.50000000  0.95662000  1.0
  C  C24  1  0.22107000  0.00000000  0.22923000  1.0
  O  O25  1  0.25358000  0.00000000  0.27092000  1.0
