# generated using pymatgen
data_Zr16Ti8Al8CO
_symmetry_space_group_name_H-M   'P 1'
_cell_length_a   9.63207000
_cell_length_b   6.81091000
_cell_length_c   27.22410000
_cell_angle_alpha   90.00000000
_cell_angle_beta   90.00000000
_cell_angle_gamma   90.00000000
_symmetry_Int_Tables_number   1
_chemical_formula_structural   Zr16Ti8Al8CO
_chemical_formula_sum   'Zr16 Ti8 Al8 C1 O1'
_cell_volume   1785.98703944
_cell_formula_units_Z   1
loop_
 _symmetry_equiv_pos_site_id
 _symmetry_equiv_pos_as_xyz
  1  'x, y, z'
loop_
 _atom_site_type_symbol
 _atom_site_label
 _atom_site_symmetry_multiplicity
 _atom_site_fract_x
 _atom_site_fract_y
 _atom_site_fract_z
 _atom_site_occupancy
  Zr  Zr0  1  0.00000000  0.25000000  0.04423000  1.0
  Zr  Zr1  1  0.50000000  0.75000000  0.04423000  1.0
  Zr  Zr2  1  0.00000000  0.75000000  0.04423000  1.0
  Zr  Zr3  1  0.50000000  0.25000000  0.04423000  1.0
  Zr  Zr4  1  0.75000000  0.75000000  0.13268000  1.0
  Zr  Zr5  1  0.25000000  0.25000000  0.13268000  1.0
  Zr  Zr6  1  0.75000000  0.25000000  0.13268000  1.0
  Zr  Zr7  1  0.25000000  0.75000000  0.13268000  1.0
  Zr  Zr8  1  0.50000000  0.28249000  0.86960000  1.0
  Zr  Zr9  1  0.00000000  0.74643000  0.86909000  1.0
  Zr  Zr10  1  0.50000000  0.74159000  0.86877000  1.0
  Zr  Zr11  1  0.00000000  0.28337000  0.86990000  1.0
  Zr  Zr12  1  0.25173000  0.74610000  0.95101000  1.0
  Zr  Zr13  1  0.75155000  0.25701000  0.95627000  1.0
  Zr  Zr14  1  0.24845000  0.25701000  0.95627000  1.0
  Zr  Zr15  1  0.74827000  0.74610000  0.95101000  1.0
  Ti  Ti16  1  0.00000000  0.00000000  0.13268000  1.0
  Ti  Ti17  1  0.25000000  0.50000000  0.04423000  1.0
  Ti  Ti18  1  0.75000000  0.50000000  0.04423000  1.0
  Ti  Ti19  1  0.50000000  0.00000000  0.13268000  1.0
  Ti  Ti20  1  0.50000000  0.00163000  0.94577000  1.0
  Ti  Ti21  1  0.74997000  0.46119000  0.85509000  1.0
  Ti  Ti22  1  0.25003000  0.46119000  0.85509000  1.0
  Ti  Ti23  1  0.00000000  0.98707000  0.94739000  1.0
  Al  Al24  1  0.75000000  0.00000000  0.04423000  1.0
  Al  Al25  1  0.00000000  0.50000000  0.13268000  1.0
  Al  Al26  1  0.25000000  0.00000000  0.04423000  1.0
  Al  Al27  1  0.50000000  0.50000000  0.13268000  1.0
  Al  Al28  1  0.25108000  0.02145000  0.86956000  1.0
  Al  Al29  1  0.50000000  0.50204000  0.95968000  1.0
  Al  Al30  1  0.74892000  0.02145000  0.86956000  1.0
  Al  Al31  1  0.00000000  0.51200000  0.96025000  1.0
  C  C32  1  0.00000000  0.24062000  0.78804000  1.0
  O  O33  1  0.00000000  0.22763000  0.74547000  1.0
