# generated using pymatgen
data_Zr16Ti8Al8CO
_symmetry_space_group_name_H-M   Pm
_cell_length_a   6.81091000
_cell_length_b   9.63207000
_cell_length_c   27.22410000
_cell_angle_alpha   90.00000000
_cell_angle_beta   90.00000000
_cell_angle_gamma   90.00000000
_symmetry_Int_Tables_number   6
_chemical_formula_structural   Zr16Ti8Al8CO
_chemical_formula_sum   'Zr16 Ti8 Al8 C1 O1'
_cell_volume   1785.98703944
_cell_formula_units_Z   1
loop_
 _symmetry_equiv_pos_site_id
 _symmetry_equiv_pos_as_xyz
  1  'x, y, z'
  2  'x, -y, z'
loop_
 _atom_site_type_symbol
 _atom_site_label
 _atom_site_symmetry_multiplicity
 _atom_site_fract_x
 _atom_site_fract_y
 _atom_site_fract_z
 _atom_site_occupancy
  Zr  Zr0  2  0.25000000  0.25000000  0.86732000  1.0
  Zr  Zr1  2  0.25701000  0.24845000  0.04373000  1.0
  Zr  Zr2  2  0.74610000  0.25173000  0.04899000  1.0
  Zr  Zr3  2  0.75000000  0.25000000  0.86732000  1.0
  Zr  Zr4  1  0.25000000  0.00000000  0.95577000  1.0
  Zr  Zr5  1  0.25000000  0.50000000  0.95577000  1.0
  Zr  Zr6  1  0.28249000  0.50000000  0.13040000  1.0
  Zr  Zr7  1  0.28337000  0.00000000  0.13010000  1.0
  Zr  Zr8  1  0.74159000  0.50000000  0.13123000  1.0
  Zr  Zr9  1  0.74643000  0.00000000  0.13091000  1.0
  Zr  Zr10  1  0.75000000  0.00000000  0.95577000  1.0
  Zr  Zr11  1  0.75000000  0.50000000  0.95577000  1.0
  Ti  Ti12  2  0.46119000  0.25003000  0.14491000  1.0
  Ti  Ti13  2  0.50000000  0.25000000  0.95577000  1.0
  Ti  Ti14  1  0.00000000  0.00000000  0.86732000  1.0
  Ti  Ti15  1  0.00000000  0.50000000  0.86732000  1.0
  Ti  Ti16  1  0.00163000  0.50000000  0.05423000  1.0
  Ti  Ti17  1  0.98707000  0.00000000  0.05261000  1.0
  Al  Al18  2  0.00000000  0.25000000  0.95577000  1.0
  Al  Al19  2  0.02145000  0.25108000  0.13044000  1.0
  Al  Al20  1  0.50000000  0.00000000  0.86732000  1.0
  Al  Al21  1  0.50000000  0.50000000  0.86732000  1.0
  Al  Al22  1  0.50204000  0.50000000  0.04032000  1.0
  Al  Al23  1  0.51200000  0.00000000  0.03975000  1.0
  C  C24  1  0.24062000  0.00000000  0.21196000  1.0
  O  O25  1  0.22763000  0.00000000  0.25453000  1.0
