# generated using pymatgen
data_Y4Al4In4Pd4C
_symmetry_space_group_name_H-M   Pm
_cell_length_a   6.02485000
_cell_length_b   9.21652000
_cell_length_c   24.50330000
_cell_angle_alpha   90.00000000
_cell_angle_beta   90.00000000
_cell_angle_gamma   90.00000000
_symmetry_Int_Tables_number   6
_chemical_formula_structural   Y4Al4In4Pd4C
_chemical_formula_sum   'Y4 Al4 In4 Pd4 C1'
_cell_volume   1360.62293069
_cell_formula_units_Z   1
loop_
 _symmetry_equiv_pos_site_id
 _symmetry_equiv_pos_as_xyz
  1  'x, y, z'
  2  'x, -y, z'
loop_
 _atom_site_type_symbol
 _atom_site_label
 _atom_site_symmetry_multiplicity
 _atom_site_fract_x
 _atom_site_fract_y
 _atom_site_fract_z
 _atom_site_occupancy
  Y  Y0  1  0.16152000  0.50000000  0.04123000  1.0
  Y  Y1  1  0.23729000  0.00000000  0.02471000  1.0
  Y  Y2  1  0.68818000  0.00000000  0.90811000  1.0
  Y  Y3  1  0.68818000  0.50000000  0.90811000  1.0
  Al  Al4  2  0.45879000  0.25000000  0.96937000  1.0
  Al  Al5  2  0.98395000  0.20538000  0.10154000  1.0
  In  In6  2  0.52513000  0.26416000  0.08954000  1.0
  In  In7  2  0.95879000  0.25000000  0.96937000  1.0
  Pd  Pd8  1  0.18818000  0.00000000  0.90811000  1.0
  Pd  Pd9  1  0.18818000  0.50000000  0.90811000  1.0
  Pd  Pd10  1  0.64833000  0.50000000  0.01654000  1.0
  Pd  Pd11  1  0.71667000  0.00000000  0.02922000  1.0
  C  C12  1  0.99325000  0.00000000  0.09846000  1.0
