# generated using pymatgen
data_Li16In8Rh8C
_symmetry_space_group_name_H-M   'P 1'
_cell_length_a   8.97987000
_cell_length_b   6.34973000
_cell_length_c   26.73490000
_cell_angle_alpha   90.00000000
_cell_angle_beta   90.00000000
_cell_angle_gamma   90.00000000
_symmetry_Int_Tables_number   1
_chemical_formula_structural   Li16In8Rh8C
_chemical_formula_sum   'Li16 In8 Rh8 C1'
_cell_volume   1524.41731254
_cell_formula_units_Z   1
loop_
 _symmetry_equiv_pos_site_id
 _symmetry_equiv_pos_as_xyz
  1  'x, y, z'
loop_
 _atom_site_type_symbol
 _atom_site_label
 _atom_site_symmetry_multiplicity
 _atom_site_fract_x
 _atom_site_fract_y
 _atom_site_fract_z
 _atom_site_occupancy
  Li  Li0  1  0.50000000  0.00000000  0.04199000  1.0
  Li  Li1  1  0.75000000  0.50000000  0.12596000  1.0
  Li  Li2  1  0.00000000  0.00000000  0.04199000  1.0
  Li  Li3  1  0.25000000  0.50000000  0.12596000  1.0
  Li  Li4  1  0.00000000  0.25000000  0.12596000  1.0
  Li  Li5  1  0.50000000  0.25000000  0.12596000  1.0
  Li  Li6  1  0.25000000  0.75000000  0.04199000  1.0
  Li  Li7  1  0.75000000  0.75000000  0.04199000  1.0
  Li  Li8  1  0.00000000  0.02558000  0.86011000  1.0
  Li  Li9  1  0.24898000  0.49980000  0.95546000  1.0
  Li  Li10  1  0.50000000  0.96848000  0.87257000  1.0
  Li  Li11  1  0.75102000  0.49980000  0.95546000  1.0
  Li  Li12  1  0.50000000  0.25459000  0.95716000  1.0
  Li  Li13  1  0.00000000  0.24457000  0.96369000  1.0
  Li  Li14  1  0.76154000  0.72858000  0.86277000  1.0
  Li  Li15  1  0.23846000  0.72858000  0.86277000  1.0
  In  In16  1  0.75000000  0.25000000  0.04199000  1.0
  In  In17  1  0.25000000  0.25000000  0.04199000  1.0
  In  In18  1  0.50000000  0.75000000  0.12596000  1.0
  In  In19  1  0.00000000  0.75000000  0.12596000  1.0
  In  In20  1  0.26787000  0.25251000  0.86730000  1.0
  In  In21  1  0.73213000  0.25251000  0.86730000  1.0
  In  In22  1  0.00000000  0.76250000  0.95708000  1.0
  In  In23  1  0.50000000  0.76123000  0.96128000  1.0
  Rh  Rh24  1  0.75000000  0.00000000  0.12596000  1.0
  Rh  Rh25  1  0.00000000  0.50000000  0.04199000  1.0
  Rh  Rh26  1  0.50000000  0.50000000  0.04199000  1.0
  Rh  Rh27  1  0.25000000  0.00000000  0.12596000  1.0
  Rh  Rh28  1  0.25003000  0.01200000  0.95317000  1.0
  Rh  Rh29  1  0.50000000  0.51143000  0.88123000  1.0
  Rh  Rh30  1  0.00000000  0.44863000  0.88004000  1.0
  Rh  Rh31  1  0.74997000  0.01200000  0.95317000  1.0
  C  C32  1  0.00000000  0.71017000  0.85760000  1.0
