data_image0
_chemical_formula_structural       Sc16Pt16CO
_chemical_formula_sum              "Sc16 Pt16 C1 O1"
_cell_length_a       6.65024
_cell_length_b       9.40485
_cell_length_c       27.0536
_cell_angle_alpha    90
_cell_angle_beta     90
_cell_angle_gamma    90

_space_group_name_H-M_alt    "P 1"
_space_group_IT_number       1

loop_
  _space_group_symop_operation_xyz
  'x, y, z'

loop_
  _atom_site_type_symbol
  _atom_site_label
  _atom_site_symmetry_multiplicity
  _atom_site_fract_x
  _atom_site_fract_y
  _atom_site_fract_z
  _atom_site_occupancy
  Sc  Sc1       1.0  0.25000  0.25000  0.86964  1.0000
  Sc  Sc2       1.0  0.25000  0.00000  0.95655  1.0000
  Sc  Sc3       1.0  0.25247  0.25000  0.04244  1.0000
  Sc  Sc4       1.0  0.25544  0.99634  0.12950  1.0000
  Sc  Sc5       1.0  0.25000  0.75000  0.86964  1.0000
  Sc  Sc6       1.0  0.25000  0.50000  0.95655  1.0000
  Sc  Sc7       1.0  0.24672  0.75000  0.04225  1.0000
  Sc  Sc8       1.0  0.25544  0.50366  0.12950  1.0000
  Sc  Sc9       1.0  0.75000  0.25000  0.86964  1.0000
  Sc  Sc10      1.0  0.75000  0.00000  0.95655  1.0000
  Sc  Sc11      1.0  0.74753  0.25000  0.04244  1.0000
  Sc  Sc12      1.0  0.74456  0.99634  0.12950  1.0000
  Sc  Sc13      1.0  0.75000  0.75000  0.86964  1.0000
  Sc  Sc14      1.0  0.75000  0.50000  0.95655  1.0000
  Sc  Sc15      1.0  0.75327  0.75000  0.04225  1.0000
  Sc  Sc16      1.0  0.74456  0.50366  0.12950  1.0000
  Pt  Pt1       1.0  0.00000  0.00000  0.86964  1.0000
  Pt  Pt2       1.0  0.00000  0.25000  0.95655  1.0000
  Pt  Pt3       1.0  0.00000  0.01176  0.04749  1.0000
  Pt  Pt4       1.0  0.00000  0.25000  0.13103  1.0000
  Pt  Pt5       1.0  0.00000  0.50000  0.86964  1.0000
  Pt  Pt6       1.0  0.00000  0.75000  0.95655  1.0000
  Pt  Pt7       1.0  1.00000  0.48824  0.04749  1.0000
  Pt  Pt8       1.0  1.00000  0.75000  0.12228  1.0000
  Pt  Pt9       1.0  0.50000  0.00000  0.86964  1.0000
  Pt  Pt10      1.0  0.50000  0.25000  0.95655  1.0000
  Pt  Pt11      1.0  0.50000  0.99600  0.04263  1.0000
  Pt  Pt12      1.0  0.50000  0.25000  0.12089  1.0000
  Pt  Pt13      1.0  0.50000  0.50000  0.86964  1.0000
  Pt  Pt14      1.0  0.50000  0.75000  0.95655  1.0000
  Pt  Pt15      1.0  0.50000  0.50400  0.04263  1.0000
  Pt  Pt16      1.0  0.50000  0.75000  0.12070  1.0000
  C   C1        1.0  1.00000  0.25000  0.20169  1.0000
  O   O1        1.0  0.00000  0.25000  0.24475  1.0000
