# generated using pymatgen
data_Sc16Pt16CO
_symmetry_space_group_name_H-M   Pmm2
_cell_length_a   6.65024000
_cell_length_b   9.40485000
_cell_length_c   27.05360000
_cell_angle_alpha   90.00000000
_cell_angle_beta   90.00000000
_cell_angle_gamma   90.00000000
_symmetry_Int_Tables_number   25
_chemical_formula_structural   Sc16Pt16CO
_chemical_formula_sum   'Sc16 Pt16 C1 O1'
_cell_volume   1692.05414665
_cell_formula_units_Z   1
loop_
 _symmetry_equiv_pos_site_id
 _symmetry_equiv_pos_as_xyz
  1  'x, y, z'
  2  '-x, -y, z'
  3  '-x, y, z'
  4  'x, -y, z'
loop_
 _atom_site_type_symbol
 _atom_site_label
 _atom_site_symmetry_multiplicity
 _atom_site_fract_x
 _atom_site_fract_y
 _atom_site_fract_z
 _atom_site_occupancy
  Sc  Sc0  4  0.25000000  0.25000000  0.95655000  1.0
  Sc  Sc1  4  0.25544000  0.25366000  0.12950000  1.0
  Sc  Sc2  2  0.24672000  0.50000000  0.04225000  1.0
  Sc  Sc3  2  0.25000000  0.00000000  0.86964000  1.0
  Sc  Sc4  2  0.25000000  0.50000000  0.86964000  1.0
  Sc  Sc5  2  0.25247000  0.00000000  0.04244000  1.0
  Pt  Pt6  2  0.00000000  0.23824000  0.04749000  1.0
  Pt  Pt7  2  0.00000000  0.25000000  0.86964000  1.0
  Pt  Pt8  2  0.50000000  0.25000000  0.86964000  1.0
  Pt  Pt9  2  0.50000000  0.25400000  0.04263000  1.0
  Pt  Pt10  1  0.00000000  0.00000000  0.13103000  1.0
  Pt  Pt11  1  0.00000000  0.00000000  0.95655000  1.0
  Pt  Pt12  1  0.00000000  0.50000000  0.12228000  1.0
  Pt  Pt13  1  0.00000000  0.50000000  0.95655000  1.0
  Pt  Pt14  1  0.50000000  0.00000000  0.12089000  1.0
  Pt  Pt15  1  0.50000000  0.00000000  0.95655000  1.0
  Pt  Pt16  1  0.50000000  0.50000000  0.12070000  1.0
  Pt  Pt17  1  0.50000000  0.50000000  0.95655000  1.0
  C  C18  1  0.00000000  0.00000000  0.20169000  1.0
  O  O19  1  0.00000000  0.00000000  0.24475000  1.0
