# generated using pymatgen
data_Mg8In8Ni16C
_symmetry_space_group_name_H-M   'P 1'
_cell_length_a   6.23499000
_cell_length_b   8.81761000
_cell_length_c   26.61320000
_cell_angle_alpha   90.00000000
_cell_angle_beta   90.00000000
_cell_angle_gamma   90.00000000
_symmetry_Int_Tables_number   1
_chemical_formula_structural   Mg8In8Ni16C
_chemical_formula_sum   'Mg8 In8 Ni16 C1'
_cell_volume   1463.13279640
_cell_formula_units_Z   1
loop_
 _symmetry_equiv_pos_site_id
 _symmetry_equiv_pos_as_xyz
  1  'x, y, z'
loop_
 _atom_site_type_symbol
 _atom_site_label
 _atom_site_symmetry_multiplicity
 _atom_site_fract_x
 _atom_site_fract_y
 _atom_site_fract_z
 _atom_site_occupancy
  Mg  Mg0  1  0.00000000  0.00000000  0.87575000  1.0
  Mg  Mg1  1  0.50000000  0.25000000  0.95858000  1.0
  Mg  Mg2  1  0.50000000  0.75000000  0.95858000  1.0
  Mg  Mg3  1  0.00000000  0.50000000  0.87575000  1.0
  Mg  Mg4  1  0.00000000  0.50000000  0.03821000  1.0
  Mg  Mg5  1  0.50000000  0.74308000  0.13025000  1.0
  Mg  Mg6  1  0.50000000  0.25692000  0.13025000  1.0
  Mg  Mg7  1  0.00000000  0.00000000  0.03973000  1.0
  In  In8  1  0.00000000  0.75000000  0.95858000  1.0
  In  In9  1  0.50000000  0.00000000  0.87575000  1.0
  In  In10  1  0.00000000  0.25000000  0.95858000  1.0
  In  In11  1  0.50000000  0.50000000  0.87575000  1.0
  In  In12  1  0.00000000  0.25631000  0.13174000  1.0
  In  In13  1  0.50000000  0.50000000  0.04047000  1.0
  In  In14  1  0.00000000  0.74369000  0.13174000  1.0
  In  In15  1  0.50000000  0.00000000  0.04101000  1.0
  Ni  Ni16  1  0.25000000  0.00000000  0.95858000  1.0
  Ni  Ni17  1  0.75000000  0.50000000  0.95858000  1.0
  Ni  Ni18  1  0.75000000  0.00000000  0.95858000  1.0
  Ni  Ni19  1  0.25000000  0.50000000  0.95858000  1.0
  Ni  Ni20  1  0.75000000  0.75000000  0.87575000  1.0
  Ni  Ni21  1  0.25000000  0.25000000  0.87575000  1.0
  Ni  Ni22  1  0.25000000  0.75000000  0.87575000  1.0
  Ni  Ni23  1  0.75000000  0.25000000  0.87575000  1.0
  Ni  Ni24  1  0.23547000  0.50000000  0.11640000  1.0
  Ni  Ni25  1  0.78008000  0.00000000  0.12371000  1.0
  Ni  Ni26  1  0.76453000  0.50000000  0.11640000  1.0
  Ni  Ni27  1  0.21992000  0.00000000  0.12371000  1.0
  Ni  Ni28  1  0.75331000  0.25008000  0.04281000  1.0
  Ni  Ni29  1  0.24669000  0.74992000  0.04281000  1.0
  Ni  Ni30  1  0.24669000  0.25008000  0.04281000  1.0
  Ni  Ni31  1  0.75331000  0.74992000  0.04281000  1.0
  C  C32  1  0.50000000  0.00000000  0.13617000  1.0
