# generated using pymatgen
data_Sc4Al12C
_symmetry_space_group_name_H-M   Pm
_cell_length_a   5.78605000
_cell_length_b   8.18271000
_cell_length_c   24.33950000
_cell_angle_alpha   90.00000000
_cell_angle_beta   90.00000000
_cell_angle_gamma   90.00000000
_symmetry_Int_Tables_number   6
_chemical_formula_structural   Sc4Al12C
_chemical_formula_sum   'Sc4 Al12 C1'
_cell_volume   1152.36748143
_cell_formula_units_Z   1
loop_
 _symmetry_equiv_pos_site_id
 _symmetry_equiv_pos_as_xyz
  1  'x, y, z'
  2  'x, -y, z'
loop_
 _atom_site_type_symbol
 _atom_site_label
 _atom_site_symmetry_multiplicity
 _atom_site_fract_x
 _atom_site_fract_y
 _atom_site_fract_z
 _atom_site_occupancy
  Sc  Sc0  2  0.50000000  0.25001000  0.02972000  1.0
  Sc  Sc1  2  0.99536000  0.28964000  0.90599000  1.0
  Al  Al2  2  0.00000000  0.25001000  0.02972000  1.0
  Al  Al3  2  0.50406000  0.31469000  0.90308000  1.0
  Al  Al4  1  0.22468000  0.00000000  0.96838000  1.0
  Al  Al5  1  0.25000000  0.00000000  0.08915000  1.0
  Al  Al6  1  0.25000000  0.50000000  0.08915000  1.0
  Al  Al7  1  0.25229000  0.50000000  0.97653000  1.0
  Al  Al8  1  0.72425000  0.00000000  0.95293000  1.0
  Al  Al9  1  0.75000000  0.00000000  0.08915000  1.0
  Al  Al10  1  0.75000000  0.50000000  0.08915000  1.0
  Al  Al11  1  0.75255000  0.50000000  0.97682000  1.0
  C  C12  1  0.75857000  0.50000000  0.89197000  1.0
