# generated using pymatgen
data_Sc4In4Ge4Pd4CO
_symmetry_space_group_name_H-M   Pm
_cell_length_a   5.71274000
_cell_length_b   9.28368000
_cell_length_c   24.27220000
_cell_angle_alpha   90.00000000
_cell_angle_beta   90.00000000
_cell_angle_gamma   90.00000000
_symmetry_Int_Tables_number   6
_chemical_formula_structural   Sc4In4Ge4Pd4CO
_chemical_formula_sum   'Sc4 In4 Ge4 Pd4 C1 O1'
_cell_volume   1287.28219707
_cell_formula_units_Z   1
loop_
 _symmetry_equiv_pos_site_id
 _symmetry_equiv_pos_as_xyz
  1  'x, y, z'
  2  'x, -y, z'
loop_
 _atom_site_type_symbol
 _atom_site_label
 _atom_site_symmetry_multiplicity
 _atom_site_fract_x
 _atom_site_fract_y
 _atom_site_fract_z
 _atom_site_occupancy
  Sc  Sc0  1  0.50604000  0.50000000  0.08348000  1.0
  Sc  Sc1  1  0.50963000  0.00000000  0.08524000  1.0
  Sc  Sc2  1  0.96198000  0.00000000  0.97066000  1.0
  Sc  Sc3  1  0.96198000  0.50000000  0.97066000  1.0
  In  In4  2  0.22382000  0.24951000  0.03662000  1.0
  In  In5  2  0.69297000  0.25000000  0.91199000  1.0
  Ge  Ge6  1  0.46198000  0.00000000  0.97066000  1.0
  Ge  Ge7  1  0.46198000  0.50000000  0.97066000  1.0
  Ge  Ge8  1  0.99502000  0.50000000  0.09096000  1.0
  Ge  Ge9  1  0.99605000  0.00000000  0.09202000  1.0
  Pd  Pd10  2  0.19297000  0.25000000  0.91199000  1.0
  Pd  Pd11  2  0.72865000  0.25000000  0.04049000  1.0
  C  C12  1  0.49344000  0.00000000  0.18201000  1.0
  O  O13  1  0.49101000  0.00000000  0.22915000  1.0
