# generated using pymatgen
data_Zr8Ni16Sn8C
_symmetry_space_group_name_H-M   Pm
_cell_length_a   8.97809000
_cell_length_b   6.34847000
_cell_length_c   26.73360000
_cell_angle_alpha   90.00000000
_cell_angle_beta   90.00000000
_cell_angle_gamma   90.00000000
_symmetry_Int_Tables_number   6
_chemical_formula_structural   Zr8Ni16Sn8C
_chemical_formula_sum   'Zr8 Ni16 Sn8 C1'
_cell_volume   1523.73860883
_cell_formula_units_Z   1
loop_
 _symmetry_equiv_pos_site_id
 _symmetry_equiv_pos_as_xyz
  1  'x, y, z'
  2  'x, -y, z'
loop_
 _atom_site_type_symbol
 _atom_site_label
 _atom_site_symmetry_multiplicity
 _atom_site_fract_x
 _atom_site_fract_y
 _atom_site_fract_z
 _atom_site_occupancy
  Zr  Zr0  1  0.00000000  0.00000000  0.87406000  1.0
  Zr  Zr1  1  0.25000000  0.50000000  0.95802000  1.0
  Zr  Zr2  1  0.25234000  0.50000000  0.12511000  1.0
  Zr  Zr3  1  0.50000000  0.00000000  0.87406000  1.0
  Zr  Zr4  1  0.50006000  0.00000000  0.04151000  1.0
  Zr  Zr5  1  0.74768000  0.50000000  0.12511000  1.0
  Zr  Zr6  1  0.75000000  0.50000000  0.95802000  1.0
  Zr  Zr7  1  0.99998000  0.00000000  0.04551000  1.0
  Ni  Ni8  2  0.00000000  0.25000000  0.95802000  1.0
  Ni  Ni9  2  0.00003000  0.28401000  0.12729000  1.0
  Ni  Ni10  2  0.25000000  0.25000000  0.87406000  1.0
  Ni  Ni11  2  0.25328000  0.24105000  0.04456000  1.0
  Ni  Ni12  2  0.50000000  0.25000000  0.95802000  1.0
  Ni  Ni13  2  0.50003000  0.27453000  0.11968000  1.0
  Ni  Ni14  2  0.74677000  0.24143000  0.04452000  1.0
  Ni  Ni15  2  0.75000000  0.25000000  0.87406000  1.0
  Sn  Sn16  1  0.00000000  0.50000000  0.87406000  1.0
  Sn  Sn17  1  0.00010000  0.50000000  0.04102000  1.0
  Sn  Sn18  1  0.25000000  0.00000000  0.95802000  1.0
  Sn  Sn19  1  0.27058000  0.00000000  0.13761000  1.0
  Sn  Sn20  1  0.49997000  0.50000000  0.03826000  1.0
  Sn  Sn21  1  0.50000000  0.50000000  0.87406000  1.0
  Sn  Sn22  1  0.72943000  0.00000000  0.13757000  1.0
  Sn  Sn23  1  0.75000000  0.00000000  0.95802000  1.0
  C  C24  1  0.99997000  0.00000000  0.13371000  1.0
