# generated using pymatgen
data_Li8Y8In8Cu8CO
_symmetry_space_group_name_H-M   'P 1'
_cell_length_a   9.45282000
_cell_length_b   6.68415000
_cell_length_c   27.08960000
_cell_angle_alpha   90.00000000
_cell_angle_beta   90.00000000
_cell_angle_gamma   90.00000000
_symmetry_Int_Tables_number   1
_chemical_formula_structural   Li8Y8In8Cu8CO
_chemical_formula_sum   'Li8 Y8 In8 Cu8 C1 O1'
_cell_volume   1711.63109607
_cell_formula_units_Z   1
loop_
 _symmetry_equiv_pos_site_id
 _symmetry_equiv_pos_as_xyz
  1  'x, y, z'
loop_
 _atom_site_type_symbol
 _atom_site_label
 _atom_site_symmetry_multiplicity
 _atom_site_fract_x
 _atom_site_fract_y
 _atom_site_fract_z
 _atom_site_occupancy
  Li  Li0  1  0.25000000  0.00000000  0.04362000  1.0
  Li  Li1  1  0.75000000  0.00000000  0.04362000  1.0
  Li  Li2  1  0.50000000  0.50000000  0.13085000  1.0
  Li  Li3  1  0.00000000  0.50000000  0.13085000  1.0
  Li  Li4  1  0.75360000  0.16362000  0.81739000  1.0
  Li  Li5  1  0.24640000  0.16362000  0.81739000  1.0
  Li  Li6  1  0.00000000  0.50774000  0.95335000  1.0
  Li  Li7  1  0.50000000  0.50937000  0.95264000  1.0
  Y  Y8  1  0.00000000  0.75000000  0.04362000  1.0
  Y  Y9  1  0.50000000  0.75000000  0.04362000  1.0
  Y  Y10  1  0.25000000  0.25000000  0.13085000  1.0
  Y  Y11  1  0.75000000  0.25000000  0.13085000  1.0
  Y  Y12  1  0.50000000  0.79386000  0.86760000  1.0
  Y  Y13  1  0.00000000  0.79602000  0.86857000  1.0
  Y  Y14  1  0.74883000  0.23771000  0.94978000  1.0
  Y  Y15  1  0.25117000  0.23771000  0.94978000  1.0
  In  In16  1  0.00000000  0.25000000  0.04362000  1.0
  In  In17  1  0.50000000  0.25000000  0.04362000  1.0
  In  In18  1  0.25000000  0.75000000  0.13085000  1.0
  In  In19  1  0.75000000  0.75000000  0.13085000  1.0
  In  In20  1  0.50000000  0.27846000  0.86434000  1.0
  In  In21  1  0.00000000  0.28156000  0.86622000  1.0
  In  In22  1  0.74998000  0.75228000  0.95670000  1.0
  In  In23  1  0.25002000  0.75228000  0.95670000  1.0
  Cu  Cu24  1  0.00000000  0.00000000  0.13085000  1.0
  Cu  Cu25  1  0.50000000  0.00000000  0.13085000  1.0
  Cu  Cu26  1  0.75000000  0.50000000  0.04362000  1.0
  Cu  Cu27  1  0.25000000  0.50000000  0.04362000  1.0
  Cu  Cu28  1  0.50000000  0.99847000  0.95831000  1.0
  Cu  Cu29  1  0.00000000  0.00423000  0.96004000  1.0
  Cu  Cu30  1  0.25105000  0.51862000  0.87239000  1.0
  Cu  Cu31  1  0.74895000  0.51862000  0.87239000  1.0
  C  C32  1  0.00000000  0.81080000  0.77844000  1.0
  O  O33  1  0.00000000  0.80887000  0.73565000  1.0
