# generated using pymatgen
data_Li8Y8In8Cu8CO
_symmetry_space_group_name_H-M   Pm
_cell_length_a   6.68415000
_cell_length_b   9.45282000
_cell_length_c   27.08960000
_cell_angle_alpha   90.00000000
_cell_angle_beta   90.00000000
_cell_angle_gamma   90.00000000
_symmetry_Int_Tables_number   6
_chemical_formula_structural   Li8Y8In8Cu8CO
_chemical_formula_sum   'Li8 Y8 In8 Cu8 C1 O1'
_cell_volume   1711.63109607
_cell_formula_units_Z   1
loop_
 _symmetry_equiv_pos_site_id
 _symmetry_equiv_pos_as_xyz
  1  'x, y, z'
  2  'x, -y, z'
loop_
 _atom_site_type_symbol
 _atom_site_label
 _atom_site_symmetry_multiplicity
 _atom_site_fract_x
 _atom_site_fract_y
 _atom_site_fract_z
 _atom_site_occupancy
  Li  Li0  2  0.00000000  0.25000000  0.95638000  1.0
  Li  Li1  2  0.16362000  0.24640000  0.18261000  1.0
  Li  Li2  1  0.50000000  0.00000000  0.86915000  1.0
  Li  Li3  1  0.50000000  0.50000000  0.86915000  1.0
  Li  Li4  1  0.50774000  0.00000000  0.04665000  1.0
  Li  Li5  1  0.50937000  0.50000000  0.04736000  1.0
  Y  Y6  2  0.23771000  0.25117000  0.05022000  1.0
  Y  Y7  2  0.25000000  0.25000000  0.86915000  1.0
  Y  Y8  1  0.75000000  0.00000000  0.95638000  1.0
  Y  Y9  1  0.75000000  0.50000000  0.95638000  1.0
  Y  Y10  1  0.79386000  0.50000000  0.13240000  1.0
  Y  Y11  1  0.79602000  0.00000000  0.13143000  1.0
  In  In12  2  0.75000000  0.25000000  0.86915000  1.0
  In  In13  2  0.75228000  0.25002000  0.04330000  1.0
  In  In14  1  0.25000000  0.00000000  0.95638000  1.0
  In  In15  1  0.25000000  0.50000000  0.95638000  1.0
  In  In16  1  0.27846000  0.50000000  0.13566000  1.0
  In  In17  1  0.28156000  0.00000000  0.13378000  1.0
  Cu  Cu18  2  0.50000000  0.25000000  0.95638000  1.0
  Cu  Cu19  2  0.51862000  0.25105000  0.12761000  1.0
  Cu  Cu20  1  0.00000000  0.00000000  0.86915000  1.0
  Cu  Cu21  1  0.00000000  0.50000000  0.86915000  1.0
  Cu  Cu22  1  0.00423000  0.00000000  0.03996000  1.0
  Cu  Cu23  1  0.99847000  0.50000000  0.04169000  1.0
  C  C24  1  0.81080000  0.00000000  0.22156000  1.0
  O  O25  1  0.80887000  0.00000000  0.26435000  1.0
