# generated using pymatgen
data_Sc16Co16CO
_symmetry_space_group_name_H-M   Pm
_cell_length_a   6.24301000
_cell_length_b   8.82895000
_cell_length_c   26.62170000
_cell_angle_alpha   90.00000000
_cell_angle_beta   90.00000000
_cell_angle_gamma   90.00000000
_symmetry_Int_Tables_number   6
_chemical_formula_structural   Sc16Co16CO
_chemical_formula_sum   'Sc16 Co16 C1 O1'
_cell_volume   1467.36742265
_cell_formula_units_Z   1
loop_
 _symmetry_equiv_pos_site_id
 _symmetry_equiv_pos_as_xyz
  1  'x, y, z'
  2  'x, -y, z'
loop_
 _atom_site_type_symbol
 _atom_site_label
 _atom_site_symmetry_multiplicity
 _atom_site_fract_x
 _atom_site_fract_y
 _atom_site_fract_z
 _atom_site_occupancy
  Sc  Sc0  2  0.25000000  0.25000000  0.87563000  1.0
  Sc  Sc1  2  0.25011000  0.25036000  0.04202000  1.0
  Sc  Sc2  2  0.75000000  0.25000000  0.87563000  1.0
  Sc  Sc3  2  0.75005000  0.24994000  0.04210000  1.0
  Sc  Sc4  1  0.25000000  0.00000000  0.95854000  1.0
  Sc  Sc5  1  0.25000000  0.50000000  0.95854000  1.0
  Sc  Sc6  1  0.25005000  0.00000000  0.12596000  1.0
  Sc  Sc7  1  0.25019000  0.50000000  0.12650000  1.0
  Sc  Sc8  1  0.75000000  0.00000000  0.95854000  1.0
  Sc  Sc9  1  0.75000000  0.50000000  0.95854000  1.0
  Sc  Sc10  1  0.75008000  0.50000000  0.12721000  1.0
  Sc  Sc11  1  0.75010000  0.00000000  0.12818000  1.0
  Co  Co12  2  0.00000000  0.25000000  0.95854000  1.0
  Co  Co13  2  0.50000000  0.25000000  0.95854000  1.0
  Co  Co14  2  0.50425000  0.25223000  0.11945000  1.0
  Co  Co15  2  0.99595000  0.25227000  0.11943000  1.0
  Co  Co16  1  0.00000000  0.00000000  0.87563000  1.0
  Co  Co17  1  0.00000000  0.50000000  0.87563000  1.0
  Co  Co18  1  0.00040000  0.50000000  0.04357000  1.0
  Co  Co19  1  0.49979000  0.50000000  0.04357000  1.0
  Co  Co20  1  0.50000000  0.00000000  0.87563000  1.0
  Co  Co21  1  0.50000000  0.50000000  0.87563000  1.0
  Co  Co22  1  0.50268000  0.00000000  0.04333000  1.0
  Co  Co23  1  0.99750000  0.00000000  0.04333000  1.0
  C  C24  1  0.24716000  0.00000000  0.21308000  1.0
  O  O25  1  0.24633000  0.00000000  0.25630000  1.0
