# generated using pymatgen
data_Zr8In8Au16CO
_symmetry_space_group_name_H-M   Pmm2
_cell_length_a   6.87009000
_cell_length_b   9.71577000
_cell_length_c   27.28680000
_cell_angle_alpha   90.00000000
_cell_angle_beta   90.00000000
_cell_angle_gamma   90.00000000
_symmetry_Int_Tables_number   25
_chemical_formula_structural   Zr8In8Au16CO
_chemical_formula_sum   'Zr8 In8 Au16 C1 O1'
_cell_volume   1821.34517449
_cell_formula_units_Z   1
loop_
 _symmetry_equiv_pos_site_id
 _symmetry_equiv_pos_as_xyz
  1  'x, y, z'
  2  '-x, -y, z'
  3  '-x, y, z'
  4  'x, -y, z'
loop_
 _atom_site_type_symbol
 _atom_site_label
 _atom_site_symmetry_multiplicity
 _atom_site_fract_x
 _atom_site_fract_y
 _atom_site_fract_z
 _atom_site_occupancy
  Zr  Zr0  2  0.00000000  0.25000000  0.86648000  1.0
  Zr  Zr1  2  0.00000000  0.25009000  0.04775000  1.0
  Zr  Zr2  1  0.50000000  0.00000000  0.12883000  1.0
  Zr  Zr3  1  0.50000000  0.00000000  0.95549000  1.0
  Zr  Zr4  1  0.50000000  0.50000000  0.12583000  1.0
  Zr  Zr5  1  0.50000000  0.50000000  0.95549000  1.0
  In  In6  2  0.50000000  0.24869000  0.04253000  1.0
  In  In7  2  0.50000000  0.25000000  0.86648000  1.0
  In  In8  1  0.00000000  0.00000000  0.14358000  1.0
  In  In9  1  0.00000000  0.00000000  0.95549000  1.0
  In  In10  1  0.00000000  0.50000000  0.14387000  1.0
  In  In11  1  0.00000000  0.50000000  0.95549000  1.0
  Au  Au12  4  0.25000000  0.25000000  0.95549000  1.0
  Au  Au13  4  0.26483000  0.25111000  0.13579000  1.0
  Au  Au14  2  0.23846000  0.00000000  0.04427000  1.0
  Au  Au15  2  0.24017000  0.50000000  0.04440000  1.0
  Au  Au16  2  0.25000000  0.00000000  0.86648000  1.0
  Au  Au17  2  0.25000000  0.50000000  0.86648000  1.0
  C  C18  1  0.50000000  0.00000000  0.21161000  1.0
  O  O19  1  0.50000000  0.00000000  0.25382000  1.0
