# generated using pymatgen
data_Li4In4Ga4Pd4CO
_symmetry_space_group_name_H-M   P1
_cell_length_a   6.46680000
_cell_length_b   6.46680000
_cell_length_c   24.85010000
_cell_angle_alpha   90.00000000
_cell_angle_beta   90.00000000
_cell_angle_gamma   90.00000000
_symmetry_Int_Tables_number   1
_chemical_formula_structural   Li4In4Ga4Pd4CO
_chemical_formula_sum   'Li4 In4 Ga4 Pd4 C1 O1'
_cell_volume   1039.21881261
_cell_formula_units_Z   1
loop_
 _symmetry_equiv_pos_site_id
 _symmetry_equiv_pos_as_xyz
  1  'x, y, z'
loop_
 _atom_site_type_symbol
 _atom_site_label
 _atom_site_symmetry_multiplicity
 _atom_site_fract_x
 _atom_site_fract_y
 _atom_site_fract_z
 _atom_site_occupancy
  Li  Li0  1  0.25000000  0.25000000  0.90241000  1.0
  Li  Li1  1  0.27086000  0.77085000  0.03583000  1.0
  Li  Li2  1  0.72925000  0.22920000  0.03580000  1.0
  Li  Li3  1  0.75000000  0.75000000  0.90241000  1.0
  In  In4  1  0.00000000  0.00000000  0.96747000  1.0
  In  In5  1  0.50000000  0.50000000  0.96747000  1.0
  In  In6  1  0.50033000  0.99982000  0.12121000  1.0
  In  In7  1  0.99984000  0.49986000  0.09455000  1.0
  Ga  Ga8  1  0.00000000  0.50000000  0.96747000  1.0
  Ga  Ga9  1  0.50000000  0.00000000  0.96747000  1.0
  Ga  Ga10  1  0.50007000  0.50002000  0.09841000  1.0
  Ga  Ga11  1  0.99980000  0.99971000  0.09841000  1.0
  Pd  Pd12  1  0.25000000  0.75000000  0.90241000  1.0
  Pd  Pd13  1  0.26401000  0.23592000  0.03310000  1.0
  Pd  Pd14  1  0.73595000  0.76396000  0.03304000  1.0
  Pd  Pd15  1  0.75000000  0.25000000  0.90241000  1.0
  C  C16  1  0.99639000  0.49519000  0.22752000  1.0
  O  O17  1  0.00102000  0.50123000  0.27314000  1.0
