# generated using pymatgen
data_Zr4Co8Sn4CO
_symmetry_space_group_name_H-M   'P 1'
_cell_length_a   6.31315000
_cell_length_b   6.31315000
_cell_length_c   24.73490000
_cell_angle_alpha   90.00000000
_cell_angle_beta   90.00000000
_cell_angle_gamma   90.00000000
_symmetry_Int_Tables_number   1
_chemical_formula_structural   Zr4Co8Sn4CO
_chemical_formula_sum   'Zr4 Co8 Sn4 C1 O1'
_cell_volume   985.83078380
_cell_formula_units_Z   1
loop_
 _symmetry_equiv_pos_site_id
 _symmetry_equiv_pos_as_xyz
  1  'x, y, z'
loop_
 _atom_site_type_symbol
 _atom_site_label
 _atom_site_symmetry_multiplicity
 _atom_site_fract_x
 _atom_site_fract_y
 _atom_site_fract_z
 _atom_site_occupancy
  Zr  Zr0  1  0.00000000  0.50000000  0.09571000  1.0
  Zr  Zr1  1  0.50000000  0.00000000  0.09571000  1.0
  Zr  Zr2  1  0.50000000  0.50000000  0.96810000  1.0
  Zr  Zr3  1  0.00000000  0.00000000  0.96810000  1.0
  Co  Co4  1  0.25000000  0.75000000  0.03190000  1.0
  Co  Co5  1  0.75000000  0.25000000  0.90429000  1.0
  Co  Co6  1  0.75000000  0.75000000  0.03190000  1.0
  Co  Co7  1  0.25000000  0.25000000  0.90429000  1.0
  Co  Co8  1  0.75000000  0.25000000  0.03190000  1.0
  Co  Co9  1  0.25000000  0.75000000  0.90429000  1.0
  Co  Co10  1  0.25000000  0.25000000  0.03190000  1.0
  Co  Co11  1  0.75000000  0.75000000  0.90429000  1.0
  Sn  Sn12  1  0.00000000  0.50000000  0.96810000  1.0
  Sn  Sn13  1  0.50000000  0.50000000  0.09571000  1.0
  Sn  Sn14  1  0.00000000  0.00000000  0.09571000  1.0
  Sn  Sn15  1  0.50000000  0.00000000  0.96810000  1.0
  C  C16  1  0.00000000  0.00000000  0.17253000  1.0
  O  O17  1  0.00000000  0.00000000  0.21902000  1.0
