# generated using pymatgen
data_Li4In4Pd4Rh4CO
_symmetry_space_group_name_H-M   'P 1'
_cell_length_a   6.29773000
_cell_length_b   6.29773000
_cell_length_c   24.72330000
_cell_angle_alpha   90.00000000
_cell_angle_beta   90.00000000
_cell_angle_gamma   90.00000000
_symmetry_Int_Tables_number   1
_chemical_formula_structural   Li4In4Pd4Rh4CO
_chemical_formula_sum   'Li4 In4 Pd4 Rh4 C1 O1'
_cell_volume   980.56076857
_cell_formula_units_Z   1
loop_
 _symmetry_equiv_pos_site_id
 _symmetry_equiv_pos_as_xyz
  1  'x, y, z'
loop_
 _atom_site_type_symbol
 _atom_site_label
 _atom_site_symmetry_multiplicity
 _atom_site_fract_x
 _atom_site_fract_y
 _atom_site_fract_z
 _atom_site_occupancy
  Li  Li0  1  0.50000000  0.99999000  0.09552000  1
  Li  Li1  1  0.99701500  0.00298500  0.96397000  1
  Li  Li2  1  0.50087000  0.49913000  0.96350000  1
  Li  Li3  1  0.00001000  0.50000000  0.09552000  1
  In  In4  1  0.00000500  0.99999500  0.09552000  1
  In  In5  1  0.49938000  0.99908000  0.96698000  1
  In  In6  1  0.00092000  0.50062000  0.96698000  1
  In  In7  1  0.50000500  0.49999500  0.09552000  1
  Pd  Pd8  1  0.25000000  0.24999000  0.03184000  1
  Pd  Pd9  1  0.75028500  0.24971500  0.90502000  1
  Pd  Pd10  1  0.24886500  0.75113500  0.90209000  1
  Pd  Pd11  1  0.75001000  0.75000000  0.03184000  1
  Rh  Rh12  1  0.25000500  0.74999500  0.03184000  1
  Rh  Rh13  1  0.75043000  0.74995000  0.90733000  1
  Rh  Rh14  1  0.25005000  0.24957000  0.90733000  1
  Rh  Rh15  1  0.75000500  0.24999500  0.03184000  1
  C  C16  1  0.24870000  0.75130000  0.82377000  1
  O  O17  1  0.24931500  0.75068500  0.77731000  1
