# generated using pymatgen
data_Ti8In8Cu16C
_symmetry_space_group_name_H-M   'P 1'
_cell_length_a   6.30953000
_cell_length_b   8.92302000
_cell_length_c   26.69230000
_cell_angle_alpha   90.00000000
_cell_angle_beta   90.00000000
_cell_angle_gamma   90.00000000
_symmetry_Int_Tables_number   1
_chemical_formula_structural   Ti8In8Cu16C
_chemical_formula_sum   'Ti8 In8 Cu16 C1'
_cell_volume   1502.77815508
_cell_formula_units_Z   1
loop_
 _symmetry_equiv_pos_site_id
 _symmetry_equiv_pos_as_xyz
  1  'x, y, z'
loop_
 _atom_site_type_symbol
 _atom_site_label
 _atom_site_symmetry_multiplicity
 _atom_site_fract_x
 _atom_site_fract_y
 _atom_site_fract_z
 _atom_site_occupancy
  Ti  Ti0  1  0.00000000  0.50000000  0.87464000  1.0
  Ti  Ti1  1  0.50000000  0.75001000  0.95821000  1.0
  Ti  Ti2  1  0.50000000  0.24999000  0.95821000  1.0
  Ti  Ti3  1  0.00000000  0.00000000  0.87464000  1.0
  Ti  Ti4  1  0.00000000  0.00000000  0.04327000  1.0
  Ti  Ti5  1  0.50000000  0.27628000  0.12329000  1.0
  Ti  Ti6  1  0.50000000  0.72372000  0.12329000  1.0
  Ti  Ti7  1  0.00000000  0.50000000  0.04205000  1.0
  In  In8  1  0.00000000  0.25001000  0.95821000  1.0
  In  In9  1  0.50000000  0.50000000  0.87464000  1.0
  In  In10  1  0.00000000  0.74999000  0.95821000  1.0
  In  In11  1  0.50000000  0.00000000  0.87464000  1.0
  In  In12  1  0.00000000  0.77084000  0.13315000  1.0
  In  In13  1  0.50000000  0.00000000  0.03990000  1.0
  In  In14  1  0.00000000  0.22916000  0.13315000  1.0
  In  In15  1  0.50000000  0.50000000  0.04047000  1.0
  Cu  Cu16  1  0.25000000  0.50000000  0.95821000  1.0
  Cu  Cu17  1  0.75000000  0.00000000  0.95821000  1.0
  Cu  Cu18  1  0.75000000  0.50000000  0.95821000  1.0
  Cu  Cu19  1  0.25000000  0.00000000  0.95821000  1.0
  Cu  Cu20  1  0.75000000  0.25001000  0.87464000  1.0
  Cu  Cu21  1  0.25000000  0.74999000  0.87464000  1.0
  Cu  Cu22  1  0.25000000  0.25001000  0.87464000  1.0
  Cu  Cu23  1  0.75000000  0.74999000  0.87464000  1.0
  Cu  Cu24  1  0.28968000  0.00000000  0.12733000  1.0
  Cu  Cu25  1  0.80477000  0.50000000  0.13009000  1.0
  Cu  Cu26  1  0.71032000  0.00000000  0.12733000  1.0
  Cu  Cu27  1  0.19523000  0.50000000  0.13009000  1.0
  Cu  Cu28  1  0.75709000  0.75132000  0.04318000  1.0
  Cu  Cu29  1  0.24291000  0.24868000  0.04318000  1.0
  Cu  Cu30  1  0.24291000  0.75132000  0.04318000  1.0
  Cu  Cu31  1  0.75709000  0.24868000  0.04318000  1.0
  C  C32  1  0.50000000  0.50000000  0.13958000  1.0
