data_image0
_chemical_formula_structural       In8Rh8C
_chemical_formula_sum              "In8 Rh8 C1"
_cell_length_a       6.51708
_cell_length_b       6.51708
_cell_length_c       24.8878
_cell_angle_alpha    90
_cell_angle_beta     90
_cell_angle_gamma    90

_space_group_name_H-M_alt    "P 1"
_space_group_IT_number       1

loop_
  _space_group_symop_operation_xyz
  'x, y, z'

loop_
  _atom_site_type_symbol
  _atom_site_label
  _atom_site_symmetry_multiplicity
  _atom_site_fract_x
  _atom_site_fract_y
  _atom_site_fract_z
  _atom_site_occupancy
  In  In1       1.0  0.00000  0.00000  0.90359  1.0000
  In  In2       1.0  0.99994  0.00001  0.02671  1.0000
  In  In3       1.0  0.00000  0.50000  0.90359  1.0000
  In  In4       1.0  1.00000  0.50000  0.04348  1.0000
  In  In5       1.0  0.50000  0.00000  0.90359  1.0000
  In  In6       1.0  0.50000  1.00000  0.04350  1.0000
  In  In7       1.0  0.50000  0.50000  0.90359  1.0000
  In  In8       1.0  0.49999  0.49998  0.05241  1.0000
  Rh  Rh1       1.0  0.25000  0.25000  0.96906  1.0000
  Rh  Rh2       1.0  0.21471  0.21480  0.10375  1.0000
  Rh  Rh3       1.0  0.25000  0.75000  0.96906  1.0000
  Rh  Rh4       1.0  0.21468  0.78520  0.10374  1.0000
  Rh  Rh5       1.0  0.75000  0.25000  0.96906  1.0000
  Rh  Rh6       1.0  0.78519  0.21481  0.10371  1.0000
  Rh  Rh7       1.0  0.75000  0.75000  0.96906  1.0000
  Rh  Rh8       1.0  0.78519  0.78523  0.10371  1.0000
  C   C1        1.0  0.99996  0.00001  0.12445  1.0000
