# generated using pymatgen
data_In8Rh8C
_symmetry_space_group_name_H-M   'P 1'
_cell_length_a   6.51708000
_cell_length_b   6.51708000
_cell_length_c   24.88780000
_cell_angle_alpha   90.00000000
_cell_angle_beta   90.00000000
_cell_angle_gamma   90.00000000
_symmetry_Int_Tables_number   1
_chemical_formula_structural   In8Rh8C
_chemical_formula_sum   'In8 Rh8 C1'
_cell_volume   1057.04289754
_cell_formula_units_Z   1
loop_
 _symmetry_equiv_pos_site_id
 _symmetry_equiv_pos_as_xyz
  1  'x, y, z'
loop_
 _atom_site_type_symbol
 _atom_site_label
 _atom_site_symmetry_multiplicity
 _atom_site_fract_x
 _atom_site_fract_y
 _atom_site_fract_z
 _atom_site_occupancy
  In  In0  1  0.00000000  0.00000000  0.09641000  1.0
  In  In1  1  0.00000000  0.99994000  0.97329000  1.0
  In  In2  1  0.50000000  1.00000000  0.09641000  1.0
  In  In3  1  0.50000000  1.00000000  0.95652000  1.0
  In  In4  1  0.00000000  0.50000000  0.09641000  1.0
  In  In5  1  0.00000000  0.50000000  0.95650000  1.0
  In  In6  1  0.50000000  0.50000000  0.09641000  1.0
  In  In7  1  0.50000000  0.49999000  0.94759000  1.0
  Rh  Rh8  1  0.24999000  0.25000000  0.03094000  1.0
  Rh  Rh9  1  0.21479000  0.21471000  0.89625000  1.0
  Rh  Rh10  1  0.75001000  0.25000000  0.03094000  1.0
  Rh  Rh11  1  0.78521000  0.21471000  0.89625000  1.0
  Rh  Rh12  1  0.24999000  0.75000000  0.03094000  1.0
  Rh  Rh13  1  0.21480000  0.78519000  0.89629000  1.0
  Rh  Rh14  1  0.75001000  0.75000000  0.03094000  1.0
  Rh  Rh15  1  0.78520000  0.78519000  0.89629000  1.0
  C  C16  1  0.00000000  0.99996000  0.87555000  1.0
