data_image0
_chemical_formula_structural       Ti4Al4Fe8CO
_chemical_formula_sum              "Ti4 Al4 Fe8 C1 O1"
_cell_length_a       5.83886
_cell_length_b       5.83886
_cell_length_c       24.3791
_cell_angle_alpha    90
_cell_angle_beta     90
_cell_angle_gamma    90

_space_group_name_H-M_alt    "P 1"
_space_group_IT_number       1

loop_
  _space_group_symop_operation_xyz
  'x, y, z'

loop_
  _atom_site_type_symbol
  _atom_site_label
  _atom_site_symmetry_multiplicity
  _atom_site_fract_x
  _atom_site_fract_y
  _atom_site_fract_z
  _atom_site_occupancy
  Ti  Ti1       1.0  0.00000  0.00000  0.08981  1.0000
  Ti  Ti2       1.0  0.50000  0.50000  0.08981  1.0000
  Ti  Ti3       1.0  0.50000  0.00000  0.97006  1.0000
  Ti  Ti4       1.0  0.00000  0.50000  0.97006  1.0000
  Al  Al1       1.0  0.00000  0.00000  0.97006  1.0000
  Al  Al2       1.0  0.50000  0.00000  0.08981  1.0000
  Al  Al3       1.0  0.00000  0.50000  0.08981  1.0000
  Al  Al4       1.0  0.50000  0.50000  0.97006  1.0000
  Fe  Fe1       1.0  0.25000  0.25000  0.02994  1.0000
  Fe  Fe2       1.0  0.75000  0.75000  0.91019  1.0000
  Fe  Fe3       1.0  0.75000  0.25000  0.02994  1.0000
  Fe  Fe4       1.0  0.25000  0.75000  0.91019  1.0000
  Fe  Fe5       1.0  0.75000  0.75000  0.02994  1.0000
  Fe  Fe6       1.0  0.25000  0.25000  0.91019  1.0000
  Fe  Fe7       1.0  0.25000  0.75000  0.02994  1.0000
  Fe  Fe8       1.0  0.75000  0.25000  0.91019  1.0000
  C   C1        1.0  0.00000  0.00000  0.16775  1.0000
  O   O1        1.0  0.00000  0.00000  0.21492  1.0000
