# generated using pymatgen
data_Li16Bi8Au8C
_symmetry_space_group_name_H-M   'P 1'
_cell_length_a   9.72919000
_cell_length_b   6.87958000
_cell_length_c   27.29690000
_cell_angle_alpha   90.00000000
_cell_angle_beta   90.00000000
_cell_angle_gamma   90.00000000
_symmetry_Int_Tables_number   1
_chemical_formula_structural   Li16Bi8Au8C
_chemical_formula_sum   'Li16 Bi8 Au8 C1'
_cell_volume   1827.05633617
_cell_formula_units_Z   1
loop_
 _symmetry_equiv_pos_site_id
 _symmetry_equiv_pos_as_xyz
  1  'x, y, z'
loop_
 _atom_site_type_symbol
 _atom_site_label
 _atom_site_symmetry_multiplicity
 _atom_site_fract_x
 _atom_site_fract_y
 _atom_site_fract_z
 _atom_site_occupancy
  Li  Li0  1  0.50000000  1.00000000  0.04455000  1.0
  Li  Li1  1  0.74999000  0.50000000  0.13366000  1.0
  Li  Li2  1  0.00000000  0.00000000  0.04455000  1.0
  Li  Li3  1  0.25001000  0.50000000  0.13366000  1.0
  Li  Li4  1  0.00000000  0.25000000  0.13366000  1.0
  Li  Li5  1  0.50000000  0.25000000  0.13366000  1.0
  Li  Li6  1  0.24999000  0.75000000  0.04455000  1.0
  Li  Li7  1  0.75001000  0.75000000  0.04455000  1.0
  Li  Li8  1  0.00000000  0.03258000  0.87193000  1.0
  Li  Li9  1  0.25059000  0.50132000  0.96199000  1.0
  Li  Li10  1  0.50000000  0.02238000  0.87523000  1.0
  Li  Li11  1  0.74941000  0.50132000  0.96199000  1.0
  Li  Li12  1  0.50000000  0.27993000  0.95091000  1.0
  Li  Li13  1  0.00000000  0.29751000  0.94498000  1.0
  Li  Li14  1  0.72691000  0.69225000  0.86913000  1.0
  Li  Li15  1  0.27309000  0.69225000  0.86913000  1.0
  Bi  Bi16  1  0.74999000  0.00000000  0.13366000  1.0
  Bi  Bi17  1  0.00000000  0.50000000  0.04455000  1.0
  Bi  Bi18  1  0.50000000  0.50000000  0.04455000  1.0
  Bi  Bi19  1  0.25001000  0.00000000  0.13366000  1.0
  Bi  Bi20  1  0.26571000  0.97200000  0.95349000  1.0
  Bi  Bi21  1  0.50000000  0.42899000  0.84707000  1.0
  Bi  Bi22  1  0.00000000  0.64084000  0.83601000  1.0
  Bi  Bi23  1  0.73429000  0.97200000  0.95349000  1.0
  Au  Au24  1  0.74999000  0.25000000  0.04455000  1.0
  Au  Au25  1  0.25001000  0.25000000  0.04455000  1.0
  Au  Au26  1  0.50000000  0.75000000  0.13366000  1.0
  Au  Au27  1  0.00000000  0.75000000  0.13366000  1.0
  Au  Au28  1  0.21911000  0.28779000  0.87849000  1.0
  Au  Au29  1  0.78089000  0.28779000  0.87849000  1.0
  Au  Au30  1  0.00000000  0.75564000  0.95226000  1.0
  Au  Au31  1  0.50000000  0.69037000  0.93492000  1.0
  C  C32  1  0.00000000  0.33824000  0.86392000  1.0
