# generated using pymatgen
data_Li16Bi8Au8C
_symmetry_space_group_name_H-M   Pm
_cell_length_a   6.87958000
_cell_length_b   9.72919000
_cell_length_c   27.29690000
_cell_angle_alpha   90.00000000
_cell_angle_beta   90.00000000
_cell_angle_gamma   90.00000000
_symmetry_Int_Tables_number   6
_chemical_formula_structural   Li16Bi8Au8C
_chemical_formula_sum   'Li16 Bi8 Au8 C1'
_cell_volume   1827.05633617
_cell_formula_units_Z   1
loop_
 _symmetry_equiv_pos_site_id
 _symmetry_equiv_pos_as_xyz
  1  'x, y, z'
  2  'x, -y, z'
loop_
 _atom_site_type_symbol
 _atom_site_label
 _atom_site_symmetry_multiplicity
 _atom_site_fract_x
 _atom_site_fract_y
 _atom_site_fract_z
 _atom_site_occupancy
  Li  Li0  2  0.50000000  0.25001000  0.86634000  1.0
  Li  Li1  2  0.50132000  0.25059000  0.03801000  1.0
  Li  Li2  2  0.69225000  0.27309000  0.13087000  1.0
  Li  Li3  2  0.75000000  0.24999000  0.95545000  1.0
  Li  Li4  1  -0.00000000  0.50000000  0.95545000  1.0
  Li  Li5  1  0.00000000  0.00000000  0.95545000  1.0
  Li  Li6  1  0.02238000  0.50000000  0.12477000  1.0
  Li  Li7  1  0.03258000  0.00000000  0.12807000  1.0
  Li  Li8  1  0.25000000  0.00000000  0.86634000  1.0
  Li  Li9  1  0.25000000  0.50000000  0.86634000  1.0
  Li  Li10  1  0.27993000  0.50000000  0.04909000  1.0
  Li  Li11  1  0.29751000  0.00000000  0.05502000  1.0
  Bi  Bi12  2  0.00000000  0.25001000  0.86634000  1.0
  Bi  Bi13  2  0.97200000  0.26571000  0.04651000  1.0
  Bi  Bi14  1  0.42899000  0.50000000  0.15293000  1.0
  Bi  Bi15  1  0.50000000  0.00000000  0.95545000  1.0
  Bi  Bi16  1  0.50000000  0.50000000  0.95545000  1.0
  Bi  Bi17  1  0.64084000  0.00000000  0.16399000  1.0
  Au  Au18  2  0.25000000  0.25001000  0.95545000  1.0
  Au  Au19  2  0.28779000  0.21911000  0.12151000  1.0
  Au  Au20  1  0.69037000  0.50000000  0.06508000  1.0
  Au  Au21  1  0.75000000  0.00000000  0.86634000  1.0
  Au  Au22  1  0.75000000  0.50000000  0.86634000  1.0
  Au  Au23  1  0.75564000  0.00000000  0.04774000  1.0
  C  C24  1  0.33824000  0.00000000  0.13608000  1.0
