# generated using pymatgen
data_ScInGePd
_symmetry_space_group_name_H-M   Pmm2
_cell_length_a   3.88289000
_cell_length_b   4.64184000
_cell_length_c   26.28540000
_cell_angle_alpha   90.00000000
_cell_angle_beta   90.00000000
_cell_angle_gamma   90.00000000
_symmetry_Int_Tables_number   25
_chemical_formula_structural   ScInGePd
_chemical_formula_sum   'Sc2 In2 Ge2 Pd2'
_cell_volume   473.76158648
_cell_formula_units_Z   2
loop_
 _symmetry_equiv_pos_site_id
 _symmetry_equiv_pos_as_xyz
  1  'x, y, z'
  2  '-x, -y, z'
  3  '-x, y, z'
  4  'x, -y, z'
loop_
 _atom_site_type_symbol
 _atom_site_label
 _atom_site_symmetry_multiplicity
 _atom_site_fract_x
 _atom_site_fract_y
 _atom_site_fract_z
 _atom_site_occupancy
  Sc  Sc0  1  0.50000000  0.00000000  0.11956000  1.0
  Sc  Sc1  1  0.50000000  0.00000000  0.96015000  1.0
  In  In2  1  0.50000000  0.50000000  0.03985000  1.0
  In  In3  1  0.50000000  0.50000000  0.88044000  1.0
  Ge  Ge4  1  0.00000000  0.00000000  0.03985000  1.0
  Ge  Ge5  1  0.00000000  0.00000000  0.88044000  1.0
  Pd  Pd6  1  0.00000000  0.50000000  0.11956000  1.0
  Pd  Pd7  1  0.00000000  0.50000000  0.96015000  1.0
