data_image0
_chemical_formula_structural       Cu24Sn8C
_chemical_formula_sum              "Cu24 Sn8 C1"
_cell_length_a       6.23499
_cell_length_b       8.81761
_cell_length_c       26.6132
_cell_angle_alpha    90
_cell_angle_beta     90
_cell_angle_gamma    90

_space_group_name_H-M_alt    "P 1"
_space_group_IT_number       1

loop_
  _space_group_symop_operation_xyz
  'x, y, z'

loop_
  _atom_site_type_symbol
  _atom_site_label
  _atom_site_symmetry_multiplicity
  _atom_site_fract_x
  _atom_site_fract_y
  _atom_site_fract_z
  _atom_site_occupancy
  Cu  Cu1       1.0  0.25000  0.00000  0.95858  1.0000
  Cu  Cu2       1.0  0.75000  0.50000  0.95858  1.0000
  Cu  Cu3       1.0  0.75000  0.00000  0.95858  1.0000
  Cu  Cu4       1.0  0.25000  0.50000  0.95858  1.0000
  Cu  Cu5       1.0  0.75000  0.75000  0.87575  1.0000
  Cu  Cu6       1.0  0.25000  0.25000  0.87575  1.0000
  Cu  Cu7       1.0  0.25000  0.75000  0.87575  1.0000
  Cu  Cu8       1.0  0.75000  0.25000  0.87575  1.0000
  Cu  Cu9       1.0  0.00000  0.75000  0.95858  1.0000
  Cu  Cu10      1.0  0.50000  0.00000  0.87575  1.0000
  Cu  Cu11      1.0  0.00000  0.25000  0.95858  1.0000
  Cu  Cu12      1.0  0.50000  0.50000  0.87575  1.0000
  Cu  Cu13      1.0  0.29426  0.47330  0.11923  1.0000
  Cu  Cu14      1.0  0.71298  0.98884  0.11672  1.0000
  Cu  Cu15      1.0  0.71298  0.51116  0.11672  1.0000
  Cu  Cu16      1.0  0.29426  0.02670  0.11923  1.0000
  Cu  Cu17      1.0  0.69648  0.25000  0.05372  1.0000
  Cu  Cu18      1.0  0.27607  0.75000  0.04602  1.0000
  Cu  Cu19      1.0  0.28263  0.25000  0.05019  1.0000
  Cu  Cu20      1.0  0.70806  0.75000  0.05511  1.0000
  Cu  Cu21      1.0  0.97398  0.25000  0.12092  1.0000
  Cu  Cu22      1.0  0.49580  0.50468  0.03388  1.0000
  Cu  Cu23      1.0  0.01743  0.75000  0.11704  1.0000
  Cu  Cu24      1.0  0.49580  0.99532  0.03388  1.0000
  Sn  Sn1       1.0  0.00000  0.00000  0.87575  1.0000
  Sn  Sn2       1.0  0.50000  0.25000  0.95858  1.0000
  Sn  Sn3       1.0  0.50000  0.75000  0.95858  1.0000
  Sn  Sn4       1.0  0.00000  0.50000  0.87575  1.0000
  Sn  Sn5       1.0  0.99529  0.49754  0.04263  1.0000
  Sn  Sn6       1.0  0.46071  0.75000  0.14481  1.0000
  Sn  Sn7       1.0  0.59092  0.25000  0.16776  1.0000
  Sn  Sn8       1.0  0.99529  0.00246  0.04263  1.0000
  C   C1        1.0  0.27930  0.25000  0.12867  1.0000
