# generated using pymatgen
data_Cu24Sn8C
_symmetry_space_group_name_H-M   Pm
_cell_length_a   6.23499000
_cell_length_b   8.81761000
_cell_length_c   26.61320000
_cell_angle_alpha   90.00000000
_cell_angle_beta   90.00000000
_cell_angle_gamma   90.00000000
_symmetry_Int_Tables_number   6
_chemical_formula_structural   Cu24Sn8C
_chemical_formula_sum   'Cu24 Sn8 C1'
_cell_volume   1463.13279640
_cell_formula_units_Z   1
loop_
 _symmetry_equiv_pos_site_id
 _symmetry_equiv_pos_as_xyz
  1  'x, y, z'
  2  'x, -y, z'
loop_
 _atom_site_type_symbol
 _atom_site_label
 _atom_site_symmetry_multiplicity
 _atom_site_fract_x
 _atom_site_fract_y
 _atom_site_fract_z
 _atom_site_occupancy
  Cu  Cu0  2  0.25000000  0.25000000  0.95858000  1.0
  Cu  Cu1  2  0.29426000  0.22330000  0.11923000  1.0
  Cu  Cu2  2  0.49580000  0.25468000  0.03388000  1.0
  Cu  Cu3  2  0.50000000  0.25000000  0.87575000  1.0
  Cu  Cu4  2  0.71298000  0.26116000  0.11672000  1.0
  Cu  Cu5  2  0.75000000  0.25000000  0.95858000  1.0
  Cu  Cu6  1  0.00000000  0.00000000  0.95858000  1.0
  Cu  Cu7  1  0.00000000  0.50000000  0.95858000  1.0
  Cu  Cu8  1  0.01743000  0.50000000  0.11704000  1.0
  Cu  Cu9  1  0.25000000  0.00000000  0.87575000  1.0
  Cu  Cu10  1  0.25000000  0.50000000  0.87575000  1.0
  Cu  Cu11  1  0.27607000  0.50000000  0.04602000  1.0
  Cu  Cu12  1  0.28263000  0.00000000  0.05019000  1.0
  Cu  Cu13  1  0.69648000  0.00000000  0.05372000  1.0
  Cu  Cu14  1  0.70806000  0.50000000  0.05511000  1.0
  Cu  Cu15  1  0.75000000  0.00000000  0.87575000  1.0
  Cu  Cu16  1  0.75000000  0.50000000  0.87575000  1.0
  Cu  Cu17  1  0.97398000  0.00000000  0.12092000  1.0
  Sn  Sn18  2  0.00000000  0.25000000  0.87575000  1.0
  Sn  Sn19  2  0.99529000  0.24754000  0.04263000  1.0
  Sn  Sn20  1  0.46071000  0.50000000  0.14481000  1.0
  Sn  Sn21  1  0.50000000  0.00000000  0.95858000  1.0
  Sn  Sn22  1  0.50000000  0.50000000  0.95858000  1.0
  Sn  Sn23  1  0.59092000  0.00000000  0.16776000  1.0
  C  C24  1  0.27930000  0.00000000  0.12867000  1.0
