# generated using pymatgen
data_K3Pd
_symmetry_space_group_name_H-M   'P 1'
_cell_length_a   7.83179000
_cell_length_b   11.07580000
_cell_length_c   25.87380000
_cell_angle_alpha   90.00000000
_cell_angle_beta   90.00000000
_cell_angle_gamma   90.00000000
_symmetry_Int_Tables_number   1
_chemical_formula_structural   K3Pd
_chemical_formula_sum   'K12 Pd4'
_cell_volume   2244.37982226
_cell_formula_units_Z   4
loop_
 _symmetry_equiv_pos_site_id
 _symmetry_equiv_pos_as_xyz
  1  'x, y, z'
loop_
 _atom_site_type_symbol
 _atom_site_label
 _atom_site_symmetry_multiplicity
 _atom_site_fract_x
 _atom_site_fract_y
 _atom_site_fract_z
 _atom_site_occupancy
  K  K0  1  0.50000000  0.00000000  0.88005000  1.0
  K  K1  1  0.75999000  0.24997000  0.95436000  1.0
  K  K2  1  0.24001000  0.24997000  0.95436000  1.0
  K  K3  1  0.00000000  0.00000000  0.03784000  1.0
  K  K4  1  0.25000000  0.25000000  0.11351000  1.0
  K  K5  1  0.75000000  0.25000000  0.11351000  1.0
  K  K6  1  0.50000000  0.50000000  0.88009000  1.0
  K  K7  1  0.75999000  0.75003000  0.95436000  1.0
  K  K8  1  0.24001000  0.75003000  0.95436000  1.0
  K  K9  1  0.00000000  0.50000000  0.03784000  1.0
  K  K10  1  0.25000000  0.75000000  0.11351000  1.0
  K  K11  1  0.75000000  0.75000000  0.11351000  1.0
  Pd  Pd12  1  0.00000000  0.00000000  0.91596000  1.0
  Pd  Pd13  1  0.50000000  0.00000000  0.03784000  1.0
  Pd  Pd14  1  0.00000000  0.50000000  0.91596000  1.0
  Pd  Pd15  1  0.50000000  0.50000000  0.03784000  1.0
