# generated using pymatgen
data_Si16Ru16CO
_symmetry_space_group_name_H-M   Pmm2
_cell_length_a   5.87849000
_cell_length_b   8.31345000
_cell_length_c   26.23510000
_cell_angle_alpha   90.00000000
_cell_angle_beta   90.00000000
_cell_angle_gamma   90.00000000
_symmetry_Int_Tables_number   25
_chemical_formula_structural   Si16Ru16CO
_chemical_formula_sum   'Si16 Ru16 C1 O1'
_cell_volume   1282.12331219
_cell_formula_units_Z   1
loop_
 _symmetry_equiv_pos_site_id
 _symmetry_equiv_pos_as_xyz
  1  'x, y, z'
  2  '-x, -y, z'
  3  '-x, y, z'
  4  'x, -y, z'
loop_
 _atom_site_type_symbol
 _atom_site_label
 _atom_site_symmetry_multiplicity
 _atom_site_fract_x
 _atom_site_fract_y
 _atom_site_fract_z
 _atom_site_occupancy
  Si  Si0  2  0.00000000  0.24754000  0.04097000  1.0
  Si  Si1  2  0.00000000  0.25000000  0.88117000  1.0
  Si  Si2  2  0.50000000  0.24939000  0.04120000  1.0
  Si  Si3  2  0.50000000  0.25000000  0.88117000  1.0
  Si  Si4  1  0.00000000  0.00000000  0.13300000  1.0
  Si  Si5  1  0.00000000  0.00000000  0.96039000  1.0
  Si  Si6  1  0.00000000  0.50000000  0.11856000  1.0
  Si  Si7  1  0.00000000  0.50000000  0.96039000  1.0
  Si  Si8  1  0.50000000  0.00000000  0.12158000  1.0
  Si  Si9  1  0.50000000  0.00000000  0.96039000  1.0
  Si  Si10  1  0.50000000  0.50000000  0.11942000  1.0
  Si  Si11  1  0.50000000  0.50000000  0.96039000  1.0
  Ru  Ru12  4  0.24760000  0.24804000  0.11534000  1.0
  Ru  Ru13  4  0.25000000  0.25000000  0.96039000  1.0
  Ru  Ru14  2  0.24993000  0.50000000  0.03743000  1.0
  Ru  Ru15  2  0.25000000  0.00000000  0.88117000  1.0
  Ru  Ru16  2  0.25000000  0.50000000  0.88117000  1.0
  Ru  Ru17  2  0.25248000  0.00000000  0.03631000  1.0
  C  C18  1  0.00000000  0.00000000  0.20466000  1.0
  O  O19  1  0.00000000  0.00000000  0.24865000  1.0
