# generated using pymatgen
data_Y4In4Cu4Sn4CO
_symmetry_space_group_name_H-M   Pm
_cell_length_a   6.36255000
_cell_length_b   8.82850000
_cell_length_c   24.76930000
_cell_angle_alpha   90.00000000
_cell_angle_beta   90.00000000
_cell_angle_gamma   90.00000000
_symmetry_Int_Tables_number   6
_chemical_formula_structural   Y4In4Cu4Sn4CO
_chemical_formula_sum   'Y4 In4 Cu4 Sn4 C1 O1'
_cell_volume   1391.33548892
_cell_formula_units_Z   1
loop_
 _symmetry_equiv_pos_site_id
 _symmetry_equiv_pos_as_xyz
  1  'x, y, z'
  2  'x, -y, z'
loop_
 _atom_site_type_symbol
 _atom_site_label
 _atom_site_symmetry_multiplicity
 _atom_site_fract_x
 _atom_site_fract_y
 _atom_site_fract_z
 _atom_site_occupancy
  Y  Y0  2  0.18844000  0.25041000  0.95303000  1.0
  Y  Y1  2  0.77490000  0.25000000  0.09627000  1.0
  In  In2  2  0.27490000  0.25000000  0.09627000  1.0
  In  In3  2  0.67457000  0.25044000  0.96875000  1.0
  Cu  Cu4  1  0.51660000  0.00000000  0.03209000  1.0
  Cu  Cu5  1  0.51660000  0.50000000  0.03209000  1.0
  Cu  Cu6  1  0.88769000  0.50000000  0.92794000  1.0
  Cu  Cu7  1  0.88802000  0.00000000  0.92812000  1.0
  Sn  Sn8  1  0.01660000  0.00000000  0.03209000  1.0
  Sn  Sn9  1  0.01660000  0.50000000  0.03209000  1.0
  Sn  Sn10  1  0.48503000  0.00000000  0.89842000  1.0
  Sn  Sn11  1  0.48615000  0.50000000  0.89725000  1.0
  C  C12  1  0.63031000  0.00000000  0.74820000  1.0
  O  O13  1  0.47676000  0.00000000  0.72475000  1.0
