# generated using pymatgen
data_Mn8Ni16Sb8CO
_symmetry_space_group_name_H-M   Pmm2
_cell_length_a   6.10266000
_cell_length_b   8.63046000
_cell_length_c   26.47280000
_cell_angle_alpha   90.00000000
_cell_angle_beta   90.00000000
_cell_angle_gamma   90.00000000
_symmetry_Int_Tables_number   25
_chemical_formula_structural   Mn8Ni16Sb8CO
_chemical_formula_sum   'Mn8 Ni16 Sb8 C1 O1'
_cell_volume   1394.28962977
_cell_formula_units_Z   1
loop_
 _symmetry_equiv_pos_site_id
 _symmetry_equiv_pos_as_xyz
  1  'x, y, z'
  2  '-x, -y, z'
  3  '-x, y, z'
  4  'x, -y, z'
loop_
 _atom_site_type_symbol
 _atom_site_label
 _atom_site_symmetry_multiplicity
 _atom_site_fract_x
 _atom_site_fract_y
 _atom_site_fract_z
 _atom_site_occupancy
  Mn  Mn0  2  0.00000000  0.25000000  0.87775000  1.0
  Mn  Mn1  2  0.00000000  0.25067000  0.04077000  1.0
  Mn  Mn2  1  0.50000000  0.00000000  0.12145000  1.0
  Mn  Mn3  1  0.50000000  0.00000000  0.95925000  1.0
  Mn  Mn4  1  0.50000000  0.50000000  0.12441000  1.0
  Mn  Mn5  1  0.50000000  0.50000000  0.95925000  1.0
  Ni  Ni6  4  0.25000000  0.25000000  0.95925000  1.0
  Ni  Ni7  4  0.25212000  0.25082000  0.11633000  1.0
  Ni  Ni8  2  0.23833000  0.50000000  0.04380000  1.0
  Ni  Ni9  2  0.24182000  0.00000000  0.04250000  1.0
  Ni  Ni10  2  0.25000000  0.50000000  0.87775000  1.0
  Ni  Ni11  2  0.25000000  0.00000000  0.87775000  1.0
  Sb  Sb12  2  0.50000000  0.24923000  0.03960000  1.0
  Sb  Sb13  2  0.50000000  0.25000000  0.87775000  1.0
  Sb  Sb14  1  0.00000000  0.00000000  0.12822000  1.0
  Sb  Sb15  1  0.00000000  0.00000000  0.95925000  1.0
  Sb  Sb16  1  0.00000000  0.50000000  0.13166000  1.0
  Sb  Sb17  1  0.00000000  0.50000000  0.95925000  1.0
  C  C18  1  0.50000000  0.00000000  0.19412000  1.0
  O  O19  1  0.50000000  0.00000000  0.23771000  1.0
