# generated using pymatgen
data_Mg8Ni16Sn8CO
_symmetry_space_group_name_H-M   P1
_cell_length_a   6.22749000
_cell_length_b   8.80700000
_cell_length_c   26.60530000
_cell_angle_alpha   90.00000000
_cell_angle_beta   90.00000000
_cell_angle_gamma   90.00000000
_symmetry_Int_Tables_number   1
_chemical_formula_structural   Mg8Ni16Sn8CO
_chemical_formula_sum   'Mg8 Ni16 Sn8 C1 O1'
_cell_volume   1459.18109901
_cell_formula_units_Z   1
loop_
 _symmetry_equiv_pos_site_id
 _symmetry_equiv_pos_as_xyz
  1  'x, y, z'
loop_
 _atom_site_type_symbol
 _atom_site_label
 _atom_site_symmetry_multiplicity
 _atom_site_fract_x
 _atom_site_fract_y
 _atom_site_fract_z
 _atom_site_occupancy
  Mg  Mg0  1  0.00000000  0.00000000  0.87587000  1.0
  Mg  Mg1  1  0.00000000  0.50000000  0.87587000  1.0
  Mg  Mg2  1  0.49999000  0.25009000  0.12946000  1.0
  Mg  Mg3  1  0.49999000  0.74996000  0.12917000  1.0
  Mg  Mg4  1  0.50000000  0.25000000  0.95862000  1.0
  Mg  Mg5  1  0.50000000  0.75000000  0.95862000  1.0
  Mg  Mg6  1  0.99997000  0.49883000  0.03838000  1.0
  Mg  Mg7  1  0.99998000  0.00116000  0.03839000  1.0
  Ni  Ni8  1  0.22823000  0.50002000  0.11741000  1.0
  Ni  Ni9  1  0.22828000  0.00002000  0.11743000  1.0
  Ni  Ni10  1  0.24629000  0.74996000  0.04345000  1.0
  Ni  Ni11  1  0.25000000  0.00000000  0.95862000  1.0
  Ni  Ni12  1  0.25000000  0.25000000  0.87587000  1.0
  Ni  Ni13  1  0.25000000  0.50000000  0.95862000  1.0
  Ni  Ni14  1  0.25000000  0.75000000  0.87587000  1.0
  Ni  Ni15  1  0.25285000  0.25000000  0.04323000  1.0
  Ni  Ni16  1  0.74724000  0.25001000  0.04321000  1.0
  Ni  Ni17  1  0.75000000  0.00000000  0.95862000  1.0
  Ni  Ni18  1  0.75000000  0.25000000  0.87587000  1.0
  Ni  Ni19  1  0.75000000  0.50000000  0.95862000  1.0
  Ni  Ni20  1  0.75000000  0.75000000  0.87587000  1.0
  Ni  Ni21  1  0.75357000  0.74999000  0.04346000  1.0
  Ni  Ni22  1  0.77152000  0.00007000  0.11748000  1.0
  Ni  Ni23  1  0.77156000  0.49992000  0.11746000  1.0
  Sn  Sn24  1  0.00000000  0.25000000  0.95862000  1.0
  Sn  Sn25  1  0.00000000  0.75000000  0.95862000  1.0
  Sn  Sn26  1  0.50000000  0.00000000  0.87587000  1.0
  Sn  Sn27  1  0.50000000  0.50000000  0.87587000  1.0
  Sn  Sn28  1  0.50000000  0.99888000  0.04236000  1.0
  Sn  Sn29  1  0.50001000  0.50112000  0.04235000  1.0
  Sn  Sn30  1  0.99997000  0.75000000  0.13012000  1.0
  Sn  Sn31  1  0.99999000  0.25001000  0.12917000  1.0
  C  C32  1  0.00063000  0.25032000  0.28144000  1.0
  O  O33  1  0.99995000  0.24997000  0.32409000  1.0
