# generated using pymatgen
data_Zr4Pt12C
_symmetry_space_group_name_H-M   Pm
_cell_length_a   8.14544000
_cell_length_b   5.75970000
_cell_length_c   24.31980000
_cell_angle_alpha   90.00000000
_cell_angle_beta   90.00000000
_cell_angle_gamma   90.00000000
_symmetry_Int_Tables_number   6
_chemical_formula_structural   Zr4Pt12C
_chemical_formula_sum   'Zr4 Pt12 C1'
_cell_volume   1140.97048842
_cell_formula_units_Z   1
loop_
 _symmetry_equiv_pos_site_id
 _symmetry_equiv_pos_as_xyz
  1  'x, y, z'
  2  'x, -y, z'
loop_
 _atom_site_type_symbol
 _atom_site_label
 _atom_site_symmetry_multiplicity
 _atom_site_fract_x
 _atom_site_fract_y
 _atom_site_fract_z
 _atom_site_occupancy
  Zr  Zr0  1  0.00000000  0.00000000  0.91119000  1.0
  Zr  Zr1  1  0.00003000  0.50000000  0.02589000  1.0
  Zr  Zr2  1  0.49993000  0.50000000  0.03573000  1.0
  Zr  Zr3  1  0.50000000  0.00000000  0.91119000  1.0
  Pt  Pt4  2  0.20227000  0.25445000  0.09131000  1.0
  Pt  Pt5  2  0.25000000  0.25006000  0.97040000  1.0
  Pt  Pt6  2  0.75000000  0.25006000  0.97040000  1.0
  Pt  Pt7  2  0.79786000  0.25440000  0.09136000  1.0
  Pt  Pt8  1  0.00000000  0.50000000  0.91119000  1.0
  Pt  Pt9  1  0.00006000  0.00000000  0.01930000  1.0
  Pt  Pt10  1  0.50000000  0.50000000  0.91119000  1.0
  Pt  Pt11  1  0.50001000  0.00000000  0.02760000  1.0
  C  C12  1  0.99958000  0.00000000  0.10637000  1.0
