# generated using pymatgen
data_Ni24Pt8C
_symmetry_space_group_name_H-M   P4mm
_cell_length_a   7.35611000
_cell_length_b   7.35611000
_cell_length_c   25.51710000
_cell_angle_alpha   90.00000000
_cell_angle_beta   90.00000000
_cell_angle_gamma   90.00000000
_symmetry_Int_Tables_number   99
_chemical_formula_structural   Ni24Pt8C
_chemical_formula_sum   'Ni24 Pt8 C1'
_cell_volume   1380.79035673
_cell_formula_units_Z   1
loop_
 _symmetry_equiv_pos_site_id
 _symmetry_equiv_pos_as_xyz
  1  'x, y, z'
  2  '-y, x, z'
  3  '-x, -y, z'
  4  'y, -x, z'
  5  '-x, y, z'
  6  'y, x, z'
  7  'x, -y, z'
  8  '-y, -x, z'
loop_
 _atom_site_type_symbol
 _atom_site_label
 _atom_site_symmetry_multiplicity
 _atom_site_fract_x
 _atom_site_fract_y
 _atom_site_fract_z
 _atom_site_occupancy
  Ni  Ni0  4  0.00000000  0.25000000  0.10811000  1.0
  Ni  Ni1  4  0.00000000  0.25000000  0.96396000  1.0
  Ni  Ni2  4  0.25000000  0.50000000  0.10811000  1.0
  Ni  Ni3  4  0.25000000  0.50000000  0.96396000  1.0
  Ni  Ni4  2  0.00000000  0.50000000  0.03604000  1.0
  Ni  Ni5  2  0.00000000  0.50000000  0.89189000  1.0
  Ni  Ni6  1  0.00000000  0.00000000  0.03604000  1.0
  Ni  Ni7  1  0.00000000  0.00000000  0.89189000  1.0
  Ni  Ni8  1  0.50000000  0.50000000  0.03604000  1.0
  Ni  Ni9  1  0.50000000  0.50000000  0.89189000  1.0
  Pt  Pt10  4  0.25000000  0.25000000  0.03604000  1.0
  Pt  Pt11  4  0.25000000  0.25000000  0.89189000  1.0
  C  C12  1  0.00000000  0.00000000  0.13946000  1.0
