# generated using pymatgen
data_Li16In8Pt8C
_symmetry_space_group_name_H-M   Pm
_cell_length_a   6.43375000
_cell_length_b   9.09870000
_cell_length_c   26.82400000
_cell_angle_alpha   90.00000000
_cell_angle_beta   90.00000000
_cell_angle_gamma   90.00000000
_symmetry_Int_Tables_number   6
_chemical_formula_structural   Li16In8Pt8C
_chemical_formula_sum   'Li16 In8 Pt8 C1'
_cell_volume   1570.24372842
_cell_formula_units_Z   1
loop_
 _symmetry_equiv_pos_site_id
 _symmetry_equiv_pos_as_xyz
  1  'x, y, z'
  2  'x, -y, z'
loop_
 _atom_site_type_symbol
 _atom_site_label
 _atom_site_symmetry_multiplicity
 _atom_site_fract_x
 _atom_site_fract_y
 _atom_site_fract_z
 _atom_site_occupancy
  Li  Li0  2  -0.00000000  0.25000000  0.95760000  1.0
  Li  Li1  2  0.02158000  0.22938000  0.12714000  1.0
  Li  Li2  2  0.24679000  0.25325000  0.03949000  1.0
  Li  Li3  2  0.25000000  0.25000000  0.87280000  1.0
  Li  Li4  1  0.45268000  0.00000000  0.05460000  1.0
  Li  Li5  1  0.50000000  0.00000000  0.87280000  1.0
  Li  Li6  1  0.50000000  0.50000000  0.87280000  1.0
  Li  Li7  1  0.50264000  0.50000000  0.04168000  1.0
  Li  Li8  1  0.72338000  0.00000000  0.13944000  1.0
  Li  Li9  1  0.72515000  0.50000000  0.12572000  1.0
  Li  Li10  1  0.75000000  0.00000000  0.95760000  1.0
  Li  Li11  1  0.75000000  0.50000000  0.95760000  1.0
  In  In12  2  0.75000000  0.25000000  0.87280000  1.0
  In  In13  2  0.75170000  0.24597000  0.04096000  1.0
  In  In14  1  0.24392000  0.50000000  0.12812000  1.0
  In  In15  1  0.25000000  0.00000000  0.95760000  1.0
  In  In16  1  0.25000000  0.50000000  0.95760000  1.0
  In  In17  1  0.32020000  0.00000000  0.16316000  1.0
  Pt  Pt18  2  0.48308000  0.25290000  0.11899000  1.0
  Pt  Pt19  2  0.50000000  0.25000000  0.95760000  1.0
  Pt  Pt20  1  -0.00000000  0.50000000  0.87280000  1.0
  Pt  Pt21  1  0.00000000  0.00000000  0.87280000  1.0
  Pt  Pt22  1  0.02464000  0.00000000  0.04941000  1.0
  Pt  Pt23  1  0.99271000  0.50000000  0.04269000  1.0
  C  C24  1  0.02190000  0.00000000  0.12166000  1.0
