# generated using pymatgen
data_Li8Mg8Sb8Pd8C
_symmetry_space_group_name_H-M   'P 1'
_cell_length_a   9.29346000
_cell_length_b   6.57147000
_cell_length_c   26.97010000
_cell_angle_alpha   90.00000000
_cell_angle_beta   90.00000000
_cell_angle_gamma   90.00000000
_symmetry_Int_Tables_number   1
_chemical_formula_structural   Li8Mg8Sb8Pd8C
_chemical_formula_sum   'Li8 Mg8 Sb8 Pd8 C1'
_cell_volume   1647.10968319
_cell_formula_units_Z   1
loop_
 _symmetry_equiv_pos_site_id
 _symmetry_equiv_pos_as_xyz
  1  'x, y, z'
loop_
 _atom_site_type_symbol
 _atom_site_label
 _atom_site_symmetry_multiplicity
 _atom_site_fract_x
 _atom_site_fract_y
 _atom_site_fract_z
 _atom_site_occupancy
  Li  Li0  1  0.00000000  0.00000000  0.12922000  1.0
  Li  Li1  1  0.50000000  0.00000000  0.12922000  1.0
  Li  Li2  1  0.75000000  0.50000000  0.04307000  1.0
  Li  Li3  1  0.25000000  0.50000000  0.04307000  1.0
  Li  Li4  1  0.50000000  0.98364000  0.95217000  1.0
  Li  Li5  1  0.00000000  0.99460000  0.95556000  1.0
  Li  Li6  1  0.22407000  0.55772000  0.81650000  1.0
  Li  Li7  1  0.77593000  0.55772000  0.81650000  1.0
  Mg  Mg8  1  0.00000000  0.25000000  0.04307000  1.0
  Mg  Mg9  1  0.50000000  0.25000000  0.04307000  1.0
  Mg  Mg10  1  0.25000000  0.75000000  0.12922000  1.0
  Mg  Mg11  1  0.75000000  0.75000000  0.12922000  1.0
  Mg  Mg12  1  0.50000000  0.26166000  0.87246000  1.0
  Mg  Mg13  1  0.00000000  0.25732000  0.86596000  1.0
  Mg  Mg14  1  0.74768000  0.72622000  0.95264000  1.0
  Mg  Mg15  1  0.25232000  0.72622000  0.95264000  1.0
  Sb  Sb16  1  0.00000000  0.75000000  0.04307000  1.0
  Sb  Sb17  1  0.50000000  0.75000000  0.04307000  1.0
  Sb  Sb18  1  0.25000000  0.25000000  0.12922000  1.0
  Sb  Sb19  1  0.75000000  0.25000000  0.12922000  1.0
  Sb  Sb20  1  0.50000000  0.72594000  0.86434000  1.0
  Sb  Sb21  1  0.00000000  0.76816000  0.86951000  1.0
  Sb  Sb22  1  0.75025000  0.25337000  0.95479000  1.0
  Sb  Sb23  1  0.24975000  0.25337000  0.95479000  1.0
  Pd  Pd24  1  0.25000000  0.00000000  0.04307000  1.0
  Pd  Pd25  1  0.75000000  0.00000000  0.04307000  1.0
  Pd  Pd26  1  0.50000000  0.50000000  0.12922000  1.0
  Pd  Pd27  1  0.00000000  0.50000000  0.12922000  1.0
  Pd  Pd28  1  0.73800000  0.98841000  0.87845000  1.0
  Pd  Pd29  1  0.26200000  0.98841000  0.87845000  1.0
  Pd  Pd30  1  0.00000000  0.50116000  0.96072000  1.0
  Pd  Pd31  1  0.50000000  0.50223000  0.96189000  1.0
  C  C32  1  0.00000000  0.52096000  0.82042000  1.0
