data_image0
_chemical_formula_structural       V16Fe16CO
_chemical_formula_sum              "V16 Fe16 C1 O1"
_cell_length_a       5.79956
_cell_length_b       8.20182
_cell_length_c       26.1514
_cell_angle_alpha    90
_cell_angle_beta     90
_cell_angle_gamma    90

_space_group_name_H-M_alt    "P 1"
_space_group_IT_number       1

loop_
  _space_group_symop_operation_xyz
  'x, y, z'

loop_
  _atom_site_type_symbol
  _atom_site_label
  _atom_site_symmetry_multiplicity
  _atom_site_fract_x
  _atom_site_fract_y
  _atom_site_fract_z
  _atom_site_occupancy
  V   V1        1.0  0.25000  0.25000  0.88239  1.0000
  V   V2        1.0  0.25000  0.00000  0.96080  1.0000
  V   V3        1.0  0.25200  0.25000  0.03938  1.0000
  V   V4        1.0  0.25006  0.00110  0.11987  1.0000
  V   V5        1.0  0.25000  0.75000  0.88239  1.0000
  V   V6        1.0  0.25000  0.50000  0.96080  1.0000
  V   V7        1.0  0.24927  0.75000  0.04056  1.0000
  V   V8        1.0  0.25006  0.49890  0.11987  1.0000
  V   V9        1.0  0.75000  0.25000  0.88239  1.0000
  V   V10       1.0  0.75000  0.00000  0.96080  1.0000
  V   V11       1.0  0.74800  0.25000  0.03938  1.0000
  V   V12       1.0  0.74994  0.00110  0.11987  1.0000
  V   V13       1.0  0.75000  0.75000  0.88239  1.0000
  V   V14       1.0  0.75000  0.50000  0.96080  1.0000
  V   V15       1.0  0.75073  0.75000  0.04056  1.0000
  V   V16       1.0  0.74994  0.49890  0.11987  1.0000
  Fe  Fe1       1.0  0.00000  0.00000  0.88239  1.0000
  Fe  Fe2       1.0  0.00000  0.25000  0.96080  1.0000
  Fe  Fe3       1.0  0.00000  0.00627  0.04173  1.0000
  Fe  Fe4       1.0  0.00000  0.25000  0.11874  1.0000
  Fe  Fe5       1.0  0.00000  0.50000  0.88239  1.0000
  Fe  Fe6       1.0  0.00000  0.75000  0.96080  1.0000
  Fe  Fe7       1.0  0.00000  0.49373  0.04173  1.0000
  Fe  Fe8       1.0  0.00000  0.75000  0.11319  1.0000
  Fe  Fe9       1.0  0.50000  0.00000  0.88239  1.0000
  Fe  Fe10      1.0  0.50000  0.25000  0.96080  1.0000
  Fe  Fe11      1.0  0.50000  0.99782  0.04119  1.0000
  Fe  Fe12      1.0  0.50000  0.25000  0.11116  1.0000
  Fe  Fe13      1.0  0.50000  0.50000  0.88239  1.0000
  Fe  Fe14      1.0  0.50000  0.75000  0.96080  1.0000
  Fe  Fe15      1.0  0.50000  0.50218  0.04120  1.0000
  Fe  Fe16      1.0  0.50000  0.75000  0.11444  1.0000
  C   C1        1.0  0.00000  0.25000  0.18650  1.0000
  O   O1        1.0  0.00000  0.25000  0.23128  1.0000
