# generated using pymatgen
data_V16Fe16CO
_symmetry_space_group_name_H-M   'P 1'
_cell_length_a   5.79956000
_cell_length_b   8.20182000
_cell_length_c   26.15140000
_cell_angle_alpha   90.00000000
_cell_angle_beta   90.00000000
_cell_angle_gamma   90.00000000
_symmetry_Int_Tables_number   1
_chemical_formula_structural   V16Fe16CO
_chemical_formula_sum   'V16 Fe16 C1 O1'
_cell_volume   1243.94226299
_cell_formula_units_Z   1
loop_
 _symmetry_equiv_pos_site_id
 _symmetry_equiv_pos_as_xyz
  1  'x, y, z'
loop_
 _atom_site_type_symbol
 _atom_site_label
 _atom_site_symmetry_multiplicity
 _atom_site_fract_x
 _atom_site_fract_y
 _atom_site_fract_z
 _atom_site_occupancy
  V  V0  1  0.25000000  0.00000000  0.88239000  1.0
  V  V1  1  0.25000000  0.75000000  0.96080000  1.0
  V  V2  1  0.25200000  0.00000000  0.03938000  1.0
  V  V3  1  0.25006000  0.75110000  0.11987000  1.0
  V  V4  1  0.25000000  0.50000000  0.88239000  1.0
  V  V5  1  0.25000000  0.25000000  0.96080000  1.0
  V  V6  1  0.24927000  0.50000000  0.04056000  1.0
  V  V7  1  0.25006000  0.24890000  0.11987000  1.0
  V  V8  1  0.75000000  0.00000000  0.88239000  1.0
  V  V9  1  0.75000000  0.75000000  0.96080000  1.0
  V  V10  1  0.74800000  0.00000000  0.03938000  1.0
  V  V11  1  0.74994000  0.75110000  0.11987000  1.0
  V  V12  1  0.75000000  0.50000000  0.88239000  1.0
  V  V13  1  0.75000000  0.25000000  0.96080000  1.0
  V  V14  1  0.75073000  0.50000000  0.04056000  1.0
  V  V15  1  0.74994000  0.24890000  0.11987000  1.0
  Fe  Fe16  1  0.00000000  0.75000000  0.88239000  1.0
  Fe  Fe17  1  0.00000000  0.00000000  0.96080000  1.0
  Fe  Fe18  1  0.00000000  0.75627000  0.04173000  1.0
  Fe  Fe19  1  0.00000000  0.00000000  0.11874000  1.0
  Fe  Fe20  1  0.00000000  0.25000000  0.88239000  1.0
  Fe  Fe21  1  0.00000000  0.50000000  0.96080000  1.0
  Fe  Fe22  1  0.00000000  0.24373000  0.04173000  1.0
  Fe  Fe23  1  0.00000000  0.50000000  0.11319000  1.0
  Fe  Fe24  1  0.50000000  0.75000000  0.88239000  1.0
  Fe  Fe25  1  0.50000000  0.00000000  0.96080000  1.0
  Fe  Fe26  1  0.50000000  0.74782000  0.04119000  1.0
  Fe  Fe27  1  0.50000000  0.00000000  0.11116000  1.0
  Fe  Fe28  1  0.50000000  0.25000000  0.88239000  1.0
  Fe  Fe29  1  0.50000000  0.50000000  0.96080000  1.0
  Fe  Fe30  1  0.50000000  0.25218000  0.04119000  1.0
  Fe  Fe31  1  0.50000000  0.50000000  0.11444000  1.0
  C  C32  1  0.00000000  0.00000000  0.18650000  1.0
  O  O33  1  0.00000000  0.00000000  0.23128000  1.0
