# generated using pymatgen
data_Li4Ag8Ge4C
_symmetry_space_group_name_H-M   'P 1'
_cell_length_a   6.51415000
_cell_length_b   6.51415000
_cell_length_c   24.88560000
_cell_angle_alpha   90.00000000
_cell_angle_beta   90.00000000
_cell_angle_gamma   90.00000000
_symmetry_Int_Tables_number   1
_chemical_formula_structural   Li4Ag8Ge4C
_chemical_formula_sum   'Li4 Ag8 Ge4 C1'
_cell_volume   1055.99928878
_cell_formula_units_Z   1
loop_
 _symmetry_equiv_pos_site_id
 _symmetry_equiv_pos_as_xyz
  1  'x, y, z'
loop_
 _atom_site_type_symbol
 _atom_site_label
 _atom_site_symmetry_multiplicity
 _atom_site_fract_x
 _atom_site_fract_y
 _atom_site_fract_z
 _atom_site_occupancy
  Li  Li0  1  0.00000000  0.00000000  0.90184000  1.0
  Li  Li1  1  0.50000000  0.50000000  0.90184000  1.0
  Li  Li2  1  0.50002000  0.00000000  0.03684000  1.0
  Li  Li3  1  0.99999000  0.49997000  0.03113000  1.0
  Ag  Ag4  1  0.25000000  0.25000000  0.96728000  1.0
  Ag  Ag5  1  0.76349000  0.73622000  0.10215000  1.0
  Ag  Ag6  1  0.75000000  0.25000000  0.96728000  1.0
  Ag  Ag7  1  0.23630000  0.73609000  0.10211000  1.0
  Ag  Ag8  1  0.75000000  0.75000000  0.96728000  1.0
  Ag  Ag9  1  0.23628000  0.26409000  0.10206000  1.0
  Ag  Ag10  1  0.25000000  0.75000000  0.96728000  1.0
  Ag  Ag11  1  0.76383000  0.26398000  0.10207000  1.0
  Ge  Ge12  1  0.00012000  0.99985000  0.03801000  1.0
  Ge  Ge13  1  0.50000000  0.00000000  0.90184000  1.0
  Ge  Ge14  1  0.00000000  0.50000000  0.90184000  1.0
  Ge  Ge15  1  0.49984000  0.50014000  0.03794000  1.0
  C  C16  1  0.99997000  0.50002000  0.12497000  1.0
