# generated using pymatgen
data_V8Ni16Sn8C
_symmetry_space_group_name_H-M   'P 1'
_cell_length_a   8.60362000
_cell_length_b   6.08368000
_cell_length_c   26.45270000
_cell_angle_alpha   90.00000000
_cell_angle_beta   90.00000000
_cell_angle_gamma   90.00000000
_symmetry_Int_Tables_number   1
_chemical_formula_structural   V8Ni16Sn8C
_chemical_formula_sum   'V8 Ni16 Sn8 C1'
_cell_volume   1384.57851839
_cell_formula_units_Z   1
loop_
 _symmetry_equiv_pos_site_id
 _symmetry_equiv_pos_as_xyz
  1  'x, y, z'
loop_
 _atom_site_type_symbol
 _atom_site_label
 _atom_site_symmetry_multiplicity
 _atom_site_fract_x
 _atom_site_fract_y
 _atom_site_fract_z
 _atom_site_occupancy
  V  V0  1  0.75001000  0.00000000  0.12197000  1.0
  V  V1  1  0.00000000  0.50000000  0.04066000  1.0
  V  V2  1  0.50000000  0.50000000  0.04066000  1.0
  V  V3  1  0.24999000  0.00000000  0.12197000  1.0
  V  V4  1  0.25278000  0.99319000  0.95897000  1.0
  V  V5  1  0.50000000  0.49634000  0.88585000  1.0
  V  V6  1  0.00000000  0.53496000  0.88733000  1.0
  V  V7  1  0.74722000  0.99319000  0.95897000  1.0
  Ni  Ni8  1  0.75001000  0.25000000  0.04066000  1.0
  Ni  Ni9  1  0.25001000  0.75000000  0.04066000  1.0
  Ni  Ni10  1  0.74999000  0.75000000  0.04066000  1.0
  Ni  Ni11  1  0.24999000  0.25000000  0.04066000  1.0
  Ni  Ni12  1  0.50000000  0.75000000  0.12197000  1.0
  Ni  Ni13  1  0.00000000  0.25000000  0.12197000  1.0
  Ni  Ni14  1  0.50000000  0.25000000  0.12197000  1.0
  Ni  Ni15  1  0.00000000  0.75000000  0.12197000  1.0
  Ni  Ni16  1  0.22806000  0.22935000  0.88199000  1.0
  Ni  Ni17  1  0.74390000  0.74833000  0.88455000  1.0
  Ni  Ni18  1  0.25610000  0.74833000  0.88455000  1.0
  Ni  Ni19  1  0.77194000  0.22935000  0.88199000  1.0
  Ni  Ni20  1  0.00000000  0.76957000  0.95939000  1.0
  Ni  Ni21  1  0.50000000  0.23036000  0.95522000  1.0
  Ni  Ni22  1  0.00000000  0.18507000  0.94344000  1.0
  Ni  Ni23  1  0.50000000  0.77160000  0.95338000  1.0
  Sn  Sn24  1  0.50000000  1.00000000  0.04066000  1.0
  Sn  Sn25  1  0.75001000  0.50000000  0.12197000  1.0
  Sn  Sn26  1  0.00000000  1.00000000  0.04066000  1.0
  Sn  Sn27  1  0.24999000  0.50000000  0.12197000  1.0
  Sn  Sn28  1  0.00000000  0.91580000  0.83359000  1.0
  Sn  Sn29  1  0.24748000  0.49151000  0.96118000  1.0
  Sn  Sn30  1  0.50000000  0.01568000  0.86349000  1.0
  Sn  Sn31  1  0.75252000  0.49151000  0.96118000  1.0
  C  C32  1  0.00000000  0.24159000  0.86812000  1.0
