# generated using pymatgen
data_Li2InRh
_symmetry_space_group_name_H-M   'P 1'
_cell_length_a   6.34973000
_cell_length_b   6.34973000
_cell_length_c   24.76230000
_cell_angle_alpha   90.00000000
_cell_angle_beta   90.00000000
_cell_angle_gamma   90.00000000
_symmetry_Int_Tables_number   1
_chemical_formula_structural   Li2InRh
_chemical_formula_sum   'Li8 In4 Rh4'
_cell_volume   998.39293363
_cell_formula_units_Z   4
loop_
 _symmetry_equiv_pos_site_id
 _symmetry_equiv_pos_as_xyz
  1  'x, y, z'
loop_
 _atom_site_type_symbol
 _atom_site_label
 _atom_site_symmetry_multiplicity
 _atom_site_fract_x
 _atom_site_fract_y
 _atom_site_fract_z
 _atom_site_occupancy
  Li  Li0  1  0.00002000  0.50002000  0.97442000  1
  Li  Li1  1  0.50000000  0.50000000  0.09616000  1
  Li  Li2  1  0.00000000  0.00000000  0.09616000  1
  Li  Li3  1  0.50002000  0.00002000  0.97442000  1
  Li  Li4  1  0.25002000  0.25002000  0.90143000  1
  Li  Li5  1  0.25000000  0.75000000  0.03205000  1
  Li  Li6  1  0.75002000  0.75002000  0.90143000  1
  Li  Li7  1  0.75000000  0.25000000  0.03205000  1
  In  In8  1  0.25000000  0.25000000  0.03205000  1
  In  In9  1  0.25002000  0.75003000  0.90302000  1
  In  In10  1  0.75000000  0.75000000  0.03205000  1
  In  In11  1  0.75003000  0.25002000  0.90302000  1
  Rh  Rh12  1  0.00000000  0.50000000  0.09616000  1
  Rh  Rh13  1  0.50000000  0.00000000  0.09616000  1
  Rh  Rh14  1  0.49977500  0.49977500  0.96242000  1
  Rh  Rh15  1  0.99988500  0.99988500  0.96241000  1
