# generated using pymatgen
data_YAlInPd
_symmetry_space_group_name_H-M   'P 1'
_cell_length_a   4.43230000
_cell_length_b   4.60826000
_cell_length_c   26.12130000
_cell_angle_alpha   90.00000000
_cell_angle_beta   90.00000000
_cell_angle_gamma   90.00000000
_symmetry_Int_Tables_number   1
_chemical_formula_structural   YAlInPd
_chemical_formula_sum   'Y2 Al2 In2 Pd2'
_cell_volume   533.53253639
_cell_formula_units_Z   2
loop_
 _symmetry_equiv_pos_site_id
 _symmetry_equiv_pos_as_xyz
  1  'x, y, z'
loop_
 _atom_site_type_symbol
 _atom_site_label
 _atom_site_symmetry_multiplicity
 _atom_site_fract_x
 _atom_site_fract_y
 _atom_site_fract_z
 _atom_site_occupancy
  Y  Y0  1  0.00000000  0.50000000  0.96094000  1.0
  Y  Y1  1  0.00000000  0.50000000  0.11717000  1.0
  Al  Al2  1  0.00000000  0.00000000  0.88283000  1.0
  Al  Al3  1  0.00000000  0.00000000  0.03906000  1.0
  In  In4  1  0.50000000  0.00000000  0.96094000  1.0
  In  In5  1  0.50000000  0.00000000  0.11717000  1.0
  Pd  Pd6  1  0.50000000  0.50000000  0.88283000  1.0
  Pd  Pd7  1  0.50000000  0.50000000  0.03906000  1.0
