# generated using pymatgen
data_Nb12Ge4CO
_symmetry_space_group_name_H-M   'P 1'
_cell_length_a   5.80737000
_cell_length_b   8.21286000
_cell_length_c   24.35550000
_cell_angle_alpha   90.00000000
_cell_angle_beta   90.00000000
_cell_angle_gamma   90.00000000
_symmetry_Int_Tables_number   1
_chemical_formula_structural   Nb12Ge4CO
_chemical_formula_sum   'Nb12 Ge4 C1 O1'
_cell_volume   1161.63841669
_cell_formula_units_Z   1
loop_
 _symmetry_equiv_pos_site_id
 _symmetry_equiv_pos_as_xyz
  1  'x, y, z'
loop_
 _atom_site_type_symbol
 _atom_site_label
 _atom_site_symmetry_multiplicity
 _atom_site_fract_x
 _atom_site_fract_y
 _atom_site_fract_z
 _atom_site_occupancy
  Nb  Nb0  1  0.50000000  0.00000000  0.08942000  1.0
  Nb  Nb1  1  0.25000000  0.75000000  0.02981000  1.0
  Nb  Nb2  1  0.75000000  0.75000000  0.02981000  1.0
  Nb  Nb3  1  0.05274000  0.99843000  0.97035000  1.0
  Nb  Nb4  1  0.82700000  0.75004000  0.91009000  1.0
  Nb  Nb5  1  0.35356000  0.75002000  0.91253000  1.0
  Nb  Nb6  1  0.50000000  0.50000000  0.08942000  1.0
  Nb  Nb7  1  0.25000000  0.25000000  0.02981000  1.0
  Nb  Nb8  1  0.75000000  0.25000000  0.02981000  1.0
  Nb  Nb9  1  0.05271000  0.50159000  0.97034000  1.0
  Nb  Nb10  1  0.81722000  0.24997000  0.91590000  1.0
  Nb  Nb11  1  0.36104000  0.24998000  0.92164000  1.0
  Ge  Ge12  1  0.00000000  0.00000000  0.08942000  1.0
  Ge  Ge13  1  0.54723000  0.99427000  0.97203000  1.0
  Ge  Ge14  1  0.00000000  0.50000000  0.08942000  1.0
  Ge  Ge15  1  0.54716000  0.50572000  0.97207000  1.0
  C  C16  1  0.60921000  0.75002000  0.84263000  1.0
  O  O17  1  0.43064000  0.75001000  0.81634000  1.0
