# generated using pymatgen
data_Nb8Ir24C
_symmetry_space_group_name_H-M   'P 1'
_cell_length_a   7.87138000
_cell_length_b   7.87138000
_cell_length_c   25.90350000
_cell_angle_alpha   90.00000000
_cell_angle_beta   90.00000000
_cell_angle_gamma   90.00000000
_symmetry_Int_Tables_number   1
_chemical_formula_structural   Nb8Ir24C
_chemical_formula_sum   'Nb8 Ir24 C1'
_cell_volume   1604.94519358
_cell_formula_units_Z   1
loop_
 _symmetry_equiv_pos_site_id
 _symmetry_equiv_pos_as_xyz
  1  'x, y, z'
loop_
 _atom_site_type_symbol
 _atom_site_label
 _atom_site_symmetry_multiplicity
 _atom_site_fract_x
 _atom_site_fract_y
 _atom_site_fract_z
 _atom_site_occupancy
  Nb  Nb0  1  0.00000000  0.00000000  0.88605000  1.0
  Nb  Nb1  1  0.00000000  0.00000000  0.03798000  1.0
  Nb  Nb2  1  0.00000000  0.50000000  0.88605000  1.0
  Nb  Nb3  1  0.00000000  0.50000000  0.03798000  1.0
  Nb  Nb4  1  0.50000000  0.00000000  0.88605000  1.0
  Nb  Nb5  1  0.50000000  0.00000000  0.03798000  1.0
  Nb  Nb6  1  0.50000000  0.50000000  0.88605000  1.0
  Nb  Nb7  1  0.50000000  0.50000000  0.03798000  1.0
  Ir  Ir8  1  0.00000000  0.25000000  0.96202000  1.0
  Ir  Ir9  1  0.25000000  0.00000000  0.96202000  1.0
  Ir  Ir10  1  0.25000000  0.25000000  0.88605000  1.0
  Ir  Ir11  1  0.00000000  0.25000000  0.11395000  1.0
  Ir  Ir12  1  0.25000000  0.00000000  0.11395000  1.0
  Ir  Ir13  1  0.25000000  0.25000000  0.03798000  1.0
  Ir  Ir14  1  0.00000000  0.75000000  0.96202000  1.0
  Ir  Ir15  1  0.25000000  0.50000000  0.96202000  1.0
  Ir  Ir16  1  0.25000000  0.75000000  0.88605000  1.0
  Ir  Ir17  1  0.00000000  0.75000000  0.11395000  1.0
  Ir  Ir18  1  0.25000000  0.50000000  0.11395000  1.0
  Ir  Ir19  1  0.25000000  0.75000000  0.03798000  1.0
  Ir  Ir20  1  0.50000000  0.25000000  0.96202000  1.0
  Ir  Ir21  1  0.75000000  0.00000000  0.96202000  1.0
  Ir  Ir22  1  0.75000000  0.25000000  0.88605000  1.0
  Ir  Ir23  1  0.50000000  0.25000000  0.11395000  1.0
  Ir  Ir24  1  0.75000000  0.00000000  0.11395000  1.0
  Ir  Ir25  1  0.75000000  0.25000000  0.03798000  1.0
  Ir  Ir26  1  0.50000000  0.75000000  0.96202000  1.0
  Ir  Ir27  1  0.75000000  0.50000000  0.96202000  1.0
  Ir  Ir28  1  0.75000000  0.75000000  0.88605000  1.0
  Ir  Ir29  1  0.50000000  0.75000000  0.11395000  1.0
  Ir  Ir30  1  0.75000000  0.50000000  0.11395000  1.0
  Ir  Ir31  1  0.75000000  0.75000000  0.03798000  1.0
  C  C32  1  0.00000000  0.00000000  0.14484000  1.0
