# generated using pymatgen
data_Li8In8Ir8Pd8CO
_symmetry_space_group_name_H-M   P1
_cell_length_a   6.33559000
_cell_length_b   8.95988000
_cell_length_c   26.71990000
_cell_angle_alpha   90.00000000
_cell_angle_beta   90.00000000
_cell_angle_gamma   90.00000000
_symmetry_Int_Tables_number   1
_chemical_formula_structural   Li8In8Ir8Pd8CO
_chemical_formula_sum   'Li8 In8 Ir8 Pd8 C1 O1'
_cell_volume   1516.78521356
_cell_formula_units_Z   1
loop_
 _symmetry_equiv_pos_site_id
 _symmetry_equiv_pos_as_xyz
  1  'x, y, z'
loop_
 _atom_site_type_symbol
 _atom_site_label
 _atom_site_symmetry_multiplicity
 _atom_site_fract_x
 _atom_site_fract_y
 _atom_site_fract_z
 _atom_site_occupancy
  Li  Li0  1  0.00000000  0.25000000  0.95808000  1.0
  Li  Li1  1  0.00000000  0.75000000  0.95808000  1.0
  Li  Li2  1  0.48863000  0.50002000  0.04017000  1.0
  Li  Li3  1  0.50000000  0.00000000  0.87425000  1.0
  Li  Li4  1  0.50000000  0.50000000  0.87425000  1.0
  Li  Li5  1  0.50150000  0.00006000  0.03749000  1.0
  Li  Li6  1  0.98932000  0.25074000  0.13041000  1.0
  Li  Li7  1  0.98937000  0.74951000  0.13041000  1.0
  In  In8  1  0.00000000  0.00000000  0.87425000  1.0
  In  In9  1  0.00000000  0.50000000  0.87425000  1.0
  In  In10  1  0.47952000  0.74683000  0.13246000  1.0
  In  In11  1  0.47984000  0.25353000  0.13234000  1.0
  In  In12  1  0.50000000  0.25000000  0.95808000  1.0
  In  In13  1  0.50000000  0.75000000  0.95808000  1.0
  In  In14  1  0.99000000  0.99996000  0.04132000  1.0
  In  In15  1  0.99456000  0.50005000  0.03910000  1.0
  Ir  Ir16  1  0.23235000  0.00018000  0.12740000  1.0
  Pd  Pd17  1  0.24954000  0.24494000  0.04256000  1.0
  Pd  Pd18  1  0.24987000  0.75502000  0.04254000  1.0
  Ir  Ir19  1  0.25000000  0.00000000  0.95808000  1.0
  Pd  Pd20  1  0.25000000  0.25000000  0.87425000  1.0
  Ir  Ir21  1  0.25000000  0.50000000  0.95808000  1.0
  Pd  Pd22  1  0.25000000  0.75000000  0.87425000  1.0
  Ir  Ir23  1  0.25129000  0.50006000  0.11759000  1.0
  Pd  Pd24  1  0.71044000  0.00046000  0.11809000  1.0
  Pd  Pd25  1  0.73624000  0.49995000  0.11899000  1.0
  Ir  Ir26  1  0.73950000  0.74922000  0.04499000  1.0
  Ir  Ir27  1  0.73974000  0.25092000  0.04511000  1.0
  Pd  Pd28  1  0.75000000  0.00000000  0.95808000  1.0
  Ir  Ir29  1  0.75000000  0.25000000  0.87425000  1.0
  Pd  Pd30  1  0.75000000  0.50000000  0.95808000  1.0
  Ir  Ir31  1  0.75000000  0.75000000  0.87425000  1.0
  C  C32  1  0.09478000  0.99992000  0.18825000  1.0
  O  O33  1  0.00175000  0.99996000  0.22620000  1.0
