# generated using pymatgen
data_Li4Y4In4Ge4CO
_symmetry_space_group_name_H-M   'P 1'
_cell_length_a   8.57642000
_cell_length_b   6.30439000
_cell_length_c   24.70800000
_cell_angle_alpha   90.00000000
_cell_angle_beta   90.00000000
_cell_angle_gamma   90.00000000
_symmetry_Int_Tables_number   1
_chemical_formula_structural   Li4Y4In4Ge4CO
_chemical_formula_sum   'Li4 Y4 In4 Ge4 C1 O1'
_cell_volume   1335.93923592
_cell_formula_units_Z   1
loop_
 _symmetry_equiv_pos_site_id
 _symmetry_equiv_pos_as_xyz
  1  'x, y, z'
loop_
 _atom_site_type_symbol
 _atom_site_label
 _atom_site_symmetry_multiplicity
 _atom_site_fract_x
 _atom_site_fract_y
 _atom_site_fract_z
 _atom_site_occupancy
  Li  Li0  1  0.25019000  0.78148000  0.94981000  1.0
  Li  Li1  1  0.25000000  0.18066000  0.09527000  1.0
  Li  Li2  1  0.74981000  0.78148000  0.94981000  1.0
  Li  Li3  1  0.75000000  0.18066000  0.09527000  1.0
  Y  Y4  1  0.24939000  0.25754000  0.96498000  1.0
  Y  Y5  1  0.25000000  0.68066000  0.09527000  1.0
  Y  Y6  1  0.75061000  0.25754000  0.96498000  1.0
  Y  Y7  1  0.75000000  0.68066000  0.09527000  1.0
  In  In8  1  0.00000000  0.55612000  0.90188000  1.0
  In  In9  1  0.00000000  0.95378000  0.03176000  1.0
  In  In10  1  0.50000000  0.55571000  0.90240000  1.0
  In  In11  1  0.50000000  0.95378000  0.03176000  1.0
  Ge  Ge12  1  0.00000000  0.00595000  0.91718000  1.0
  Ge  Ge13  1  0.00000000  0.45378000  0.03176000  1.0
  Ge  Ge14  1  0.50000000  0.00741000  0.91728000  1.0
  Ge  Ge15  1  0.50000000  0.45378000  0.03176000  1.0
  C  C16  1  0.00000000  0.54345000  0.77123000  1.0
  O  O17  1  0.00000000  0.47458000  0.72882000  1.0
