# generated using pymatgen
data_Ni24Sn8C
_symmetry_space_group_name_H-M   'P 1'
_cell_length_a   7.54412000
_cell_length_b   7.54412000
_cell_length_c   25.65810000
_cell_angle_alpha   90.00000000
_cell_angle_beta   90.00000000
_cell_angle_gamma   90.00000000
_symmetry_Int_Tables_number   1
_chemical_formula_structural   Ni24Sn8C
_chemical_formula_sum   'Ni24 Sn8 C1'
_cell_volume   1460.29860098
_cell_formula_units_Z   1
loop_
 _symmetry_equiv_pos_site_id
 _symmetry_equiv_pos_as_xyz
  1  'x, y, z'
loop_
 _atom_site_type_symbol
 _atom_site_label
 _atom_site_symmetry_multiplicity
 _atom_site_fract_x
 _atom_site_fract_y
 _atom_site_fract_z
 _atom_site_occupancy
  Ni  Ni0  1  0.00000000  0.25000000  0.96325000  1.0
  Ni  Ni1  1  0.25000000  0.00000000  0.96325000  1.0
  Ni  Ni2  1  0.25000000  0.25000000  0.88974000  1.0
  Ni  Ni3  1  0.00006000  0.23831000  0.11194000  1.0
  Ni  Ni4  1  0.23864000  0.99998000  0.11206000  1.0
  Ni  Ni5  1  0.24847000  0.24847000  0.03716000  1.0
  Ni  Ni6  1  0.00000000  0.75000000  0.96325000  1.0
  Ni  Ni7  1  0.25000000  0.50000000  0.96325000  1.0
  Ni  Ni8  1  0.25000000  0.75000000  0.88974000  1.0
  Ni  Ni9  1  0.00008000  0.76165000  0.11195000  1.0
  Ni  Ni10  1  0.24924000  0.49999000  0.10724000  1.0
  Ni  Ni11  1  0.24853000  0.75154000  0.03718000  1.0
  Ni  Ni12  1  0.50000000  0.25000000  0.96325000  1.0
  Ni  Ni13  1  0.75000000  0.00000000  0.96325000  1.0
  Ni  Ni14  1  0.75000000  0.25000000  0.88974000  1.0
  Ni  Ni15  1  0.50001000  0.24914000  0.10738000  1.0
  Ni  Ni16  1  0.76151000  0.00000000  0.11201000  1.0
  Ni  Ni17  1  0.75149000  0.24849000  0.03712000  1.0
  Ni  Ni18  1  0.50000000  0.75000000  0.96325000  1.0
  Ni  Ni19  1  0.75000000  0.50000000  0.96325000  1.0
  Ni  Ni20  1  0.75000000  0.75000000  0.88974000  1.0
  Ni  Ni21  1  0.49994000  0.75085000  0.10735000  1.0
  Ni  Ni22  1  0.75075000  0.50000000  0.10728000  1.0
  Ni  Ni23  1  0.75154000  0.75152000  0.03718000  1.0
  Sn  Sn24  1  0.00000000  0.00000000  0.88974000  1.0
  Sn  Sn25  1  0.99996000  0.99993000  0.03358000  1.0
  Sn  Sn26  1  0.00000000  0.50000000  0.88974000  1.0
  Sn  Sn27  1  0.00013000  0.49996000  0.03839000  1.0
  Sn  Sn28  1  0.50000000  0.00000000  0.88974000  1.0
  Sn  Sn29  1  0.50000000  0.00001000  0.03841000  1.0
  Sn  Sn30  1  0.50000000  0.50000000  0.88974000  1.0
  Sn  Sn31  1  0.49998000  0.50005000  0.03750000  1.0
  C  C32  1  0.00003000  0.99998000  0.13289000  1.0
