# generated using pymatgen
data_Li16Zn8Ge8CO
_symmetry_space_group_name_H-M   'P 1'
_cell_length_a   8.75246000
_cell_length_b   6.18893000
_cell_length_c   26.56430000
_cell_angle_alpha   90.00000000
_cell_angle_beta   90.00000000
_cell_angle_gamma   90.00000000
_symmetry_Int_Tables_number   1
_chemical_formula_structural   Li16Zn8Ge8CO
_chemical_formula_sum   'Li16 Zn8 Ge8 C1 O1'
_cell_volume   1438.94462579
_cell_formula_units_Z   1
loop_
 _symmetry_equiv_pos_site_id
 _symmetry_equiv_pos_as_xyz
  1  'x, y, z'
loop_
 _atom_site_type_symbol
 _atom_site_label
 _atom_site_symmetry_multiplicity
 _atom_site_fract_x
 _atom_site_fract_y
 _atom_site_fract_z
 _atom_site_occupancy
  Li  Li0  1  0.75001000  0.00000000  0.12356000  1.0
  Li  Li1  1  0.00000000  0.50000000  0.04119000  1.0
  Li  Li2  1  0.50000000  0.50000000  0.04119000  1.0
  Li  Li3  1  0.24999000  0.00000000  0.12356000  1.0
  Li  Li4  1  0.00000000  0.25000000  0.12356000  1.0
  Li  Li5  1  0.50000000  0.25000000  0.12356000  1.0
  Li  Li6  1  0.25001000  0.75000000  0.04119000  1.0
  Li  Li7  1  0.74999000  0.75000000  0.04119000  1.0
  Li  Li8  1  0.24965000  0.98689000  0.95776000  1.0
  Li  Li9  1  0.50000000  0.49254000  0.87341000  1.0
  Li  Li10  1  0.00000000  0.49244000  0.87336000  1.0
  Li  Li11  1  0.75035000  0.98689000  0.95776000  1.0
  Li  Li12  1  0.50000000  0.24985000  0.95799000  1.0
  Li  Li13  1  0.00000000  0.25146000  0.95800000  1.0
  Li  Li14  1  0.75005000  0.78508000  0.86093000  1.0
  Li  Li15  1  0.24995000  0.78508000  0.86093000  1.0
  Zn  Zn16  1  0.75001000  0.25000000  0.04119000  1.0
  Zn  Zn17  1  0.24999000  0.25000000  0.04119000  1.0
  Zn  Zn18  1  0.50000000  0.75000000  0.12356000  1.0
  Zn  Zn19  1  0.00000000  0.75000000  0.12356000  1.0
  Zn  Zn20  1  0.25011000  0.22853000  0.87804000  1.0
  Zn  Zn21  1  0.74989000  0.22853000  0.87804000  1.0
  Zn  Zn22  1  0.00000000  0.75159000  0.95655000  1.0
  Zn  Zn23  1  0.50000000  0.75313000  0.95610000  1.0
  Ge  Ge24  1  0.50000000  1.00000000  0.04119000  1.0
  Ge  Ge25  1  0.75001000  0.50000000  0.12356000  1.0
  Ge  Ge26  1  0.00000000  1.00000000  0.04119000  1.0
  Ge  Ge27  1  0.24999000  0.50000000  0.12356000  1.0
  Ge  Ge28  1  0.00000000  0.00555000  0.87405000  1.0
  Ge  Ge29  1  0.25048000  0.51128000  0.95236000  1.0
  Ge  Ge30  1  0.50000000  0.00626000  0.87316000  1.0
  Ge  Ge31  1  0.74952000  0.51128000  0.95236000  1.0
  C  C32  1  0.00000000  0.13834000  0.73240000  1.0
  O  O33  1  0.00000000  0.96802000  0.71643000  1.0
