# generated using pymatgen
data_Li16Zn8Ge8CO
_symmetry_space_group_name_H-M   Pm
_cell_length_a   6.18893000
_cell_length_b   8.75246000
_cell_length_c   26.56430000
_cell_angle_alpha   90.00000000
_cell_angle_beta   90.00000000
_cell_angle_gamma   90.00000000
_symmetry_Int_Tables_number   6
_chemical_formula_structural   Li16Zn8Ge8CO
_chemical_formula_sum   'Li16 Zn8 Ge8 C1 O1'
_cell_volume   1438.94462579
_cell_formula_units_Z   1
loop_
 _symmetry_equiv_pos_site_id
 _symmetry_equiv_pos_as_xyz
  1  'x, y, z'
  2  'x, -y, z'
loop_
 _atom_site_type_symbol
 _atom_site_label
 _atom_site_symmetry_multiplicity
 _atom_site_fract_x
 _atom_site_fract_y
 _atom_site_fract_z
 _atom_site_occupancy
  Li  Li0  2  0.00000000  0.24999000  0.87644000  1.0
  Li  Li1  2  0.75000000  0.25001000  0.95881000  1.0
  Li  Li2  2  0.78508000  0.24995000  0.13907000  1.0
  Li  Li3  2  0.98689000  0.24965000  0.04224000  1.0
  Li  Li4  1  0.24985000  0.50000000  0.04201000  1.0
  Li  Li5  1  0.25000000  0.00000000  0.87644000  1.0
  Li  Li6  1  0.25000000  0.50000000  0.87644000  1.0
  Li  Li7  1  0.25146000  0.00000000  0.04200000  1.0
  Li  Li8  1  0.49244000  0.00000000  0.12664000  1.0
  Li  Li9  1  0.49254000  0.50000000  0.12659000  1.0
  Li  Li10  1  0.50000000  0.00000000  0.95881000  1.0
  Li  Li11  1  0.50000000  0.50000000  0.95881000  1.0
  Zn  Zn12  2  0.22853000  0.25011000  0.12196000  1.0
  Zn  Zn13  2  0.25000000  0.24999000  0.95881000  1.0
  Zn  Zn14  1  0.75000000  0.00000000  0.87644000  1.0
  Zn  Zn15  1  0.75000000  0.50000000  0.87644000  1.0
  Zn  Zn16  1  0.75159000  0.00000000  0.04345000  1.0
  Zn  Zn17  1  0.75313000  0.50000000  0.04390000  1.0
  Ge  Ge18  2  0.50000000  0.24999000  0.87644000  1.0
  Ge  Ge19  2  0.51128000  0.25048000  0.04764000  1.0
  Ge  Ge20  1  -0.00000000  0.50000000  0.95881000  1.0
  Ge  Ge21  1  -0.00000000  0.00000000  0.95881000  1.0
  Ge  Ge22  1  0.00555000  0.00000000  0.12595000  1.0
  Ge  Ge23  1  0.00626000  0.50000000  0.12684000  1.0
  C  C24  1  0.13834000  0.00000000  0.26760000  1.0
  O  O25  1  0.96802000  0.00000000  0.28357000  1.0
