# generated using pymatgen
data_VNi2Sn
_symmetry_space_group_name_H-M   'P 1'
_cell_length_a   4.30754500
_cell_length_b   6.09179000
_cell_length_c   26.46130000
_cell_angle_alpha   90.00000000
_cell_angle_beta   90.00000000
_cell_angle_gamma   90.00000000
_symmetry_Int_Tables_number   1
_chemical_formula_structural   VNi2Sn
_chemical_formula_sum   'V4 Ni8 Sn4'
_cell_volume   694.36196470
_cell_formula_units_Z   4
loop_
 _symmetry_equiv_pos_site_id
 _symmetry_equiv_pos_as_xyz
  1  'x, y, z'
loop_
 _atom_site_type_symbol
 _atom_site_label
 _atom_site_symmetry_multiplicity
 _atom_site_fract_x
 _atom_site_fract_y
 _atom_site_fract_z
 _atom_site_occupancy
  V  V0  1  0.00000000  0.00000000  0.12209000  1.0
  V  V1  1  0.50000000  0.50000000  0.04070000  1.0
  V  V2  1  0.00000000  0.00000000  0.95816000  1.0
  V  V3  1  0.50000000  0.50000000  0.88515500  1.0
  Ni  Ni4  1  0.00000000  0.75000000  0.04070000  1.0
  Ni  Ni5  1  0.00000000  0.25000000  0.04070000  1.0
  Ni  Ni6  1  0.50000000  0.25000000  0.12209000  1.0
  Ni  Ni7  1  0.50000000  0.75000000  0.12209000  1.0
  Ni  Ni8  1  0.00000000  0.72778500  0.88383000  1.0
  Ni  Ni9  1  0.00000000  0.27221500  0.88383000  1.0
  Ni  Ni10  1  0.50000000  0.22436500  0.95318500  1.0
  Ni  Ni11  1  0.50000000  0.77563500  0.95318500  1.0
  Sn  Sn12  1  0.50000000  0.00000000  0.04070000  1.0
  Sn  Sn13  1  0.00000000  0.50000000  0.12209000  1.0
  Sn  Sn14  1  0.50000000  0.00000000  0.86321500  1.0
  Sn  Sn15  1  0.00000000  0.50000000  0.96363000  1.0
