# generated using pymatgen
data_Cu8Sn8Rh16CO
_symmetry_space_group_name_H-M   Pmm2
_cell_length_a   6.25984000
_cell_length_b   8.85274000
_cell_length_c   26.63960000
_cell_angle_alpha   90.00000000
_cell_angle_beta   90.00000000
_cell_angle_gamma   90.00000000
_symmetry_Int_Tables_number   25
_chemical_formula_structural   Cu8Sn8Rh16CO
_chemical_formula_sum   'Cu8 Sn8 Rh16 C1 O1'
_cell_volume   1476.27967932
_cell_formula_units_Z   1
loop_
 _symmetry_equiv_pos_site_id
 _symmetry_equiv_pos_as_xyz
  1  'x, y, z'
  2  '-x, -y, z'
  3  '-x, y, z'
  4  'x, -y, z'
loop_
 _atom_site_type_symbol
 _atom_site_label
 _atom_site_symmetry_multiplicity
 _atom_site_fract_x
 _atom_site_fract_y
 _atom_site_fract_z
 _atom_site_occupancy
  Cu  Cu0  2  0.00000000  0.24899000  0.04131000  1.0
  Cu  Cu1  2  0.00000000  0.25000000  0.87538000  1.0
  Cu  Cu2  1  0.50000000  0.00000000  0.12750000  1.0
  Cu  Cu3  1  0.50000000  0.00000000  0.95846000  1.0
  Cu  Cu4  1  0.50000000  0.50000000  0.12489000  1.0
  Cu  Cu5  1  0.50000000  0.50000000  0.95846000  1.0
  Sn  Sn6  2  0.50000000  0.25000000  0.87538000  1.0
  Sn  Sn7  2  0.50000000  0.25094000  0.03985000  1.0
  Sn  Sn8  1  0.00000000  0.00000000  0.12651000  1.0
  Sn  Sn9  1  0.00000000  0.00000000  0.95846000  1.0
  Sn  Sn10  1  0.00000000  0.50000000  0.12927000  1.0
  Sn  Sn11  1  0.00000000  0.50000000  0.95846000  1.0
  Rh  Rh12  4  0.25000000  0.25000000  0.95846000  1.0
  Rh  Rh13  4  0.25062000  0.25314000  0.12037000  1.0
  Rh  Rh14  2  0.24615000  0.50000000  0.04172000  1.0
  Rh  Rh15  2  0.25000000  0.00000000  0.87538000  1.0
  Rh  Rh16  2  0.25000000  0.50000000  0.87538000  1.0
  Rh  Rh17  2  0.25178000  0.00000000  0.04235000  1.0
  C  C18  1  0.50000000  0.00000000  0.19740000  1.0
  O  O19  1  0.50000000  0.00000000  0.24048000  1.0
