# generated using pymatgen
data_LiScAlIn
_symmetry_space_group_name_H-M   'P 1'
_cell_length_a   5.96334000
_cell_length_b   4.35681000
_cell_length_c   24.47210000
_cell_angle_alpha   90.00000000
_cell_angle_beta   90.00000000
_cell_angle_gamma   90.00000000
_symmetry_Int_Tables_number   1
_chemical_formula_structural   LiScAlIn
_chemical_formula_sum   'Li2 Sc2 Al2 In2'
_cell_volume   635.81304017
_cell_formula_units_Z   2
loop_
 _symmetry_equiv_pos_site_id
 _symmetry_equiv_pos_as_xyz
  1  'x, y, z'
loop_
 _atom_site_type_symbol
 _atom_site_label
 _atom_site_symmetry_multiplicity
 _atom_site_fract_x
 _atom_site_fract_y
 _atom_site_fract_z
 _atom_site_occupancy
  Li  Li0  1  0.28588000  0.00000000  0.03293000  1.0
  Li  Li1  1  0.76055000  0.00000000  0.90863000  1.0
  Sc  Sc2  1  0.54267500  0.50000000  0.09563000  1.0
  Sc  Sc3  1  0.00703000  0.50000000  0.96954000  1.0
  Al  Al4  1  0.04581500  0.50000000  0.09234500  1.0
  Al  Al5  1  0.50703000  0.50000000  0.96954000  1.0
  In  In6  1  0.78278000  0.00000000  0.03719000  1.0
  In  In7  1  0.26055000  0.00000000  0.90863000  1.0
