# generated using pymatgen
data_Li4Y4In4Ge4CO
_symmetry_space_group_name_H-M   Pm
_cell_length_a   6.33235000
_cell_length_b   8.49364000
_cell_length_c   24.73290000
_cell_angle_alpha   90.00000000
_cell_angle_beta   90.00000000
_cell_angle_gamma   90.00000000
_symmetry_Int_Tables_number   6
_chemical_formula_structural   Li4Y4In4Ge4CO
_chemical_formula_sum   'Li4 Y4 In4 Ge4 C1 O1'
_cell_volume   1330.25163765
_cell_formula_units_Z   1
loop_
 _symmetry_equiv_pos_site_id
 _symmetry_equiv_pos_as_xyz
  1  'x, y, z'
  2  'x, -y, z'
loop_
 _atom_site_type_symbol
 _atom_site_label
 _atom_site_symmetry_multiplicity
 _atom_site_fract_x
 _atom_site_fract_y
 _atom_site_fract_z
 _atom_site_occupancy
  Li  Li0  1  0.04141000  0.00000000  0.03189000  1.0
  Li  Li1  1  0.04141000  0.50000000  0.03189000  1.0
  Li  Li2  1  0.43597000  0.00000000  0.88732000  1.0
  Li  Li3  1  0.44414000  0.50000000  0.89006000  1.0
  Y  Y4  2  0.31212000  0.25000000  0.09568000  1.0
  Y  Y5  2  0.72278000  0.24957000  0.96437000  1.0
  In  In6  2  0.22530000  0.25038000  0.94519000  1.0
  In  In7  2  0.81212000  0.25000000  0.09568000  1.0
  Ge  Ge8  1  0.54141000  0.00000000  0.03189000  1.0
  Ge  Ge9  1  0.54141000  0.50000000  0.03189000  1.0
  Ge  Ge10  1  0.96405000  0.50000000  0.91599000  1.0
  Ge  Ge11  1  0.96637000  0.00000000  0.91681000  1.0
  C  C12  1  0.48431000  0.00000000  0.80287000  1.0
  O  O13  1  0.51846000  0.00000000  0.75768000  1.0
