# generated using pymatgen
data_Li4Y4In4Pb4CO
_symmetry_space_group_name_H-M   'P 1'
_cell_length_a   9.42336000
_cell_length_b   6.48172000
_cell_length_c   24.85820000
_cell_angle_alpha   90.00000000
_cell_angle_beta   90.00000000
_cell_angle_gamma   90.00000000
_symmetry_Int_Tables_number   1
_chemical_formula_structural   Li4Y4In4Pb4CO
_chemical_formula_sum   'Li4 Y4 In4 Pb4 C1 O1'
_cell_volume   1518.32843990
_cell_formula_units_Z   1
loop_
 _symmetry_equiv_pos_site_id
 _symmetry_equiv_pos_as_xyz
  1  'x, y, z'
loop_
 _atom_site_type_symbol
 _atom_site_label
 _atom_site_symmetry_multiplicity
 _atom_site_fract_x
 _atom_site_fract_y
 _atom_site_fract_z
 _atom_site_occupancy
  Li  Li0  1  0.00000000  0.54301000  0.90022000  1.0
  Li  Li1  1  0.00000000  0.98213000  0.03257000  1.0
  Li  Li2  1  0.50000000  0.53851000  0.90500000  1.0
  Li  Li3  1  0.50000000  0.98213000  0.03257000  1.0
  Y  Y4  1  0.24878000  0.26444000  0.96739000  1.0
  Y  Y5  1  0.25000000  0.72319000  0.09772000  1.0
  Y  Y6  1  0.75122000  0.26444000  0.96739000  1.0
  Y  Y7  1  0.75000000  0.72319000  0.09772000  1.0
  In  In8  1  0.00000000  0.04723000  0.90318000  1.0
  In  In9  1  0.00000000  0.48213000  0.03257000  1.0
  In  In10  1  0.50000000  0.05355000  0.90399000  1.0
  In  In11  1  0.50000000  0.48213000  0.03257000  1.0
  Pb  Pb12  1  0.25149000  0.76674000  0.95169000  1.0
  Pb  Pb13  1  0.25000000  0.22319000  0.09772000  1.0
  Pb  Pb14  1  0.74851000  0.76674000  0.95169000  1.0
  Pb  Pb15  1  0.75000000  0.22319000  0.09772000  1.0
  C  C16  1  0.00000000  0.52523000  0.81590000  1.0
  O  O17  1  0.00000000  0.50400000  0.77033000  1.0
