# generated using pymatgen
data_Li4Y4In4Pb4CO
_symmetry_space_group_name_H-M   Pm
_cell_length_a   6.48172000
_cell_length_b   9.42336000
_cell_length_c   24.85820000
_cell_angle_alpha   90.00000000
_cell_angle_beta   90.00000000
_cell_angle_gamma   90.00000000
_symmetry_Int_Tables_number   6
_chemical_formula_structural   Li4Y4In4Pb4CO
_chemical_formula_sum   'Li4 Y4 In4 Pb4 C1 O1'
_cell_volume   1518.32843990
_cell_formula_units_Z   1
loop_
 _symmetry_equiv_pos_site_id
 _symmetry_equiv_pos_as_xyz
  1  'x, y, z'
  2  'x, -y, z'
loop_
 _atom_site_type_symbol
 _atom_site_label
 _atom_site_symmetry_multiplicity
 _atom_site_fract_x
 _atom_site_fract_y
 _atom_site_fract_z
 _atom_site_occupancy
  Li  Li0  1  0.53851000  0.50000000  0.09500000  1.0
  Li  Li1  1  0.54301000  0.00000000  0.09978000  1.0
  Li  Li2  1  0.98213000  0.00000000  0.96743000  1.0
  Li  Li3  1  0.98213000  0.50000000  0.96743000  1.0
  Y  Y4  2  0.26444000  0.24878000  0.03261000  1.0
  Y  Y5  2  0.72319000  0.25000000  0.90228000  1.0
  In  In6  1  0.04723000  0.00000000  0.09682000  1.0
  In  In7  1  0.05355000  0.50000000  0.09601000  1.0
  In  In8  1  0.48213000  0.00000000  0.96743000  1.0
  In  In9  1  0.48213000  0.50000000  0.96743000  1.0
  Pb  Pb10  2  0.22319000  0.25000000  0.90228000  1.0
  Pb  Pb11  2  0.76674000  0.25149000  0.04831000  1.0
  C  C12  1  0.52523000  0.00000000  0.18410000  1.0
  O  O13  1  0.50400000  0.00000000  0.22967000  1.0
