# generated using pymatgen
data_Li4Mg4In4Au4CO
_symmetry_space_group_name_H-M   'P 1'
_cell_length_a   6.64779000
_cell_length_b   6.64779000
_cell_length_c   24.98580000
_cell_angle_alpha   90.00000000
_cell_angle_beta   90.00000000
_cell_angle_gamma   90.00000000
_symmetry_Int_Tables_number   1
_chemical_formula_structural   Li4Mg4In4Au4CO
_chemical_formula_sum   'Li4 Mg4 In4 Au4 C1 O1'
_cell_volume   1104.20025491
_cell_formula_units_Z   1
loop_
 _symmetry_equiv_pos_site_id
 _symmetry_equiv_pos_as_xyz
  1  'x, y, z'
loop_
 _atom_site_type_symbol
 _atom_site_label
 _atom_site_symmetry_multiplicity
 _atom_site_fract_x
 _atom_site_fract_y
 _atom_site_fract_z
 _atom_site_occupancy
  Li  Li0  1  0.00000000  0.50000000  0.90023000  1.0
  Li  Li1  1  0.00520000  0.99857000  0.04036000  1.0
  Li  Li2  1  0.49807000  0.50487000  0.03994000  1.0
  Li  Li3  1  0.50000000  0.00000000  0.90023000  1.0
  Mg  Mg4  1  0.75000000  0.25000000  0.96674000  1.0
  Mg  Mg5  1  0.75184000  0.75114000  0.10386000  1.0
  Mg  Mg6  1  0.25284000  0.25285000  0.10413000  1.0
  Mg  Mg7  1  0.25000000  0.75000000  0.96674000  1.0
  In  In8  1  0.25000000  0.25000000  0.96674000  1.0
  In  In9  1  0.25089000  0.75027000  0.11728000  1.0
  In  In10  1  0.74992000  0.24986000  0.11488000  1.0
  In  In11  1  0.75000000  0.75000000  0.96674000  1.0
  Au  Au12  1  0.00000000  0.00000000  0.90023000  1.0
  Au  Au13  1  0.00164000  0.50153000  0.03595000  1.0
  Au  Au14  1  0.49717000  0.99714000  0.03580000  1.0
  Au  Au15  1  0.50000000  0.50000000  0.90023000  1.0
  C  C16  1  0.73230000  0.33047000  0.27483000  1.0
  O  O17  1  0.76101000  0.19193000  0.30036000  1.0
