# generated using pymatgen
data_LiMg2Ga
_symmetry_space_group_name_H-M   Pmm2
_cell_length_a   6.69031000
_cell_length_b   9.46152000
_cell_length_c   27.09610000
_cell_angle_alpha   90.00000000
_cell_angle_beta   90.00000000
_cell_angle_gamma   90.00000000
_symmetry_Int_Tables_number   25
_chemical_formula_structural   LiMg2Ga
_chemical_formula_sum   'Li8 Mg16 Ga8'
_cell_volume   1715.19672875
_cell_formula_units_Z   8
loop_
 _symmetry_equiv_pos_site_id
 _symmetry_equiv_pos_as_xyz
  1  'x, y, z'
  2  '-x, -y, z'
  3  '-x, y, z'
  4  'x, -y, z'
loop_
 _atom_site_type_symbol
 _atom_site_label
 _atom_site_symmetry_multiplicity
 _atom_site_fract_x
 _atom_site_fract_y
 _atom_site_fract_z
 _atom_site_occupancy
  Li  Li0  2  0.00000000  0.24998000  0.04647000  1.0
  Li  Li1  2  0.00000000  0.25000000  0.86906000  1.0
  Li  Li2  1  0.50000000  0.00000000  0.14022000  1.0
  Li  Li3  1  0.50000000  0.00000000  0.95635000  1.0
  Li  Li4  1  0.50000000  0.50000000  0.14023000  1.0
  Li  Li5  1  0.50000000  0.50000000  0.95635000  1.0
  Mg  Mg6  4  0.24016000  0.24998000  0.13682000  1.0
  Mg  Mg7  4  0.25000000  0.25000000  0.95635000  1.0
  Mg  Mg8  2  0.24974000  0.00000000  0.04645000  1.0
  Mg  Mg9  2  0.24974000  0.50000000  0.04645000  1.0
  Mg  Mg10  2  0.25000000  0.00000000  0.86906000  1.0
  Mg  Mg11  2  0.25000000  0.50000000  0.86906000  1.0
  Ga  Ga12  2  0.50000000  0.25000000  0.86906000  1.0
  Ga  Ga13  2  0.50000000  0.25000000  0.04683000  1.0
  Ga  Ga14  1  0.00000000  0.00000000  0.13264000  1.0
  Ga  Ga15  1  0.00000000  0.00000000  0.95635000  1.0
  Ga  Ga16  1  0.00000000  0.50000000  0.13268000  1.0
  Ga  Ga17  1  0.00000000  0.50000000  0.95635000  1.0
