data_image0
_chemical_formula_structural       Li4In4Ge4Au4CO
_chemical_formula_sum              "Li4 In4 Ge4 Au4 C1 O1"
_cell_length_a       5.96101
_cell_length_b       8.57796
_cell_length_c       24.4706
_cell_angle_alpha    90
_cell_angle_beta     90
_cell_angle_gamma    90

_space_group_name_H-M_alt    "P 1"
_space_group_IT_number       1

loop_
  _space_group_symop_operation_xyz
  'x, y, z'

loop_
  _atom_site_type_symbol
  _atom_site_label
  _atom_site_symmetry_multiplicity
  _atom_site_fract_x
  _atom_site_fract_y
  _atom_site_fract_z
  _atom_site_occupancy
  Li  Li1       1.0  0.51192  0.00001  0.08883  1.0000
  Li  Li2       1.0  0.99580  0.00000  0.96955  1.0000
  Li  Li3       1.0  0.51573  0.50000  0.08167  1.0000
  Li  Li4       1.0  0.99580  0.50000  0.96955  1.0000
  In  In1       1.0  0.25115  0.24420  0.03205  1.0000
  In  In2       1.0  0.74371  0.25000  0.90865  1.0000
  In  In3       1.0  0.25123  0.75583  0.03204  1.0000
  In  In4       1.0  0.74371  0.75000  0.90865  1.0000
  Ge  Ge1       1.0  0.73889  0.23711  0.03582  1.0000
  Ge  Ge2       1.0  0.24371  0.25000  0.90865  1.0000
  Ge  Ge3       1.0  0.73892  0.76291  0.03584  1.0000
  Ge  Ge4       1.0  0.24371  0.75000  0.90865  1.0000
  Au  Au1       1.0  0.98548  0.99994  0.08660  1.0000
  Au  Au2       1.0  0.49580  0.00000  0.96955  1.0000
  Au  Au3       1.0  0.97911  0.50005  0.07365  1.0000
  Au  Au4       1.0  0.49580  0.50000  0.96955  1.0000
  C   C1        1.0  0.01378  0.00004  0.17234  1.0000
  O   O1        1.0  0.99248  0.00003  0.21894  1.0000
