data_image0
_chemical_formula_structural       Mg8Ni16Sb8
_chemical_formula_sum              "Mg8 Ni16 Sb8"
_cell_length_a       6.21377
_cell_length_b       8.7876
_cell_length_c       26.5907
_cell_angle_alpha    90
_cell_angle_beta     90
_cell_angle_gamma    90

_space_group_name_H-M_alt    "P 1"
_space_group_IT_number       1

loop_
  _space_group_symop_operation_xyz
  'x, y, z'

loop_
  _atom_site_type_symbol
  _atom_site_label
  _atom_site_symmetry_multiplicity
  _atom_site_fract_x
  _atom_site_fract_y
  _atom_site_fract_z
  _atom_site_occupancy
  Mg  Mg1       1.0  0.00000  0.00000  0.87607  1.0000
  Mg  Mg2       1.0  0.50000  0.25000  0.95869  1.0000
  Mg  Mg3       1.0  0.50000  0.75000  0.95869  1.0000
  Mg  Mg4       1.0  0.00000  0.50000  0.87607  1.0000
  Mg  Mg5       1.0  0.00000  0.50002  0.03891  1.0000
  Mg  Mg6       1.0  0.50000  0.74991  0.13213  1.0000
  Mg  Mg7       1.0  0.50000  0.25009  0.13213  1.0000
  Mg  Mg8       1.0  0.00000  0.99998  0.03892  1.0000
  Ni  Ni1       1.0  0.25000  0.00000  0.95869  1.0000
  Ni  Ni2       1.0  0.75000  0.50000  0.95869  1.0000
  Ni  Ni3       1.0  0.75000  0.00000  0.95869  1.0000
  Ni  Ni4       1.0  0.25000  0.50000  0.95869  1.0000
  Ni  Ni5       1.0  0.75000  0.75000  0.87607  1.0000
  Ni  Ni6       1.0  0.25000  0.25000  0.87607  1.0000
  Ni  Ni7       1.0  0.25000  0.75000  0.87607  1.0000
  Ni  Ni8       1.0  0.75000  0.25000  0.87607  1.0000
  Ni  Ni9       1.0  0.23862  0.50002  0.11595  1.0000
  Ni  Ni10      1.0  0.76131  0.99998  0.11595  1.0000
  Ni  Ni11      1.0  0.76138  0.50002  0.11595  1.0000
  Ni  Ni12      1.0  0.23869  0.99998  0.11595  1.0000
  Ni  Ni13      1.0  0.75212  0.25005  0.04447  1.0000
  Ni  Ni14      1.0  0.24792  0.74995  0.04448  1.0000
  Ni  Ni15      1.0  0.24788  0.25005  0.04447  1.0000
  Ni  Ni16      1.0  0.75208  0.74996  0.04448  1.0000
  Sb  Sb1       1.0  0.00000  0.75000  0.95869  1.0000
  Sb  Sb2       1.0  0.50000  0.00000  0.87607  1.0000
  Sb  Sb3       1.0  0.00000  0.25000  0.95869  1.0000
  Sb  Sb4       1.0  0.50000  0.50000  0.87607  1.0000
  Sb  Sb5       1.0  0.00000  0.24999  0.12958  1.0000
  Sb  Sb6       1.0  0.50000  0.49999  0.04184  1.0000
  Sb  Sb7       1.0  1.00000  0.75001  0.12960  1.0000
  Sb  Sb8       1.0  0.50000  0.00001  0.04184  1.0000
