data_image0
_chemical_formula_structural       Li8Ga16Pt8CO
_chemical_formula_sum              "Li8 Ga16 Pt8 C1 O1"
_cell_length_a       6.22326
_cell_length_b       8.80102
_cell_length_c       26.6008
_cell_angle_alpha    90
_cell_angle_beta     90
_cell_angle_gamma    90

_space_group_name_H-M_alt    "P 1"
_space_group_IT_number       1

loop_
  _space_group_symop_operation_xyz
  'x, y, z'

loop_
  _atom_site_type_symbol
  _atom_site_label
  _atom_site_symmetry_multiplicity
  _atom_site_fract_x
  _atom_site_fract_y
  _atom_site_fract_z
  _atom_site_occupancy
  Li  Li1       1.0  0.00000  0.00000  0.87593  1.0000
  Li  Li2       1.0  0.50000  0.25000  0.95864  1.0000
  Li  Li3       1.0  0.50000  0.75000  0.95864  1.0000
  Li  Li4       1.0  0.00000  0.50000  0.87593  1.0000
  Li  Li5       1.0  0.99262  0.49995  0.04325  1.0000
  Li  Li6       1.0  0.50591  0.74132  0.13666  1.0000
  Li  Li7       1.0  0.50572  0.25864  0.13671  1.0000
  Li  Li8       1.0  0.99779  0.99999  0.03930  1.0000
  Ga  Ga1       1.0  0.25000  0.00000  0.95864  1.0000
  Ga  Ga2       1.0  0.75000  0.50000  0.95864  1.0000
  Ga  Ga3       1.0  0.75000  0.00000  0.95864  1.0000
  Ga  Ga4       1.0  0.25000  0.50000  0.95864  1.0000
  Ga  Ga5       1.0  0.75000  0.75000  0.87593  1.0000
  Ga  Ga6       1.0  0.25000  0.25000  0.87593  1.0000
  Ga  Ga7       1.0  0.25000  0.75000  0.87593  1.0000
  Ga  Ga8       1.0  0.75000  0.25000  0.87593  1.0000
  Ga  Ga9       1.0  0.23911  0.50003  0.13125  1.0000
  Ga  Ga10      1.0  0.76168  0.00003  0.12689  1.0000
  Ga  Ga11      1.0  0.77491  0.50000  0.13942  1.0000
  Ga  Ga12      1.0  0.23097  1.00000  0.12478  1.0000
  Ga  Ga13      1.0  0.73123  0.25206  0.04309  1.0000
  Ga  Ga14      1.0  0.25869  0.74859  0.04347  1.0000
  Ga  Ga15      1.0  0.25877  0.25132  0.04348  1.0000
  Ga  Ga16      1.0  0.73135  0.74786  0.04307  1.0000
  Pt  Pt1       1.0  0.00000  0.75000  0.95864  1.0000
  Pt  Pt2       1.0  0.50000  0.00000  0.87593  1.0000
  Pt  Pt3       1.0  0.00000  0.25000  0.95864  1.0000
  Pt  Pt4       1.0  0.50000  0.50000  0.87593  1.0000
  Pt  Pt5       1.0  0.99341  0.25026  0.11747  1.0000
  Pt  Pt6       1.0  0.49652  0.49999  0.03924  1.0000
  Pt  Pt7       1.0  0.99338  0.74978  0.11748  1.0000
  Pt  Pt8       1.0  0.49779  0.99994  0.04032  1.0000
  C   C1        1.0  0.49118  0.00034  0.17974  1.0000
  O   O1        1.0  0.49066  0.00045  0.22448  1.0000
