# generated using pymatgen
data_Li8Ga16Pt8CO
_symmetry_space_group_name_H-M   'P 1'
_cell_length_a   6.22326000
_cell_length_b   8.80102000
_cell_length_c   26.60080000
_cell_angle_alpha   90.00000000
_cell_angle_beta   90.00000000
_cell_angle_gamma   90.00000000
_symmetry_Int_Tables_number   1
_chemical_formula_structural   Li8Ga16Pt8CO
_chemical_formula_sum   'Li8 Ga16 Pt8 C1 O1'
_cell_volume   1456.95336712
_cell_formula_units_Z   1
loop_
 _symmetry_equiv_pos_site_id
 _symmetry_equiv_pos_as_xyz
  1  'x, y, z'
loop_
 _atom_site_type_symbol
 _atom_site_label
 _atom_site_symmetry_multiplicity
 _atom_site_fract_x
 _atom_site_fract_y
 _atom_site_fract_z
 _atom_site_occupancy
  Li  Li0  1  0.00000000  0.00000000  0.87593000  1.0
  Li  Li1  1  0.50000000  0.25000000  0.95864000  1.0
  Li  Li2  1  0.50000000  0.75000000  0.95864000  1.0
  Li  Li3  1  0.00000000  0.50000000  0.87593000  1.0
  Li  Li4  1  0.99262000  0.49995000  0.04325000  1.0
  Li  Li5  1  0.50591000  0.74132000  0.13666000  1.0
  Li  Li6  1  0.50572000  0.25864000  0.13671000  1.0
  Li  Li7  1  0.99779000  0.99999000  0.03930000  1.0
  Ga  Ga8  1  0.25000000  0.00000000  0.95864000  1.0
  Ga  Ga9  1  0.75000000  0.50000000  0.95864000  1.0
  Ga  Ga10  1  0.75000000  0.00000000  0.95864000  1.0
  Ga  Ga11  1  0.25000000  0.50000000  0.95864000  1.0
  Ga  Ga12  1  0.75000000  0.75000000  0.87593000  1.0
  Ga  Ga13  1  0.25000000  0.25000000  0.87593000  1.0
  Ga  Ga14  1  0.25000000  0.75000000  0.87593000  1.0
  Ga  Ga15  1  0.75000000  0.25000000  0.87593000  1.0
  Ga  Ga16  1  0.23911000  0.50003000  0.13125000  1.0
  Ga  Ga17  1  0.76168000  0.00003000  0.12689000  1.0
  Ga  Ga18  1  0.77491000  0.50000000  0.13942000  1.0
  Ga  Ga19  1  0.23097000  0.00000000  0.12478000  1.0
  Ga  Ga20  1  0.73123000  0.25206000  0.04309000  1.0
  Ga  Ga21  1  0.25869000  0.74859000  0.04347000  1.0
  Ga  Ga22  1  0.25877000  0.25132000  0.04348000  1.0
  Ga  Ga23  1  0.73135000  0.74786000  0.04307000  1.0
  Pt  Pt24  1  0.00000000  0.75000000  0.95864000  1.0
  Pt  Pt25  1  0.50000000  0.00000000  0.87593000  1.0
  Pt  Pt26  1  0.00000000  0.25000000  0.95864000  1.0
  Pt  Pt27  1  0.50000000  0.50000000  0.87593000  1.0
  Pt  Pt28  1  0.99341000  0.25026000  0.11747000  1.0
  Pt  Pt29  1  0.49652000  0.49999000  0.03924000  1.0
  Pt  Pt30  1  0.99338000  0.74978000  0.11748000  1.0
  Pt  Pt31  1  0.49779000  0.99994000  0.04032000  1.0
  C  C32  1  0.49118000  0.00034000  0.17974000  1.0
  O  O33  1  0.49066000  0.00045000  0.22448000  1.0
