# generated using pymatgen
data_Li4Mg4Ge4Pd4CO
_symmetry_space_group_name_H-M   'P 1'
_cell_length_a   6.25843000
_cell_length_b   6.25843000
_cell_length_c   24.69380000
_cell_angle_alpha   90.00000000
_cell_angle_beta   90.00000000
_cell_angle_gamma   90.00000000
_symmetry_Int_Tables_number   1
_chemical_formula_structural   Li4Mg4Ge4Pd4CO
_chemical_formula_sum   'Li4 Mg4 Ge4 Pd4 C1 O1'
_cell_volume   967.20542654
_cell_formula_units_Z   1
loop_
 _symmetry_equiv_pos_site_id
 _symmetry_equiv_pos_as_xyz
  1  'x, y, z'
loop_
 _atom_site_type_symbol
 _atom_site_label
 _atom_site_symmetry_multiplicity
 _atom_site_fract_x
 _atom_site_fract_y
 _atom_site_fract_z
 _atom_site_occupancy
  Li  Li0  1  0.25000000  0.74999000  0.03168000  1
  Li  Li1  1  0.24944000  0.24944000  0.88435000  1
  Li  Li2  1  0.75020000  0.75020000  0.88224000  1
  Li  Li3  1  0.74999000  0.25000000  0.03168000  1
  Mg  Mg4  1  0.00000000  0.49999000  0.09504000  1
  Mg  Mg5  1  0.99927000  0.99927000  0.96628000  1
  Mg  Mg6  1  0.50051000  0.50051000  0.96606000  1
  Mg  Mg7  1  0.49999000  0.00000000  0.09504000  1
  Ge  Ge8  1  0.99999500  0.99999500  0.09504000  1
  Ge  Ge9  1  0.00122000  0.49892000  0.95913000  1
  Ge  Ge10  1  0.49892000  0.00122000  0.95913000  1
  Ge  Ge11  1  0.49999500  0.49999500  0.09504000  1
  Pd  Pd12  1  0.74999500  0.74999500  0.03168000  1
  Pd  Pd13  1  0.75030000  0.24989000  0.90740000  1
  Pd  Pd14  1  0.24989000  0.75030000  0.90740000  1
  Pd  Pd15  1  0.24999500  0.24999500  0.03168000  1
  C  C16  1  0.75144000  0.75144000  0.79662000  1
  O  O17  1  0.75144500  0.75144500  0.75046000  1
