# generated using pymatgen
data_Cu16Ni8Sn8CO
_symmetry_space_group_name_H-M   'P 1'
_cell_length_a   6.14873000
_cell_length_b   8.69561000
_cell_length_c   26.52170000
_cell_angle_alpha   90.00000000
_cell_angle_beta   90.00000000
_cell_angle_gamma   90.00000000
_symmetry_Int_Tables_number   1
_chemical_formula_structural   Cu16Ni8Sn8CO
_chemical_formula_sum   'Cu16 Ni8 Sn8 C1 O1'
_cell_volume   1418.03462199
_cell_formula_units_Z   1
loop_
 _symmetry_equiv_pos_site_id
 _symmetry_equiv_pos_as_xyz
  1  'x, y, z'
loop_
 _atom_site_type_symbol
 _atom_site_label
 _atom_site_symmetry_multiplicity
 _atom_site_fract_x
 _atom_site_fract_y
 _atom_site_fract_z
 _atom_site_occupancy
  Cu  Cu0  1  0.25000000  0.00000000  0.95902000  1.0
  Cu  Cu1  1  0.75000000  0.50000000  0.95902000  1.0
  Cu  Cu2  1  0.75000000  0.00000000  0.95902000  1.0
  Cu  Cu3  1  0.25000000  0.50000000  0.95902000  1.0
  Cu  Cu4  1  0.75000000  0.75000000  0.87705000  1.0
  Cu  Cu5  1  0.25000000  0.25000000  0.87705000  1.0
  Cu  Cu6  1  0.25000000  0.75000000  0.87705000  1.0
  Cu  Cu7  1  0.75000000  0.25000000  0.87705000  1.0
  Cu  Cu8  1  0.23110000  0.50016000  0.11755000  1.0
  Cu  Cu9  1  0.77142000  0.00002000  0.11155000  1.0
  Cu  Cu10  1  0.62627000  0.49993000  0.14653000  1.0
  Cu  Cu11  1  0.18840000  0.99980000  0.12629000  1.0
  Cu  Cu12  1  0.76123000  0.22938000  0.03925000  1.0
  Cu  Cu13  1  0.19551000  0.73317000  0.04984000  1.0
  Cu  Cu14  1  0.19565000  0.26724000  0.04966000  1.0
  Cu  Cu15  1  0.76110000  0.77080000  0.03929000  1.0
  Ni  Ni16  1  0.00000000  0.00000000  0.87705000  1.0
  Ni  Ni17  1  0.50000000  0.25000000  0.95902000  1.0
  Ni  Ni18  1  0.50000000  0.75000000  0.95902000  1.0
  Ni  Ni19  1  0.00000000  0.50000000  0.87705000  1.0
  Ni  Ni20  1  0.95120000  0.50018000  0.04267000  1.0
  Ni  Ni21  1  0.49936000  0.75008000  0.10984000  1.0
  Ni  Ni22  1  0.49903000  0.25009000  0.10971000  1.0
  Ni  Ni23  1  0.02669000  0.00006000  0.03746000  1.0
  Sn  Sn24  1  0.00000000  0.75000000  0.95902000  1.0
  Sn  Sn25  1  0.50000000  0.00000000  0.87705000  1.0
  Sn  Sn26  1  0.00000000  0.25000000  0.95902000  1.0
  Sn  Sn27  1  0.50000000  0.50000000  0.87705000  1.0
  Sn  Sn28  1  0.93259000  0.27823000  0.13605000  1.0
  Sn  Sn29  1  0.51551000  0.50022000  0.04297000  1.0
  Sn  Sn30  1  0.93234000  0.72183000  0.13620000  1.0
  Sn  Sn31  1  0.46152000  0.00003000  0.04340000  1.0
  C  C32  1  0.32951000  0.99989000  0.18900000  1.0
  O  O33  1  0.39940000  0.99988000  0.22916000  1.0
