# generated using pymatgen
data_Na8Li16Sb8CO
_symmetry_space_group_name_H-M   P1
_cell_length_a   6.84524000
_cell_length_b   9.68063000
_cell_length_c   27.26050000
_cell_angle_alpha   90.00000000
_cell_angle_beta   90.00000000
_cell_angle_gamma   90.00000000
_symmetry_Int_Tables_number   1
_chemical_formula_structural   Na8Li16Sb8CO
_chemical_formula_sum   'Na8 Li16 Sb8 C1 O1'
_cell_volume   1806.45071833
_cell_formula_units_Z   1
loop_
 _symmetry_equiv_pos_site_id
 _symmetry_equiv_pos_as_xyz
  1  'x, y, z'
loop_
 _atom_site_type_symbol
 _atom_site_label
 _atom_site_symmetry_multiplicity
 _atom_site_fract_x
 _atom_site_fract_y
 _atom_site_fract_z
 _atom_site_occupancy
  Na  Na0  1  0.00000000  0.00000000  0.86683000  1.0
  Na  Na1  1  0.00000000  0.50000000  0.86683000  1.0
  Na  Na2  1  0.00000000  0.50214000  0.04053000  1.0
  Na  Na3  1  0.50000000  0.25000000  0.95561000  1.0
  Na  Na4  1  0.50000000  0.25007000  0.14430000  1.0
  Na  Na5  1  0.50000000  0.75000000  0.95561000  1.0
  Na  Na6  1  0.50000000  0.75005000  0.14597000  1.0
  Na  Na7  1  0.99999000  0.99798000  0.04054000  1.0
  Li  Li8  1  0.20669000  0.00082000  0.13072000  1.0
  Li  Li9  1  0.20669000  0.49935000  0.13071000  1.0
  Li  Li10  1  0.25000000  0.00000000  0.95561000  1.0
  Li  Li11  1  0.25000000  0.25000000  0.86683000  1.0
  Li  Li12  1  0.25000000  0.50000000  0.95561000  1.0
  Li  Li13  1  0.25000000  0.75000000  0.86683000  1.0
  Li  Li14  1  0.25622000  0.25007000  0.04841000  1.0
  Li  Li15  1  0.26306000  0.75007000  0.04948000  1.0
  Li  Li16  1  0.73695000  0.75006000  0.04948000  1.0
  Li  Li17  1  0.74377000  0.25007000  0.04842000  1.0
  Li  Li18  1  0.75000000  0.00000000  0.95561000  1.0
  Li  Li19  1  0.75000000  0.25000000  0.86683000  1.0
  Li  Li20  1  0.75000000  0.50000000  0.95561000  1.0
  Li  Li21  1  0.75000000  0.75000000  0.86683000  1.0
  Li  Li22  1  0.79331000  0.00082000  0.13073000  1.0
  Li  Li23  1  0.79332000  0.49935000  0.13072000  1.0
  Sb  Sb24  1  0.00000000  0.25000000  0.95561000  1.0
  Sb  Sb25  1  0.00000000  0.75000000  0.95561000  1.0
  Sb  Sb26  1  0.00000000  0.75008000  0.13341000  1.0
  Sb  Sb27  1  0.00000000  0.25009000  0.13300000  1.0
  Sb  Sb28  1  0.50000000  0.00000000  0.86683000  1.0
  Sb  Sb29  1  0.50000000  0.00073000  0.05117000  1.0
  Sb  Sb30  1  0.50000000  0.49940000  0.05117000  1.0
  Sb  Sb31  1  0.50000000  0.50000000  0.86683000  1.0
  C  C32  1  0.99990000  0.24693000  0.31220000  1.0
  O  O33  1  0.00003000  0.25056000  0.35384000  1.0
