# generated using pymatgen
data_ScAu
_symmetry_space_group_name_H-M   'P 1'
_cell_length_a   3.42572500
_cell_length_b   4.84470500
_cell_length_c   27.26710000
_cell_angle_alpha   90.00000000
_cell_angle_beta   90.00000000
_cell_angle_gamma   90.00000000
_symmetry_Int_Tables_number   1
_chemical_formula_structural   ScAu
_chemical_formula_sum   'Sc4 Au4'
_cell_volume   452.54188906
_cell_formula_units_Z   4
loop_
 _symmetry_equiv_pos_site_id
 _symmetry_equiv_pos_as_xyz
  1  'x, y, z'
loop_
 _atom_site_type_symbol
 _atom_site_label
 _atom_site_symmetry_multiplicity
 _atom_site_fract_x
 _atom_site_fract_y
 _atom_site_fract_z
 _atom_site_occupancy
  Sc  Sc0  1  0.50000000  0.50000000  0.86674000  1.0
  Sc  Sc1  1  0.50000000  0.00000000  0.95558000  1.0
  Sc  Sc2  1  0.50000000  0.50000000  0.04471000  1.0
  Sc  Sc3  1  0.50000000  0.00000000  0.13331250  1.0
  Au  Au4  1  0.00000000  0.00000000  0.86674000  1.0
  Au  Au5  1  0.00000000  0.50000000  0.95558000  1.0
  Au  Au6  1  0.00000000  0.00000000  0.04522000  1.0
  Au  Au7  1  0.00000000  0.50000000  0.12805000  1.0
