# generated using pymatgen
data_Li8In8Cu8Sn8C
_symmetry_space_group_name_H-M   Pm
_cell_length_a   6.73938000
_cell_length_b   9.53092000
_cell_length_c   27.14820000
_cell_angle_alpha   90.00000000
_cell_angle_beta   90.00000000
_cell_angle_gamma   90.00000000
_symmetry_Int_Tables_number   6
_chemical_formula_structural   Li8In8Cu8Sn8C
_chemical_formula_sum   'Li8 In8 Cu8 Sn8 C1'
_cell_volume   1743.79652926
_cell_formula_units_Z   1
loop_
 _symmetry_equiv_pos_site_id
 _symmetry_equiv_pos_as_xyz
  1  'x, y, z'
  2  'x, -y, z'
loop_
 _atom_site_type_symbol
 _atom_site_label
 _atom_site_symmetry_multiplicity
 _atom_site_fract_x
 _atom_site_fract_y
 _atom_site_fract_z
 _atom_site_occupancy
  Li  Li0  2  0.50000000  0.25000000  0.86835000  1.0
  Li  Li1  2  0.50215000  0.25005000  0.04716000  1.0
  Li  Li2  1  0.00000000  0.00000000  0.95612000  1.0
  Li  Li3  1  0.00000000  0.50000000  0.95612000  1.0
  Li  Li4  1  0.05539000  0.00000000  0.14723000  1.0
  Li  Li5  1  0.97688000  0.50000000  0.13851000  1.0
  In  In6  2  0.25000000  0.25000000  0.95612000  1.0
  In  In7  2  0.26464000  0.26550000  0.14185000  1.0
  In  In8  1  0.75000000  0.00000000  0.86835000  1.0
  In  In9  1  0.75000000  0.50000000  0.86835000  1.0
  In  In10  1  0.75505000  0.50000000  0.04398000  1.0
  In  In11  1  0.77242000  0.00000000  0.04991000  1.0
  Cu  Cu12  2  0.00000000  0.25000000  0.86835000  1.0
  Cu  Cu13  2  0.99619000  0.25269000  0.04213000  1.0
  Cu  Cu14  1  0.46396000  0.00000000  0.12292000  1.0
  Cu  Cu15  1  0.49556000  0.50000000  0.11941000  1.0
  Cu  Cu16  1  0.50000000  0.00000000  0.95612000  1.0
  Cu  Cu17  1  0.50000000  0.50000000  0.95612000  1.0
  Sn  Sn18  2  0.75000000  0.25000000  0.95612000  1.0
  Sn  Sn19  2  0.76273000  0.23163000  0.14696000  1.0
  Sn  Sn20  1  0.23315000  0.50000000  0.04544000  1.0
  Sn  Sn21  1  0.23873000  0.00000000  0.04403000  1.0
  Sn  Sn22  1  0.25000000  0.00000000  0.86835000  1.0
  Sn  Sn23  1  0.25000000  0.50000000  0.86835000  1.0
  C  C24  1  0.74531000  0.00000000  0.14132000  1.0
