data_image0
_chemical_formula_structural       Sc8In8Cu8Pd8C
_chemical_formula_sum              "Sc8 In8 Cu8 Pd8 C1"
_cell_length_a       6.53831
_cell_length_b       9.24656
_cell_length_c       26.9349
_cell_angle_alpha    90
_cell_angle_beta     90
_cell_angle_gamma    90

_space_group_name_H-M_alt    "P 1"
_space_group_IT_number       1

loop_
  _space_group_symop_operation_xyz
  'x, y, z'

loop_
  _atom_site_type_symbol
  _atom_site_label
  _atom_site_symmetry_multiplicity
  _atom_site_fract_x
  _atom_site_fract_y
  _atom_site_fract_z
  _atom_site_occupancy
  Sc  Sc1       1.0  0.75000  0.00000  0.95709  1.0000
  Sc  Sc2       1.0  0.75000  0.50000  0.95709  1.0000
  Sc  Sc3       1.0  0.25000  0.25000  0.87127  1.0000
  Sc  Sc4       1.0  0.25000  0.75000  0.87127  1.0000
  Sc  Sc5       1.0  0.75137  0.48236  0.12971  1.0000
  Sc  Sc6       1.0  0.75137  0.01764  0.12971  1.0000
  Sc  Sc7       1.0  0.24588  0.75000  0.04465  1.0000
  Sc  Sc8       1.0  0.25307  0.25000  0.04650  1.0000
  In  In1       1.0  0.25000  0.00000  0.95709  1.0000
  In  In2       1.0  0.25000  0.50000  0.95709  1.0000
  In  In3       1.0  0.75000  0.25000  0.87127  1.0000
  In  In4       1.0  0.75000  0.75000  0.87127  1.0000
  In  In5       1.0  0.25364  0.51469  0.13449  1.0000
  In  In6       1.0  0.25364  0.98531  0.13449  1.0000
  In  In7       1.0  0.75053  0.75000  0.04142  1.0000
  In  In8       1.0  0.75232  0.25000  0.04447  1.0000
  Cu  Cu1       1.0  0.00000  0.00000  0.87127  1.0000
  Cu  Cu2       1.0  0.00000  0.50000  0.87127  1.0000
  Cu  Cu3       1.0  0.50000  0.75000  0.95709  1.0000
  Cu  Cu4       1.0  0.50000  0.25000  0.95709  1.0000
  Cu  Cu5       1.0  0.00051  0.50152  0.04334  1.0000
  Cu  Cu6       1.0  0.00052  0.99848  0.04333  1.0000
  Cu  Cu7       1.0  0.44357  0.25000  0.13986  1.0000
  Cu  Cu8       1.0  0.51468  0.75000  0.12567  1.0000
  Pd  Pd1       1.0  0.00000  0.25000  0.95709  1.0000
  Pd  Pd2       1.0  0.00000  0.75000  0.95709  1.0000
  Pd  Pd3       1.0  0.50000  0.50000  0.87127  1.0000
  Pd  Pd4       1.0  0.50000  0.00000  0.87127  1.0000
  Pd  Pd5       1.0  0.98757  0.75000  0.12533  1.0000
  Pd  Pd6       1.0  0.05333  0.25000  0.13349  1.0000
  Pd  Pd7       1.0  0.49925  0.99695  0.04323  1.0000
  Pd  Pd8       1.0  0.49925  0.50305  0.04323  1.0000
  C   C1        1.0  0.73284  0.25000  0.13602  1.0000
