# generated using pymatgen
data_Sc8In8Cu8Pd8C
_symmetry_space_group_name_H-M   'P 1'
_cell_length_a   9.24656000
_cell_length_b   6.53831000
_cell_length_c   26.93490000
_cell_angle_alpha   90.00000000
_cell_angle_beta   90.00000000
_cell_angle_gamma   90.00000000
_symmetry_Int_Tables_number   1
_chemical_formula_structural   Sc8In8Cu8Pd8C
_chemical_formula_sum   'Sc8 In8 Cu8 Pd8 C1'
_cell_volume   1628.39990166
_cell_formula_units_Z   1
loop_
 _symmetry_equiv_pos_site_id
 _symmetry_equiv_pos_as_xyz
  1  'x, y, z'
loop_
 _atom_site_type_symbol
 _atom_site_label
 _atom_site_symmetry_multiplicity
 _atom_site_fract_x
 _atom_site_fract_y
 _atom_site_fract_z
 _atom_site_occupancy
  Sc  Sc0  1  0.75000000  0.75000000  0.04291000  1.0
  Sc  Sc1  1  0.25000000  0.75000000  0.04291000  1.0
  Sc  Sc2  1  0.00000000  0.25000000  0.12873000  1.0
  Sc  Sc3  1  0.50000000  0.25000000  0.12873000  1.0
  Sc  Sc4  1  0.23236000  0.75137000  0.87029000  1.0
  Sc  Sc5  1  0.76764000  0.75137000  0.87029000  1.0
  Sc  Sc6  1  0.50000000  0.24588000  0.95535000  1.0
  Sc  Sc7  1  0.00000000  0.25307000  0.95350000  1.0
  In  In8  1  0.75000000  0.25000000  0.04291000  1.0
  In  In9  1  0.25000000  0.25000000  0.04291000  1.0
  In  In10  1  0.00000000  0.75000000  0.12873000  1.0
  In  In11  1  0.50000000  0.75000000  0.12873000  1.0
  In  In12  1  0.26469000  0.25364000  0.86551000  1.0
  In  In13  1  0.73531000  0.25364000  0.86551000  1.0
  In  In14  1  0.50000000  0.75053000  0.95858000  1.0
  In  In15  1  0.00000000  0.75232000  0.95553000  1.0
  Cu  Cu16  1  0.75000000  0.00000000  0.12873000  1.0
  Cu  Cu17  1  0.25000000  0.00000000  0.12873000  1.0
  Cu  Cu18  1  0.50000000  0.50000000  0.04291000  1.0
  Cu  Cu19  1  0.00000000  0.50000000  0.04291000  1.0
  Cu  Cu20  1  0.25152000  0.00051000  0.95666000  1.0
  Cu  Cu21  1  0.74848000  0.00051000  0.95666000  1.0
  Cu  Cu22  1  0.00000000  0.44357000  0.86014000  1.0
  Cu  Cu23  1  0.50000000  0.51468000  0.87433000  1.0
  Pd  Pd24  1  0.00000000  0.00000000  0.04291000  1.0
  Pd  Pd25  1  0.50000000  0.00000000  0.04291000  1.0
  Pd  Pd26  1  0.25000000  0.50000000  0.12873000  1.0
  Pd  Pd27  1  0.75000000  0.50000000  0.12873000  1.0
  Pd  Pd28  1  0.50000000  0.98757000  0.87467000  1.0
  Pd  Pd29  1  0.00000000  0.05333000  0.86651000  1.0
  Pd  Pd30  1  0.74695000  0.49925000  0.95677000  1.0
  Pd  Pd31  1  0.25305000  0.49925000  0.95677000  1.0
  C  C32  1  0.00000000  0.73284000  0.86398000  1.0
