# generated using pymatgen
data_Sc8In8Cu8Pd8C
_symmetry_space_group_name_H-M   Pm
_cell_length_a   6.53831000
_cell_length_b   9.24656000
_cell_length_c   26.93490000
_cell_angle_alpha   90.00000000
_cell_angle_beta   90.00000000
_cell_angle_gamma   90.00000000
_symmetry_Int_Tables_number   6
_chemical_formula_structural   Sc8In8Cu8Pd8C
_chemical_formula_sum   'Sc8 In8 Cu8 Pd8 C1'
_cell_volume   1628.39990166
_cell_formula_units_Z   1
loop_
 _symmetry_equiv_pos_site_id
 _symmetry_equiv_pos_as_xyz
  1  'x, y, z'
  2  'x, -y, z'
loop_
 _atom_site_type_symbol
 _atom_site_label
 _atom_site_symmetry_multiplicity
 _atom_site_fract_x
 _atom_site_fract_y
 _atom_site_fract_z
 _atom_site_occupancy
  Sc  Sc0  2  0.75000000  0.25000000  0.95709000  1.0
  Sc  Sc1  2  0.75137000  0.23236000  0.12971000  1.0
  Sc  Sc2  1  0.24588000  0.50000000  0.04465000  1.0
  Sc  Sc3  1  0.25000000  0.00000000  0.87127000  1.0
  Sc  Sc4  1  0.25000000  0.50000000  0.87127000  1.0
  Sc  Sc5  1  0.25307000  0.00000000  0.04650000  1.0
  In  In6  2  0.25000000  0.25000000  0.95709000  1.0
  In  In7  2  0.25364000  0.26469000  0.13449000  1.0
  In  In8  1  0.75000000  0.00000000  0.87127000  1.0
  In  In9  1  0.75000000  0.50000000  0.87127000  1.0
  In  In10  1  0.75053000  0.50000000  0.04142000  1.0
  In  In11  1  0.75232000  0.00000000  0.04447000  1.0
  Cu  Cu12  2  0.00000000  0.25000000  0.87127000  1.0
  Cu  Cu13  2  0.00051000  0.25152000  0.04334000  1.0
  Cu  Cu14  1  0.44357000  0.00000000  0.13986000  1.0
  Cu  Cu15  1  0.50000000  0.00000000  0.95709000  1.0
  Cu  Cu16  1  0.50000000  0.50000000  0.95709000  1.0
  Cu  Cu17  1  0.51468000  0.50000000  0.12567000  1.0
  Pd  Pd18  2  0.49925000  0.25305000  0.04323000  1.0
  Pd  Pd19  2  0.50000000  0.25000000  0.87127000  1.0
  Pd  Pd20  1  0.00000000  0.00000000  0.95709000  1.0
  Pd  Pd21  1  0.00000000  0.50000000  0.95709000  1.0
  Pd  Pd22  1  0.05333000  0.00000000  0.13349000  1.0
  Pd  Pd23  1  0.98757000  0.50000000  0.12533000  1.0
  C  C24  1  0.73284000  0.00000000  0.13602000  1.0
