data_image0
_chemical_formula_structural       Y8Sc8In8Pd8C
_chemical_formula_sum              "Y8 Sc8 In8 Pd8 C1"
_cell_length_a       10.1153
_cell_length_b       7.36232
_cell_length_c       27.2318
_cell_angle_alpha    90
_cell_angle_beta     90
_cell_angle_gamma    90

_space_group_name_H-M_alt    "P 1"
_space_group_IT_number       1

loop_
  _space_group_symop_operation_xyz
  'x, y, z'

loop_
  _atom_site_type_symbol
  _atom_site_label
  _atom_site_symmetry_multiplicity
  _atom_site_fract_x
  _atom_site_fract_y
  _atom_site_fract_z
  _atom_site_occupancy
  Y   Y1        1.0  0.25000  0.25000  0.86722  1.0000
  Y   Y2        1.0  0.25872  0.25828  0.04237  1.0000
  Y   Y3        1.0  0.25000  0.75000  0.86722  1.0000
  Y   Y4        1.0  0.25869  0.74175  0.04236  1.0000
  Y   Y5        1.0  0.75000  0.25000  0.86722  1.0000
  Y   Y6        1.0  0.76287  0.23518  0.05201  1.0000
  Y   Y7        1.0  0.75000  0.75000  0.86722  1.0000
  Y   Y8        1.0  0.76291  0.76491  0.05207  1.0000
  Sc  Sc1       1.0  0.00000  0.25000  0.95574  1.0000
  Sc  Sc2       1.0  0.01326  0.21572  0.13538  1.0000
  Sc  Sc3       1.0  0.00000  0.75000  0.95574  1.0000
  Sc  Sc4       1.0  0.01355  0.78406  0.13536  1.0000
  Sc  Sc5       1.0  0.50000  0.25000  0.95574  1.0000
  Sc  Sc6       1.0  0.48283  0.25148  0.13842  1.0000
  Sc  Sc7       1.0  0.50000  0.75000  0.95574  1.0000
  Sc  Sc8       1.0  0.48277  0.74859  0.13844  1.0000
  In  In1       1.0  0.00000  0.00000  0.86722  1.0000
  In  In2       1.0  0.02196  0.00005  0.03937  1.0000
  In  In3       1.0  0.00000  0.50000  0.86722  1.0000
  In  In4       1.0  0.00176  0.49999  0.05245  1.0000
  In  In5       1.0  0.50000  0.00000  0.86722  1.0000
  In  In6       1.0  0.50157  0.99999  0.04880  1.0000
  In  In7       1.0  0.50000  0.50000  0.86722  1.0000
  In  In8       1.0  0.51663  0.50004  0.04827  1.0000
  Pd  Pd1       1.0  0.25000  0.00000  0.95574  1.0000
  Pd  Pd2       1.0  0.25837  0.00002  0.12227  1.0000
  Pd  Pd3       1.0  0.25000  0.50000  0.95574  1.0000
  Pd  Pd4       1.0  0.26230  0.50005  0.12259  1.0000
  Pd  Pd5       1.0  0.75000  0.00000  0.95574  1.0000
  Pd  Pd6       1.0  0.68132  0.00014  0.13404  1.0000
  Pd  Pd7       1.0  0.75000  0.50000  0.95574  1.0000
  Pd  Pd8       1.0  0.72542  0.49982  0.12609  1.0000
  C   C1        1.0  0.89019  0.99988  0.11006  1.0000
