# generated using pymatgen
data_Y8Sc8In8Pd8C
_symmetry_space_group_name_H-M   P1
_cell_length_a   7.36232000
_cell_length_b   10.11530000
_cell_length_c   27.23180000
_cell_angle_alpha   90.00000000
_cell_angle_beta   90.00000000
_cell_angle_gamma   90.00000000
_symmetry_Int_Tables_number   1
_chemical_formula_structural   Y8Sc8In8Pd8C
_chemical_formula_sum   'Y8 Sc8 In8 Pd8 C1'
_cell_volume   2028.00866549
_cell_formula_units_Z   1
loop_
 _symmetry_equiv_pos_site_id
 _symmetry_equiv_pos_as_xyz
  1  'x, y, z'
loop_
 _atom_site_type_symbol
 _atom_site_label
 _atom_site_symmetry_multiplicity
 _atom_site_fract_x
 _atom_site_fract_y
 _atom_site_fract_z
 _atom_site_occupancy
  Y  Y0  1  0.23509000  0.23709000  0.94793000  1.0
  Y  Y1  1  0.25000000  0.25000000  0.13278000  1.0
  Y  Y2  1  0.25000000  0.75000000  0.13278000  1.0
  Y  Y3  1  0.25825000  0.74131000  0.95764000  1.0
  Y  Y4  1  0.74172000  0.74128000  0.95763000  1.0
  Y  Y5  1  0.75000000  0.25000000  0.13278000  1.0
  Y  Y6  1  0.75000000  0.75000000  0.13278000  1.0
  Y  Y7  1  0.76482000  0.23713000  0.94799000  1.0
  Sc  Sc8  1  0.21594000  0.98645000  0.86464000  1.0
  Sc  Sc9  1  0.25000000  0.00000000  0.04426000  1.0
  Sc  Sc10  1  0.25000000  0.50000000  0.04426000  1.0
  Sc  Sc11  1  0.25141000  0.51723000  0.86156000  1.0
  Sc  Sc12  1  0.74852000  0.51717000  0.86158000  1.0
  Sc  Sc13  1  0.75000000  0.00000000  0.04426000  1.0
  Sc  Sc14  1  0.75000000  0.50000000  0.04426000  1.0
  Sc  Sc15  1  0.78428000  0.98674000  0.86462000  1.0
  In  In16  1  0.00000000  0.00000000  0.13278000  1.0
  In  In17  1  0.00000000  0.50000000  0.13278000  1.0
  In  In18  1  0.00001000  0.49843000  0.95120000  1.0
  In  In19  1  0.49996000  0.48337000  0.95173000  1.0
  In  In20  1  0.50000000  0.00000000  0.13278000  1.0
  In  In21  1  0.50000000  0.50000000  0.13278000  1.0
  In  In22  1  0.50001000  0.99824000  0.94755000  1.0
  In  In23  1  0.99995000  0.97804000  0.96063000  1.0
  Pd  Pd24  1  0.00000000  0.25000000  0.04426000  1.0
  Pd  Pd25  1  0.00000000  0.75000000  0.04426000  1.0
  Pd  Pd26  1  0.49995000  0.73770000  0.87741000  1.0
  Pd  Pd27  1  0.50000000  0.25000000  0.04426000  1.0
  Pd  Pd28  1  0.50000000  0.75000000  0.04426000  1.0
  Pd  Pd29  1  0.50018000  0.27458000  0.87391000  1.0
  Pd  Pd30  1  0.99986000  0.31868000  0.86596000  1.0
  Pd  Pd31  1  0.99998000  0.74163000  0.87773000  1.0
  C  C32  1  0.00012000  0.10981000  0.88994000  1.0
