# generated using pymatgen
data_Li8Sc8In8Ge8CO
_symmetry_space_group_name_H-M   'P 1'
_cell_length_a   8.12626000
_cell_length_b   8.22048000
_cell_length_c   26.73030000
_cell_angle_alpha   90.00000000
_cell_angle_beta   90.00000000
_cell_angle_gamma   90.00000000
_symmetry_Int_Tables_number   1
_chemical_formula_structural   Li8Sc8In8Ge8CO
_chemical_formula_sum   'Li8 Sc8 In8 Ge8 C1 O1'
_cell_volume   1785.63102665
_cell_formula_units_Z   1
loop_
 _symmetry_equiv_pos_site_id
 _symmetry_equiv_pos_as_xyz
  1  'x, y, z'
loop_
 _atom_site_type_symbol
 _atom_site_label
 _atom_site_symmetry_multiplicity
 _atom_site_fract_x
 _atom_site_fract_y
 _atom_site_fract_z
 _atom_site_occupancy
  Li  Li0  1  0.25000000  0.00000000  0.95804000  1.0
  Li  Li1  1  0.25183000  0.99988000  0.13758000  1.0
  Li  Li2  1  0.25000000  0.50000000  0.95804000  1.0
  Li  Li3  1  0.24653000  0.49990000  0.13817000  1.0
  Li  Li4  1  0.75000000  0.00000000  0.95804000  1.0
  Li  Li5  1  0.74792000  0.99976000  0.13755000  1.0
  Li  Li6  1  0.75000000  0.50000000  0.95804000  1.0
  Li  Li7  1  0.75222000  0.49999000  0.13752000  1.0
  Sc  Sc8  1  0.25000000  0.25000000  0.87411000  1.0
  Sc  Sc9  1  0.24999000  0.24993000  0.04450000  1.0
  Sc  Sc10  1  0.25000000  0.75000000  0.87411000  1.0
  Sc  Sc11  1  0.25050000  0.75000000  0.04434000  1.0
  Sc  Sc12  1  0.75000000  0.25000000  0.87411000  1.0
  Sc  Sc13  1  0.74984000  0.24961000  0.04438000  1.0
  Sc  Sc14  1  0.75000000  0.75000000  0.87411000  1.0
  Sc  Sc15  1  0.74946000  0.75027000  0.04427000  1.0
  In  In16  1  0.00000000  0.25000000  0.95804000  1.0
  In  In17  1  0.99954000  0.24769000  0.13430000  1.0
  In  In18  1  0.00000000  0.75000000  0.95804000  1.0
  In  In19  1  0.99963000  0.75184000  0.13427000  1.0
  In  In20  1  0.50000000  0.25000000  0.95804000  1.0
  In  In21  1  0.50010000  0.25225000  0.13456000  1.0
  In  In22  1  0.50000000  0.75000000  0.95804000  1.0
  In  In23  1  0.50002000  0.74734000  0.13418000  1.0
  Ge  Ge24  1  0.00000000  0.00000000  0.87411000  1.0
  Ge  Ge25  1  0.99951000  0.99950000  0.05085000  1.0
  Ge  Ge26  1  0.00000000  0.50000000  0.87411000  1.0
  Ge  Ge27  1  0.99961000  0.49999000  0.05085000  1.0
  Ge  Ge28  1  0.50000000  0.00000000  0.87411000  1.0
  Ge  Ge29  1  0.50004000  0.99994000  0.05134000  1.0
  Ge  Ge30  1  0.50000000  0.50000000  0.87411000  1.0
  Ge  Ge31  1  0.50007000  0.50010000  0.05012000  1.0
  C  C32  1  0.03713000  0.30987000  0.29180000  1.0
  O  O33  1  0.98305000  0.21171000  0.31648000  1.0
