# generated using pymatgen
data_Li8Mg8In8Pd8C
_symmetry_space_group_name_H-M   'P 1'
_cell_length_a   9.22454000
_cell_length_b   6.52273000
_cell_length_c   26.91840000
_cell_angle_alpha   90.00000000
_cell_angle_beta   90.00000000
_cell_angle_gamma   90.00000000
_symmetry_Int_Tables_number   1
_chemical_formula_structural   Li8Mg8In8Pd8C
_chemical_formula_sum   'Li8 Mg8 In8 Pd8 C1'
_cell_volume   1619.65815705
_cell_formula_units_Z   1
loop_
 _symmetry_equiv_pos_site_id
 _symmetry_equiv_pos_as_xyz
  1  'x, y, z'
loop_
 _atom_site_type_symbol
 _atom_site_label
 _atom_site_symmetry_multiplicity
 _atom_site_fract_x
 _atom_site_fract_y
 _atom_site_fract_z
 _atom_site_occupancy
  Li  Li0  1  0.75000000  0.25000000  0.04284000  1.0
  Li  Li1  1  0.25000000  0.25000000  0.04284000  1.0
  Li  Li2  1  0.00000000  0.75000000  0.12851000  1.0
  Li  Li3  1  0.50000000  0.75000000  0.12851000  1.0
  Li  Li4  1  0.22455000  0.25532000  0.85099000  1.0
  Li  Li5  1  0.77545000  0.25532000  0.85099000  1.0
  Li  Li6  1  0.50000000  0.74269000  0.95349000  1.0
  Li  Li7  1  0.00000000  0.74010000  0.95832000  1.0
  Mg  Mg8  1  0.00000000  1.00000000  0.04284000  1.0
  Mg  Mg9  1  0.50000000  1.00000000  0.04284000  1.0
  Mg  Mg10  1  0.25000000  0.50000000  0.12851000  1.0
  Mg  Mg11  1  0.75000000  0.50000000  0.12851000  1.0
  Mg  Mg12  1  0.50000000  0.00003000  0.86999000  1.0
  Mg  Mg13  1  0.00000000  0.96065000  0.87172000  1.0
  Mg  Mg14  1  0.74914000  0.48882000  0.95515000  1.0
  Mg  Mg15  1  0.25086000  0.48882000  0.95515000  1.0
  In  In16  1  0.75000000  0.00000000  0.12851000  1.0
  In  In17  1  0.25000000  0.00000000  0.12851000  1.0
  In  In18  1  0.50000000  0.50000000  0.04284000  1.0
  In  In19  1  0.00000000  0.50000000  0.04284000  1.0
  In  In20  1  0.24848000  0.00693000  0.95621000  1.0
  In  In21  1  0.75152000  0.00693000  0.95621000  1.0
  In  In22  1  0.00000000  0.54731000  0.86201000  1.0
  In  In23  1  0.50000000  0.48149000  0.86195000  1.0
  Pd  Pd24  1  0.75000000  0.75000000  0.04284000  1.0
  Pd  Pd25  1  0.25000000  0.75000000  0.04284000  1.0
  Pd  Pd26  1  0.00000000  0.25000000  0.12851000  1.0
  Pd  Pd27  1  0.50000000  0.25000000  0.12851000  1.0
  Pd  Pd28  1  0.26745000  0.74125000  0.87795000  1.0
  Pd  Pd29  1  0.73255000  0.74125000  0.87795000  1.0
  Pd  Pd30  1  0.50000000  0.25103000  0.95775000  1.0
  Pd  Pd31  1  0.00000000  0.25646000  0.95415000  1.0
  C  C32  1  0.00000000  0.24347000  0.84307000  1.0
