# generated using pymatgen
data_Li8Al8Fe8Pd8C
_symmetry_space_group_name_H-M   'P 1'
_cell_length_a   5.67696000
_cell_length_b   8.60712000
_cell_length_c   26.63180000
_cell_angle_alpha   90.00000000
_cell_angle_beta   90.00000000
_cell_angle_gamma   90.00000000
_symmetry_Int_Tables_number   1
_chemical_formula_structural   Li8Al8Fe8Pd8C
_chemical_formula_sum   'Li8 Al8 Fe8 Pd8 C1'
_cell_volume   1301.29036078
_cell_formula_units_Z   1
loop_
 _symmetry_equiv_pos_site_id
 _symmetry_equiv_pos_as_xyz
  1  'x, y, z'
loop_
 _atom_site_type_symbol
 _atom_site_label
 _atom_site_symmetry_multiplicity
 _atom_site_fract_x
 _atom_site_fract_y
 _atom_site_fract_z
 _atom_site_occupancy
  Li  Li0  1  0.75607000  0.25042000  0.04140000  1.0
  Li  Li1  1  0.75000000  0.25000000  0.87549000  1.0
  Li  Li2  1  0.75607000  0.74958000  0.04140000  1.0
  Li  Li3  1  0.75000000  0.75000000  0.87549000  1.0
  Li  Li4  1  0.24393000  0.25042000  0.04140000  1.0
  Li  Li5  1  0.25000000  0.25000000  0.87549000  1.0
  Li  Li6  1  0.24393000  0.74958000  0.04140000  1.0
  Li  Li7  1  0.25000000  0.75000000  0.87549000  1.0
  Al  Al8  1  0.71265000  0.00000000  0.11718000  1.0
  Al  Al9  1  0.75000000  0.00000000  0.95850000  1.0
  Al  Al10  1  0.75162000  0.50000000  0.12606000  1.0
  Al  Al11  1  0.75000000  0.50000000  0.95850000  1.0
  Al  Al12  1  0.28735000  0.00000000  0.11718000  1.0
  Al  Al13  1  0.25000000  0.00000000  0.95850000  1.0
  Al  Al14  1  0.24838000  0.50000000  0.12606000  1.0
  Al  Al15  1  0.25000000  0.50000000  0.95850000  1.0
  Fe  Fe16  1  0.00000000  0.20380000  0.13302000  1.0
  Fe  Fe17  1  0.00000000  0.25000000  0.95850000  1.0
  Fe  Fe18  1  0.00000000  0.79620000  0.13302000  1.0
  Fe  Fe19  1  0.00000000  0.75000000  0.95850000  1.0
  Fe  Fe20  1  0.50000000  0.25737000  0.11868000  1.0
  Fe  Fe21  1  0.50000000  0.25000000  0.95850000  1.0
  Fe  Fe22  1  0.50000000  0.74263000  0.11868000  1.0
  Fe  Fe23  1  0.50000000  0.75000000  0.95850000  1.0
  Pd  Pd24  1  0.00000000  0.00000000  0.03949000  1.0
  Pd  Pd25  1  0.00000000  0.00000000  0.87549000  1.0
  Pd  Pd26  1  0.00000000  0.50000000  0.04245000  1.0
  Pd  Pd27  1  0.00000000  0.50000000  0.87549000  1.0
  Pd  Pd28  1  0.50000000  0.00000000  0.03510000  1.0
  Pd  Pd29  1  0.50000000  0.00000000  0.87549000  1.0
  Pd  Pd30  1  0.50000000  0.50000000  0.04105000  1.0
  Pd  Pd31  1  0.50000000  0.50000000  0.87549000  1.0
  C  C32  1  0.00000000  0.00000000  0.15595000  1.0
