# generated using pymatgen
data_Li16Sn8Ge8CO
_symmetry_space_group_name_H-M   'P 1'
_cell_length_a   6.92564000
_cell_length_b   9.79433000
_cell_length_c   27.34580000
_cell_angle_alpha   90.00000000
_cell_angle_beta   90.00000000
_cell_angle_gamma   90.00000000
_symmetry_Int_Tables_number   1
_chemical_formula_structural   Li16Sn8Ge8CO
_chemical_formula_sum   'Li16 Sn8 Ge8 C1 O1'
_cell_volume   1854.92040462
_cell_formula_units_Z   1
loop_
 _symmetry_equiv_pos_site_id
 _symmetry_equiv_pos_as_xyz
  1  'x, y, z'
loop_
 _atom_site_type_symbol
 _atom_site_label
 _atom_site_symmetry_multiplicity
 _atom_site_fract_x
 _atom_site_fract_y
 _atom_site_fract_z
 _atom_site_occupancy
  Li  Li0  1  0.00000000  0.75000000  0.95523000  1.0
  Li  Li1  1  0.50000000  0.00000000  0.86569000  1.0
  Li  Li2  1  0.00000000  0.25000000  0.95523000  1.0
  Li  Li3  1  0.50000000  0.50000000  0.86569000  1.0
  Li  Li4  1  0.25000000  0.00000000  0.95523000  1.0
  Li  Li5  1  0.25000000  0.50000000  0.95523000  1.0
  Li  Li6  1  0.75000000  0.75000000  0.86569000  1.0
  Li  Li7  1  0.75000000  0.25000000  0.86569000  1.0
  Li  Li8  1  0.04124000  0.22741000  0.11334000  1.0
  Li  Li9  1  0.60910000  0.50150000  0.05386000  1.0
  Li  Li10  1  0.04417000  0.77469000  0.11398000  1.0
  Li  Li11  1  0.51203000  0.00070000  0.03355000  1.0
  Li  Li12  1  0.31422000  0.50066000  0.14157000  1.0
  Li  Li13  1  0.38901000  0.99928000  0.12490000  1.0
  Li  Li14  1  0.75501000  0.23391000  0.04095000  1.0
  Li  Li15  1  0.75572000  0.76845000  0.04150000  1.0
  Sn  Sn16  1  0.00000000  0.00000000  0.86569000  1.0
  Sn  Sn17  1  0.50000000  0.25000000  0.95523000  1.0
  Sn  Sn18  1  0.50000000  0.75000000  0.95523000  1.0
  Sn  Sn19  1  0.00000000  0.50000000  0.86569000  1.0
  Sn  Sn20  1  0.09930000  0.50617000  0.04373000  1.0
  Sn  Sn21  1  0.63695000  0.69314000  0.14272000  1.0
  Sn  Sn22  1  0.63386000  0.30705000  0.14146000  1.0
  Sn  Sn23  1  0.01693000  0.00106000  0.03500000  1.0
  Ge  Ge24  1  0.25000000  0.25000000  0.86569000  1.0
  Ge  Ge25  1  0.25000000  0.75000000  0.86569000  1.0
  Ge  Ge26  1  0.75000000  0.50000000  0.95523000  1.0
  Ge  Ge27  1  0.75000000  0.00000000  0.95523000  1.0
  Ge  Ge28  1  0.37332000  0.73693000  0.06218000  1.0
  Ge  Ge29  1  0.36824000  0.26678000  0.06040000  1.0
  Ge  Ge30  1  0.78168000  0.00037000  0.11615000  1.0
  Ge  Ge31  1  0.93538000  0.49956000  0.13705000  1.0
  C  C32  1  0.27478000  0.00239000  0.19686000  1.0
  O  O33  1  0.22201000  0.00385000  0.23632000  1.0
