# generated using pymatgen
data_Ga4Pt12C
_symmetry_space_group_name_H-M   'P 1'
_cell_length_a   5.60543000
_cell_length_b   7.92728000
_cell_length_c   24.20410000
_cell_angle_alpha   90.00000000
_cell_angle_beta   90.00000000
_cell_angle_gamma   90.00000000
_symmetry_Int_Tables_number   1
_chemical_formula_structural   Ga4Pt12C
_chemical_formula_sum   'Ga4 Pt12 C1'
_cell_volume   1075.52886459
_cell_formula_units_Z   1
loop_
 _symmetry_equiv_pos_site_id
 _symmetry_equiv_pos_as_xyz
  1  'x, y, z'
loop_
 _atom_site_type_symbol
 _atom_site_label
 _atom_site_symmetry_multiplicity
 _atom_site_fract_x
 _atom_site_fract_y
 _atom_site_fract_z
 _atom_site_occupancy
  Ga  Ga0  1  0.00000000  0.00000000  0.08685000  1.0
  Ga  Ga1  1  0.49992000  0.00001000  0.97691000  1.0
  Ga  Ga2  1  0.00000000  0.50000000  0.08685000  1.0
  Ga  Ga3  1  0.50013000  0.50032000  0.94230000  1.0
  Pt  Pt4  1  0.50000000  1.00000000  0.08685000  1.0
  Pt  Pt5  1  0.25000000  0.75000000  0.02895000  1.0
  Pt  Pt6  1  0.75000000  0.75000000  0.02895000  1.0
  Pt  Pt7  1  0.00021000  0.00003000  0.97981000  1.0
  Pt  Pt8  1  0.74866000  0.80189000  0.90821000  1.0
  Pt  Pt9  1  0.25074000  0.80222000  0.90814000  1.0
  Pt  Pt10  1  0.50000000  0.50000000  0.08685000  1.0
  Pt  Pt11  1  0.25000000  0.25000000  0.02895000  1.0
  Pt  Pt12  1  0.75000000  0.25000000  0.02895000  1.0
  Pt  Pt13  1  0.00095000  0.49995000  0.95868000  1.0
  Pt  Pt14  1  0.74858000  0.19840000  0.90826000  1.0
  Pt  Pt15  1  0.25062000  0.19802000  0.90817000  1.0
  C  C16  1  0.00001000  0.00025000  0.89235000  1.0
