# generated using pymatgen
data_Li4Al4Ag4Ge4C
_symmetry_space_group_name_H-M   'P 1'
_cell_length_a   8.02734000
_cell_length_b   5.75991000
_cell_length_c   24.29680000
_cell_angle_alpha   90.00000000
_cell_angle_beta   90.00000000
_cell_angle_gamma   90.00000000
_symmetry_Int_Tables_number   1
_chemical_formula_structural   Li4Al4Ag4Ge4C
_chemical_formula_sum   'Li4 Al4 Ag4 Ge4 C1'
_cell_volume   1123.40521171
_cell_formula_units_Z   1
loop_
 _symmetry_equiv_pos_site_id
 _symmetry_equiv_pos_as_xyz
  1  'x, y, z'
loop_
 _atom_site_type_symbol
 _atom_site_label
 _atom_site_symmetry_multiplicity
 _atom_site_fract_x
 _atom_site_fract_y
 _atom_site_fract_z
 _atom_site_occupancy
  Li  Li0  1  0.75002000  0.22418000  0.02947000  1.0
  Li  Li1  1  0.68477000  0.69308000  0.88982000  1.0
  Li  Li2  1  0.24998000  0.22418000  0.02947000  1.0
  Li  Li3  1  0.31523000  0.69308000  0.88982000  1.0
  Al  Al4  1  0.50000000  0.50000000  0.08842000  1.0
  Al  Al5  1  0.50000000  0.94714000  0.97565000  1.0
  Al  Al6  1  0.00000000  0.50000000  0.08842000  1.0
  Al  Al7  1  0.00000000  0.89653000  0.96866000  1.0
  Ag  Ag8  1  0.50000000  0.00000000  0.08842000  1.0
  Ag  Ag9  1  0.50000000  0.45759000  0.97517000  1.0
  Ag  Ag10  1  0.00000000  1.00000000  0.08842000  1.0
  Ag  Ag11  1  0.00000000  0.39824000  0.95516000  1.0
  Ge  Ge12  1  0.75002000  0.72418000  0.02947000  1.0
  Ge  Ge13  1  0.67375000  0.19882000  0.89367000  1.0
  Ge  Ge14  1  0.24998000  0.72418000  0.02947000  1.0
  Ge  Ge15  1  0.32625000  0.19882000  0.89367000  1.0
  C  C16  1  0.50000000  0.43646000  0.87790000  1.0
