# generated using pymatgen
data_Li4Al4Ag4Ge4C
_symmetry_space_group_name_H-M   Pm
_cell_length_a   5.75991000
_cell_length_b   8.02734000
_cell_length_c   24.29680000
_cell_angle_alpha   90.00000000
_cell_angle_beta   90.00000000
_cell_angle_gamma   90.00000000
_symmetry_Int_Tables_number   6
_chemical_formula_structural   Li4Al4Ag4Ge4C
_chemical_formula_sum   'Li4 Al4 Ag4 Ge4 C1'
_cell_volume   1123.40521171
_cell_formula_units_Z   1
loop_
 _symmetry_equiv_pos_site_id
 _symmetry_equiv_pos_as_xyz
  1  'x, y, z'
  2  'x, -y, z'
loop_
 _atom_site_type_symbol
 _atom_site_label
 _atom_site_symmetry_multiplicity
 _atom_site_fract_x
 _atom_site_fract_y
 _atom_site_fract_z
 _atom_site_occupancy
  Li  Li0  2  0.22418000  0.24998000  0.97053000  1.0
  Li  Li1  2  0.69308000  0.31523000  0.11018000  1.0
  Al  Al2  1  0.50000000  0.00000000  0.91158000  1.0
  Al  Al3  1  0.50000000  0.50000000  0.91158000  1.0
  Al  Al4  1  0.89653000  0.00000000  0.03134000  1.0
  Al  Al5  1  0.94714000  0.50000000  0.02435000  1.0
  Ag  Ag6  1  -0.00000000  0.00000000  0.91158000  1.0
  Ag  Ag7  1  0.00000000  0.50000000  0.91158000  1.0
  Ag  Ag8  1  0.39824000  0.00000000  0.04484000  1.0
  Ag  Ag9  1  0.45759000  0.50000000  0.02483000  1.0
  Ge  Ge10  2  0.19882000  0.32625000  0.10633000  1.0
  Ge  Ge11  2  0.72418000  0.24998000  0.97053000  1.0
  C  C12  1  0.43646000  0.50000000  0.12210000  1.0
