# generated using pymatgen
data_Zr16Cu16C
_symmetry_space_group_name_H-M   Pmm2
_cell_length_a   6.62616000
_cell_length_b   9.37081000
_cell_length_c   27.02810000
_cell_angle_alpha   90.00000000
_cell_angle_beta   90.00000000
_cell_angle_gamma   90.00000000
_symmetry_Int_Tables_number   25
_chemical_formula_structural   Zr16Cu16C
_chemical_formula_sum   'Zr16 Cu16 C1'
_cell_volume   1678.24193139
_cell_formula_units_Z   1
loop_
 _symmetry_equiv_pos_site_id
 _symmetry_equiv_pos_as_xyz
  1  'x, y, z'
  2  '-x, -y, z'
  3  '-x, y, z'
  4  'x, -y, z'
loop_
 _atom_site_type_symbol
 _atom_site_label
 _atom_site_symmetry_multiplicity
 _atom_site_fract_x
 _atom_site_fract_y
 _atom_site_fract_z
 _atom_site_occupancy
  Zr  Zr0  2  0.00000000  0.23254000  0.12823000  1.0
  Zr  Zr1  2  0.00000000  0.25000000  0.95666000  1.0
  Zr  Zr2  2  0.50000000  0.25000000  0.95666000  1.0
  Zr  Zr3  2  0.50000000  0.26680000  0.12244000  1.0
  Zr  Zr4  1  0.00000000  0.00000000  0.04301000  1.0
  Zr  Zr5  1  0.00000000  0.00000000  0.86999000  1.0
  Zr  Zr6  1  0.00000000  0.50000000  0.04041000  1.0
  Zr  Zr7  1  0.00000000  0.50000000  0.86999000  1.0
  Zr  Zr8  1  0.50000000  0.00000000  0.03844000  1.0
  Zr  Zr9  1  0.50000000  0.00000000  0.86999000  1.0
  Zr  Zr10  1  0.50000000  0.50000000  0.03962000  1.0
  Zr  Zr11  1  0.50000000  0.50000000  0.86999000  1.0
  Cu  Cu12  4  0.23912000  0.24966000  0.04330000  1.0
  Cu  Cu13  4  0.25000000  0.25000000  0.86999000  1.0
  Cu  Cu14  2  0.23289000  0.50000000  0.12187000  1.0
  Cu  Cu15  2  0.25000000  0.00000000  0.95666000  1.0
  Cu  Cu16  2  0.25000000  0.50000000  0.95666000  1.0
  Cu  Cu17  2  0.30311000  0.00000000  0.12530000  1.0
  C  C18  1  0.00000000  0.00000000  0.12849000  1.0
