data_image0
_chemical_formula_structural       Sc8In8Au16CO
_chemical_formula_sum              "Sc8 In8 Au16 C1 O1"
_cell_length_a       6.85473
_cell_length_b       9.69405
_cell_length_c       27.2705
_cell_angle_alpha    90
_cell_angle_beta     90
_cell_angle_gamma    90

_space_group_name_H-M_alt    "P 1"
_space_group_IT_number       1

loop_
  _space_group_symop_operation_xyz
  'x, y, z'

loop_
  _atom_site_type_symbol
  _atom_site_label
  _atom_site_symmetry_multiplicity
  _atom_site_fract_x
  _atom_site_fract_y
  _atom_site_fract_z
  _atom_site_occupancy
  Sc  Sc1       1.0  0.00000  0.00000  0.86670  1.0000
  Sc  Sc2       1.0  0.50000  0.25000  0.95557  1.0000
  Sc  Sc3       1.0  0.50000  0.75000  0.95557  1.0000
  Sc  Sc4       1.0  0.00000  0.50000  0.86670  1.0000
  Sc  Sc5       1.0  0.99701  0.50000  0.04893  1.0000
  Sc  Sc6       1.0  0.49692  0.75438  0.12662  1.0000
  Sc  Sc7       1.0  0.49692  0.24562  0.12662  1.0000
  Sc  Sc8       1.0  0.01345  1.00000  0.05200  1.0000
  In  In1       1.0  0.00000  0.75000  0.95557  1.0000
  In  In2       1.0  0.50000  0.00000  0.86670  1.0000
  In  In3       1.0  0.00000  0.25000  0.95557  1.0000
  In  In4       1.0  0.50000  0.50000  0.86670  1.0000
  In  In5       1.0  0.99505  0.26176  0.14109  1.0000
  In  In6       1.0  0.50425  0.50000  0.04164  1.0000
  In  In7       1.0  0.99505  0.73824  0.14109  1.0000
  In  In8       1.0  0.49612  1.00000  0.04462  1.0000
  Au  Au1       1.0  0.25000  0.00000  0.95557  1.0000
  Au  Au2       1.0  0.75000  0.50000  0.95557  1.0000
  Au  Au3       1.0  0.75000  0.00000  0.95557  1.0000
  Au  Au4       1.0  0.25000  0.50000  0.95557  1.0000
  Au  Au5       1.0  0.75000  0.75000  0.86670  1.0000
  Au  Au6       1.0  0.25000  0.25000  0.86670  1.0000
  Au  Au7       1.0  0.25000  0.75000  0.86670  1.0000
  Au  Au8       1.0  0.75000  0.25000  0.86670  1.0000
  Au  Au9       1.0  0.27113  0.50000  0.13407  1.0000
  Au  Au10      1.0  0.74516  1.00000  0.13488  1.0000
  Au  Au11      1.0  0.72033  0.50000  0.13651  1.0000
  Au  Au12      1.0  0.23064  1.00000  0.14297  1.0000
  Au  Au13      1.0  0.76108  0.24700  0.04476  1.0000
  Au  Au14      1.0  0.24240  0.74519  0.04430  1.0000
  Au  Au15      1.0  0.24240  0.25481  0.04430  1.0000
  Au  Au16      1.0  0.76107  0.75300  0.04476  1.0000
  C   C1        1.0  0.29443  1.00000  0.22340  1.0000
  O   O1        1.0  0.22477  0.00000  0.26169  1.0000
