# generated using pymatgen
data_Sc8In8Au16CO
_symmetry_space_group_name_H-M   'P 1'
_cell_length_a   9.69405000
_cell_length_b   6.85473000
_cell_length_c   27.27050000
_cell_angle_alpha   90.00000000
_cell_angle_beta   90.00000000
_cell_angle_gamma   90.00000000
_symmetry_Int_Tables_number   1
_chemical_formula_structural   Sc8In8Au16CO
_chemical_formula_sum   'Sc8 In8 Au16 C1 O1'
_cell_volume   1812.12732542
_cell_formula_units_Z   1
loop_
 _symmetry_equiv_pos_site_id
 _symmetry_equiv_pos_as_xyz
  1  'x, y, z'
loop_
 _atom_site_type_symbol
 _atom_site_label
 _atom_site_symmetry_multiplicity
 _atom_site_fract_x
 _atom_site_fract_y
 _atom_site_fract_z
 _atom_site_occupancy
  Sc  Sc0  1  0.00000000  0.00000000  0.13330000  1.0
  Sc  Sc1  1  0.25000000  0.50000000  0.04443000  1.0
  Sc  Sc2  1  0.75000000  0.50000000  0.04443000  1.0
  Sc  Sc3  1  0.50000000  0.00000000  0.13330000  1.0
  Sc  Sc4  1  0.50000000  0.99701000  0.95107000  1.0
  Sc  Sc5  1  0.75438000  0.49692000  0.87338000  1.0
  Sc  Sc6  1  0.24562000  0.49692000  0.87338000  1.0
  Sc  Sc7  1  0.00000000  0.01345000  0.94800000  1.0
  In  In8  1  0.75000000  0.00000000  0.04443000  1.0
  In  In9  1  0.00000000  0.50000000  0.13330000  1.0
  In  In10  1  0.25000000  0.00000000  0.04443000  1.0
  In  In11  1  0.50000000  0.50000000  0.13330000  1.0
  In  In12  1  0.26176000  0.99505000  0.85891000  1.0
  In  In13  1  0.50000000  0.50425000  0.95836000  1.0
  In  In14  1  0.73824000  0.99505000  0.85891000  1.0
  In  In15  1  0.00000000  0.49612000  0.95538000  1.0
  Au  Au16  1  0.00000000  0.25000000  0.04443000  1.0
  Au  Au17  1  0.50000000  0.75000000  0.04443000  1.0
  Au  Au18  1  0.00000000  0.75000000  0.04443000  1.0
  Au  Au19  1  0.50000000  0.25000000  0.04443000  1.0
  Au  Au20  1  0.75000000  0.75000000  0.13330000  1.0
  Au  Au21  1  0.25000000  0.25000000  0.13330000  1.0
  Au  Au22  1  0.75000000  0.25000000  0.13330000  1.0
  Au  Au23  1  0.25000000  0.75000000  0.13330000  1.0
  Au  Au24  1  0.50000000  0.27113000  0.86593000  1.0
  Au  Au25  1  0.00000000  0.74516000  0.86512000  1.0
  Au  Au26  1  0.50000000  0.72033000  0.86349000  1.0
  Au  Au27  1  0.00000000  0.23064000  0.85703000  1.0
  Au  Au28  1  0.24700000  0.76108000  0.95524000  1.0
  Au  Au29  1  0.74519000  0.24240000  0.95570000  1.0
  Au  Au30  1  0.25481000  0.24240000  0.95570000  1.0
  Au  Au31  1  0.75300000  0.76108000  0.95524000  1.0
  C  C32  1  0.00000000  0.29443000  0.77660000  1.0
  O  O33  1  0.00000000  0.22477000  0.73831000  1.0
