# generated using pymatgen
data_Sc8In8Au16CO
_symmetry_space_group_name_H-M   Pm
_cell_length_a   6.85473000
_cell_length_b   9.69405000
_cell_length_c   27.27050000
_cell_angle_alpha   90.00000000
_cell_angle_beta   90.00000000
_cell_angle_gamma   90.00000000
_symmetry_Int_Tables_number   6
_chemical_formula_structural   Sc8In8Au16CO
_chemical_formula_sum   'Sc8 In8 Au16 C1 O1'
_cell_volume   1812.12732542
_cell_formula_units_Z   1
loop_
 _symmetry_equiv_pos_site_id
 _symmetry_equiv_pos_as_xyz
  1  'x, y, z'
  2  'x, -y, z'
loop_
 _atom_site_type_symbol
 _atom_site_label
 _atom_site_symmetry_multiplicity
 _atom_site_fract_x
 _atom_site_fract_y
 _atom_site_fract_z
 _atom_site_occupancy
  Sc  Sc0  2  0.49692000  0.24562000  0.12662000  1.0
  Sc  Sc1  2  0.50000000  0.25000000  0.95557000  1.0
  Sc  Sc2  1  0.00000000  0.00000000  0.86670000  1.0
  Sc  Sc3  1  0.00000000  0.50000000  0.86670000  1.0
  Sc  Sc4  1  0.01345000  0.00000000  0.05200000  1.0
  Sc  Sc5  1  0.99701000  0.50000000  0.04893000  1.0
  In  In6  2  0.00000000  0.25000000  0.95557000  1.0
  In  In7  2  0.99505000  0.26176000  0.14109000  1.0
  In  In8  1  0.49612000  0.00000000  0.04462000  1.0
  In  In9  1  0.50000000  0.00000000  0.86670000  1.0
  In  In10  1  0.50000000  0.50000000  0.86670000  1.0
  In  In11  1  0.50425000  0.50000000  0.04164000  1.0
  Au  Au12  2  0.24240000  0.25481000  0.04430000  1.0
  Au  Au13  2  0.25000000  0.25000000  0.86670000  1.0
  Au  Au14  2  0.75000000  0.25000000  0.86670000  1.0
  Au  Au15  2  0.76108000  0.24700000  0.04476000  1.0
  Au  Au16  1  0.23064000  0.00000000  0.14297000  1.0
  Au  Au17  1  0.25000000  0.00000000  0.95557000  1.0
  Au  Au18  1  0.25000000  0.50000000  0.95557000  1.0
  Au  Au19  1  0.27113000  0.50000000  0.13407000  1.0
  Au  Au20  1  0.72033000  0.50000000  0.13651000  1.0
  Au  Au21  1  0.74516000  0.00000000  0.13488000  1.0
  Au  Au22  1  0.75000000  0.00000000  0.95557000  1.0
  Au  Au23  1  0.75000000  0.50000000  0.95557000  1.0
  C  C24  1  0.29443000  0.00000000  0.22340000  1.0
  O  O25  1  0.22477000  0.00000000  0.26169000  1.0
