# generated using pymatgen
data_Ti8Al8Au16C
_symmetry_space_group_name_H-M   'P 1'
_cell_length_a   9.19068000
_cell_length_b   6.49880000
_cell_length_c   26.89300000
_cell_angle_alpha   90.00000000
_cell_angle_beta   90.00000000
_cell_angle_gamma   90.00000000
_symmetry_Int_Tables_number   1
_chemical_formula_structural   Ti8Al8Au16C
_chemical_formula_sum   'Ti8 Al8 Au16 C1'
_cell_volume   1606.27562411
_cell_formula_units_Z   1
loop_
 _symmetry_equiv_pos_site_id
 _symmetry_equiv_pos_as_xyz
  1  'x, y, z'
loop_
 _atom_site_type_symbol
 _atom_site_label
 _atom_site_symmetry_multiplicity
 _atom_site_fract_x
 _atom_site_fract_y
 _atom_site_fract_z
 _atom_site_occupancy
  Ti  Ti0  1  0.75000000  0.00000000  0.12816000  1.0
  Ti  Ti1  1  0.00000000  0.50000000  0.04272000  1.0
  Ti  Ti2  1  0.50000000  0.50000000  0.04272000  1.0
  Ti  Ti3  1  0.25000000  0.00000000  0.12816000  1.0
  Ti  Ti4  1  0.25579000  0.01008000  0.95329000  1.0
  Ti  Ti5  1  0.50000000  0.47245000  0.87653000  1.0
  Ti  Ti6  1  0.00000000  0.50610000  0.87586000  1.0
  Ti  Ti7  1  0.74421000  0.01008000  0.95329000  1.0
  Al  Al8  1  0.50000000  0.00000000  0.04272000  1.0
  Al  Al9  1  0.75000000  0.50000000  0.12816000  1.0
  Al  Al10  1  0.00000000  0.00000000  0.04272000  1.0
  Al  Al11  1  0.25000000  0.50000000  0.12816000  1.0
  Al  Al12  1  0.00000000  0.92313000  0.86097000  1.0
  Al  Al13  1  0.24663000  0.50266000  0.95761000  1.0
  Al  Al14  1  0.50000000  0.01897000  0.87270000  1.0
  Al  Al15  1  0.75337000  0.50266000  0.95761000  1.0
  Au  Au16  1  0.75000000  0.25000000  0.04272000  1.0
  Au  Au17  1  0.25000000  0.75000000  0.04272000  1.0
  Au  Au18  1  0.75000000  0.75000000  0.04272000  1.0
  Au  Au19  1  0.25000000  0.25000000  0.04272000  1.0
  Au  Au20  1  0.50000000  0.75000000  0.12816000  1.0
  Au  Au21  1  0.00000000  0.25000000  0.12816000  1.0
  Au  Au22  1  0.50000000  0.25000000  0.12816000  1.0
  Au  Au23  1  0.00000000  0.75000000  0.12816000  1.0
  Au  Au24  1  0.25514000  0.24725000  0.86176000  1.0
  Au  Au25  1  0.74135000  0.73233000  0.87257000  1.0
  Au  Au26  1  0.25865000  0.73233000  0.87257000  1.0
  Au  Au27  1  0.74486000  0.24725000  0.86176000  1.0
  Au  Au28  1  0.00000000  0.77311000  0.96037000  1.0
  Au  Au29  1  0.50000000  0.25504000  0.96133000  1.0
  Au  Au30  1  0.00000000  0.24838000  0.95817000  1.0
  Au  Au31  1  0.50000000  0.74955000  0.95808000  1.0
  C  C32  1  0.00000000  0.21910000  0.85965000  1.0
