# generated using pymatgen
data_Ti8Al8Au16C
_symmetry_space_group_name_H-M   Pm
_cell_length_a   6.49880000
_cell_length_b   9.19068000
_cell_length_c   26.89300000
_cell_angle_alpha   90.00000000
_cell_angle_beta   90.00000000
_cell_angle_gamma   90.00000000
_symmetry_Int_Tables_number   6
_chemical_formula_structural   Ti8Al8Au16C
_chemical_formula_sum   'Ti8 Al8 Au16 C1'
_cell_volume   1606.27562411
_cell_formula_units_Z   1
loop_
 _symmetry_equiv_pos_site_id
 _symmetry_equiv_pos_as_xyz
  1  'x, y, z'
  2  'x, -y, z'
loop_
 _atom_site_type_symbol
 _atom_site_label
 _atom_site_symmetry_multiplicity
 _atom_site_fract_x
 _atom_site_fract_y
 _atom_site_fract_z
 _atom_site_occupancy
  Ti  Ti0  2  0.00000000  0.25000000  0.87184000  1.0
  Ti  Ti1  2  0.01008000  0.25579000  0.04671000  1.0
  Ti  Ti2  1  0.47245000  0.50000000  0.12347000  1.0
  Ti  Ti3  1  0.50000000  0.00000000  0.95728000  1.0
  Ti  Ti4  1  0.50000000  0.50000000  0.95728000  1.0
  Ti  Ti5  1  0.50610000  0.00000000  0.12414000  1.0
  Al  Al6  2  0.50000000  0.25000000  0.87184000  1.0
  Al  Al7  2  0.50266000  0.24663000  0.04239000  1.0
  Al  Al8  1  0.00000000  0.00000000  0.95728000  1.0
  Al  Al9  1  0.00000000  0.50000000  0.95728000  1.0
  Al  Al10  1  0.01897000  0.50000000  0.12730000  1.0
  Al  Al11  1  0.92313000  0.00000000  0.13903000  1.0
  Au  Au12  2  0.24725000  0.25514000  0.13824000  1.0
  Au  Au13  2  0.25000000  0.25000000  0.95728000  1.0
  Au  Au14  2  0.73233000  0.25865000  0.12743000  1.0
  Au  Au15  2  0.75000000  0.25000000  0.95728000  1.0
  Au  Au16  1  0.24838000  0.00000000  0.04183000  1.0
  Au  Au17  1  0.25000000  0.00000000  0.87184000  1.0
  Au  Au18  1  0.25000000  0.50000000  0.87184000  1.0
  Au  Au19  1  0.25504000  0.50000000  0.03867000  1.0
  Au  Au20  1  0.74955000  0.50000000  0.04192000  1.0
  Au  Au21  1  0.75000000  0.00000000  0.87184000  1.0
  Au  Au22  1  0.75000000  0.50000000  0.87184000  1.0
  Au  Au23  1  0.77311000  0.00000000  0.03963000  1.0
  C  C24  1  0.21910000  0.00000000  0.14035000  1.0
