# generated using pymatgen
data_VGaFe2
_symmetry_space_group_name_H-M   'P 1'
_cell_length_a   4.05427500
_cell_length_b   5.73361000
_cell_length_c   26.08140000
_cell_angle_alpha   90.00000000
_cell_angle_beta   90.00000000
_cell_angle_gamma   90.00000000
_symmetry_Int_Tables_number   1
_chemical_formula_structural   VGaFe2
_chemical_formula_sum   'V4 Ga4 Fe8'
_cell_volume   606.27861817
_cell_formula_units_Z   4
loop_
 _symmetry_equiv_pos_site_id
 _symmetry_equiv_pos_as_xyz
  1  'x, y, z'
loop_
 _atom_site_type_symbol
 _atom_site_label
 _atom_site_symmetry_multiplicity
 _atom_site_fract_x
 _atom_site_fract_y
 _atom_site_fract_z
 _atom_site_occupancy
  V  V0  1  0.00000000  0.00000000  0.11659000  1.0
  V  V1  1  0.50000000  0.50000000  0.03886000  1.0
  V  V2  1  0.00000000  0.00000000  0.96026000  1.0
  V  V3  1  0.50000000  0.50000000  0.88615500  1.0
  Ga  Ga4  1  0.50000000  0.00000000  0.03886000  1.0
  Ga  Ga5  1  0.00000000  0.50000000  0.11659000  1.0
  Ga  Ga6  1  0.50000000  0.00000000  0.87223000  1.0
  Ga  Ga7  1  0.00000000  0.50000000  0.96155000  1.0
  Fe  Fe8  1  0.00000000  0.75000000  0.03886000  1.0
  Fe  Fe9  1  0.00000000  0.25000000  0.03886000  1.0
  Fe  Fe10  1  0.50000000  0.25000000  0.11659000  1.0
  Fe  Fe11  1  0.50000000  0.75000000  0.11659000  1.0
  Fe  Fe12  1  0.00000000  0.75476500  0.88317000  1.0
  Fe  Fe13  1  0.00000000  0.24523500  0.88317000  1.0
  Fe  Fe14  1  0.50000000  0.24564000  0.95928000  1.0
  Fe  Fe15  1  0.50000000  0.75436000  0.95928000  1.0
