data_image0
_chemical_formula_structural       Y8Bi8Pd16CO
_chemical_formula_sum              "Y8 Bi8 Pd16 C1 O1"
_cell_length_a       6.99655
_cell_length_b       9.89462
_cell_length_c       27.421
_cell_angle_alpha    90
_cell_angle_beta     90
_cell_angle_gamma    90

_space_group_name_H-M_alt    "P 1"
_space_group_IT_number       1

loop_
  _space_group_symop_operation_xyz
  'x, y, z'

loop_
  _atom_site_type_symbol
  _atom_site_label
  _atom_site_symmetry_multiplicity
  _atom_site_fract_x
  _atom_site_fract_y
  _atom_site_fract_z
  _atom_site_occupancy
  Y   Y1        1.0  0.00000  0.00000  0.86468  1.0000
  Y   Y2        1.0  0.50000  0.25000  0.95489  1.0000
  Y   Y3        1.0  0.50000  0.75000  0.95489  1.0000
  Y   Y4        1.0  0.00000  0.50000  0.86468  1.0000
  Y   Y5        1.0  1.00000  0.49808  0.04677  1.0000
  Y   Y6        1.0  0.50000  0.75000  0.13360  1.0000
  Y   Y7        1.0  0.50000  0.25000  0.13392  1.0000
  Y   Y8        1.0  0.00000  0.00192  0.04677  1.0000
  Bi  Bi1       1.0  0.00000  0.75000  0.95489  1.0000
  Bi  Bi2       1.0  0.50000  0.00000  0.86468  1.0000
  Bi  Bi3       1.0  0.00000  0.25000  0.95489  1.0000
  Bi  Bi4       1.0  0.50000  0.50000  0.86468  1.0000
  Bi  Bi5       1.0  0.00000  0.25000  0.14005  1.0000
  Bi  Bi6       1.0  0.50000  0.50258  0.04307  1.0000
  Bi  Bi7       1.0  0.00000  0.75000  0.14190  1.0000
  Bi  Bi8       1.0  0.50000  0.99742  0.04307  1.0000
  Pd  Pd1       1.0  0.25000  0.00000  0.95489  1.0000
  Pd  Pd2       1.0  0.75000  0.50000  0.95489  1.0000
  Pd  Pd3       1.0  0.75000  0.00000  0.95489  1.0000
  Pd  Pd4       1.0  0.25000  0.50000  0.95489  1.0000
  Pd  Pd5       1.0  0.75000  0.75000  0.86468  1.0000
  Pd  Pd6       1.0  0.25000  0.25000  0.86468  1.0000
  Pd  Pd7       1.0  0.25000  0.75000  0.86468  1.0000
  Pd  Pd8       1.0  0.75000  0.25000  0.86468  1.0000
  Pd  Pd9       1.0  0.26590  0.50032  0.13009  1.0000
  Pd  Pd10      1.0  0.73410  0.99968  0.13009  1.0000
  Pd  Pd11      1.0  0.73410  0.50032  0.13009  1.0000
  Pd  Pd12      1.0  0.26590  0.99968  0.13009  1.0000
  Pd  Pd13      1.0  0.75127  0.25000  0.04830  1.0000
  Pd  Pd14      1.0  0.23538  0.75000  0.04901  1.0000
  Pd  Pd15      1.0  0.24874  0.25000  0.04830  1.0000
  Pd  Pd16      1.0  0.76462  0.75000  0.04901  1.0000
  C   C1        1.0  0.99998  0.25000  0.29298  1.0000
  O   O1        1.0  0.00001  0.25000  0.33439  1.0000
