# generated using pymatgen
data_Zr8Ga8Ni16CO
_symmetry_space_group_name_H-M   'P 1'
_cell_length_a   8.68219000
_cell_length_b   6.13924000
_cell_length_c   26.51160000
_cell_angle_alpha   90.00000000
_cell_angle_beta   90.00000000
_cell_angle_gamma   90.00000000
_symmetry_Int_Tables_number   1
_chemical_formula_structural   Zr8Ga8Ni16CO
_chemical_formula_sum   'Zr8 Ga8 Ni16 C1 O1'
_cell_volume   1413.12257935
_cell_formula_units_Z   1
loop_
 _symmetry_equiv_pos_site_id
 _symmetry_equiv_pos_as_xyz
  1  'x, y, z'
loop_
 _atom_site_type_symbol
 _atom_site_label
 _atom_site_symmetry_multiplicity
 _atom_site_fract_x
 _atom_site_fract_y
 _atom_site_fract_z
 _atom_site_occupancy
  Zr  Zr0  1  0.00000000  0.00000000  0.12281000  1.0
  Zr  Zr1  1  0.25000000  0.50000000  0.04094000  1.0
  Zr  Zr2  1  0.75000000  0.50000000  0.04094000  1.0
  Zr  Zr3  1  0.50000000  0.00000000  0.12281000  1.0
  Zr  Zr4  1  0.50296000  0.00000000  0.96001000  1.0
  Zr  Zr5  1  0.74997000  0.50000000  0.87204000  1.0
  Zr  Zr6  1  0.25002000  0.50000000  0.87395000  1.0
  Zr  Zr7  1  0.99705000  0.00000000  0.96001000  1.0
  Ga  Ga8  1  0.75000000  0.00000000  0.04094000  1.0
  Ga  Ga9  1  0.00000000  0.50000000  0.12281000  1.0
  Ga  Ga10  1  0.25000000  0.00000000  0.04094000  1.0
  Ga  Ga11  1  0.50000000  0.50000000  0.12281000  1.0
  Ga  Ga12  1  0.24997000  0.00000000  0.87921000  1.0
  Ga  Ga13  1  0.49799000  0.50000000  0.95739000  1.0
  Ga  Ga14  1  0.75016000  0.00000000  0.87833000  1.0
  Ga  Ga15  1  0.00202000  0.50000000  0.95738000  1.0
  Ni  Ni16  1  0.00000000  0.75000000  0.04094000  1.0
  Ni  Ni17  1  0.50000000  0.25000000  0.04094000  1.0
  Ni  Ni18  1  0.00000000  0.25000000  0.04094000  1.0
  Ni  Ni19  1  0.50000000  0.75000000  0.04094000  1.0
  Ni  Ni20  1  0.75000000  0.25000000  0.12281000  1.0
  Ni  Ni21  1  0.25000000  0.75000000  0.12281000  1.0
  Ni  Ni22  1  0.75000000  0.75000000  0.12281000  1.0
  Ni  Ni23  1  0.25000000  0.25000000  0.12281000  1.0
  Ni  Ni24  1  0.50119000  0.76246000  0.88130000  1.0
  Ni  Ni25  1  0.99884000  0.23764000  0.88130000  1.0
  Ni  Ni26  1  0.50119000  0.23754000  0.88130000  1.0
  Ni  Ni27  1  0.99884000  0.76236000  0.88130000  1.0
  Ni  Ni28  1  0.24996000  0.25783000  0.95826000  1.0
  Ni  Ni29  1  0.75004000  0.72614000  0.95498000  1.0
  Ni  Ni30  1  0.24996000  0.74217000  0.95826000  1.0
  Ni  Ni31  1  0.75004000  0.27386000  0.95498000  1.0
  C  C32  1  0.24998000  0.50000000  0.78567000  1.0
  O  O33  1  0.24998000  0.50000000  0.74239000  1.0
