# generated using pymatgen
data_Zr8Ga8Ni16CO
_symmetry_space_group_name_H-M   Pm
_cell_length_a   8.68219000
_cell_length_b   6.13924000
_cell_length_c   26.51160000
_cell_angle_alpha   90.00000000
_cell_angle_beta   90.00000000
_cell_angle_gamma   90.00000000
_symmetry_Int_Tables_number   6
_chemical_formula_structural   Zr8Ga8Ni16CO
_chemical_formula_sum   'Zr8 Ga8 Ni16 C1 O1'
_cell_volume   1413.12257935
_cell_formula_units_Z   1
loop_
 _symmetry_equiv_pos_site_id
 _symmetry_equiv_pos_as_xyz
  1  'x, y, z'
  2  'x, -y, z'
loop_
 _atom_site_type_symbol
 _atom_site_label
 _atom_site_symmetry_multiplicity
 _atom_site_fract_x
 _atom_site_fract_y
 _atom_site_fract_z
 _atom_site_occupancy
  Zr  Zr0  1  0.00000000  0.00000000  0.87719000  1.0
  Zr  Zr1  1  0.25000000  0.50000000  0.95906000  1.0
  Zr  Zr2  1  0.25002000  0.50000000  0.12605000  1.0
  Zr  Zr3  1  0.50000000  0.00000000  0.87719000  1.0
  Zr  Zr4  1  0.50296000  0.00000000  0.03999000  1.0
  Zr  Zr5  1  0.74997000  0.50000000  0.12796000  1.0
  Zr  Zr6  1  0.75000000  0.50000000  0.95906000  1.0
  Zr  Zr7  1  0.99705000  0.00000000  0.03999000  1.0
  Ga  Ga8  1  0.00000000  0.50000000  0.87719000  1.0
  Ga  Ga9  1  0.00202000  0.50000000  0.04262000  1.0
  Ga  Ga10  1  0.24997000  0.00000000  0.12079000  1.0
  Ga  Ga11  1  0.25000000  0.00000000  0.95906000  1.0
  Ga  Ga12  1  0.49799000  0.50000000  0.04261000  1.0
  Ga  Ga13  1  0.50000000  0.50000000  0.87719000  1.0
  Ga  Ga14  1  0.75000000  0.00000000  0.95906000  1.0
  Ga  Ga15  1  0.75016000  0.00000000  0.12167000  1.0
  Ni  Ni16  2  0.00000000  0.25000000  0.95906000  1.0
  Ni  Ni17  2  0.24996000  0.25783000  0.04174000  1.0
  Ni  Ni18  2  0.25000000  0.25000000  0.87719000  1.0
  Ni  Ni19  2  0.50000000  0.25000000  0.95906000  1.0
  Ni  Ni20  2  0.50119000  0.23754000  0.11870000  1.0
  Ni  Ni21  2  0.75000000  0.25000000  0.87719000  1.0
  Ni  Ni22  2  0.75004000  0.27386000  0.04502000  1.0
  Ni  Ni23  2  0.99884000  0.23764000  0.11870000  1.0
  C  C24  1  0.24998000  0.50000000  0.21433000  1.0
  O  O25  1  0.24998000  0.50000000  0.25761000  1.0
