# generated using pymatgen
data_Li8Ca8Ge8Pd8CO
_symmetry_space_group_name_H-M   P1
_cell_length_a   6.62107000
_cell_length_b   9.36360000
_cell_length_c   27.02270000
_cell_angle_alpha   90.00000000
_cell_angle_beta   90.00000000
_cell_angle_gamma   90.00000000
_symmetry_Int_Tables_number   1
_chemical_formula_structural   Li8Ca8Ge8Pd8CO
_chemical_formula_sum   'Li8 Ca8 Ge8 Pd8 C1 O1'
_cell_volume   1675.32771146
_cell_formula_units_Z   1
loop_
 _symmetry_equiv_pos_site_id
 _symmetry_equiv_pos_as_xyz
  1  'x, y, z'
loop_
 _atom_site_type_symbol
 _atom_site_label
 _atom_site_symmetry_multiplicity
 _atom_site_fract_x
 _atom_site_fract_y
 _atom_site_fract_z
 _atom_site_occupancy
  Li  Li0  1  0.02398000  0.00001000  0.18375000  1.0
  Li  Li1  1  0.04779000  0.49997000  0.18779000  1.0
  Li  Li2  1  0.25000000  0.25000000  0.87006000  1.0
  Li  Li3  1  0.25000000  0.75000000  0.87006000  1.0
  Li  Li4  1  0.31996000  0.24800000  0.05743000  1.0
  Li  Li5  1  0.32003000  0.75197000  0.05745000  1.0
  Li  Li6  1  0.75000000  0.00000000  0.95669000  1.0
  Li  Li7  1  0.75000000  0.50000000  0.95669000  1.0
  Ca  Ca8  1  0.00000000  0.00000000  0.87006000  1.0
  Ca  Ca9  1  0.00000000  0.50000000  0.87006000  1.0
  Ca  Ca10  1  0.00582000  0.50000000  0.05120000  1.0
  Ca  Ca11  1  0.01594000  0.99996000  0.05505000  1.0
  Ca  Ca12  1  0.50000000  0.25000000  0.95669000  1.0
  Ca  Ca13  1  0.50000000  0.75000000  0.95669000  1.0
  Ca  Ca14  1  0.61659000  0.26117000  0.13992000  1.0
  Ca  Ca15  1  0.61665000  0.73883000  0.13992000  1.0
  Ge  Ge16  1  0.00000000  0.25000000  0.95669000  1.0
  Ge  Ge17  1  0.00000000  0.75000000  0.95669000  1.0
  Ge  Ge18  1  0.09247000  0.25490000  0.13602000  1.0
  Ge  Ge19  1  0.09258000  0.74507000  0.13604000  1.0
  Ge  Ge20  1  0.50000000  0.00000000  0.87006000  1.0
  Ge  Ge21  1  0.50000000  0.50000000  0.87006000  1.0
  Ge  Ge22  1  0.53085000  0.00000000  0.04424000  1.0
  Ge  Ge23  1  0.53132000  0.49997000  0.04124000  1.0
  Pd  Pd24  1  0.25000000  0.00000000  0.95669000  1.0
  Pd  Pd25  1  0.25000000  0.50000000  0.95669000  1.0
  Pd  Pd26  1  0.31719000  0.50000000  0.11996000  1.0
  Pd  Pd27  1  0.35085000  0.99996000  0.13420000  1.0
  Pd  Pd28  1  0.75000000  0.25000000  0.87006000  1.0
  Pd  Pd29  1  0.75000000  0.75000000  0.87006000  1.0
  Pd  Pd30  1  0.75169000  0.75355000  0.03726000  1.0
  Pd  Pd31  1  0.75173000  0.24641000  0.03728000  1.0
  C  C32  1  0.46004000  0.00001000  0.20055000  1.0
  O  O33  1  0.48046000  0.00003000  0.24381000  1.0
