data_image0
_chemical_formula_structural       Li4Sc4In4Ga4
_chemical_formula_sum              "Li4 Sc4 In4 Ga4"
_cell_length_a       8.23116
_cell_length_b       6.09788
_cell_length_c       24.5659
_cell_angle_alpha    90
_cell_angle_beta     90
_cell_angle_gamma    90

_space_group_name_H-M_alt    "P 1"
_space_group_IT_number       1

loop_
  _space_group_symop_operation_xyz
  'x, y, z'

loop_
  _atom_site_type_symbol
  _atom_site_label
  _atom_site_symmetry_multiplicity
  _atom_site_fract_x
  _atom_site_fract_y
  _atom_site_fract_z
  _atom_site_occupancy
  Li  Li1       1.0  0.99999  0.53353  0.10503  1.0000
  Li  Li2       1.0  0.00000  0.97137  0.96902  1.0000
  Li  Li3       1.0  0.50001  0.53351  0.10503  1.0000
  Li  Li4       1.0  0.50000  0.97137  0.96902  1.0000
  Sc  Sc1       1.0  0.25000  0.27420  0.03310  1.0000
  Sc  Sc2       1.0  0.25000  0.70706  0.90707  1.0000
  Sc  Sc3       1.0  0.75000  0.27418  0.03311  1.0000
  Sc  Sc4       1.0  0.75000  0.70706  0.90707  1.0000
  In  In1       1.0  0.25001  0.77110  0.04256  1.0000
  In  In2       1.0  0.25000  0.20706  0.90707  1.0000
  In  In3       1.0  0.74999  0.77113  0.04257  1.0000
  In  In4       1.0  0.75000  0.20706  0.90707  1.0000
  Ga  Ga1       1.0  0.00001  0.06347  0.08746  1.0000
  Ga  Ga2       1.0  0.00000  0.47137  0.96902  1.0000
  Ga  Ga3       1.0  0.49997  0.06349  0.08747  1.0000
  Ga  Ga4       1.0  0.50000  0.47137  0.96902  1.0000
