# generated using pymatgen
data_Ca16In16C
_symmetry_space_group_name_H-M   'P 1'
_cell_length_a   7.80577000
_cell_length_b   11.03900000
_cell_length_c   28.27930000
_cell_angle_alpha   90.00000000
_cell_angle_beta   90.00000000
_cell_angle_gamma   90.00000000
_symmetry_Int_Tables_number   1
_chemical_formula_structural   Ca16In16C
_chemical_formula_sum   'Ca16 In16 C1'
_cell_volume   2436.76775392
_cell_formula_units_Z   1
loop_
 _symmetry_equiv_pos_site_id
 _symmetry_equiv_pos_as_xyz
  1  'x, y, z'
loop_
 _atom_site_type_symbol
 _atom_site_label
 _atom_site_symmetry_multiplicity
 _atom_site_fract_x
 _atom_site_fract_y
 _atom_site_fract_z
 _atom_site_occupancy
  Ca  Ca0  1  0.00000000  0.00000000  0.85362000  1.0
  Ca  Ca1  1  0.00000000  0.25000000  0.95121000  1.0
  Ca  Ca2  1  0.00000000  0.00000000  0.05373000  1.0
  Ca  Ca3  1  0.00000000  0.22533000  0.14825000  1.0
  Ca  Ca4  1  0.00000000  0.50000000  0.85362000  1.0
  Ca  Ca5  1  0.00000000  0.75000000  0.95121000  1.0
  Ca  Ca6  1  0.00000000  0.50000000  0.04542000  1.0
  Ca  Ca7  1  0.00000000  0.77467000  0.14825000  1.0
  Ca  Ca8  1  0.50000000  0.00000000  0.85362000  1.0
  Ca  Ca9  1  0.50000000  0.25000000  0.95121000  1.0
  Ca  Ca10  1  0.50000000  0.00000000  0.04882000  1.0
  Ca  Ca11  1  0.50000000  0.27203000  0.14769000  1.0
  Ca  Ca12  1  0.50000000  0.50000000  0.85362000  1.0
  Ca  Ca13  1  0.50000000  0.75000000  0.95121000  1.0
  Ca  Ca14  1  0.50000000  0.50000000  0.04883000  1.0
  Ca  Ca15  1  0.50000000  0.72797000  0.14769000  1.0
  In  In16  1  0.24999000  0.25000000  0.85362000  1.0
  In  In17  1  0.24999000  0.00000000  0.95121000  1.0
  In  In18  1  0.25548000  0.25364000  0.05161000  1.0
  In  In19  1  0.28019000  0.00000000  0.14729000  1.0
  In  In20  1  0.24999000  0.75000000  0.85362000  1.0
  In  In21  1  0.24999000  0.50000000  0.95121000  1.0
  In  In22  1  0.25548000  0.74636000  0.05161000  1.0
  In  In23  1  0.21116000  0.50000000  0.14620000  1.0
  In  In24  1  0.75001000  0.25000000  0.85362000  1.0
  In  In25  1  0.75001000  0.00000000  0.95121000  1.0
  In  In26  1  0.74452000  0.25364000  0.05161000  1.0
  In  In27  1  0.71981000  0.00000000  0.14729000  1.0
  In  In28  1  0.75001000  0.75000000  0.85362000  1.0
  In  In29  1  0.75001000  0.50000000  0.95121000  1.0
  In  In30  1  0.74452000  0.74636000  0.05161000  1.0
  In  In31  1  0.78884000  0.50000000  0.14620000  1.0
  C  C32  1  0.00000000  0.00000000  0.14829000  1.0
