# generated using pymatgen
data_Ca16In16C
_symmetry_space_group_name_H-M   Pmm2
_cell_length_a   7.80577000
_cell_length_b   11.03900000
_cell_length_c   28.27930000
_cell_angle_alpha   90.00000000
_cell_angle_beta   90.00000000
_cell_angle_gamma   90.00000000
_symmetry_Int_Tables_number   25
_chemical_formula_structural   Ca16In16C
_chemical_formula_sum   'Ca16 In16 C1'
_cell_volume   2436.76775392
_cell_formula_units_Z   1
loop_
 _symmetry_equiv_pos_site_id
 _symmetry_equiv_pos_as_xyz
  1  'x, y, z'
  2  '-x, -y, z'
  3  '-x, y, z'
  4  'x, -y, z'
loop_
 _atom_site_type_symbol
 _atom_site_label
 _atom_site_symmetry_multiplicity
 _atom_site_fract_x
 _atom_site_fract_y
 _atom_site_fract_z
 _atom_site_occupancy
  Ca  Ca0  2  0.00000000  0.22533000  0.14825000  1.0
  Ca  Ca1  2  0.00000000  0.25000000  0.95121000  1.0
  Ca  Ca2  2  0.50000000  0.25000000  0.95121000  1.0
  Ca  Ca3  2  0.50000000  0.27203000  0.14769000  1.0
  Ca  Ca4  1  0.00000000  0.00000000  0.05373000  1.0
  Ca  Ca5  1  0.00000000  0.00000000  0.85362000  1.0
  Ca  Ca6  1  0.00000000  0.50000000  0.04542000  1.0
  Ca  Ca7  1  0.00000000  0.50000000  0.85362000  1.0
  Ca  Ca8  1  0.50000000  0.00000000  0.04882000  1.0
  Ca  Ca9  1  0.50000000  0.00000000  0.85362000  1.0
  Ca  Ca10  1  0.50000000  0.50000000  0.04883000  1.0
  Ca  Ca11  1  0.50000000  0.50000000  0.85362000  1.0
  In  In12  4  0.24999000  0.25000000  0.85362000  1.0
  In  In13  4  0.25548000  0.25364000  0.05161000  1.0
  In  In14  2  0.21116000  0.50000000  0.14620000  1.0
  In  In15  2  0.24999000  0.00000000  0.95121000  1.0
  In  In16  2  0.24999000  0.50000000  0.95121000  1.0
  In  In17  2  0.28019000  0.00000000  0.14729000  1.0
  C  C18  1  0.00000000  0.00000000  0.14829000  1.0
