# generated using pymatgen
data_Li2PbAu
_symmetry_space_group_name_H-M   'P 1'
_cell_length_a   6.82040000
_cell_length_b   4.82275000
_cell_length_c   27.23410000
_cell_angle_alpha   90.00000000
_cell_angle_beta   90.00000000
_cell_angle_gamma   90.00000000
_symmetry_Int_Tables_number   1
_chemical_formula_structural   Li2PbAu
_chemical_formula_sum   'Li8 Pb4 Au4'
_cell_volume   895.81354169
_cell_formula_units_Z   4
loop_
 _symmetry_equiv_pos_site_id
 _symmetry_equiv_pos_as_xyz
  1  'x, y, z'
loop_
 _atom_site_type_symbol
 _atom_site_label
 _atom_site_symmetry_multiplicity
 _atom_site_fract_x
 _atom_site_fract_y
 _atom_site_fract_z
 _atom_site_occupancy
  Li  Li0  1  0.00000000  0.50000000  0.95573000  1.0
  Li  Li1  1  0.50000000  0.00000000  0.86719000  1.0
  Li  Li2  1  0.75000000  0.00000000  0.95573000  1.0
  Li  Li3  1  0.25000000  0.50000000  0.86719000  1.0
  Li  Li4  1  0.02213000  0.50000000  0.12794500  1.0
  Li  Li5  1  0.50131500  0.00000000  0.03669000  1.0
  Li  Li6  1  0.70026500  0.00000000  0.12241000  1.0
  Li  Li7  1  0.28838000  0.50000000  0.05316000  1.0
  Pb  Pb8  1  0.00000000  0.00000000  0.86719000  1.0
  Pb  Pb9  1  0.50000000  0.50000000  0.95573000  1.0
  Pb  Pb10  1  0.98900000  0.00000000  0.04239000  1.0
  Pb  Pb11  1  0.49406000  0.50000000  0.15420500  1.0
  Au  Au12  1  0.75000000  0.50000000  0.86719000  1.0
  Au  Au13  1  0.25000000  0.00000000  0.95573000  1.0
  Au  Au14  1  0.71714500  0.50000000  0.05839000  1.0
  Au  Au15  1  0.28416000  0.00000000  0.11912000  1.0
