# generated using pymatgen
data_Mg4Sc4In4Pd4C
_symmetry_space_group_name_H-M   'P 1'
_cell_length_a   6.76782000
_cell_length_b   6.76782000
_cell_length_c   25.07590000
_cell_angle_alpha   90.00000000
_cell_angle_beta   90.00000000
_cell_angle_gamma   90.00000000
_symmetry_Int_Tables_number   1
_chemical_formula_structural   Mg4Sc4In4Pd4C
_chemical_formula_sum   'Mg4 Sc4 In4 Pd4 C1'
_cell_volume   1148.56116593
_cell_formula_units_Z   1
loop_
 _symmetry_equiv_pos_site_id
 _symmetry_equiv_pos_as_xyz
  1  'x, y, z'
loop_
 _atom_site_type_symbol
 _atom_site_label
 _atom_site_symmetry_multiplicity
 _atom_site_fract_x
 _atom_site_fract_y
 _atom_site_fract_z
 _atom_site_occupancy
  Mg  Mg0  1  0.25000000  0.25000000  0.03374000  1.0
  Mg  Mg1  1  0.23520000  0.73410000  0.89358000  1.0
  Mg  Mg2  1  0.76480000  0.26590000  0.89358000  1.0
  Mg  Mg3  1  0.75000000  0.75000000  0.03374000  1.0
  Sc  Sc4  1  0.75000000  0.25000000  0.03374000  1.0
  Sc  Sc5  1  0.77856000  0.72217000  0.89428000  1.0
  Sc  Sc6  1  0.22144000  0.27783000  0.89428000  1.0
  Sc  Sc7  1  0.25000000  0.75000000  0.03374000  1.0
  In  In8  1  0.00000000  0.00000000  0.10121000  1.0
  In  In9  1  0.00000000  0.50000000  0.97226000  1.0
  In  In10  1  0.50000000  0.00000000  0.95490000  1.0
  In  In11  1  0.50000000  0.50000000  0.10121000  1.0
  Pd  Pd12  1  0.00000000  0.50000000  0.10121000  1.0
  Pd  Pd13  1  0.00000000  0.00000000  0.96170000  1.0
  Pd  Pd14  1  0.50000000  0.50000000  0.96172000  1.0
  Pd  Pd15  1  0.50000000  0.00000000  0.10121000  1.0
  C  C16  1  0.00000000  0.50000000  0.87756000  1.0
