# generated using pymatgen
data_Y8Ga8Cu8Pd8C
_symmetry_space_group_name_H-M   'P 1'
_cell_length_a   9.32626000
_cell_length_b   6.59466000
_cell_length_c   26.99470000
_cell_angle_alpha   90.00000000
_cell_angle_beta   90.00000000
_cell_angle_gamma   90.00000000
_symmetry_Int_Tables_number   1
_chemical_formula_structural   Y8Ga8Cu8Pd8C
_chemical_formula_sum   'Y8 Ga8 Cu8 Pd8 C1'
_cell_volume   1660.26890321
_cell_formula_units_Z   1
loop_
 _symmetry_equiv_pos_site_id
 _symmetry_equiv_pos_as_xyz
  1  'x, y, z'
loop_
 _atom_site_type_symbol
 _atom_site_label
 _atom_site_symmetry_multiplicity
 _atom_site_fract_x
 _atom_site_fract_y
 _atom_site_fract_z
 _atom_site_occupancy
  Y  Y0  1  0.75000000  0.75000000  0.04319000  1.0
  Y  Y1  1  0.25000000  0.75000000  0.04319000  1.0
  Y  Y2  1  0.00000000  0.25000000  0.12956000  1.0
  Y  Y3  1  0.50000000  0.25000000  0.12956000  1.0
  Y  Y4  1  0.28105000  0.69242000  0.86434000  1.0
  Y  Y5  1  0.71895000  0.69242000  0.86434000  1.0
  Y  Y6  1  0.50000000  0.25521000  0.95164000  1.0
  Y  Y7  1  0.00000000  0.22840000  0.95693000  1.0
  Ga  Ga8  1  0.75000000  0.25000000  0.04319000  1.0
  Ga  Ga9  1  0.25000000  0.25000000  0.04319000  1.0
  Ga  Ga10  1  0.00000000  0.75000000  0.12956000  1.0
  Ga  Ga11  1  0.50000000  0.75000000  0.12956000  1.0
  Ga  Ga12  1  0.22996000  0.21409000  0.87249000  1.0
  Ga  Ga13  1  0.77004000  0.21409000  0.87249000  1.0
  Ga  Ga14  1  0.50000000  0.75067000  0.95799000  1.0
  Ga  Ga15  1  0.00000000  0.73331000  0.95850000  1.0
  Cu  Cu16  1  0.75000000  0.00000000  0.12956000  1.0
  Cu  Cu17  1  0.25000000  0.00000000  0.12956000  1.0
  Cu  Cu18  1  0.50000000  0.50000000  0.04319000  1.0
  Cu  Cu19  1  0.00000000  0.50000000  0.04319000  1.0
  Cu  Cu20  1  0.25591000  0.96193000  0.94873000  1.0
  Cu  Cu21  1  0.74409000  0.96193000  0.94873000  1.0
  Cu  Cu22  1  0.00000000  0.50965000  0.87162000  1.0
  Cu  Cu23  1  0.50000000  0.37261000  0.84507000  1.0
  Pd  Pd24  1  0.00000000  0.00000000  0.04319000  1.0
  Pd  Pd25  1  0.50000000  0.00000000  0.04319000  1.0
  Pd  Pd26  1  0.25000000  0.50000000  0.12956000  1.0
  Pd  Pd27  1  0.75000000  0.50000000  0.12956000  1.0
  Pd  Pd28  1  0.50000000  0.98891000  0.87182000  1.0
  Pd  Pd29  1  0.00000000  0.90973000  0.87198000  1.0
  Pd  Pd30  1  0.75396000  0.50283000  0.95733000  1.0
  Pd  Pd31  1  0.24604000  0.50283000  0.95733000  1.0
  C  C32  1  0.00000000  0.22022000  0.86481000  1.0
