# generated using pymatgen
data_Y8Ga8Cu8Pd8C
_symmetry_space_group_name_H-M   Pm
_cell_length_a   6.59466000
_cell_length_b   9.32626000
_cell_length_c   26.99470000
_cell_angle_alpha   90.00000000
_cell_angle_beta   90.00000000
_cell_angle_gamma   90.00000000
_symmetry_Int_Tables_number   6
_chemical_formula_structural   Y8Ga8Cu8Pd8C
_chemical_formula_sum   'Y8 Ga8 Cu8 Pd8 C1'
_cell_volume   1660.26890321
_cell_formula_units_Z   1
loop_
 _symmetry_equiv_pos_site_id
 _symmetry_equiv_pos_as_xyz
  1  'x, y, z'
  2  'x, -y, z'
loop_
 _atom_site_type_symbol
 _atom_site_label
 _atom_site_symmetry_multiplicity
 _atom_site_fract_x
 _atom_site_fract_y
 _atom_site_fract_z
 _atom_site_occupancy
  Y  Y0  2  0.69242000  0.28105000  0.13566000  1.0
  Y  Y1  2  0.75000000  0.25000000  0.95681000  1.0
  Y  Y2  1  0.22840000  0.00000000  0.04307000  1.0
  Y  Y3  1  0.25000000  0.00000000  0.87044000  1.0
  Y  Y4  1  0.25000000  0.50000000  0.87044000  1.0
  Y  Y5  1  0.25521000  0.50000000  0.04836000  1.0
  Ga  Ga6  2  0.21409000  0.22996000  0.12751000  1.0
  Ga  Ga7  2  0.25000000  0.25000000  0.95681000  1.0
  Ga  Ga8  1  0.73331000  0.00000000  0.04150000  1.0
  Ga  Ga9  1  0.75000000  0.00000000  0.87044000  1.0
  Ga  Ga10  1  0.75000000  0.50000000  0.87044000  1.0
  Ga  Ga11  1  0.75067000  0.50000000  0.04201000  1.0
  Cu  Cu12  2  0.00000000  0.25000000  0.87044000  1.0
  Cu  Cu13  2  0.96193000  0.25591000  0.05127000  1.0
  Cu  Cu14  1  0.37261000  0.50000000  0.15493000  1.0
  Cu  Cu15  1  0.50000000  0.00000000  0.95681000  1.0
  Cu  Cu16  1  0.50000000  0.50000000  0.95681000  1.0
  Cu  Cu17  1  0.50965000  0.00000000  0.12838000  1.0
  Pd  Pd18  2  0.50000000  0.25000000  0.87044000  1.0
  Pd  Pd19  2  0.50283000  0.24604000  0.04267000  1.0
  Pd  Pd20  1  0.00000000  0.00000000  0.95681000  1.0
  Pd  Pd21  1  0.00000000  0.50000000  0.95681000  1.0
  Pd  Pd22  1  0.90973000  0.00000000  0.12802000  1.0
  Pd  Pd23  1  0.98891000  0.50000000  0.12818000  1.0
  C  C24  1  0.22022000  0.00000000  0.13519000  1.0
