# generated using pymatgen
data_Li8In16Ir8CO
_symmetry_space_group_name_H-M   'P 1'
_cell_length_a   9.30439000
_cell_length_b   6.57920000
_cell_length_c   26.97830000
_cell_angle_alpha   90.00000000
_cell_angle_beta   90.00000000
_cell_angle_gamma   90.00000000
_symmetry_Int_Tables_number   1
_chemical_formula_structural   Li8In16Ir8CO
_chemical_formula_sum   'Li8 In16 Ir8 C1 O1'
_cell_volume   1651.48857747
_cell_formula_units_Z   1
loop_
 _symmetry_equiv_pos_site_id
 _symmetry_equiv_pos_as_xyz
  1  'x, y, z'
loop_
 _atom_site_type_symbol
 _atom_site_label
 _atom_site_symmetry_multiplicity
 _atom_site_fract_x
 _atom_site_fract_y
 _atom_site_fract_z
 _atom_site_occupancy
  Li  Li0  1  0.00000000  0.00000000  0.12933000  1.0
  Li  Li1  1  0.25000000  0.50000000  0.04311000  1.0
  Li  Li2  1  0.75000000  0.50000000  0.04311000  1.0
  Li  Li3  1  0.50000000  0.00000000  0.12933000  1.0
  Li  Li4  1  0.50000000  0.00124000  0.95545000  1.0
  Li  Li5  1  0.75013000  0.49691000  0.86413000  1.0
  Li  Li6  1  0.24987000  0.49691000  0.86413000  1.0
  Li  Li7  1  0.00000000  0.99898000  0.95565000  1.0
  In  In8  1  0.00000000  0.25000000  0.04311000  1.0
  In  In9  1  0.50000000  0.75000000  0.04311000  1.0
  In  In10  1  0.00000000  0.75000000  0.04311000  1.0
  In  In11  1  0.50000000  0.25000000  0.04311000  1.0
  In  In12  1  0.75000000  0.75000000  0.12933000  1.0
  In  In13  1  0.25000000  0.25000000  0.12933000  1.0
  In  In14  1  0.75000000  0.25000000  0.12933000  1.0
  In  In15  1  0.25000000  0.75000000  0.12933000  1.0
  In  In16  1  0.50000000  0.23698000  0.86266000  1.0
  In  In17  1  0.00000000  0.76042000  0.86423000  1.0
  In  In18  1  0.50000000  0.75794000  0.86471000  1.0
  In  In19  1  0.00000000  0.23938000  0.86513000  1.0
  In  In20  1  0.24987000  0.74583000  0.95654000  1.0
  In  In21  1  0.74982000  0.25406000  0.95665000  1.0
  In  In22  1  0.25018000  0.25406000  0.95665000  1.0
  In  In23  1  0.75013000  0.74583000  0.95654000  1.0
  Ir  Ir24  1  0.75000000  0.00000000  0.04311000  1.0
  Ir  Ir25  1  0.00000000  0.50000000  0.12933000  1.0
  Ir  Ir26  1  0.25000000  0.00000000  0.04311000  1.0
  Ir  Ir27  1  0.50000000  0.50000000  0.12933000  1.0
  Ir  Ir28  1  0.24987000  0.99989000  0.87699000  1.0
  Ir  Ir29  1  0.50000000  0.49974000  0.95967000  1.0
  Ir  Ir30  1  0.75013000  0.99989000  0.87699000  1.0
  Ir  Ir31  1  0.00000000  0.50025000  0.95910000  1.0
  C  C32  1  0.00000000  0.37213000  0.72724000  1.0
  O  O33  1  0.00000000  0.22975000  0.70347000  1.0
