# generated using pymatgen
data_Zr8Al8Ni16CO
_symmetry_space_group_name_H-M   'P 1'
_cell_length_a   6.14888000
_cell_length_b   8.69583000
_cell_length_c   26.52190000
_cell_angle_alpha   90.00000000
_cell_angle_beta   90.00000000
_cell_angle_gamma   90.00000000
_symmetry_Int_Tables_number   1
_chemical_formula_structural   Zr8Al8Ni16CO
_chemical_formula_sum   'Zr8 Al8 Ni16 C1 O1'
_cell_volume   1418.11578659
_cell_formula_units_Z   1
loop_
 _symmetry_equiv_pos_site_id
 _symmetry_equiv_pos_as_xyz
  1  'x, y, z'
loop_
 _atom_site_type_symbol
 _atom_site_label
 _atom_site_symmetry_multiplicity
 _atom_site_fract_x
 _atom_site_fract_y
 _atom_site_fract_z
 _atom_site_occupancy
  Zr  Zr0  1  0.00000000  0.75000000  0.87705000  1.0
  Zr  Zr1  1  0.50000000  0.00000000  0.95902000  1.0
  Zr  Zr2  1  0.50000000  0.50000000  0.95902000  1.0
  Zr  Zr3  1  0.00000000  0.25000000  0.87705000  1.0
  Zr  Zr4  1  0.00000000  0.25043000  0.03970000  1.0
  Zr  Zr5  1  0.50000000  0.50000000  0.12765000  1.0
  Zr  Zr6  1  0.50000000  0.00000000  0.12771000  1.0
  Zr  Zr7  1  0.00000000  0.74957000  0.03970000  1.0
  Al  Al8  1  0.00000000  0.50000000  0.95902000  1.0
  Al  Al9  1  0.50000000  0.75000000  0.87705000  1.0
  Al  Al10  1  0.00000000  0.00000000  0.95902000  1.0
  Al  Al11  1  0.50000000  0.25000000  0.87705000  1.0
  Al  Al12  1  0.00000000  0.00000000  0.12097000  1.0
  Al  Al13  1  0.50000000  0.24984000  0.04260000  1.0
  Al  Al14  1  0.00000000  0.50000000  0.12022000  1.0
  Al  Al15  1  0.50000000  0.75016000  0.04260000  1.0
  Ni  Ni16  1  0.25000000  0.75000000  0.95902000  1.0
  Ni  Ni17  1  0.75000000  0.25000000  0.95902000  1.0
  Ni  Ni18  1  0.75000000  0.75000000  0.95902000  1.0
  Ni  Ni19  1  0.25000000  0.25000000  0.95902000  1.0
  Ni  Ni20  1  0.75000000  0.50000000  0.87705000  1.0
  Ni  Ni21  1  0.25000000  0.00000000  0.87705000  1.0
  Ni  Ni22  1  0.25000000  0.50000000  0.87705000  1.0
  Ni  Ni23  1  0.75000000  0.00000000  0.87705000  1.0
  Ni  Ni24  1  0.24078000  0.25197000  0.11718000  1.0
  Ni  Ni25  1  0.75922000  0.74803000  0.11718000  1.0
  Ni  Ni26  1  0.75922000  0.25197000  0.11718000  1.0
  Ni  Ni27  1  0.24078000  0.74803000  0.11718000  1.0
  Ni  Ni28  1  0.73271000  0.00000000  0.04496000  1.0
  Ni  Ni29  1  0.27005000  0.50000000  0.04363000  1.0
  Ni  Ni30  1  0.26729000  0.00000000  0.04496000  1.0
  Ni  Ni31  1  0.72995000  0.50000000  0.04363000  1.0
  C  C32  1  0.00000000  0.00000000  0.19633000  1.0
  O  O33  1  0.00000000  0.00000000  0.24007000  1.0
