# generated using pymatgen
data_LiMgGaPt
_symmetry_space_group_name_H-M   Pmm2
_cell_length_a   4.42790266
_cell_length_b   4.42790266
_cell_length_c   24.69650000
_cell_angle_alpha   90.00000000
_cell_angle_beta   90.00000000
_cell_angle_gamma   90.00000000
_symmetry_Int_Tables_number   25
_chemical_formula_structural   LiMgGaPt
_chemical_formula_sum   'Li2 Mg2 Ga2 Pt2'
_cell_volume   484.20753127
_cell_formula_units_Z   2
loop_
 _symmetry_equiv_pos_site_id
 _symmetry_equiv_pos_as_xyz
  1  'x, y, z'
  2  '-x, -y, z'
  3  '-x, y, z'
  4  'x, -y, z'
loop_
 _atom_site_type_symbol
 _atom_site_label
 _atom_site_symmetry_multiplicity
 _atom_site_fract_x
 _atom_site_fract_y
 _atom_site_fract_z
 _atom_site_occupancy
  Li  Li0  1  0.00000000  0.50000000  0.09508000  1.0
  Li  Li1  1  0.50000000  0.00000000  0.96831000  1.0
  Mg  Mg2  1  0.00000000  0.00000000  0.03169000  1.0
  Mg  Mg3  1  0.50000000  0.50000000  0.90492000  1.0
  Ga  Ga4  1  0.00000000  0.00000000  0.90492000  1.0
  Ga  Ga5  1  0.50000000  0.50000000  0.03169000  1.0
  Pt  Pt6  1  0.00000000  0.50000000  0.96831000  1.0
  Pt  Pt7  1  0.50000000  0.00000000  0.09508000  1.0
