# generated using pymatgen
data_Li8Ga8Cu8Pd8CO
_symmetry_space_group_name_H-M   'P 1'
_cell_length_a   8.52116000
_cell_length_b   6.02537000
_cell_length_c   26.39090000
_cell_angle_alpha   90.00000000
_cell_angle_beta   90.00000000
_cell_angle_gamma   90.00000000
_symmetry_Int_Tables_number   1
_chemical_formula_structural   Li8Ga8Cu8Pd8CO
_chemical_formula_sum   'Li8 Ga8 Cu8 Pd8 C1 O1'
_cell_volume   1354.99172170
_cell_formula_units_Z   1
loop_
 _symmetry_equiv_pos_site_id
 _symmetry_equiv_pos_as_xyz
  1  'x, y, z'
loop_
 _atom_site_type_symbol
 _atom_site_label
 _atom_site_symmetry_multiplicity
 _atom_site_fract_x
 _atom_site_fract_y
 _atom_site_fract_z
 _atom_site_occupancy
  Li  Li0  1  0.00000000  0.25000000  0.04036000  1.0
  Li  Li1  1  0.50000000  0.25000000  0.04036000  1.0
  Li  Li2  1  0.25000000  0.75000000  0.12108000  1.0
  Li  Li3  1  0.75000000  0.75000000  0.12108000  1.0
  Li  Li4  1  0.50000000  0.24710000  0.86881000  1.0
  Li  Li5  1  0.00000000  0.24774000  0.86559000  1.0
  Li  Li6  1  0.75076000  0.75037000  0.96383000  1.0
  Li  Li7  1  0.24924000  0.75037000  0.96383000  1.0
  Ga  Ga8  1  0.00000000  0.75000000  0.04036000  1.0
  Ga  Ga9  1  0.50000000  0.75000000  0.04036000  1.0
  Ga  Ga10  1  0.25000000  0.25000000  0.12108000  1.0
  Ga  Ga11  1  0.75000000  0.25000000  0.12108000  1.0
  Ga  Ga12  1  0.50000000  0.74550000  0.87272000  1.0
  Ga  Ga13  1  0.00000000  0.74743000  0.87554000  1.0
  Ga  Ga14  1  0.74939000  0.24916000  0.95906000  1.0
  Ga  Ga15  1  0.25061000  0.24916000  0.95906000  1.0
  Cu  Cu16  1  0.00000000  0.00000000  0.12108000  1.0
  Cu  Cu17  1  0.50000000  1.00000000  0.12108000  1.0
  Cu  Cu18  1  0.75000000  0.50000000  0.04036000  1.0
  Cu  Cu19  1  0.25000000  0.50000000  0.04036000  1.0
  Cu  Cu20  1  0.50000000  0.00029000  0.95822000  1.0
  Cu  Cu21  1  0.00000000  0.00432000  0.95824000  1.0
  Cu  Cu22  1  0.25101000  0.52012000  0.88564000  1.0
  Cu  Cu23  1  0.74899000  0.52012000  0.88564000  1.0
  Pd  Pd24  1  0.25000000  0.00000000  0.04036000  1.0
  Pd  Pd25  1  0.75000000  0.00000000  0.04036000  1.0
  Pd  Pd26  1  0.50000000  0.50000000  0.12108000  1.0
  Pd  Pd27  1  0.00000000  0.50000000  0.12108000  1.0
  Pd  Pd28  1  0.74848000  0.97837000  0.88464000  1.0
  Pd  Pd29  1  0.25152000  0.97837000  0.88464000  1.0
  Pd  Pd30  1  0.00000000  0.49637000  0.95820000  1.0
  Pd  Pd31  1  0.50000000  0.50006000  0.95849000  1.0
  C  C32  1  0.00000000  0.25988000  0.78482000  1.0
  O  O33  1  0.00000000  0.25896000  0.74169000  1.0
