# generated using pymatgen
data_Hf8Ni16Sn8C
_symmetry_space_group_name_H-M   P1
_cell_length_a   6.28964000
_cell_length_b   8.89490000
_cell_length_c   26.67120000
_cell_angle_alpha   90.00000000
_cell_angle_beta   90.00000000
_cell_angle_gamma   90.00000000
_symmetry_Int_Tables_number   1
_chemical_formula_structural   Hf8Ni16Sn8C
_chemical_formula_sum   'Hf8 Ni16 Sn8 C1'
_cell_volume   1492.13945622
_cell_formula_units_Z   1
loop_
 _symmetry_equiv_pos_site_id
 _symmetry_equiv_pos_as_xyz
  1  'x, y, z'
loop_
 _atom_site_type_symbol
 _atom_site_label
 _atom_site_symmetry_multiplicity
 _atom_site_fract_x
 _atom_site_fract_y
 _atom_site_fract_z
 _atom_site_occupancy
  Hf  Hf0  1  0.00000000  0.00000000  0.87494000  1.0
  Hf  Hf1  1  0.00000000  0.50000000  0.87494000  1.0
  Hf  Hf2  1  0.49424000  0.75002000  0.12472000  1.0
  Hf  Hf3  1  0.50000000  0.25000000  0.95831000  1.0
  Hf  Hf4  1  0.50000000  0.75000000  0.95831000  1.0
  Hf  Hf5  1  0.54076000  0.25004000  0.11875000  1.0
  Hf  Hf6  1  0.99100000  0.50522000  0.04238000  1.0
  Hf  Hf7  1  0.99103000  0.99480000  0.04237000  1.0
  Ni  Ni8  1  0.19813000  0.25004000  0.05578000  1.0
  Ni  Ni9  1  0.20437000  0.02941000  0.12326000  1.0
  Ni  Ni10  1  0.20448000  0.47076000  0.12326000  1.0
  Ni  Ni11  1  0.25000000  0.00000000  0.95831000  1.0
  Ni  Ni12  1  0.25000000  0.25000000  0.87494000  1.0
  Ni  Ni13  1  0.25000000  0.50000000  0.95831000  1.0
  Ni  Ni14  1  0.25000000  0.75000000  0.87494000  1.0
  Ni  Ni15  1  0.26298000  0.74998000  0.04242000  1.0
  Ni  Ni16  1  0.73227000  0.75001000  0.04590000  1.0
  Ni  Ni17  1  0.75000000  0.00000000  0.95831000  1.0
  Ni  Ni18  1  0.75000000  0.25000000  0.87494000  1.0
  Ni  Ni19  1  0.75000000  0.50000000  0.95831000  1.0
  Ni  Ni20  1  0.75000000  0.75000000  0.87494000  1.0
  Ni  Ni21  1  0.75224000  0.99085000  0.12189000  1.0
  Ni  Ni22  1  0.75225000  0.50923000  0.12190000  1.0
  Ni  Ni23  1  0.76372000  0.24998000  0.03799000  1.0
  Sn  Sn24  1  0.00000000  0.25000000  0.95831000  1.0
  Sn  Sn25  1  0.00000000  0.75000000  0.95831000  1.0
  Sn  Sn26  1  0.01036000  0.75004000  0.13343000  1.0
  Sn  Sn27  1  0.49004000  0.00550000  0.04204000  1.0
  Sn  Sn28  1  0.49006000  0.49452000  0.04203000  1.0
  Sn  Sn29  1  0.50000000  0.00000000  0.87494000  1.0
  Sn  Sn30  1  0.50000000  0.50000000  0.87494000  1.0
  Sn  Sn31  1  0.92889000  0.25000000  0.17686000  1.0
  C  C32  1  0.21933000  0.25010000  0.13424000  1.0
