# generated using pymatgen
data_Mo16CO
_symmetry_space_group_name_H-M   'P 1'
_cell_length_a   6.34058000
_cell_length_b   6.34058000
_cell_length_c   24.75540000
_cell_angle_alpha   90.00000000
_cell_angle_beta   90.00000000
_cell_angle_gamma   90.00000000
_symmetry_Int_Tables_number   1
_chemical_formula_structural   Mo16CO
_chemical_formula_sum   'Mo16 C1 O1'
_cell_volume   995.24022568
_cell_formula_units_Z   1
loop_
 _symmetry_equiv_pos_site_id
 _symmetry_equiv_pos_as_xyz
  1  'x, y, z'
loop_
 _atom_site_type_symbol
 _atom_site_label
 _atom_site_symmetry_multiplicity
 _atom_site_fract_x
 _atom_site_fract_y
 _atom_site_fract_z
 _atom_site_occupancy
  Mo  Mo0  1  0.75000000  0.75000000  0.90395000  1.0
  Mo  Mo1  1  0.00000000  0.00000000  0.96798000  1.0
  Mo  Mo2  1  0.75000000  0.75000000  0.03202000  1.0
  Mo  Mo3  1  0.00000000  0.00000000  0.09605000  1.0
  Mo  Mo4  1  0.75000000  0.25000000  0.90395000  1.0
  Mo  Mo5  1  0.00000000  0.50000000  0.96798000  1.0
  Mo  Mo6  1  0.75000000  0.25000000  0.03202000  1.0
  Mo  Mo7  1  0.00000000  0.50000000  0.09605000  1.0
  Mo  Mo8  1  0.25000000  0.75000000  0.90395000  1.0
  Mo  Mo9  1  0.50000000  0.00000000  0.96798000  1.0
  Mo  Mo10  1  0.25000000  0.75000000  0.03202000  1.0
  Mo  Mo11  1  0.50000000  0.00000000  0.09605000  1.0
  Mo  Mo12  1  0.25000000  0.25000000  0.90395000  1.0
  Mo  Mo13  1  0.50000000  0.50000000  0.96798000  1.0
  Mo  Mo14  1  0.25000000  0.25000000  0.03202000  1.0
  Mo  Mo15  1  0.50000000  0.50000000  0.09605000  1.0
  C  C16  1  0.00000000  0.00000000  0.17280000  1.0
  O  O17  1  0.00000000  0.00000000  0.21925000  1.0
