# generated using pymatgen
data_Li8Sc8Ga8Pd8C
_symmetry_space_group_name_H-M   Pm
_cell_length_a   6.35289000
_cell_length_b   8.98434000
_cell_length_c   26.73830000
_cell_angle_alpha   90.00000000
_cell_angle_beta   90.00000000
_cell_angle_gamma   90.00000000
_symmetry_Int_Tables_number   6
_chemical_formula_structural   Li8Sc8Ga8Pd8C
_chemical_formula_sum   'Li8 Sc8 Ga8 Pd8 C1'
_cell_volume   1526.12921479
_cell_formula_units_Z   1
loop_
 _symmetry_equiv_pos_site_id
 _symmetry_equiv_pos_as_xyz
  1  'x, y, z'
  2  'x, -y, z'
loop_
 _atom_site_type_symbol
 _atom_site_label
 _atom_site_symmetry_multiplicity
 _atom_site_fract_x
 _atom_site_fract_y
 _atom_site_fract_z
 _atom_site_occupancy
  Li  Li0  2  0.25000000  0.24999000  0.87400000  1.0
  Li  Li1  2  0.26641000  0.26690000  0.04370000  1.0
  Li  Li2  1  0.59809000  0.00000000  0.17721000  1.0
  Li  Li3  1  0.62470000  0.50000000  0.17763000  1.0
  Li  Li4  1  0.75000000  0.00000000  0.95800000  1.0
  Li  Li5  1  0.75000000  0.50000000  0.95800000  1.0
  Sc  Sc6  2  0.00000000  0.24999000  0.95800000  1.0
  Sc  Sc7  2  0.93421000  0.26466000  0.12517000  1.0
  Sc  Sc8  1  0.50000000  0.00000000  0.87400000  1.0
  Sc  Sc9  1  0.50000000  0.50000000  0.87400000  1.0
  Sc  Sc10  1  0.51053000  0.00000000  0.05439000  1.0
  Sc  Sc11  1  0.58956000  0.50000000  0.07277000  1.0
  Ga  Ga12  2  0.44691000  0.24544000  0.13405000  1.0
  Ga  Ga13  2  0.50000000  0.25001000  0.95800000  1.0
  Ga  Ga14  1  0.00000000  0.00000000  0.87400000  1.0
  Ga  Ga15  1  0.00000000  0.50000000  0.87400000  1.0
  Ga  Ga16  1  0.00288000  0.00000000  0.04141000  1.0
  Ga  Ga17  1  0.00916000  0.50000000  0.04181000  1.0
  Pd  Pd18  2  0.74295000  0.24031000  0.03505000  1.0
  Pd  Pd19  2  0.75000000  0.24999000  0.87400000  1.0
  Pd  Pd20  1  0.21806000  0.00000000  0.12320000  1.0
  Pd  Pd21  1  0.23393000  0.50000000  0.12680000  1.0
  Pd  Pd22  1  0.25000000  0.00000000  0.95800000  1.0
  Pd  Pd23  1  0.25000000  0.50000000  0.95800000  1.0
  C  C24  1  0.87198000  0.50000000  0.12192000  1.0
