data_image0
_chemical_formula_structural       Zn8Co16Ge8C
_chemical_formula_sum              "Zn8 Co16 Ge8 C1"
_cell_length_a       5.75846
_cell_length_b       8.14369
_cell_length_c       26.1078
_cell_angle_alpha    90
_cell_angle_beta     90
_cell_angle_gamma    90

_space_group_name_H-M_alt    "P 1"
_space_group_IT_number       1

loop_
  _space_group_symop_operation_xyz
  'x, y, z'

loop_
  _atom_site_type_symbol
  _atom_site_label
  _atom_site_symmetry_multiplicity
  _atom_site_fract_x
  _atom_site_fract_y
  _atom_site_fract_z
  _atom_site_occupancy
  Zn  Zn1       1.0  0.00000  0.00000  0.88303  1.0000
  Zn  Zn2       1.0  0.50000  0.25000  0.96101  1.0000
  Zn  Zn3       1.0  0.50000  0.75000  0.96101  1.0000
  Zn  Zn4       1.0  0.00000  0.50000  0.88303  1.0000
  Zn  Zn5       1.0  0.00309  0.50064  0.03951  1.0000
  Zn  Zn6       1.0  0.48311  0.74999  0.12962  1.0000
  Zn  Zn7       1.0  0.55179  0.25021  0.16144  1.0000
  Zn  Zn8       1.0  0.00310  0.99934  0.03951  1.0000
  Co  Co1       1.0  0.25000  0.00000  0.96101  1.0000
  Co  Co2       1.0  0.75000  0.50000  0.96101  1.0000
  Co  Co3       1.0  0.75000  0.00000  0.96101  1.0000
  Co  Co4       1.0  0.25000  0.50000  0.96101  1.0000
  Co  Co5       1.0  0.75000  0.75000  0.88303  1.0000
  Co  Co6       1.0  0.25000  0.25000  0.88303  1.0000
  Co  Co7       1.0  0.25000  0.75000  0.88303  1.0000
  Co  Co8       1.0  0.75000  0.25000  0.88303  1.0000
  Co  Co9       1.0  0.26314  0.47731  0.11463  1.0000
  Co  Co10      1.0  0.74565  0.98838  0.11445  1.0000
  Co  Co11      1.0  0.74578  0.51155  0.11443  1.0000
  Co  Co12      1.0  0.26318  0.02261  0.11464  1.0000
  Co  Co13      1.0  0.75002  0.25000  0.03652  1.0000
  Co  Co14      1.0  0.25633  0.75000  0.04064  1.0000
  Co  Co15      1.0  0.26121  0.24999  0.04217  1.0000
  Co  Co16      1.0  0.74434  0.74999  0.03869  1.0000
  Ge  Ge1       1.0  0.00000  0.75000  0.96101  1.0000
  Ge  Ge2       1.0  0.50000  0.00000  0.88303  1.0000
  Ge  Ge3       1.0  0.00000  0.25000  0.96101  1.0000
  Ge  Ge4       1.0  0.50000  0.50000  0.88303  1.0000
  Ge  Ge5       1.0  0.93119  0.24996  0.12299  1.0000
  Ge  Ge6       1.0  0.50367  0.50006  0.03915  1.0000
  Ge  Ge7       1.0  0.99704  0.75001  0.11929  1.0000
  Ge  Ge8       1.0  0.50368  0.99993  0.03914  1.0000
  C   C1        1.0  0.27107  0.24997  0.11830  1.0000
