# generated using pymatgen
data_Zn8Co16Ge8C
_symmetry_space_group_name_H-M   P1
_cell_length_a   5.75846000
_cell_length_b   8.14369000
_cell_length_c   26.10780000
_cell_angle_alpha   90.00000000
_cell_angle_beta   90.00000000
_cell_angle_gamma   90.00000000
_symmetry_Int_Tables_number   1
_chemical_formula_structural   Zn8Co16Ge8C
_chemical_formula_sum   'Zn8 Co16 Ge8 C1'
_cell_volume   1224.32823425
_cell_formula_units_Z   1
loop_
 _symmetry_equiv_pos_site_id
 _symmetry_equiv_pos_as_xyz
  1  'x, y, z'
loop_
 _atom_site_type_symbol
 _atom_site_label
 _atom_site_symmetry_multiplicity
 _atom_site_fract_x
 _atom_site_fract_y
 _atom_site_fract_z
 _atom_site_occupancy
  Zn  Zn0  1  0.00000000  0.00000000  0.88303000  1.0
  Zn  Zn1  1  0.00000000  0.50000000  0.88303000  1.0
  Zn  Zn2  1  0.00309000  0.50064000  0.03951000  1.0
  Zn  Zn3  1  0.00310000  0.99934000  0.03951000  1.0
  Zn  Zn4  1  0.48311000  0.74999000  0.12962000  1.0
  Zn  Zn5  1  0.50000000  0.25000000  0.96101000  1.0
  Zn  Zn6  1  0.50000000  0.75000000  0.96101000  1.0
  Zn  Zn7  1  0.55179000  0.25021000  0.16144000  1.0
  Co  Co8  1  0.25000000  0.00000000  0.96101000  1.0
  Co  Co9  1  0.25000000  0.25000000  0.88303000  1.0
  Co  Co10  1  0.25000000  0.50000000  0.96101000  1.0
  Co  Co11  1  0.25000000  0.75000000  0.88303000  1.0
  Co  Co12  1  0.25633000  0.75000000  0.04064000  1.0
  Co  Co13  1  0.26121000  0.24999000  0.04217000  1.0
  Co  Co14  1  0.26314000  0.47731000  0.11463000  1.0
  Co  Co15  1  0.26318000  0.02261000  0.11464000  1.0
  Co  Co16  1  0.74434000  0.74999000  0.03869000  1.0
  Co  Co17  1  0.74565000  0.98838000  0.11445000  1.0
  Co  Co18  1  0.74578000  0.51155000  0.11443000  1.0
  Co  Co19  1  0.75000000  0.00000000  0.96101000  1.0
  Co  Co20  1  0.75000000  0.25000000  0.88303000  1.0
  Co  Co21  1  0.75000000  0.50000000  0.96101000  1.0
  Co  Co22  1  0.75000000  0.75000000  0.88303000  1.0
  Co  Co23  1  0.75002000  0.25000000  0.03652000  1.0
  Ge  Ge24  1  0.00000000  0.25000000  0.96101000  1.0
  Ge  Ge25  1  0.00000000  0.75000000  0.96101000  1.0
  Ge  Ge26  1  0.50000000  0.00000000  0.88303000  1.0
  Ge  Ge27  1  0.50000000  0.50000000  0.88303000  1.0
  Ge  Ge28  1  0.50367000  0.50006000  0.03915000  1.0
  Ge  Ge29  1  0.50368000  0.99993000  0.03914000  1.0
  Ge  Ge30  1  0.93119000  0.24996000  0.12299000  1.0
  Ge  Ge31  1  0.99704000  0.75001000  0.11929000  1.0
  C  C32  1  0.27107000  0.24997000  0.11830000  1.0
