# generated using pymatgen
data_Zr16Cu16CO
_symmetry_space_group_name_H-M   Pm
_cell_length_a   9.37081000
_cell_length_b   6.62616000
_cell_length_c   27.02810000
_cell_angle_alpha   90.00000000
_cell_angle_beta   90.00000000
_cell_angle_gamma   90.00000000
_symmetry_Int_Tables_number   6
_chemical_formula_structural   Zr16Cu16CO
_chemical_formula_sum   'Zr16 Cu16 C1 O1'
_cell_volume   1678.24193139
_cell_formula_units_Z   1
loop_
 _symmetry_equiv_pos_site_id
 _symmetry_equiv_pos_as_xyz
  1  'x, y, z'
  2  'x, -y, z'
loop_
 _atom_site_type_symbol
 _atom_site_label
 _atom_site_symmetry_multiplicity
 _atom_site_fract_x
 _atom_site_fract_y
 _atom_site_fract_z
 _atom_site_occupancy
  Zr  Zr0  2  0.00000000  0.25000000  0.95666000  1.0
  Zr  Zr1  2  0.00040000  0.25112000  0.12383000  1.0
  Zr  Zr2  2  0.25000000  0.24571000  0.04085000  1.0
  Zr  Zr3  2  0.25000000  0.25000000  0.86999000  1.0
  Zr  Zr4  2  0.49959000  0.25113000  0.12385000  1.0
  Zr  Zr5  2  0.50000000  0.25000000  0.95666000  1.0
  Zr  Zr6  2  0.75000000  0.25000000  0.86999000  1.0
  Zr  Zr7  2  0.75000000  0.25200000  0.03996000  1.0
  Cu  Cu8  1  0.00000000  0.00000000  0.86999000  1.0
  Cu  Cu9  1  0.00000000  0.50000000  0.86999000  1.0
  Cu  Cu10  1  0.00211000  0.50000000  0.04220000  1.0
  Cu  Cu11  1  0.25000000  0.00000000  0.95666000  1.0
  Cu  Cu12  1  0.25000000  0.50000000  0.95666000  1.0
  Cu  Cu13  1  0.25001000  0.00000000  0.13001000  1.0
  Cu  Cu14  1  0.25001000  0.50000000  0.12152000  1.0
  Cu  Cu15  1  0.49790000  0.50000000  0.04221000  1.0
  Cu  Cu16  1  0.50000000  0.00000000  0.86999000  1.0
  Cu  Cu17  1  0.50000000  0.50000000  0.86999000  1.0
  Cu  Cu18  1  0.50674000  0.00000000  0.04184000  1.0
  Cu  Cu19  1  0.74998000  0.00000000  0.12063000  1.0
  Cu  Cu20  1  0.74998000  0.50000000  0.12118000  1.0
  Cu  Cu21  1  0.75000000  0.00000000  0.95666000  1.0
  Cu  Cu22  1  0.75000000  0.50000000  0.95666000  1.0
  Cu  Cu23  1  0.99327000  0.00000000  0.04183000  1.0
  C  C24  1  0.25005000  0.00000000  0.19841000  1.0
  O  O25  1  0.24999000  0.00000000  0.24147000  1.0
