# generated using pymatgen
data_Ni12Ge4CO
_symmetry_space_group_name_H-M   P1
_cell_length_a   5.09807000
_cell_length_b   7.20976000
_cell_length_c   23.82360000
_cell_angle_alpha   90.00000000
_cell_angle_beta   90.00000000
_cell_angle_gamma   90.00000000
_symmetry_Int_Tables_number   1
_chemical_formula_structural   Ni12Ge4CO
_chemical_formula_sum   'Ni12 Ge4 C1 O1'
_cell_volume   875.65693401
_cell_formula_units_Z   1
loop_
 _symmetry_equiv_pos_site_id
 _symmetry_equiv_pos_as_xyz
  1  'x, y, z'
loop_
 _atom_site_type_symbol
 _atom_site_label
 _atom_site_symmetry_multiplicity
 _atom_site_fract_x
 _atom_site_fract_y
 _atom_site_fract_z
 _atom_site_occupancy
  Ni  Ni0  1  0.00000000  0.00000000  0.02675000  1.0
  Ni  Ni1  1  0.00000000  0.50000000  0.02675000  1.0
  Ni  Ni2  1  0.24736000  0.74930000  0.97117000  1.0
  Ni  Ni3  1  0.24737000  0.25073000  0.97115000  1.0
  Ni  Ni4  1  0.25000000  0.25000000  0.08025000  1.0
  Ni  Ni5  1  0.25000000  0.75000000  0.08025000  1.0
  Ni  Ni6  1  0.49999000  0.50001000  0.92304000  1.0
  Ni  Ni7  1  0.50001000  0.99995000  0.92352000  1.0
  Ni  Ni8  1  0.75000000  0.25000000  0.08025000  1.0
  Ni  Ni9  1  0.75000000  0.75000000  0.08025000  1.0
  Ni  Ni10  1  0.75263000  0.25073000  0.97115000  1.0
  Ni  Ni11  1  0.75268000  0.74930000  0.97117000  1.0
  Ge  Ge12  1  0.00000000  0.00000000  0.92182000  1.0
  Ge  Ge13  1  0.00001000  0.49998000  0.92124000  1.0
  Ge  Ge14  1  0.50000000  0.00000000  0.02675000  1.0
  Ge  Ge15  1  0.50000000  0.50000000  0.02675000  1.0
  C  C16  1  0.99992000  0.00016000  0.75714000  1.0
  O  O17  1  0.00001000  0.99989000  0.70952000  1.0
