# generated using pymatgen
data_Sc8Cu8Ge8Pd8C
_symmetry_space_group_name_H-M   'P 1'
_cell_length_a   8.95756000
_cell_length_b   6.33395000
_cell_length_c   26.71820000
_cell_angle_alpha   90.00000000
_cell_angle_beta   90.00000000
_cell_angle_gamma   90.00000000
_symmetry_Int_Tables_number   1
_chemical_formula_structural   Sc8Cu8Ge8Pd8C
_chemical_formula_sum   'Sc8 Cu8 Ge8 Pd8 C1'
_cell_volume   1515.90349084
_cell_formula_units_Z   1
loop_
 _symmetry_equiv_pos_site_id
 _symmetry_equiv_pos_as_xyz
  1  'x, y, z'
loop_
 _atom_site_type_symbol
 _atom_site_label
 _atom_site_symmetry_multiplicity
 _atom_site_fract_x
 _atom_site_fract_y
 _atom_site_fract_z
 _atom_site_occupancy
  Sc  Sc0  1  0.75000000  0.75000000  0.04191000  1.0
  Sc  Sc1  1  0.25000000  0.75000000  0.04191000  1.0
  Sc  Sc2  1  0.00000000  0.25000000  0.12572000  1.0
  Sc  Sc3  1  0.50000000  0.25000000  0.12572000  1.0
  Sc  Sc4  1  0.23338000  0.66832000  0.86142000  1.0
  Sc  Sc5  1  0.76662000  0.66832000  0.86142000  1.0
  Sc  Sc6  1  0.50000000  0.23526000  0.95537000  1.0
  Sc  Sc7  1  0.00000000  0.24331000  0.95485000  1.0
  Cu  Cu8  1  0.75000000  0.00000000  0.12572000  1.0
  Cu  Cu9  1  0.25000000  0.00000000  0.12572000  1.0
  Cu  Cu10  1  0.50000000  0.50000000  0.04191000  1.0
  Cu  Cu11  1  0.00000000  0.50000000  0.04191000  1.0
  Cu  Cu12  1  0.25094000  0.93848000  0.94445000  1.0
  Cu  Cu13  1  0.74906000  0.93848000  0.94445000  1.0
  Cu  Cu14  1  0.00000000  0.36326000  0.85271000  1.0
  Cu  Cu15  1  0.50000000  0.39595000  0.85726000  1.0
  Ge  Ge16  1  0.75000000  0.25000000  0.04191000  1.0
  Ge  Ge17  1  0.25000000  0.25000000  0.04191000  1.0
  Ge  Ge18  1  0.00000000  0.75000000  0.12572000  1.0
  Ge  Ge19  1  0.50000000  0.75000000  0.12572000  1.0
  Ge  Ge20  1  0.25079000  0.21219000  0.87651000  1.0
  Ge  Ge21  1  0.74921000  0.21219000  0.87651000  1.0
  Ge  Ge22  1  0.50000000  0.73442000  0.95989000  1.0
  Ge  Ge23  1  0.00000000  0.74203000  0.96018000  1.0
  Pd  Pd24  1  0.00000000  0.00000000  0.04191000  1.0
  Pd  Pd25  1  0.50000000  1.00000000  0.04191000  1.0
  Pd  Pd26  1  0.25000000  0.50000000  0.12572000  1.0
  Pd  Pd27  1  0.75000000  0.50000000  0.12572000  1.0
  Pd  Pd28  1  0.50000000  0.95632000  0.87725000  1.0
  Pd  Pd29  1  0.00000000  0.96273000  0.87415000  1.0
  Pd  Pd30  1  0.74802000  0.49471000  0.95883000  1.0
  Pd  Pd31  1  0.25198000  0.49471000  0.95883000  1.0
  C  C32  1  0.00000000  0.66071000  0.84153000  1.0
