# generated using pymatgen
data_Sc16Ir16C
_symmetry_space_group_name_H-M   'P 1'
_cell_length_a   6.46830000
_cell_length_b   9.14755000
_cell_length_c   26.86070000
_cell_angle_alpha   90.00000000
_cell_angle_beta   90.00000000
_cell_angle_gamma   90.00000000
_symmetry_Int_Tables_number   1
_chemical_formula_structural   Sc16Ir16C
_chemical_formula_sum   'Sc16 Ir16 C1'
_cell_volume   1589.32338165
_cell_formula_units_Z   1
loop_
 _symmetry_equiv_pos_site_id
 _symmetry_equiv_pos_as_xyz
  1  'x, y, z'
loop_
 _atom_site_type_symbol
 _atom_site_label
 _atom_site_symmetry_multiplicity
 _atom_site_fract_x
 _atom_site_fract_y
 _atom_site_fract_z
 _atom_site_occupancy
  Sc  Sc0  1  0.75001000  0.25000000  0.87229000  1.0
  Sc  Sc1  1  0.75001000  0.00000000  0.95743000  1.0
  Sc  Sc2  1  0.75286000  0.24923000  0.04399000  1.0
  Sc  Sc3  1  0.79874000  0.00000000  0.13984000  1.0
  Sc  Sc4  1  0.75001000  0.75000000  0.87229000  1.0
  Sc  Sc5  1  0.75001000  0.50000000  0.95743000  1.0
  Sc  Sc6  1  0.75286000  0.75077000  0.04399000  1.0
  Sc  Sc7  1  0.74603000  0.50000000  0.13250000  1.0
  Sc  Sc8  1  0.24999000  0.25000000  0.87229000  1.0
  Sc  Sc9  1  0.24999000  0.00000000  0.95743000  1.0
  Sc  Sc10  1  0.24714000  0.24923000  0.04399000  1.0
  Sc  Sc11  1  0.20126000  0.00000000  0.13984000  1.0
  Sc  Sc12  1  0.24999000  0.75000000  0.87229000  1.0
  Sc  Sc13  1  0.24999000  0.50000000  0.95743000  1.0
  Sc  Sc14  1  0.24714000  0.75077000  0.04399000  1.0
  Sc  Sc15  1  0.25397000  0.50000000  0.13250000  1.0
  Ir  Ir16  1  0.50000000  0.00000000  0.87229000  1.0
  Ir  Ir17  1  0.50000000  0.25000000  0.95743000  1.0
  Ir  Ir18  1  0.50000000  0.00000000  0.04204000  1.0
  Ir  Ir19  1  0.50000000  0.24158000  0.12088000  1.0
  Ir  Ir20  1  0.50000000  0.50000000  0.87229000  1.0
  Ir  Ir21  1  0.50000000  0.75000000  0.95743000  1.0
  Ir  Ir22  1  0.50000000  0.50000000  0.04619000  1.0
  Ir  Ir23  1  0.50000000  0.75842000  0.12088000  1.0
  Ir  Ir24  1  0.00000000  0.00000000  0.87229000  1.0
  Ir  Ir25  1  0.00000000  0.25000000  0.95743000  1.0
  Ir  Ir26  1  0.00000000  0.00000000  0.04535000  1.0
  Ir  Ir27  1  0.00000000  0.26088000  0.12486000  1.0
  Ir  Ir28  1  0.00000000  0.50000000  0.87229000  1.0
  Ir  Ir29  1  0.00000000  0.75000000  0.95743000  1.0
  Ir  Ir30  1  0.00000000  0.50000000  0.04398000  1.0
  Ir  Ir31  1  0.00000000  0.73912000  0.12486000  1.0
  C  C32  1  0.50000000  0.00000000  0.11829000  1.0
