# generated using pymatgen
data_Li8Zn8Ag8Ge8CO
_symmetry_space_group_name_H-M   P1
_cell_length_a   6.35563000
_cell_length_b   8.98822000
_cell_length_c   26.74120000
_cell_angle_alpha   90.00000000
_cell_angle_beta   90.00000000
_cell_angle_gamma   90.00000000
_symmetry_Int_Tables_number   1
_chemical_formula_structural   Li8Zn8Ag8Ge8CO
_chemical_formula_sum   'Li8 Zn8 Ag8 Ge8 C1 O1'
_cell_volume   1527.61246111
_cell_formula_units_Z   1
loop_
 _symmetry_equiv_pos_site_id
 _symmetry_equiv_pos_as_xyz
  1  'x, y, z'
loop_
 _atom_site_type_symbol
 _atom_site_label
 _atom_site_symmetry_multiplicity
 _atom_site_fract_x
 _atom_site_fract_y
 _atom_site_fract_z
 _atom_site_occupancy
  Li  Li0  1  0.24240000  0.24999000  0.04185000  1.0
  Li  Li1  1  0.25000000  0.25000000  0.87396000  1.0
  Li  Li2  1  0.25000000  0.75000000  0.87396000  1.0
  Li  Li3  1  0.27784000  0.75002000  0.04811000  1.0
  Li  Li4  1  0.75000000  0.00000000  0.95799000  1.0
  Li  Li5  1  0.75000000  0.50000000  0.95799000  1.0
  Li  Li6  1  0.79664000  0.47518000  0.14000000  1.0
  Li  Li7  1  0.79671000  0.02486000  0.14001000  1.0
  Zn  Zn8  1  0.25000000  0.00000000  0.95799000  1.0
  Zn  Zn9  1  0.25000000  0.50000000  0.95799000  1.0
  Zn  Zn10  1  0.25072000  0.51458000  0.13226000  1.0
  Zn  Zn11  1  0.25072000  0.98545000  0.13226000  1.0
  Zn  Zn12  1  0.73976000  0.75001000  0.04336000  1.0
  Zn  Zn13  1  0.75000000  0.25000000  0.87396000  1.0
  Zn  Zn14  1  0.75000000  0.75000000  0.87396000  1.0
  Zn  Zn15  1  0.76327000  0.25001000  0.04624000  1.0
  Ag  Ag16  1  0.00000000  0.00000000  0.87396000  1.0
  Ag  Ag17  1  0.00000000  0.50000000  0.87396000  1.0
  Ag  Ag18  1  0.00368000  0.99295000  0.04510000  1.0
  Ag  Ag19  1  0.00369000  0.50712000  0.04510000  1.0
  Ag  Ag20  1  0.47459000  0.25001000  0.12952000  1.0
  Ag  Ag21  1  0.50000000  0.25000000  0.95799000  1.0
  Ag  Ag22  1  0.50000000  0.75000000  0.95799000  1.0
  Ag  Ag23  1  0.54247000  0.75001000  0.13768000  1.0
  Ge  Ge24  1  0.00000000  0.25000000  0.95799000  1.0
  Ge  Ge25  1  0.00000000  0.75000000  0.95799000  1.0
  Ge  Ge26  1  0.07016000  0.24999000  0.16505000  1.0
  Ge  Ge27  1  0.50000000  0.00000000  0.87396000  1.0
  Ge  Ge28  1  0.50000000  0.50000000  0.87396000  1.0
  Ge  Ge29  1  0.51805000  0.49226000  0.05252000  1.0
  Ge  Ge30  1  0.51809000  0.00776000  0.05252000  1.0
  Ge  Ge31  1  0.99619000  0.75001000  0.13013000  1.0
  C  C32  1  0.14198000  0.24994000  0.23664000  1.0
  O  O33  1  0.17244000  0.24979000  0.27933000  1.0
