data_image0
_chemical_formula_structural       Ti16Rh16CO
_chemical_formula_sum              "Ti16 Rh16 C1 O1"
_cell_length_a       6.24301
_cell_length_b       8.82895
_cell_length_c       26.6217
_cell_angle_alpha    90
_cell_angle_beta     90
_cell_angle_gamma    90

_space_group_name_H-M_alt    "P 1"
_space_group_IT_number       1

loop_
  _space_group_symop_operation_xyz
  'x, y, z'

loop_
  _atom_site_type_symbol
  _atom_site_label
  _atom_site_symmetry_multiplicity
  _atom_site_fract_x
  _atom_site_fract_y
  _atom_site_fract_z
  _atom_site_occupancy
  Ti  Ti1       1.0  0.25000  0.25000  0.87563  1.0000
  Ti  Ti2       1.0  0.25000  0.00000  0.95854  1.0000
  Ti  Ti3       1.0  0.25013  0.24909  0.04227  1.0000
  Ti  Ti4       1.0  0.24988  1.00000  0.12925  1.0000
  Ti  Ti5       1.0  0.25000  0.75000  0.87563  1.0000
  Ti  Ti6       1.0  0.25000  0.50000  0.95854  1.0000
  Ti  Ti7       1.0  0.25013  0.75091  0.04227  1.0000
  Ti  Ti8       1.0  0.25019  0.50000  0.12648  1.0000
  Ti  Ti9       1.0  0.75000  0.25000  0.87563  1.0000
  Ti  Ti10      1.0  0.75000  0.00000  0.95854  1.0000
  Ti  Ti11      1.0  0.75006  0.25008  0.04221  1.0000
  Ti  Ti12      1.0  0.74995  1.00000  0.12638  1.0000
  Ti  Ti13      1.0  0.75000  0.75000  0.87563  1.0000
  Ti  Ti14      1.0  0.75000  0.50000  0.95854  1.0000
  Ti  Ti15      1.0  0.75006  0.74992  0.04221  1.0000
  Ti  Ti16      1.0  0.75008  0.50000  0.12655  1.0000
  Rh  Rh1       1.0  0.00000  0.00000  0.87563  1.0000
  Rh  Rh2       1.0  0.00000  0.25000  0.95854  1.0000
  Rh  Rh3       1.0  0.99926  0.99998  0.04175  1.0000
  Rh  Rh4       1.0  0.00057  0.25167  0.11778  1.0000
  Rh  Rh5       1.0  0.00000  0.50000  0.87563  1.0000
  Rh  Rh6       1.0  0.00000  0.75000  0.95854  1.0000
  Rh  Rh7       1.0  0.00020  0.50002  0.04221  1.0000
  Rh  Rh8       1.0  0.00057  0.74833  0.11778  1.0000
  Rh  Rh9       1.0  0.50000  0.00000  0.87563  1.0000
  Rh  Rh10      1.0  0.50000  0.25000  0.95854  1.0000
  Rh  Rh11      1.0  0.50101  0.99998  0.04170  1.0000
  Rh  Rh12      1.0  0.49964  0.25144  0.11778  1.0000
  Rh  Rh13      1.0  0.50000  0.50000  0.87563  1.0000
  Rh  Rh14      1.0  0.50000  0.75000  0.95854  1.0000
  Rh  Rh15      1.0  0.50004  0.50001  0.04222  1.0000
  Rh  Rh16      1.0  0.49964  0.74856  0.11778  1.0000
  C   C1        1.0  0.24735  1.00000  0.20896  1.0000
  O   O1        1.0  0.24667  0.00000  0.25224  1.0000
