data_image0
_chemical_formula_structural       Mg12In4CO
_chemical_formula_sum              "Mg12 In4 C1 O1"
_cell_length_a       9.03947
_cell_length_b       6.39187
_cell_length_c       24.7939
_cell_angle_alpha    90
_cell_angle_beta     90
_cell_angle_gamma    90

_space_group_name_H-M_alt    "P 1"
_space_group_IT_number       1

loop_
  _space_group_symop_operation_xyz
  'x, y, z'

loop_
  _atom_site_type_symbol
  _atom_site_label
  _atom_site_symmetry_multiplicity
  _atom_site_fract_x
  _atom_site_fract_y
  _atom_site_fract_z
  _atom_site_occupancy
  Mg  Mg1       1.0  0.00021  0.50050  0.09920  1.0000
  Mg  Mg2       1.0  0.25147  0.74986  0.03749  1.0000
  Mg  Mg3       1.0  0.25161  0.25134  0.03734  1.0000
  Mg  Mg4       1.0  0.00000  0.00000  0.96777  1.0000
  Mg  Mg5       1.0  0.25000  0.25000  0.90332  1.0000
  Mg  Mg6       1.0  0.25000  0.75000  0.90332  1.0000
  Mg  Mg7       1.0  0.50025  0.50053  0.09851  1.0000
  Mg  Mg8       1.0  0.74820  0.75007  0.03740  1.0000
  Mg  Mg9       1.0  0.74805  0.25099  0.03744  1.0000
  Mg  Mg10      1.0  0.50000  0.00000  0.96777  1.0000
  Mg  Mg11      1.0  0.75000  0.25000  0.90332  1.0000
  Mg  Mg12      1.0  0.75000  0.75000  0.90332  1.0000
  In  In1       1.0  0.00131  0.00084  0.09735  1.0000
  In  In2       1.0  0.00000  0.50000  0.96777  1.0000
  In  In3       1.0  0.50197  0.00029  0.09995  1.0000
  In  In4       1.0  0.50000  0.50000  0.96777  1.0000
  C   C1        1.0  0.97335  0.99196  0.25737  1.0000
  O   O1        1.0  0.01637  0.00481  0.30040  1.0000
