# generated using pymatgen
data_Mg12In4CO
_symmetry_space_group_name_H-M   P1
_cell_length_a   6.39187000
_cell_length_b   9.03947000
_cell_length_c   24.79390000
_cell_angle_alpha   90.00000000
_cell_angle_beta   90.00000000
_cell_angle_gamma   90.00000000
_symmetry_Int_Tables_number   1
_chemical_formula_structural   Mg12In4CO
_chemical_formula_sum   'Mg12 In4 C1 O1'
_cell_volume   1432.56965169
_cell_formula_units_Z   1
loop_
 _symmetry_equiv_pos_site_id
 _symmetry_equiv_pos_as_xyz
  1  'x, y, z'
loop_
 _atom_site_type_symbol
 _atom_site_label
 _atom_site_symmetry_multiplicity
 _atom_site_fract_x
 _atom_site_fract_y
 _atom_site_fract_z
 _atom_site_occupancy
  Mg  Mg0  1  0.00000000  0.00000000  0.03223000  1.0
  Mg  Mg1  1  0.00000000  0.50000000  0.03223000  1.0
  Mg  Mg2  1  0.24993000  0.25180000  0.96260000  1.0
  Mg  Mg3  1  0.25000000  0.25000000  0.09668000  1.0
  Mg  Mg4  1  0.25000000  0.75000000  0.09668000  1.0
  Mg  Mg5  1  0.25014000  0.74853000  0.96251000  1.0
  Mg  Mg6  1  0.49947000  0.49975000  0.90149000  1.0
  Mg  Mg7  1  0.49950000  0.99979000  0.90080000  1.0
  Mg  Mg8  1  0.74866000  0.74839000  0.96266000  1.0
  Mg  Mg9  1  0.74901000  0.25195000  0.96256000  1.0
  Mg  Mg10  1  0.75000000  0.25000000  0.09668000  1.0
  Mg  Mg11  1  0.75000000  0.75000000  0.09668000  1.0
  In  In12  1  0.50000000  -0.00000000  0.03223000  1.0
  In  In13  1  0.50000000  0.50000000  0.03223000  1.0
  In  In14  1  0.99916000  0.99869000  0.90265000  1.0
  In  In15  1  0.99971000  0.49803000  0.90005000  1.0
  C  C16  1  0.00804000  0.02665000  0.74263000  1.0
  O  O17  1  0.99519000  0.98363000  0.69960000  1.0
