# generated using pymatgen
data_Li8Sc8In8Ag8CO
_symmetry_space_group_name_H-M   P1
_cell_length_a   6.68683000
_cell_length_b   9.45660000
_cell_length_c   27.09240000
_cell_angle_alpha   90.00000000
_cell_angle_beta   90.00000000
_cell_angle_gamma   90.00000000
_symmetry_Int_Tables_number   1
_chemical_formula_structural   Li8Sc8In8Ag8CO
_chemical_formula_sum   'Li8 Sc8 In8 Ag8 C1 O1'
_cell_volume   1713.17915172
_cell_formula_units_Z   1
loop_
 _symmetry_equiv_pos_site_id
 _symmetry_equiv_pos_as_xyz
  1  'x, y, z'
loop_
 _atom_site_type_symbol
 _atom_site_label
 _atom_site_symmetry_multiplicity
 _atom_site_fract_x
 _atom_site_fract_y
 _atom_site_fract_z
 _atom_site_occupancy
  Li  Li0  1  0.00000000  0.25000000  0.95637000  1.0
  Li  Li1  1  0.00000000  0.75000000  0.95637000  1.0
  Li  Li2  1  0.00944000  0.75040000  0.15795000  1.0
  Li  Li3  1  0.12619000  0.24184000  0.19729000  1.0
  Li  Li4  1  0.50000000  0.00000000  0.86911000  1.0
  Li  Li5  1  0.50000000  0.50000000  0.86911000  1.0
  Li  Li6  1  0.51306000  0.50466000  0.05328000  1.0
  Li  Li7  1  0.53534000  0.99668000  0.05427000  1.0
  Sc  Sc8  1  0.23945000  0.24828000  0.04848000  1.0
  Sc  Sc9  1  0.24162000  0.75384000  0.04590000  1.0
  Sc  Sc10  1  0.25000000  0.25000000  0.86911000  1.0
  Sc  Sc11  1  0.25000000  0.75000000  0.86911000  1.0
  Sc  Sc12  1  0.75000000  0.00000000  0.95637000  1.0
  Sc  Sc13  1  0.75000000  0.50000000  0.95637000  1.0
  Sc  Sc14  1  0.79977000  0.41583000  0.15183000  1.0
  Sc  Sc15  1  0.80885000  0.06499000  0.13659000  1.0
  In  In16  1  0.24663000  0.51604000  0.13691000  1.0
  In  In17  1  0.25000000  0.00000000  0.95637000  1.0
  In  In18  1  0.25000000  0.50000000  0.95637000  1.0
  In  In19  1  0.26355000  0.98088000  0.13599000  1.0
  In  In20  1  0.74941000  0.25467000  0.04041000  1.0
  In  In21  1  0.75000000  0.25000000  0.86911000  1.0
  In  In22  1  0.75000000  0.75000000  0.86911000  1.0
  In  In23  1  0.76788000  0.74974000  0.04454000  1.0
  Ag  Ag24  1  0.00000000  0.00000000  0.86911000  1.0
  Ag  Ag25  1  0.00000000  0.50000000  0.86911000  1.0
  Ag  Ag26  1  0.45115000  0.25098000  0.12569000  1.0
  Ag  Ag27  1  0.50000000  0.25000000  0.95637000  1.0
  Ag  Ag28  1  0.50000000  0.75000000  0.95637000  1.0
  Ag  Ag29  1  0.53846000  0.74231000  0.13261000  1.0
  Ag  Ag30  1  0.99421000  0.98983000  0.04178000  1.0
  Ag  Ag31  1  0.99645000  0.50961000  0.04554000  1.0
  C  C32  1  0.81027000  0.21408000  0.18608000  1.0
  O  O33  1  0.86103000  0.31388000  0.21652000  1.0
