# generated using pymatgen
data_Li4Ga8Pd4C
_symmetry_space_group_name_H-M   'P 1'
_cell_length_a   6.24448000
_cell_length_b   6.24448000
_cell_length_c   24.68340000
_cell_angle_alpha   90.00000000
_cell_angle_beta   90.00000000
_cell_angle_gamma   90.00000000
_symmetry_Int_Tables_number   1
_chemical_formula_structural   Li4Ga8Pd4C
_chemical_formula_sum   'Li4 Ga8 Pd4 C1'
_cell_volume   962.49291001
_cell_formula_units_Z   1
loop_
 _symmetry_equiv_pos_site_id
 _symmetry_equiv_pos_as_xyz
  1  'x, y, z'
loop_
 _atom_site_type_symbol
 _atom_site_label
 _atom_site_symmetry_multiplicity
 _atom_site_fract_x
 _atom_site_fract_y
 _atom_site_fract_z
 _atom_site_occupancy
  Li  Li0  1  0.50000000  0.50000000  0.90513000  1.0
  Li  Li1  1  0.00000000  0.00000000  0.90513000  1.0
  Li  Li2  1  0.00000000  0.50000000  0.03562000  1.0
  Li  Li3  1  0.50000000  0.00000000  0.03561000  1.0
  Ga  Ga4  1  0.75005000  0.75001000  0.96838000  1.0
  Ga  Ga5  1  0.26007000  0.25996000  0.10742000  1.0
  Ga  Ga6  1  0.24995000  0.75001000  0.96838000  1.0
  Ga  Ga7  1  0.73993000  0.25996000  0.10742000  1.0
  Ga  Ga8  1  0.24995000  0.24999000  0.96838000  1.0
  Ga  Ga9  1  0.73993000  0.74004000  0.10742000  1.0
  Ga  Ga10  1  0.75005000  0.24999000  0.96838000  1.0
  Ga  Ga11  1  0.26007000  0.74004000  0.10742000  1.0
  Pd  Pd12  1  0.50000000  0.50000000  0.02315000  1.0
  Pd  Pd13  1  0.00000000  0.50000000  0.90513000  1.0
  Pd  Pd14  1  0.50000000  0.00000000  0.90513000  1.0
  Pd  Pd15  1  0.00000000  0.00000000  0.03286000  1.0
  C  C16  1  0.50000000  0.50000000  0.11502000  1.0
