# generated using pymatgen
data_Mn8Au8CO
_symmetry_space_group_name_H-M   P1
_cell_length_a   6.51708000
_cell_length_b   6.51708000
_cell_length_c   24.88780000
_cell_angle_alpha   90.00000000
_cell_angle_beta   90.00000000
_cell_angle_gamma   90.00000000
_symmetry_Int_Tables_number   1
_chemical_formula_structural   Mn8Au8CO
_chemical_formula_sum   'Mn8 Au8 C1 O1'
_cell_volume   1057.04289754
_cell_formula_units_Z   1
loop_
 _symmetry_equiv_pos_site_id
 _symmetry_equiv_pos_as_xyz
  1  'x, y, z'
loop_
 _atom_site_type_symbol
 _atom_site_label
 _atom_site_symmetry_multiplicity
 _atom_site_fract_x
 _atom_site_fract_y
 _atom_site_fract_z
 _atom_site_occupancy
  Mn  Mn0  1  0.00000000  0.00000000  0.92026000  1.0
  Mn  Mn1  1  0.00000000  0.50000000  0.92026000  1.0
  Mn  Mn2  1  0.00551000  0.00150000  0.05566000  1.0
  Mn  Mn3  1  0.00598000  0.49494000  0.05661000  1.0
  Mn  Mn4  1  0.49836000  0.00067000  0.05390000  1.0
  Mn  Mn5  1  0.49900000  0.49673000  0.05513000  1.0
  Mn  Mn6  1  0.50000000  0.00000000  0.92026000  1.0
  Mn  Mn7  1  0.50000000  0.50000000  0.92026000  1.0
  Au  Au8  1  0.25000000  0.25000000  0.98572000  1.0
  Au  Au9  1  0.25000000  0.75000000  0.98572000  1.0
  Au  Au10  1  0.25324000  0.75107000  0.11788000  1.0
  Au  Au11  1  0.26578000  0.24031000  0.12267000  1.0
  Au  Au12  1  0.74629000  0.24761000  0.11703000  1.0
  Au  Au13  1  0.75000000  0.25000000  0.98572000  1.0
  Au  Au14  1  0.75000000  0.75000000  0.98572000  1.0
  Au  Au15  1  0.75429000  0.74841000  0.11660000  1.0
  C  C16  1  0.20944000  0.26850000  0.21542000  1.0
  O  O17  1  0.29214000  0.22544000  0.25436000  1.0
