# generated using pymatgen
data_Nb8Al8Ni16CO
_symmetry_space_group_name_H-M   'P 1'
_cell_length_a   6.01786000
_cell_length_b   8.51054000
_cell_length_c   26.38290000
_cell_angle_alpha   90.00000000
_cell_angle_beta   90.00000000
_cell_angle_gamma   90.00000000
_symmetry_Int_Tables_number   1
_chemical_formula_structural   Nb8Al8Ni16CO
_chemical_formula_sum   'Nb8 Al8 Ni16 C1 O1'
_cell_volume   1351.20650908
_cell_formula_units_Z   1
loop_
 _symmetry_equiv_pos_site_id
 _symmetry_equiv_pos_as_xyz
  1  'x, y, z'
loop_
 _atom_site_type_symbol
 _atom_site_label
 _atom_site_symmetry_multiplicity
 _atom_site_fract_x
 _atom_site_fract_y
 _atom_site_fract_z
 _atom_site_occupancy
  Nb  Nb0  1  0.00000000  0.75000000  0.87903000  1.0
  Nb  Nb1  1  0.50000000  0.00000000  0.95968000  1.0
  Nb  Nb2  1  0.50000000  0.50000000  0.95968000  1.0
  Nb  Nb3  1  0.00000000  0.25000000  0.87903000  1.0
  Nb  Nb4  1  0.00000000  0.25410000  0.04007000  1.0
  Nb  Nb5  1  0.50000000  0.50000000  0.12382000  1.0
  Nb  Nb6  1  0.50000000  0.00000000  0.12117000  1.0
  Nb  Nb7  1  0.00000000  0.74590000  0.04007000  1.0
  Al  Al8  1  0.00000000  0.50000000  0.95968000  1.0
  Al  Al9  1  0.50000000  0.75000000  0.87903000  1.0
  Al  Al10  1  0.00000000  0.00000000  0.95968000  1.0
  Al  Al11  1  0.50000000  0.25000000  0.87903000  1.0
  Al  Al12  1  0.00000000  0.00000000  0.12065000  1.0
  Al  Al13  1  0.50000000  0.24606000  0.03999000  1.0
  Al  Al14  1  0.00000000  0.50000000  0.11974000  1.0
  Al  Al15  1  0.50000000  0.75394000  0.03999000  1.0
  Ni  Ni16  1  0.25000000  0.75000000  0.95968000  1.0
  Ni  Ni17  1  0.75000000  0.25000000  0.95968000  1.0
  Ni  Ni18  1  0.75000000  0.75000000  0.95968000  1.0
  Ni  Ni19  1  0.25000000  0.25000000  0.95968000  1.0
  Ni  Ni20  1  0.75000000  0.50000000  0.87903000  1.0
  Ni  Ni21  1  0.25000000  0.00000000  0.87903000  1.0
  Ni  Ni22  1  0.25000000  0.50000000  0.87903000  1.0
  Ni  Ni23  1  0.75000000  0.00000000  0.87903000  1.0
  Ni  Ni24  1  0.25118000  0.25082000  0.11583000  1.0
  Ni  Ni25  1  0.74882000  0.74918000  0.11583000  1.0
  Ni  Ni26  1  0.74882000  0.25082000  0.11583000  1.0
  Ni  Ni27  1  0.25118000  0.74918000  0.11583000  1.0
  Ni  Ni28  1  0.76067000  0.00000000  0.03975000  1.0
  Ni  Ni29  1  0.27201000  0.50000000  0.04373000  1.0
  Ni  Ni30  1  0.23933000  0.00000000  0.03975000  1.0
  Ni  Ni31  1  0.72799000  0.50000000  0.04373000  1.0
  C  C32  1  0.50000000  0.00000000  0.20202000  1.0
  O  O33  1  0.50000000  0.00000000  0.24583000  1.0
