# generated using pymatgen
data_Nb8Al8Ni16CO
_symmetry_space_group_name_H-M   Pmm2
_cell_length_a   6.01786000
_cell_length_b   8.51054000
_cell_length_c   26.38290000
_cell_angle_alpha   90.00000000
_cell_angle_beta   90.00000000
_cell_angle_gamma   90.00000000
_symmetry_Int_Tables_number   25
_chemical_formula_structural   Nb8Al8Ni16CO
_chemical_formula_sum   'Nb8 Al8 Ni16 C1 O1'
_cell_volume   1351.20650908
_cell_formula_units_Z   1
loop_
 _symmetry_equiv_pos_site_id
 _symmetry_equiv_pos_as_xyz
  1  'x, y, z'
  2  '-x, -y, z'
  3  '-x, y, z'
  4  'x, -y, z'
loop_
 _atom_site_type_symbol
 _atom_site_label
 _atom_site_symmetry_multiplicity
 _atom_site_fract_x
 _atom_site_fract_y
 _atom_site_fract_z
 _atom_site_occupancy
  Nb  Nb0  2  0.00000000  0.25000000  0.87903000  1.0
  Nb  Nb1  2  0.00000000  0.25410000  0.04007000  1.0
  Nb  Nb2  1  0.50000000  0.00000000  0.12117000  1.0
  Nb  Nb3  1  0.50000000  0.00000000  0.95968000  1.0
  Nb  Nb4  1  0.50000000  0.50000000  0.12382000  1.0
  Nb  Nb5  1  0.50000000  0.50000000  0.95968000  1.0
  Al  Al6  2  0.50000000  0.24606000  0.03999000  1.0
  Al  Al7  2  0.50000000  0.25000000  0.87903000  1.0
  Al  Al8  1  0.00000000  0.00000000  0.12065000  1.0
  Al  Al9  1  0.00000000  0.00000000  0.95968000  1.0
  Al  Al10  1  0.00000000  0.50000000  0.11974000  1.0
  Al  Al11  1  0.00000000  0.50000000  0.95968000  1.0
  Ni  Ni12  4  0.25000000  0.25000000  0.95968000  1.0
  Ni  Ni13  4  0.25118000  0.25082000  0.11583000  1.0
  Ni  Ni14  2  0.23933000  0.00000000  0.03975000  1.0
  Ni  Ni15  2  0.25000000  0.00000000  0.87903000  1.0
  Ni  Ni16  2  0.25000000  0.50000000  0.87903000  1.0
  Ni  Ni17  2  0.27201000  0.50000000  0.04373000  1.0
  C  C18  1  0.50000000  0.00000000  0.20202000  1.0
  O  O19  1  0.50000000  0.00000000  0.24583000  1.0
