# generated using pymatgen
data_Li8Sb4Pt4C
_symmetry_space_group_name_H-M   'P 1'
_cell_length_a   6.40528000
_cell_length_b   6.40528000
_cell_length_c   24.80400000
_cell_angle_alpha   90.00000000
_cell_angle_beta   90.00000000
_cell_angle_gamma   90.00000000
_symmetry_Int_Tables_number   1
_chemical_formula_structural   Li8Sb4Pt4C
_chemical_formula_sum   'Li8 Sb4 Pt4 C1'
_cell_volume   1017.64888503
_cell_formula_units_Z   1
loop_
 _symmetry_equiv_pos_site_id
 _symmetry_equiv_pos_as_xyz
  1  'x, y, z'
loop_
 _atom_site_type_symbol
 _atom_site_label
 _atom_site_symmetry_multiplicity
 _atom_site_fract_x
 _atom_site_fract_y
 _atom_site_fract_z
 _atom_site_occupancy
  Li  Li0  1  0.75000000  0.75000000  0.96772000  1
  Li  Li1  1  0.73052000  0.26948000  0.10111000  1
  Li  Li2  1  0.26948000  0.73052000  0.10111000  1
  Li  Li3  1  0.25000000  0.25000000  0.96772000  1
  Li  Li4  1  0.50000000  0.00000000  0.90316000  1
  Li  Li5  1  0.00000000  0.00000000  0.03233000  1
  Li  Li6  1  0.00000000  0.50000000  0.90316000  1
  Li  Li7  1  0.50000000  0.50000000  0.02811000  1
  Sb  Sb8  1  0.72672500  0.72672500  0.10001000  1
  Sb  Sb9  1  0.27327500  0.27327500  0.10001000  1
  Sb  Sb10  1  0.75000000  0.25000000  0.96772000  1
  Sb  Sb11  1  0.25000000  0.75000000  0.96772000  1
  Pt  Pt12  1  0.50000000  0.00000000  0.03119000  1
  Pt  Pt13  1  0.00000000  0.00000000  0.90316000  1
  Pt  Pt14  1  0.00000000  0.50000000  0.03119000  1
  Pt  Pt15  1  0.50000000  0.50000000  0.90316000  1
  C  C16  1  0.50000000  0.50000000  0.11798000  1
