# generated using pymatgen
data_Ca32CO
_symmetry_space_group_name_H-M   P1
_cell_length_a   11.12370000
_cell_length_b   11.12370000
_cell_length_c   28.34280000
_cell_angle_alpha   90.00000000
_cell_angle_beta   90.00000000
_cell_angle_gamma   90.00000000
_symmetry_Int_Tables_number   1
_chemical_formula_structural   Ca32CO
_chemical_formula_sum   'Ca32 C1 O1'
_cell_volume   3507.04458866
_cell_formula_units_Z   1
loop_
 _symmetry_equiv_pos_site_id
 _symmetry_equiv_pos_as_xyz
  1  'x, y, z'
loop_
 _atom_site_type_symbol
 _atom_site_label
 _atom_site_symmetry_multiplicity
 _atom_site_fract_x
 _atom_site_fract_y
 _atom_site_fract_z
 _atom_site_occupancy
  Ca  Ca0  1  -0.00000000  0.75000000  0.95094000  1.0
  Ca  Ca1  1  -0.00000000  0.25000000  0.95094000  1.0
  Ca  Ca2  1  -0.00000000  0.50000000  0.85282000  1.0
  Ca  Ca3  1  0.00000000  0.00000000  0.85282000  1.0
  Ca  Ca4  1  0.00440000  0.24558000  0.14606000  1.0
  Ca  Ca5  1  0.00474000  0.75473000  0.14600000  1.0
  Ca  Ca6  1  0.24997000  0.00007000  0.13969000  1.0
  Ca  Ca7  1  0.25000000  0.00000000  0.95094000  1.0
  Ca  Ca8  1  0.25000000  0.25000000  0.85282000  1.0
  Ca  Ca9  1  0.25000000  0.50000000  0.95094000  1.0
  Ca  Ca10  1  0.25000000  0.75000000  0.85282000  1.0
  Ca  Ca11  1  0.25004000  0.74639000  0.04749000  1.0
  Ca  Ca12  1  0.25009000  0.25374000  0.04751000  1.0
  Ca  Ca13  1  0.25009000  0.50006000  0.14567000  1.0
  Ca  Ca14  1  0.49542000  0.24530000  0.14601000  1.0
  Ca  Ca15  1  0.49579000  0.75426000  0.14602000  1.0
  Ca  Ca16  1  0.50000000  0.00000000  0.85282000  1.0
  Ca  Ca17  1  0.50000000  0.25000000  0.95094000  1.0
  Ca  Ca18  1  0.50000000  0.50000000  0.85282000  1.0
  Ca  Ca19  1  0.50000000  0.75000000  0.95094000  1.0
  Ca  Ca20  1  0.50231000  0.49985000  0.04996000  1.0
  Ca  Ca21  1  0.50364000  0.99995000  0.04745000  1.0
  Ca  Ca22  1  0.74990000  0.25217000  0.04991000  1.0
  Ca  Ca23  1  0.75000000  0.00000000  0.95094000  1.0
  Ca  Ca24  1  0.75000000  0.25000000  0.85282000  1.0
  Ca  Ca25  1  0.75000000  0.50000000  0.95094000  1.0
  Ca  Ca26  1  0.75000000  0.75000000  0.85282000  1.0
  Ca  Ca27  1  0.75005000  0.50000000  0.14605000  1.0
  Ca  Ca28  1  0.75007000  0.99998000  0.14573000  1.0
  Ca  Ca29  1  0.75026000  0.74765000  0.04987000  1.0
  Ca  Ca30  1  0.99615000  0.00001000  0.04750000  1.0
  Ca  Ca31  1  0.99792000  0.50015000  0.05002000  1.0
  C  C32  1  0.24826000  0.00001000  0.22894000  1.0
  O  O33  1  0.24858000  0.00003000  0.26964000  1.0
