# generated using pymatgen
data_Zr8In8Ni16CO
_symmetry_space_group_name_H-M   'P 1'
_cell_length_a   6.34847000
_cell_length_b   8.97809000
_cell_length_c   26.73360000
_cell_angle_alpha   90.00000000
_cell_angle_beta   90.00000000
_cell_angle_gamma   90.00000000
_symmetry_Int_Tables_number   1
_chemical_formula_structural   Zr8In8Ni16CO
_chemical_formula_sum   'Zr8 In8 Ni16 C1 O1'
_cell_volume   1523.73860883
_cell_formula_units_Z   1
loop_
 _symmetry_equiv_pos_site_id
 _symmetry_equiv_pos_as_xyz
  1  'x, y, z'
loop_
 _atom_site_type_symbol
 _atom_site_label
 _atom_site_symmetry_multiplicity
 _atom_site_fract_x
 _atom_site_fract_y
 _atom_site_fract_z
 _atom_site_occupancy
  Zr  Zr0  1  0.00000000  0.75001000  0.87406000  1.0
  Zr  Zr1  1  0.50000000  0.00000000  0.95802000  1.0
  Zr  Zr2  1  0.50000000  0.50000000  0.95802000  1.0
  Zr  Zr3  1  0.00000000  0.24999000  0.87406000  1.0
  Zr  Zr4  1  0.00000000  0.25277000  0.04325000  1.0
  Zr  Zr5  1  0.50000000  0.50000000  0.12666000  1.0
  Zr  Zr6  1  0.50000000  0.00000000  0.12524000  1.0
  Zr  Zr7  1  0.00000000  0.74723000  0.04325000  1.0
  In  In8  1  0.00000000  0.50000000  0.95802000  1.0
  In  In9  1  0.50000000  0.75001000  0.87406000  1.0
  In  In10  1  0.00000000  0.00000000  0.95802000  1.0
  In  In11  1  0.50000000  0.24999000  0.87406000  1.0
  In  In12  1  0.00000000  0.00000000  0.13262000  1.0
  In  In13  1  0.50000000  0.24650000  0.04080000  1.0
  In  In14  1  0.00000000  0.50000000  0.13242000  1.0
  In  In15  1  0.50000000  0.75350000  0.04080000  1.0
  Ni  Ni16  1  0.25000000  0.75001000  0.95802000  1.0
  Ni  Ni17  1  0.75000000  0.24999000  0.95802000  1.0
  Ni  Ni18  1  0.75000000  0.75001000  0.95802000  1.0
  Ni  Ni19  1  0.25000000  0.24999000  0.95802000  1.0
  Ni  Ni20  1  0.75000000  0.50000000  0.87406000  1.0
  Ni  Ni21  1  0.25000000  0.00000000  0.87406000  1.0
  Ni  Ni22  1  0.25000000  0.50000000  0.87406000  1.0
  Ni  Ni23  1  0.75000000  0.00000000  0.87406000  1.0
  Ni  Ni24  1  0.24997000  0.25138000  0.12106000  1.0
  Ni  Ni25  1  0.75003000  0.74862000  0.12106000  1.0
  Ni  Ni26  1  0.75003000  0.25138000  0.12106000  1.0
  Ni  Ni27  1  0.24997000  0.74862000  0.12106000  1.0
  Ni  Ni28  1  0.75919000  0.00000000  0.04311000  1.0
  Ni  Ni29  1  0.26197000  0.50000000  0.04552000  1.0
  Ni  Ni30  1  0.24081000  0.00000000  0.04311000  1.0
  Ni  Ni31  1  0.73803000  0.50000000  0.04552000  1.0
  C  C32  1  0.50000000  0.00000000  0.21191000  1.0
  O  O33  1  0.50000000  0.00000000  0.25490000  1.0
