# generated using pymatgen
data_ScInPd2
_symmetry_space_group_name_H-M   Pmm2
_cell_length_a   4.69147500
_cell_length_b   6.63475000
_cell_length_c   27.03720000
_cell_angle_alpha   90.00000000
_cell_angle_beta   90.00000000
_cell_angle_gamma   90.00000000
_symmetry_Int_Tables_number   25
_chemical_formula_structural   ScInPd2
_chemical_formula_sum   'Sc4 In4 Pd8'
_cell_volume   841.58053703
_cell_formula_units_Z   4
loop_
 _symmetry_equiv_pos_site_id
 _symmetry_equiv_pos_as_xyz
  1  'x, y, z'
  2  '-x, -y, z'
  3  '-x, y, z'
  4  'x, -y, z'
loop_
 _atom_site_type_symbol
 _atom_site_label
 _atom_site_symmetry_multiplicity
 _atom_site_fract_x
 _atom_site_fract_y
 _atom_site_fract_z
 _atom_site_occupancy
  Sc  Sc0  1  0.00000000  0.00000000  0.13014000  1.0
  Sc  Sc1  1  0.00000000  0.00000000  0.95529000  1.0
  Sc  Sc2  1  0.50000000  0.50000000  0.04338000  1.0
  Sc  Sc3  1  0.50000000  0.50000000  0.87398000  1.0
  In  In4  1  0.00000000  0.50000000  0.13014000  1.0
  In  In5  1  0.00000000  0.50000000  0.95644000  1.0
  In  In6  1  0.50000000  0.00000000  0.04338000  1.0
  In  In7  1  0.50000000  0.00000000  0.86385500  1.0
  Pd  Pd8  2  0.00000000  0.24287000  0.87398000  1.0
  Pd  Pd9  2  0.00000000  0.25000000  0.04338000  1.0
  Pd  Pd10  2  0.50000000  0.24762000  0.95592000  1.0
  Pd  Pd11  2  0.50000000  0.25000000  0.13014000  1.0
