# generated using pymatgen
data_In4Ni12CO
_symmetry_space_group_name_H-M   Pmm2
_cell_length_a   5.34265000
_cell_length_b   7.55564000
_cell_length_c   24.00700000
_cell_angle_alpha   90.00000000
_cell_angle_beta   90.00000000
_cell_angle_gamma   90.00000000
_symmetry_Int_Tables_number   25
_chemical_formula_structural   In4Ni12CO
_chemical_formula_sum   'In4 Ni12 C1 O1'
_cell_volume   969.09393108
_cell_formula_units_Z   1
loop_
 _symmetry_equiv_pos_site_id
 _symmetry_equiv_pos_as_xyz
  1  'x, y, z'
  2  '-x, -y, z'
  3  '-x, y, z'
  4  'x, -y, z'
loop_
 _atom_site_type_symbol
 _atom_site_label
 _atom_site_symmetry_multiplicity
 _atom_site_fract_x
 _atom_site_fract_y
 _atom_site_fract_z
 _atom_site_occupancy
  In  In0  1  0.00000000  0.00000000  0.02782000  1.0
  In  In1  1  0.00000000  0.50000000  0.02782000  1.0
  In  In2  1  0.50000000  0.00000000  0.91129000  1.0
  In  In3  1  0.50000000  0.50000000  0.91500000  1.0
  Ni  Ni4  4  0.24999000  0.24999000  0.08345000  1.0
  Ni  Ni5  4  0.25886000  0.24747000  0.97415000  1.0
  Ni  Ni6  1  0.00000000  0.00000000  0.92135000  1.0
  Ni  Ni7  1  0.00000000  0.50000000  0.91419000  1.0
  Ni  Ni8  1  0.50000000  0.00000000  0.02782000  1.0
  Ni  Ni9  1  0.50000000  0.50000000  0.02782000  1.0
  C  C10  1  0.00000000  0.50000000  0.84054000  1.0
  O  O11  1  0.00000000  0.50000000  0.79228000  1.0
