data_image0
_chemical_formula_structural       Sc8In8Ag16CO
_chemical_formula_sum              "Sc8 In8 Ag16 C1 O1"
_cell_length_a       6.85473
_cell_length_b       9.69405
_cell_length_c       27.2705
_cell_angle_alpha    90
_cell_angle_beta     90
_cell_angle_gamma    90

_space_group_name_H-M_alt    "P 1"
_space_group_IT_number       1

loop_
  _space_group_symop_operation_xyz
  'x, y, z'

loop_
  _atom_site_type_symbol
  _atom_site_label
  _atom_site_symmetry_multiplicity
  _atom_site_fract_x
  _atom_site_fract_y
  _atom_site_fract_z
  _atom_site_occupancy
  Sc  Sc1       1.0  0.00000  0.00000  0.86670  1.0000
  Sc  Sc2       1.0  0.50000  0.25000  0.95557  1.0000
  Sc  Sc3       1.0  0.50000  0.75000  0.95557  1.0000
  Sc  Sc4       1.0  0.00000  0.50000  0.86670  1.0000
  Sc  Sc5       1.0  1.00000  0.50289  0.04887  1.0000
  Sc  Sc6       1.0  0.50000  0.75000  0.13027  1.0000
  Sc  Sc7       1.0  0.50000  0.25000  0.12829  1.0000
  Sc  Sc8       1.0  0.00000  0.99711  0.04887  1.0000
  In  In1       1.0  0.00000  0.75000  0.95557  1.0000
  In  In2       1.0  0.50000  0.00000  0.86670  1.0000
  In  In3       1.0  0.00000  0.25000  0.95557  1.0000
  In  In4       1.0  0.50000  0.50000  0.86670  1.0000
  In  In5       1.0  1.00000  0.25000  0.13687  1.0000
  In  In6       1.0  0.50000  0.49791  0.04474  1.0000
  In  In7       1.0  1.00000  0.75000  0.13599  1.0000
  In  In8       1.0  0.50000  0.00209  0.04474  1.0000
  Ag  Ag1       1.0  0.25000  0.00000  0.95557  1.0000
  Ag  Ag2       1.0  0.75000  0.50000  0.95557  1.0000
  Ag  Ag3       1.0  0.75000  0.00000  0.95557  1.0000
  Ag  Ag4       1.0  0.25000  0.50000  0.95557  1.0000
  Ag  Ag5       1.0  0.75000  0.75000  0.86670  1.0000
  Ag  Ag6       1.0  0.25000  0.25000  0.86670  1.0000
  Ag  Ag7       1.0  0.25000  0.75000  0.86670  1.0000
  Ag  Ag8       1.0  0.75000  0.25000  0.86670  1.0000
  Ag  Ag9       1.0  0.25477  0.50065  0.13895  1.0000
  Ag  Ag10      1.0  0.74523  0.99935  0.13895  1.0000
  Ag  Ag11      1.0  0.74523  0.50065  0.13895  1.0000
  Ag  Ag12      1.0  0.25477  0.99935  0.13895  1.0000
  Ag  Ag13      1.0  0.75972  0.25000  0.04341  1.0000
  Ag  Ag14      1.0  0.25083  0.75000  0.04383  1.0000
  Ag  Ag15      1.0  0.24028  0.25000  0.04341  1.0000
  Ag  Ag16      1.0  0.74917  0.75000  0.04383  1.0000
  C   C1        1.0  0.50000  0.25000  0.21139  1.0000
  O   O1        1.0  0.50000  0.25000  0.25358  1.0000
