# generated using pymatgen
data_Sc8In8Ag16CO
_symmetry_space_group_name_H-M   Pmm2
_cell_length_a   6.85473000
_cell_length_b   9.69405000
_cell_length_c   27.27050000
_cell_angle_alpha   90.00000000
_cell_angle_beta   90.00000000
_cell_angle_gamma   90.00000000
_symmetry_Int_Tables_number   25
_chemical_formula_structural   Sc8In8Ag16CO
_chemical_formula_sum   'Sc8 In8 Ag16 C1 O1'
_cell_volume   1812.12732542
_cell_formula_units_Z   1
loop_
 _symmetry_equiv_pos_site_id
 _symmetry_equiv_pos_as_xyz
  1  'x, y, z'
  2  '-x, -y, z'
  3  '-x, y, z'
  4  'x, -y, z'
loop_
 _atom_site_type_symbol
 _atom_site_label
 _atom_site_symmetry_multiplicity
 _atom_site_fract_x
 _atom_site_fract_y
 _atom_site_fract_z
 _atom_site_occupancy
  Sc  Sc0  2  0.00000000  0.25000000  0.86670000  1.0
  Sc  Sc1  2  0.00000000  0.25289000  0.04887000  1.0
  Sc  Sc2  1  0.50000000  0.00000000  0.12829000  1.0
  Sc  Sc3  1  0.50000000  0.00000000  0.95557000  1.0
  Sc  Sc4  1  0.50000000  0.50000000  0.13027000  1.0
  Sc  Sc5  1  0.50000000  0.50000000  0.95557000  1.0
  In  In6  2  0.50000000  0.24791000  0.04474000  1.0
  In  In7  2  0.50000000  0.25000000  0.86670000  1.0
  In  In8  1  0.00000000  0.00000000  0.13687000  1.0
  In  In9  1  0.00000000  0.00000000  0.95557000  1.0
  In  In10  1  0.00000000  0.50000000  0.13599000  1.0
  In  In11  1  0.00000000  0.50000000  0.95557000  1.0
  Ag  Ag12  4  0.25000000  0.25000000  0.95557000  1.0
  Ag  Ag13  4  0.25477000  0.25065000  0.13895000  1.0
  Ag  Ag14  2  0.24028000  0.00000000  0.04341000  1.0
  Ag  Ag15  2  0.25000000  0.00000000  0.86670000  1.0
  Ag  Ag16  2  0.25000000  0.50000000  0.86670000  1.0
  Ag  Ag17  2  0.25083000  0.50000000  0.04383000  1.0
  C  C18  1  0.50000000  0.00000000  0.21139000  1.0
  O  O19  1  0.50000000  0.00000000  0.25358000  1.0
