# generated using pymatgen
data_LiAg2Sn
_symmetry_space_group_name_H-M   'P 1'
_cell_length_a   4.78761000
_cell_length_b   6.77071000
_cell_length_c   27.18140000
_cell_angle_alpha   90.00000000
_cell_angle_beta   90.00000000
_cell_angle_gamma   90.00000000
_symmetry_Int_Tables_number   1
_chemical_formula_structural   LiAg2Sn
_chemical_formula_sum   'Li4 Ag8 Sn4'
_cell_volume   881.09918551
_cell_formula_units_Z   4
loop_
 _symmetry_equiv_pos_site_id
 _symmetry_equiv_pos_as_xyz
  1  'x, y, z'
loop_
 _atom_site_type_symbol
 _atom_site_label
 _atom_site_symmetry_multiplicity
 _atom_site_fract_x
 _atom_site_fract_y
 _atom_site_fract_z
 _atom_site_occupancy
  Li  Li0  1  0.00000000  0.00000000  0.13210000  1.0
  Li  Li1  1  0.50000000  0.50000000  0.04403000  1.0
  Li  Li2  1  0.00000000  0.00000000  0.95889000  1.0
  Li  Li3  1  0.50000000  0.50000000  0.86936000  1.0
  Ag  Ag4  1  0.00000000  0.75000000  0.04403000  1.0
  Ag  Ag5  1  0.00000000  0.25000000  0.04403000  1.0
  Ag  Ag6  1  0.50000000  0.25000000  0.13210000  1.0
  Ag  Ag7  1  0.50000000  0.75000000  0.13210000  1.0
  Ag  Ag8  1  0.00000000  0.76132500  0.87261000  1.0
  Ag  Ag9  1  0.00000000  0.23867500  0.87261000  1.0
  Ag  Ag10  1  0.50000000  0.23024500  0.95044000  1.0
  Ag  Ag11  1  0.50000000  0.76975500  0.95044000  1.0
  Sn  Sn12  1  0.50000000  0.00000000  0.04403000  1.0
  Sn  Sn13  1  0.00000000  0.50000000  0.13210000  1.0
  Sn  Sn14  1  0.50000000  0.00000000  0.85597500  1.0
  Sn  Sn15  1  0.00000000  0.50000000  0.95598000  1.0
