# generated using pymatgen
data_Y4Sc4Ga4Pd4CO
_symmetry_space_group_name_H-M   Pm
_cell_length_a   6.06401000
_cell_length_b   9.48206000
_cell_length_c   24.30750000
_cell_angle_alpha   90.00000000
_cell_angle_beta   90.00000000
_cell_angle_gamma   90.00000000
_symmetry_Int_Tables_number   6
_chemical_formula_structural   Y4Sc4Ga4Pd4CO
_chemical_formula_sum   'Y4 Sc4 Ga4 Pd4 C1 O1'
_cell_volume   1397.66439665
_cell_formula_units_Z   1
loop_
 _symmetry_equiv_pos_site_id
 _symmetry_equiv_pos_as_xyz
  1  'x, y, z'
  2  'x, -y, z'
loop_
 _atom_site_type_symbol
 _atom_site_label
 _atom_site_symmetry_multiplicity
 _atom_site_fract_x
 _atom_site_fract_y
 _atom_site_fract_z
 _atom_site_occupancy
  Y  Y0  1  0.54901000  0.50000000  0.08953000  1.0
  Y  Y1  1  0.58029000  0.00000000  0.09188000  1.0
  Y  Y2  1  0.83957000  0.00000000  0.97046000  1.0
  Y  Y3  1  0.83957000  0.50000000  0.97046000  1.0
  Sc  Sc4  2  0.15609000  0.25212000  0.02363000  1.0
  Sc  Sc5  2  0.50936000  0.24999000  0.91139000  1.0
  Ga  Ga6  1  0.05841000  0.50000000  0.08445000  1.0
  Ga  Ga7  1  0.10347000  0.00000000  0.07998000  1.0
  Ga  Ga8  1  0.33957000  0.00000000  0.97046000  1.0
  Ga  Ga9  1  0.33957000  0.50000000  0.97046000  1.0
  Pd  Pd10  2  0.00936000  0.24999000  0.91139000  1.0
  Pd  Pd11  2  0.60626000  0.25655000  0.01760000  1.0
  C  C12  1  0.34425000  0.00000000  0.17149000  1.0
  O  O13  1  0.24714000  0.00000000  0.21286000  1.0
