# generated using pymatgen
data_TiGaCo2
_symmetry_space_group_name_H-M   Pmm2
_cell_length_a   4.15787000
_cell_length_b   5.88011000
_cell_length_c   26.23680000
_cell_angle_alpha   90.00000000
_cell_angle_beta   90.00000000
_cell_angle_gamma   90.00000000
_symmetry_Int_Tables_number   25
_chemical_formula_structural   TiGaCo2
_chemical_formula_sum   'Ti4 Ga4 Co8'
_cell_volume   641.45651707
_cell_formula_units_Z   4
loop_
 _symmetry_equiv_pos_site_id
 _symmetry_equiv_pos_as_xyz
  1  'x, y, z'
  2  '-x, -y, z'
  3  '-x, y, z'
  4  'x, -y, z'
loop_
 _atom_site_type_symbol
 _atom_site_label
 _atom_site_symmetry_multiplicity
 _atom_site_fract_x
 _atom_site_fract_y
 _atom_site_fract_z
 _atom_site_occupancy
  Ti  Ti0  1  0.00000000  0.00000000  0.11886000  1.0
  Ti  Ti1  1  0.00000000  0.00000000  0.95913000  1.0
  Ti  Ti2  1  0.50000000  0.50000000  0.03962000  1.0
  Ti  Ti3  1  0.50000000  0.50000000  0.88160000  1.0
  Ga  Ga4  1  0.00000000  0.50000000  0.11886000  1.0
  Ga  Ga5  1  0.00000000  0.50000000  0.95954500  1.0
  Ga  Ga6  1  0.50000000  0.00000000  0.03962000  1.0
  Ga  Ga7  1  0.50000000  0.00000000  0.87947000  1.0
  Co  Co8  2  0.00000000  0.24574500  0.88336000  1.0
  Co  Co9  2  0.00000000  0.25000000  0.03962000  1.0
  Co  Co10  2  0.50000000  0.25000000  0.11886000  1.0
  Co  Co11  2  0.50000000  0.25178000  0.96022000  1.0
