# generated using pymatgen
data_Li16Sn8Au8CO
_symmetry_space_group_name_H-M   P1
_cell_length_a   6.60404000
_cell_length_b   9.33952000
_cell_length_c   27.00460000
_cell_angle_alpha   90.00000000
_cell_angle_beta   90.00000000
_cell_angle_gamma   90.00000000
_symmetry_Int_Tables_number   1
_chemical_formula_structural   Li16Sn8Au8CO
_chemical_formula_sum   'Li16 Sn8 Au8 C1 O1'
_cell_volume   1665.60494023
_cell_formula_units_Z   1
loop_
 _symmetry_equiv_pos_site_id
 _symmetry_equiv_pos_as_xyz
  1  'x, y, z'
loop_
 _atom_site_type_symbol
 _atom_site_label
 _atom_site_symmetry_multiplicity
 _atom_site_fract_x
 _atom_site_fract_y
 _atom_site_fract_z
 _atom_site_occupancy
  Li  Li0  1  0.00000000  0.25000000  0.95677000  1.0
  Li  Li1  1  0.00000000  0.75000000  0.95677000  1.0
  Li  Li2  1  0.01934000  0.24937000  0.12754000  1.0
  Li  Li3  1  0.01940000  0.75065000  0.12751000  1.0
  Li  Li4  1  0.25000000  0.25000000  0.87031000  1.0
  Li  Li5  1  0.25000000  0.75000000  0.87031000  1.0
  Li  Li6  1  0.26962000  0.24933000  0.04751000  1.0
  Li  Li7  1  0.26963000  0.75067000  0.04751000  1.0
  Li  Li8  1  0.50000000  0.00000000  0.87031000  1.0
  Li  Li9  1  0.50000000  0.50000000  0.87031000  1.0
  Li  Li10  1  0.50771000  0.50000000  0.03672000  1.0
  Li  Li11  1  0.51464000  0.00000000  0.03853000  1.0
  Li  Li12  1  0.71844000  0.50001000  0.12513000  1.0
  Li  Li13  1  0.72767000  0.00001000  0.13026000  1.0
  Li  Li14  1  0.75000000  0.00000000  0.95677000  1.0
  Li  Li15  1  0.75000000  0.50000000  0.95677000  1.0
  Sn  Sn16  1  0.00000000  0.00000000  0.87031000  1.0
  Sn  Sn17  1  0.00000000  0.50000000  0.87031000  1.0
  Sn  Sn18  1  0.49656000  0.74898000  0.14338000  1.0
  Sn  Sn19  1  0.49659000  0.25103000  0.14338000  1.0
  Sn  Sn20  1  0.50000000  0.25000000  0.95677000  1.0
  Sn  Sn21  1  0.50000000  0.75000000  0.95677000  1.0
  Sn  Sn22  1  0.99140000  0.49994000  0.04294000  1.0
  Sn  Sn23  1  0.99199000  0.00001000  0.04398000  1.0
  Au  Au24  1  0.25000000  0.00000000  0.95677000  1.0
  Au  Au25  1  0.25000000  0.50000000  0.95677000  1.0
  Au  Au26  1  0.27545000  0.50002000  0.11827000  1.0
  Au  Au27  1  0.28666000  0.99998000  0.11851000  1.0
  Au  Au28  1  0.73138000  0.74964000  0.05136000  1.0
  Au  Au29  1  0.73147000  0.25029000  0.05136000  1.0
  Au  Au30  1  0.75000000  0.25000000  0.87031000  1.0
  Au  Au31  1  0.75000000  0.75000000  0.87031000  1.0
  C  C32  1  0.80559000  0.00002000  0.20461000  1.0
  O  O33  1  0.82564000  0.00002000  0.24683000  1.0
