# generated using pymatgen
data_Sc8Ir24CO
_symmetry_space_group_name_H-M   'P 1'
_cell_length_a   7.92728000
_cell_length_b   7.92728000
_cell_length_c   25.94550000
_cell_angle_alpha   90.00000000
_cell_angle_beta   90.00000000
_cell_angle_gamma   90.00000000
_symmetry_Int_Tables_number   1
_chemical_formula_structural   Sc8Ir24CO
_chemical_formula_sum   'Sc8 Ir24 C1 O1'
_cell_volume   1630.46109679
_cell_formula_units_Z   1
loop_
 _symmetry_equiv_pos_site_id
 _symmetry_equiv_pos_as_xyz
  1  'x, y, z'
loop_
 _atom_site_type_symbol
 _atom_site_label
 _atom_site_symmetry_multiplicity
 _atom_site_fract_x
 _atom_site_fract_y
 _atom_site_fract_z
 _atom_site_occupancy
  Sc  Sc0  1  0.75000000  0.00000000  0.88542000  1.0
  Sc  Sc1  1  0.75000000  0.00000000  0.03819000  1.0
  Sc  Sc2  1  0.75000000  0.50000000  0.88542000  1.0
  Sc  Sc3  1  0.75000000  0.50000000  0.03819000  1.0
  Sc  Sc4  1  0.25000000  0.00000000  0.88542000  1.0
  Sc  Sc5  1  0.25000000  0.00000000  0.03819000  1.0
  Sc  Sc6  1  0.25000000  0.50000000  0.88542000  1.0
  Sc  Sc7  1  0.25000000  0.50000000  0.03819000  1.0
  Ir  Ir8  1  0.75000000  0.25000000  0.96181000  1.0
  Ir  Ir9  1  0.00000000  0.00000000  0.96181000  1.0
  Ir  Ir10  1  0.00000000  0.25000000  0.88542000  1.0
  Ir  Ir11  1  0.75000000  0.25000000  0.11458000  1.0
  Ir  Ir12  1  0.00000000  0.00000000  0.11458000  1.0
  Ir  Ir13  1  0.00000000  0.25000000  0.03819000  1.0
  Ir  Ir14  1  0.75000000  0.75000000  0.96181000  1.0
  Ir  Ir15  1  0.00000000  0.50000000  0.96181000  1.0
  Ir  Ir16  1  0.00000000  0.75000000  0.88542000  1.0
  Ir  Ir17  1  0.75000000  0.75000000  0.11458000  1.0
  Ir  Ir18  1  0.00000000  0.50000000  0.11458000  1.0
  Ir  Ir19  1  0.00000000  0.75000000  0.03819000  1.0
  Ir  Ir20  1  0.25000000  0.25000000  0.96181000  1.0
  Ir  Ir21  1  0.50000000  0.00000000  0.96181000  1.0
  Ir  Ir22  1  0.50000000  0.25000000  0.88542000  1.0
  Ir  Ir23  1  0.25000000  0.25000000  0.11458000  1.0
  Ir  Ir24  1  0.50000000  0.00000000  0.11458000  1.0
  Ir  Ir25  1  0.50000000  0.25000000  0.03819000  1.0
  Ir  Ir26  1  0.25000000  0.75000000  0.96181000  1.0
  Ir  Ir27  1  0.50000000  0.50000000  0.96181000  1.0
  Ir  Ir28  1  0.50000000  0.75000000  0.88542000  1.0
  Ir  Ir29  1  0.25000000  0.75000000  0.11458000  1.0
  Ir  Ir30  1  0.50000000  0.50000000  0.11458000  1.0
  Ir  Ir31  1  0.50000000  0.75000000  0.03819000  1.0
  C  C32  1  0.00000000  0.00000000  0.18781000  1.0
  O  O33  1  0.00000000  0.00000000  0.23213000  1.0
