# generated using pymatgen
data_Li8Y8Sn8Pb8CO
_symmetry_space_group_name_H-M   Pmm2
_cell_length_a   9.36828000
_cell_length_b   9.64462000
_cell_length_c   26.65380000
_cell_angle_alpha   90.00000000
_cell_angle_beta   90.00000000
_cell_angle_gamma   90.00000000
_symmetry_Int_Tables_number   25
_chemical_formula_structural   Li8Y8Sn8Pb8CO
_chemical_formula_sum   'Li8 Y8 Sn8 Pb8 C1 O1'
_cell_volume   2408.26413572
_cell_formula_units_Z   1
loop_
 _symmetry_equiv_pos_site_id
 _symmetry_equiv_pos_as_xyz
  1  'x, y, z'
  2  '-x, -y, z'
  3  '-x, y, z'
  4  'x, -y, z'
loop_
 _atom_site_type_symbol
 _atom_site_label
 _atom_site_symmetry_multiplicity
 _atom_site_fract_x
 _atom_site_fract_y
 _atom_site_fract_z
 _atom_site_occupancy
  Li  Li0  4  0.25000000  0.25000000  0.95839000  1.0
  Li  Li1  4  0.25024000  0.25028000  0.11549000  1.0
  Y  Y2  1  0.00000000  0.00000000  0.12119000  1.0
  Y  Y3  1  0.00000000  0.00000000  0.95839000  1.0
  Y  Y4  1  0.00000000  0.50000000  0.12278000  1.0
  Y  Y5  1  0.00000000  0.50000000  0.95839000  1.0
  Y  Y6  1  0.50000000  0.00000000  0.12236000  1.0
  Y  Y7  1  0.50000000  0.00000000  0.95839000  1.0
  Y  Y8  1  0.50000000  0.50000000  0.12301000  1.0
  Y  Y9  1  0.50000000  0.50000000  0.95839000  1.0
  Sn  Sn10  2  0.25000000  0.00000000  0.87518000  1.0
  Sn  Sn11  2  0.25000000  0.50000000  0.87518000  1.0
  Sn  Sn12  2  0.25025000  0.50000000  0.04217000  1.0
  Sn  Sn13  2  0.25089000  0.00000000  0.04181000  1.0
  Pb  Pb14  2  0.00000000  0.25000000  0.87518000  1.0
  Pb  Pb15  2  0.00000000  0.25077000  0.04136000  1.0
  Pb  Pb16  2  0.50000000  0.25000000  0.87518000  1.0
  Pb  Pb17  2  0.50000000  0.25060000  0.04128000  1.0
  C  C18  1  0.00000000  0.00000000  0.21204000  1.0
  O  O19  1  0.00000000  0.00000000  0.25547000  1.0
