# generated using pymatgen
data_Li8Mg8In8Cu8C
_symmetry_space_group_name_H-M   'P 1'
_cell_length_a   9.10482000
_cell_length_b   6.43808000
_cell_length_c   26.82860000
_cell_angle_alpha   90.00000000
_cell_angle_beta   90.00000000
_cell_angle_gamma   90.00000000
_symmetry_Int_Tables_number   1
_chemical_formula_structural   Li8Mg8In8Cu8C
_chemical_formula_sum   'Li8 Mg8 In8 Cu8 C1'
_cell_volume   1572.62705803
_cell_formula_units_Z   1
loop_
 _symmetry_equiv_pos_site_id
 _symmetry_equiv_pos_as_xyz
  1  'x, y, z'
loop_
 _atom_site_type_symbol
 _atom_site_label
 _atom_site_symmetry_multiplicity
 _atom_site_fract_x
 _atom_site_fract_y
 _atom_site_fract_z
 _atom_site_occupancy
  Li  Li0  1  0.25000000  0.00000000  0.04242000  1.0
  Li  Li1  1  0.75000000  0.00000000  0.04242000  1.0
  Li  Li2  1  0.50000000  0.50000000  0.12726000  1.0
  Li  Li3  1  0.00000000  0.50000000  0.12726000  1.0
  Li  Li4  1  0.77273000  0.02946000  0.82382000  1.0
  Li  Li5  1  0.22727000  0.02946000  0.82382000  1.0
  Li  Li6  1  0.00000000  0.50218000  0.95505000  1.0
  Li  Li7  1  0.50000000  0.48903000  0.95182000  1.0
  Mg  Mg8  1  0.00000000  0.75000000  0.04242000  1.0
  Mg  Mg9  1  0.50000000  0.75000000  0.04242000  1.0
  Mg  Mg10  1  0.25000000  0.25000000  0.12726000  1.0
  Mg  Mg11  1  0.75000000  0.25000000  0.12726000  1.0
  Mg  Mg12  1  0.50000000  0.76289000  0.86826000  1.0
  Mg  Mg13  1  0.00000000  0.73665000  0.86735000  1.0
  Mg  Mg14  1  0.74934000  0.23101000  0.95247000  1.0
  Mg  Mg15  1  0.25066000  0.23101000  0.95247000  1.0
  In  In16  1  0.00000000  0.25000000  0.04242000  1.0
  In  In17  1  0.50000000  0.25000000  0.04242000  1.0
  In  In18  1  0.25000000  0.75000000  0.12726000  1.0
  In  In19  1  0.75000000  0.75000000  0.12726000  1.0
  In  In20  1  0.50000000  0.23440000  0.86126000  1.0
  In  In21  1  0.00000000  0.28424000  0.86549000  1.0
  In  In22  1  0.74686000  0.75491000  0.95389000  1.0
  In  In23  1  0.25314000  0.75491000  0.95389000  1.0
  Cu  Cu24  1  0.00000000  0.00000000  0.12726000  1.0
  Cu  Cu25  1  0.50000000  0.00000000  0.12726000  1.0
  Cu  Cu26  1  0.75000000  0.50000000  0.04242000  1.0
  Cu  Cu27  1  0.25000000  0.50000000  0.04242000  1.0
  Cu  Cu28  1  0.50000000  0.00205000  0.95918000  1.0
  Cu  Cu29  1  0.00000000  0.99113000  0.95786000  1.0
  Cu  Cu30  1  0.26545000  0.49108000  0.87644000  1.0
  Cu  Cu31  1  0.73455000  0.49108000  0.87644000  1.0
  C  C32  1  0.00000000  0.00457000  0.82561000  1.0
