# generated using pymatgen
data_Li8Mg8In8Cu8C
_symmetry_space_group_name_H-M   Pm
_cell_length_a   6.43808000
_cell_length_b   9.10482000
_cell_length_c   26.82860000
_cell_angle_alpha   90.00000000
_cell_angle_beta   90.00000000
_cell_angle_gamma   90.00000000
_symmetry_Int_Tables_number   6
_chemical_formula_structural   Li8Mg8In8Cu8C
_chemical_formula_sum   'Li8 Mg8 In8 Cu8 C1'
_cell_volume   1572.62705803
_cell_formula_units_Z   1
loop_
 _symmetry_equiv_pos_site_id
 _symmetry_equiv_pos_as_xyz
  1  'x, y, z'
  2  'x, -y, z'
loop_
 _atom_site_type_symbol
 _atom_site_label
 _atom_site_symmetry_multiplicity
 _atom_site_fract_x
 _atom_site_fract_y
 _atom_site_fract_z
 _atom_site_occupancy
  Li  Li0  2  0.00000000  0.25000000  0.95758000  1.0
  Li  Li1  2  0.02946000  0.22727000  0.17618000  1.0
  Li  Li2  1  0.48903000  0.50000000  0.04818000  1.0
  Li  Li3  1  0.50000000  0.00000000  0.87274000  1.0
  Li  Li4  1  0.50000000  0.50000000  0.87274000  1.0
  Li  Li5  1  0.50218000  0.00000000  0.04495000  1.0
  Mg  Mg6  2  0.23101000  0.25066000  0.04753000  1.0
  Mg  Mg7  2  0.25000000  0.25000000  0.87274000  1.0
  Mg  Mg8  1  0.73665000  0.00000000  0.13265000  1.0
  Mg  Mg9  1  0.75000000  0.00000000  0.95758000  1.0
  Mg  Mg10  1  0.75000000  0.50000000  0.95758000  1.0
  Mg  Mg11  1  0.76289000  0.50000000  0.13174000  1.0
  In  In12  2  0.75000000  0.25000000  0.87274000  1.0
  In  In13  2  0.75491000  0.25314000  0.04611000  1.0
  In  In14  1  0.23440000  0.50000000  0.13874000  1.0
  In  In15  1  0.25000000  0.00000000  0.95758000  1.0
  In  In16  1  0.25000000  0.50000000  0.95758000  1.0
  In  In17  1  0.28424000  0.00000000  0.13451000  1.0
  Cu  Cu18  2  0.49108000  0.26545000  0.12356000  1.0
  Cu  Cu19  2  0.50000000  0.25000000  0.95758000  1.0
  Cu  Cu20  1  0.00000000  0.00000000  0.87274000  1.0
  Cu  Cu21  1  0.00000000  0.50000000  0.87274000  1.0
  Cu  Cu22  1  0.00205000  0.50000000  0.04082000  1.0
  Cu  Cu23  1  0.99113000  0.00000000  0.04214000  1.0
  C  C24  1  0.00457000  0.00000000  0.17439000  1.0
