# generated using pymatgen
data_LiGa2Ir
_symmetry_space_group_name_H-M   'P 1'
_cell_length_a   4.32352500
_cell_length_b   6.11439000
_cell_length_c   26.48530000
_cell_angle_alpha   90.00000000
_cell_angle_beta   90.00000000
_cell_angle_gamma   90.00000000
_symmetry_Int_Tables_number   1
_chemical_formula_structural   LiGa2Ir
_chemical_formula_sum   'Li4 Ga8 Ir4'
_cell_volume   700.15792260
_cell_formula_units_Z   4
loop_
 _symmetry_equiv_pos_site_id
 _symmetry_equiv_pos_as_xyz
  1  'x, y, z'
loop_
 _atom_site_type_symbol
 _atom_site_label
 _atom_site_symmetry_multiplicity
 _atom_site_fract_x
 _atom_site_fract_y
 _atom_site_fract_z
 _atom_site_occupancy
  Li  Li0  1  0.00000000  0.00000000  0.12243000  1.0
  Li  Li1  1  0.50000000  0.50000000  0.04081000  1.0
  Li  Li2  1  0.00000000  0.00000000  0.96072000  1.0
  Li  Li3  1  0.50000000  0.50000000  0.87059500  1.0
  Ga  Ga4  1  0.00000000  0.75000000  0.04081000  1.0
  Ga  Ga5  1  0.00000000  0.25000000  0.04081000  1.0
  Ga  Ga6  1  0.50000000  0.25000000  0.12243000  1.0
  Ga  Ga7  1  0.50000000  0.75000000  0.12243000  1.0
  Ga  Ga8  1  0.00000000  0.76732000  0.87435000  1.0
  Ga  Ga9  1  0.00000000  0.23268000  0.87435000  1.0
  Ga  Ga10  1  0.50000000  0.25331000  0.95925000  1.0
  Ga  Ga11  1  0.50000000  0.74669000  0.95925000  1.0
  Ir  Ir12  1  0.50000000  0.00000000  0.04081000  1.0
  Ir  Ir13  1  0.00000000  0.50000000  0.12243000  1.0
  Ir  Ir14  1  0.50000000  0.00000000  0.88349000  1.0
  Ir  Ir15  1  0.00000000  0.50000000  0.96152000  1.0
