# generated using pymatgen
data_Li4Zn4Ag4Ge4C
_symmetry_space_group_name_H-M   'P 1'
_cell_length_a   6.35563000
_cell_length_b   6.35563000
_cell_length_c   24.76670000
_cell_angle_alpha   90.00000000
_cell_angle_beta   90.00000000
_cell_angle_gamma   90.00000000
_symmetry_Int_Tables_number   1
_chemical_formula_structural   Li4Zn4Ag4Ge4C
_chemical_formula_sum   'Li4 Zn4 Ag4 Ge4 C1'
_cell_volume   1000.42688959
_cell_formula_units_Z   1
loop_
 _symmetry_equiv_pos_site_id
 _symmetry_equiv_pos_as_xyz
  1  'x, y, z'
loop_
 _atom_site_type_symbol
 _atom_site_label
 _atom_site_symmetry_multiplicity
 _atom_site_fract_x
 _atom_site_fract_y
 _atom_site_fract_z
 _atom_site_occupancy
  Li  Li0  1  0.75000000  0.75000000  0.96792000  1
  Li  Li1  1  0.23702000  0.76298000  0.11558000  1
  Li  Li2  1  0.76298000  0.23702000  0.11558000  1
  Li  Li3  1  0.25000000  0.25000000  0.96792000  1
  Zn  Zn4  1  0.75000000  0.25000000  0.96792000  1
  Zn  Zn5  1  0.22998000  0.22998000  0.10874000  1
  Zn  Zn6  1  0.77002000  0.77002000  0.10874000  1
  Zn  Zn7  1  0.25000000  0.75000000  0.96792000  1
  Ag  Ag8  1  0.00000000  0.00000000  0.90377000  1
  Ag  Ag9  1  0.50000000  1.00000000  0.03430000  1
  Ag  Ag10  1  0.00000000  0.50000000  0.03430000  1
  Ag  Ag11  1  0.50000000  0.50000000  0.90377000  1
  Ge  Ge12  1  0.50000000  1.00000000  0.90377000  1
  Ge  Ge13  1  0.00000000  0.00000000  0.03204000  1
  Ge  Ge14  1  0.50000000  0.50000000  0.05658000  1
  Ge  Ge15  1  0.00000000  0.50000000  0.90377000  1
  C  C16  1  0.00000000  0.00000000  0.11249000  1
