# generated using pymatgen
data_Li8Zr8Ge8Pd8CO
_symmetry_space_group_name_H-M   Pm
_cell_length_a   6.47880000
_cell_length_b   9.16240000
_cell_length_c   26.87180000
_cell_angle_alpha   90.00000000
_cell_angle_beta   90.00000000
_cell_angle_gamma   90.00000000
_symmetry_Int_Tables_number   6
_chemical_formula_structural   Li8Zr8Ge8Pd8CO
_chemical_formula_sum   'Li8 Zr8 Ge8 Pd8 C1 O1'
_cell_volume   1595.14651626
_cell_formula_units_Z   1
loop_
 _symmetry_equiv_pos_site_id
 _symmetry_equiv_pos_as_xyz
  1  'x, y, z'
  2  'x, -y, z'
loop_
 _atom_site_type_symbol
 _atom_site_label
 _atom_site_symmetry_multiplicity
 _atom_site_fract_x
 _atom_site_fract_y
 _atom_site_fract_z
 _atom_site_occupancy
  Li  Li0  2  0.74101000  0.24504000  0.04146000  1.0
  Li  Li1  2  0.75000000  0.25000000  0.87214000  1.0
  Li  Li2  1  0.23694000  0.00000000  0.13696000  1.0
  Li  Li3  1  0.24243000  0.50000000  0.13621000  1.0
  Li  Li4  1  0.25000000  0.00000000  0.95738000  1.0
  Li  Li5  1  0.25000000  0.50000000  0.95738000  1.0
  Zr  Zr6  2  0.24748000  0.26046000  0.04535000  1.0
  Zr  Zr7  2  0.25000000  0.25000000  0.87214000  1.0
  Zr  Zr8  1  0.72327000  0.00000000  0.12248000  1.0
  Zr  Zr9  1  0.72441000  0.50000000  0.13167000  1.0
  Zr  Zr10  1  0.75000000  0.00000000  0.95738000  1.0
  Zr  Zr11  1  0.75000000  0.50000000  0.95738000  1.0
  Ge  Ge12  2  0.48532000  0.25055000  0.13452000  1.0
  Ge  Ge13  2  0.50000000  0.25000000  0.95738000  1.0
  Ge  Ge14  1  0.00000000  0.00000000  0.87214000  1.0
  Ge  Ge15  1  0.00000000  0.50000000  0.87214000  1.0
  Ge  Ge16  1  0.01320000  0.00000000  0.04543000  1.0
  Ge  Ge17  1  0.97208000  0.50000000  0.04984000  1.0
  Pd  Pd18  2  0.00000000  0.25000000  0.95738000  1.0
  Pd  Pd19  2  0.97427000  0.25343000  0.12168000  1.0
  Pd  Pd20  1  0.46403000  0.00000000  0.03828000  1.0
  Pd  Pd21  1  0.50000000  0.00000000  0.87214000  1.0
  Pd  Pd22  1  0.50000000  0.50000000  0.87214000  1.0
  Pd  Pd23  1  0.52191000  0.50000000  0.04456000  1.0
  C  C24  1  0.71694000  0.00000000  0.20649000  1.0
  O  O25  1  0.71206000  0.00000000  0.24945000  1.0
