# generated using pymatgen
data_Zn16Ag8Au8C
_symmetry_space_group_name_H-M   'P 1'
_cell_length_a   8.98033000
_cell_length_b   6.35005000
_cell_length_c   26.73520000
_cell_angle_alpha   90.00000000
_cell_angle_beta   90.00000000
_cell_angle_gamma   90.00000000
_symmetry_Int_Tables_number   1
_chemical_formula_structural   Zn16Ag8Au8C
_chemical_formula_sum   'Zn16 Ag8 Au8 C1'
_cell_volume   1524.58933776
_cell_formula_units_Z   1
loop_
 _symmetry_equiv_pos_site_id
 _symmetry_equiv_pos_as_xyz
  1  'x, y, z'
loop_
 _atom_site_type_symbol
 _atom_site_label
 _atom_site_symmetry_multiplicity
 _atom_site_fract_x
 _atom_site_fract_y
 _atom_site_fract_z
 _atom_site_occupancy
  Zn  Zn0  1  0.75000000  0.25000000  0.04199000  1.0
  Zn  Zn1  1  0.25000000  0.75000000  0.04199000  1.0
  Zn  Zn2  1  0.75000000  0.75000000  0.04199000  1.0
  Zn  Zn3  1  0.25000000  0.25000000  0.04199000  1.0
  Zn  Zn4  1  0.50000000  0.75000000  0.12596000  1.0
  Zn  Zn5  1  0.00000000  0.25000000  0.12596000  1.0
  Zn  Zn6  1  0.50000000  0.25000000  0.12596000  1.0
  Zn  Zn7  1  0.00000000  0.75000000  0.12596000  1.0
  Zn  Zn8  1  0.23184000  0.23988000  0.84609000  1.0
  Zn  Zn9  1  0.72887000  0.75472000  0.86628000  1.0
  Zn  Zn10  1  0.27113000  0.75472000  0.86628000  1.0
  Zn  Zn11  1  0.76816000  0.23988000  0.84609000  1.0
  Zn  Zn12  1  0.00000000  0.73530000  0.95920000  1.0
  Zn  Zn13  1  0.50000000  0.25330000  0.95234000  1.0
  Zn  Zn14  1  0.00000000  0.27225000  0.95293000  1.0
  Zn  Zn15  1  0.50000000  0.75130000  0.94865000  1.0
  Ag  Ag16  1  0.75000000  0.00000000  0.12596000  1.0
  Ag  Ag17  1  0.00000000  0.50000000  0.04199000  1.0
  Ag  Ag18  1  0.50000000  0.50000000  0.04199000  1.0
  Ag  Ag19  1  0.25000000  0.00000000  0.12596000  1.0
  Ag  Ag20  1  0.25158000  0.01049000  0.95427000  1.0
  Ag  Ag21  1  0.50000000  0.47534000  0.85640000  1.0
  Ag  Ag22  1  0.00000000  0.55136000  0.86305000  1.0
  Ag  Ag23  1  0.74842000  0.01049000  0.95427000  1.0
  Au  Au24  1  0.50000000  1.00000000  0.04199000  1.0
  Au  Au25  1  0.75000000  0.50000000  0.12596000  1.0
  Au  Au26  1  0.00000000  0.00000000  0.04199000  1.0
  Au  Au27  1  0.25000000  0.50000000  0.12596000  1.0
  Au  Au28  1  0.00000000  0.96739000  0.87960000  1.0
  Au  Au29  1  0.25699000  0.50002000  0.95598000  1.0
  Au  Au30  1  0.50000000  0.02678000  0.86381000  1.0
  Au  Au31  1  0.74301000  0.50002000  0.95598000  1.0
  C  C32  1  0.00000000  0.23802000  0.83719000  1.0
