# generated using pymatgen
data_Zn16Ag8Au8C
_symmetry_space_group_name_H-M   Pm
_cell_length_a   6.35005000
_cell_length_b   8.98033000
_cell_length_c   26.73520000
_cell_angle_alpha   90.00000000
_cell_angle_beta   90.00000000
_cell_angle_gamma   90.00000000
_symmetry_Int_Tables_number   6
_chemical_formula_structural   Zn16Ag8Au8C
_chemical_formula_sum   'Zn16 Ag8 Au8 C1'
_cell_volume   1524.58933776
_cell_formula_units_Z   1
loop_
 _symmetry_equiv_pos_site_id
 _symmetry_equiv_pos_as_xyz
  1  'x, y, z'
  2  'x, -y, z'
loop_
 _atom_site_type_symbol
 _atom_site_label
 _atom_site_symmetry_multiplicity
 _atom_site_fract_x
 _atom_site_fract_y
 _atom_site_fract_z
 _atom_site_occupancy
  Zn  Zn0  2  0.23988000  0.23184000  0.15391000  1.0
  Zn  Zn1  2  0.25000000  0.25000000  0.95801000  1.0
  Zn  Zn2  2  0.75000000  0.25000000  0.95801000  1.0
  Zn  Zn3  2  0.75472000  0.27113000  0.13372000  1.0
  Zn  Zn4  1  0.25000000  0.00000000  0.87404000  1.0
  Zn  Zn5  1  0.25000000  0.50000000  0.87404000  1.0
  Zn  Zn6  1  0.25330000  0.50000000  0.04766000  1.0
  Zn  Zn7  1  0.27225000  0.00000000  0.04707000  1.0
  Zn  Zn8  1  0.73530000  0.00000000  0.04080000  1.0
  Zn  Zn9  1  0.75000000  0.00000000  0.87404000  1.0
  Zn  Zn10  1  0.75000000  0.50000000  0.87404000  1.0
  Zn  Zn11  1  0.75130000  0.50000000  0.05135000  1.0
  Ag  Ag12  2  0.00000000  0.25000000  0.87404000  1.0
  Ag  Ag13  2  0.01049000  0.25158000  0.04573000  1.0
  Ag  Ag14  1  0.47534000  0.50000000  0.14360000  1.0
  Ag  Ag15  1  0.50000000  0.00000000  0.95801000  1.0
  Ag  Ag16  1  0.50000000  0.50000000  0.95801000  1.0
  Ag  Ag17  1  0.55136000  0.00000000  0.13695000  1.0
  Au  Au18  2  0.50000000  0.25000000  0.87404000  1.0
  Au  Au19  2  0.50002000  0.25699000  0.04402000  1.0
  Au  Au20  1  -0.00000000  0.50000000  0.95801000  1.0
  Au  Au21  1  0.00000000  0.00000000  0.95801000  1.0
  Au  Au22  1  0.02678000  0.50000000  0.13619000  1.0
  Au  Au23  1  0.96739000  0.00000000  0.12040000  1.0
  C  C24  1  0.23802000  0.00000000  0.16281000  1.0
