# generated using pymatgen
data_Li8In4Ir4CO
_symmetry_space_group_name_H-M   'P 1'
_cell_length_a   6.34973000
_cell_length_b   6.34973000
_cell_length_c   24.76230000
_cell_angle_alpha   90.00000000
_cell_angle_beta   90.00000000
_cell_angle_gamma   90.00000000
_symmetry_Int_Tables_number   1
_chemical_formula_structural   Li8In4Ir4CO
_chemical_formula_sum   'Li8 In4 Ir4 C1 O1'
_cell_volume   998.39293363
_cell_formula_units_Z   1
loop_
 _symmetry_equiv_pos_site_id
 _symmetry_equiv_pos_as_xyz
  1  'x, y, z'
loop_
 _atom_site_type_symbol
 _atom_site_label
 _atom_site_symmetry_multiplicity
 _atom_site_fract_x
 _atom_site_fract_y
 _atom_site_fract_z
 _atom_site_occupancy
  Li  Li0  1  0.74961500  0.74961500  0.02483000  1
  Li  Li1  1  0.75001500  0.24998500  0.90384000  1
  Li  Li2  1  0.24998500  0.75001500  0.90384000  1
  Li  Li3  1  0.25038500  0.25038500  0.02483000  1
  Li  Li4  1  0.50000000  1.00000000  0.96795000  1
  Li  Li5  1  1.00000000  0.00000000  0.09650000  1
  Li  Li6  1  1.00000000  0.50000000  0.96795000  1
  Li  Li7  1  0.50000000  0.50000000  0.10261000  1
  In  In8  1  0.50000000  1.00000000  0.09633000  1
  In  In9  1  1.00000000  0.00000000  0.96795000  1
  In  In10  1  1.00000000  0.50000000  0.09633000  1
  In  In11  1  0.50000000  0.50000000  0.96795000  1
  Ir  Ir12  1  0.75000500  0.75000500  0.90384000  1
  Ir  Ir13  1  0.24999500  0.24999500  0.90384000  1
  Ir  Ir14  1  0.75009500  0.24990500  0.03629000  1
  Ir  Ir15  1  0.24990500  0.75009500  0.03629000  1
  C  C16  1  0.50000000  0.50000000  0.18941000  1
  O  O17  1  0.50000000  0.50000000  0.23553000  1
