# generated using pymatgen
data_Ca3Pb
_symmetry_space_group_name_H-M   'P 1'
_cell_length_a   10.21910000
_cell_length_b   10.21910000
_cell_length_c   27.66430000
_cell_angle_alpha   90.00000000
_cell_angle_beta   90.00000000
_cell_angle_gamma   90.00000000
_symmetry_Int_Tables_number   1
_chemical_formula_structural   Ca3Pb
_chemical_formula_sum   'Ca24 Pb8'
_cell_volume   2888.98298207
_cell_formula_units_Z   8
loop_
 _symmetry_equiv_pos_site_id
 _symmetry_equiv_pos_as_xyz
  1  'x, y, z'
loop_
 _atom_site_type_symbol
 _atom_site_label
 _atom_site_symmetry_multiplicity
 _atom_site_fract_x
 _atom_site_fract_y
 _atom_site_fract_z
 _atom_site_occupancy
  Ca  Ca0  1  0.99999000  0.74997000  0.95075000  1
  Ca  Ca1  1  0.25001000  1.00000000  0.95075000  1
  Ca  Ca2  1  0.24999000  0.75004000  0.85190000  1
  Ca  Ca3  1  1.00000000  0.75000000  0.13852000  1
  Ca  Ca4  1  0.25000000  1.00000000  0.13852000  1
  Ca  Ca5  1  0.25000000  0.75000000  0.04617000  1
  Ca  Ca6  1  1.00000000  0.25001000  0.95075000  1
  Ca  Ca7  1  0.25000000  0.50000000  0.95075000  1
  Ca  Ca8  1  0.24998500  0.24998500  0.85189000  1
  Ca  Ca9  1  1.00000000  0.25000000  0.13852000  1
  Ca  Ca10  1  0.25000000  0.50000000  0.13852000  1
  Ca  Ca11  1  0.25000000  0.25000000  0.04617000  1
  Ca  Ca12  1  0.50000000  0.74998000  0.95076000  1
  Ca  Ca13  1  0.74997000  0.99999000  0.95075000  1
  Ca  Ca14  1  0.75003000  0.75003000  0.85191000  1
  Ca  Ca15  1  0.50000000  0.75000000  0.13852000  1
  Ca  Ca16  1  0.75000000  1.00000000  0.13852000  1
  Ca  Ca17  1  0.75000000  0.75000000  0.04617000  1
  Ca  Ca18  1  0.50000000  0.25000000  0.95075000  1
  Ca  Ca19  1  0.74998000  0.50000000  0.95076000  1
  Ca  Ca20  1  0.75004000  0.24999000  0.85190000  1
  Ca  Ca21  1  0.50000000  0.25000000  0.13852000  1
  Ca  Ca22  1  0.75000000  0.50000000  0.13852000  1
  Ca  Ca23  1  0.75000000  0.25000000  0.04617000  1
  Pb  Pb24  1  0.99998000  0.99998000  0.87066000  1
  Pb  Pb25  1  0.00000000  0.00000000  0.04617000  1
  Pb  Pb26  1  0.00001000  0.50000000  0.87062000  1
  Pb  Pb27  1  1.00000000  0.50000000  0.04617000  1
  Pb  Pb28  1  0.50000000  0.00001000  0.87062000  1
  Pb  Pb29  1  0.50000000  1.00000000  0.04617000  1
  Pb  Pb30  1  0.50002000  0.50002000  0.87065000  1
  Pb  Pb31  1  0.50000000  0.50000000  0.04617000  1
