# generated using pymatgen
data_Ca3Pb
_symmetry_space_group_name_H-M   Cm
_cell_length_a   14.45198982
_cell_length_b   14.45198982
_cell_length_c   27.66430000
_cell_angle_alpha   90.00000000
_cell_angle_beta   90.00000000
_cell_angle_gamma   90.00000000
_symmetry_Int_Tables_number   8
_chemical_formula_structural   Ca3Pb
_chemical_formula_sum   'Ca48 Pb16'
_cell_volume   5777.96596413
_cell_formula_units_Z   16
loop_
 _symmetry_equiv_pos_site_id
 _symmetry_equiv_pos_as_xyz
  1  'x, y, z'
  2  'x, -y, z'
  3  'x+1/2, y+1/2, z'
  4  'x+1/2, -y+1/2, z'
loop_
 _atom_site_type_symbol
 _atom_site_label
 _atom_site_symmetry_multiplicity
 _atom_site_fract_x
 _atom_site_fract_y
 _atom_site_fract_z
 _atom_site_occupancy
  Ca  Ca0  4  0.00000000  0.25000000  0.95383000  1.0
  Ca  Ca1  4  0.00001500  0.24997500  0.14810000  1.0
  Ca  Ca2  4  0.12499000  0.37501000  0.04924000  1.0
  Ca  Ca3  4  0.12500000  0.12500000  0.86148000  1.0
  Ca  Ca4  4  0.12500000  0.37500000  0.86148000  1.0
  Ca  Ca5  4  0.12500500  0.12500500  0.04925000  1.0
  Ca  Ca6  4  0.37498000  0.37499000  0.04925000  1.0
  Ca  Ca7  4  0.37500000  0.12500000  0.04925000  1.0
  Ca  Ca8  4  0.37500000  0.12500000  0.86148000  1.0
  Ca  Ca9  4  0.37500000  0.37500000  0.86148000  1.0
  Ca  Ca10  2  0.24998500  0.00000000  0.14811000  1.0
  Ca  Ca11  2  0.25000000  0.00000000  0.95383000  1.0
  Ca  Ca12  2  0.25000000  0.50000000  0.95383000  1.0
  Ca  Ca13  2  0.25003000  0.50000000  0.14809000  1.0
  Pb  Pb14  4  0.25000000  0.25000000  0.95383000  1.0
  Pb  Pb15  4  0.25000500  0.24999500  0.12938000  1.0
  Pb  Pb16  2  0.00000000  0.00000000  0.95383000  1.0
  Pb  Pb17  2  0.00000000  0.50000000  0.95383000  1.0
  Pb  Pb18  2  0.00002000  0.50000000  0.12935000  1.0
  Pb  Pb19  2  0.49998000  0.50000000  0.12934000  1.0
