# generated using pymatgen
data_Li8Mg16Ge8C
_symmetry_space_group_name_H-M   'P 1'
_cell_length_a   6.76484000
_cell_length_b   9.56693000
_cell_length_c   27.17520000
_cell_angle_alpha   90.00000000
_cell_angle_beta   90.00000000
_cell_angle_gamma   90.00000000
_symmetry_Int_Tables_number   1
_chemical_formula_structural   Li8Mg16Ge8C
_chemical_formula_sum   'Li8 Mg16 Ge8 C1'
_cell_volume   1758.74499514
_cell_formula_units_Z   1
loop_
 _symmetry_equiv_pos_site_id
 _symmetry_equiv_pos_as_xyz
  1  'x, y, z'
loop_
 _atom_site_type_symbol
 _atom_site_label
 _atom_site_symmetry_multiplicity
 _atom_site_fract_x
 _atom_site_fract_y
 _atom_site_fract_z
 _atom_site_occupancy
  Li  Li0  1  0.00000000  0.00000000  0.86798000  1.0
  Li  Li1  1  0.50000000  0.25000000  0.95599000  1.0
  Li  Li2  1  0.50000000  0.75000000  0.95599000  1.0
  Li  Li3  1  0.00000000  0.50000000  0.86798000  1.0
  Li  Li4  1  0.00000000  0.50000000  0.05127000  1.0
  Li  Li5  1  0.50000000  0.78206000  0.14379000  1.0
  Li  Li6  1  0.50000000  0.21794000  0.14379000  1.0
  Li  Li7  1  0.00000000  0.00000000  0.04385000  1.0
  Mg  Mg8  1  0.25000000  0.00000000  0.95599000  1.0
  Mg  Mg9  1  0.75000000  0.50000000  0.95599000  1.0
  Mg  Mg10  1  0.75000000  0.00000000  0.95599000  1.0
  Mg  Mg11  1  0.25000000  0.50000000  0.95599000  1.0
  Mg  Mg12  1  0.75000000  0.75000000  0.86798000  1.0
  Mg  Mg13  1  0.25000000  0.25000000  0.86798000  1.0
  Mg  Mg14  1  0.25000000  0.75000000  0.86798000  1.0
  Mg  Mg15  1  0.75000000  0.25000000  0.86798000  1.0
  Mg  Mg16  1  0.26980000  0.50000000  0.13972000  1.0
  Mg  Mg17  1  0.79555000  0.00000000  0.14144000  1.0
  Mg  Mg18  1  0.73020000  0.50000000  0.13972000  1.0
  Mg  Mg19  1  0.20445000  0.00000000  0.14144000  1.0
  Mg  Mg20  1  0.75047000  0.25273000  0.04447000  1.0
  Mg  Mg21  1  0.24953000  0.74727000  0.04447000  1.0
  Mg  Mg22  1  0.24953000  0.25273000  0.04447000  1.0
  Mg  Mg23  1  0.75047000  0.74727000  0.04447000  1.0
  Ge  Ge24  1  0.00000000  0.75000000  0.95599000  1.0
  Ge  Ge25  1  0.50000000  0.00000000  0.86798000  1.0
  Ge  Ge26  1  0.00000000  0.25000000  0.95599000  1.0
  Ge  Ge27  1  0.50000000  0.50000000  0.86798000  1.0
  Ge  Ge28  1  0.00000000  0.26031000  0.12767000  1.0
  Ge  Ge29  1  0.50000000  0.50000000  0.04086000  1.0
  Ge  Ge30  1  0.00000000  0.73969000  0.12767000  1.0
  Ge  Ge31  1  0.50000000  0.00000000  0.04970000  1.0
  C  C32  1  0.50000000  0.00000000  0.12487000  1.0
