# generated using pymatgen
data_Li4Al4Cu4Ge4C
_symmetry_space_group_name_H-M   'P 1'
_cell_length_a   7.78580000
_cell_length_b   5.44163000
_cell_length_c   24.08040000
_cell_angle_alpha   90.00000000
_cell_angle_beta   90.00000000
_cell_angle_gamma   90.00000000
_symmetry_Int_Tables_number   1
_chemical_formula_structural   Li4Al4Cu4Ge4C
_chemical_formula_sum   'Li4 Al4 Cu4 Ge4 C1'
_cell_volume   1020.22497090
_cell_formula_units_Z   1
loop_
 _symmetry_equiv_pos_site_id
 _symmetry_equiv_pos_as_xyz
  1  'x, y, z'
loop_
 _atom_site_type_symbol
 _atom_site_label
 _atom_site_symmetry_multiplicity
 _atom_site_fract_x
 _atom_site_fract_y
 _atom_site_fract_z
 _atom_site_occupancy
  Li  Li0  1  0.25000000  0.74487000  0.02824000  1.0
  Li  Li1  1  0.23521000  0.16658000  0.90725000  1.0
  Li  Li2  1  0.75000000  0.74487000  0.02824000  1.0
  Li  Li3  1  0.76479000  0.16658000  0.90725000  1.0
  Al  Al4  1  0.00000000  0.00000000  0.08472000  1.0
  Al  Al5  1  0.00000000  0.47776000  0.97402000  1.0
  Al  Al6  1  0.50000000  1.00000000  0.08472000  1.0
  Al  Al7  1  0.50000000  0.45366000  0.96807000  1.0
  Cu  Cu8  1  0.25000000  0.24487000  0.02824000  1.0
  Cu  Cu9  1  0.24668000  0.68409000  0.92321000  1.0
  Cu  Cu10  1  0.75000000  0.24487000  0.02824000  1.0
  Cu  Cu11  1  0.75332000  0.68409000  0.92321000  1.0
  Ge  Ge12  1  0.00000000  0.50000000  0.08472000  1.0
  Ge  Ge13  1  0.00000000  0.02241000  0.97862000  1.0
  Ge  Ge14  1  0.50000000  0.50000000  0.08472000  1.0
  Ge  Ge15  1  0.50000000  0.95130000  0.96152000  1.0
  C  C16  1  0.00000000  0.76418000  0.91821000  1.0
