# generated using pymatgen
data_Li4Al4Cu4Ge4C
_symmetry_space_group_name_H-M   Pm
_cell_length_a   5.44163000
_cell_length_b   7.78580000
_cell_length_c   24.08040000
_cell_angle_alpha   90.00000000
_cell_angle_beta   90.00000000
_cell_angle_gamma   90.00000000
_symmetry_Int_Tables_number   6
_chemical_formula_structural   Li4Al4Cu4Ge4C
_chemical_formula_sum   'Li4 Al4 Cu4 Ge4 C1'
_cell_volume   1020.22497090
_cell_formula_units_Z   1
loop_
 _symmetry_equiv_pos_site_id
 _symmetry_equiv_pos_as_xyz
  1  'x, y, z'
  2  'x, -y, z'
loop_
 _atom_site_type_symbol
 _atom_site_label
 _atom_site_symmetry_multiplicity
 _atom_site_fract_x
 _atom_site_fract_y
 _atom_site_fract_z
 _atom_site_occupancy
  Li  Li0  2  0.16658000  0.23521000  0.09275000  1.0
  Li  Li1  2  0.74487000  0.25000000  0.97176000  1.0
  Al  Al2  1  -0.00000000  0.50000000  0.91528000  1.0
  Al  Al3  1  0.00000000  0.00000000  0.91528000  1.0
  Al  Al4  1  0.45366000  0.50000000  0.03193000  1.0
  Al  Al5  1  0.47776000  0.00000000  0.02598000  1.0
  Cu  Cu6  2  0.24487000  0.25000000  0.97176000  1.0
  Cu  Cu7  2  0.68409000  0.24668000  0.07679000  1.0
  Ge  Ge8  1  0.02241000  0.00000000  0.02138000  1.0
  Ge  Ge9  1  0.50000000  0.00000000  0.91528000  1.0
  Ge  Ge10  1  0.50000000  0.50000000  0.91528000  1.0
  Ge  Ge11  1  0.95130000  0.50000000  0.03848000  1.0
  C  C12  1  0.76418000  0.00000000  0.08179000  1.0
