# generated using pymatgen
data_VFe2Si
_symmetry_space_group_name_H-M   'P 1'
_cell_length_a   3.98993000
_cell_length_b   5.64262000
_cell_length_c   25.98490000
_cell_angle_alpha   90.00000000
_cell_angle_beta   90.00000000
_cell_angle_gamma   90.00000000
_symmetry_Int_Tables_number   1
_chemical_formula_structural   VFe2Si
_chemical_formula_sum   'V4 Fe8 Si4'
_cell_volume   585.01517298
_cell_formula_units_Z   4
loop_
 _symmetry_equiv_pos_site_id
 _symmetry_equiv_pos_as_xyz
  1  'x, y, z'
loop_
 _atom_site_type_symbol
 _atom_site_label
 _atom_site_symmetry_multiplicity
 _atom_site_fract_x
 _atom_site_fract_y
 _atom_site_fract_z
 _atom_site_occupancy
  V  V0  1  0.00000000  0.00000000  0.11516000  1.0
  V  V1  1  0.50000000  0.50000000  0.03839000  1.0
  V  V2  1  0.00000000  0.00000000  0.95962000  1.0
  V  V3  1  0.50000000  0.50000000  0.88398000  1.0
  Fe  Fe4  1  0.00000000  0.75000000  0.03839000  1.0
  Fe  Fe5  1  0.00000000  0.25000000  0.03839000  1.0
  Fe  Fe6  1  0.50000000  0.25000000  0.11516000  1.0
  Fe  Fe7  1  0.50000000  0.75000000  0.11516000  1.0
  Fe  Fe8  1  0.00000000  0.75776000  0.88830500  1.0
  Fe  Fe9  1  0.00000000  0.24224000  0.88830500  1.0
  Fe  Fe10  1  0.50000000  0.25259500  0.96187000  1.0
  Fe  Fe11  1  0.50000000  0.74740500  0.96187000  1.0
  Si  Si12  1  0.50000000  0.00000000  0.03839000  1.0
  Si  Si13  1  0.00000000  0.50000000  0.11516000  1.0
  Si  Si14  1  0.50000000  0.00000000  0.88227000  1.0
  Si  Si15  1  0.00000000  0.50000000  0.96090000  1.0
