data_image0
_chemical_formula_structural       Zn4Co8Ge4CO
_chemical_formula_sum              "Zn4 Co8 Ge4 C1 O1"
_cell_length_a       5.75846
_cell_length_b       5.75846
_cell_length_c       24.3188
_cell_angle_alpha    90
_cell_angle_beta     90
_cell_angle_gamma    90

_space_group_name_H-M_alt    "P 1"
_space_group_IT_number       1

loop_
  _space_group_symop_operation_xyz
  'x, y, z'

loop_
  _atom_site_type_symbol
  _atom_site_label
  _atom_site_symmetry_multiplicity
  _atom_site_fract_x
  _atom_site_fract_y
  _atom_site_fract_z
  _atom_site_occupancy
  Zn  Zn1       1.0  0.00000  0.00000  0.91120  1.0000
  Zn  Zn2       1.0  0.50000  0.50000  0.91120  1.0000
  Zn  Zn3       1.0  0.49871  0.00129  0.03194  1.0000
  Zn  Zn4       1.0  0.00129  0.49871  0.03194  1.0000
  Co  Co1       1.0  0.25000  0.25000  0.97040  1.0000
  Co  Co2       1.0  0.75001  0.74999  0.08868  1.0000
  Co  Co3       1.0  0.75000  0.25000  0.97040  1.0000
  Co  Co4       1.0  0.24999  0.74999  0.08970  1.0000
  Co  Co5       1.0  0.75000  0.75000  0.97040  1.0000
  Co  Co6       1.0  0.25000  0.25000  0.09093  1.0000
  Co  Co7       1.0  0.25000  0.75000  0.97040  1.0000
  Co  Co8       1.0  0.75001  0.25001  0.08970  1.0000
  Ge  Ge1       1.0  0.00154  0.00155  0.03194  1.0000
  Ge  Ge2       1.0  0.50000  0.00000  0.91120  1.0000
  Ge  Ge3       1.0  0.00000  0.50000  0.91120  1.0000
  Ge  Ge4       1.0  0.49846  0.49845  0.03194  1.0000
  C   C1        1.0  0.25000  0.25000  0.16281  1.0000
  O   O1        1.0  0.25000  0.25000  0.21048  1.0000
