# generated using pymatgen
data_Sc4Ga4Ge4Pd4CO
_symmetry_space_group_name_H-M   Pm
_cell_length_a   5.63062000
_cell_length_b   8.58414000
_cell_length_c   24.22090000
_cell_angle_alpha   90.00000000
_cell_angle_beta   90.00000000
_cell_angle_gamma   90.00000000
_symmetry_Int_Tables_number   6
_chemical_formula_structural   Sc4Ga4Ge4Pd4CO
_chemical_formula_sum   'Sc4 Ga4 Ge4 Pd4 C1 O1'
_cell_volume   1170.69371611
_cell_formula_units_Z   1
loop_
 _symmetry_equiv_pos_site_id
 _symmetry_equiv_pos_as_xyz
  1  'x, y, z'
  2  'x, -y, z'
loop_
 _atom_site_type_symbol
 _atom_site_label
 _atom_site_symmetry_multiplicity
 _atom_site_fract_x
 _atom_site_fract_y
 _atom_site_fract_z
 _atom_site_occupancy
  Sc  Sc0  2  0.22651000  0.25000000  0.91287000  1.0
  Sc  Sc1  2  0.73614000  0.25062000  0.03259000  1.0
  Ga  Ga2  1  0.00829000  0.50000000  0.08747000  1.0
  Ga  Ga3  1  0.01332000  0.00000000  0.08165000  1.0
  Ga  Ga4  1  0.48434000  0.00000000  0.97096000  1.0
  Ga  Ga5  1  0.48434000  0.50000000  0.97096000  1.0
  Ge  Ge6  2  0.22845000  0.25254000  0.03806000  1.0
  Ge  Ge7  2  0.72651000  0.25000000  0.91287000  1.0
  Pd  Pd8  1  0.50704000  0.00000000  0.08617000  1.0
  Pd  Pd9  1  0.51238000  0.50000000  0.07997000  1.0
  Pd  Pd10  1  0.98434000  0.00000000  0.97096000  1.0
  Pd  Pd11  1  0.98434000  0.50000000  0.97096000  1.0
  C  C12  1  0.49783000  0.00000000  0.16842000  1.0
  O  O13  1  0.50279000  0.00000000  0.21580000  1.0
