# generated using pymatgen
data_Mg4Pd12C
_symmetry_space_group_name_H-M   Pm
_cell_length_a   5.68257000
_cell_length_b   8.03636000
_cell_length_c   24.26190000
_cell_angle_alpha   90.00000000
_cell_angle_beta   90.00000000
_cell_angle_gamma   90.00000000
_symmetry_Int_Tables_number   6
_chemical_formula_structural   Mg4Pd12C
_chemical_formula_sum   'Mg4 Pd12 C1'
_cell_volume   1107.97251187
_cell_formula_units_Z   1
loop_
 _symmetry_equiv_pos_site_id
 _symmetry_equiv_pos_as_xyz
  1  'x, y, z'
  2  'x, -y, z'
loop_
 _atom_site_type_symbol
 _atom_site_label
 _atom_site_symmetry_multiplicity
 _atom_site_fract_x
 _atom_site_fract_y
 _atom_site_fract_z
 _atom_site_occupancy
  Mg  Mg0  2  0.00218000  0.23335000  0.91945000  1.0
  Mg  Mg1  2  0.50000000  0.25000000  0.02928000  1.0
  Pd  Pd2  2  0.00000000  0.25000000  0.02928000  1.0
  Pd  Pd3  2  0.50176000  0.25430000  0.91013000  1.0
  Pd  Pd4  1  0.24393000  0.50000000  0.96997000  1.0
  Pd  Pd5  1  0.25000000  0.00000000  0.08783000  1.0
  Pd  Pd6  1  0.25000000  0.50000000  0.08783000  1.0
  Pd  Pd7  1  0.25639000  0.00000000  0.96991000  1.0
  Pd  Pd8  1  0.74652000  0.00000000  0.96989000  1.0
  Pd  Pd9  1  0.75000000  0.00000000  0.08783000  1.0
  Pd  Pd10  1  0.75000000  0.50000000  0.08783000  1.0
  Pd  Pd11  1  0.75835000  0.50000000  0.96981000  1.0
  C  C12  1  0.50077000  0.50000000  0.91526000  1.0
