# generated using pymatgen
data_Ti8Al8Au16CO
_symmetry_space_group_name_H-M   'P 1'
_cell_length_a   6.49880000
_cell_length_b   9.19068000
_cell_length_c   26.89300000
_cell_angle_alpha   90.00000000
_cell_angle_beta   90.00000000
_cell_angle_gamma   90.00000000
_symmetry_Int_Tables_number   1
_chemical_formula_structural   Ti8Al8Au16CO
_chemical_formula_sum   'Ti8 Al8 Au16 C1 O1'
_cell_volume   1606.27562411
_cell_formula_units_Z   1
loop_
 _symmetry_equiv_pos_site_id
 _symmetry_equiv_pos_as_xyz
  1  'x, y, z'
loop_
 _atom_site_type_symbol
 _atom_site_label
 _atom_site_symmetry_multiplicity
 _atom_site_fract_x
 _atom_site_fract_y
 _atom_site_fract_z
 _atom_site_occupancy
  Ti  Ti0  1  0.00000000  0.75000000  0.87184000  1.0
  Ti  Ti1  1  0.50000000  0.00000000  0.95728000  1.0
  Ti  Ti2  1  0.50000000  0.50000000  0.95728000  1.0
  Ti  Ti3  1  0.00000000  0.25000000  0.87184000  1.0
  Ti  Ti4  1  0.00000000  0.24835000  0.04710000  1.0
  Ti  Ti5  1  0.50000000  0.50000000  0.12408000  1.0
  Ti  Ti6  1  0.50000000  0.00000000  0.12374000  1.0
  Ti  Ti7  1  0.00000000  0.75165000  0.04710000  1.0
  Al  Al8  1  0.00000000  0.50000000  0.95728000  1.0
  Al  Al9  1  0.50000000  0.75000000  0.87184000  1.0
  Al  Al10  1  0.00000000  0.00000000  0.95728000  1.0
  Al  Al11  1  0.50000000  0.25000000  0.87184000  1.0
  Al  Al12  1  0.00000000  0.00000000  0.12648000  1.0
  Al  Al13  1  0.50000000  0.25228000  0.04186000  1.0
  Al  Al14  1  0.00000000  0.50000000  0.12727000  1.0
  Al  Al15  1  0.50000000  0.74772000  0.04186000  1.0
  Au  Au16  1  0.25000000  0.75000000  0.95728000  1.0
  Au  Au17  1  0.75000000  0.25000000  0.95728000  1.0
  Au  Au18  1  0.75000000  0.75000000  0.95728000  1.0
  Au  Au19  1  0.25000000  0.25000000  0.95728000  1.0
  Au  Au20  1  0.75000000  0.50000000  0.87184000  1.0
  Au  Au21  1  0.25000000  0.00000000  0.87184000  1.0
  Au  Au22  1  0.25000000  0.50000000  0.87184000  1.0
  Au  Au23  1  0.75000000  0.00000000  0.87184000  1.0
  Au  Au24  1  0.26305000  0.25209000  0.12857000  1.0
  Au  Au25  1  0.73695000  0.74791000  0.12857000  1.0
  Au  Au26  1  0.73695000  0.25209000  0.12857000  1.0
  Au  Au27  1  0.26305000  0.74791000  0.12857000  1.0
  Au  Au28  1  0.74923000  0.00000000  0.04084000  1.0
  Au  Au29  1  0.24611000  0.50000000  0.04042000  1.0
  Au  Au30  1  0.25077000  0.00000000  0.04084000  1.0
  Au  Au31  1  0.75389000  0.50000000  0.04042000  1.0
  C  C32  1  0.00000000  0.00000000  0.20055000  1.0
  O  O33  1  0.00000000  0.00000000  0.24340000  1.0
