# generated using pymatgen
data_Ti8Al8Au16CO
_symmetry_space_group_name_H-M   Pmm2
_cell_length_a   6.49880000
_cell_length_b   9.19068000
_cell_length_c   26.89300000
_cell_angle_alpha   90.00000000
_cell_angle_beta   90.00000000
_cell_angle_gamma   90.00000000
_symmetry_Int_Tables_number   25
_chemical_formula_structural   Ti8Al8Au16CO
_chemical_formula_sum   'Ti8 Al8 Au16 C1 O1'
_cell_volume   1606.27562411
_cell_formula_units_Z   1
loop_
 _symmetry_equiv_pos_site_id
 _symmetry_equiv_pos_as_xyz
  1  'x, y, z'
  2  '-x, -y, z'
  3  '-x, y, z'
  4  'x, -y, z'
loop_
 _atom_site_type_symbol
 _atom_site_label
 _atom_site_symmetry_multiplicity
 _atom_site_fract_x
 _atom_site_fract_y
 _atom_site_fract_z
 _atom_site_occupancy
  Ti  Ti0  2  0.00000000  0.24835000  0.04710000  1.0
  Ti  Ti1  2  0.00000000  0.25000000  0.87184000  1.0
  Ti  Ti2  1  0.50000000  0.00000000  0.12374000  1.0
  Ti  Ti3  1  0.50000000  0.00000000  0.95728000  1.0
  Ti  Ti4  1  0.50000000  0.50000000  0.12408000  1.0
  Ti  Ti5  1  0.50000000  0.50000000  0.95728000  1.0
  Al  Al6  2  0.50000000  0.25000000  0.87184000  1.0
  Al  Al7  2  0.50000000  0.25228000  0.04186000  1.0
  Al  Al8  1  0.00000000  0.00000000  0.12648000  1.0
  Al  Al9  1  0.00000000  0.00000000  0.95728000  1.0
  Al  Al10  1  0.00000000  0.50000000  0.12727000  1.0
  Al  Al11  1  0.00000000  0.50000000  0.95728000  1.0
  Au  Au12  4  0.25000000  0.25000000  0.95728000  1.0
  Au  Au13  4  0.26305000  0.25209000  0.12857000  1.0
  Au  Au14  2  0.24611000  0.50000000  0.04042000  1.0
  Au  Au15  2  0.25000000  0.00000000  0.87184000  1.0
  Au  Au16  2  0.25000000  0.50000000  0.87184000  1.0
  Au  Au17  2  0.25077000  0.00000000  0.04084000  1.0
  C  C18  1  0.00000000  0.00000000  0.20055000  1.0
  O  O19  1  0.00000000  0.00000000  0.24340000  1.0
