# generated using pymatgen
data_Li8Y8In8Ge8CO
_symmetry_space_group_name_H-M   'P 1'
_cell_length_a   8.57642000
_cell_length_b   9.31878000
_cell_length_c   26.37020000
_cell_angle_alpha   90.00000000
_cell_angle_beta   90.00000000
_cell_angle_gamma   90.00000000
_symmetry_Int_Tables_number   1
_chemical_formula_structural   Li8Y8In8Ge8CO
_chemical_formula_sum   'Li8 Y8 In8 Ge8 C1 O1'
_cell_volume   2107.55309004
_cell_formula_units_Z   1
loop_
 _symmetry_equiv_pos_site_id
 _symmetry_equiv_pos_as_xyz
  1  'x, y, z'
loop_
 _atom_site_type_symbol
 _atom_site_label
 _atom_site_symmetry_multiplicity
 _atom_site_fract_x
 _atom_site_fract_y
 _atom_site_fract_z
 _atom_site_occupancy
  Li  Li0  1  0.23918000  0.26903000  0.13613000  1.0
  Li  Li1  1  0.25000000  0.25000000  0.95974000  1.0
  Li  Li2  1  0.23918000  0.73097000  0.13613000  1.0
  Li  Li3  1  0.25000000  0.75000000  0.95974000  1.0
  Li  Li4  1  0.76082000  0.26903000  0.13613000  1.0
  Li  Li5  1  0.75000000  0.25000000  0.95974000  1.0
  Li  Li6  1  0.76082000  0.73097000  0.13613000  1.0
  Li  Li7  1  0.75000000  0.75000000  0.95974000  1.0
  Y  Y8  1  0.25124000  0.00000000  0.04243000  1.0
  Y  Y9  1  0.25000000  0.00000000  0.87922000  1.0
  Y  Y10  1  0.25866000  0.50000000  0.04110000  1.0
  Y  Y11  1  0.25000000  0.50000000  0.87922000  1.0
  Y  Y12  1  0.74876000  0.00000000  0.04243000  1.0
  Y  Y13  1  0.75000000  0.00000000  0.87922000  1.0
  Y  Y14  1  0.74134000  0.50000000  0.04110000  1.0
  Y  Y15  1  0.75000000  0.50000000  0.87922000  1.0
  In  In16  1  0.00000000  0.26132000  0.04540000  1.0
  In  In17  1  0.00000000  0.25000000  0.87922000  1.0
  In  In18  1  0.00000000  0.73868000  0.04540000  1.0
  In  In19  1  0.00000000  0.75000000  0.87922000  1.0
  In  In20  1  0.50000000  0.24696000  0.05874000  1.0
  In  In21  1  0.50000000  0.25000000  0.87922000  1.0
  In  In22  1  0.50000000  0.75304000  0.05874000  1.0
  In  In23  1  0.50000000  0.75000000  0.87922000  1.0
  Ge  Ge24  1  0.00000000  0.00000000  0.12016000  1.0
  Ge  Ge25  1  0.00000000  0.00000000  0.95974000  1.0
  Ge  Ge26  1  0.00000000  0.50000000  0.11952000  1.0
  Ge  Ge27  1  0.00000000  0.50000000  0.95974000  1.0
  Ge  Ge28  1  0.50000000  0.00000000  0.12561000  1.0
  Ge  Ge29  1  0.50000000  0.00000000  0.95974000  1.0
  Ge  Ge30  1  0.50000000  0.50000000  0.12621000  1.0
  Ge  Ge31  1  0.50000000  0.50000000  0.95974000  1.0
  C  C32  1  0.00000000  0.00000000  0.19139000  1.0
  O  O33  1  0.00000000  0.00000000  0.23586000  1.0
