# generated using pymatgen
data_Li8Cu8Sn8Ge8CO
_symmetry_space_group_name_H-M   'P 1'
_cell_length_a   9.29718000
_cell_length_b   6.57410000
_cell_length_c   26.97290000
_cell_angle_alpha   90.00000000
_cell_angle_beta   90.00000000
_cell_angle_gamma   90.00000000
_symmetry_Int_Tables_number   1
_chemical_formula_structural   Li8Cu8Sn8Ge8CO
_chemical_formula_sum   'Li8 Cu8 Sn8 Ge8 C1 O1'
_cell_volume   1648.59959001
_cell_formula_units_Z   1
loop_
 _symmetry_equiv_pos_site_id
 _symmetry_equiv_pos_as_xyz
  1  'x, y, z'
loop_
 _atom_site_type_symbol
 _atom_site_label
 _atom_site_symmetry_multiplicity
 _atom_site_fract_x
 _atom_site_fract_y
 _atom_site_fract_z
 _atom_site_occupancy
  Li  Li0  1  0.00000000  1.00000000  0.04309000  1.0
  Li  Li1  1  0.50000000  1.00000000  0.04309000  1.0
  Li  Li2  1  0.25000000  0.50000000  0.12926000  1.0
  Li  Li3  1  0.75000000  0.50000000  0.12926000  1.0
  Li  Li4  1  0.50000000  0.04906000  0.84892000  1.0
  Li  Li5  1  0.00000000  0.03086000  0.85695000  1.0
  Li  Li6  1  0.74810000  0.52082000  0.95650000  1.0
  Li  Li7  1  0.25190000  0.52082000  0.95650000  1.0
  Cu  Cu8  1  0.75000000  0.00000000  0.12926000  1.0
  Cu  Cu9  1  0.25000000  0.00000000  0.12926000  1.0
  Cu  Cu10  1  0.50000000  0.50000000  0.04309000  1.0
  Cu  Cu11  1  0.00000000  0.50000000  0.04309000  1.0
  Cu  Cu12  1  0.24958000  0.97765000  0.94999000  1.0
  Cu  Cu13  1  0.75042000  0.97765000  0.94999000  1.0
  Cu  Cu14  1  0.00000000  0.48893000  0.87174000  1.0
  Cu  Cu15  1  0.50000000  0.48456000  0.87717000  1.0
  Sn  Sn16  1  0.75000000  0.75000000  0.04309000  1.0
  Sn  Sn17  1  0.25000000  0.75000000  0.04309000  1.0
  Sn  Sn18  1  0.00000000  0.25000000  0.12926000  1.0
  Sn  Sn19  1  0.50000000  0.25000000  0.12926000  1.0
  Sn  Sn20  1  0.26473000  0.73790000  0.86051000  1.0
  Sn  Sn21  1  0.73527000  0.73790000  0.86051000  1.0
  Sn  Sn22  1  0.50000000  0.23338000  0.95676000  1.0
  Sn  Sn23  1  0.00000000  0.24185000  0.95388000  1.0
  Ge  Ge24  1  0.75000000  0.25000000  0.04309000  1.0
  Ge  Ge25  1  0.25000000  0.25000000  0.04309000  1.0
  Ge  Ge26  1  0.00000000  0.75000000  0.12926000  1.0
  Ge  Ge27  1  0.50000000  0.75000000  0.12926000  1.0
  Ge  Ge28  1  0.26379000  0.27879000  0.87342000  1.0
  Ge  Ge29  1  0.73621000  0.27879000  0.87342000  1.0
  Ge  Ge30  1  0.50000000  0.77343000  0.94677000  1.0
  Ge  Ge31  1  0.00000000  0.76815000  0.94460000  1.0
  C  C32  1  0.00000000  0.47994000  0.80218000  1.0
  O  O33  1  0.00000000  0.47776000  0.75924000  1.0
