# generated using pymatgen
data_Na24As8CO
_symmetry_space_group_name_H-M   'P 1'
_cell_length_a   10.18400000
_cell_length_b   7.20118000
_cell_length_c   27.63800000
_cell_angle_alpha   90.00000000
_cell_angle_beta   90.00000000
_cell_angle_gamma   90.00000000
_symmetry_Int_Tables_number   1
_chemical_formula_structural   Na24As8CO
_chemical_formula_sum   'Na24 As8 C1 O1'
_cell_volume   2026.88295156
_cell_formula_units_Z   1
loop_
 _symmetry_equiv_pos_site_id
 _symmetry_equiv_pos_as_xyz
  1  'x, y, z'
loop_
 _atom_site_type_symbol
 _atom_site_label
 _atom_site_symmetry_multiplicity
 _atom_site_fract_x
 _atom_site_fract_y
 _atom_site_fract_z
 _atom_site_occupancy
  Na  Na0  1  0.00000000  0.75000000  0.04606000  1.0
  Na  Na1  1  0.50000000  0.25000000  0.04606000  1.0
  Na  Na2  1  0.00000000  0.25000000  0.04606000  1.0
  Na  Na3  1  0.50000000  0.75000000  0.04606000  1.0
  Na  Na4  1  0.75000000  0.25000000  0.13818000  1.0
  Na  Na5  1  0.25000000  0.75000000  0.13818000  1.0
  Na  Na6  1  0.75000000  0.75000000  0.13818000  1.0
  Na  Na7  1  0.25000000  0.25000000  0.13818000  1.0
  Na  Na8  1  0.75000000  0.00000000  0.04606000  1.0
  Na  Na9  1  0.00000000  0.50000000  0.13818000  1.0
  Na  Na10  1  0.25000000  0.00000000  0.04606000  1.0
  Na  Na11  1  0.50000000  0.50000000  0.13818000  1.0
  Na  Na12  1  0.51716000  0.73319000  0.84766000  1.0
  Na  Na13  1  0.98267000  0.26707000  0.84757000  1.0
  Na  Na14  1  0.51716000  0.26681000  0.84766000  1.0
  Na  Na15  1  0.98267000  0.73293000  0.84757000  1.0
  Na  Na16  1  0.25001000  0.23986000  0.95568000  1.0
  Na  Na17  1  0.74987000  0.76675000  0.95305000  1.0
  Na  Na18  1  0.25001000  0.76014000  0.95568000  1.0
  Na  Na19  1  0.74987000  0.23325000  0.95305000  1.0
  Na  Na20  1  0.24974000  0.00000000  0.85605000  1.0
  Na  Na21  1  0.52711000  0.50000000  0.95259000  1.0
  Na  Na22  1  0.75012000  0.00000000  0.86145000  1.0
  Na  Na23  1  0.97252000  0.50000000  0.95262000  1.0
  As  As24  1  0.00000000  0.00000000  0.13818000  1.0
  As  As25  1  0.25000000  0.50000000  0.04606000  1.0
  As  As26  1  0.75000000  0.50000000  0.04606000  1.0
  As  As27  1  0.50000000  0.00000000  0.13818000  1.0
  As  As28  1  0.49544000  0.00000000  0.94189000  1.0
  As  As29  1  0.74992000  0.50000000  0.87000000  1.0
  As  As30  1  0.25008000  0.50000000  0.85904000  1.0
  As  As31  1  0.00440000  0.00000000  0.94182000  1.0
  C  C32  1  0.25160000  0.50000000  0.79395000  1.0
  O  O33  1  0.25240000  0.50000000  0.75146000  1.0
