# generated using pymatgen
data_Na24As8CO
_symmetry_space_group_name_H-M   Pm
_cell_length_a   10.18400000
_cell_length_b   7.20118000
_cell_length_c   27.63800000
_cell_angle_alpha   90.00000000
_cell_angle_beta   90.00000000
_cell_angle_gamma   90.00000000
_symmetry_Int_Tables_number   6
_chemical_formula_structural   Na24As8CO
_chemical_formula_sum   'Na24 As8 C1 O1'
_cell_volume   2026.88295156
_cell_formula_units_Z   1
loop_
 _symmetry_equiv_pos_site_id
 _symmetry_equiv_pos_as_xyz
  1  'x, y, z'
  2  'x, -y, z'
loop_
 _atom_site_type_symbol
 _atom_site_label
 _atom_site_symmetry_multiplicity
 _atom_site_fract_x
 _atom_site_fract_y
 _atom_site_fract_z
 _atom_site_occupancy
  Na  Na0  2  0.00000000  0.25000000  0.95394000  1.0
  Na  Na1  2  0.25000000  0.25000000  0.86182000  1.0
  Na  Na2  2  0.25001000  0.23986000  0.04432000  1.0
  Na  Na3  2  0.50000000  0.25000000  0.95394000  1.0
  Na  Na4  2  0.51716000  0.26681000  0.15234000  1.0
  Na  Na5  2  0.74987000  0.23325000  0.04695000  1.0
  Na  Na6  2  0.75000000  0.25000000  0.86182000  1.0
  Na  Na7  2  0.98267000  0.26707000  0.15243000  1.0
  Na  Na8  1  0.00000000  0.50000000  0.86182000  1.0
  Na  Na9  1  0.24974000  0.00000000  0.14395000  1.0
  Na  Na10  1  0.25000000  0.00000000  0.95394000  1.0
  Na  Na11  1  0.50000000  0.50000000  0.86182000  1.0
  Na  Na12  1  0.52711000  0.50000000  0.04741000  1.0
  Na  Na13  1  0.75000000  0.00000000  0.95394000  1.0
  Na  Na14  1  0.75012000  0.00000000  0.13855000  1.0
  Na  Na15  1  0.97252000  0.50000000  0.04738000  1.0
  As  As16  1  0.00000000  0.00000000  0.86182000  1.0
  As  As17  1  0.00440000  0.00000000  0.05818000  1.0
  As  As18  1  0.25000000  0.50000000  0.95394000  1.0
  As  As19  1  0.25008000  0.50000000  0.14096000  1.0
  As  As20  1  0.49544000  0.00000000  0.05811000  1.0
  As  As21  1  0.50000000  0.00000000  0.86182000  1.0
  As  As22  1  0.74992000  0.50000000  0.13000000  1.0
  As  As23  1  0.75000000  0.50000000  0.95394000  1.0
  C  C24  1  0.25160000  0.50000000  0.20605000  1.0
  O  O25  1  0.25240000  0.50000000  0.24854000  1.0
