# generated using pymatgen
data_MnZn3
_symmetry_space_group_name_H-M   'P 1'
_cell_length_a   3.82276500
_cell_length_b   3.82276500
_cell_length_c   25.73410000
_cell_angle_alpha   90.00000000
_cell_angle_beta   90.00000000
_cell_angle_gamma   90.00000000
_symmetry_Int_Tables_number   1
_chemical_formula_structural   MnZn3
_chemical_formula_sum   'Mn2 Zn6'
_cell_volume   376.06610015
_cell_formula_units_Z   2
loop_
 _symmetry_equiv_pos_site_id
 _symmetry_equiv_pos_as_xyz
  1  'x, y, z'
loop_
 _atom_site_type_symbol
 _atom_site_label
 _atom_site_symmetry_multiplicity
 _atom_site_fract_x
 _atom_site_fract_y
 _atom_site_fract_z
 _atom_site_occupancy
  Mn  Mn0  1  0.00000000  0.00000000  0.11141000  1.0
  Mn  Mn1  1  0.00000000  0.00000000  0.96286000  1.0
  Zn  Zn2  1  0.50000000  0.00000000  0.03714000  1.0
  Zn  Zn3  1  0.00000000  0.50000000  0.03714000  1.0
  Zn  Zn4  1  0.50000000  0.50000000  0.11141000  1.0
  Zn  Zn5  1  0.50000000  0.00000000  0.88859000  1.0
  Zn  Zn6  1  0.00000000  0.50000000  0.88859000  1.0
  Zn  Zn7  1  0.50000000  0.50000000  0.96286000  1.0
