# generated using pymatgen
data_Ga16Co16C
_symmetry_space_group_name_H-M   'P 1'
_cell_length_a   5.76941000
_cell_length_b   8.15918000
_cell_length_c   26.11940000
_cell_angle_alpha   90.00000000
_cell_angle_beta   90.00000000
_cell_angle_gamma   90.00000000
_symmetry_Int_Tables_number   1
_chemical_formula_structural   Ga16Co16C
_chemical_formula_sum   'Ga16 Co16 C1'
_cell_volume   1229.53561615
_cell_formula_units_Z   1
loop_
 _symmetry_equiv_pos_site_id
 _symmetry_equiv_pos_as_xyz
  1  'x, y, z'
loop_
 _atom_site_type_symbol
 _atom_site_label
 _atom_site_symmetry_multiplicity
 _atom_site_fract_x
 _atom_site_fract_y
 _atom_site_fract_z
 _atom_site_occupancy
  Ga  Ga0  1  0.25000000  0.25000000  0.88286000  1.0
  Ga  Ga1  1  0.25000000  0.00000000  0.96095000  1.0
  Ga  Ga2  1  0.24633000  0.25093000  0.03947000  1.0
  Ga  Ga3  1  0.29799000  0.00000000  0.11934000  1.0
  Ga  Ga4  1  0.25000000  0.75000000  0.88286000  1.0
  Ga  Ga5  1  0.25000000  0.50000000  0.96095000  1.0
  Ga  Ga6  1  0.24633000  0.74907000  0.03947000  1.0
  Ga  Ga7  1  0.23740000  0.50000000  0.12451000  1.0
  Ga  Ga8  1  0.75000000  0.25000000  0.88286000  1.0
  Ga  Ga9  1  0.75000000  0.00000000  0.96095000  1.0
  Ga  Ga10  1  0.75367000  0.25093000  0.03947000  1.0
  Ga  Ga11  1  0.70201000  0.00000000  0.11934000  1.0
  Ga  Ga12  1  0.75000000  0.75000000  0.88286000  1.0
  Ga  Ga13  1  0.75000000  0.50000000  0.96095000  1.0
  Ga  Ga14  1  0.75367000  0.74907000  0.03947000  1.0
  Ga  Ga15  1  0.76260000  0.50000000  0.12451000  1.0
  Co  Co16  1  0.00000000  0.00000000  0.88286000  1.0
  Co  Co17  1  0.00000000  0.25000000  0.96095000  1.0
  Co  Co18  1  0.00000000  0.00000000  0.03852000  1.0
  Co  Co19  1  0.00000000  0.22020000  0.12029000  1.0
  Co  Co20  1  0.00000000  0.50000000  0.88286000  1.0
  Co  Co21  1  0.00000000  0.75000000  0.96095000  1.0
  Co  Co22  1  0.00000000  0.50000000  0.04005000  1.0
  Co  Co23  1  0.00000000  0.77980000  0.12029000  1.0
  Co  Co24  1  0.50000000  0.00000000  0.88286000  1.0
  Co  Co25  1  0.50000000  0.25000000  0.96095000  1.0
  Co  Co26  1  0.50000000  0.00000000  0.03593000  1.0
  Co  Co27  1  0.50000000  0.26563000  0.11220000  1.0
  Co  Co28  1  0.50000000  0.50000000  0.88286000  1.0
  Co  Co29  1  0.50000000  0.75000000  0.96095000  1.0
  Co  Co30  1  0.50000000  0.50000000  0.03808000  1.0
  Co  Co31  1  0.50000000  0.73437000  0.11220000  1.0
  C  C32  1  0.00000000  0.00000000  0.14927000  1.0
