# generated using pymatgen
data_Li16Mg8Pb8C
_symmetry_space_group_name_H-M   Pm
_cell_length_a   6.88544000
_cell_length_b   9.73748000
_cell_length_c   27.30310000
_cell_angle_alpha   90.00000000
_cell_angle_beta   90.00000000
_cell_angle_gamma   90.00000000
_symmetry_Int_Tables_number   6
_chemical_formula_structural   Li16Mg8Pb8C
_chemical_formula_sum   'Li16 Mg8 Pb8 C1'
_cell_volume   1830.58642134
_cell_formula_units_Z   1
loop_
 _symmetry_equiv_pos_site_id
 _symmetry_equiv_pos_as_xyz
  1  'x, y, z'
  2  'x, -y, z'
loop_
 _atom_site_type_symbol
 _atom_site_label
 _atom_site_symmetry_multiplicity
 _atom_site_fract_x
 _atom_site_fract_y
 _atom_site_fract_z
 _atom_site_occupancy
  Li  Li0  2  0.24212000  0.21835000  0.14051000  1.0
  Li  Li1  2  0.25000000  0.25000000  0.95542000  1.0
  Li  Li2  2  0.75000000  0.25000000  0.95542000  1.0
  Li  Li3  2  0.75461000  0.27679000  0.13864000  1.0
  Li  Li4  1  0.23117000  0.00000000  0.05547000  1.0
  Li  Li5  1  0.24734000  0.50000000  0.03986000  1.0
  Li  Li6  1  0.25000000  0.00000000  0.86626000  1.0
  Li  Li7  1  0.25000000  0.50000000  0.86626000  1.0
  Li  Li8  1  0.74511000  0.50000000  0.04510000  1.0
  Li  Li9  1  0.75000000  0.00000000  0.86626000  1.0
  Li  Li10  1  0.75000000  0.50000000  0.86626000  1.0
  Li  Li11  1  0.75948000  0.00000000  0.03902000  1.0
  Mg  Mg12  2  0.00000000  0.25000000  0.86626000  1.0
  Mg  Mg13  2  0.99640000  0.26178000  0.04687000  1.0
  Mg  Mg14  1  0.46569000  0.50000000  0.12983000  1.0
  Mg  Mg15  1  0.50000000  0.00000000  0.95542000  1.0
  Mg  Mg16  1  0.50000000  0.50000000  0.95542000  1.0
  Mg  Mg17  1  0.53728000  0.00000000  0.12597000  1.0
  Pb  Pb18  2  0.50000000  0.25000000  0.86626000  1.0
  Pb  Pb19  2  0.50159000  0.25201000  0.04798000  1.0
  Pb  Pb20  1  -0.00000000  0.50000000  0.95542000  1.0
  Pb  Pb21  1  -0.00000000  0.00000000  0.95542000  1.0
  Pb  Pb22  1  0.01488000  0.50000000  0.13263000  1.0
  Pb  Pb23  1  0.94086000  0.00000000  0.15284000  1.0
  C  C24  1  0.24475000  0.00000000  0.13623000  1.0
