# generated using pymatgen
data_Sc12In4C
_symmetry_space_group_name_H-M   Pm
_cell_length_a   6.40504000
_cell_length_b   9.05810000
_cell_length_c   24.80380000
_cell_angle_alpha   90.00000000
_cell_angle_beta   90.00000000
_cell_angle_gamma   90.00000000
_symmetry_Int_Tables_number   6
_chemical_formula_structural   Sc12In4C
_chemical_formula_sum   'Sc12 In4 C1'
_cell_volume   1439.05428851
_cell_formula_units_Z   1
loop_
 _symmetry_equiv_pos_site_id
 _symmetry_equiv_pos_as_xyz
  1  'x, y, z'
  2  'x, -y, z'
loop_
 _atom_site_type_symbol
 _atom_site_label
 _atom_site_symmetry_multiplicity
 _atom_site_fract_x
 _atom_site_fract_y
 _atom_site_fract_z
 _atom_site_occupancy
  Sc  Sc0  2  0.00000000  0.25000000  0.03228000  1.0
  Sc  Sc1  2  0.50404000  0.27104000  0.89370000  1.0
  Sc  Sc2  1  0.25000000  0.00000000  0.09684000  1.0
  Sc  Sc3  1  0.25000000  0.50000000  0.09684000  1.0
  Sc  Sc4  1  0.25546000  0.50000000  0.96618000  1.0
  Sc  Sc5  1  0.25666000  0.00000000  0.96634000  1.0
  Sc  Sc6  1  0.75000000  0.00000000  0.09684000  1.0
  Sc  Sc7  1  0.75000000  0.50000000  0.09684000  1.0
  Sc  Sc8  1  0.75051000  0.00000000  0.96603000  1.0
  Sc  Sc9  1  0.75170000  0.50000000  0.96613000  1.0
  In  In10  2  0.00377000  0.24362000  0.91158000  1.0
  In  In11  2  0.50000000  0.25000000  0.03228000  1.0
  C  C12  1  0.50346000  0.50000000  0.90863000  1.0
