# generated using pymatgen
data_Y8Sn8Ge8Pd8CO
_symmetry_space_group_name_H-M   'P 1'
_cell_length_a   8.11456000
_cell_length_b   8.65102000
_cell_length_c   27.20230000
_cell_angle_alpha   90.00000000
_cell_angle_beta   90.00000000
_cell_angle_gamma   90.00000000
_symmetry_Int_Tables_number   1
_chemical_formula_structural   Y8Sn8Ge8Pd8CO
_chemical_formula_sum   'Y8 Sn8 Ge8 Pd8 C1 O1'
_cell_volume   1909.58026536
_cell_formula_units_Z   1
loop_
 _symmetry_equiv_pos_site_id
 _symmetry_equiv_pos_as_xyz
  1  'x, y, z'
loop_
 _atom_site_type_symbol
 _atom_site_label
 _atom_site_symmetry_multiplicity
 _atom_site_fract_x
 _atom_site_fract_y
 _atom_site_fract_z
 _atom_site_occupancy
  Y  Y0  1  0.25000000  0.25000000  0.13238000  1.0
  Y  Y1  1  0.25000000  0.25000000  0.95587000  1.0
  Y  Y2  1  0.25000000  0.75000000  0.13238000  1.0
  Y  Y3  1  0.25000000  0.75000000  0.95587000  1.0
  Y  Y4  1  0.75000000  0.25000000  0.13238000  1.0
  Y  Y5  1  0.75000000  0.25000000  0.95587000  1.0
  Y  Y6  1  0.75000000  0.75000000  0.13238000  1.0
  Y  Y7  1  0.75000000  0.75000000  0.95587000  1.0
  Sn  Sn8  1  0.25000000  0.00000000  0.04413000  1.0
  Sn  Sn9  1  0.25000000  0.00000000  0.86762000  1.0
  Sn  Sn10  1  0.25000000  0.50000000  0.04413000  1.0
  Sn  Sn11  1  0.25000000  0.50000000  0.86762000  1.0
  Sn  Sn12  1  0.75000000  0.00000000  0.04413000  1.0
  Sn  Sn13  1  0.75000000  0.00000000  0.86762000  1.0
  Sn  Sn14  1  0.75000000  0.50000000  0.04413000  1.0
  Sn  Sn15  1  0.75000000  0.50000000  0.86762000  1.0
  Ge  Ge16  1  0.00000000  0.00000000  0.13238000  1.0
  Ge  Ge17  1  0.00000000  0.00000000  0.95587000  1.0
  Ge  Ge18  1  0.00000000  0.50000000  0.13238000  1.0
  Ge  Ge19  1  0.00000000  0.50000000  0.95587000  1.0
  Ge  Ge20  1  0.50000000  0.00000000  0.13238000  1.0
  Ge  Ge21  1  0.50000000  0.00000000  0.95587000  1.0
  Ge  Ge22  1  0.50000000  0.50000000  0.13238000  1.0
  Ge  Ge23  1  0.50000000  0.50000000  0.95587000  1.0
  Pd  Pd24  1  0.00000000  0.25000000  0.04413000  1.0
  Pd  Pd25  1  0.00000000  0.25000000  0.86762000  1.0
  Pd  Pd26  1  0.00000000  0.75000000  0.04413000  1.0
  Pd  Pd27  1  0.00000000  0.75000000  0.86762000  1.0
  Pd  Pd28  1  0.50000000  0.25000000  0.04413000  1.0
  Pd  Pd29  1  0.50000000  0.25000000  0.86762000  1.0
  Pd  Pd30  1  0.50000000  0.75000000  0.04413000  1.0
  Pd  Pd31  1  0.50000000  0.75000000  0.86762000  1.0
  C  C32  1  0.00000000  0.00000000  0.20223000  1.0
  O  O33  1  0.00000000  0.00000000  0.24451000  1.0
