# generated using pymatgen
data_Y8In8CO
_symmetry_space_group_name_H-M   'P 1'
_cell_length_a   7.55034000
_cell_length_b   7.55034000
_cell_length_c   25.66280000
_cell_angle_alpha   90.00000000
_cell_angle_beta   90.00000000
_cell_angle_gamma   90.00000000
_symmetry_Int_Tables_number   1
_chemical_formula_structural   Y8In8CO
_chemical_formula_sum   'Y8 In8 C1 O1'
_cell_volume   1462.97551278
_cell_formula_units_Z   1
loop_
 _symmetry_equiv_pos_site_id
 _symmetry_equiv_pos_as_xyz
  1  'x, y, z'
loop_
 _atom_site_type_symbol
 _atom_site_label
 _atom_site_symmetry_multiplicity
 _atom_site_fract_x
 _atom_site_fract_y
 _atom_site_fract_z
 _atom_site_occupancy
  Y  Y0  1  0.75000000  0.75000000  0.89435000  1.0
  Y  Y1  1  0.75000000  0.75000000  0.04145000  1.0
  Y  Y2  1  0.75000000  0.25000000  0.89435000  1.0
  Y  Y3  1  0.75000000  0.25000000  0.04145000  1.0
  Y  Y4  1  0.25000000  0.75000000  0.89435000  1.0
  Y  Y5  1  0.25000000  0.75000000  0.04145000  1.0
  Y  Y6  1  0.25000000  0.25000000  0.89435000  1.0
  Y  Y7  1  0.25000000  0.25000000  0.04145000  1.0
  In  In8  1  0.00000000  0.00000000  0.96790000  1.0
  In  In9  1  0.00000000  0.00000000  0.11501000  1.0
  In  In10  1  0.00000000  0.50000000  0.96790000  1.0
  In  In11  1  0.00000000  0.50000000  0.11501000  1.0
  In  In12  1  0.50000000  0.00000000  0.96790000  1.0
  In  In13  1  0.50000000  0.00000000  0.11501000  1.0
  In  In14  1  0.50000000  0.50000000  0.96790000  1.0
  In  In15  1  0.50000000  0.50000000  0.11501000  1.0
  C  C16  1  0.00000000  0.00000000  0.18905000  1.0
  O  O17  1  0.00000000  0.00000000  0.23386000  1.0
