data_image0
_chemical_formula_structural       Co32
_chemical_formula_sum              "Co32"
_cell_length_a       7.08825
_cell_length_b       7.08825
_cell_length_c       25.3162
_cell_angle_alpha    90
_cell_angle_beta     90
_cell_angle_gamma    90

_space_group_name_H-M_alt    "P 1"
_space_group_IT_number       1

loop_
  _space_group_symop_operation_xyz
  'x, y, z'

loop_
  _atom_site_type_symbol
  _atom_site_label
  _atom_site_symmetry_multiplicity
  _atom_site_fract_x
  _atom_site_fract_y
  _atom_site_fract_z
  _atom_site_occupancy
  Co  Co1       1.0  0.00000  0.00000  0.89500  1.0000
  Co  Co2       1.0  0.25000  0.25000  0.89500  1.0000
  Co  Co3       1.0  0.25000  0.00000  0.96500  1.0000
  Co  Co4       1.0  0.00000  0.25000  0.96500  1.0000
  Co  Co5       1.0  0.00000  0.00000  0.03500  1.0000
  Co  Co6       1.0  0.25000  0.25000  0.03500  1.0000
  Co  Co7       1.0  0.25000  0.00000  0.10500  1.0000
  Co  Co8       1.0  0.00000  0.25000  0.10500  1.0000
  Co  Co9       1.0  0.00000  0.50000  0.89500  1.0000
  Co  Co10      1.0  0.25000  0.75000  0.89500  1.0000
  Co  Co11      1.0  0.25000  0.50000  0.96500  1.0000
  Co  Co12      1.0  0.00000  0.75000  0.96500  1.0000
  Co  Co13      1.0  0.00000  0.50000  0.03500  1.0000
  Co  Co14      1.0  0.25000  0.75000  0.03500  1.0000
  Co  Co15      1.0  0.25000  0.50000  0.10500  1.0000
  Co  Co16      1.0  0.00000  0.75000  0.10500  1.0000
  Co  Co17      1.0  0.50000  0.00000  0.89500  1.0000
  Co  Co18      1.0  0.75000  0.25000  0.89500  1.0000
  Co  Co19      1.0  0.75000  0.00000  0.96500  1.0000
  Co  Co20      1.0  0.50000  0.25000  0.96500  1.0000
  Co  Co21      1.0  0.50000  0.00000  0.03500  1.0000
  Co  Co22      1.0  0.75000  0.25000  0.03500  1.0000
  Co  Co23      1.0  0.75000  0.00000  0.10500  1.0000
  Co  Co24      1.0  0.50000  0.25000  0.10500  1.0000
  Co  Co25      1.0  0.50000  0.50000  0.89500  1.0000
  Co  Co26      1.0  0.75000  0.75000  0.89500  1.0000
  Co  Co27      1.0  0.75000  0.50000  0.96500  1.0000
  Co  Co28      1.0  0.50000  0.75000  0.96500  1.0000
  Co  Co29      1.0  0.50000  0.50000  0.03500  1.0000
  Co  Co30      1.0  0.75000  0.75000  0.03500  1.0000
  Co  Co31      1.0  0.75000  0.50000  0.10500  1.0000
  Co  Co32      1.0  0.50000  0.75000  0.10500  1.0000
