# generated using pymatgen
data_Li16Bi8Au8CO
_symmetry_space_group_name_H-M   'P 1'
_cell_length_a   9.72919000
_cell_length_b   6.87958000
_cell_length_c   27.29690000
_cell_angle_alpha   90.00000000
_cell_angle_beta   90.00000000
_cell_angle_gamma   90.00000000
_symmetry_Int_Tables_number   1
_chemical_formula_structural   Li16Bi8Au8CO
_chemical_formula_sum   'Li16 Bi8 Au8 C1 O1'
_cell_volume   1827.05633617
_cell_formula_units_Z   1
loop_
 _symmetry_equiv_pos_site_id
 _symmetry_equiv_pos_as_xyz
  1  'x, y, z'
loop_
 _atom_site_type_symbol
 _atom_site_label
 _atom_site_symmetry_multiplicity
 _atom_site_fract_x
 _atom_site_fract_y
 _atom_site_fract_z
 _atom_site_occupancy
  Li  Li0  1  0.74996000  1.00000000  0.04455000  1.0
  Li  Li1  1  0.00000000  0.50000000  0.13366000  1.0
  Li  Li2  1  0.25004000  1.00000000  0.04455000  1.0
  Li  Li3  1  0.50000000  0.50000000  0.13366000  1.0
  Li  Li4  1  0.24996000  0.25000000  0.13366000  1.0
  Li  Li5  1  0.75004000  0.25000000  0.13366000  1.0
  Li  Li6  1  0.50000000  0.75000000  0.04455000  1.0
  Li  Li7  1  0.00000000  0.75000000  0.04455000  1.0
  Li  Li8  1  0.24997000  0.02199000  0.87442000  1.0
  Li  Li9  1  0.50000000  0.49179000  0.96242000  1.0
  Li  Li10  1  0.75003000  0.02199000  0.87442000  1.0
  Li  Li11  1  0.00000000  0.49274000  0.96266000  1.0
  Li  Li12  1  0.75028000  0.27546000  0.94945000  1.0
  Li  Li13  1  0.24972000  0.27546000  0.94945000  1.0
  Li  Li14  1  0.00000000  0.67650000  0.87217000  1.0
  Li  Li15  1  0.50000000  0.67486000  0.87302000  1.0
  Bi  Bi16  1  0.00000000  0.00000000  0.13366000  1.0
  Bi  Bi17  1  0.24996000  0.50000000  0.04455000  1.0
  Bi  Bi18  1  0.75004000  0.50000000  0.04455000  1.0
  Bi  Bi19  1  0.50000000  1.00000000  0.13366000  1.0
  Bi  Bi20  1  0.50000000  0.95960000  0.95487000  1.0
  Bi  Bi21  1  0.74977000  0.44886000  0.84534000  1.0
  Bi  Bi22  1  0.25023000  0.44886000  0.84534000  1.0
  Bi  Bi23  1  0.00000000  0.96006000  0.95461000  1.0
  Au  Au24  1  0.00000000  0.25000000  0.04455000  1.0
  Au  Au25  1  0.50000000  0.25000000  0.04455000  1.0
  Au  Au26  1  0.74996000  0.75000000  0.13366000  1.0
  Au  Au27  1  0.25004000  0.75000000  0.13366000  1.0
  Au  Au28  1  0.50000000  0.26072000  0.88189000  1.0
  Au  Au29  1  0.00000000  0.26317000  0.88250000  1.0
  Au  Au30  1  0.25030000  0.70008000  0.93297000  1.0
  Au  Au31  1  0.74970000  0.70008000  0.93297000  1.0
  C  C32  1  0.00000000  0.04863000  0.75843000  1.0
  O  O33  1  0.00000000  0.16458000  0.72879000  1.0
