# generated using pymatgen
data_Li16Bi8Au8CO
_symmetry_space_group_name_H-M   Pm
_cell_length_a   6.87958000
_cell_length_b   9.72919000
_cell_length_c   27.29690000
_cell_angle_alpha   90.00000000
_cell_angle_beta   90.00000000
_cell_angle_gamma   90.00000000
_symmetry_Int_Tables_number   6
_chemical_formula_structural   Li16Bi8Au8CO
_chemical_formula_sum   'Li16 Bi8 Au8 C1 O1'
_cell_volume   1827.05633617
_cell_formula_units_Z   1
loop_
 _symmetry_equiv_pos_site_id
 _symmetry_equiv_pos_as_xyz
  1  'x, y, z'
  2  'x, -y, z'
loop_
 _atom_site_type_symbol
 _atom_site_label
 _atom_site_symmetry_multiplicity
 _atom_site_fract_x
 _atom_site_fract_y
 _atom_site_fract_z
 _atom_site_occupancy
  Li  Li0  2  -0.00000000  0.25004000  0.95545000  1.0
  Li  Li1  2  0.02199000  0.24997000  0.12558000  1.0
  Li  Li2  2  0.25000000  0.24996000  0.86634000  1.0
  Li  Li3  2  0.27546000  0.24972000  0.05055000  1.0
  Li  Li4  1  0.49179000  0.50000000  0.03758000  1.0
  Li  Li5  1  0.49274000  0.00000000  0.03734000  1.0
  Li  Li6  1  0.50000000  0.00000000  0.86634000  1.0
  Li  Li7  1  0.50000000  0.50000000  0.86634000  1.0
  Li  Li8  1  0.67486000  0.50000000  0.12698000  1.0
  Li  Li9  1  0.67650000  0.00000000  0.12783000  1.0
  Li  Li10  1  0.75000000  0.00000000  0.95545000  1.0
  Li  Li11  1  0.75000000  0.50000000  0.95545000  1.0
  Bi  Bi12  2  0.44886000  0.25023000  0.15466000  1.0
  Bi  Bi13  2  0.50000000  0.24996000  0.95545000  1.0
  Bi  Bi14  1  -0.00000000  0.50000000  0.86634000  1.0
  Bi  Bi15  1  0.00000000  0.00000000  0.86634000  1.0
  Bi  Bi16  1  0.95960000  0.50000000  0.04513000  1.0
  Bi  Bi17  1  0.96006000  0.00000000  0.04539000  1.0
  Au  Au18  2  0.70008000  0.25030000  0.06703000  1.0
  Au  Au19  2  0.75000000  0.25004000  0.86634000  1.0
  Au  Au20  1  0.25000000  0.00000000  0.95545000  1.0
  Au  Au21  1  0.25000000  0.50000000  0.95545000  1.0
  Au  Au22  1  0.26072000  0.50000000  0.11811000  1.0
  Au  Au23  1  0.26317000  0.00000000  0.11750000  1.0
  C  C24  1  0.04863000  0.00000000  0.24157000  1.0
  O  O25  1  0.16458000  0.00000000  0.27121000  1.0
