# generated using pymatgen
data_Li8Al8Ag8Sn8C
_symmetry_space_group_name_H-M   Pmm2
_cell_length_a   8.56020000
_cell_length_b   8.66686000
_cell_length_c   26.12070000
_cell_angle_alpha   90.00000000
_cell_angle_beta   90.00000000
_cell_angle_gamma   90.00000000
_symmetry_Int_Tables_number   25
_chemical_formula_structural   Li8Al8Ag8Sn8C
_chemical_formula_sum   'Li8 Al8 Ag8 Sn8 C1'
_cell_volume   1937.89616891
_cell_formula_units_Z   1
loop_
 _symmetry_equiv_pos_site_id
 _symmetry_equiv_pos_as_xyz
  1  'x, y, z'
  2  '-x, -y, z'
  3  '-x, y, z'
  4  'x, -y, z'
loop_
 _atom_site_type_symbol
 _atom_site_label
 _atom_site_symmetry_multiplicity
 _atom_site_fract_x
 _atom_site_fract_y
 _atom_site_fract_z
 _atom_site_occupancy
  Li  Li0  2  0.00000000  0.25000000  0.96095000  1.0
  Li  Li1  2  0.00000000  0.25011000  0.12364000  1.0
  Li  Li2  2  0.50000000  0.24219000  0.12038000  1.0
  Li  Li3  2  0.50000000  0.25000000  0.96095000  1.0
  Al  Al4  2  0.22703000  0.00000000  0.12286000  1.0
  Al  Al5  2  0.25000000  0.00000000  0.96095000  1.0
  Al  Al6  2  0.25000000  0.50000000  0.96095000  1.0
  Al  Al7  2  0.25672000  0.50000000  0.11660000  1.0
  Ag  Ag8  4  0.25000000  0.25000000  0.88284000  1.0
  Ag  Ag9  4  0.25136000  0.25091000  0.03692000  1.0
  Sn  Sn10  1  0.00000000  0.00000000  0.03527000  1.0
  Sn  Sn11  1  0.00000000  0.00000000  0.88284000  1.0
  Sn  Sn12  1  0.00000000  0.50000000  0.04450000  1.0
  Sn  Sn13  1  0.00000000  0.50000000  0.88284000  1.0
  Sn  Sn14  1  0.50000000  0.00000000  0.03921000  1.0
  Sn  Sn15  1  0.50000000  0.00000000  0.88284000  1.0
  Sn  Sn16  1  0.50000000  0.50000000  0.03915000  1.0
  Sn  Sn17  1  0.50000000  0.50000000  0.88284000  1.0
  C  C18  1  0.00000000  0.00000000  0.12427000  1.0
