# generated using pymatgen
data_Li8Al8Fe8Pd8C
_symmetry_space_group_name_H-M   Pm
_cell_length_a   5.67696000
_cell_length_b   8.60712000
_cell_length_c   26.63180000
_cell_angle_alpha   90.00000000
_cell_angle_beta   90.00000000
_cell_angle_gamma   90.00000000
_symmetry_Int_Tables_number   6
_chemical_formula_structural   Li8Al8Fe8Pd8C
_chemical_formula_sum   'Li8 Al8 Fe8 Pd8 C1'
_cell_volume   1301.29036078
_cell_formula_units_Z   1
loop_
 _symmetry_equiv_pos_site_id
 _symmetry_equiv_pos_as_xyz
  1  'x, y, z'
  2  'x, -y, z'
loop_
 _atom_site_type_symbol
 _atom_site_label
 _atom_site_symmetry_multiplicity
 _atom_site_fract_x
 _atom_site_fract_y
 _atom_site_fract_z
 _atom_site_occupancy
  Li  Li0  1  -0.00000000  0.50000000  0.95850000  1.0
  Li  Li1  1  -0.00000000  0.00000000  0.95850000  1.0
  Li  Li2  1  0.01732000  0.50000000  0.13413000  1.0
  Li  Li3  1  0.48273000  0.50000000  0.13421000  1.0
  Li  Li4  1  0.50000000  0.00000000  0.95850000  1.0
  Li  Li5  1  0.50000000  0.50000000  0.95850000  1.0
  Li  Li6  1  0.57088000  0.00000000  0.11510000  1.0
  Li  Li7  1  0.92902000  0.00000000  0.11524000  1.0
  Al  Al8  2  0.00000000  0.25000000  0.87549000  1.0
  Al  Al9  2  0.50000000  0.25000000  0.87549000  1.0
  Al  Al10  2  0.50055000  0.25025000  0.03912000  1.0
  Al  Al11  2  0.99953000  0.25087000  0.03913000  1.0
  Fe  Fe12  1  0.24928000  0.00000000  0.04974000  1.0
  Fe  Fe13  1  0.25000000  0.00000000  0.87549000  1.0
  Fe  Fe14  1  0.25000000  0.50000000  0.87549000  1.0
  Fe  Fe15  1  0.25096000  0.50000000  0.04685000  1.0
  Fe  Fe16  1  0.74901000  0.50000000  0.04228000  1.0
  Fe  Fe17  1  0.75000000  0.00000000  0.87549000  1.0
  Fe  Fe18  1  0.75000000  0.50000000  0.87549000  1.0
  Fe  Fe19  1  0.75074000  0.00000000  0.03128000  1.0
  Pd  Pd20  2  0.25000000  0.25000000  0.95850000  1.0
  Pd  Pd21  2  0.25001000  0.22824000  0.12090000  1.0
  Pd  Pd22  2  0.74999000  0.27356000  0.11719000  1.0
  Pd  Pd23  2  0.75000000  0.25000000  0.95850000  1.0
  C  C24  1  0.25003000  0.00000000  0.13329000  1.0
