# generated using pymatgen
data_Sc16Zn16CO
_symmetry_space_group_name_H-M   Pmm2
_cell_length_a   6.70510000
_cell_length_b   9.48244000
_cell_length_c   27.11180000
_cell_angle_alpha   90.00000000
_cell_angle_beta   90.00000000
_cell_angle_gamma   90.00000000
_symmetry_Int_Tables_number   25
_chemical_formula_structural   Sc16Zn16CO
_chemical_formula_sum   'Sc16 Zn16 C1 O1'
_cell_volume   1723.78745119
_cell_formula_units_Z   1
loop_
 _symmetry_equiv_pos_site_id
 _symmetry_equiv_pos_as_xyz
  1  'x, y, z'
  2  '-x, -y, z'
  3  '-x, y, z'
  4  'x, -y, z'
loop_
 _atom_site_type_symbol
 _atom_site_label
 _atom_site_symmetry_multiplicity
 _atom_site_fract_x
 _atom_site_fract_y
 _atom_site_fract_z
 _atom_site_occupancy
  Sc  Sc0  2  0.00000000  0.25000000  0.86884000  1.0
  Sc  Sc1  2  0.00000000  0.25019000  0.04268000  1.0
  Sc  Sc2  2  0.50000000  0.25000000  0.86884000  1.0
  Sc  Sc3  2  0.50000000  0.25147000  0.04353000  1.0
  Sc  Sc4  1  0.00000000  0.00000000  0.12745000  1.0
  Sc  Sc5  1  0.00000000  0.00000000  0.95628000  1.0
  Sc  Sc6  1  0.00000000  0.50000000  0.12998000  1.0
  Sc  Sc7  1  0.00000000  0.50000000  0.95628000  1.0
  Sc  Sc8  1  0.50000000  0.00000000  0.13380000  1.0
  Sc  Sc9  1  0.50000000  0.00000000  0.95628000  1.0
  Sc  Sc10  1  0.50000000  0.50000000  0.13101000  1.0
  Sc  Sc11  1  0.50000000  0.50000000  0.95628000  1.0
  Zn  Zn12  4  0.25000000  0.25000000  0.95628000  1.0
  Zn  Zn13  4  0.25172000  0.24954000  0.12928000  1.0
  Zn  Zn14  2  0.25000000  0.00000000  0.86884000  1.0
  Zn  Zn15  2  0.25000000  0.50000000  0.86884000  1.0
  Zn  Zn16  2  0.25052000  0.50000000  0.04385000  1.0
  Zn  Zn17  2  0.25861000  0.00000000  0.04301000  1.0
  C  C18  1  0.00000000  0.00000000  0.21056000  1.0
  O  O19  1  0.00000000  0.00000000  0.25317000  1.0
