data_image0
_chemical_formula_structural       Mn16V16CO
_chemical_formula_sum              "Mn16 V16 C1 O1"
_cell_length_a       5.76229
_cell_length_b       8.14911
_cell_length_c       26.1118
_cell_angle_alpha    90
_cell_angle_beta     90
_cell_angle_gamma    90

_space_group_name_H-M_alt    "P 1"
_space_group_IT_number       1

loop_
  _space_group_symop_operation_xyz
  'x, y, z'

loop_
  _atom_site_type_symbol
  _atom_site_label
  _atom_site_symmetry_multiplicity
  _atom_site_fract_x
  _atom_site_fract_y
  _atom_site_fract_z
  _atom_site_occupancy
  Mn  Mn1       1.0  0.00000  0.00000  0.88297  1.0000
  Mn  Mn2       1.0  0.00000  0.25000  0.96099  1.0000
  Mn  Mn3       1.0  0.00000  0.00216  0.04096  1.0000
  Mn  Mn4       1.0  0.00000  0.25000  0.11687  1.0000
  Mn  Mn5       1.0  0.00000  0.50000  0.88297  1.0000
  Mn  Mn6       1.0  0.00000  0.75000  0.96099  1.0000
  Mn  Mn7       1.0  0.00000  0.49784  0.04096  1.0000
  Mn  Mn8       1.0  0.00000  0.75000  0.11553  1.0000
  Mn  Mn9       1.0  0.50000  0.00000  0.88297  1.0000
  Mn  Mn10      1.0  0.50000  0.25000  0.96099  1.0000
  Mn  Mn11      1.0  0.50000  0.99959  0.04052  1.0000
  Mn  Mn12      1.0  0.50000  0.25000  0.11404  1.0000
  Mn  Mn13      1.0  0.50000  0.50000  0.88297  1.0000
  Mn  Mn14      1.0  0.50000  0.75000  0.96099  1.0000
  Mn  Mn15      1.0  0.50000  0.50041  0.04052  1.0000
  Mn  Mn16      1.0  0.50000  0.75000  0.11614  1.0000
  V   V1        1.0  0.25000  0.25000  0.88297  1.0000
  V   V2        1.0  0.25000  0.00000  0.96099  1.0000
  V   V3        1.0  0.25128  0.25000  0.03959  1.0000
  V   V4        1.0  0.24957  0.49831  0.12132  1.0000
  V   V5        1.0  0.25000  0.75000  0.88297  1.0000
  V   V6        1.0  0.25000  0.50000  0.96099  1.0000
  V   V7        1.0  0.25025  0.75000  0.04036  1.0000
  V   V8        1.0  0.24957  0.00169  0.12132  1.0000
  V   V9        1.0  0.75000  0.25000  0.88297  1.0000
  V   V10       1.0  0.75000  0.00000  0.96099  1.0000
  V   V11       1.0  0.74872  0.25000  0.03959  1.0000
  V   V12       1.0  0.75043  0.49831  0.12132  1.0000
  V   V13       1.0  0.75000  0.75000  0.88297  1.0000
  V   V14       1.0  0.75000  0.50000  0.96099  1.0000
  V   V15       1.0  0.74975  0.75000  0.04036  1.0000
  V   V16       1.0  0.75043  0.00169  0.12132  1.0000
  C   C1        1.0  0.00000  0.25000  0.18676  1.0000
  O   O1        1.0  0.00000  0.25000  0.23172  1.0000
