# generated using pymatgen
data_Mn16V16CO
_symmetry_space_group_name_H-M   'P 1'
_cell_length_a   5.76229000
_cell_length_b   8.14911000
_cell_length_c   26.11180000
_cell_angle_alpha   90.00000000
_cell_angle_beta   90.00000000
_cell_angle_gamma   90.00000000
_symmetry_Int_Tables_number   1
_chemical_formula_structural   Mn16V16CO
_chemical_formula_sum   'Mn16 V16 C1 O1'
_cell_volume   1226.14576403
_cell_formula_units_Z   1
loop_
 _symmetry_equiv_pos_site_id
 _symmetry_equiv_pos_as_xyz
  1  'x, y, z'
loop_
 _atom_site_type_symbol
 _atom_site_label
 _atom_site_symmetry_multiplicity
 _atom_site_fract_x
 _atom_site_fract_y
 _atom_site_fract_z
 _atom_site_occupancy
  Mn  Mn0  1  0.00000000  0.75000000  0.88297000  1.0
  Mn  Mn1  1  0.00000000  0.00000000  0.96099000  1.0
  Mn  Mn2  1  0.00000000  0.75216000  0.04096000  1.0
  Mn  Mn3  1  0.00000000  0.00000000  0.11687000  1.0
  Mn  Mn4  1  0.00000000  0.25000000  0.88297000  1.0
  Mn  Mn5  1  0.00000000  0.50000000  0.96099000  1.0
  Mn  Mn6  1  0.00000000  0.24784000  0.04096000  1.0
  Mn  Mn7  1  0.00000000  0.50000000  0.11553000  1.0
  Mn  Mn8  1  0.50000000  0.75000000  0.88297000  1.0
  Mn  Mn9  1  0.50000000  0.00000000  0.96099000  1.0
  Mn  Mn10  1  0.50000000  0.74959000  0.04052000  1.0
  Mn  Mn11  1  0.50000000  0.00000000  0.11404000  1.0
  Mn  Mn12  1  0.50000000  0.25000000  0.88297000  1.0
  Mn  Mn13  1  0.50000000  0.50000000  0.96099000  1.0
  Mn  Mn14  1  0.50000000  0.25041000  0.04052000  1.0
  Mn  Mn15  1  0.50000000  0.50000000  0.11614000  1.0
  V  V16  1  0.25000000  0.00000000  0.88297000  1.0
  V  V17  1  0.25000000  0.75000000  0.96099000  1.0
  V  V18  1  0.25128000  0.00000000  0.03959000  1.0
  V  V19  1  0.24957000  0.24831000  0.12132000  1.0
  V  V20  1  0.25000000  0.50000000  0.88297000  1.0
  V  V21  1  0.25000000  0.25000000  0.96099000  1.0
  V  V22  1  0.25025000  0.50000000  0.04036000  1.0
  V  V23  1  0.24957000  0.75169000  0.12132000  1.0
  V  V24  1  0.75000000  0.00000000  0.88297000  1.0
  V  V25  1  0.75000000  0.75000000  0.96099000  1.0
  V  V26  1  0.74872000  0.00000000  0.03959000  1.0
  V  V27  1  0.75043000  0.24831000  0.12132000  1.0
  V  V28  1  0.75000000  0.50000000  0.88297000  1.0
  V  V29  1  0.75000000  0.25000000  0.96099000  1.0
  V  V30  1  0.74975000  0.50000000  0.04036000  1.0
  V  V31  1  0.75043000  0.75169000  0.12132000  1.0
  C  C32  1  0.00000000  0.00000000  0.18676000  1.0
  O  O33  1  0.00000000  0.00000000  0.23172000  1.0
