# generated using pymatgen
data_Li8Mg8Al8Pd8CO
_symmetry_space_group_name_H-M   'P 1'
_cell_length_a   8.88310000
_cell_length_b   6.28130000
_cell_length_c   26.66230000
_cell_angle_alpha   90.00000000
_cell_angle_beta   90.00000000
_cell_angle_gamma   90.00000000
_symmetry_Int_Tables_number   1
_chemical_formula_structural   Li8Mg8Al8Pd8CO
_chemical_formula_sum   'Li8 Mg8 Al8 Pd8 C1 O1'
_cell_volume   1487.68744542
_cell_formula_units_Z   1
loop_
 _symmetry_equiv_pos_site_id
 _symmetry_equiv_pos_as_xyz
  1  'x, y, z'
loop_
 _atom_site_type_symbol
 _atom_site_label
 _atom_site_symmetry_multiplicity
 _atom_site_fract_x
 _atom_site_fract_y
 _atom_site_fract_z
 _atom_site_occupancy
  Li  Li0  1  0.75000000  0.25000000  0.04165000  1.0
  Li  Li1  1  0.25000000  0.25000000  0.04165000  1.0
  Li  Li2  1  0.00000000  0.75000000  0.12494000  1.0
  Li  Li3  1  0.50000000  0.75000000  0.12494000  1.0
  Li  Li4  1  0.25040000  0.27591000  0.86568000  1.0
  Li  Li5  1  0.74960000  0.27591000  0.86568000  1.0
  Li  Li6  1  0.50000000  0.75504000  0.95946000  1.0
  Li  Li7  1  0.00000000  0.75660000  0.95946000  1.0
  Mg  Mg8  1  0.00000000  0.00000000  0.04165000  1.0
  Mg  Mg9  1  0.50000000  0.00000000  0.04165000  1.0
  Mg  Mg10  1  0.25000000  0.50000000  0.12494000  1.0
  Mg  Mg11  1  0.75000000  0.50000000  0.12494000  1.0
  Mg  Mg12  1  0.50000000  0.99107000  0.87052000  1.0
  Mg  Mg13  1  0.00000000  0.98645000  0.87090000  1.0
  Mg  Mg14  1  0.74994000  0.49272000  0.96027000  1.0
  Mg  Mg15  1  0.25006000  0.49272000  0.96027000  1.0
  Al  Al16  1  0.75000000  0.00000000  0.12494000  1.0
  Al  Al17  1  0.25000000  0.00000000  0.12494000  1.0
  Al  Al18  1  0.50000000  0.50000000  0.04165000  1.0
  Al  Al19  1  0.00000000  0.50000000  0.04165000  1.0
  Al  Al20  1  0.24962000  0.00503000  0.95535000  1.0
  Al  Al21  1  0.75038000  0.00503000  0.95535000  1.0
  Al  Al22  1  0.00000000  0.51861000  0.87858000  1.0
  Al  Al23  1  0.50000000  0.51584000  0.87743000  1.0
  Pd  Pd24  1  0.75000000  0.75000000  0.04165000  1.0
  Pd  Pd25  1  0.25000000  0.75000000  0.04165000  1.0
  Pd  Pd26  1  0.00000000  0.25000000  0.12494000  1.0
  Pd  Pd27  1  0.50000000  0.25000000  0.12494000  1.0
  Pd  Pd28  1  0.25217000  0.73541000  0.88146000  1.0
  Pd  Pd29  1  0.74783000  0.73541000  0.88146000  1.0
  Pd  Pd30  1  0.50000000  0.24468000  0.95782000  1.0
  Pd  Pd31  1  0.00000000  0.24356000  0.95538000  1.0
  C  C32  1  0.00000000  0.02382000  0.78744000  1.0
  O  O33  1  0.00000000  0.02715000  0.74447000  1.0
