# generated using pymatgen
data_CuAu3
_symmetry_space_group_name_H-M   Pmm2
_cell_length_a   4.09711500
_cell_length_b   5.79419000
_cell_length_c   24.34560000
_cell_angle_alpha   90.00000000
_cell_angle_beta   90.00000000
_cell_angle_gamma   90.00000000
_symmetry_Int_Tables_number   25
_chemical_formula_structural   CuAu3
_chemical_formula_sum   'Cu2 Au6'
_cell_volume   577.95146461
_cell_formula_units_Z   2
loop_
 _symmetry_equiv_pos_site_id
 _symmetry_equiv_pos_as_xyz
  1  'x, y, z'
  2  '-x, -y, z'
  3  '-x, y, z'
  4  'x, -y, z'
loop_
 _atom_site_type_symbol
 _atom_site_label
 _atom_site_symmetry_multiplicity
 _atom_site_fract_x
 _atom_site_fract_y
 _atom_site_fract_z
 _atom_site_occupancy
  Cu  Cu0  1  0.00000000  0.00000000  0.91075000  1.0
  Cu  Cu1  1  0.00000000  0.50000000  0.03495000  1.0
  Au  Au2  2  0.50000000  0.25000000  0.97025000  1.0
  Au  Au3  2  0.50000000  0.25990000  0.08990000  1.0
  Au  Au4  1  0.00000000  0.00000000  0.03341000  1.0
  Au  Au5  1  0.00000000  0.50000000  0.91075000  1.0
