data_image0
_chemical_formula_structural       CuAu3CuAu3CuAu3CuAu3CuAu3CuAu3CuAu3CuAu3
_chemical_formula_sum              "Cu8 Au24"
_cell_length_a       8.19423
_cell_length_b       8.19423
_cell_length_c       26.1457
_cell_angle_alpha    90
_cell_angle_beta     90
_cell_angle_gamma    90

_space_group_name_H-M_alt    "P 1"
_space_group_IT_number       1

loop_
  _space_group_symop_operation_xyz
  'x, y, z'

loop_
  _atom_site_type_symbol
  _atom_site_label
  _atom_site_symmetry_multiplicity
  _atom_site_fract_x
  _atom_site_fract_y
  _atom_site_fract_z
  _atom_site_occupancy
  Cu  Cu1       1.0  0.00000  0.00000  0.11753  1.0000
  Au  Au1       1.0  0.00000  0.25000  0.03918  1.0000
  Au  Au2       1.0  0.25000  0.00000  0.03918  1.0000
  Au  Au3       1.0  0.25000  0.25000  0.11753  1.0000
  Cu  Cu2       1.0  0.00000  0.00000  0.96082  1.0000
  Au  Au4       1.0  0.00000  0.25000  0.88247  1.0000
  Au  Au5       1.0  0.25000  0.00000  0.88247  1.0000
  Au  Au6       1.0  0.25000  0.25000  0.96082  1.0000
  Cu  Cu3       1.0  0.00000  0.50000  0.11753  1.0000
  Au  Au7       1.0  0.00000  0.75000  0.03918  1.0000
  Au  Au8       1.0  0.25000  0.50000  0.03918  1.0000
  Au  Au9       1.0  0.25000  0.75000  0.11753  1.0000
  Cu  Cu4       1.0  0.00000  0.50000  0.96082  1.0000
  Au  Au10      1.0  0.00000  0.75000  0.88247  1.0000
  Au  Au11      1.0  0.25000  0.50000  0.88247  1.0000
  Au  Au12      1.0  0.25000  0.75000  0.96082  1.0000
  Cu  Cu5       1.0  0.50000  0.00000  0.11753  1.0000
  Au  Au13      1.0  0.50000  0.25000  0.03918  1.0000
  Au  Au14      1.0  0.75000  0.00000  0.03918  1.0000
  Au  Au15      1.0  0.75000  0.25000  0.11753  1.0000
  Cu  Cu6       1.0  0.50000  0.00000  0.96082  1.0000
  Au  Au16      1.0  0.50000  0.25000  0.88247  1.0000
  Au  Au17      1.0  0.75000  0.00000  0.88247  1.0000
  Au  Au18      1.0  0.75000  0.25000  0.96082  1.0000
  Cu  Cu7       1.0  0.50000  0.50000  0.11753  1.0000
  Au  Au19      1.0  0.50000  0.75000  0.03918  1.0000
  Au  Au20      1.0  0.75000  0.50000  0.03918  1.0000
  Au  Au21      1.0  0.75000  0.75000  0.11753  1.0000
  Cu  Cu8       1.0  0.50000  0.50000  0.96082  1.0000
  Au  Au22      1.0  0.50000  0.75000  0.88247  1.0000
  Au  Au23      1.0  0.75000  0.50000  0.88247  1.0000
  Au  Au24      1.0  0.75000  0.75000  0.96082  1.0000
