# generated using pymatgen
data_Li4In4Pd4Au4C
_symmetry_space_group_name_H-M   Pm
_cell_length_a   5.60636000
_cell_length_b   8.89782000
_cell_length_c   24.18540000
_cell_angle_alpha   90.00000000
_cell_angle_beta   90.00000000
_cell_angle_gamma   90.00000000
_symmetry_Int_Tables_number   6
_chemical_formula_structural   Li4In4Pd4Au4C
_chemical_formula_sum   'Li4 In4 Pd4 Au4 C1'
_cell_volume   1206.47373569
_cell_formula_units_Z   1
loop_
 _symmetry_equiv_pos_site_id
 _symmetry_equiv_pos_as_xyz
  1  'x, y, z'
  2  'x, -y, z'
loop_
 _atom_site_type_symbol
 _atom_site_label
 _atom_site_symmetry_multiplicity
 _atom_site_fract_x
 _atom_site_fract_y
 _atom_site_fract_z
 _atom_site_occupancy
  Li  Li0  2  0.50064000  0.25566000  0.08700000  1.0
  Li  Li1  2  0.95209000  0.25002000  0.97116000  1.0
  In  In2  1  0.20944000  0.50000000  0.03355000  1.0
  In  In3  1  0.21116000  0.00000000  0.02571000  1.0
  In  In4  1  0.67813000  0.00000000  0.91347000  1.0
  In  In5  1  0.67813000  0.50000000  0.91347000  1.0
  Pd  Pd6  1  0.17813000  0.00000000  0.91347000  1.0
  Pd  Pd7  1  0.17813000  0.50000000  0.91347000  1.0
  Pd  Pd8  1  0.68484000  0.00000000  0.03283000  1.0
  Pd  Pd9  1  0.71362000  0.50000000  0.03634000  1.0
  Au  Au10  2  0.45209000  0.25002000  0.97116000  1.0
  Au  Au11  2  0.98467000  0.24343000  0.08347000  1.0
  C  C12  1  0.92068000  0.00000000  0.09487000  1.0
