# generated using pymatgen
data_Li2GaAu
_symmetry_space_group_name_H-M   Pm
_cell_length_a   6.29417000
_cell_length_b   4.45065000
_cell_length_c   26.67600000
_cell_angle_alpha   90.00000000
_cell_angle_beta   90.00000000
_cell_angle_gamma   90.00000000
_symmetry_Int_Tables_number   6
_chemical_formula_structural   Li2GaAu
_chemical_formula_sum   'Li8 Ga4 Au4'
_cell_volume   747.27872833
_cell_formula_units_Z   4
loop_
 _symmetry_equiv_pos_site_id
 _symmetry_equiv_pos_as_xyz
  1  'x, y, z'
  2  'x, -y, z'
loop_
 _atom_site_type_symbol
 _atom_site_label
 _atom_site_symmetry_multiplicity
 _atom_site_fract_x
 _atom_site_fract_y
 _atom_site_fract_z
 _atom_site_occupancy
  Li  Li0  1  -0.00000000  0.50000000  0.04171000  1.0
  Li  Li1  1  0.25000000  0.00000000  0.04171000  1.0
  Li  Li2  1  0.27231500  0.00000000  0.87769000  1.0
  Li  Li3  1  0.48882000  0.00000000  0.96471000  1.0
  Li  Li4  1  0.50000000  0.00000000  0.12513000  1.0
  Li  Li5  1  0.74594000  0.50000000  0.95861000  1.0
  Li  Li6  1  0.75000000  0.50000000  0.12513000  1.0
  Li  Li7  1  0.97913500  0.50000000  0.87350000  1.0
  Ga  Ga8  1  -0.00000000  0.00000000  0.12513000  1.0
  Ga  Ga9  1  0.00518500  0.00000000  0.95891000  1.0
  Ga  Ga10  1  0.50000000  0.50000000  0.04171000  1.0
  Ga  Ga11  1  0.51190000  0.50000000  0.86898000  1.0
  Au  Au12  1  0.25000000  0.50000000  0.12513000  1.0
  Au  Au13  1  0.25236500  0.50000000  0.95434000  1.0
  Au  Au14  1  0.72372500  0.00000000  0.88448000  1.0
  Au  Au15  1  0.75000000  0.00000000  0.04171000  1.0
