# generated using pymatgen
data_Li8Y8Cu8Ge8CO
_symmetry_space_group_name_H-M   'P 1'
_cell_length_a   9.41914000
_cell_length_b   6.66034000
_cell_length_c   27.06440000
_cell_angle_alpha   90.00000000
_cell_angle_beta   90.00000000
_cell_angle_gamma   90.00000000
_symmetry_Int_Tables_number   1
_chemical_formula_structural   Li8Y8Cu8Ge8CO
_chemical_formula_sum   'Li8 Y8 Cu8 Ge8 C1 O1'
_cell_volume   1697.87633557
_cell_formula_units_Z   1
loop_
 _symmetry_equiv_pos_site_id
 _symmetry_equiv_pos_as_xyz
  1  'x, y, z'
loop_
 _atom_site_type_symbol
 _atom_site_label
 _atom_site_symmetry_multiplicity
 _atom_site_fract_x
 _atom_site_fract_y
 _atom_site_fract_z
 _atom_site_occupancy
  Li  Li0  1  0.74999000  0.75000000  0.04350000  1.0
  Li  Li1  1  0.25001000  0.75000000  0.04350000  1.0
  Li  Li2  1  0.00000000  0.25000000  0.13051000  1.0
  Li  Li3  1  0.50000000  0.25000000  0.13051000  1.0
  Li  Li4  1  0.23694000  0.74310000  0.86880000  1.0
  Li  Li5  1  0.76306000  0.74310000  0.86880000  1.0
  Li  Li6  1  0.50000000  0.25298000  0.96076000  1.0
  Li  Li7  1  0.00000000  0.24843000  0.96566000  1.0
  Y  Y8  1  0.74999000  0.25000000  0.04350000  1.0
  Y  Y9  1  0.25001000  0.25000000  0.04350000  1.0
  Y  Y10  1  0.00000000  0.75000000  0.13051000  1.0
  Y  Y11  1  0.50000000  0.75000000  0.13051000  1.0
  Y  Y12  1  0.29198000  0.21931000  0.86588000  1.0
  Y  Y13  1  0.70802000  0.21931000  0.86588000  1.0
  Y  Y14  1  0.50000000  0.74098000  0.95171000  1.0
  Y  Y15  1  0.00000000  0.75556000  0.95387000  1.0
  Cu  Cu16  1  0.74999000  0.00000000  0.13051000  1.0
  Cu  Cu17  1  0.25001000  0.00000000  0.13051000  1.0
  Cu  Cu18  1  0.50000000  0.50000000  0.04350000  1.0
  Cu  Cu19  1  0.00000000  0.50000000  0.04350000  1.0
  Cu  Cu20  1  0.25554000  0.00801000  0.95744000  1.0
  Cu  Cu21  1  0.74446000  0.00801000  0.95744000  1.0
  Cu  Cu22  1  0.00000000  0.42011000  0.88426000  1.0
  Cu  Cu23  1  0.50000000  0.54459000  0.85785000  1.0
  Ge  Ge24  1  0.00000000  0.00000000  0.04350000  1.0
  Ge  Ge25  1  0.50000000  0.00000000  0.04350000  1.0
  Ge  Ge26  1  0.24999000  0.50000000  0.13051000  1.0
  Ge  Ge27  1  0.75001000  0.50000000  0.13051000  1.0
  Ge  Ge28  1  0.50000000  0.91463000  0.84983000  1.0
  Ge  Ge29  1  0.00000000  0.02916000  0.86214000  1.0
  Ge  Ge30  1  0.76076000  0.48038000  0.94916000  1.0
  Ge  Ge31  1  0.23924000  0.48038000  0.94916000  1.0
  C  C32  1  0.00000000  0.95705000  0.79348000  1.0
  O  O33  1  0.00000000  0.91643000  0.75150000  1.0
