# generated using pymatgen
data_Li8Y8Cu8Ge8CO
_symmetry_space_group_name_H-M   Pm
_cell_length_a   6.66034000
_cell_length_b   9.41914000
_cell_length_c   27.06440000
_cell_angle_alpha   90.00000000
_cell_angle_beta   90.00000000
_cell_angle_gamma   90.00000000
_symmetry_Int_Tables_number   6
_chemical_formula_structural   Li8Y8Cu8Ge8CO
_chemical_formula_sum   'Li8 Y8 Cu8 Ge8 C1 O1'
_cell_volume   1697.87633557
_cell_formula_units_Z   1
loop_
 _symmetry_equiv_pos_site_id
 _symmetry_equiv_pos_as_xyz
  1  'x, y, z'
  2  'x, -y, z'
loop_
 _atom_site_type_symbol
 _atom_site_label
 _atom_site_symmetry_multiplicity
 _atom_site_fract_x
 _atom_site_fract_y
 _atom_site_fract_z
 _atom_site_occupancy
  Li  Li0  2  0.74310000  0.23694000  0.13120000  1.0
  Li  Li1  2  0.75000000  0.25001000  0.95650000  1.0
  Li  Li2  1  0.24843000  0.00000000  0.03434000  1.0
  Li  Li3  1  0.25000000  0.00000000  0.86949000  1.0
  Li  Li4  1  0.25000000  0.50000000  0.86949000  1.0
  Li  Li5  1  0.25298000  0.50000000  0.03924000  1.0
  Y  Y6  2  0.21931000  0.29198000  0.13412000  1.0
  Y  Y7  2  0.25000000  0.25001000  0.95650000  1.0
  Y  Y8  1  0.74098000  0.50000000  0.04829000  1.0
  Y  Y9  1  0.75000000  0.00000000  0.86949000  1.0
  Y  Y10  1  0.75000000  0.50000000  0.86949000  1.0
  Y  Y11  1  0.75556000  0.00000000  0.04613000  1.0
  Cu  Cu12  2  0.00000000  0.25001000  0.86949000  1.0
  Cu  Cu13  2  0.00801000  0.25554000  0.04256000  1.0
  Cu  Cu14  1  0.42011000  0.00000000  0.11574000  1.0
  Cu  Cu15  1  0.50000000  0.00000000  0.95650000  1.0
  Cu  Cu16  1  0.50000000  0.50000000  0.95650000  1.0
  Cu  Cu17  1  0.54459000  0.50000000  0.14215000  1.0
  Ge  Ge18  2  0.48038000  0.23924000  0.05084000  1.0
  Ge  Ge19  2  0.50000000  0.24999000  0.86949000  1.0
  Ge  Ge20  1  0.00000000  0.00000000  0.95650000  1.0
  Ge  Ge21  1  0.00000000  0.50000000  0.95650000  1.0
  Ge  Ge22  1  0.02916000  0.00000000  0.13786000  1.0
  Ge  Ge23  1  0.91463000  0.50000000  0.15017000  1.0
  C  C24  1  0.95705000  0.00000000  0.20652000  1.0
  O  O25  1  0.91643000  0.00000000  0.24850000  1.0
