data_image0
_chemical_formula_structural       Ti8In8Au16CO
_chemical_formula_sum              "Ti8 In8 Au16 C1 O1"
_cell_length_a       6.72102
_cell_length_b       9.50495
_cell_length_c       27.1287
_cell_angle_alpha    90
_cell_angle_beta     90
_cell_angle_gamma    90

_space_group_name_H-M_alt    "P 1"
_space_group_IT_number       1

loop_
  _space_group_symop_operation_xyz
  'x, y, z'

loop_
  _atom_site_type_symbol
  _atom_site_label
  _atom_site_symmetry_multiplicity
  _atom_site_fract_x
  _atom_site_fract_y
  _atom_site_fract_z
  _atom_site_occupancy
  Ti  Ti1       1.0  0.00000  0.00000  0.86861  1.0000
  Ti  Ti2       1.0  0.50000  0.25000  0.95620  1.0000
  Ti  Ti3       1.0  0.50000  0.75000  0.95620  1.0000
  Ti  Ti4       1.0  0.00000  0.50000  0.86861  1.0000
  Ti  Ti5       1.0  1.00000  0.49974  0.04566  1.0000
  Ti  Ti6       1.0  0.50000  0.75000  0.12374  1.0000
  Ti  Ti7       1.0  0.50000  0.25000  0.12737  1.0000
  Ti  Ti8       1.0  0.00000  0.00026  0.04566  1.0000
  In  In1       1.0  0.00000  0.75000  0.95620  1.0000
  In  In2       1.0  0.50000  0.00000  0.86861  1.0000
  In  In3       1.0  0.00000  0.25000  0.95620  1.0000
  In  In4       1.0  0.50000  0.50000  0.86861  1.0000
  In  In5       1.0  1.00000  0.25000  0.14506  1.0000
  In  In6       1.0  0.50000  0.49931  0.04173  1.0000
  In  In7       1.0  0.00000  0.75000  0.14632  1.0000
  In  In8       1.0  0.50000  0.00069  0.04173  1.0000
  Au  Au1       1.0  0.25000  0.00000  0.95620  1.0000
  Au  Au2       1.0  0.75000  0.50000  0.95620  1.0000
  Au  Au3       1.0  0.75000  0.00000  0.95620  1.0000
  Au  Au4       1.0  0.25000  0.50000  0.95620  1.0000
  Au  Au5       1.0  0.75000  0.75000  0.86861  1.0000
  Au  Au6       1.0  0.25000  0.25000  0.86861  1.0000
  Au  Au7       1.0  0.25000  0.75000  0.86861  1.0000
  Au  Au8       1.0  0.75000  0.25000  0.86861  1.0000
  Au  Au9       1.0  0.26832  0.50115  0.13266  1.0000
  Au  Au10      1.0  0.73169  0.99885  0.13265  1.0000
  Au  Au11      1.0  0.73168  0.50115  0.13266  1.0000
  Au  Au12      1.0  0.26831  0.99885  0.13265  1.0000
  Au  Au13      1.0  0.76494  0.25000  0.04654  1.0000
  Au  Au14      1.0  0.23433  0.75000  0.04650  1.0000
  Au  Au15      1.0  0.23506  0.24999  0.04654  1.0000
  Au  Au16      1.0  0.76567  0.75000  0.04650  1.0000
  C   C1        1.0  0.50000  0.25000  0.20463  1.0000
  O   O1        1.0  0.50000  0.25000  0.24716  1.0000
