# generated using pymatgen
data_Ti8In8Au16CO
_symmetry_space_group_name_H-M   'P 1'
_cell_length_a   6.72102000
_cell_length_b   9.50495000
_cell_length_c   27.12870000
_cell_angle_alpha   90.00000000
_cell_angle_beta   90.00000000
_cell_angle_gamma   90.00000000
_symmetry_Int_Tables_number   1
_chemical_formula_structural   Ti8In8Au16CO
_chemical_formula_sum   'Ti8 In8 Au16 C1 O1'
_cell_volume   1733.06163115
_cell_formula_units_Z   1
loop_
 _symmetry_equiv_pos_site_id
 _symmetry_equiv_pos_as_xyz
  1  'x, y, z'
loop_
 _atom_site_type_symbol
 _atom_site_label
 _atom_site_symmetry_multiplicity
 _atom_site_fract_x
 _atom_site_fract_y
 _atom_site_fract_z
 _atom_site_occupancy
  Ti  Ti0  1  0.00000000  0.75000000  0.86861000  1.0
  Ti  Ti1  1  0.50000000  0.00000000  0.95620000  1.0
  Ti  Ti2  1  0.50000000  0.50000000  0.95620000  1.0
  Ti  Ti3  1  0.00000000  0.25000000  0.86861000  1.0
  Ti  Ti4  1  0.00000000  0.24974000  0.04566000  1.0
  Ti  Ti5  1  0.50000000  0.50000000  0.12374000  1.0
  Ti  Ti6  1  0.50000000  0.00000000  0.12737000  1.0
  Ti  Ti7  1  0.00000000  0.75026000  0.04566000  1.0
  In  In8  1  0.00000000  0.50000000  0.95620000  1.0
  In  In9  1  0.50000000  0.75000000  0.86861000  1.0
  In  In10  1  0.00000000  0.00000000  0.95620000  1.0
  In  In11  1  0.50000000  0.25000000  0.86861000  1.0
  In  In12  1  0.00000000  0.00000000  0.14506000  1.0
  In  In13  1  0.50000000  0.24931000  0.04173000  1.0
  In  In14  1  0.00000000  0.50000000  0.14632000  1.0
  In  In15  1  0.50000000  0.75069000  0.04173000  1.0
  Au  Au16  1  0.25000000  0.75000000  0.95620000  1.0
  Au  Au17  1  0.75000000  0.25000000  0.95620000  1.0
  Au  Au18  1  0.75000000  0.75000000  0.95620000  1.0
  Au  Au19  1  0.25000000  0.25000000  0.95620000  1.0
  Au  Au20  1  0.75000000  0.50000000  0.86861000  1.0
  Au  Au21  1  0.25000000  0.00000000  0.86861000  1.0
  Au  Au22  1  0.25000000  0.50000000  0.86861000  1.0
  Au  Au23  1  0.75000000  0.00000000  0.86861000  1.0
  Au  Au24  1  0.26832000  0.25115000  0.13266000  1.0
  Au  Au25  1  0.73168000  0.74885000  0.13266000  1.0
  Au  Au26  1  0.73168000  0.25115000  0.13266000  1.0
  Au  Au27  1  0.26832000  0.74885000  0.13266000  1.0
  Au  Au28  1  0.76494000  0.00000000  0.04654000  1.0
  Au  Au29  1  0.23433000  0.50000000  0.04650000  1.0
  Au  Au30  1  0.23506000  0.00000000  0.04654000  1.0
  Au  Au31  1  0.76567000  0.50000000  0.04650000  1.0
  C  C32  1  0.50000000  0.00000000  0.20463000  1.0
  O  O33  1  0.50000000  0.00000000  0.24716000  1.0
