# generated using pymatgen
data_Ti8In8Au16CO
_symmetry_space_group_name_H-M   Pmm2
_cell_length_a   6.72102000
_cell_length_b   9.50495000
_cell_length_c   27.12870000
_cell_angle_alpha   90.00000000
_cell_angle_beta   90.00000000
_cell_angle_gamma   90.00000000
_symmetry_Int_Tables_number   25
_chemical_formula_structural   Ti8In8Au16CO
_chemical_formula_sum   'Ti8 In8 Au16 C1 O1'
_cell_volume   1733.06163115
_cell_formula_units_Z   1
loop_
 _symmetry_equiv_pos_site_id
 _symmetry_equiv_pos_as_xyz
  1  'x, y, z'
  2  '-x, -y, z'
  3  '-x, y, z'
  4  'x, -y, z'
loop_
 _atom_site_type_symbol
 _atom_site_label
 _atom_site_symmetry_multiplicity
 _atom_site_fract_x
 _atom_site_fract_y
 _atom_site_fract_z
 _atom_site_occupancy
  Ti  Ti0  2  0.00000000  0.24974000  0.04566000  1.0
  Ti  Ti1  2  0.00000000  0.25000000  0.86861000  1.0
  Ti  Ti2  1  0.50000000  0.00000000  0.12737000  1.0
  Ti  Ti3  1  0.50000000  0.00000000  0.95620000  1.0
  Ti  Ti4  1  0.50000000  0.50000000  0.12374000  1.0
  Ti  Ti5  1  0.50000000  0.50000000  0.95620000  1.0
  In  In6  2  0.50000000  0.24931000  0.04173000  1.0
  In  In7  2  0.50000000  0.25000000  0.86861000  1.0
  In  In8  1  0.00000000  0.00000000  0.14506000  1.0
  In  In9  1  0.00000000  0.00000000  0.95620000  1.0
  In  In10  1  0.00000000  0.50000000  0.14632000  1.0
  In  In11  1  0.00000000  0.50000000  0.95620000  1.0
  Au  Au12  4  0.25000000  0.25000000  0.95620000  1.0
  Au  Au13  4  0.26832000  0.25115000  0.13266000  1.0
  Au  Au14  2  0.23433000  0.50000000  0.04650000  1.0
  Au  Au15  2  0.23506000  0.00000000  0.04654000  1.0
  Au  Au16  2  0.25000000  0.00000000  0.86861000  1.0
  Au  Au17  2  0.25000000  0.50000000  0.86861000  1.0
  C  C18  1  0.50000000  0.00000000  0.20463000  1.0
  O  O19  1  0.50000000  0.00000000  0.24716000  1.0
