# generated using pymatgen
data_Mg4Ag12CO
_symmetry_space_group_name_H-M   'P 1'
_cell_length_a   5.96164000
_cell_length_b   8.43103000
_cell_length_c   24.47120000
_cell_angle_alpha   90.00000000
_cell_angle_beta   90.00000000
_cell_angle_gamma   90.00000000
_symmetry_Int_Tables_number   1
_chemical_formula_structural   Mg4Ag12CO
_chemical_formula_sum   'Mg4 Ag12 C1 O1'
_cell_volume   1229.99019173
_cell_formula_units_Z   1
loop_
 _symmetry_equiv_pos_site_id
 _symmetry_equiv_pos_as_xyz
  1  'x, y, z'
loop_
 _atom_site_type_symbol
 _atom_site_label
 _atom_site_symmetry_multiplicity
 _atom_site_fract_x
 _atom_site_fract_y
 _atom_site_fract_z
 _atom_site_occupancy
  Mg  Mg0  1  0.00000000  0.00000000  0.91411000  1.0
  Mg  Mg1  1  0.50000000  0.00000000  0.03045000  1.0
  Mg  Mg2  1  0.00000000  0.50000000  0.91088000  1.0
  Mg  Mg3  1  0.50000000  0.50000000  0.03045000  1.0
  Ag  Ag4  1  0.50000000  0.00000000  0.91058000  1.0
  Ag  Ag5  1  0.75091000  0.25175000  0.96586000  1.0
  Ag  Ag6  1  0.24909000  0.25175000  0.96586000  1.0
  Ag  Ag7  1  0.00000000  0.00000000  0.03045000  1.0
  Ag  Ag8  1  0.25000000  0.25000000  0.09136000  1.0
  Ag  Ag9  1  0.75000000  0.25000000  0.09136000  1.0
  Ag  Ag10  1  0.50000000  0.50000000  0.91021000  1.0
  Ag  Ag11  1  0.75091000  0.74825000  0.96586000  1.0
  Ag  Ag12  1  0.24909000  0.74825000  0.96586000  1.0
  Ag  Ag13  1  0.00000000  0.50000000  0.03045000  1.0
  Ag  Ag14  1  0.25000000  0.75000000  0.09136000  1.0
  Ag  Ag15  1  0.75000000  0.75000000  0.09136000  1.0
  C  C16  1  0.50000000  0.00000000  0.82076000  1.0
  O  O17  1  0.50000000  0.00000000  0.77396000  1.0
