# generated using pymatgen
data_Sc4Al12C
_symmetry_space_group_name_H-M   'P 1'
_cell_length_a   8.18271000
_cell_length_b   5.78605000
_cell_length_c   24.33950000
_cell_angle_alpha   90.00000000
_cell_angle_beta   90.00000000
_cell_angle_gamma   90.00000000
_symmetry_Int_Tables_number   1
_chemical_formula_structural   Sc4Al12C
_chemical_formula_sum   'Sc4 Al12 C1'
_cell_volume   1152.36748143
_cell_formula_units_Z   1
loop_
 _symmetry_equiv_pos_site_id
 _symmetry_equiv_pos_as_xyz
  1  'x, y, z'
loop_
 _atom_site_type_symbol
 _atom_site_label
 _atom_site_symmetry_multiplicity
 _atom_site_fract_x
 _atom_site_fract_y
 _atom_site_fract_z
 _atom_site_occupancy
  Sc  Sc0  1  0.00000000  0.00000000  0.91085000  1.0
  Sc  Sc1  1  0.00000000  0.49995000  0.01939000  1.0
  Sc  Sc2  1  0.50000000  0.00000000  0.91085000  1.0
  Sc  Sc3  1  0.50000000  0.49987000  0.04092000  1.0
  Al  Al4  1  0.00000000  0.50000000  0.91085000  1.0
  Al  Al5  1  0.75000000  0.25000000  0.97028000  1.0
  Al  Al6  1  0.75000000  0.75000000  0.97028000  1.0
  Al  Al7  1  0.00000000  0.00000000  0.02519000  1.0
  Al  Al8  1  0.81016000  0.75317000  0.09709000  1.0
  Al  Al9  1  0.81016000  0.24685000  0.09709000  1.0
  Al  Al10  1  0.50000000  0.50000000  0.91085000  1.0
  Al  Al11  1  0.25000000  0.25000000  0.97028000  1.0
  Al  Al12  1  0.25000000  0.75000000  0.97028000  1.0
  Al  Al13  1  0.50000000  0.00002000  0.05285000  1.0
  Al  Al14  1  0.18984000  0.75317000  0.09709000  1.0
  Al  Al15  1  0.18984000  0.24685000  0.09709000  1.0
  C  C16  1  0.00000000  0.50001000  0.10973000  1.0
