# generated using pymatgen
data_Sc4Al12C
_symmetry_space_group_name_H-M   Pm
_cell_length_a   5.78605000
_cell_length_b   8.18271000
_cell_length_c   24.33950000
_cell_angle_alpha   90.00000000
_cell_angle_beta   90.00000000
_cell_angle_gamma   90.00000000
_symmetry_Int_Tables_number   6
_chemical_formula_structural   Sc4Al12C
_chemical_formula_sum   'Sc4 Al12 C1'
_cell_volume   1152.36748143
_cell_formula_units_Z   1
loop_
 _symmetry_equiv_pos_site_id
 _symmetry_equiv_pos_as_xyz
  1  'x, y, z'
  2  'x, -y, z'
loop_
 _atom_site_type_symbol
 _atom_site_label
 _atom_site_symmetry_multiplicity
 _atom_site_fract_x
 _atom_site_fract_y
 _atom_site_fract_z
 _atom_site_occupancy
  Sc  Sc0  1  0.00000000  0.00000000  0.08915000  1.0
  Sc  Sc1  1  0.00000000  0.50000000  0.08915000  1.0
  Sc  Sc2  1  0.49987000  0.50000000  0.95908000  1.0
  Sc  Sc3  1  0.49995000  0.00000000  0.98061000  1.0
  Al  Al4  2  0.24685000  0.18984000  0.90291000  1.0
  Al  Al5  2  0.25000000  0.25000000  0.02972000  1.0
  Al  Al6  2  0.75000000  0.25000000  0.02972000  1.0
  Al  Al7  2  0.75317000  0.18984000  0.90291000  1.0
  Al  Al8  1  0.00000000  0.00000000  0.97481000  1.0
  Al  Al9  1  0.00002000  0.50000000  0.94715000  1.0
  Al  Al10  1  0.50000000  0.00000000  0.08915000  1.0
  Al  Al11  1  0.50000000  0.50000000  0.08915000  1.0
  C  C12  1  0.50001000  0.00000000  0.89027000  1.0
