data_image0
_chemical_formula_structural       Li4Al4Ga4Pd4CO
_chemical_formula_sum              "Li4 Al4 Ga4 Pd4 C1 O1"
_cell_length_a       6.14517
_cell_length_b       6.14517
_cell_length_c       24.6089
_cell_angle_alpha    90
_cell_angle_beta     90
_cell_angle_gamma    90

_space_group_name_H-M_alt    "P 1"
_space_group_IT_number       1

loop_
  _space_group_symop_operation_xyz
  'x, y, z'

loop_
  _atom_site_type_symbol
  _atom_site_label
  _atom_site_symmetry_multiplicity
  _atom_site_fract_x
  _atom_site_fract_y
  _atom_site_fract_z
  _atom_site_occupancy
  Li  Li1       1.0  0.75000  0.25000  0.96879  1.0000
  Li  Li2       1.0  0.74977  0.75006  0.11144  1.0000
  Li  Li3       1.0  0.24994  0.25023  0.11144  1.0000
  Li  Li4       1.0  0.25000  0.75000  0.96879  1.0000
  Al  Al1       1.0  0.00000  0.00000  0.90636  1.0000
  Al  Al2       1.0  0.99251  0.49253  0.03426  1.0000
  Al  Al3       1.0  0.50747  0.00749  0.03426  1.0000
  Al  Al4       1.0  0.50000  0.50000  0.90636  1.0000
  Ga  Ga1       1.0  0.00000  0.50000  0.90636  1.0000
  Ga  Ga2       1.0  0.99060  0.00940  0.03454  1.0000
  Ga  Ga3       1.0  0.50956  0.49044  0.03459  1.0000
  Ga  Ga4       1.0  0.50000  0.00000  0.90636  1.0000
  Pd  Pd1       1.0  0.25000  0.25000  0.96879  1.0000
  Pd  Pd2       1.0  0.25006  0.74995  0.08221  1.0000
  Pd  Pd3       1.0  0.75028  0.24972  0.09904  1.0000
  Pd  Pd4       1.0  0.75000  0.75000  0.96879  1.0000
  C   C1        1.0  0.75088  0.24913  0.17900  1.0000
  O   O1        1.0  0.75083  0.24918  0.22608  1.0000
