# generated using pymatgen
data_Zn4Pt12C
_symmetry_space_group_name_H-M   Pmm2
_cell_length_a   5.59226000
_cell_length_b   7.90864000
_cell_length_c   24.19420000
_cell_angle_alpha   90.00000000
_cell_angle_beta   90.00000000
_cell_angle_gamma   90.00000000
_symmetry_Int_Tables_number   25
_chemical_formula_structural   Zn4Pt12C
_chemical_formula_sum   'Zn4 Pt12 C1'
_cell_volume   1070.04102367
_cell_formula_units_Z   1
loop_
 _symmetry_equiv_pos_site_id
 _symmetry_equiv_pos_as_xyz
  1  'x, y, z'
  2  '-x, -y, z'
  3  '-x, y, z'
  4  'x, -y, z'
loop_
 _atom_site_type_symbol
 _atom_site_label
 _atom_site_symmetry_multiplicity
 _atom_site_fract_x
 _atom_site_fract_y
 _atom_site_fract_z
 _atom_site_occupancy
  Zn  Zn0  1  0.00000000  0.00000000  0.08668000  1.0
  Zn  Zn1  1  0.00000000  0.50000000  0.08668000  1.0
  Zn  Zn2  1  0.50000000  0.00000000  0.97577000  1.0
  Zn  Zn3  1  0.50000000  0.50000000  0.95568000  1.0
  Pt  Pt4  4  0.25000000  0.25000000  0.02889000  1.0
  Pt  Pt5  4  0.25270000  0.19946000  0.90720000  1.0
  Pt  Pt6  1  0.00000000  0.00000000  0.97918000  1.0
  Pt  Pt7  1  0.00000000  0.50000000  0.96230000  1.0
  Pt  Pt8  1  0.50000000  0.00000000  0.08668000  1.0
  Pt  Pt9  1  0.50000000  0.50000000  0.08668000  1.0
  C  C10  1  0.00000000  0.00000000  0.89428000  1.0
