data_image0
_chemical_formula_structural       Mn4In4Ni8C
_chemical_formula_sum              "Mn4 In4 Ni8 C1"
_cell_length_a       6.11439
_cell_length_b       6.11439
_cell_length_c       24.5858
_cell_angle_alpha    90
_cell_angle_beta     90
_cell_angle_gamma    90

_space_group_name_H-M_alt    "P 1"
_space_group_IT_number       1

loop_
  _space_group_symop_operation_xyz
  'x, y, z'

loop_
  _atom_site_type_symbol
  _atom_site_label
  _atom_site_symmetry_multiplicity
  _atom_site_fract_x
  _atom_site_fract_y
  _atom_site_fract_z
  _atom_site_occupancy
  Mn  Mn1       1.0  0.00000  0.00000  0.90674  1.0000
  Mn  Mn2       1.0  0.50000  0.50000  0.90674  1.0000
  Mn  Mn3       1.0  0.50000  0.99996  0.03705  1.0000
  Mn  Mn4       1.0  0.99997  0.50005  0.03704  1.0000
  In  In1       1.0  0.00000  0.99999  0.02154  1.0000
  In  In2       1.0  0.50000  0.00000  0.90674  1.0000
  In  In3       1.0  0.00000  0.50000  0.90674  1.0000
  In  In4       1.0  0.49987  0.49986  0.04458  1.0000
  Ni  Ni1       1.0  0.25000  0.25000  0.96891  1.0000
  Ni  Ni2       1.0  0.78811  0.78809  0.09791  1.0000
  Ni  Ni3       1.0  0.75000  0.25000  0.96891  1.0000
  Ni  Ni4       1.0  0.21185  0.78815  0.09785  1.0000
  Ni  Ni5       1.0  0.75000  0.75000  0.96891  1.0000
  Ni  Ni6       1.0  0.21183  0.21183  0.09788  1.0000
  Ni  Ni7       1.0  0.25000  0.75000  0.96891  1.0000
  Ni  Ni8       1.0  0.78815  0.21190  0.09785  1.0000
  C   C1        1.0  0.99995  0.99999  0.11847  1.0000
