# generated using pymatgen
data_Mn4In4Ni8C
_symmetry_space_group_name_H-M   Cm
_cell_length_a   8.64705326
_cell_length_b   8.64705326
_cell_length_c   24.58580000
_cell_angle_alpha   90.00000000
_cell_angle_beta   90.00000000
_cell_angle_gamma   90.00000000
_symmetry_Int_Tables_number   8
_chemical_formula_structural   Mn4In4Ni8C
_chemical_formula_sum   'Mn8 In8 Ni16 C2'
_cell_volume   1838.31788582
_cell_formula_units_Z   2
loop_
 _symmetry_equiv_pos_site_id
 _symmetry_equiv_pos_as_xyz
  1  'x, y, z'
  2  'x, -y, z'
  3  'x+1/2, y+1/2, z'
  4  'x+1/2, -y+1/2, z'
loop_
 _atom_site_type_symbol
 _atom_site_label
 _atom_site_symmetry_multiplicity
 _atom_site_fract_x
 _atom_site_fract_y
 _atom_site_fract_z
 _atom_site_occupancy
  Mn  Mn0  4  0.25000000  0.25004000  0.03705000  1.0
  Mn  Mn1  2  0.00002000  0.00000000  0.90674000  1.0
  Mn  Mn2  2  0.00002000  0.50000000  0.90674000  1.0
  In  In3  4  0.25002000  0.25002000  0.90674000  1.0
  In  In4  2  0.00001500  0.00000000  0.02154000  1.0
  In  In5  2  0.49988500  0.00000000  0.04458000  1.0
  Ni  Ni6  4  0.00002000  0.21187000  0.09785000  1.0
  Ni  Ni7  4  0.00002000  0.24998000  0.96891000  1.0
  Ni  Ni8  2  0.21185000  0.00000000  0.09788000  1.0
  Ni  Ni9  2  0.25002000  0.00000000  0.96891000  1.0
  Ni  Ni10  2  0.25002000  0.50000000  0.96891000  1.0
  Ni  Ni11  2  0.28812000  0.50000000  0.09791000  1.0
  C  C12  2  0.49999000  0.50000000  0.11847000  1.0
