# generated using pymatgen
data_Li8Mg8In8Ge8C
_symmetry_space_group_name_H-M   Pm
_cell_length_a   8.75068000
_cell_length_b   8.41850000
_cell_length_c   26.30740000
_cell_angle_alpha   90.00000000
_cell_angle_beta   90.00000000
_cell_angle_gamma   90.00000000
_symmetry_Int_Tables_number   6
_chemical_formula_structural   Li8Mg8In8Ge8C
_chemical_formula_sum   'Li8 Mg8 In8 Ge8 C1'
_cell_volume   1938.00300919
_cell_formula_units_Z   1
loop_
 _symmetry_equiv_pos_site_id
 _symmetry_equiv_pos_as_xyz
  1  'x, y, z'
  2  'x, -y, z'
loop_
 _atom_site_type_symbol
 _atom_site_label
 _atom_site_symmetry_multiplicity
 _atom_site_fract_x
 _atom_site_fract_y
 _atom_site_fract_z
 _atom_site_occupancy
  Li  Li0  2  0.24864000  0.25103000  0.04267000  1.0
  Li  Li1  2  0.25000000  0.25001000  0.88012000  1.0
  Li  Li2  2  0.75000000  0.25001000  0.88012000  1.0
  Li  Li3  2  0.75148000  0.25095000  0.04270000  1.0
  Mg  Mg4  1  -0.00000000  0.50000000  0.88012000  1.0
  Mg  Mg5  1  0.00000000  0.00000000  0.88012000  1.0
  Mg  Mg6  1  0.00004000  0.00000000  0.03553000  1.0
  Mg  Mg7  1  0.50000000  0.00000000  0.88012000  1.0
  Mg  Mg8  1  0.50000000  0.50000000  0.88012000  1.0
  Mg  Mg9  1  0.50001000  0.00000000  0.04234000  1.0
  Mg  Mg10  1  0.50002000  0.50000000  0.04148000  1.0
  Mg  Mg11  1  0.99998000  0.50000000  0.04576000  1.0
  In  In12  1  0.25000000  0.00000000  0.96004000  1.0
  In  In13  1  0.25000000  0.50000000  0.96004000  1.0
  In  In14  1  0.28601000  0.50000000  0.14700000  1.0
  In  In15  1  0.29630000  0.00000000  0.16230000  1.0
  In  In16  1  0.70360000  0.00000000  0.16228000  1.0
  In  In17  1  0.71414000  0.50000000  0.14692000  1.0
  In  In18  1  0.75000000  0.00000000  0.96004000  1.0
  In  In19  1  0.75000000  0.50000000  0.96004000  1.0
  Ge  Ge20  2  0.00000000  0.25001000  0.96004000  1.0
  Ge  Ge21  2  0.00008000  0.22690000  0.12435000  1.0
  Ge  Ge22  2  0.50000000  0.25001000  0.96004000  1.0
  Ge  Ge23  2  0.50003000  0.24948000  0.10748000  1.0
  C  C24  1  0.99937000  0.00000000  0.11777000  1.0
