# generated using pymatgen
data_Mg16Sc16C
_symmetry_space_group_name_H-M   Pmm2
_cell_length_a   7.19733000
_cell_length_b   10.17860000
_cell_length_c   27.63390000
_cell_angle_alpha   90.00000000
_cell_angle_beta   90.00000000
_cell_angle_gamma   90.00000000
_symmetry_Int_Tables_number   25
_chemical_formula_structural   Mg16Sc16C
_chemical_formula_sum   'Mg16 Sc16 C1'
_cell_volume   2024.42478200
_cell_formula_units_Z   1
loop_
 _symmetry_equiv_pos_site_id
 _symmetry_equiv_pos_as_xyz
  1  'x, y, z'
  2  '-x, -y, z'
  3  '-x, y, z'
  4  'x, -y, z'
loop_
 _atom_site_type_symbol
 _atom_site_label
 _atom_site_symmetry_multiplicity
 _atom_site_fract_x
 _atom_site_fract_y
 _atom_site_fract_z
 _atom_site_occupancy
  Mg  Mg0  2  0.00000000  0.22710000  0.14746000  1.0
  Mg  Mg1  2  0.00000000  0.25000000  0.95396000  1.0
  Mg  Mg2  2  0.50000000  0.25000000  0.95396000  1.0
  Mg  Mg3  2  0.50000000  0.27242000  0.14229000  1.0
  Mg  Mg4  1  0.00000000  0.00000000  0.05244000  1.0
  Mg  Mg5  1  0.00000000  0.00000000  0.86187000  1.0
  Mg  Mg6  1  0.00000000  0.50000000  0.03758000  1.0
  Mg  Mg7  1  0.00000000  0.50000000  0.86187000  1.0
  Mg  Mg8  1  0.50000000  0.00000000  0.04229000  1.0
  Mg  Mg9  1  0.50000000  0.00000000  0.86187000  1.0
  Mg  Mg10  1  0.50000000  0.50000000  0.04689000  1.0
  Mg  Mg11  1  0.50000000  0.50000000  0.86187000  1.0
  Sc  Sc12  4  0.25000000  0.25000000  0.86187000  1.0
  Sc  Sc13  4  0.25784000  0.25584000  0.04721000  1.0
  Sc  Sc14  2  0.22027000  0.50000000  0.12846000  1.0
  Sc  Sc15  2  0.25000000  0.00000000  0.95396000  1.0
  Sc  Sc16  2  0.25000000  0.50000000  0.95396000  1.0
  Sc  Sc17  2  0.28493000  0.00000000  0.13753000  1.0
  C  C18  1  0.00000000  0.00000000  0.14038000  1.0
