# generated using pymatgen
data_Li8Y8In8Ag8C
_symmetry_space_group_name_H-M   'P 1'
_cell_length_a   9.76810000
_cell_length_b   6.90709000
_cell_length_c   27.32610000
_cell_angle_alpha   90.00000000
_cell_angle_beta   90.00000000
_cell_angle_gamma   90.00000000
_symmetry_Int_Tables_number   1
_chemical_formula_structural   Li8Y8In8Ag8C
_chemical_formula_sum   'Li8 Y8 In8 Ag8 C1'
_cell_volume   1843.66862584
_cell_formula_units_Z   1
loop_
 _symmetry_equiv_pos_site_id
 _symmetry_equiv_pos_as_xyz
  1  'x, y, z'
loop_
 _atom_site_type_symbol
 _atom_site_label
 _atom_site_symmetry_multiplicity
 _atom_site_fract_x
 _atom_site_fract_y
 _atom_site_fract_z
 _atom_site_occupancy
  Li  Li0  1  0.00000000  0.00000000  0.04468000  1.0
  Li  Li1  1  0.50000000  0.00000000  0.04468000  1.0
  Li  Li2  1  0.25000000  0.50000000  0.13405000  1.0
  Li  Li3  1  0.75000000  0.50000000  0.13405000  1.0
  Li  Li4  1  0.50000000  0.12712000  0.81034000  1.0
  Li  Li5  1  0.00000000  0.00661000  0.82956000  1.0
  Li  Li6  1  0.74887000  0.50097000  0.95432000  1.0
  Li  Li7  1  0.25113000  0.50097000  0.95432000  1.0
  Y  Y8  1  0.75000000  0.75000000  0.04468000  1.0
  Y  Y9  1  0.25000000  0.75000000  0.04468000  1.0
  Y  Y10  1  0.00000000  0.25000000  0.13405000  1.0
  Y  Y11  1  0.50000000  0.25000000  0.13405000  1.0
  Y  Y12  1  0.28166000  0.78236000  0.86612000  1.0
  Y  Y13  1  0.71834000  0.78236000  0.86612000  1.0
  Y  Y14  1  0.50000000  0.24498000  0.94062000  1.0
  Y  Y15  1  0.00000000  0.24454000  0.94599000  1.0
  In  In16  1  0.75000000  0.25000000  0.04468000  1.0
  In  In17  1  0.25000000  0.25000000  0.04468000  1.0
  In  In18  1  0.00000000  0.75000000  0.13405000  1.0
  In  In19  1  0.50000000  0.75000000  0.13405000  1.0
  In  In20  1  0.23675000  0.25096000  0.85824000  1.0
  In  In21  1  0.76325000  0.25096000  0.85824000  1.0
  In  In22  1  0.50000000  0.74507000  0.95620000  1.0
  In  In23  1  0.00000000  0.75537000  0.95565000  1.0
  Ag  Ag24  1  0.75000000  0.00000000  0.13405000  1.0
  Ag  Ag25  1  0.25000000  0.00000000  0.13405000  1.0
  Ag  Ag26  1  0.50000000  0.50000000  0.04468000  1.0
  Ag  Ag27  1  0.00000000  0.50000000  0.04468000  1.0
  Ag  Ag28  1  0.25210000  0.00526000  0.95767000  1.0
  Ag  Ag29  1  0.74790000  0.00526000  0.95767000  1.0
  Ag  Ag30  1  0.00000000  0.58975000  0.85730000  1.0
  Ag  Ag31  1  0.50000000  0.49254000  0.84709000  1.0
  C  C32  1  0.00000000  0.27338000  0.86255000  1.0
