# generated using pymatgen
data_Li8Y8In8Ag8C
_symmetry_space_group_name_H-M   Pm
_cell_length_a   6.90709000
_cell_length_b   9.76810000
_cell_length_c   27.32610000
_cell_angle_alpha   90.00000000
_cell_angle_beta   90.00000000
_cell_angle_gamma   90.00000000
_symmetry_Int_Tables_number   6
_chemical_formula_structural   Li8Y8In8Ag8C
_chemical_formula_sum   'Li8 Y8 In8 Ag8 C1'
_cell_volume   1843.66862584
_cell_formula_units_Z   1
loop_
 _symmetry_equiv_pos_site_id
 _symmetry_equiv_pos_as_xyz
  1  'x, y, z'
  2  'x, -y, z'
loop_
 _atom_site_type_symbol
 _atom_site_label
 _atom_site_symmetry_multiplicity
 _atom_site_fract_x
 _atom_site_fract_y
 _atom_site_fract_z
 _atom_site_occupancy
  Li  Li0  2  0.50000000  0.25000000  0.86595000  1.0
  Li  Li1  2  0.50097000  0.25113000  0.04568000  1.0
  Li  Li2  1  0.00000000  0.00000000  0.95532000  1.0
  Li  Li3  1  0.00000000  0.50000000  0.95532000  1.0
  Li  Li4  1  0.00661000  0.00000000  0.17044000  1.0
  Li  Li5  1  0.12712000  0.50000000  0.18966000  1.0
  Y  Y6  2  0.75000000  0.25000000  0.95532000  1.0
  Y  Y7  2  0.78236000  0.28166000  0.13388000  1.0
  Y  Y8  1  0.24454000  0.00000000  0.05401000  1.0
  Y  Y9  1  0.24498000  0.50000000  0.05938000  1.0
  Y  Y10  1  0.25000000  0.00000000  0.86595000  1.0
  Y  Y11  1  0.25000000  0.50000000  0.86595000  1.0
  In  In12  2  0.25000000  0.25000000  0.95532000  1.0
  In  In13  2  0.25096000  0.23675000  0.14176000  1.0
  In  In14  1  0.74507000  0.50000000  0.04380000  1.0
  In  In15  1  0.75000000  0.00000000  0.86595000  1.0
  In  In16  1  0.75000000  0.50000000  0.86595000  1.0
  In  In17  1  0.75537000  0.00000000  0.04435000  1.0
  Ag  Ag18  2  0.00000000  0.25000000  0.86595000  1.0
  Ag  Ag19  2  0.00526000  0.25210000  0.04233000  1.0
  Ag  Ag20  1  0.49254000  0.50000000  0.15291000  1.0
  Ag  Ag21  1  0.50000000  0.00000000  0.95532000  1.0
  Ag  Ag22  1  0.50000000  0.50000000  0.95532000  1.0
  Ag  Ag23  1  0.58975000  0.00000000  0.14270000  1.0
  C  C24  1  0.27338000  0.00000000  0.13745000  1.0
