# generated using pymatgen
data_V4Pd12CO
_symmetry_space_group_name_H-M   'P 1'
_cell_length_a   5.54458000
_cell_length_b   7.84123000
_cell_length_c   24.15840000
_cell_angle_alpha   90.00000000
_cell_angle_beta   90.00000000
_cell_angle_gamma   90.00000000
_symmetry_Int_Tables_number   1
_chemical_formula_structural   V4Pd12CO
_chemical_formula_sum   'V4 Pd12 C1 O1'
_cell_volume   1050.31849900
_cell_formula_units_Z   1
loop_
 _symmetry_equiv_pos_site_id
 _symmetry_equiv_pos_as_xyz
  1  'x, y, z'
loop_
 _atom_site_type_symbol
 _atom_site_label
 _atom_site_symmetry_multiplicity
 _atom_site_fract_x
 _atom_site_fract_y
 _atom_site_fract_z
 _atom_site_occupancy
  V  V0  1  0.00000000  0.00000000  0.92651000  1.0
  V  V1  1  0.50000000  0.00000000  0.02869000  1.0
  V  V2  1  0.00000000  0.50000000  0.92953000  1.0
  V  V3  1  0.50000000  0.50000000  0.02869000  1.0
  Pd  Pd4  1  0.50000000  0.00000000  0.90453000  1.0
  Pd  Pd5  1  0.75078000  0.24365000  0.96582000  1.0
  Pd  Pd6  1  0.24922000  0.24365000  0.96582000  1.0
  Pd  Pd7  1  0.00000000  0.00000000  0.02869000  1.0
  Pd  Pd8  1  0.25000000  0.25000000  0.08607000  1.0
  Pd  Pd9  1  0.75000000  0.25000000  0.08607000  1.0
  Pd  Pd10  1  0.50000000  0.50000000  0.91841000  1.0
  Pd  Pd11  1  0.75078000  0.75635000  0.96582000  1.0
  Pd  Pd12  1  0.24922000  0.75635000  0.96582000  1.0
  Pd  Pd13  1  0.00000000  0.50000000  0.02869000  1.0
  Pd  Pd14  1  0.25000000  0.75000000  0.08607000  1.0
  Pd  Pd15  1  0.75000000  0.75000000  0.08607000  1.0
  C  C16  1  0.50000000  0.00000000  0.82377000  1.0
  O  O17  1  0.50000000  0.00000000  0.77608000  1.0
