# generated using pymatgen
data_Nb8Ni16Sn8CO
_symmetry_space_group_name_H-M   Pmm2
_cell_length_a   6.23466000
_cell_length_b   8.81715000
_cell_length_c   26.61290000
_cell_angle_alpha   90.00000000
_cell_angle_beta   90.00000000
_cell_angle_gamma   90.00000000
_symmetry_Int_Tables_number   25
_chemical_formula_structural   Nb8Ni16Sn8CO
_chemical_formula_sum   'Nb8 Ni16 Sn8 C1 O1'
_cell_volume   1462.96254027
_cell_formula_units_Z   1
loop_
 _symmetry_equiv_pos_site_id
 _symmetry_equiv_pos_as_xyz
  1  'x, y, z'
  2  '-x, -y, z'
  3  '-x, y, z'
  4  'x, -y, z'
loop_
 _atom_site_type_symbol
 _atom_site_label
 _atom_site_symmetry_multiplicity
 _atom_site_fract_x
 _atom_site_fract_y
 _atom_site_fract_z
 _atom_site_occupancy
  Nb  Nb0  2  0.00000000  0.25000000  0.87576000  1.0
  Nb  Nb1  2  0.00000000  0.25241000  0.04313000  1.0
  Nb  Nb2  1  0.50000000  0.00000000  0.12282000  1.0
  Nb  Nb3  1  0.50000000  0.00000000  0.95859000  1.0
  Nb  Nb4  1  0.50000000  0.50000000  0.12146000  1.0
  Nb  Nb5  1  0.50000000  0.50000000  0.95859000  1.0
  Ni  Ni6  4  0.25000000  0.25000000  0.95859000  1.0
  Ni  Ni7  4  0.27021000  0.25139000  0.11882000  1.0
  Ni  Ni8  2  0.22300000  0.00000000  0.04402000  1.0
  Ni  Ni9  2  0.24917000  0.50000000  0.04569000  1.0
  Ni  Ni10  2  0.25000000  0.00000000  0.87576000  1.0
  Ni  Ni11  2  0.25000000  0.50000000  0.87576000  1.0
  Sn  Sn12  2  0.50000000  0.24463000  0.03826000  1.0
  Sn  Sn13  2  0.50000000  0.25000000  0.87576000  1.0
  Sn  Sn14  1  0.00000000  0.00000000  0.13532000  1.0
  Sn  Sn15  1  0.00000000  0.00000000  0.95859000  1.0
  Sn  Sn16  1  0.00000000  0.50000000  0.13524000  1.0
  Sn  Sn17  1  0.00000000  0.50000000  0.95859000  1.0
  C  C18  1  0.50000000  0.00000000  0.20260000  1.0
  O  O19  1  0.50000000  0.00000000  0.24603000  1.0
