# generated using pymatgen
data_Ti8Ga8Ni16CO
_symmetry_space_group_name_H-M   'P 1'
_cell_length_a   8.40623000
_cell_length_b   5.94410000
_cell_length_c   26.30470000
_cell_angle_alpha   90.00000000
_cell_angle_beta   90.00000000
_cell_angle_gamma   90.00000000
_symmetry_Int_Tables_number   1
_chemical_formula_structural   Ti8Ga8Ni16CO
_chemical_formula_sum   'Ti8 Ga8 Ni16 C1 O1'
_cell_volume   1314.37935396
_cell_formula_units_Z   1
loop_
 _symmetry_equiv_pos_site_id
 _symmetry_equiv_pos_as_xyz
  1  'x, y, z'
loop_
 _atom_site_type_symbol
 _atom_site_label
 _atom_site_symmetry_multiplicity
 _atom_site_fract_x
 _atom_site_fract_y
 _atom_site_fract_z
 _atom_site_occupancy
  Ti  Ti0  1  0.00000000  0.50000000  0.11984000  1.0
  Ti  Ti1  1  0.25000000  0.00000000  0.03995000  1.0
  Ti  Ti2  1  0.75000000  0.00000000  0.03995000  1.0
  Ti  Ti3  1  0.50000000  0.50000000  0.11984000  1.0
  Ti  Ti4  1  0.50149000  0.50000000  0.96002000  1.0
  Ti  Ti5  1  0.75002000  0.00000000  0.88032000  1.0
  Ti  Ti6  1  0.25002000  0.00000000  0.88234000  1.0
  Ti  Ti7  1  0.99853000  0.50000000  0.96002000  1.0
  Ga  Ga8  1  0.75000000  0.50000000  0.03995000  1.0
  Ga  Ga9  1  0.00000000  0.00000000  0.11984000  1.0
  Ga  Ga10  1  0.25000000  0.50000000  0.03995000  1.0
  Ga  Ga11  1  0.50000000  0.00000000  0.11984000  1.0
  Ga  Ga12  1  0.24999000  0.50000000  0.87779000  1.0
  Ga  Ga13  1  0.49958000  0.00000000  0.96166000  1.0
  Ga  Ga14  1  0.75006000  0.50000000  0.87912000  1.0
  Ga  Ga15  1  0.00043000  0.00000000  0.96166000  1.0
  Ni  Ni16  1  0.00000000  0.25002000  0.03995000  1.0
  Ni  Ni17  1  0.50000000  0.75002000  0.03995000  1.0
  Ni  Ni18  1  0.00000000  0.74998000  0.03995000  1.0
  Ni  Ni19  1  0.50000000  0.24998000  0.03995000  1.0
  Ni  Ni20  1  0.75000000  0.75002000  0.11984000  1.0
  Ni  Ni21  1  0.25000000  0.25002000  0.11984000  1.0
  Ni  Ni22  1  0.75000000  0.24998000  0.11984000  1.0
  Ni  Ni23  1  0.25000000  0.74998000  0.11984000  1.0
  Ni  Ni24  1  0.50064000  0.25100000  0.88608000  1.0
  Ni  Ni25  1  0.99938000  0.74905000  0.88607000  1.0
  Ni  Ni26  1  0.50064000  0.74900000  0.88608000  1.0
  Ni  Ni27  1  0.99938000  0.25095000  0.88607000  1.0
  Ni  Ni28  1  0.25001000  0.75441000  0.95972000  1.0
  Ni  Ni29  1  0.75001000  0.23899000  0.95972000  1.0
  Ni  Ni30  1  0.25001000  0.24559000  0.95972000  1.0
  Ni  Ni31  1  0.75001000  0.76101000  0.95972000  1.0
  C  C32  1  0.25000000  0.50000000  0.79353000  1.0
  O  O33  1  0.25000000  0.50000000  0.74994000  1.0
