# generated using pymatgen
data_Ti8Ga8Ni16CO
_symmetry_space_group_name_H-M   Pm
_cell_length_a   8.40623000
_cell_length_b   5.94410000
_cell_length_c   26.30470000
_cell_angle_alpha   90.00000000
_cell_angle_beta   90.00000000
_cell_angle_gamma   90.00000000
_symmetry_Int_Tables_number   6
_chemical_formula_structural   Ti8Ga8Ni16CO
_chemical_formula_sum   'Ti8 Ga8 Ni16 C1 O1'
_cell_volume   1314.37935396
_cell_formula_units_Z   1
loop_
 _symmetry_equiv_pos_site_id
 _symmetry_equiv_pos_as_xyz
  1  'x, y, z'
  2  'x, -y, z'
loop_
 _atom_site_type_symbol
 _atom_site_label
 _atom_site_symmetry_multiplicity
 _atom_site_fract_x
 _atom_site_fract_y
 _atom_site_fract_z
 _atom_site_occupancy
  Ti  Ti0  1  0.00000000  0.50000000  0.88016000  1.0
  Ti  Ti1  1  0.25000000  0.00000000  0.96005000  1.0
  Ti  Ti2  1  0.25002000  0.00000000  0.11766000  1.0
  Ti  Ti3  1  0.50000000  0.50000000  0.88016000  1.0
  Ti  Ti4  1  0.50149000  0.50000000  0.03998000  1.0
  Ti  Ti5  1  0.75000000  0.00000000  0.96005000  1.0
  Ti  Ti6  1  0.75002000  0.00000000  0.11968000  1.0
  Ti  Ti7  1  0.99853000  0.50000000  0.03998000  1.0
  Ga  Ga8  1  0.00000000  0.00000000  0.88016000  1.0
  Ga  Ga9  1  0.00043000  0.00000000  0.03834000  1.0
  Ga  Ga10  1  0.24999000  0.50000000  0.12221000  1.0
  Ga  Ga11  1  0.25000000  0.50000000  0.96005000  1.0
  Ga  Ga12  1  0.49958000  0.00000000  0.03834000  1.0
  Ga  Ga13  1  0.50000000  0.00000000  0.88016000  1.0
  Ga  Ga14  1  0.75000000  0.50000000  0.96005000  1.0
  Ga  Ga15  1  0.75006000  0.50000000  0.12088000  1.0
  Ni  Ni16  2  0.00000000  0.25002000  0.96005000  1.0
  Ni  Ni17  2  0.25000000  0.25002000  0.88016000  1.0
  Ni  Ni18  2  0.25001000  0.24559000  0.04028000  1.0
  Ni  Ni19  2  0.50000000  0.24998000  0.96005000  1.0
  Ni  Ni20  2  0.50064000  0.25100000  0.11392000  1.0
  Ni  Ni21  2  0.75000000  0.24998000  0.88016000  1.0
  Ni  Ni22  2  0.75001000  0.23899000  0.04028000  1.0
  Ni  Ni23  2  0.99938000  0.25095000  0.11393000  1.0
  C  C24  1  0.25000000  0.50000000  0.20647000  1.0
  O  O25  1  0.25000000  0.50000000  0.25006000  1.0
