# generated using pymatgen
data_Li8Al8Ga8Pd8CO
_symmetry_space_group_name_H-M   'P 1'
_cell_length_a   8.69058000
_cell_length_b   6.14517000
_cell_length_c   26.51790000
_cell_angle_alpha   90.00000000
_cell_angle_beta   90.00000000
_cell_angle_gamma   90.00000000
_symmetry_Int_Tables_number   1
_chemical_formula_structural   Li8Al8Ga8Pd8CO
_chemical_formula_sum   'Li8 Al8 Ga8 Pd8 C1 O1'
_cell_volume   1416.19087585
_cell_formula_units_Z   1
loop_
 _symmetry_equiv_pos_site_id
 _symmetry_equiv_pos_as_xyz
  1  'x, y, z'
loop_
 _atom_site_type_symbol
 _atom_site_label
 _atom_site_symmetry_multiplicity
 _atom_site_fract_x
 _atom_site_fract_y
 _atom_site_fract_z
 _atom_site_occupancy
  Li  Li0  1  0.75002000  0.75000000  0.04097000  1.0
  Li  Li1  1  0.24998000  0.75000000  0.04097000  1.0
  Li  Li2  1  0.00000000  0.25000000  0.12290000  1.0
  Li  Li3  1  0.50000000  0.25000000  0.12290000  1.0
  Li  Li4  1  0.25580000  0.77566000  0.82703000  1.0
  Li  Li5  1  0.74420000  0.77566000  0.82703000  1.0
  Li  Li6  1  0.50000000  0.24468000  0.95617000  1.0
  Li  Li7  1  0.00000000  0.24693000  0.95963000  1.0
  Al  Al8  1  0.75002000  0.00000000  0.12290000  1.0
  Al  Al9  1  0.24998000  0.00000000  0.12290000  1.0
  Al  Al10  1  0.50000000  0.50000000  0.04097000  1.0
  Al  Al11  1  0.00000000  0.50000000  0.04097000  1.0
  Al  Al12  1  0.25066000  0.97771000  0.94756000  1.0
  Al  Al13  1  0.74934000  0.97771000  0.94756000  1.0
  Al  Al14  1  0.00000000  0.50214000  0.87683000  1.0
  Al  Al15  1  0.50000000  0.52943000  0.87553000  1.0
  Ga  Ga16  1  0.00000000  0.00000000  0.04097000  1.0
  Ga  Ga17  1  0.50000000  0.00000000  0.04097000  1.0
  Ga  Ga18  1  0.25002000  0.50000000  0.12290000  1.0
  Ga  Ga19  1  0.74998000  0.50000000  0.12290000  1.0
  Ga  Ga20  1  0.50000000  0.98973000  0.86602000  1.0
  Ga  Ga21  1  0.00000000  0.02357000  0.87251000  1.0
  Ga  Ga22  1  0.75055000  0.51715000  0.95387000  1.0
  Ga  Ga23  1  0.24945000  0.51715000  0.95387000  1.0
  Pd  Pd24  1  0.75002000  0.25000000  0.04097000  1.0
  Pd  Pd25  1  0.24998000  0.25000000  0.04097000  1.0
  Pd  Pd26  1  0.00000000  0.75000000  0.12290000  1.0
  Pd  Pd27  1  0.50000000  0.75000000  0.12290000  1.0
  Pd  Pd28  1  0.26044000  0.26056000  0.87870000  1.0
  Pd  Pd29  1  0.73956000  0.26056000  0.87870000  1.0
  Pd  Pd30  1  0.50000000  0.75499000  0.96208000  1.0
  Pd  Pd31  1  0.00000000  0.75663000  0.96016000  1.0
  C  C32  1  0.00000000  0.74020000  0.82306000  1.0
  O  O33  1  0.00000000  0.75221000  0.77665000  1.0
