# generated using pymatgen
data_Sc8Ga8Ni16CO
_symmetry_space_group_name_H-M   'P 1'
_cell_length_a   8.58191000
_cell_length_b   6.06833000
_cell_length_c   26.43640000
_cell_angle_alpha   90.00000000
_cell_angle_beta   90.00000000
_cell_angle_gamma   90.00000000
_symmetry_Int_Tables_number   1
_chemical_formula_structural   Sc8Ga8Ni16CO
_chemical_formula_sum   'Sc8 Ga8 Ni16 C1 O1'
_cell_volume   1376.75118861
_cell_formula_units_Z   1
loop_
 _symmetry_equiv_pos_site_id
 _symmetry_equiv_pos_as_xyz
  1  'x, y, z'
loop_
 _atom_site_type_symbol
 _atom_site_label
 _atom_site_symmetry_multiplicity
 _atom_site_fract_x
 _atom_site_fract_y
 _atom_site_fract_z
 _atom_site_occupancy
  Sc  Sc0  1  0.00000000  0.00000000  0.12173000  1.0
  Sc  Sc1  1  0.25000000  0.50000000  0.04058000  1.0
  Sc  Sc2  1  0.75000000  0.50000000  0.04058000  1.0
  Sc  Sc3  1  0.50000000  0.00000000  0.12173000  1.0
  Sc  Sc4  1  0.50000000  0.00147000  0.96170000  1.0
  Sc  Sc5  1  0.74483000  0.50408000  0.87277000  1.0
  Sc  Sc6  1  0.25517000  0.50408000  0.87277000  1.0
  Sc  Sc7  1  0.00000000  0.00334000  0.96043000  1.0
  Ga  Ga8  1  0.75000000  0.00000000  0.04058000  1.0
  Ga  Ga9  1  0.00000000  0.50000000  0.12173000  1.0
  Ga  Ga10  1  0.25000000  0.00000000  0.04058000  1.0
  Ga  Ga11  1  0.50000000  0.50000000  0.12173000  1.0
  Ga  Ga12  1  0.24827000  0.99817000  0.87931000  1.0
  Ga  Ga13  1  0.50000000  0.50035000  0.95541000  1.0
  Ga  Ga14  1  0.75173000  0.99817000  0.87931000  1.0
  Ga  Ga15  1  0.00000000  0.49843000  0.95633000  1.0
  Ni  Ni16  1  0.00000000  0.25000000  0.04058000  1.0
  Ni  Ni17  1  0.50000000  0.75000000  0.04058000  1.0
  Ni  Ni18  1  0.00000000  0.75000000  0.04058000  1.0
  Ni  Ni19  1  0.50000000  0.25000000  0.04058000  1.0
  Ni  Ni20  1  0.75000000  0.75000000  0.12173000  1.0
  Ni  Ni21  1  0.25000000  0.25000000  0.12173000  1.0
  Ni  Ni22  1  0.75000000  0.25000000  0.12173000  1.0
  Ni  Ni23  1  0.25000000  0.75000000  0.12173000  1.0
  Ni  Ni24  1  0.50000000  0.22190000  0.88274000  1.0
  Ni  Ni25  1  0.00000000  0.77589000  0.88494000  1.0
  Ni  Ni26  1  0.50000000  0.78166000  0.88266000  1.0
  Ni  Ni27  1  0.00000000  0.23805000  0.87282000  1.0
  Ni  Ni28  1  0.24956000  0.73585000  0.95659000  1.0
  Ni  Ni29  1  0.75213000  0.26726000  0.95471000  1.0
  Ni  Ni30  1  0.24787000  0.26726000  0.95471000  1.0
  Ni  Ni31  1  0.75044000  0.73585000  0.95659000  1.0
  C  C32  1  0.00000000  0.34165000  0.81052000  1.0
  O  O33  1  0.00000000  0.38773000  0.76754000  1.0
