# generated using pymatgen
data_Sc8Ga8Ni16CO
_symmetry_space_group_name_H-M   Pm
_cell_length_a   6.06833000
_cell_length_b   8.58191000
_cell_length_c   26.43640000
_cell_angle_alpha   90.00000000
_cell_angle_beta   90.00000000
_cell_angle_gamma   90.00000000
_symmetry_Int_Tables_number   6
_chemical_formula_structural   Sc8Ga8Ni16CO
_chemical_formula_sum   'Sc8 Ga8 Ni16 C1 O1'
_cell_volume   1376.75118861
_cell_formula_units_Z   1
loop_
 _symmetry_equiv_pos_site_id
 _symmetry_equiv_pos_as_xyz
  1  'x, y, z'
  2  'x, -y, z'
loop_
 _atom_site_type_symbol
 _atom_site_label
 _atom_site_symmetry_multiplicity
 _atom_site_fract_x
 _atom_site_fract_y
 _atom_site_fract_z
 _atom_site_occupancy
  Sc  Sc0  2  0.50000000  0.25000000  0.95942000  1.0
  Sc  Sc1  2  0.50408000  0.25517000  0.12723000  1.0
  Sc  Sc2  1  0.00000000  0.00000000  0.87827000  1.0
  Sc  Sc3  1  0.00000000  0.50000000  0.87827000  1.0
  Sc  Sc4  1  0.00147000  0.50000000  0.03830000  1.0
  Sc  Sc5  1  0.00334000  0.00000000  0.03957000  1.0
  Ga  Ga6  2  0.00000000  0.25000000  0.95942000  1.0
  Ga  Ga7  2  0.99817000  0.24827000  0.12069000  1.0
  Ga  Ga8  1  0.49843000  0.00000000  0.04367000  1.0
  Ga  Ga9  1  0.50000000  0.00000000  0.87827000  1.0
  Ga  Ga10  1  0.50000000  0.50000000  0.87827000  1.0
  Ga  Ga11  1  0.50035000  0.50000000  0.04459000  1.0
  Ni  Ni12  2  0.25000000  0.25000000  0.87827000  1.0
  Ni  Ni13  2  0.26726000  0.24787000  0.04529000  1.0
  Ni  Ni14  2  0.73585000  0.24956000  0.04341000  1.0
  Ni  Ni15  2  0.75000000  0.25000000  0.87827000  1.0
  Ni  Ni16  1  0.22190000  0.50000000  0.11726000  1.0
  Ni  Ni17  1  0.23805000  0.00000000  0.12718000  1.0
  Ni  Ni18  1  0.25000000  0.00000000  0.95942000  1.0
  Ni  Ni19  1  0.25000000  0.50000000  0.95942000  1.0
  Ni  Ni20  1  0.75000000  0.00000000  0.95942000  1.0
  Ni  Ni21  1  0.75000000  0.50000000  0.95942000  1.0
  Ni  Ni22  1  0.77589000  0.00000000  0.11506000  1.0
  Ni  Ni23  1  0.78166000  0.50000000  0.11734000  1.0
  C  C24  1  0.34165000  0.00000000  0.18948000  1.0
  O  O25  1  0.38773000  0.00000000  0.23246000  1.0
