# generated using pymatgen
data_Sc8Ga8Ge8Pd8C
_symmetry_space_group_name_H-M   Pmm2
_cell_length_a   8.08666000
_cell_length_b   8.58414000
_cell_length_c   25.87790000
_cell_angle_alpha   90.00000000
_cell_angle_beta   90.00000000
_cell_angle_gamma   90.00000000
_symmetry_Int_Tables_number   25
_chemical_formula_structural   Sc8Ga8Ge8Pd8C
_chemical_formula_sum   'Sc8 Ga8 Ge8 Pd8 C1'
_cell_volume   1796.36674255
_cell_formula_units_Z   1
loop_
 _symmetry_equiv_pos_site_id
 _symmetry_equiv_pos_as_xyz
  1  'x, y, z'
  2  '-x, -y, z'
  3  '-x, y, z'
  4  'x, -y, z'
loop_
 _atom_site_type_symbol
 _atom_site_label
 _atom_site_symmetry_multiplicity
 _atom_site_fract_x
 _atom_site_fract_y
 _atom_site_fract_z
 _atom_site_occupancy
  Sc  Sc0  2  0.00000000  0.25000000  0.96214000  1.0
  Sc  Sc1  2  0.00000000  0.25270000  0.11647000  1.0
  Sc  Sc2  2  0.50000000  0.23906000  0.11526000  1.0
  Sc  Sc3  2  0.50000000  0.25000000  0.96214000  1.0
  Ga  Ga4  2  0.24977000  0.00000000  0.12458000  1.0
  Ga  Ga5  2  0.25000000  0.00000000  0.96214000  1.0
  Ga  Ga6  2  0.25000000  0.50000000  0.96214000  1.0
  Ga  Ga7  2  0.25790000  0.50000000  0.11514000  1.0
  Ge  Ge8  4  0.25000000  0.25000000  0.88643000  1.0
  Ge  Ge9  4  0.25061000  0.25455000  0.04168000  1.0
  Pd  Pd10  1  0.00000000  0.00000000  0.03891000  1.0
  Pd  Pd11  1  0.00000000  0.00000000  0.88643000  1.0
  Pd  Pd12  1  0.00000000  0.50000000  0.04018000  1.0
  Pd  Pd13  1  0.00000000  0.50000000  0.88643000  1.0
  Pd  Pd14  1  0.50000000  0.00000000  0.03473000  1.0
  Pd  Pd15  1  0.50000000  0.00000000  0.88643000  1.0
  Pd  Pd16  1  0.50000000  0.50000000  0.04076000  1.0
  Pd  Pd17  1  0.50000000  0.50000000  0.88643000  1.0
  C  C18  1  0.00000000  0.00000000  0.12900000  1.0
