# generated using pymatgen
data_Li8Mg8Pd8Pb8CO
_symmetry_space_group_name_H-M   'P 1'
_cell_length_a   9.45090000
_cell_length_b   6.68280000
_cell_length_c   27.08820000
_cell_angle_alpha   90.00000000
_cell_angle_beta   90.00000000
_cell_angle_gamma   90.00000000
_symmetry_Int_Tables_number   1
_chemical_formula_structural   Li8Mg8Pd8Pb8CO
_chemical_formula_sum   'Li8 Mg8 Pd8 Pb8 C1 O1'
_cell_volume   1710.84938949
_cell_formula_units_Z   1
loop_
 _symmetry_equiv_pos_site_id
 _symmetry_equiv_pos_as_xyz
  1  'x, y, z'
loop_
 _atom_site_type_symbol
 _atom_site_label
 _atom_site_symmetry_multiplicity
 _atom_site_fract_x
 _atom_site_fract_y
 _atom_site_fract_z
 _atom_site_occupancy
  Li  Li0  1  0.00000000  0.00000000  0.13084000  1.0
  Li  Li1  1  0.50000000  0.00000000  0.13084000  1.0
  Li  Li2  1  0.75000000  0.50000000  0.04361000  1.0
  Li  Li3  1  0.25000000  0.50000000  0.04361000  1.0
  Li  Li4  1  0.50000000  0.02533000  0.95036000  1.0
  Li  Li5  1  0.00000000  0.01616000  0.95255000  1.0
  Li  Li6  1  0.25024000  0.48774000  0.86353000  1.0
  Li  Li7  1  0.74976000  0.48774000  0.86353000  1.0
  Mg  Mg8  1  0.00000000  0.75000000  0.04361000  1.0
  Mg  Mg9  1  0.50000000  0.75000000  0.04361000  1.0
  Mg  Mg10  1  0.25000000  0.25000000  0.13084000  1.0
  Mg  Mg11  1  0.75000000  0.25000000  0.13084000  1.0
  Mg  Mg12  1  0.50000000  0.76628000  0.86736000  1.0
  Mg  Mg13  1  0.00000000  0.76834000  0.86814000  1.0
  Mg  Mg14  1  0.75219000  0.25492000  0.95359000  1.0
  Mg  Mg15  1  0.24781000  0.25492000  0.95359000  1.0
  Pd  Pd16  1  0.25000000  0.00000000  0.04361000  1.0
  Pd  Pd17  1  0.75000000  0.00000000  0.04361000  1.0
  Pd  Pd18  1  0.50000000  0.50000000  0.13084000  1.0
  Pd  Pd19  1  0.00000000  0.50000000  0.13084000  1.0
  Pd  Pd20  1  0.74935000  0.00761000  0.87473000  1.0
  Pd  Pd21  1  0.25065000  0.00761000  0.87473000  1.0
  Pd  Pd22  1  0.00000000  0.48887000  0.95261000  1.0
  Pd  Pd23  1  0.50000000  0.48020000  0.95151000  1.0
  Pb  Pb24  1  0.00000000  0.25000000  0.04361000  1.0
  Pb  Pb25  1  0.50000000  0.25000000  0.04361000  1.0
  Pb  Pb26  1  0.25000000  0.75000000  0.13084000  1.0
  Pb  Pb27  1  0.75000000  0.75000000  0.13084000  1.0
  Pb  Pb28  1  0.50000000  0.24904000  0.85203000  1.0
  Pb  Pb29  1  0.00000000  0.24951000  0.85435000  1.0
  Pb  Pb30  1  0.74793000  0.74471000  0.95523000  1.0
  Pb  Pb31  1  0.25207000  0.74471000  0.95523000  1.0
  C  C32  1  0.00000000  0.34128000  0.71096000  1.0
  O  O33  1  0.00000000  0.20070000  0.68741000  1.0
