# generated using pymatgen
data_Mn8Ga8Ni16CO
_symmetry_space_group_name_H-M   Pmm2
_cell_length_a   5.88011000
_cell_length_b   8.31574000
_cell_length_c   26.23680000
_cell_angle_alpha   90.00000000
_cell_angle_beta   90.00000000
_cell_angle_gamma   90.00000000
_symmetry_Int_Tables_number   25
_chemical_formula_structural   Mn8Ga8Ni16CO
_chemical_formula_sum   'Mn8 Ga8 Ni16 C1 O1'
_cell_volume   1282.91303415
_cell_formula_units_Z   1
loop_
 _symmetry_equiv_pos_site_id
 _symmetry_equiv_pos_as_xyz
  1  'x, y, z'
  2  '-x, -y, z'
  3  '-x, y, z'
  4  'x, -y, z'
loop_
 _atom_site_type_symbol
 _atom_site_label
 _atom_site_symmetry_multiplicity
 _atom_site_fract_x
 _atom_site_fract_y
 _atom_site_fract_z
 _atom_site_occupancy
  Mn  Mn0  2  0.00000000  0.24945000  0.03798000  1.0
  Mn  Mn1  2  0.00000000  0.25000000  0.88114000  1.0
  Mn  Mn2  1  0.50000000  0.00000000  0.11689000  1.0
  Mn  Mn3  1  0.50000000  0.00000000  0.96038000  1.0
  Mn  Mn4  1  0.50000000  0.50000000  0.11967000  1.0
  Mn  Mn5  1  0.50000000  0.50000000  0.96038000  1.0
  Ga  Ga6  2  0.50000000  0.24974000  0.03879000  1.0
  Ga  Ga7  2  0.50000000  0.25000000  0.88114000  1.0
  Ga  Ga8  1  0.00000000  0.00000000  0.11829000  1.0
  Ga  Ga9  1  0.00000000  0.00000000  0.96038000  1.0
  Ga  Ga10  1  0.00000000  0.50000000  0.12048000  1.0
  Ga  Ga11  1  0.00000000  0.50000000  0.96038000  1.0
  Ni  Ni12  4  0.24268000  0.24937000  0.11343000  1.0
  Ni  Ni13  4  0.25000000  0.25000000  0.96038000  1.0
  Ni  Ni14  2  0.24953000  0.50000000  0.03924000  1.0
  Ni  Ni15  2  0.25000000  0.00000000  0.88114000  1.0
  Ni  Ni16  2  0.25000000  0.50000000  0.88114000  1.0
  Ni  Ni17  2  0.25257000  0.00000000  0.03826000  1.0
  C  C18  1  0.50000000  0.00000000  0.18971000  1.0
  O  O19  1  0.50000000  0.00000000  0.23372000  1.0
