data_image0
_chemical_formula_structural       Li8In8Ag16CO
_chemical_formula_sum              "Li8 In8 Ag16 C1 O1"
_cell_length_a       6.74
_cell_length_b       9.53179
_cell_length_c       27.1488
_cell_angle_alpha    90
_cell_angle_beta     90
_cell_angle_gamma    90

_space_group_name_H-M_alt    "P 1"
_space_group_IT_number       1

loop_
  _space_group_symop_operation_xyz
  'x, y, z'

loop_
  _atom_site_type_symbol
  _atom_site_label
  _atom_site_symmetry_multiplicity
  _atom_site_fract_x
  _atom_site_fract_y
  _atom_site_fract_z
  _atom_site_occupancy
  Li  Li1       1.0  0.00000  0.00000  0.86834  1.0000
  Li  Li2       1.0  0.50000  0.25000  0.95611  1.0000
  Li  Li3       1.0  0.50000  0.75000  0.95611  1.0000
  Li  Li4       1.0  0.00000  0.50000  0.86834  1.0000
  Li  Li5       1.0  0.99999  0.49824  0.03933  1.0000
  Li  Li6       1.0  0.49999  0.75000  0.13438  1.0000
  Li  Li7       1.0  0.49999  0.25000  0.13013  1.0000
  Li  Li8       1.0  0.99999  0.00176  0.03933  1.0000
  In  In1       1.0  0.00000  0.75000  0.95611  1.0000
  In  In2       1.0  0.50000  0.00000  0.86834  1.0000
  In  In3       1.0  0.00000  0.25000  0.95611  1.0000
  In  In4       1.0  0.50000  0.50000  0.86834  1.0000
  In  In5       1.0  0.99998  0.25000  0.14144  1.0000
  In  In6       1.0  0.49999  0.50590  0.04320  1.0000
  In  In7       1.0  0.99998  0.75001  0.15679  1.0000
  In  In8       1.0  0.49999  0.99410  0.04320  1.0000
  Ag  Ag1       1.0  0.25000  0.00000  0.95611  1.0000
  Ag  Ag2       1.0  0.75000  0.50000  0.95611  1.0000
  Ag  Ag3       1.0  0.75000  0.00000  0.95611  1.0000
  Ag  Ag4       1.0  0.25000  0.50000  0.95611  1.0000
  Ag  Ag5       1.0  0.75000  0.75000  0.86834  1.0000
  Ag  Ag6       1.0  0.25000  0.25000  0.86834  1.0000
  Ag  Ag7       1.0  0.25000  0.75000  0.86834  1.0000
  Ag  Ag8       1.0  0.75000  0.25000  0.86834  1.0000
  Ag  Ag9       1.0  0.23065  0.50433  0.12658  1.0000
  Ag  Ag10      1.0  0.76931  0.99567  0.12658  1.0000
  Ag  Ag11      1.0  0.76931  0.50433  0.12658  1.0000
  Ag  Ag12      1.0  0.23065  0.99568  0.12658  1.0000
  Ag  Ag13      1.0  0.74994  0.25000  0.04706  1.0000
  Ag  Ag14      1.0  0.22873  0.75000  0.05176  1.0000
  Ag  Ag15      1.0  0.25003  0.25000  0.04706  1.0000
  Ag  Ag16      1.0  0.77124  0.75000  0.05176  1.0000
  C   C1        1.0  0.00067  0.24991  0.28219  1.0000
  O   O1        1.0  0.99991  0.25003  0.32397  1.0000
