# generated using pymatgen
data_Li16In8Ir8C
_symmetry_space_group_name_H-M   'P 1'
_cell_length_a   6.17944000
_cell_length_b   8.73904000
_cell_length_c   26.55430000
_cell_angle_alpha   90.00000000
_cell_angle_beta   90.00000000
_cell_angle_gamma   90.00000000
_symmetry_Int_Tables_number   1
_chemical_formula_structural   Li16In8Ir8C
_chemical_formula_sum   'Li16 In8 Ir8 C1'
_cell_volume   1433.99522232
_cell_formula_units_Z   1
loop_
 _symmetry_equiv_pos_site_id
 _symmetry_equiv_pos_as_xyz
  1  'x, y, z'
loop_
 _atom_site_type_symbol
 _atom_site_label
 _atom_site_symmetry_multiplicity
 _atom_site_fract_x
 _atom_site_fract_y
 _atom_site_fract_z
 _atom_site_occupancy
  Li  Li0  1  0.25000000  0.00000000  0.95886000  1.0
  Li  Li1  1  0.75000000  0.50000000  0.95886000  1.0
  Li  Li2  1  0.75000000  0.00000000  0.95886000  1.0
  Li  Li3  1  0.25000000  0.50000000  0.95886000  1.0
  Li  Li4  1  0.75000000  0.75000000  0.87659000  1.0
  Li  Li5  1  0.25000000  0.25000000  0.87659000  1.0
  Li  Li6  1  0.25000000  0.75000000  0.87659000  1.0
  Li  Li7  1  0.75000000  0.25000000  0.87659000  1.0
  Li  Li8  1  0.21403000  0.50000000  0.14534000  1.0
  Li  Li9  1  0.69740000  0.00000000  0.12460000  1.0
  Li  Li10  1  0.78597000  0.50000000  0.14534000  1.0
  Li  Li11  1  0.30260000  0.00000000  0.12460000  1.0
  Li  Li12  1  0.75359000  0.24888000  0.04063000  1.0
  Li  Li13  1  0.24641000  0.75112000  0.04063000  1.0
  Li  Li14  1  0.24641000  0.24888000  0.04063000  1.0
  Li  Li15  1  0.75359000  0.75112000  0.04063000  1.0
  In  In16  1  0.00000000  0.00000000  0.87659000  1.0
  In  In17  1  0.50000000  0.25000000  0.95886000  1.0
  In  In18  1  0.50000000  0.75000000  0.95886000  1.0
  In  In19  1  0.00000000  0.50000000  0.87659000  1.0
  In  In20  1  0.00000000  0.50000000  0.04898000  1.0
  In  In21  1  0.50000000  0.72992000  0.12090000  1.0
  In  In22  1  0.50000000  0.27008000  0.12090000  1.0
  In  In23  1  0.00000000  0.00000000  0.03896000  1.0
  Ir  Ir24  1  0.00000000  0.75000000  0.95886000  1.0
  Ir  Ir25  1  0.50000000  0.00000000  0.87659000  1.0
  Ir  Ir26  1  0.00000000  0.25000000  0.95886000  1.0
  Ir  Ir27  1  0.50000000  0.50000000  0.87659000  1.0
  Ir  Ir28  1  0.00000000  0.20373000  0.12505000  1.0
  Ir  Ir29  1  0.50000000  0.50000000  0.04791000  1.0
  Ir  Ir30  1  0.00000000  0.79627000  0.12505000  1.0
  Ir  Ir31  1  0.50000000  0.00000000  0.03996000  1.0
  C  C32  1  0.00000000  0.00000000  0.14766000  1.0
