data_image0
_chemical_formula_structural       Sc8Al8Au16C
_chemical_formula_sum              "Sc8 Al8 Au16 C1"
_cell_length_a       6.63475
_cell_length_b       9.38295
_cell_length_c       27.0372
_cell_angle_alpha    90
_cell_angle_beta     90
_cell_angle_gamma    90

_space_group_name_H-M_alt    "P 1"
_space_group_IT_number       1

loop_
  _space_group_symop_operation_xyz
  'x, y, z'

loop_
  _atom_site_type_symbol
  _atom_site_label
  _atom_site_symmetry_multiplicity
  _atom_site_fract_x
  _atom_site_fract_y
  _atom_site_fract_z
  _atom_site_occupancy
  Sc  Sc1       1.0  0.00000  0.00000  0.86986  1.0000
  Sc  Sc2       1.0  0.50000  0.25000  0.95662  1.0000
  Sc  Sc3       1.0  0.50000  0.75000  0.95662  1.0000
  Sc  Sc4       1.0  0.00000  0.50000  0.86986  1.0000
  Sc  Sc5       1.0  0.00005  0.49991  0.04868  1.0000
  Sc  Sc6       1.0  0.49980  0.77270  0.12561  1.0000
  Sc  Sc7       1.0  0.49952  0.22736  0.12581  1.0000
  Sc  Sc8       1.0  0.99995  0.00020  0.05056  1.0000
  Al  Al1       1.0  0.00000  0.75000  0.95662  1.0000
  Al  Al2       1.0  0.50000  0.00000  0.86986  1.0000
  Al  Al3       1.0  0.00000  0.25000  0.95662  1.0000
  Al  Al4       1.0  0.50000  0.50000  0.86986  1.0000
  Al  Al5       1.0  0.99983  0.26340  0.12854  1.0000
  Al  Al6       1.0  0.49993  0.50023  0.04341  1.0000
  Al  Al7       1.0  0.00005  0.73657  0.12846  1.0000
  Al  Al8       1.0  0.49993  0.00002  0.04299  1.0000
  Au  Au1       1.0  0.25000  0.00000  0.95662  1.0000
  Au  Au2       1.0  0.75000  0.50000  0.95662  1.0000
  Au  Au3       1.0  0.75000  0.00000  0.95662  1.0000
  Au  Au4       1.0  0.25000  0.50000  0.95662  1.0000
  Au  Au5       1.0  0.75000  0.75000  0.86986  1.0000
  Au  Au6       1.0  0.25000  0.25000  0.86986  1.0000
  Au  Au7       1.0  0.25000  0.75000  0.86986  1.0000
  Au  Au8       1.0  0.75000  0.25000  0.86986  1.0000
  Au  Au9       1.0  0.26386  0.49986  0.13075  1.0000
  Au  Au10      1.0  0.80204  0.00046  0.14681  1.0000
  Au  Au11      1.0  0.73568  0.50031  0.13062  1.0000
  Au  Au12      1.0  0.19682  0.99939  0.14688  1.0000
  Au  Au13      1.0  0.75368  0.25439  0.04094  1.0000
  Au  Au14      1.0  0.24543  0.74554  0.04080  1.0000
  Au  Au15      1.0  0.24604  0.25440  0.04084  1.0000
  Au  Au16      1.0  0.75440  0.74564  0.04089  1.0000
  C   C1        1.0  0.49927  0.99996  0.11864  1.0000
