# generated using pymatgen
data_Sc8Al8Au16C
_symmetry_space_group_name_H-M   P1
_cell_length_a   6.63475000
_cell_length_b   9.38295000
_cell_length_c   27.03720000
_cell_angle_alpha   90.00000000
_cell_angle_beta   90.00000000
_cell_angle_gamma   90.00000000
_symmetry_Int_Tables_number   1
_chemical_formula_structural   Sc8Al8Au16C
_chemical_formula_sum   'Sc8 Al8 Au16 C1'
_cell_volume   1683.16107406
_cell_formula_units_Z   1
loop_
 _symmetry_equiv_pos_site_id
 _symmetry_equiv_pos_as_xyz
  1  'x, y, z'
loop_
 _atom_site_type_symbol
 _atom_site_label
 _atom_site_symmetry_multiplicity
 _atom_site_fract_x
 _atom_site_fract_y
 _atom_site_fract_z
 _atom_site_occupancy
  Sc  Sc0  1  0.00000000  0.00000000  0.86986000  1.0
  Sc  Sc1  1  0.00000000  0.50000000  0.86986000  1.0
  Sc  Sc2  1  0.00005000  0.49991000  0.04868000  1.0
  Sc  Sc3  1  0.49952000  0.22736000  0.12581000  1.0
  Sc  Sc4  1  0.49980000  0.77270000  0.12561000  1.0
  Sc  Sc5  1  0.50000000  0.25000000  0.95662000  1.0
  Sc  Sc6  1  0.50000000  0.75000000  0.95662000  1.0
  Sc  Sc7  1  0.99995000  0.00020000  0.05056000  1.0
  Al  Al8  1  0.00000000  0.25000000  0.95662000  1.0
  Al  Al9  1  0.00000000  0.75000000  0.95662000  1.0
  Al  Al10  1  0.00005000  0.73657000  0.12846000  1.0
  Al  Al11  1  0.49993000  0.00002000  0.04299000  1.0
  Al  Al12  1  0.49993000  0.50023000  0.04341000  1.0
  Al  Al13  1  0.50000000  0.00000000  0.86986000  1.0
  Al  Al14  1  0.50000000  0.50000000  0.86986000  1.0
  Al  Al15  1  0.99983000  0.26340000  0.12854000  1.0
  Au  Au16  1  0.19682000  0.99939000  0.14688000  1.0
  Au  Au17  1  0.24543000  0.74554000  0.04080000  1.0
  Au  Au18  1  0.24604000  0.25440000  0.04084000  1.0
  Au  Au19  1  0.25000000  0.00000000  0.95662000  1.0
  Au  Au20  1  0.25000000  0.25000000  0.86986000  1.0
  Au  Au21  1  0.25000000  0.50000000  0.95662000  1.0
  Au  Au22  1  0.25000000  0.75000000  0.86986000  1.0
  Au  Au23  1  0.26386000  0.49986000  0.13075000  1.0
  Au  Au24  1  0.73568000  0.50031000  0.13062000  1.0
  Au  Au25  1  0.75000000  0.00000000  0.95662000  1.0
  Au  Au26  1  0.75000000  0.25000000  0.86986000  1.0
  Au  Au27  1  0.75000000  0.50000000  0.95662000  1.0
  Au  Au28  1  0.75000000  0.75000000  0.86986000  1.0
  Au  Au29  1  0.75368000  0.25439000  0.04094000  1.0
  Au  Au30  1  0.75440000  0.74564000  0.04089000  1.0
  Au  Au31  1  0.80204000  0.00046000  0.14681000  1.0
  C  C32  1  0.49927000  0.99996000  0.11864000  1.0
