# generated using pymatgen
data_Li8Mg8Ge8Pd8C
_symmetry_space_group_name_H-M   'P 1'
_cell_length_a   8.85076000
_cell_length_b   6.25843000
_cell_length_c   26.63810000
_cell_angle_alpha   90.00000000
_cell_angle_beta   90.00000000
_cell_angle_gamma   90.00000000
_symmetry_Int_Tables_number   1
_chemical_formula_structural   Li8Mg8Ge8Pd8C
_chemical_formula_sum   'Li8 Mg8 Ge8 Pd8 C1'
_cell_volume   1475.53395666
_cell_formula_units_Z   1
loop_
 _symmetry_equiv_pos_site_id
 _symmetry_equiv_pos_as_xyz
  1  'x, y, z'
loop_
 _atom_site_type_symbol
 _atom_site_label
 _atom_site_symmetry_multiplicity
 _atom_site_fract_x
 _atom_site_fract_y
 _atom_site_fract_z
 _atom_site_occupancy
  Li  Li0  1  0.74999000  0.25000000  0.04153000  1.0
  Li  Li1  1  0.25001000  0.25000000  0.04153000  1.0
  Li  Li2  1  0.00000000  0.75000000  0.12460000  1.0
  Li  Li3  1  0.50000000  0.75000000  0.12460000  1.0
  Li  Li4  1  0.27749000  0.28935000  0.85771000  1.0
  Li  Li5  1  0.72251000  0.28935000  0.85771000  1.0
  Li  Li6  1  0.50000000  0.76286000  0.95876000  1.0
  Li  Li7  1  0.00000000  0.73231000  0.94580000  1.0
  Mg  Mg8  1  0.00000000  1.00000000  0.04153000  1.0
  Mg  Mg9  1  0.50000000  1.00000000  0.04153000  1.0
  Mg  Mg10  1  0.24999000  0.50000000  0.12460000  1.0
  Mg  Mg11  1  0.75001000  0.50000000  0.12460000  1.0
  Mg  Mg12  1  0.50000000  0.96542000  0.86983000  1.0
  Mg  Mg13  1  0.00000000  0.05870000  0.87459000  1.0
  Mg  Mg14  1  0.73756000  0.48753000  0.95729000  1.0
  Mg  Mg15  1  0.26244000  0.48753000  0.95729000  1.0
  Ge  Ge16  1  0.74999000  0.00000000  0.12460000  1.0
  Ge  Ge17  1  0.25001000  0.00000000  0.12460000  1.0
  Ge  Ge18  1  0.50000000  0.50000000  0.04153000  1.0
  Ge  Ge19  1  0.00000000  0.50000000  0.04153000  1.0
  Ge  Ge20  1  0.24395000  0.00597000  0.95220000  1.0
  Ge  Ge21  1  0.75605000  0.00597000  0.95220000  1.0
  Ge  Ge22  1  0.00000000  0.45626000  0.83731000  1.0
  Ge  Ge23  1  0.50000000  0.52795000  0.87243000  1.0
  Pd  Pd24  1  0.74999000  0.75000000  0.04153000  1.0
  Pd  Pd25  1  0.25001000  0.75000000  0.04153000  1.0
  Pd  Pd26  1  0.00000000  0.25000000  0.12460000  1.0
  Pd  Pd27  1  0.50000000  0.25000000  0.12460000  1.0
  Pd  Pd28  1  0.23579000  0.73132000  0.87594000  1.0
  Pd  Pd29  1  0.76421000  0.73132000  0.87594000  1.0
  Pd  Pd30  1  0.50000000  0.22130000  0.95335000  1.0
  Pd  Pd31  1  0.00000000  0.25188000  0.96384000  1.0
  C  C32  1  0.00000000  0.73589000  0.85873000  1.0
