# generated using pymatgen
data_In8Fe8Co16CO
_symmetry_space_group_name_H-M   Pmm2
_cell_length_a   6.01864000
_cell_length_b   8.51164000
_cell_length_c   26.38370000
_cell_angle_alpha   90.00000000
_cell_angle_beta   90.00000000
_cell_angle_gamma   90.00000000
_symmetry_Int_Tables_number   25
_chemical_formula_structural   In8Fe8Co16CO
_chemical_formula_sum   'In8 Fe8 Co16 C1 O1'
_cell_volume   1351.59729550
_cell_formula_units_Z   1
loop_
 _symmetry_equiv_pos_site_id
 _symmetry_equiv_pos_as_xyz
  1  'x, y, z'
  2  '-x, -y, z'
  3  '-x, y, z'
  4  'x, -y, z'
loop_
 _atom_site_type_symbol
 _atom_site_label
 _atom_site_symmetry_multiplicity
 _atom_site_fract_x
 _atom_site_fract_y
 _atom_site_fract_z
 _atom_site_occupancy
  In  In0  2  0.00000000  0.24798000  0.03820000  1.0
  In  In1  2  0.00000000  0.24999000  0.87902000  1.0
  In  In2  1  0.50000000  0.00000000  0.13324000  1.0
  In  In3  1  0.50000000  0.00000000  0.95967000  1.0
  In  In4  1  0.50000000  0.50000000  0.13693000  1.0
  In  In5  1  0.50000000  0.50000000  0.95967000  1.0
  Fe  Fe6  2  0.50000000  0.24999000  0.87902000  1.0
  Fe  Fe7  2  0.50000000  0.25052000  0.04325000  1.0
  Fe  Fe8  1  0.00000000  0.00000000  0.11718000  1.0
  Fe  Fe9  1  0.00000000  0.00000000  0.95967000  1.0
  Fe  Fe10  1  0.00000000  0.50000000  0.11427000  1.0
  Fe  Fe11  1  0.00000000  0.50000000  0.95967000  1.0
  Co  Co12  4  0.24334000  0.25052000  0.11797000  1.0
  Co  Co13  4  0.25000000  0.24999000  0.95967000  1.0
  Co  Co14  2  0.25000000  0.00000000  0.87902000  1.0
  Co  Co15  2  0.25000000  0.50000000  0.87902000  1.0
  Co  Co16  2  0.26211000  0.50000000  0.04403000  1.0
  Co  Co17  2  0.26249000  0.00000000  0.04315000  1.0
  C  C18  1  0.00000000  0.00000000  0.18585000  1.0
  O  O19  1  0.00000000  0.00000000  0.22998000  1.0
