# generated using pymatgen
data_Ti8Ga8Ni16CO
_symmetry_space_group_name_H-M   'P 1'
_cell_length_a   8.36280000
_cell_length_b   5.91339000
_cell_length_c   26.27210000
_cell_angle_alpha   90.00000000
_cell_angle_beta   90.00000000
_cell_angle_gamma   90.00000000
_symmetry_Int_Tables_number   1
_chemical_formula_structural   Ti8Ga8Ni16CO
_chemical_formula_sum   'Ti8 Ga8 Ni16 C1 O1'
_cell_volume   1299.22096987
_cell_formula_units_Z   1
loop_
 _symmetry_equiv_pos_site_id
 _symmetry_equiv_pos_as_xyz
  1  'x, y, z'
loop_
 _atom_site_type_symbol
 _atom_site_label
 _atom_site_symmetry_multiplicity
 _atom_site_fract_x
 _atom_site_fract_y
 _atom_site_fract_z
 _atom_site_occupancy
  Ti  Ti0  1  0.00000000  0.00000000  0.11937000  1.0
  Ti  Ti1  1  0.25000000  0.50000000  0.03979000  1.0
  Ti  Ti2  1  0.75000000  0.50000000  0.03979000  1.0
  Ti  Ti3  1  0.50000000  0.00000000  0.11937000  1.0
  Ti  Ti4  1  0.50168000  0.00000000  0.95966000  1.0
  Ti  Ti5  1  0.74999000  0.50000000  0.87916000  1.0
  Ti  Ti6  1  0.25001000  0.50000000  0.88034000  1.0
  Ti  Ti7  1  0.99832000  0.00000000  0.95965000  1.0
  Ga  Ga8  1  0.75000000  0.00000000  0.03979000  1.0
  Ga  Ga9  1  0.00000000  0.50000000  0.11937000  1.0
  Ga  Ga10  1  0.25000000  0.00000000  0.03979000  1.0
  Ga  Ga11  1  0.50000000  0.50000000  0.11937000  1.0
  Ga  Ga12  1  0.25003000  0.00000000  0.87960000  1.0
  Ga  Ga13  1  0.49812000  0.50000000  0.96029000  1.0
  Ga  Ga14  1  0.74993000  0.00000000  0.87887000  1.0
  Ga  Ga15  1  0.00188000  0.50000000  0.96029000  1.0
  Ni  Ni16  1  0.00000000  0.75000000  0.03979000  1.0
  Ni  Ni17  1  0.50000000  0.25000000  0.03979000  1.0
  Ni  Ni18  1  0.00000000  0.25000000  0.03979000  1.0
  Ni  Ni19  1  0.50000000  0.75000000  0.03979000  1.0
  Ni  Ni20  1  0.75000000  0.25000000  0.11937000  1.0
  Ni  Ni21  1  0.25000000  0.75000000  0.11937000  1.0
  Ni  Ni22  1  0.75000000  0.75000000  0.11937000  1.0
  Ni  Ni23  1  0.25000000  0.25000000  0.11937000  1.0
  Ni  Ni24  1  0.50117000  0.75448000  0.88454000  1.0
  Ni  Ni25  1  0.99883000  0.24556000  0.88454000  1.0
  Ni  Ni26  1  0.50117000  0.24552000  0.88454000  1.0
  Ni  Ni27  1  0.99883000  0.75444000  0.88454000  1.0
  Ni  Ni28  1  0.25003000  0.25171000  0.96081000  1.0
  Ni  Ni29  1  0.75000000  0.73712000  0.95867000  1.0
  Ni  Ni30  1  0.25003000  0.74829000  0.96081000  1.0
  Ni  Ni31  1  0.75000000  0.26288000  0.95867000  1.0
  C  C32  1  0.25000000  0.50000000  0.79882000  1.0
  O  O33  1  0.25000000  0.50000000  0.75506000  1.0
