# generated using pymatgen
data_Ti8Ga8Ni16CO
_symmetry_space_group_name_H-M   Pm
_cell_length_a   8.36280000
_cell_length_b   5.91339000
_cell_length_c   26.27210000
_cell_angle_alpha   90.00000000
_cell_angle_beta   90.00000000
_cell_angle_gamma   90.00000000
_symmetry_Int_Tables_number   6
_chemical_formula_structural   Ti8Ga8Ni16CO
_chemical_formula_sum   'Ti8 Ga8 Ni16 C1 O1'
_cell_volume   1299.22096987
_cell_formula_units_Z   1
loop_
 _symmetry_equiv_pos_site_id
 _symmetry_equiv_pos_as_xyz
  1  'x, y, z'
  2  'x, -y, z'
loop_
 _atom_site_type_symbol
 _atom_site_label
 _atom_site_symmetry_multiplicity
 _atom_site_fract_x
 _atom_site_fract_y
 _atom_site_fract_z
 _atom_site_occupancy
  Ti  Ti0  1  0.00000000  0.00000000  0.88063000  1.0
  Ti  Ti1  1  0.25000000  0.50000000  0.96021000  1.0
  Ti  Ti2  1  0.25001000  0.50000000  0.11966000  1.0
  Ti  Ti3  1  0.50000000  0.00000000  0.88063000  1.0
  Ti  Ti4  1  0.50168000  0.00000000  0.04034000  1.0
  Ti  Ti5  1  0.74999000  0.50000000  0.12084000  1.0
  Ti  Ti6  1  0.75000000  0.50000000  0.96021000  1.0
  Ti  Ti7  1  0.99832000  0.00000000  0.04035000  1.0
  Ga  Ga8  1  0.00000000  0.50000000  0.88063000  1.0
  Ga  Ga9  1  0.00188000  0.50000000  0.03971000  1.0
  Ga  Ga10  1  0.25000000  0.00000000  0.96021000  1.0
  Ga  Ga11  1  0.25003000  0.00000000  0.12040000  1.0
  Ga  Ga12  1  0.49812000  0.50000000  0.03971000  1.0
  Ga  Ga13  1  0.50000000  0.50000000  0.88063000  1.0
  Ga  Ga14  1  0.74993000  0.00000000  0.12113000  1.0
  Ga  Ga15  1  0.75000000  0.00000000  0.96021000  1.0
  Ni  Ni16  2  0.00000000  0.25000000  0.96021000  1.0
  Ni  Ni17  2  0.25000000  0.25000000  0.88063000  1.0
  Ni  Ni18  2  0.25003000  0.25171000  0.03919000  1.0
  Ni  Ni19  2  0.50000000  0.25000000  0.96021000  1.0
  Ni  Ni20  2  0.50117000  0.24552000  0.11546000  1.0
  Ni  Ni21  2  0.75000000  0.25000000  0.88063000  1.0
  Ni  Ni22  2  0.75000000  0.26288000  0.04133000  1.0
  Ni  Ni23  2  0.99883000  0.24556000  0.11546000  1.0
  C  C24  1  0.25000000  0.50000000  0.20118000  1.0
  O  O25  1  0.25000000  0.50000000  0.24494000  1.0
