# generated using pymatgen
data_Mn8Ni24CO
_symmetry_space_group_name_H-M   Pmm2
_cell_length_a   7.18728000
_cell_length_b   7.18728000
_cell_length_c   25.39050000
_cell_angle_alpha   90.00000000
_cell_angle_beta   90.00000000
_cell_angle_gamma   90.00000000
_symmetry_Int_Tables_number   25
_chemical_formula_structural   Mn8Ni24CO
_chemical_formula_sum   'Mn8 Ni24 C1 O1'
_cell_volume   1311.59690104
_cell_formula_units_Z   1
loop_
 _symmetry_equiv_pos_site_id
 _symmetry_equiv_pos_as_xyz
  1  'x, y, z'
  2  '-x, -y, z'
  3  '-x, y, z'
  4  'x, -y, z'
loop_
 _atom_site_type_symbol
 _atom_site_label
 _atom_site_symmetry_multiplicity
 _atom_site_fract_x
 _atom_site_fract_y
 _atom_site_fract_z
 _atom_site_occupancy
  Mn  Mn0  2  0.25000000  0.00000000  0.03538000  1.0
  Mn  Mn1  2  0.25000000  0.00000000  0.89385000  1.0
  Mn  Mn2  2  0.25000000  0.50000000  0.03538000  1.0
  Mn  Mn3  2  0.25000000  0.50000000  0.89385000  1.0
  Ni  Ni4  4  0.25000000  0.25000000  0.10615000  1.0
  Ni  Ni5  4  0.25000000  0.25000000  0.96462000  1.0
  Ni  Ni6  2  0.00000000  0.25000000  0.03538000  1.0
  Ni  Ni7  2  0.00000000  0.25000000  0.89385000  1.0
  Ni  Ni8  2  0.50000000  0.25000000  0.03538000  1.0
  Ni  Ni9  2  0.50000000  0.25000000  0.89385000  1.0
  Ni  Ni10  1  0.00000000  0.00000000  0.10615000  1.0
  Ni  Ni11  1  0.00000000  0.00000000  0.96462000  1.0
  Ni  Ni12  1  0.00000000  0.50000000  0.10615000  1.0
  Ni  Ni13  1  0.00000000  0.50000000  0.96462000  1.0
  Ni  Ni14  1  0.50000000  0.00000000  0.10615000  1.0
  Ni  Ni15  1  0.50000000  0.00000000  0.96462000  1.0
  Ni  Ni16  1  0.50000000  0.50000000  0.10615000  1.0
  Ni  Ni17  1  0.50000000  0.50000000  0.96462000  1.0
  C  C18  1  0.00000000  0.00000000  0.18098000  1.0
  O  O19  1  0.00000000  0.00000000  0.22628000  1.0
