# generated using pymatgen
data_Li8Cu8Ag8Ge8C
_symmetry_space_group_name_H-M   'P 1'
_cell_length_a   8.81124000
_cell_length_b   6.23049000
_cell_length_c   26.60840000
_cell_angle_alpha   90.00000000
_cell_angle_beta   90.00000000
_cell_angle_gamma   90.00000000
_symmetry_Int_Tables_number   1
_chemical_formula_structural   Li8Cu8Ag8Ge8C
_chemical_formula_sum   'Li8 Cu8 Ag8 Ge8 C1'
_cell_volume   1460.75706210
_cell_formula_units_Z   1
loop_
 _symmetry_equiv_pos_site_id
 _symmetry_equiv_pos_as_xyz
  1  'x, y, z'
loop_
 _atom_site_type_symbol
 _atom_site_label
 _atom_site_symmetry_multiplicity
 _atom_site_fract_x
 _atom_site_fract_y
 _atom_site_fract_z
 _atom_site_occupancy
  Li  Li0  1  0.75000000  0.25000000  0.04139000  1.0
  Li  Li1  1  0.25000000  0.25000000  0.04139000  1.0
  Li  Li2  1  0.00000000  0.75000000  0.12418000  1.0
  Li  Li3  1  0.50000000  0.75000000  0.12418000  1.0
  Li  Li4  1  0.23746000  0.22441000  0.86555000  1.0
  Li  Li5  1  0.76254000  0.22441000  0.86555000  1.0
  Li  Li6  1  0.50000000  0.73933000  0.95913000  1.0
  Li  Li7  1  0.00000000  0.73887000  0.95554000  1.0
  Cu  Cu8  1  0.00000000  0.00000000  0.04139000  1.0
  Cu  Cu9  1  0.50000000  0.00000000  0.04139000  1.0
  Cu  Cu10  1  0.25000000  0.50000000  0.12418000  1.0
  Cu  Cu11  1  0.75000000  0.50000000  0.12418000  1.0
  Cu  Cu12  1  0.50000000  0.98409000  0.88093000  1.0
  Cu  Cu13  1  0.00000000  0.93108000  0.86512000  1.0
  Cu  Cu14  1  0.74515000  0.51103000  0.95202000  1.0
  Cu  Cu15  1  0.25485000  0.51103000  0.95202000  1.0
  Ag  Ag16  1  0.75000000  0.00000000  0.12418000  1.0
  Ag  Ag17  1  0.25000000  0.00000000  0.12418000  1.0
  Ag  Ag18  1  0.50000000  0.50000000  0.04139000  1.0
  Ag  Ag19  1  0.00000000  0.50000000  0.04139000  1.0
  Ag  Ag20  1  0.25148000  0.98898000  0.95545000  1.0
  Ag  Ag21  1  0.74852000  0.98898000  0.95545000  1.0
  Ag  Ag22  1  0.00000000  0.52399000  0.85889000  1.0
  Ag  Ag23  1  0.50000000  0.48510000  0.86883000  1.0
  Ge  Ge24  1  0.75000000  0.75000000  0.04139000  1.0
  Ge  Ge25  1  0.25000000  0.75000000  0.04139000  1.0
  Ge  Ge26  1  0.00000000  0.25000000  0.12418000  1.0
  Ge  Ge27  1  0.50000000  0.25000000  0.12418000  1.0
  Ge  Ge28  1  0.26009000  0.75003000  0.86879000  1.0
  Ge  Ge29  1  0.73991000  0.75003000  0.86879000  1.0
  Ge  Ge30  1  0.50000000  0.25562000  0.95494000  1.0
  Ge  Ge31  1  0.00000000  0.25990000  0.96175000  1.0
  C  C32  1  0.00000000  0.20684000  0.89058000  1.0
