# generated using pymatgen
data_Li4Y4Ge4Pb4CO
_symmetry_space_group_name_H-M   Pm
_cell_length_a   6.52719000
_cell_length_b   8.65500000
_cell_length_c   24.84630000
_cell_angle_alpha   90.00000000
_cell_angle_beta   90.00000000
_cell_angle_gamma   90.00000000
_symmetry_Int_Tables_number   6
_chemical_formula_structural   Li4Y4Ge4Pb4CO
_chemical_formula_sum   'Li4 Y4 Ge4 Pb4 C1 O1'
_cell_volume   1403.63778836
_cell_formula_units_Z   1
loop_
 _symmetry_equiv_pos_site_id
 _symmetry_equiv_pos_as_xyz
  1  'x, y, z'
  2  'x, -y, z'
loop_
 _atom_site_type_symbol
 _atom_site_label
 _atom_site_symmetry_multiplicity
 _atom_site_fract_x
 _atom_site_fract_y
 _atom_site_fract_z
 _atom_site_occupancy
  Li  Li0  2  0.50000000  0.25000000  0.90247000  1.0
  Li  Li1  2  0.92496000  0.24996000  0.02847000  1.0
  Y  Y2  1  0.21469000  0.00000000  0.96749000  1.0
  Y  Y3  1  0.21469000  0.50000000  0.96749000  1.0
  Y  Y4  1  0.57373000  0.50000000  0.09568000  1.0
  Y  Y5  1  0.57525000  0.00000000  0.09614000  1.0
  Ge  Ge6  2  0.00000000  0.25000000  0.90247000  1.0
  Ge  Ge7  2  0.34701000  0.25205000  0.04529000  1.0
  Pb  Pb8  1  0.08527000  0.50000000  0.11248000  1.0
  Pb  Pb9  1  0.08592000  0.00000000  0.11425000  1.0
  Pb  Pb10  1  0.71469000  0.00000000  0.96749000  1.0
  Pb  Pb11  1  0.71469000  0.50000000  0.96749000  1.0
  C  C12  1  0.63121000  0.00000000  0.19491000  1.0
  O  O13  1  0.65628000  0.00000000  0.24077000  1.0
