# generated using pymatgen
data_Li8Ti8Al8Pd8CO
_symmetry_space_group_name_H-M   'P 1'
_cell_length_a   6.17553000
_cell_length_b   8.73352000
_cell_length_c   26.55010000
_cell_angle_alpha   90.00000000
_cell_angle_beta   90.00000000
_cell_angle_gamma   90.00000000
_symmetry_Int_Tables_number   1
_chemical_formula_structural   Li8Ti8Al8Pd8CO
_chemical_formula_sum   'Li8 Ti8 Al8 Pd8 C1 O1'
_cell_volume   1431.95614044
_cell_formula_units_Z   1
loop_
 _symmetry_equiv_pos_site_id
 _symmetry_equiv_pos_as_xyz
  1  'x, y, z'
loop_
 _atom_site_type_symbol
 _atom_site_label
 _atom_site_symmetry_multiplicity
 _atom_site_fract_x
 _atom_site_fract_y
 _atom_site_fract_z
 _atom_site_occupancy
  Li  Li0  1  0.75000000  0.00000000  0.95888000  1.0
  Li  Li1  1  0.75000000  0.50000000  0.95888000  1.0
  Li  Li2  1  0.25000000  0.25000000  0.87665000  1.0
  Li  Li3  1  0.25000000  0.75000000  0.87665000  1.0
  Li  Li4  1  0.70810000  0.49360000  0.15453000  1.0
  Li  Li5  1  0.60690000  0.99736000  0.18277000  1.0
  Li  Li6  1  0.24432000  0.74957000  0.04065000  1.0
  Li  Li7  1  0.23580000  0.24501000  0.04154000  1.0
  Ti  Ti8  1  1.00000000  0.25000000  0.95888000  1.0
  Ti  Ti9  1  1.00000000  0.75000000  0.95888000  1.0
  Ti  Ti10  1  0.50000000  0.50000000  0.87665000  1.0
  Ti  Ti11  1  0.50000000  0.00000000  0.87665000  1.0
  Ti  Ti12  1  0.96954000  0.76891000  0.12335000  1.0
  Ti  Ti13  1  0.96672000  0.21142000  0.12817000  1.0
  Ti  Ti14  1  0.51913000  0.99852000  0.04438000  1.0
  Ti  Ti15  1  0.51104000  0.49707000  0.04550000  1.0
  Al  Al16  1  0.00000000  0.00000000  0.87665000  1.0
  Al  Al17  1  0.00000000  0.50000000  0.87665000  1.0
  Al  Al18  1  0.50000000  0.75000000  0.95888000  1.0
  Al  Al19  1  0.50000000  0.25000000  0.95888000  1.0
  Al  Al20  1  0.99428000  0.49766000  0.04480000  1.0
  Al  Al21  1  0.99932000  0.99760000  0.04025000  1.0
  Al  Al22  1  0.47475000  0.24681000  0.11922000  1.0
  Al  Al23  1  0.48715000  0.74289000  0.12015000  1.0
  Pd  Pd24  1  0.25000000  0.00000000  0.95888000  1.0
  Pd  Pd25  1  0.25000000  0.50000000  0.95888000  1.0
  Pd  Pd26  1  0.75000000  0.25000000  0.87665000  1.0
  Pd  Pd27  1  0.75000000  0.75000000  0.87665000  1.0
  Pd  Pd28  1  0.23673000  0.49419000  0.12069000  1.0
  Pd  Pd29  1  0.26847000  0.99162000  0.11726000  1.0
  Pd  Pd30  1  0.75570000  0.74734000  0.03789000  1.0
  Pd  Pd31  1  0.75632000  0.24612000  0.03999000  1.0
  C  C32  1  0.94897000  0.95731000  0.16335000  1.0
  O  O33  1  0.89997000  0.08190000  0.18882000  1.0
