# generated using pymatgen
data_YZn
_symmetry_space_group_name_H-M   'P 1'
_cell_length_a   10.13590000
_cell_length_b   7.16718000
_cell_length_c   27.60190000
_cell_angle_alpha   90.00000000
_cell_angle_beta   90.00000000
_cell_angle_gamma   90.00000000
_symmetry_Int_Tables_number   1
_chemical_formula_structural   YZn
_chemical_formula_sum   'Y16 Zn16'
_cell_volume   2005.16265249
_cell_formula_units_Z   16
loop_
 _symmetry_equiv_pos_site_id
 _symmetry_equiv_pos_as_xyz
  1  'x, y, z'
loop_
 _atom_site_type_symbol
 _atom_site_label
 _atom_site_symmetry_multiplicity
 _atom_site_fract_x
 _atom_site_fract_y
 _atom_site_fract_z
 _atom_site_occupancy
  Y  Y0  1  0.00000000  0.00000000  0.13771000  1.0
  Y  Y1  1  0.25000000  0.00000000  0.04590000  1.0
  Y  Y2  1  0.99995000  0.00000000  0.95571000  1.0
  Y  Y3  1  0.25000000  0.00000000  0.86476000  1.0
  Y  Y4  1  0.50000000  0.00000000  0.13771000  1.0
  Y  Y5  1  0.75000000  0.00000000  0.04590000  1.0
  Y  Y6  1  0.49996000  0.00000000  0.95571000  1.0
  Y  Y7  1  0.75012000  0.00000000  0.86474000  1.0
  Y  Y8  1  0.00000000  0.50000000  0.13771000  1.0
  Y  Y9  1  0.25000000  0.50000000  0.04590000  1.0
  Y  Y10  1  0.99993000  0.50000000  0.95572000  1.0
  Y  Y11  1  0.25006000  0.50000000  0.86475000  1.0
  Y  Y12  1  0.50000000  0.50000000  0.13771000  1.0
  Y  Y13  1  0.75000000  0.50000000  0.04590000  1.0
  Y  Y14  1  0.49997000  0.50000000  0.95570000  1.0
  Y  Y15  1  0.75004000  0.50000000  0.86474000  1.0
  Zn  Zn16  1  0.25000000  0.75000000  0.13771000  1.0
  Zn  Zn17  1  0.00000000  0.75000000  0.04590000  1.0
  Zn  Zn18  1  0.24986000  0.74998000  0.95424000  1.0
  Zn  Zn19  1  0.49996000  0.75011000  0.86426000  1.0
  Zn  Zn20  1  0.75000000  0.75000000  0.13771000  1.0
  Zn  Zn21  1  0.50000000  0.75000000  0.04590000  1.0
  Zn  Zn22  1  0.75002000  0.75001000  0.95427000  1.0
  Zn  Zn23  1  0.00010000  0.74992000  0.86428000  1.0
  Zn  Zn24  1  0.25000000  0.25000000  0.13771000  1.0
  Zn  Zn25  1  0.00000000  0.25000000  0.04590000  1.0
  Zn  Zn26  1  0.24986000  0.25002000  0.95424000  1.0
  Zn  Zn27  1  0.49996000  0.24989000  0.86426000  1.0
  Zn  Zn28  1  0.75000000  0.25000000  0.13771000  1.0
  Zn  Zn29  1  0.50000000  0.25000000  0.04590000  1.0
  Zn  Zn30  1  0.75002000  0.24999000  0.95427000  1.0
  Zn  Zn31  1  0.00010000  0.25008000  0.86428000  1.0
