# generated using pymatgen
data_Mg8Zn8Ag16CO
_symmetry_space_group_name_H-M   Pmm2
_cell_length_a   6.56971000
_cell_length_b   9.29097000
_cell_length_c   26.96820000
_cell_angle_alpha   90.00000000
_cell_angle_beta   90.00000000
_cell_angle_gamma   90.00000000
_symmetry_Int_Tables_number   25
_chemical_formula_structural   Mg8Zn8Ag16CO
_chemical_formula_sum   'Mg8 Zn8 Ag16 C1 O1'
_cell_volume   1646.11138049
_cell_formula_units_Z   1
loop_
 _symmetry_equiv_pos_site_id
 _symmetry_equiv_pos_as_xyz
  1  'x, y, z'
  2  '-x, -y, z'
  3  '-x, y, z'
  4  'x, -y, z'
loop_
 _atom_site_type_symbol
 _atom_site_label
 _atom_site_symmetry_multiplicity
 _atom_site_fract_x
 _atom_site_fract_y
 _atom_site_fract_z
 _atom_site_occupancy
  Mg  Mg0  2  0.00000000  0.24902000  0.04343000  1.0
  Mg  Mg1  2  0.00000000  0.25000000  0.87081000  1.0
  Mg  Mg2  1  0.50000000  0.00000000  0.13312000  1.0
  Mg  Mg3  1  0.50000000  0.00000000  0.95694000  1.0
  Mg  Mg4  1  0.50000000  0.50000000  0.13477000  1.0
  Mg  Mg5  1  0.50000000  0.50000000  0.95694000  1.0
  Zn  Zn6  2  0.50000000  0.25000000  0.87081000  1.0
  Zn  Zn7  2  0.50000000  0.25109000  0.04266000  1.0
  Zn  Zn8  1  0.00000000  0.00000000  0.12539000  1.0
  Zn  Zn9  1  0.00000000  0.00000000  0.95694000  1.0
  Zn  Zn10  1  0.00000000  0.50000000  0.12921000  1.0
  Zn  Zn11  1  0.00000000  0.50000000  0.95694000  1.0
  Ag  Ag12  4  0.24906000  0.25370000  0.12885000  1.0
  Ag  Ag13  4  0.25000000  0.25000000  0.95694000  1.0
  Ag  Ag14  2  0.25000000  0.00000000  0.87081000  1.0
  Ag  Ag15  2  0.25000000  0.50000000  0.87081000  1.0
  Ag  Ag16  2  0.25420000  0.50000000  0.04260000  1.0
  Ag  Ag17  2  0.25580000  0.00000000  0.04382000  1.0
  C  C18  1  0.00000000  0.00000000  0.20132000  1.0
  O  O19  1  0.00000000  0.00000000  0.24396000  1.0
