# generated using pymatgen
data_Li4Y4Ge4Pb4C
_symmetry_space_group_name_H-M   P1
_cell_length_a   6.56037000
_cell_length_b   8.55406000
_cell_length_c   24.87870000
_cell_angle_alpha   90.00000000
_cell_angle_beta   90.00000000
_cell_angle_gamma   90.00000000
_symmetry_Int_Tables_number   1
_chemical_formula_structural   Li4Y4Ge4Pb4C
_chemical_formula_sum   'Li4 Y4 Ge4 Pb4 C1'
_cell_volume   1396.13787608
_cell_formula_units_Z   1
loop_
 _symmetry_equiv_pos_site_id
 _symmetry_equiv_pos_as_xyz
  1  'x, y, z'
loop_
 _atom_site_type_symbol
 _atom_site_label
 _atom_site_symmetry_multiplicity
 _atom_site_fract_x
 _atom_site_fract_y
 _atom_site_fract_z
 _atom_site_occupancy
  Li  Li0  1  0.26601000  0.74997000  0.95987000  1.0
  Li  Li1  1  0.31816000  0.25002000  0.97568000  1.0
  Li  Li2  1  0.84731000  0.25000000  0.09805000  1.0
  Li  Li3  1  0.84731000  0.75000000  0.09805000  1.0
  Y  Y4  1  0.34731000  0.25000000  0.09805000  1.0
  Y  Y5  1  0.34731000  0.75000000  0.09805000  1.0
  Y  Y6  1  0.77040000  0.75000000  0.97139000  1.0
  Y  Y7  1  0.80845000  0.24999000  0.96546000  1.0
  Ge  Ge8  1  0.02748000  0.52970000  0.89826000  1.0
  Ge  Ge9  1  0.02750000  0.97019000  0.89823000  1.0
  Ge  Ge10  1  0.56487000  -0.00000000  0.03268000  1.0
  Ge  Ge11  1  0.56487000  0.50000000  0.03268000  1.0
  Pb  Pb12  1  0.06487000  -0.00000000  0.03268000  1.0
  Pb  Pb13  1  0.06487000  0.50000000  0.03268000  1.0
  Pb  Pb14  1  0.49962000  0.01425000  0.90516000  1.0
  Pb  Pb15  1  0.49966000  0.48575000  0.90514000  1.0
  C  C16  1  0.01508000  0.74995000  0.90294000  1.0
