# generated using pymatgen
data_Y4Pb12CO
_symmetry_space_group_name_H-M   Pm
_cell_length_a   7.01086000
_cell_length_b   9.91485000
_cell_length_c   25.25810000
_cell_angle_alpha   90.00000000
_cell_angle_beta   90.00000000
_cell_angle_gamma   90.00000000
_symmetry_Int_Tables_number   6
_chemical_formula_structural   Y4Pb12CO
_chemical_formula_sum   'Y4 Pb12 C1 O1'
_cell_volume   1755.73158226
_cell_formula_units_Z   1
loop_
 _symmetry_equiv_pos_site_id
 _symmetry_equiv_pos_as_xyz
  1  'x, y, z'
  2  'x, -y, z'
loop_
 _atom_site_type_symbol
 _atom_site_label
 _atom_site_symmetry_multiplicity
 _atom_site_fract_x
 _atom_site_fract_y
 _atom_site_fract_z
 _atom_site_occupancy
  Y  Y0  2  0.00000000  0.24998000  0.10409000  1.0
  Y  Y1  2  0.50235000  0.24631000  0.97073000  1.0
  Pb  Pb2  2  0.00147000  0.24604000  0.96066000  1.0
  Pb  Pb3  2  0.50000000  0.24998000  0.10409000  1.0
  Pb  Pb4  1  0.25000000  0.00000000  0.03470000  1.0
  Pb  Pb5  1  0.25000000  0.50000000  0.03470000  1.0
  Pb  Pb6  1  0.26485000  0.50000000  0.90278000  1.0
  Pb  Pb7  1  0.26607000  0.00000000  0.89905000  1.0
  Pb  Pb8  1  0.73903000  0.50000000  0.90350000  1.0
  Pb  Pb9  1  0.74277000  0.00000000  0.89783000  1.0
  Pb  Pb10  1  0.75000000  0.00000000  0.03470000  1.0
  Pb  Pb11  1  0.75000000  0.50000000  0.03470000  1.0
  C  C12  1  0.68714000  0.50000000  0.76061000  1.0
  O  O13  1  0.78192000  0.50000000  0.72403000  1.0
