# generated using pymatgen
data_Li4Mg4Al4Ag4C
_symmetry_space_group_name_H-M   'P 1'
_cell_length_a   6.43596000
_cell_length_b   6.43596000
_cell_length_c   24.82700000
_cell_angle_alpha   90.00000000
_cell_angle_beta   90.00000000
_cell_angle_gamma   90.00000000
_symmetry_Int_Tables_number   1
_chemical_formula_structural   Li4Mg4Al4Ag4C
_chemical_formula_sum   'Li4 Mg4 Al4 Ag4 C1'
_cell_volume   1028.37359451
_cell_formula_units_Z   1
loop_
 _symmetry_equiv_pos_site_id
 _symmetry_equiv_pos_as_xyz
  1  'x, y, z'
loop_
 _atom_site_type_symbol
 _atom_site_label
 _atom_site_symmetry_multiplicity
 _atom_site_fract_x
 _atom_site_fract_y
 _atom_site_fract_z
 _atom_site_occupancy
  Li  Li0  1  0.27058000  0.72942000  0.12336000  1
  Li  Li1  1  0.75000000  0.75000000  0.96760000  1
  Li  Li2  1  0.25000000  0.25000000  0.96760000  1
  Li  Li3  1  0.72942000  0.27058000  0.12336000  1
  Mg  Mg4  1  0.50000000  0.50000000  0.03049000  1
  Mg  Mg5  1  1.00000000  0.50000000  0.90279000  1
  Mg  Mg6  1  0.50000000  0.00000000  0.90279000  1
  Mg  Mg7  1  0.00000000  0.00000000  0.04113000  1
  Al  Al8  1  0.50000000  0.00000000  0.03656000  1
  Al  Al9  1  0.00000000  0.00000000  0.90279000  1
  Al  Al10  1  0.50000000  0.50000000  0.90279000  1
  Al  Al11  1  1.00000000  0.50000000  0.03656000  1
  Ag  Ag12  1  0.73400000  0.73400000  0.09828000  1
  Ag  Ag13  1  0.24999000  0.75001000  0.96760000  1
  Ag  Ag14  1  0.75001000  0.24999000  0.96760000  1
  Ag  Ag15  1  0.26600000  0.26600000  0.09828000  1
  C  C16  1  0.50000000  0.50000000  0.11940000  1
