# generated using pymatgen
data_Fe16Co8Ge8CO
_symmetry_space_group_name_H-M   'P 1'
_cell_length_a   8.17053000
_cell_length_b   5.77744000
_cell_length_c   26.12790000
_cell_angle_alpha   90.00000000
_cell_angle_beta   90.00000000
_cell_angle_gamma   90.00000000
_symmetry_Int_Tables_number   1
_chemical_formula_structural   Fe16Co8Ge8CO
_chemical_formula_sum   'Fe16 Co8 Ge8 C1 O1'
_cell_volume   1233.36090504
_cell_formula_units_Z   1
loop_
 _symmetry_equiv_pos_site_id
 _symmetry_equiv_pos_as_xyz
  1  'x, y, z'
loop_
 _atom_site_type_symbol
 _atom_site_label
 _atom_site_symmetry_multiplicity
 _atom_site_fract_x
 _atom_site_fract_y
 _atom_site_fract_z
 _atom_site_occupancy
  Fe  Fe0  1  0.00000000  0.75000000  0.03909000  1.0
  Fe  Fe1  1  0.50000000  0.25000000  0.03909000  1.0
  Fe  Fe2  1  0.00000000  0.25000000  0.03909000  1.0
  Fe  Fe3  1  0.50000000  0.75000000  0.03909000  1.0
  Fe  Fe4  1  0.75000000  0.25000000  0.11727000  1.0
  Fe  Fe5  1  0.25000000  0.75000000  0.11727000  1.0
  Fe  Fe6  1  0.75000000  0.75000000  0.11727000  1.0
  Fe  Fe7  1  0.25000000  0.25000000  0.11727000  1.0
  Fe  Fe8  1  0.50235000  0.75327000  0.88100000  1.0
  Fe  Fe9  1  0.99771000  0.24675000  0.88102000  1.0
  Fe  Fe10  1  0.50235000  0.24673000  0.88100000  1.0
  Fe  Fe11  1  0.99771000  0.75325000  0.88102000  1.0
  Fe  Fe12  1  0.24996000  0.24483000  0.96192000  1.0
  Fe  Fe13  1  0.74995000  0.75710000  0.95939000  1.0
  Fe  Fe14  1  0.24996000  0.75517000  0.96192000  1.0
  Fe  Fe15  1  0.74995000  0.24290000  0.95939000  1.0
  Co  Co16  1  0.00000000  0.00000000  0.11727000  1.0
  Co  Co17  1  0.25000000  0.50000000  0.03909000  1.0
  Co  Co18  1  0.75000000  0.50000000  0.03909000  1.0
  Co  Co19  1  0.50000000  0.00000000  0.11727000  1.0
  Co  Co20  1  0.50268000  0.00000000  0.95590000  1.0
  Co  Co21  1  0.75000000  0.50000000  0.88817000  1.0
  Co  Co22  1  0.25008000  0.50000000  0.88202000  1.0
  Co  Co23  1  0.99719000  0.00000000  0.95592000  1.0
  Ge  Ge24  1  0.75000000  0.00000000  0.03909000  1.0
  Ge  Ge25  1  0.00000000  0.50000000  0.11727000  1.0
  Ge  Ge26  1  0.25000000  0.00000000  0.03909000  1.0
  Ge  Ge27  1  0.50000000  0.50000000  0.11727000  1.0
  Ge  Ge28  1  0.25003000  0.00000000  0.87961000  1.0
  Ge  Ge29  1  0.49472000  0.50000000  0.96007000  1.0
  Ge  Ge30  1  0.75003000  0.00000000  0.86934000  1.0
  Ge  Ge31  1  0.00522000  0.50000000  0.96008000  1.0
  C  C32  1  0.25003000  0.50000000  0.81467000  1.0
  O  O33  1  0.24998000  0.50000000  0.77021000  1.0
