# generated using pymatgen
data_Fe16Co8Ge8CO
_symmetry_space_group_name_H-M   Pm
_cell_length_a   8.17053000
_cell_length_b   5.77744000
_cell_length_c   26.12790000
_cell_angle_alpha   90.00000000
_cell_angle_beta   90.00000000
_cell_angle_gamma   90.00000000
_symmetry_Int_Tables_number   6
_chemical_formula_structural   Fe16Co8Ge8CO
_chemical_formula_sum   'Fe16 Co8 Ge8 C1 O1'
_cell_volume   1233.36090504
_cell_formula_units_Z   1
loop_
 _symmetry_equiv_pos_site_id
 _symmetry_equiv_pos_as_xyz
  1  'x, y, z'
  2  'x, -y, z'
loop_
 _atom_site_type_symbol
 _atom_site_label
 _atom_site_symmetry_multiplicity
 _atom_site_fract_x
 _atom_site_fract_y
 _atom_site_fract_z
 _atom_site_occupancy
  Fe  Fe0  2  0.00000000  0.25000000  0.96091000  1.0
  Fe  Fe1  2  0.24996000  0.24483000  0.03808000  1.0
  Fe  Fe2  2  0.25000000  0.25000000  0.88273000  1.0
  Fe  Fe3  2  0.50000000  0.25000000  0.96091000  1.0
  Fe  Fe4  2  0.50235000  0.24673000  0.11900000  1.0
  Fe  Fe5  2  0.74995000  0.24290000  0.04061000  1.0
  Fe  Fe6  2  0.75000000  0.25000000  0.88273000  1.0
  Fe  Fe7  2  0.99771000  0.24675000  0.11898000  1.0
  Co  Co8  1  0.00000000  0.00000000  0.88273000  1.0
  Co  Co9  1  0.25000000  0.50000000  0.96091000  1.0
  Co  Co10  1  0.25008000  0.50000000  0.11798000  1.0
  Co  Co11  1  0.50000000  0.00000000  0.88273000  1.0
  Co  Co12  1  0.50268000  0.00000000  0.04410000  1.0
  Co  Co13  1  0.75000000  0.50000000  0.11183000  1.0
  Co  Co14  1  0.75000000  0.50000000  0.96091000  1.0
  Co  Co15  1  0.99719000  0.00000000  0.04408000  1.0
  Ge  Ge16  1  0.00000000  0.50000000  0.88273000  1.0
  Ge  Ge17  1  0.00522000  0.50000000  0.03992000  1.0
  Ge  Ge18  1  0.25000000  0.00000000  0.96091000  1.0
  Ge  Ge19  1  0.25003000  0.00000000  0.12039000  1.0
  Ge  Ge20  1  0.49472000  0.50000000  0.03993000  1.0
  Ge  Ge21  1  0.50000000  0.50000000  0.88273000  1.0
  Ge  Ge22  1  0.75000000  0.00000000  0.96091000  1.0
  Ge  Ge23  1  0.75003000  0.00000000  0.13066000  1.0
  C  C24  1  0.25003000  0.50000000  0.18533000  1.0
  O  O25  1  0.24998000  0.50000000  0.22979000  1.0
