# generated using pymatgen
data_Li8Mn8Sb8Pd8C
_symmetry_space_group_name_H-M   'P 1'
_cell_length_a   9.12074000
_cell_length_b   6.44934000
_cell_length_c   26.84060000
_cell_angle_alpha   90.00000000
_cell_angle_beta   90.00000000
_cell_angle_gamma   90.00000000
_symmetry_Int_Tables_number   1
_chemical_formula_structural   Li8Mn8Sb8Pd8C
_chemical_formula_sum   'Li8 Mn8 Sb8 Pd8 C1'
_cell_volume   1578.83799254
_cell_formula_units_Z   1
loop_
 _symmetry_equiv_pos_site_id
 _symmetry_equiv_pos_as_xyz
  1  'x, y, z'
loop_
 _atom_site_type_symbol
 _atom_site_label
 _atom_site_symmetry_multiplicity
 _atom_site_fract_x
 _atom_site_fract_y
 _atom_site_fract_z
 _atom_site_occupancy
  Li  Li0  1  0.50000000  0.00000000  0.12743000  1.0
  Li  Li1  1  0.00000000  0.00000000  0.12743000  1.0
  Li  Li2  1  0.25001000  0.50000000  0.04248000  1.0
  Li  Li3  1  0.74999000  0.50000000  0.04248000  1.0
  Li  Li4  1  0.00000000  0.99934000  0.96464000  1.0
  Li  Li5  1  0.50000000  0.95374000  0.95033000  1.0
  Li  Li6  1  0.77875000  0.46520000  0.86187000  1.0
  Li  Li7  1  0.22125000  0.46520000  0.86187000  1.0
  Mn  Mn8  1  0.75001000  0.00000000  0.04248000  1.0
  Mn  Mn9  1  0.24999000  0.00000000  0.04248000  1.0
  Mn  Mn10  1  0.00000000  0.50000000  0.12743000  1.0
  Mn  Mn11  1  0.50000000  0.50000000  0.12743000  1.0
  Mn  Mn12  1  0.29063000  0.95898000  0.86475000  1.0
  Mn  Mn13  1  0.70937000  0.95898000  0.86475000  1.0
  Mn  Mn14  1  0.50000000  0.52674000  0.95910000  1.0
  Mn  Mn15  1  0.00000000  0.48585000  0.95535000  1.0
  Sb  Sb16  1  0.50000000  0.75000000  0.04248000  1.0
  Sb  Sb17  1  0.00000000  0.75000000  0.04248000  1.0
  Sb  Sb18  1  0.75001000  0.25000000  0.12743000  1.0
  Sb  Sb19  1  0.24999000  0.25000000  0.12743000  1.0
  Sb  Sb20  1  0.00000000  0.76574000  0.87083000  1.0
  Sb  Sb21  1  0.50000000  0.65032000  0.85200000  1.0
  Sb  Sb22  1  0.25833000  0.24217000  0.95304000  1.0
  Sb  Sb23  1  0.74167000  0.24217000  0.95304000  1.0
  Pd  Pd24  1  0.50000000  0.25000000  0.04248000  1.0
  Pd  Pd25  1  0.00000000  0.25000000  0.04248000  1.0
  Pd  Pd26  1  0.75001000  0.75000000  0.12743000  1.0
  Pd  Pd27  1  0.24999000  0.75000000  0.12743000  1.0
  Pd  Pd28  1  0.00000000  0.18334000  0.88479000  1.0
  Pd  Pd29  1  0.50000000  0.26017000  0.88687000  1.0
  Pd  Pd30  1  0.22848000  0.76546000  0.95429000  1.0
  Pd  Pd31  1  0.77152000  0.76546000  0.95429000  1.0
  C  C32  1  0.50000000  0.98889000  0.84872000  1.0
