# generated using pymatgen
data_Ga4Fe12C
_symmetry_space_group_name_H-M   P4mm
_cell_length_a   5.81108000
_cell_length_b   5.81108000
_cell_length_c   24.35830000
_cell_angle_alpha   90.00000000
_cell_angle_beta   90.00000000
_cell_angle_gamma   90.00000000
_symmetry_Int_Tables_number   99
_chemical_formula_structural   Ga4Fe12C
_chemical_formula_sum   'Ga4 Fe12 C1'
_cell_volume   822.54692596
_cell_formula_units_Z   1
loop_
 _symmetry_equiv_pos_site_id
 _symmetry_equiv_pos_as_xyz
  1  'x, y, z'
  2  '-y, x, z'
  3  '-x, -y, z'
  4  'y, -x, z'
  5  '-x, y, z'
  6  'y, x, z'
  7  'x, -y, z'
  8  '-y, -x, z'
loop_
 _atom_site_type_symbol
 _atom_site_label
 _atom_site_symmetry_multiplicity
 _atom_site_fract_x
 _atom_site_fract_y
 _atom_site_fract_z
 _atom_site_occupancy
  Ga  Ga0  2  0.00000000  0.50000000  0.02982000  1.0
  Ga  Ga1  1  0.00000000  0.00000000  0.91054000  1.0
  Ga  Ga2  1  0.50000000  0.50000000  0.91054000  1.0
  Fe  Fe3  4  0.25000000  0.25000000  0.08946000  1.0
  Fe  Fe4  4  0.25000000  0.25000000  0.97018000  1.0
  Fe  Fe5  2  0.00000000  0.50000000  0.91054000  1.0
  Fe  Fe6  1  0.00000000  0.00000000  0.02982000  1.0
  Fe  Fe7  1  0.50000000  0.50000000  0.02982000  1.0
  C  C8  1  0.00000000  0.00000000  0.12231000  1.0
