# generated using pymatgen
data_ScAg
_symmetry_space_group_name_H-M   Pmm2
_cell_length_a   3.46519000
_cell_length_b   4.90052000
_cell_length_c   27.35080000
_cell_angle_alpha   90.00000000
_cell_angle_beta   90.00000000
_cell_angle_gamma   90.00000000
_symmetry_Int_Tables_number   25
_chemical_formula_structural   ScAg
_chemical_formula_sum   'Sc4 Ag4'
_cell_volume   464.45030477
_cell_formula_units_Z   4
loop_
 _symmetry_equiv_pos_site_id
 _symmetry_equiv_pos_as_xyz
  1  'x, y, z'
  2  '-x, -y, z'
  3  '-x, y, z'
  4  'x, -y, z'
loop_
 _atom_site_type_symbol
 _atom_site_label
 _atom_site_symmetry_multiplicity
 _atom_site_fract_x
 _atom_site_fract_y
 _atom_site_fract_z
 _atom_site_occupancy
  Sc  Sc0  1  0.50000000  0.00000000  0.13284750  1.0
  Sc  Sc1  1  0.50000000  0.00000000  0.95521000  1.0
  Sc  Sc2  1  0.50000000  0.50000000  0.04512000  1.0
  Sc  Sc3  1  0.50000000  0.50000000  0.86562000  1.0
  Ag  Ag4  1  0.00000000  0.00000000  0.04514500  1.0
  Ag  Ag5  1  0.00000000  0.00000000  0.86562000  1.0
  Ag  Ag6  1  0.00000000  0.50000000  0.13024250  1.0
  Ag  Ag7  1  0.00000000  0.50000000  0.95521000  1.0
