data_image0
_chemical_formula_structural       Ga16Rh16CO
_chemical_formula_sum              "Ga16 Rh16 C1 O1"
_cell_length_a       6.09666
_cell_length_b       8.62198
_cell_length_c       26.4665
_cell_angle_alpha    90
_cell_angle_beta     90
_cell_angle_gamma    90

_space_group_name_H-M_alt    "P 1"
_space_group_IT_number       1

loop_
  _space_group_symop_operation_xyz
  'x, y, z'

loop_
  _atom_site_type_symbol
  _atom_site_label
  _atom_site_symmetry_multiplicity
  _atom_site_fract_x
  _atom_site_fract_y
  _atom_site_fract_z
  _atom_site_occupancy
  Ga  Ga1       1.0  0.00000  0.00000  0.87784  1.0000
  Ga  Ga2       1.0  0.00000  0.25000  0.95928  1.0000
  Ga  Ga3       1.0  0.99840  0.00000  0.04112  1.0000
  Ga  Ga4       1.0  0.99880  0.25623  0.12673  1.0000
  Ga  Ga5       1.0  0.00000  0.50000  0.87784  1.0000
  Ga  Ga6       1.0  0.00000  0.75000  0.95928  1.0000
  Ga  Ga7       1.0  0.00103  0.50000  0.03979  1.0000
  Ga  Ga8       1.0  0.99880  0.74377  0.12673  1.0000
  Ga  Ga9       1.0  0.50000  0.00000  0.87784  1.0000
  Ga  Ga10      1.0  0.50000  0.25000  0.95928  1.0000
  Ga  Ga11      1.0  0.50185  1.00000  0.04114  1.0000
  Ga  Ga12      1.0  0.50160  0.25612  0.12676  1.0000
  Ga  Ga13      1.0  0.50000  0.50000  0.87784  1.0000
  Ga  Ga14      1.0  0.50000  0.75000  0.95928  1.0000
  Ga  Ga15      1.0  0.49896  0.50000  0.03978  1.0000
  Ga  Ga16      1.0  0.50160  0.74388  0.12676  1.0000
  Rh  Rh1       1.0  0.25000  0.25000  0.87784  1.0000
  Rh  Rh2       1.0  0.25000  0.00000  0.95928  1.0000
  Rh  Rh3       1.0  0.25005  0.24167  0.03902  1.0000
  Rh  Rh4       1.0  0.24987  1.00000  0.12699  1.0000
  Rh  Rh5       1.0  0.25000  0.75000  0.87784  1.0000
  Rh  Rh6       1.0  0.25000  0.50000  0.95928  1.0000
  Rh  Rh7       1.0  0.25005  0.75833  0.03902  1.0000
  Rh  Rh8       1.0  0.25010  0.50000  0.11579  1.0000
  Rh  Rh9       1.0  0.75000  0.25000  0.87784  1.0000
  Rh  Rh10      1.0  0.75000  0.00000  0.95928  1.0000
  Rh  Rh11      1.0  0.75009  0.25015  0.03761  1.0000
  Rh  Rh12      1.0  0.75006  0.00000  0.11718  1.0000
  Rh  Rh13      1.0  0.75000  0.75000  0.87784  1.0000
  Rh  Rh14      1.0  0.75000  0.50000  0.95928  1.0000
  Rh  Rh15      1.0  0.75009  0.74985  0.03761  1.0000
  Rh  Rh16      1.0  0.75009  0.50000  0.11684  1.0000
  C   C1        1.0  0.24875  0.00000  0.19781  1.0000
  O   O1        1.0  0.24849  0.00000  0.24146  1.0000
