# generated using pymatgen
data_Ga16Rh16CO
_symmetry_space_group_name_H-M   Pm
_cell_length_a   6.09666000
_cell_length_b   8.62198000
_cell_length_c   26.46650000
_cell_angle_alpha   90.00000000
_cell_angle_beta   90.00000000
_cell_angle_gamma   90.00000000
_symmetry_Int_Tables_number   6
_chemical_formula_structural   Ga16Rh16CO
_chemical_formula_sum   'Ga16 Rh16 C1 O1'
_cell_volume   1391.21899865
_cell_formula_units_Z   1
loop_
 _symmetry_equiv_pos_site_id
 _symmetry_equiv_pos_as_xyz
  1  'x, y, z'
  2  'x, -y, z'
loop_
 _atom_site_type_symbol
 _atom_site_label
 _atom_site_symmetry_multiplicity
 _atom_site_fract_x
 _atom_site_fract_y
 _atom_site_fract_z
 _atom_site_occupancy
  Ga  Ga0  2  0.00000000  0.25000000  0.95928000  1.0
  Ga  Ga1  2  0.50000000  0.25000000  0.95928000  1.0
  Ga  Ga2  2  0.50160000  0.25612000  0.12676000  1.0
  Ga  Ga3  2  0.99880000  0.25623000  0.12673000  1.0
  Ga  Ga4  1  0.00000000  0.00000000  0.87784000  1.0
  Ga  Ga5  1  0.00000000  0.50000000  0.87784000  1.0
  Ga  Ga6  1  0.00103000  0.50000000  0.03979000  1.0
  Ga  Ga7  1  0.49896000  0.50000000  0.03978000  1.0
  Ga  Ga8  1  0.50000000  0.00000000  0.87784000  1.0
  Ga  Ga9  1  0.50000000  0.50000000  0.87784000  1.0
  Ga  Ga10  1  0.50185000  0.00000000  0.04114000  1.0
  Ga  Ga11  1  0.99840000  0.00000000  0.04112000  1.0
  Rh  Rh12  2  0.25000000  0.25000000  0.87784000  1.0
  Rh  Rh13  2  0.25005000  0.24167000  0.03902000  1.0
  Rh  Rh14  2  0.75000000  0.25000000  0.87784000  1.0
  Rh  Rh15  2  0.75009000  0.25015000  0.03761000  1.0
  Rh  Rh16  1  0.24987000  0.00000000  0.12699000  1.0
  Rh  Rh17  1  0.25000000  0.00000000  0.95928000  1.0
  Rh  Rh18  1  0.25000000  0.50000000  0.95928000  1.0
  Rh  Rh19  1  0.25010000  0.50000000  0.11579000  1.0
  Rh  Rh20  1  0.75000000  0.00000000  0.95928000  1.0
  Rh  Rh21  1  0.75000000  0.50000000  0.95928000  1.0
  Rh  Rh22  1  0.75006000  0.00000000  0.11718000  1.0
  Rh  Rh23  1  0.75009000  0.50000000  0.11684000  1.0
  C  C24  1  0.24875000  0.00000000  0.19781000  1.0
  O  O25  1  0.24849000  0.00000000  0.24146000  1.0
