# generated using pymatgen
data_LiYInAg
_symmetry_space_group_name_H-M   Pmm2
_cell_length_a   4.88405018
_cell_length_b   4.88405018
_cell_length_c   25.18030000
_cell_angle_alpha   90.00000000
_cell_angle_beta   90.00000000
_cell_angle_gamma   90.00000000
_symmetry_Int_Tables_number   25
_chemical_formula_structural   LiYInAg
_chemical_formula_sum   'Li2 Y2 In2 Ag2'
_cell_volume   600.64951984
_cell_formula_units_Z   2
loop_
 _symmetry_equiv_pos_site_id
 _symmetry_equiv_pos_as_xyz
  1  'x, y, z'
  2  '-x, -y, z'
  3  '-x, y, z'
  4  'x, -y, z'
loop_
 _atom_site_type_symbol
 _atom_site_label
 _atom_site_symmetry_multiplicity
 _atom_site_fract_x
 _atom_site_fract_y
 _atom_site_fract_z
 _atom_site_occupancy
  Li  Li0  1  0.00000000  0.00000000  0.96195000  1.0
  Li  Li1  1  0.50000000  0.50000000  0.10286000  1.0
  Y  Y2  1  0.00000000  0.50000000  0.03429000  1.0
  Y  Y3  1  0.50000000  0.00000000  0.88833000  1.0
  In  In4  1  0.00000000  0.50000000  0.89297000  1.0
  In  In5  1  0.50000000  0.00000000  0.03429000  1.0
  Ag  Ag6  1  0.00000000  0.00000000  0.10286000  1.0
  Ag  Ag7  1  0.50000000  0.50000000  0.96332000  1.0
