# generated using pymatgen
data_Y4Al4In4Pd4C
_symmetry_space_group_name_H-M   'P 1'
_cell_length_a   9.21652000
_cell_length_b   6.02485000
_cell_length_c   24.50330000
_cell_angle_alpha   90.00000000
_cell_angle_beta   90.00000000
_cell_angle_gamma   90.00000000
_symmetry_Int_Tables_number   1
_chemical_formula_structural   Y4Al4In4Pd4C
_chemical_formula_sum   'Y4 Al4 In4 Pd4 C1'
_cell_volume   1360.62293069
_cell_formula_units_Z   1
loop_
 _symmetry_equiv_pos_site_id
 _symmetry_equiv_pos_as_xyz
  1  'x, y, z'
loop_
 _atom_site_type_symbol
 _atom_site_label
 _atom_site_symmetry_multiplicity
 _atom_site_fract_x
 _atom_site_fract_y
 _atom_site_fract_z
 _atom_site_occupancy
  Y  Y0  1  0.25000000  0.22939000  0.03063000  1.0
  Y  Y1  1  0.24035000  0.69966000  0.90497000  1.0
  Y  Y2  1  0.75000000  0.22939000  0.03063000  1.0
  Y  Y3  1  0.75965000  0.69966000  0.90497000  1.0
  Al  Al4  1  0.00000000  0.00000000  0.09189000  1.0
  Al  Al5  1  0.00000000  0.35486000  0.93344000  1.0
  Al  Al6  1  0.50000000  1.00000000  0.09189000  1.0
  Al  Al7  1  0.50000000  0.44209000  0.96195000  1.0
  In  In8  1  0.00000000  0.50000000  0.09189000  1.0
  In  In9  1  0.00000000  0.89788000  0.97943000  1.0
  In  In10  1  0.50000000  0.50000000  0.09189000  1.0
  In  In11  1  0.50000000  0.92136000  0.97278000  1.0
  Pd  Pd12  1  0.25000000  0.72939000  0.03063000  1.0
  Pd  Pd13  1  0.27382000  0.21640000  0.92004000  1.0
  Pd  Pd14  1  0.75000000  0.72939000  0.03063000  1.0
  Pd  Pd15  1  0.72618000  0.21640000  0.92004000  1.0
  C  C16  1  0.00000000  0.65891000  0.90498000  1.0
