# generated using pymatgen
data_Nb8Co16Sn8C
_symmetry_space_group_name_H-M   Pmm2
_cell_length_a   6.19479000
_cell_length_b   8.76076000
_cell_length_c   26.57060000
_cell_angle_alpha   90.00000000
_cell_angle_beta   90.00000000
_cell_angle_gamma   90.00000000
_symmetry_Int_Tables_number   25
_chemical_formula_structural   Nb8Co16Sn8C
_chemical_formula_sum   'Nb8 Co16 Sn8 C1'
_cell_volume   1442.01485110
_cell_formula_units_Z   1
loop_
 _symmetry_equiv_pos_site_id
 _symmetry_equiv_pos_as_xyz
  1  'x, y, z'
  2  '-x, -y, z'
  3  '-x, y, z'
  4  'x, -y, z'
loop_
 _atom_site_type_symbol
 _atom_site_label
 _atom_site_symmetry_multiplicity
 _atom_site_fract_x
 _atom_site_fract_y
 _atom_site_fract_z
 _atom_site_occupancy
  Nb  Nb0  2  0.50000000  0.23387000  0.12414000  1.0
  Nb  Nb1  2  0.50000000  0.25000000  0.95879000  1.0
  Nb  Nb2  1  0.00000000  0.00000000  0.04160000  1.0
  Nb  Nb3  1  0.00000000  0.00000000  0.87636000  1.0
  Nb  Nb4  1  0.00000000  0.50000000  0.04467000  1.0
  Nb  Nb5  1  0.00000000  0.50000000  0.87636000  1.0
  Co  Co6  4  0.25000000  0.25000000  0.87636000  1.0
  Co  Co7  4  0.25022000  0.24944000  0.04405000  1.0
  Co  Co8  2  0.21804000  0.00000000  0.11700000  1.0
  Co  Co9  2  0.25000000  0.50000000  0.95879000  1.0
  Co  Co10  2  0.25000000  0.00000000  0.95879000  1.0
  Co  Co11  2  0.25068000  0.50000000  0.11773000  1.0
  Sn  Sn12  2  0.00000000  0.25000000  0.95879000  1.0
  Sn  Sn13  2  0.00000000  0.25621000  0.13405000  1.0
  Sn  Sn14  1  0.50000000  0.00000000  0.03954000  1.0
  Sn  Sn15  1  0.50000000  0.00000000  0.87636000  1.0
  Sn  Sn16  1  0.50000000  0.50000000  0.04098000  1.0
  Sn  Sn17  1  0.50000000  0.50000000  0.87636000  1.0
  C  C18  1  0.50000000  0.00000000  0.14536000  1.0
