# generated using pymatgen
data_Li4Sc4In4Ge4CO
_symmetry_space_group_name_H-M   P1
_cell_length_a   6.08490000
_cell_length_b   8.12626000
_cell_length_c   24.54620000
_cell_angle_alpha   90.00000000
_cell_angle_beta   90.00000000
_cell_angle_gamma   90.00000000
_symmetry_Int_Tables_number   1
_chemical_formula_structural   Li4Sc4In4Ge4CO
_chemical_formula_sum   'Li4 Sc4 In4 Ge4 C1 O1'
_cell_volume   1213.74772066
_cell_formula_units_Z   1
loop_
 _symmetry_equiv_pos_site_id
 _symmetry_equiv_pos_as_xyz
  1  'x, y, z'
loop_
 _atom_site_type_symbol
 _atom_site_label
 _atom_site_symmetry_multiplicity
 _atom_site_fract_x
 _atom_site_fract_y
 _atom_site_fract_z
 _atom_site_occupancy
  Li  Li0  1  0.27186000  0.25000000  0.03087000  1.0
  Li  Li1  1  0.27186000  0.75000000  0.03087000  1.0
  Li  Li2  1  0.83386000  0.24916000  0.90961000  1.0
  Li  Li3  1  0.84182000  0.74872000  0.90563000  1.0
  Sc  Sc4  1  0.34658000  0.24975000  0.91340000  1.0
  Sc  Sc5  1  0.35163000  0.75063000  0.91147000  1.0
  Sc  Sc6  1  0.77186000  0.25000000  0.03087000  1.0
  Sc  Sc7  1  0.77186000  0.75000000  0.03087000  1.0
  In  In8  1  0.06010000  0.49926000  0.96965000  1.0
  In  In9  1  0.06193000  0.00054000  0.97009000  1.0
  In  In10  1  0.50000000  0.00000000  0.09260000  1.0
  In  In11  1  0.50000000  0.50000000  0.09260000  1.0
  Ge  Ge12  1  0.00000000  0.00000000  0.09260000  1.0
  Ge  Ge13  1  0.00000000  0.50000000  0.09260000  1.0
  Ge  Ge14  1  0.56748000  0.49797000  0.96326000  1.0
  Ge  Ge15  1  0.57228000  0.00199000  0.96205000  1.0
  C  C16  1  0.59616000  0.75823000  0.84684000  1.0
  O  O17  1  0.76208000  0.75977000  0.82119000  1.0
