# generated using pymatgen
data_Li4Zr4Ge4Pd4CO
_symmetry_space_group_name_H-M   'P 1'
_cell_length_a   6.47880000
_cell_length_b   6.47880000
_cell_length_c   24.85910000
_cell_angle_alpha   90.00000000
_cell_angle_beta   90.00000000
_cell_angle_gamma   90.00000000
_symmetry_Int_Tables_number   1
_chemical_formula_structural   Li4Zr4Ge4Pd4CO
_chemical_formula_sum   'Li4 Zr4 Ge4 Pd4 C1 O1'
_cell_volume   1043.45697971
_cell_formula_units_Z   1
loop_
 _symmetry_equiv_pos_site_id
 _symmetry_equiv_pos_as_xyz
  1  'x, y, z'
loop_
 _atom_site_type_symbol
 _atom_site_label
 _atom_site_symmetry_multiplicity
 _atom_site_fract_x
 _atom_site_fract_y
 _atom_site_fract_z
 _atom_site_occupancy
  Li  Li0  1  0.25004500  0.74995500  0.03541000  1
  Li  Li1  1  0.74999500  0.74999500  0.90227000  1
  Li  Li2  1  0.25000500  0.25000500  0.90227000  1
  Li  Li3  1  0.74995500  0.25004500  0.03541000  1
  Zr  Zr4  1  0.25002000  0.25002000  0.03553000  1
  Zr  Zr5  1  0.75001500  0.24998500  0.90227000  1
  Zr  Zr6  1  0.24998500  0.75001500  0.90227000  1
  Zr  Zr7  1  0.74998000  0.74998000  0.03553000  1
  Ge  Ge8  1  0.50000000  0.50000000  0.09936000  1
  Ge  Ge9  1  1.00000000  0.50000000  0.96742000  1
  Ge  Ge10  1  0.50000000  0.00000000  0.96742000  1
  Ge  Ge11  1  1.00000000  0.00000000  0.09643000  1
  Pd  Pd12  1  1.00000000  0.50000000  0.09475000  1
  Pd  Pd13  1  0.50000000  0.50000000  0.96742000  1
  Pd  Pd14  1  1.00000000  0.00000000  0.96742000  1
  Pd  Pd15  1  0.50000000  0.00000000  0.09475000  1
  C  C16  1  0.50000000  0.50000000  0.17820000  1
  O  O17  1  0.50000000  0.50000000  0.22459000  1
