# generated using pymatgen
data_Li4Ca4Ge4Pd4C
_symmetry_space_group_name_H-M   'P 1'
_cell_length_a   6.62107000
_cell_length_b   6.62107000
_cell_length_c   24.96580000
_cell_angle_alpha   90.00000000
_cell_angle_beta   90.00000000
_cell_angle_gamma   90.00000000
_symmetry_Int_Tables_number   1
_chemical_formula_structural   Li4Ca4Ge4Pd4C
_chemical_formula_sum   'Li4 Ca4 Ge4 Pd4 C1'
_cell_volume   1094.46491960
_cell_formula_units_Z   1
loop_
 _symmetry_equiv_pos_site_id
 _symmetry_equiv_pos_as_xyz
  1  'x, y, z'
loop_
 _atom_site_type_symbol
 _atom_site_label
 _atom_site_symmetry_multiplicity
 _atom_site_fract_x
 _atom_site_fract_y
 _atom_site_fract_z
 _atom_site_occupancy
  Li  Li0  1  0.25002000  0.24998000  0.03315000  1.0
  Li  Li1  1  0.27272000  0.72739000  0.86863000  1.0
  Li  Li2  1  0.72728000  0.27261000  0.86863000  1.0
  Li  Li3  1  0.74998000  0.75002000  0.03315000  1.0
  Ca  Ca4  1  0.50000000  0.00000000  0.09945000  1.0
  Ca  Ca5  1  0.50000000  0.50000000  0.97050000  1.0
  Ca  Ca6  1  0.00000000  0.00000000  0.95580000  1.0
  Ca  Ca7  1  0.00000000  0.50000000  0.09945000  1.0
  Ge  Ge8  1  0.50000000  0.50000000  0.09945000  1.0
  Ge  Ge9  1  0.50000000  0.00000000  0.94649000  1.0
  Ge  Ge10  1  0.00000000  0.50000000  0.94649000  1.0
  Ge  Ge11  1  0.00000000  0.00000000  0.09945000  1.0
  Pd  Pd12  1  0.75002000  0.24998000  0.03315000  1.0
  Pd  Pd13  1  0.69951000  0.69950000  0.89167000  1.0
  Pd  Pd14  1  0.30049000  0.30050000  0.89167000  1.0
  Pd  Pd15  1  0.24998000  0.75002000  0.03315000  1.0
  C  C16  1  0.50000000  0.50000000  0.86588000  1.0
