# generated using pymatgen
data_Li4Ca4Ge4Pd4C
_symmetry_space_group_name_H-M   P2
_cell_length_a   6.62107000
_cell_length_b   24.96580000
_cell_length_c   6.62107000
_cell_angle_alpha   90.00000000
_cell_angle_beta   90.00000000
_cell_angle_gamma   90.00000000
_symmetry_Int_Tables_number   3
_chemical_formula_structural   Li4Ca4Ge4Pd4C
_chemical_formula_sum   'Li4 Ca4 Ge4 Pd4 C1'
_cell_volume   1094.46491960
_cell_formula_units_Z   1
loop_
 _symmetry_equiv_pos_site_id
 _symmetry_equiv_pos_as_xyz
  1  'x, y, z'
  2  '-x, y, -z'
loop_
 _atom_site_type_symbol
 _atom_site_label
 _atom_site_symmetry_multiplicity
 _atom_site_fract_x
 _atom_site_fract_y
 _atom_site_fract_z
 _atom_site_occupancy
  Li  Li0  2  0.24998000  0.96685000  0.25002000  1.0
  Li  Li1  2  0.27261000  0.13137000  0.72728000  1.0
  Ca  Ca2  1  0.00000000  0.04420000  0.00000000  1.0
  Ca  Ca3  1  0.00000000  0.90055000  0.50000000  1.0
  Ca  Ca4  1  0.50000000  0.02950000  0.50000000  1.0
  Ca  Ca5  1  0.50000000  0.90055000  0.00000000  1.0
  Ge  Ge6  1  0.00000000  0.05351000  0.50000000  1.0
  Ge  Ge7  1  0.00000000  0.90055000  0.00000000  1.0
  Ge  Ge8  1  0.50000000  0.05351000  0.00000000  1.0
  Ge  Ge9  1  0.50000000  0.90055000  0.50000000  1.0
  Pd  Pd10  2  0.24998000  0.96685000  0.75002000  1.0
  Pd  Pd11  2  0.30050000  0.10833000  0.30049000  1.0
  C  C12  1  0.50000000  0.13412000  0.50000000  1.0
