# generated using pymatgen
data_LiInGePd
_symmetry_space_group_name_H-M   P1
_cell_length_a   6.51863000
_cell_length_b   6.51863000
_cell_length_c   24.88900000
_cell_angle_alpha   90.00000000
_cell_angle_beta   90.00000000
_cell_angle_gamma   90.00000000
_symmetry_Int_Tables_number   1
_chemical_formula_structural   LiInGePd
_chemical_formula_sum   'Li4 In4 Ge4 Pd4'
_cell_volume   1057.59675531
_cell_formula_units_Z   4
loop_
 _symmetry_equiv_pos_site_id
 _symmetry_equiv_pos_as_xyz
  1  'x, y, z'
loop_
 _atom_site_type_symbol
 _atom_site_label
 _atom_site_symmetry_multiplicity
 _atom_site_fract_x
 _atom_site_fract_y
 _atom_site_fract_z
 _atom_site_occupancy
  Li  Li0  1  0.25000000  0.25000000  0.90178000  1.0
  Li  Li1  1  0.25002000  0.75000000  0.03460000  1.0
  Li  Li2  1  0.75000000  0.25002000  0.03460000  1.0
  Li  Li3  1  0.75000000  0.75000000  0.90178000  1.0
  In  In4  1  0.00000000  0.00000000  0.96726000  1.0
  In  In5  1  0.00002000  0.49998000  0.11686000  1.0
  In  In6  1  0.49998000  0.00001000  0.11686000  1.0
  In  In7  1  0.50000000  0.50000000  0.96726000  1.0
  Ge  Ge8  1  -0.00000000  0.50000000  0.96726000  1.0
  Ge  Ge9  1  0.50000000  0.00000000  0.96726000  1.0
  Ge  Ge10  1  0.50015000  0.50008000  0.08909000  1.0
  Ge  Ge11  1  0.99976000  0.99988000  0.08905000  1.0
  Pd  Pd12  1  0.25000000  0.24998000  0.02920000  1.0
  Pd  Pd13  1  0.25000000  0.75000000  0.90178000  1.0
  Pd  Pd14  1  0.75000000  0.25000000  0.90178000  1.0
  Pd  Pd15  1  0.75001000  0.74999000  0.02919000  1.0
