# generated using pymatgen
data_Li16In8Au8CO
_symmetry_space_group_name_H-M   Pm
_cell_length_a   6.60991000
_cell_length_b   9.34782000
_cell_length_c   27.01090000
_cell_angle_alpha   90.00000000
_cell_angle_beta   90.00000000
_cell_angle_gamma   90.00000000
_symmetry_Int_Tables_number   6
_chemical_formula_structural   Li16In8Au8CO
_chemical_formula_sum   'Li16 In8 Au8 C1 O1'
_cell_volume   1668.95621211
_cell_formula_units_Z   1
loop_
 _symmetry_equiv_pos_site_id
 _symmetry_equiv_pos_as_xyz
  1  'x, y, z'
  2  'x, -y, z'
loop_
 _atom_site_type_symbol
 _atom_site_label
 _atom_site_symmetry_multiplicity
 _atom_site_fract_x
 _atom_site_fract_y
 _atom_site_fract_z
 _atom_site_occupancy
  Li  Li0  2  0.50000000  0.25001000  0.87022000  1.0
  Li  Li1  2  0.50672000  0.24926000  0.03583000  1.0
  Li  Li2  2  0.71860000  0.25003000  0.12210000  1.0
  Li  Li3  2  0.75000000  0.24999000  0.95674000  1.0
  Li  Li4  1  -0.00000000  0.50000000  0.95674000  1.0
  Li  Li5  1  0.00000000  0.00000000  0.95674000  1.0
  Li  Li6  1  0.01639000  0.00000000  0.12808000  1.0
  Li  Li7  1  0.01700000  0.50000000  0.12618000  1.0
  Li  Li8  1  0.25000000  0.00000000  0.87022000  1.0
  Li  Li9  1  0.25000000  0.50000000  0.87022000  1.0
  Li  Li10  1  0.26713000  0.00000000  0.04530000  1.0
  Li  Li11  1  0.28123000  0.50000000  0.04784000  1.0
  In  In12  2  0.00000000  0.25001000  0.87022000  1.0
  In  In13  2  0.99426000  0.25057000  0.04165000  1.0
  In  In14  1  0.48604000  0.00000000  0.14371000  1.0
  In  In15  1  0.50000000  0.00000000  0.95674000  1.0
  In  In16  1  0.50000000  0.50000000  0.95674000  1.0
  In  In17  1  0.50204000  0.50000000  0.14905000  1.0
  Au  Au18  2  0.25000000  0.25001000  0.95674000  1.0
  Au  Au19  2  0.28261000  0.25675000  0.11805000  1.0
  Au  Au20  1  0.72989000  0.50000000  0.04996000  1.0
  Au  Au21  1  0.73514000  0.00000000  0.05021000  1.0
  Au  Au22  1  0.75000000  0.00000000  0.87022000  1.0
  Au  Au23  1  0.75000000  0.50000000  0.87022000  1.0
  C  C24  1  0.99110000  0.00000000  0.20569000  1.0
  O  O25  1  0.98940000  0.00000000  0.24799000  1.0
