# generated using pymatgen
data_ZnRh
_symmetry_space_group_name_H-M   'P 1'
_cell_length_a   6.06651000
_cell_length_b   8.57934000
_cell_length_c   26.43450000
_cell_angle_alpha   90.00000000
_cell_angle_beta   90.00000000
_cell_angle_gamma   90.00000000
_symmetry_Int_Tables_number   1
_chemical_formula_structural   ZnRh
_chemical_formula_sum   'Zn16 Rh16'
_cell_volume   1375.82721974
_cell_formula_units_Z   16
loop_
 _symmetry_equiv_pos_site_id
 _symmetry_equiv_pos_as_xyz
  1  'x, y, z'
loop_
 _atom_site_type_symbol
 _atom_site_label
 _atom_site_symmetry_multiplicity
 _atom_site_fract_x
 _atom_site_fract_y
 _atom_site_fract_z
 _atom_site_occupancy
  Zn  Zn0  1  0.25000000  0.00000000  0.87829000  1.0
  Zn  Zn1  1  0.25000000  0.75000000  0.95943000  1.0
  Zn  Zn2  1  0.25010000  0.00000000  0.03986000  1.0
  Zn  Zn3  1  0.25014000  0.75005000  0.12448000  1.0
  Zn  Zn4  1  0.25000000  0.50000000  0.87829000  1.0
  Zn  Zn5  1  0.25000000  0.25000000  0.95943000  1.0
  Zn  Zn6  1  0.25010000  0.50000000  0.03986000  1.0
  Zn  Zn7  1  0.25014000  0.24995000  0.12448000  1.0
  Zn  Zn8  1  0.75000000  0.00000000  0.87829000  1.0
  Zn  Zn9  1  0.75000000  0.75000000  0.95943000  1.0
  Zn  Zn10  1  0.74990000  0.00000000  0.03986000  1.0
  Zn  Zn11  1  0.74986000  0.75005000  0.12448000  1.0
  Zn  Zn12  1  0.75000000  0.50000000  0.87829000  1.0
  Zn  Zn13  1  0.75000000  0.25000000  0.95943000  1.0
  Zn  Zn14  1  0.74990000  0.50000000  0.03986000  1.0
  Zn  Zn15  1  0.74986000  0.24995000  0.12448000  1.0
  Rh  Rh16  1  0.00000000  0.75000000  0.87829000  1.0
  Rh  Rh17  1  0.00000000  0.00000000  0.95943000  1.0
  Rh  Rh18  1  0.00000000  0.74999000  0.04081000  1.0
  Rh  Rh19  1  0.00000000  0.00000000  0.11872000  1.0
  Rh  Rh20  1  0.00000000  0.25000000  0.87829000  1.0
  Rh  Rh21  1  0.00000000  0.50000000  0.95943000  1.0
  Rh  Rh22  1  0.00000000  0.25001000  0.04081000  1.0
  Rh  Rh23  1  0.00000000  0.50000000  0.11872000  1.0
  Rh  Rh24  1  0.50000000  0.75000000  0.87829000  1.0
  Rh  Rh25  1  0.50000000  0.00000000  0.95943000  1.0
  Rh  Rh26  1  0.50000000  0.74998000  0.04079000  1.0
  Rh  Rh27  1  0.50000000  0.00000000  0.11875000  1.0
  Rh  Rh28  1  0.50000000  0.25000000  0.87829000  1.0
  Rh  Rh29  1  0.50000000  0.50000000  0.95943000  1.0
  Rh  Rh30  1  0.50000000  0.25002000  0.04079000  1.0
  Rh  Rh31  1  0.50000000  0.50000000  0.11875000  1.0
