# generated using pymatgen
data_ZnRh
_symmetry_space_group_name_H-M   Pmm2
_cell_length_a   6.06651000
_cell_length_b   8.57934000
_cell_length_c   26.43450000
_cell_angle_alpha   90.00000000
_cell_angle_beta   90.00000000
_cell_angle_gamma   90.00000000
_symmetry_Int_Tables_number   25
_chemical_formula_structural   ZnRh
_chemical_formula_sum   'Zn16 Rh16'
_cell_volume   1375.82721974
_cell_formula_units_Z   16
loop_
 _symmetry_equiv_pos_site_id
 _symmetry_equiv_pos_as_xyz
  1  'x, y, z'
  2  '-x, -y, z'
  3  'x, -y, z'
  4  '-x, y, z'
  5  'x, y+1/2, z'
  6  '-x, -y+1/2, z'
  7  'x, -y+1/2, z'
  8  '-x, y+1/2, z'
loop_
 _atom_site_type_symbol
 _atom_site_label
 _atom_site_symmetry_multiplicity
 _atom_site_fract_x
 _atom_site_fract_y
 _atom_site_fract_z
 _atom_site_occupancy
  Zn  Zn0  4  0.25000000  0.00000000  0.87829000  1.0
  Zn  Zn1  4  0.25000000  0.25000000  0.95943000  1.0
  Zn  Zn2  4  0.25010000  0.00000000  0.03986000  1.0
  Zn  Zn3  4  0.25014000  0.24995000  0.12448000  1.0
  Rh  Rh4  2  0.00000000  0.00000000  0.11872000  1.0
  Rh  Rh5  2  0.00000000  0.00000000  0.95943000  1.0
  Rh  Rh6  2  0.00000000  0.25000000  0.87829000  1.0
  Rh  Rh7  2  0.00000000  0.25001000  0.04081000  1.0
  Rh  Rh8  2  0.50000000  0.00000000  0.11875000  1.0
  Rh  Rh9  2  0.50000000  0.00000000  0.95943000  1.0
  Rh  Rh10  2  0.50000000  0.25000000  0.87829000  1.0
  Rh  Rh11  2  0.50000000  0.25002000  0.04079000  1.0
