# generated using pymatgen
data_LiCuPdPb
_symmetry_space_group_name_H-M   'P 1'
_cell_length_a   6.46272000
_cell_length_b   4.56983000
_cell_length_c   26.85470000
_cell_angle_alpha   90.00000000
_cell_angle_beta   90.00000000
_cell_angle_gamma   90.00000000
_symmetry_Int_Tables_number   1
_chemical_formula_structural   LiCuPdPb
_chemical_formula_sum   'Li4 Cu4 Pd4 Pb4'
_cell_volume   793.11413475
_cell_formula_units_Z   4
loop_
 _symmetry_equiv_pos_site_id
 _symmetry_equiv_pos_as_xyz
  1  'x, y, z'
loop_
 _atom_site_type_symbol
 _atom_site_label
 _atom_site_symmetry_multiplicity
 _atom_site_fract_x
 _atom_site_fract_y
 _atom_site_fract_z
 _atom_site_occupancy
  Li  Li0  1  0.00000000  0.50000000  0.95746000  1.0
  Li  Li1  1  0.50000000  0.00000000  0.87237000  1.0
  Li  Li2  1  0.96945500  0.50000000  0.13537500  1.0
  Li  Li3  1  0.48115500  0.00000000  0.04351000  1.0
  Cu  Cu4  1  0.00000000  0.00000000  0.87237000  1.0
  Cu  Cu5  1  0.50000000  0.50000000  0.95746000  1.0
  Cu  Cu6  1  0.03021500  0.00000000  0.04933000  1.0
  Cu  Cu7  1  0.49736000  0.50000000  0.12222000  1.0
  Pd  Pd8  1  0.75000000  0.00000000  0.95746000  1.0
  Pd  Pd9  1  0.25000000  0.50000000  0.87237000  1.0
  Pd  Pd10  1  0.72659000  0.00000000  0.11609000  1.0
  Pd  Pd11  1  0.24444000  0.50000000  0.04249500  1.0
  Pb  Pb12  1  0.25000000  0.00000000  0.95746000  1.0
  Pb  Pb13  1  0.75000000  0.50000000  0.87237000  1.0
  Pb  Pb14  1  0.26813500  0.00000000  0.14247000  1.0
  Pb  Pb15  1  0.76263000  0.50000000  0.04055000  1.0
