# generated using pymatgen
data_Li8V8Ge8Pd8C
_symmetry_space_group_name_H-M   Pmm2
_cell_length_a   5.68832000
_cell_length_b   8.64114000
_cell_length_c   27.05420000
_cell_angle_alpha   90.00000000
_cell_angle_beta   90.00000000
_cell_angle_gamma   90.00000000
_symmetry_Int_Tables_number   25
_chemical_formula_structural   Li8V8Ge8Pd8C
_chemical_formula_sum   'Li8 V8 Ge8 Pd8 C1'
_cell_volume   1329.81049956
_cell_formula_units_Z   1
loop_
 _symmetry_equiv_pos_site_id
 _symmetry_equiv_pos_as_xyz
  1  'x, y, z'
  2  '-x, -y, z'
  3  '-x, y, z'
  4  'x, -y, z'
loop_
 _atom_site_type_symbol
 _atom_site_label
 _atom_site_symmetry_multiplicity
 _atom_site_fract_x
 _atom_site_fract_y
 _atom_site_fract_z
 _atom_site_occupancy
  Li  Li0  2  0.23323000  0.50000000  0.13448000  1.0
  Li  Li1  2  0.24999000  0.00000000  0.95654000  1.0
  Li  Li2  2  0.24999000  0.50000000  0.95654000  1.0
  Li  Li3  2  0.30936000  0.00000000  0.12588000  1.0
  V  V4  4  0.24452000  0.25041000  0.04467000  1.0
  V  V5  4  0.24999000  0.25000000  0.86963000  1.0
  Ge  Ge6  1  0.00000000  0.00000000  0.04122000  1.0
  Ge  Ge7  1  0.00000000  0.00000000  0.86963000  1.0
  Ge  Ge8  1  0.00000000  0.50000000  0.04338000  1.0
  Ge  Ge9  1  0.00000000  0.50000000  0.86963000  1.0
  Ge  Ge10  1  0.50000000  0.00000000  0.03722000  1.0
  Ge  Ge11  1  0.50000000  0.00000000  0.86963000  1.0
  Ge  Ge12  1  0.50000000  0.50000000  0.04560000  1.0
  Ge  Ge13  1  0.50000000  0.50000000  0.86963000  1.0
  Pd  Pd14  2  0.00000000  0.20239000  0.13013000  1.0
  Pd  Pd15  2  0.00000000  0.25000000  0.95654000  1.0
  Pd  Pd16  2  0.50000000  0.25000000  0.95654000  1.0
  Pd  Pd17  2  0.50000000  0.26763000  0.12552000  1.0
  C  C18  1  0.00000000  0.00000000  0.16173000  1.0
