# generated using pymatgen
data_Li4Al4Ag4Ge4C
_symmetry_space_group_name_H-M   'P 1'
_cell_length_a   5.86609000
_cell_length_b   7.71364000
_cell_length_c   24.39060000
_cell_angle_alpha   90.00000000
_cell_angle_beta   90.00000000
_cell_angle_gamma   90.00000000
_symmetry_Int_Tables_number   1
_chemical_formula_structural   Li4Al4Ag4Ge4C
_chemical_formula_sum   'Li4 Al4 Ag4 Ge4 C1'
_cell_volume   1103.64797809
_cell_formula_units_Z   1
loop_
 _symmetry_equiv_pos_site_id
 _symmetry_equiv_pos_as_xyz
  1  'x, y, z'
loop_
 _atom_site_type_symbol
 _atom_site_label
 _atom_site_symmetry_multiplicity
 _atom_site_fract_x
 _atom_site_fract_y
 _atom_site_fract_z
 _atom_site_occupancy
  Li  Li0  1  0.76592000  0.75000000  0.03000000  1.0
  Li  Li1  1  0.27515000  0.81482000  0.89157000  1.0
  Li  Li2  1  0.76592000  0.25000000  0.03000000  1.0
  Li  Li3  1  0.27519000  0.18516000  0.89156000  1.0
  Al  Al4  1  0.26592000  0.75000000  0.03000000  1.0
  Al  Al5  1  0.75067000  0.81107000  0.90527000  1.0
  Al  Al6  1  0.26592000  0.25000000  0.03000000  1.0
  Al  Al7  1  0.75064000  0.18887000  0.90527000  1.0
  Ag  Ag8  1  0.00000000  0.00000000  0.09001000  1.0
  Ag  Ag9  1  0.50111000  0.99998000  0.97866000  1.0
  Ag  Ag10  1  0.00000000  0.50000000  0.09001000  1.0
  Ag  Ag11  1  0.48167000  0.49993000  0.96097000  1.0
  Ge  Ge12  1  0.50000000  0.00000000  0.09001000  1.0
  Ge  Ge13  1  0.02076000  0.00007000  0.97202000  1.0
  Ge  Ge14  1  0.50000000  0.50000000  0.09001000  1.0
  Ge  Ge15  1  0.97871000  0.50037000  0.94199000  1.0
  C  C16  1  0.54855000  0.99993000  0.88094000  1.0
