# generated using pymatgen
data_Mn4Zn12C
_symmetry_space_group_name_H-M   Pm
_cell_length_a   5.40621000
_cell_length_b   7.64553000
_cell_length_c   24.05470000
_cell_angle_alpha   90.00000000
_cell_angle_beta   90.00000000
_cell_angle_gamma   90.00000000
_symmetry_Int_Tables_number   6
_chemical_formula_structural   Mn4Zn12C
_chemical_formula_sum   'Mn4 Zn12 C1'
_cell_volume   994.26111153
_cell_formula_units_Z   1
loop_
 _symmetry_equiv_pos_site_id
 _symmetry_equiv_pos_as_xyz
  1  'x, y, z'
  2  'x, -y, z'
loop_
 _atom_site_type_symbol
 _atom_site_label
 _atom_site_symmetry_multiplicity
 _atom_site_fract_x
 _atom_site_fract_y
 _atom_site_fract_z
 _atom_site_occupancy
  Mn  Mn0  2  0.00000000  0.25000000  0.91572000  1.0
  Mn  Mn1  2  0.50000000  0.25000000  0.02809000  1.0
  Zn  Zn2  2  0.00000000  0.25000000  0.02809000  1.0
  Zn  Zn3  2  0.50000000  0.25000000  0.91572000  1.0
  Zn  Zn4  1  0.25000000  0.00000000  0.08428000  1.0
  Zn  Zn5  1  0.25000000  0.00000000  0.97191000  1.0
  Zn  Zn6  1  0.25000000  0.50000000  0.08428000  1.0
  Zn  Zn7  1  0.25000000  0.50000000  0.97191000  1.0
  Zn  Zn8  1  0.75000000  0.00000000  0.08428000  1.0
  Zn  Zn9  1  0.75000000  0.00000000  0.97191000  1.0
  Zn  Zn10  1  0.75000000  0.50000000  0.08428000  1.0
  Zn  Zn11  1  0.75000000  0.50000000  0.97191000  1.0
  C  C12  1  0.75000000  0.50000000  0.88246000  1.0
