# generated using pymatgen
data_Li4Zn4Ag4Ge4C
_symmetry_space_group_name_H-M   'P 1'
_cell_length_a   6.35563000
_cell_length_b   6.35563000
_cell_length_c   24.76670000
_cell_angle_alpha   90.00000000
_cell_angle_beta   90.00000000
_cell_angle_gamma   90.00000000
_symmetry_Int_Tables_number   1
_chemical_formula_structural   Li4Zn4Ag4Ge4C
_chemical_formula_sum   'Li4 Zn4 Ag4 Ge4 C1'
_cell_volume   1000.42688959
_cell_formula_units_Z   1
loop_
 _symmetry_equiv_pos_site_id
 _symmetry_equiv_pos_as_xyz
  1  'x, y, z'
loop_
 _atom_site_type_symbol
 _atom_site_label
 _atom_site_symmetry_multiplicity
 _atom_site_fract_x
 _atom_site_fract_y
 _atom_site_fract_z
 _atom_site_occupancy
  Li  Li0  1  0.74997000  0.25000000  0.03505000  1.0
  Li  Li1  1  0.75000000  0.75000000  0.90377000  1.0
  Li  Li2  1  0.25000000  0.25000000  0.90377000  1.0
  Li  Li3  1  0.24994000  0.75006000  0.03545000  1.0
  Zn  Zn4  1  0.25011000  0.24993000  0.03472000  1.0
  Zn  Zn5  1  0.25000000  0.75000000  0.90377000  1.0
  Zn  Zn6  1  0.75000000  0.25000000  0.90377000  1.0
  Zn  Zn7  1  0.75011000  0.75012000  0.03469000  1.0
  Ag  Ag8  1  0.00049000  0.99989000  0.09630000  1.0
  Ag  Ag9  1  0.00000000  0.50000000  0.96792000  1.0
  Ag  Ag10  1  0.50000000  0.00000000  0.96792000  1.0
  Ag  Ag11  1  0.49961000  0.50065000  0.09625000  1.0
  Ge  Ge12  1  0.96188000  0.46219000  0.12474000  1.0
  Ge  Ge13  1  0.00000000  0.00000000  0.96792000  1.0
  Ge  Ge14  1  0.50000000  0.50000000  0.96792000  1.0
  Ge  Ge15  1  0.53781000  0.03768000  0.12472000  1.0
  C  C16  1  0.74976000  0.25004000  0.12372000  1.0
