# generated using pymatgen
data_Ca16In16CO
_symmetry_space_group_name_H-M   'P 1'
_cell_length_a   7.80577000
_cell_length_b   11.03900000
_cell_length_c   28.27930000
_cell_angle_alpha   90.00000000
_cell_angle_beta   90.00000000
_cell_angle_gamma   90.00000000
_symmetry_Int_Tables_number   1
_chemical_formula_structural   Ca16In16CO
_chemical_formula_sum   'Ca16 In16 C1 O1'
_cell_volume   2436.76775392
_cell_formula_units_Z   1
loop_
 _symmetry_equiv_pos_site_id
 _symmetry_equiv_pos_as_xyz
  1  'x, y, z'
loop_
 _atom_site_type_symbol
 _atom_site_label
 _atom_site_symmetry_multiplicity
 _atom_site_fract_x
 _atom_site_fract_y
 _atom_site_fract_z
 _atom_site_occupancy
  Ca  Ca0  1  0.00000000  0.00000000  0.85362000  1.0
  Ca  Ca1  1  1.00000000  0.25000000  0.95121000  1.0
  Ca  Ca2  1  0.00151000  0.00003000  0.04954000  1.0
  Ca  Ca3  1  0.00062000  0.25317000  0.14914000  1.0
  Ca  Ca4  1  1.00000000  0.50000000  0.85362000  1.0
  Ca  Ca5  1  1.00000000  0.75000000  0.95121000  1.0
  Ca  Ca6  1  0.99718000  0.49999000  0.04745000  1.0
  Ca  Ca7  1  0.00058000  0.74678000  0.14914000  1.0
  Ca  Ca8  1  0.50000000  0.00000000  0.85362000  1.0
  Ca  Ca9  1  0.50000000  0.25000000  0.95121000  1.0
  Ca  Ca10  1  0.49847000  0.00003000  0.04953000  1.0
  Ca  Ca11  1  0.49931000  0.25320000  0.14915000  1.0
  Ca  Ca12  1  0.50000000  0.50000000  0.85362000  1.0
  Ca  Ca13  1  0.50000000  0.75000000  0.95121000  1.0
  Ca  Ca14  1  0.50273000  0.49997000  0.04741000  1.0
  Ca  Ca15  1  0.49938000  0.74671000  0.14915000  1.0
  In  In16  1  0.25000000  0.25000000  0.85362000  1.0
  In  In17  1  0.25000000  0.00000000  0.95121000  1.0
  In  In18  1  0.24999000  0.25870000  0.04935000  1.0
  In  In19  1  0.25010000  0.99986000  0.14624000  1.0
  In  In20  1  0.25000000  0.75000000  0.85362000  1.0
  In  In21  1  0.25000000  0.50000000  0.95121000  1.0
  In  In22  1  0.24999000  0.74131000  0.04934000  1.0
  In  In23  1  0.24996000  0.49998000  0.14510000  1.0
  In  In24  1  0.75000000  0.25000000  0.85362000  1.0
  In  In25  1  0.75000000  0.00000000  0.95121000  1.0
  In  In26  1  0.74996000  0.24841000  0.05288000  1.0
  In  In27  1  0.74993000  0.99998000  0.14822000  1.0
  In  In28  1  0.75000000  0.75000000  0.85362000  1.0
  In  In29  1  0.75000000  0.50000000  0.95121000  1.0
  In  In30  1  0.74997000  0.75163000  0.05288000  1.0
  In  In31  1  0.74998000  0.49998000  0.14584000  1.0
  C  C32  1  0.25019000  0.00013000  0.22879000  1.0
  O  O33  1  0.25003000  0.00003000  0.26979000  1.0
