# generated using pymatgen
data_Mn16Al8V8C
_symmetry_space_group_name_H-M   'P 1'
_cell_length_a   5.82937000
_cell_length_b   8.24397000
_cell_length_c   26.18300000
_cell_angle_alpha   90.00000000
_cell_angle_beta   90.00000000
_cell_angle_gamma   90.00000000
_symmetry_Int_Tables_number   1
_chemical_formula_structural   Mn16Al8V8C
_chemical_formula_sum   'Mn16 Al8 V8 C1'
_cell_volume   1258.28039508
_cell_formula_units_Z   1
loop_
 _symmetry_equiv_pos_site_id
 _symmetry_equiv_pos_as_xyz
  1  'x, y, z'
loop_
 _atom_site_type_symbol
 _atom_site_label
 _atom_site_symmetry_multiplicity
 _atom_site_fract_x
 _atom_site_fract_y
 _atom_site_fract_z
 _atom_site_occupancy
  Mn  Mn0  1  0.25000000  0.00000000  0.96064000  1.0
  Mn  Mn1  1  0.75000000  0.50000000  0.96064000  1.0
  Mn  Mn2  1  0.75000000  0.00000000  0.96064000  1.0
  Mn  Mn3  1  0.25000000  0.50000000  0.96064000  1.0
  Mn  Mn4  1  0.75000000  0.75000000  0.88193000  1.0
  Mn  Mn5  1  0.25000000  0.25000000  0.88193000  1.0
  Mn  Mn6  1  0.25000000  0.75000000  0.88193000  1.0
  Mn  Mn7  1  0.75000000  0.25000000  0.88193000  1.0
  Mn  Mn8  1  0.26193000  0.50000000  0.11890000  1.0
  Mn  Mn9  1  0.76379000  0.00000000  0.11774000  1.0
  Mn  Mn10  1  0.73807000  0.50000000  0.11890000  1.0
  Mn  Mn11  1  0.23621000  0.00000000  0.11774000  1.0
  Mn  Mn12  1  0.74700000  0.24805000  0.04161000  1.0
  Mn  Mn13  1  0.25300000  0.75195000  0.04161000  1.0
  Mn  Mn14  1  0.25300000  0.24805000  0.04161000  1.0
  Mn  Mn15  1  0.74700000  0.75195000  0.04161000  1.0
  Al  Al16  1  0.00000000  0.00000000  0.88193000  1.0
  Al  Al17  1  0.50000000  0.25000000  0.96064000  1.0
  Al  Al18  1  0.50000000  0.75000000  0.96064000  1.0
  Al  Al19  1  0.00000000  0.50000000  0.88193000  1.0
  Al  Al20  1  0.00000000  0.50000000  0.03993000  1.0
  Al  Al21  1  0.50000000  0.75622000  0.12913000  1.0
  Al  Al22  1  0.50000000  0.24378000  0.12913000  1.0
  Al  Al23  1  0.00000000  0.00000000  0.03713000  1.0
  V  V24  1  0.00000000  0.75000000  0.96064000  1.0
  V  V25  1  0.50000000  0.00000000  0.88193000  1.0
  V  V26  1  0.00000000  0.25000000  0.96064000  1.0
  V  V27  1  0.50000000  0.50000000  0.88193000  1.0
  V  V28  1  0.00000000  0.24969000  0.11577000  1.0
  V  V29  1  0.50000000  0.50000000  0.03906000  1.0
  V  V30  1  0.00000000  0.75031000  0.11577000  1.0
  V  V31  1  0.50000000  0.00000000  0.03826000  1.0
  C  C32  1  0.50000000  0.00000000  0.15460000  1.0
