# generated using pymatgen
data_Mn16Al8V8C
_symmetry_space_group_name_H-M   Pmm2
_cell_length_a   5.82937000
_cell_length_b   8.24397000
_cell_length_c   26.18300000
_cell_angle_alpha   90.00000000
_cell_angle_beta   90.00000000
_cell_angle_gamma   90.00000000
_symmetry_Int_Tables_number   25
_chemical_formula_structural   Mn16Al8V8C
_chemical_formula_sum   'Mn16 Al8 V8 C1'
_cell_volume   1258.28039508
_cell_formula_units_Z   1
loop_
 _symmetry_equiv_pos_site_id
 _symmetry_equiv_pos_as_xyz
  1  'x, y, z'
  2  '-x, -y, z'
  3  '-x, y, z'
  4  'x, -y, z'
loop_
 _atom_site_type_symbol
 _atom_site_label
 _atom_site_symmetry_multiplicity
 _atom_site_fract_x
 _atom_site_fract_y
 _atom_site_fract_z
 _atom_site_occupancy
  Mn  Mn0  4  0.25000000  0.25000000  0.88193000  1.0
  Mn  Mn1  4  0.25300000  0.24805000  0.04161000  1.0
  Mn  Mn2  2  0.23621000  0.00000000  0.11774000  1.0
  Mn  Mn3  2  0.25000000  0.00000000  0.96064000  1.0
  Mn  Mn4  2  0.25000000  0.50000000  0.96064000  1.0
  Mn  Mn5  2  0.26193000  0.50000000  0.11890000  1.0
  Al  Al6  2  0.50000000  0.24378000  0.12913000  1.0
  Al  Al7  2  0.50000000  0.25000000  0.96064000  1.0
  Al  Al8  1  0.00000000  0.00000000  0.03713000  1.0
  Al  Al9  1  0.00000000  0.00000000  0.88193000  1.0
  Al  Al10  1  0.00000000  0.50000000  0.03993000  1.0
  Al  Al11  1  0.00000000  0.50000000  0.88193000  1.0
  V  V12  2  0.00000000  0.24969000  0.11577000  1.0
  V  V13  2  0.00000000  0.25000000  0.96064000  1.0
  V  V14  1  0.50000000  0.00000000  0.03826000  1.0
  V  V15  1  0.50000000  0.00000000  0.88193000  1.0
  V  V16  1  0.50000000  0.50000000  0.03906000  1.0
  V  V17  1  0.50000000  0.50000000  0.88193000  1.0
  C  C18  1  0.50000000  0.00000000  0.15460000  1.0
