# generated using pymatgen
data_Li8In8Cu8Sn8C
_symmetry_space_group_name_H-M   'P 1'
_cell_length_a   9.53092000
_cell_length_b   6.73938000
_cell_length_c   27.14820000
_cell_angle_alpha   90.00000000
_cell_angle_beta   90.00000000
_cell_angle_gamma   90.00000000
_symmetry_Int_Tables_number   1
_chemical_formula_structural   Li8In8Cu8Sn8C
_chemical_formula_sum   'Li8 In8 Cu8 Sn8 C1'
_cell_volume   1743.79652926
_cell_formula_units_Z   1
loop_
 _symmetry_equiv_pos_site_id
 _symmetry_equiv_pos_as_xyz
  1  'x, y, z'
loop_
 _atom_site_type_symbol
 _atom_site_label
 _atom_site_symmetry_multiplicity
 _atom_site_fract_x
 _atom_site_fract_y
 _atom_site_fract_z
 _atom_site_occupancy
  Li  Li0  1  0.00000000  0.00000000  0.04388000  1.0
  Li  Li1  1  0.50000000  0.00000000  0.04388000  1.0
  Li  Li2  1  0.25000000  0.50000000  0.13165000  1.0
  Li  Li3  1  0.75000000  0.50000000  0.13165000  1.0
  Li  Li4  1  0.50000000  0.05800000  0.85218000  1.0
  Li  Li5  1  0.00000000  0.95439000  0.84438000  1.0
  Li  Li6  1  0.75797000  0.47382000  0.95267000  1.0
  Li  Li7  1  0.24203000  0.47382000  0.95267000  1.0
  In  In8  1  0.75000000  0.25000000  0.04388000  1.0
  In  In9  1  0.25000000  0.25000000  0.04388000  1.0
  In  In10  1  0.00000000  0.75000000  0.13165000  1.0
  In  In11  1  0.50000000  0.75000000  0.13165000  1.0
  In  In12  1  0.23726000  0.28132000  0.83767000  1.0
  In  In13  1  0.76274000  0.28132000  0.83767000  1.0
  In  In14  1  0.50000000  0.73989000  0.95495000  1.0
  In  In15  1  0.00000000  0.74813000  0.95664000  1.0
  Cu  Cu16  1  0.75000000  0.00000000  0.13165000  1.0
  Cu  Cu17  1  0.25000000  0.00000000  0.13165000  1.0
  Cu  Cu18  1  0.50000000  0.50000000  0.04388000  1.0
  Cu  Cu19  1  0.00000000  0.50000000  0.04388000  1.0
  Cu  Cu20  1  0.25478000  0.00123000  0.96053000  1.0
  Cu  Cu21  1  0.74522000  0.00123000  0.96053000  1.0
  Cu  Cu22  1  0.00000000  0.54167000  0.87392000  1.0
  Cu  Cu23  1  0.50000000  0.47711000  0.87541000  1.0
  Sn  Sn24  1  0.75000000  0.75000000  0.04388000  1.0
  Sn  Sn25  1  0.25000000  0.75000000  0.04388000  1.0
  Sn  Sn26  1  0.00000000  0.25000000  0.13165000  1.0
  Sn  Sn27  1  0.50000000  0.25000000  0.13165000  1.0
  Sn  Sn28  1  0.26976000  0.75850000  0.87065000  1.0
  Sn  Sn29  1  0.73024000  0.75850000  0.87065000  1.0
  Sn  Sn30  1  0.50000000  0.22768000  0.95333000  1.0
  Sn  Sn31  1  0.00000000  0.20370000  0.93985000  1.0
  C  C32  1  0.00000000  0.25810000  0.85544000  1.0
