# generated using pymatgen
data_Zr8In8Au16C
_symmetry_space_group_name_H-M   'P 1'
_cell_length_a   6.87009000
_cell_length_b   9.71577000
_cell_length_c   27.28680000
_cell_angle_alpha   90.00000000
_cell_angle_beta   90.00000000
_cell_angle_gamma   90.00000000
_symmetry_Int_Tables_number   1
_chemical_formula_structural   Zr8In8Au16C
_chemical_formula_sum   'Zr8 In8 Au16 C1'
_cell_volume   1821.34517449
_cell_formula_units_Z   1
loop_
 _symmetry_equiv_pos_site_id
 _symmetry_equiv_pos_as_xyz
  1  'x, y, z'
loop_
 _atom_site_type_symbol
 _atom_site_label
 _atom_site_symmetry_multiplicity
 _atom_site_fract_x
 _atom_site_fract_y
 _atom_site_fract_z
 _atom_site_occupancy
  Zr  Zr0  1  0.00000000  0.00000000  0.86648000  1.0
  Zr  Zr1  1  0.50000000  0.25000000  0.95549000  1.0
  Zr  Zr2  1  0.50000000  0.75000000  0.95549000  1.0
  Zr  Zr3  1  0.00000000  0.50000000  0.86648000  1.0
  Zr  Zr4  1  0.00000000  0.50000000  0.04899000  1.0
  Zr  Zr5  1  0.50000000  0.77612000  0.12545000  1.0
  Zr  Zr6  1  0.50000000  0.22388000  0.12545000  1.0
  Zr  Zr7  1  0.00000000  0.00000000  0.04923000  1.0
  In  In8  1  0.00000000  0.75000000  0.95549000  1.0
  In  In9  1  0.50000000  0.00000000  0.86648000  1.0
  In  In10  1  0.00000000  0.25000000  0.95549000  1.0
  In  In11  1  0.50000000  0.50000000  0.86648000  1.0
  In  In12  1  0.00000000  0.27180000  0.14245000  1.0
  In  In13  1  0.50000000  0.50000000  0.04235000  1.0
  In  In14  1  0.00000000  0.72820000  0.14245000  1.0
  In  In15  1  0.50000000  0.00000000  0.04198000  1.0
  Au  Au16  1  0.25000000  0.00000000  0.95549000  1.0
  Au  Au17  1  0.75000000  0.50000000  0.95549000  1.0
  Au  Au18  1  0.75000000  0.00000000  0.95549000  1.0
  Au  Au19  1  0.25000000  0.50000000  0.95549000  1.0
  Au  Au20  1  0.75000000  0.75000000  0.86648000  1.0
  Au  Au21  1  0.25000000  0.25000000  0.86648000  1.0
  Au  Au22  1  0.25000000  0.75000000  0.86648000  1.0
  Au  Au23  1  0.75000000  0.25000000  0.86648000  1.0
  Au  Au24  1  0.28211000  0.50000000  0.13644000  1.0
  Au  Au25  1  0.80627000  0.00000000  0.14784000  1.0
  Au  Au26  1  0.71789000  0.50000000  0.13644000  1.0
  Au  Au27  1  0.19373000  0.00000000  0.14784000  1.0
  Au  Au28  1  0.75991000  0.24923000  0.04422000  1.0
  Au  Au29  1  0.24009000  0.75077000  0.04422000  1.0
  Au  Au30  1  0.24009000  0.24923000  0.04422000  1.0
  Au  Au31  1  0.75991000  0.75077000  0.04422000  1.0
  C  C32  1  0.50000000  0.00000000  0.13316000  1.0
