data_image0
_chemical_formula_structural       Hf4In4Cu8CO
_chemical_formula_sum              "Hf4 In4 Cu8 C1 O1"
_cell_length_a       6.35005
_cell_length_b       6.35005
_cell_length_c       24.7625
_cell_angle_alpha    90
_cell_angle_beta     90
_cell_angle_gamma    90

_space_group_name_H-M_alt    "P 1"
_space_group_IT_number       1

loop_
  _space_group_symop_operation_xyz
  'x, y, z'

loop_
  _atom_site_type_symbol
  _atom_site_label
  _atom_site_symmetry_multiplicity
  _atom_site_fract_x
  _atom_site_fract_y
  _atom_site_fract_z
  _atom_site_occupancy
  Hf  Hf1       1.0  0.00001  0.00001  0.09654  1.0000
  Hf  Hf2       1.0  0.50003  0.49998  0.09660  1.0000
  Hf  Hf3       1.0  0.50000  0.00000  0.96795  1.0000
  Hf  Hf4       1.0  0.00000  0.50000  0.96795  1.0000
  In  In1       1.0  0.00000  0.00000  0.96795  1.0000
  In  In2       1.0  0.50001  0.99999  0.11302  1.0000
  In  In3       1.0  0.00002  0.49999  0.10913  1.0000
  In  In4       1.0  0.50000  0.50000  0.96795  1.0000
  Cu  Cu1       1.0  0.25407  0.24608  0.03700  1.0000
  Cu  Cu2       1.0  0.75000  0.75000  0.90384  1.0000
  Cu  Cu3       1.0  0.74597  0.24608  0.03700  1.0000
  Cu  Cu4       1.0  0.25000  0.75000  0.90384  1.0000
  Cu  Cu5       1.0  0.74596  0.75392  0.03701  1.0000
  Cu  Cu6       1.0  0.25000  0.25000  0.90384  1.0000
  Cu  Cu7       1.0  0.25405  0.75389  0.03701  1.0000
  Cu  Cu8       1.0  0.75000  0.25000  0.90384  1.0000
  C   C1        1.0  0.99972  0.50057  0.29224  1.0000
  O   O1        1.0  0.00006  0.49981  0.33806  1.0000
