# generated using pymatgen
data_Li8V8Ge8Pd8CO
_symmetry_space_group_name_H-M   'P 1'
_cell_length_a   5.68832000
_cell_length_b   8.64114000
_cell_length_c   27.05420000
_cell_angle_alpha   90.00000000
_cell_angle_beta   90.00000000
_cell_angle_gamma   90.00000000
_symmetry_Int_Tables_number   1
_chemical_formula_structural   Li8V8Ge8Pd8CO
_chemical_formula_sum   'Li8 V8 Ge8 Pd8 C1 O1'
_cell_volume   1329.81049956
_cell_formula_units_Z   1
loop_
 _symmetry_equiv_pos_site_id
 _symmetry_equiv_pos_as_xyz
  1  'x, y, z'
loop_
 _atom_site_type_symbol
 _atom_site_label
 _atom_site_symmetry_multiplicity
 _atom_site_fract_x
 _atom_site_fract_y
 _atom_site_fract_z
 _atom_site_occupancy
  Li  Li0  1  0.00000000  0.75264000  0.04696000  1.0
  Li  Li1  1  0.00000000  0.75000000  0.86963000  1.0
  Li  Li2  1  0.00000000  0.24736000  0.04696000  1.0
  Li  Li3  1  0.00000000  0.25000000  0.86963000  1.0
  Li  Li4  1  0.50000000  0.74869000  0.04579000  1.0
  Li  Li5  1  0.50000000  0.75000000  0.86963000  1.0
  Li  Li6  1  0.50000000  0.25131000  0.04579000  1.0
  Li  Li7  1  0.50000000  0.25000000  0.86963000  1.0
  V  V8  1  0.00000000  0.00000000  0.13203000  1.0
  V  V9  1  0.00000000  0.00000000  0.95654000  1.0
  V  V10  1  0.00000000  0.50000000  0.12578000  1.0
  V  V11  1  0.00000000  0.50000000  0.95654000  1.0
  V  V12  1  0.50000000  0.00000000  0.12475000  1.0
  V  V13  1  0.50000000  0.00000000  0.95654000  1.0
  V  V14  1  0.50000000  0.50000000  0.12604000  1.0
  V  V15  1  0.50000000  0.50000000  0.95654000  1.0
  Ge  Ge16  1  0.74784000  0.74903000  0.13716000  1.0
  Ge  Ge17  1  0.75000000  0.75000000  0.95654000  1.0
  Ge  Ge18  1  0.74784000  0.25097000  0.13716000  1.0
  Ge  Ge19  1  0.75000000  0.25000000  0.95654000  1.0
  Ge  Ge20  1  0.25216000  0.74903000  0.13716000  1.0
  Ge  Ge21  1  0.25000000  0.75000000  0.95654000  1.0
  Ge  Ge22  1  0.25216000  0.25097000  0.13716000  1.0
  Ge  Ge23  1  0.25000000  0.25000000  0.95654000  1.0
  Pd  Pd24  1  0.74646000  0.00000000  0.04271000  1.0
  Pd  Pd25  1  0.75000000  0.00000000  0.86963000  1.0
  Pd  Pd26  1  0.75174000  0.50000000  0.04230000  1.0
  Pd  Pd27  1  0.75000000  0.50000000  0.86963000  1.0
  Pd  Pd28  1  0.25354000  0.00000000  0.04271000  1.0
  Pd  Pd29  1  0.25000000  0.00000000  0.86963000  1.0
  Pd  Pd30  1  0.24826000  0.50000000  0.04230000  1.0
  Pd  Pd31  1  0.25000000  0.50000000  0.86963000  1.0
  C  C32  1  0.00000000  0.00000000  0.20473000  1.0
  O  O33  1  0.00000000  0.00000000  0.24758000  1.0
