# generated using pymatgen
data_Li8V8Ge8Pd8CO
_symmetry_space_group_name_H-M   Pmm2
_cell_length_a   5.68832000
_cell_length_b   8.64114000
_cell_length_c   27.05420000
_cell_angle_alpha   90.00000000
_cell_angle_beta   90.00000000
_cell_angle_gamma   90.00000000
_symmetry_Int_Tables_number   25
_chemical_formula_structural   Li8V8Ge8Pd8CO
_chemical_formula_sum   'Li8 V8 Ge8 Pd8 C1 O1'
_cell_volume   1329.81049956
_cell_formula_units_Z   1
loop_
 _symmetry_equiv_pos_site_id
 _symmetry_equiv_pos_as_xyz
  1  'x, y, z'
  2  '-x, -y, z'
  3  '-x, y, z'
  4  'x, -y, z'
loop_
 _atom_site_type_symbol
 _atom_site_label
 _atom_site_symmetry_multiplicity
 _atom_site_fract_x
 _atom_site_fract_y
 _atom_site_fract_z
 _atom_site_occupancy
  Li  Li0  2  0.00000000  0.24736000  0.04696000  1.0
  Li  Li1  2  0.00000000  0.25000000  0.86963000  1.0
  Li  Li2  2  0.50000000  0.25000000  0.86963000  1.0
  Li  Li3  2  0.50000000  0.25131000  0.04579000  1.0
  V  V4  1  0.00000000  0.00000000  0.13203000  1.0
  V  V5  1  0.00000000  0.00000000  0.95654000  1.0
  V  V6  1  0.00000000  0.50000000  0.12578000  1.0
  V  V7  1  0.00000000  0.50000000  0.95654000  1.0
  V  V8  1  0.50000000  0.00000000  0.12475000  1.0
  V  V9  1  0.50000000  0.00000000  0.95654000  1.0
  V  V10  1  0.50000000  0.50000000  0.12604000  1.0
  V  V11  1  0.50000000  0.50000000  0.95654000  1.0
  Ge  Ge12  4  0.25000000  0.25000000  0.95654000  1.0
  Ge  Ge13  4  0.25216000  0.25097000  0.13716000  1.0
  Pd  Pd14  2  0.24826000  0.50000000  0.04230000  1.0
  Pd  Pd15  2  0.25000000  0.00000000  0.86963000  1.0
  Pd  Pd16  2  0.25000000  0.50000000  0.86963000  1.0
  Pd  Pd17  2  0.25354000  0.00000000  0.04271000  1.0
  C  C18  1  0.00000000  0.00000000  0.20473000  1.0
  O  O19  1  0.00000000  0.00000000  0.24758000  1.0
