# generated using pymatgen
data_CuNi2Sb
_symmetry_space_group_name_H-M   'P 1'
_cell_length_a   6.01864000
_cell_length_b   8.51164000
_cell_length_c   26.38370000
_cell_angle_alpha   90.00000000
_cell_angle_beta   90.00000000
_cell_angle_gamma   90.00000000
_symmetry_Int_Tables_number   1
_chemical_formula_structural   CuNi2Sb
_chemical_formula_sum   'Cu8 Ni16 Sb8'
_cell_volume   1351.59729550
_cell_formula_units_Z   8
loop_
 _symmetry_equiv_pos_site_id
 _symmetry_equiv_pos_as_xyz
  1  'x, y, z'
loop_
 _atom_site_type_symbol
 _atom_site_label
 _atom_site_symmetry_multiplicity
 _atom_site_fract_x
 _atom_site_fract_y
 _atom_site_fract_z
 _atom_site_occupancy
  Cu  Cu0  1  0.00000000  0.00000000  0.87902000  1.0
  Cu  Cu1  1  0.50000000  0.25000000  0.95967000  1.0
  Cu  Cu2  1  0.50000000  0.75000000  0.95967000  1.0
  Cu  Cu3  1  0.00000000  0.50000000  0.87902000  1.0
  Cu  Cu4  1  0.00008000  0.49995000  0.03586000  1.0
  Cu  Cu5  1  0.49999000  0.75012000  0.12041000  1.0
  Cu  Cu6  1  0.50003000  0.24988000  0.12039000  1.0
  Cu  Cu7  1  0.99996000  0.00009000  0.03579000  1.0
  Ni  Ni8  1  0.25000000  0.00000000  0.95967000  1.0
  Ni  Ni9  1  0.75000000  0.50000000  0.95967000  1.0
  Ni  Ni10  1  0.75000000  0.00000000  0.95967000  1.0
  Ni  Ni11  1  0.25000000  0.50000000  0.95967000  1.0
  Ni  Ni12  1  0.75000000  0.75000000  0.87902000  1.0
  Ni  Ni13  1  0.25000000  0.25000000  0.87902000  1.0
  Ni  Ni14  1  0.25000000  0.75000000  0.87902000  1.0
  Ni  Ni15  1  0.75000000  0.25000000  0.87902000  1.0
  Ni  Ni16  1  0.23113000  0.50001000  0.11283000  1.0
  Ni  Ni17  1  0.76898000  0.00002000  0.11281000  1.0
  Ni  Ni18  1  0.76898000  0.49998000  0.11282000  1.0
  Ni  Ni19  1  0.23101000  0.99999000  0.11279000  1.0
  Ni  Ni20  1  0.76707000  0.25005000  0.04509000  1.0
  Ni  Ni21  1  0.23287000  0.75001000  0.04508000  1.0
  Ni  Ni22  1  0.23292000  0.25000000  0.04509000  1.0
  Ni  Ni23  1  0.76713000  0.75000000  0.04512000  1.0
  Sb  Sb24  1  0.00000000  0.75000000  0.95967000  1.0
  Sb  Sb25  1  0.50000000  0.00000000  0.87902000  1.0
  Sb  Sb26  1  0.00000000  0.25000000  0.95967000  1.0
  Sb  Sb27  1  0.50000000  0.50000000  0.87902000  1.0
  Sb  Sb28  1  0.00002000  0.24999000  0.13515000  1.0
  Sb  Sb29  1  0.50000000  0.50002000  0.03962000  1.0
  Sb  Sb30  1  0.00000000  0.75001000  0.13515000  1.0
  Sb  Sb31  1  0.50000000  0.00000000  0.03959000  1.0
