# generated using pymatgen
data_Li8Y8Sn8Ge8CO
_symmetry_space_group_name_H-M   Pm
_cell_length_a   9.43388000
_cell_length_b   8.52742000
_cell_length_c   26.45610000
_cell_angle_alpha   90.00000000
_cell_angle_beta   90.00000000
_cell_angle_gamma   90.00000000
_symmetry_Int_Tables_number   6
_chemical_formula_structural   Li8Y8Sn8Ge8CO
_chemical_formula_sum   'Li8 Y8 Sn8 Ge8 C1 O1'
_cell_volume   2128.30480198
_cell_formula_units_Z   1
loop_
 _symmetry_equiv_pos_site_id
 _symmetry_equiv_pos_as_xyz
  1  'x, y, z'
  2  'x, -y, z'
loop_
 _atom_site_type_symbol
 _atom_site_label
 _atom_site_symmetry_multiplicity
 _atom_site_fract_x
 _atom_site_fract_y
 _atom_site_fract_z
 _atom_site_occupancy
  Li  Li0  2  0.25000000  0.25000000  0.95933000  1.0
  Li  Li1  2  0.26437000  0.21556000  0.13411000  1.0
  Li  Li2  2  0.73563000  0.21556000  0.13411000  1.0
  Li  Li3  2  0.75000000  0.25000000  0.95933000  1.0
  Y  Y4  2  0.00000000  0.23950000  0.04369000  1.0
  Y  Y5  2  0.00000000  0.25000000  0.87798000  1.0
  Y  Y6  2  0.50000000  0.25000000  0.87798000  1.0
  Y  Y7  2  0.50000000  0.26011000  0.04030000  1.0
  Sn  Sn8  1  0.24312000  0.50000000  0.05779000  1.0
  Sn  Sn9  1  0.25000000  0.00000000  0.87798000  1.0
  Sn  Sn10  1  0.25000000  0.50000000  0.87798000  1.0
  Sn  Sn11  1  0.26640000  0.00000000  0.03836000  1.0
  Sn  Sn12  1  0.73360000  0.00000000  0.03836000  1.0
  Sn  Sn13  1  0.75000000  0.00000000  0.87798000  1.0
  Sn  Sn14  1  0.75000000  0.50000000  0.87798000  1.0
  Sn  Sn15  1  0.75688000  0.50000000  0.05779000  1.0
  Ge  Ge16  1  0.00000000  0.00000000  0.95933000  1.0
  Ge  Ge17  1  0.00000000  0.50000000  0.12589000  1.0
  Ge  Ge18  1  0.00000000  0.50000000  0.95933000  1.0
  Ge  Ge19  1  0.50000000  0.00000000  0.95933000  1.0
  Ge  Ge20  1  0.50000000  0.50000000  0.12576000  1.0
  Ge  Ge21  1  0.50000000  0.50000000  0.95933000  1.0
  Ge  Ge22  1  0.50001000  0.00000000  0.11779000  1.0
  Ge  Ge23  1  0.99995000  0.00000000  0.13049000  1.0
  C  C24  1  0.00003000  0.00000000  0.20198000  1.0
  O  O25  1  0.00001000  0.00000000  0.24632000  1.0
