# generated using pymatgen
data_LiMgAlAg
_symmetry_space_group_name_H-M   Pmm2
_cell_length_a   4.55091096
_cell_length_b   4.55091096
_cell_length_c   24.82700000
_cell_angle_alpha   90.00000000
_cell_angle_beta   90.00000000
_cell_angle_gamma   90.00000000
_symmetry_Int_Tables_number   25
_chemical_formula_structural   LiMgAlAg
_chemical_formula_sum   'Li2 Mg2 Al2 Ag2'
_cell_volume   514.18679725
_cell_formula_units_Z   2
loop_
 _symmetry_equiv_pos_site_id
 _symmetry_equiv_pos_as_xyz
  1  'x, y, z'
  2  '-x, -y, z'
  3  '-x, y, z'
  4  'x, -y, z'
loop_
 _atom_site_type_symbol
 _atom_site_label
 _atom_site_symmetry_multiplicity
 _atom_site_fract_x
 _atom_site_fract_y
 _atom_site_fract_z
 _atom_site_occupancy
  Li  Li0  1  0.00000000  0.00000000  0.96760000  1.0
  Li  Li1  1  0.50000000  0.50000000  0.11479500  1.0
  Mg  Mg2  1  0.00000000  0.50000000  0.90279000  1.0
  Mg  Mg3  1  0.50000000  0.00000000  0.03560000  1.0
  Al  Al4  1  0.00000000  0.50000000  0.03781000  1.0
  Al  Al5  1  0.50000000  0.00000000  0.90279000  1.0
  Ag  Ag6  1  0.00000000  0.00000000  0.09850000  1.0
  Ag  Ag7  1  0.50000000  0.50000000  0.96760000  1.0
