# generated using pymatgen
data_Li16Cu8Sb8CO
_symmetry_space_group_name_H-M   Pm
_cell_length_a   6.37457000
_cell_length_b   9.01500000
_cell_length_c   26.76130000
_cell_angle_alpha   90.00000000
_cell_angle_beta   90.00000000
_cell_angle_gamma   90.00000000
_symmetry_Int_Tables_number   6
_chemical_formula_structural   Li16Cu8Sb8CO
_chemical_formula_sum   'Li16 Cu8 Sb8 C1 O1'
_cell_volume   1537.88489797
_cell_formula_units_Z   1
loop_
 _symmetry_equiv_pos_site_id
 _symmetry_equiv_pos_as_xyz
  1  'x, y, z'
  2  'x, -y, z'
loop_
 _atom_site_type_symbol
 _atom_site_label
 _atom_site_symmetry_multiplicity
 _atom_site_fract_x
 _atom_site_fract_y
 _atom_site_fract_z
 _atom_site_occupancy
  Li  Li0  2  -0.00000000  0.25000000  0.95789000  1.0
  Li  Li1  2  0.75000000  0.25000000  0.87367000  1.0
  Li  Li2  2  0.76474000  0.24829000  0.03886000  1.0
  Li  Li3  2  0.96652000  0.25122000  0.13222000  1.0
  Li  Li4  1  0.25000000  0.00000000  0.95789000  1.0
  Li  Li5  1  0.25000000  0.50000000  0.95789000  1.0
  Li  Li6  1  0.26819000  0.00000000  0.12324000  1.0
  Li  Li7  1  0.27263000  0.50000000  0.12259000  1.0
  Li  Li8  1  0.50000000  0.00000000  0.87367000  1.0
  Li  Li9  1  0.50000000  0.50000000  0.87367000  1.0
  Li  Li10  1  0.50145000  0.00000000  0.04185000  1.0
  Li  Li11  1  0.51077000  0.50000000  0.04219000  1.0
  Cu  Cu12  2  0.50000000  0.25000000  0.95789000  1.0
  Cu  Cu13  2  0.53328000  0.25004000  0.11473000  1.0
  Cu  Cu14  1  -0.00000000  0.50000000  0.87367000  1.0
  Cu  Cu15  1  0.00000000  0.00000000  0.87367000  1.0
  Cu  Cu16  1  0.98943000  0.50000000  0.04519000  1.0
  Cu  Cu17  1  0.99722000  0.00000000  0.04335000  1.0
  Sb  Sb18  2  0.23890000  0.25131000  0.04568000  1.0
  Sb  Sb19  2  0.25000000  0.25000000  0.87367000  1.0
  Sb  Sb20  1  0.73716000  0.50000000  0.13197000  1.0
  Sb  Sb21  1  0.74193000  0.00000000  0.12884000  1.0
  Sb  Sb22  1  0.75000000  0.00000000  0.95789000  1.0
  Sb  Sb23  1  0.75000000  0.50000000  0.95789000  1.0
  C  C24  1  0.61363000  0.00000000  0.27025000  1.0
  O  O25  1  0.77950000  0.00000000  0.28577000  1.0
