# generated using pymatgen
data_NbRu
_symmetry_space_group_name_H-M   'P 1'
_cell_length_a   3.17960500
_cell_length_b   4.49664500
_cell_length_c   26.74500000
_cell_angle_alpha   90.00000000
_cell_angle_beta   90.00000000
_cell_angle_gamma   90.00000000
_symmetry_Int_Tables_number   1
_chemical_formula_structural   NbRu
_chemical_formula_sum   'Nb4 Ru4'
_cell_volume   382.38810648
_cell_formula_units_Z   4
loop_
 _symmetry_equiv_pos_site_id
 _symmetry_equiv_pos_as_xyz
  1  'x, y, z'
loop_
 _atom_site_type_symbol
 _atom_site_label
 _atom_site_symmetry_multiplicity
 _atom_site_fract_x
 _atom_site_fract_y
 _atom_site_fract_z
 _atom_site_occupancy
  Nb  Nb0  1  0.00000000  0.00000000  0.87390000  1.0
  Nb  Nb1  1  0.00000000  0.50000000  0.95797000  1.0
  Nb  Nb2  1  0.00000000  0.00000000  0.04374000  1.0
  Nb  Nb3  1  0.00000000  0.50000000  0.12922000  1.0
  Ru  Ru4  1  0.50000000  0.50000000  0.87390000  1.0
  Ru  Ru5  1  0.50000000  0.00000000  0.95797000  1.0
  Ru  Ru6  1  0.50000000  0.50000000  0.04402000  1.0
  Ru  Ru7  1  0.50000000  0.00000000  0.12018000  1.0
