# generated using pymatgen
data_Li4Mg4In4Ge4C
_symmetry_space_group_name_H-M   Pm
_cell_length_a   6.07136000
_cell_length_b   8.40992000
_cell_length_c   24.55010000
_cell_angle_alpha   90.00000000
_cell_angle_beta   90.00000000
_cell_angle_gamma   90.00000000
_symmetry_Int_Tables_number   6
_chemical_formula_structural   Li4Mg4In4Ge4C
_chemical_formula_sum   'Li4 Mg4 In4 Ge4 C1'
_cell_volume   1253.51955989
_cell_formula_units_Z   1
loop_
 _symmetry_equiv_pos_site_id
 _symmetry_equiv_pos_as_xyz
  1  'x, y, z'
  2  'x, -y, z'
loop_
 _atom_site_type_symbol
 _atom_site_label
 _atom_site_symmetry_multiplicity
 _atom_site_fract_x
 _atom_site_fract_y
 _atom_site_fract_z
 _atom_site_occupancy
  Li  Li0  2  0.18689000  0.17284000  0.10378000  1.0
  Li  Li1  2  0.74033000  0.25000000  0.96911000  1.0
  Mg  Mg2  2  0.24033000  0.25000000  0.96911000  1.0
  Mg  Mg3  2  0.70575000  0.20528000  0.10051000  1.0
  In  In4  1  0.50000000  0.00000000  0.90733000  1.0
  In  In5  1  0.50000000  0.50000000  0.90733000  1.0
  In  In6  1  0.95844000  0.00000000  0.01983000  1.0
  In  In7  1  0.97886000  0.50000000  0.03498000  1.0
  Ge  Ge8  1  0.00000000  0.00000000  0.90733000  1.0
  Ge  Ge9  1  0.00000000  0.50000000  0.90733000  1.0
  Ge  Ge10  1  0.45936000  0.00000000  0.02849000  1.0
  Ge  Ge11  1  0.49216000  0.50000000  0.06277000  1.0
  C  C12  1  0.92807000  0.00000000  0.11146000  1.0
