# generated using pymatgen
data_Li8Sn8Pd16C
_symmetry_space_group_name_H-M   Pmm2
_cell_length_a   6.41477000
_cell_length_b   9.07185000
_cell_length_c   26.80390000
_cell_angle_alpha   90.00000000
_cell_angle_beta   90.00000000
_cell_angle_gamma   90.00000000
_symmetry_Int_Tables_number   25
_chemical_formula_structural   Li8Sn8Pd16C
_chemical_formula_sum   'Li8 Sn8 Pd16 C1'
_cell_volume   1559.82163276
_cell_formula_units_Z   1
loop_
 _symmetry_equiv_pos_site_id
 _symmetry_equiv_pos_as_xyz
  1  'x, y, z'
  2  '-x, -y, z'
  3  '-x, y, z'
  4  'x, -y, z'
loop_
 _atom_site_type_symbol
 _atom_site_label
 _atom_site_symmetry_multiplicity
 _atom_site_fract_x
 _atom_site_fract_y
 _atom_site_fract_z
 _atom_site_occupancy
  Li  Li0  2  0.50000000  0.25000000  0.95769000  1.0
  Li  Li1  2  0.50000000  0.26003000  0.13109000  1.0
  Li  Li2  1  0.00000000  0.00000000  0.04474000  1.0
  Li  Li3  1  0.00000000  0.00000000  0.87308000  1.0
  Li  Li4  1  0.00000000  0.50000000  0.03906000  1.0
  Li  Li5  1  0.00000000  0.50000000  0.87308000  1.0
  Sn  Sn6  2  0.00000000  0.24723000  0.13612000  1.0
  Sn  Sn7  2  0.00000000  0.25000000  0.95769000  1.0
  Sn  Sn8  1  0.50000000  0.00000000  0.03681000  1.0
  Sn  Sn9  1  0.50000000  0.00000000  0.87308000  1.0
  Sn  Sn10  1  0.50000000  0.50000000  0.04242000  1.0
  Sn  Sn11  1  0.50000000  0.50000000  0.87308000  1.0
  Pd  Pd12  4  0.24270000  0.25179000  0.04455000  1.0
  Pd  Pd13  4  0.25000000  0.25000000  0.87308000  1.0
  Pd  Pd14  2  0.23065000  0.50000000  0.12013000  1.0
  Pd  Pd15  2  0.25000000  0.00000000  0.95769000  1.0
  Pd  Pd16  2  0.25000000  0.50000000  0.95769000  1.0
  Pd  Pd17  2  0.28240000  0.00000000  0.12095000  1.0
  C  C18  1  0.00000000  0.00000000  0.15228000  1.0
