# generated using pymatgen
data_Li8Mg16Ga8C
_symmetry_space_group_name_H-M   'P 1'
_cell_length_a   6.69031000
_cell_length_b   9.46152000
_cell_length_c   27.09610000
_cell_angle_alpha   90.00000000
_cell_angle_beta   90.00000000
_cell_angle_gamma   90.00000000
_symmetry_Int_Tables_number   1
_chemical_formula_structural   Li8Mg16Ga8C
_chemical_formula_sum   'Li8 Mg16 Ga8 C1'
_cell_volume   1715.19672875
_cell_formula_units_Z   1
loop_
 _symmetry_equiv_pos_site_id
 _symmetry_equiv_pos_as_xyz
  1  'x, y, z'
loop_
 _atom_site_type_symbol
 _atom_site_label
 _atom_site_symmetry_multiplicity
 _atom_site_fract_x
 _atom_site_fract_y
 _atom_site_fract_z
 _atom_site_occupancy
  Li  Li0  1  0.00000000  0.00000000  0.86906000  1.0
  Li  Li1  1  0.50000000  0.25000000  0.95635000  1.0
  Li  Li2  1  0.50000000  0.75000000  0.95635000  1.0
  Li  Li3  1  0.00000000  0.50000000  0.86906000  1.0
  Li  Li4  1  0.00000000  0.50000000  0.04736000  1.0
  Li  Li5  1  0.50000000  0.78030000  0.14106000  1.0
  Li  Li6  1  0.50000000  0.21970000  0.14106000  1.0
  Li  Li7  1  0.00000000  0.00000000  0.04500000  1.0
  Mg  Mg8  1  0.25000000  0.00000000  0.95635000  1.0
  Mg  Mg9  1  0.75000000  0.50000000  0.95635000  1.0
  Mg  Mg10  1  0.75000000  0.00000000  0.95635000  1.0
  Mg  Mg11  1  0.25000000  0.50000000  0.95635000  1.0
  Mg  Mg12  1  0.75000000  0.75000000  0.86906000  1.0
  Mg  Mg13  1  0.25000000  0.25000000  0.86906000  1.0
  Mg  Mg14  1  0.25000000  0.75000000  0.86906000  1.0
  Mg  Mg15  1  0.75000000  0.25000000  0.86906000  1.0
  Mg  Mg16  1  0.25279000  0.50000000  0.13498000  1.0
  Mg  Mg17  1  0.79580000  0.00000000  0.14291000  1.0
  Mg  Mg18  1  0.74721000  0.50000000  0.13498000  1.0
  Mg  Mg19  1  0.20420000  0.00000000  0.14291000  1.0
  Mg  Mg20  1  0.74988000  0.25257000  0.04618000  1.0
  Mg  Mg21  1  0.25012000  0.74743000  0.04618000  1.0
  Mg  Mg22  1  0.25012000  0.25257000  0.04618000  1.0
  Mg  Mg23  1  0.74988000  0.74743000  0.04618000  1.0
  Ga  Ga24  1  0.00000000  0.75000000  0.95635000  1.0
  Ga  Ga25  1  0.50000000  0.00000000  0.86906000  1.0
  Ga  Ga26  1  0.00000000  0.25000000  0.95635000  1.0
  Ga  Ga27  1  0.50000000  0.50000000  0.86906000  1.0
  Ga  Ga28  1  0.00000000  0.26145000  0.13166000  1.0
  Ga  Ga29  1  0.50000000  0.50000000  0.04436000  1.0
  Ga  Ga30  1  0.00000000  0.73855000  0.13166000  1.0
  Ga  Ga31  1  0.50000000  0.00000000  0.05025000  1.0
  C  C32  1  0.50000000  0.00000000  0.12484000  1.0
