# generated using pymatgen
data_Li8Mg16Ga8C
_symmetry_space_group_name_H-M   Pmm2
_cell_length_a   6.69031000
_cell_length_b   9.46152000
_cell_length_c   27.09610000
_cell_angle_alpha   90.00000000
_cell_angle_beta   90.00000000
_cell_angle_gamma   90.00000000
_symmetry_Int_Tables_number   25
_chemical_formula_structural   Li8Mg16Ga8C
_chemical_formula_sum   'Li8 Mg16 Ga8 C1'
_cell_volume   1715.19672875
_cell_formula_units_Z   1
loop_
 _symmetry_equiv_pos_site_id
 _symmetry_equiv_pos_as_xyz
  1  'x, y, z'
  2  '-x, -y, z'
  3  '-x, y, z'
  4  'x, -y, z'
loop_
 _atom_site_type_symbol
 _atom_site_label
 _atom_site_symmetry_multiplicity
 _atom_site_fract_x
 _atom_site_fract_y
 _atom_site_fract_z
 _atom_site_occupancy
  Li  Li0  2  0.50000000  0.21970000  0.14106000  1.0
  Li  Li1  2  0.50000000  0.25000000  0.95635000  1.0
  Li  Li2  1  0.00000000  0.00000000  0.04500000  1.0
  Li  Li3  1  0.00000000  0.00000000  0.86906000  1.0
  Li  Li4  1  0.00000000  0.50000000  0.04736000  1.0
  Li  Li5  1  0.00000000  0.50000000  0.86906000  1.0
  Mg  Mg6  4  0.25000000  0.25000000  0.86906000  1.0
  Mg  Mg7  4  0.25012000  0.25257000  0.04618000  1.0
  Mg  Mg8  2  0.20420000  0.00000000  0.14291000  1.0
  Mg  Mg9  2  0.25000000  0.00000000  0.95635000  1.0
  Mg  Mg10  2  0.25000000  0.50000000  0.95635000  1.0
  Mg  Mg11  2  0.25279000  0.50000000  0.13498000  1.0
  Ga  Ga12  2  0.00000000  0.25000000  0.95635000  1.0
  Ga  Ga13  2  0.00000000  0.26145000  0.13166000  1.0
  Ga  Ga14  1  0.50000000  0.00000000  0.05025000  1.0
  Ga  Ga15  1  0.50000000  0.00000000  0.86906000  1.0
  Ga  Ga16  1  0.50000000  0.50000000  0.04436000  1.0
  Ga  Ga17  1  0.50000000  0.50000000  0.86906000  1.0
  C  C18  1  0.50000000  0.00000000  0.12484000  1.0
