# generated using pymatgen
data_Mn8Co16Si8CO
_symmetry_space_group_name_H-M   'P 1'
_cell_length_a   5.64266000
_cell_length_b   7.97993000
_cell_length_c   25.98490000
_cell_angle_alpha   90.00000000
_cell_angle_beta   90.00000000
_cell_angle_gamma   90.00000000
_symmetry_Int_Tables_number   1
_chemical_formula_structural   Mn8Co16Si8CO
_chemical_formula_sum   'Mn8 Co16 Si8 C1 O1'
_cell_volume   1170.04890388
_cell_formula_units_Z   1
loop_
 _symmetry_equiv_pos_site_id
 _symmetry_equiv_pos_as_xyz
  1  'x, y, z'
loop_
 _atom_site_type_symbol
 _atom_site_label
 _atom_site_symmetry_multiplicity
 _atom_site_fract_x
 _atom_site_fract_y
 _atom_site_fract_z
 _atom_site_occupancy
  Mn  Mn0  1  0.00000000  0.75000000  0.88484000  1.0
  Mn  Mn1  1  0.50000000  0.00000000  0.96161000  1.0
  Mn  Mn2  1  0.50000000  0.50000000  0.96161000  1.0
  Mn  Mn3  1  0.00000000  0.25000000  0.88484000  1.0
  Mn  Mn4  1  0.00000000  0.25026000  0.03769000  1.0
  Mn  Mn5  1  0.50000000  0.50000000  0.12032000  1.0
  Mn  Mn6  1  0.50000000  0.00000000  0.11723000  1.0
  Mn  Mn7  1  0.00000000  0.74974000  0.03769000  1.0
  Co  Co8  1  0.25000000  0.75000000  0.96161000  1.0
  Co  Co9  1  0.75000000  0.25000000  0.96161000  1.0
  Co  Co10  1  0.75000000  0.75000000  0.96161000  1.0
  Co  Co11  1  0.25000000  0.25000000  0.96161000  1.0
  Co  Co12  1  0.75000000  0.50000000  0.88484000  1.0
  Co  Co13  1  0.25000000  0.00000000  0.88484000  1.0
  Co  Co14  1  0.25000000  0.50000000  0.88484000  1.0
  Co  Co15  1  0.75000000  0.00000000  0.88484000  1.0
  Co  Co16  1  0.23814000  0.24796000  0.11293000  1.0
  Co  Co17  1  0.76186000  0.75204000  0.11293000  1.0
  Co  Co18  1  0.76186000  0.24796000  0.11293000  1.0
  Co  Co19  1  0.23814000  0.75204000  0.11293000  1.0
  Co  Co20  1  0.74618000  0.00000000  0.03790000  1.0
  Co  Co21  1  0.25348000  0.50000000  0.03836000  1.0
  Co  Co22  1  0.25382000  0.00000000  0.03790000  1.0
  Co  Co23  1  0.74652000  0.50000000  0.03836000  1.0
  Si  Si24  1  0.00000000  0.50000000  0.96161000  1.0
  Si  Si25  1  0.50000000  0.75000000  0.88484000  1.0
  Si  Si26  1  0.00000000  0.00000000  0.96161000  1.0
  Si  Si27  1  0.50000000  0.25000000  0.88484000  1.0
  Si  Si28  1  0.00000000  0.00000000  0.11215000  1.0
  Si  Si29  1  0.50000000  0.24983000  0.03966000  1.0
  Si  Si30  1  0.00000000  0.50000000  0.11282000  1.0
  Si  Si31  1  0.50000000  0.75017000  0.03966000  1.0
  C  C32  1  0.50000000  0.00000000  0.18919000  1.0
  O  O33  1  0.50000000  0.00000000  0.23371000  1.0
