data_image0
_chemical_formula_structural       Li8Mg16Ge8C
_chemical_formula_sum              "Li8 Mg16 Ge8 C1"
_cell_length_a       6.76484
_cell_length_b       9.56693
_cell_length_c       27.1752
_cell_angle_alpha    90
_cell_angle_beta     90
_cell_angle_gamma    90

_space_group_name_H-M_alt    "P 1"
_space_group_IT_number       1

loop_
  _space_group_symop_operation_xyz
  'x, y, z'

loop_
  _atom_site_type_symbol
  _atom_site_label
  _atom_site_symmetry_multiplicity
  _atom_site_fract_x
  _atom_site_fract_y
  _atom_site_fract_z
  _atom_site_occupancy
  Li  Li1       1.0  0.00000  0.00000  0.86798  1.0000
  Li  Li2       1.0  0.50000  0.25000  0.95599  1.0000
  Li  Li3       1.0  0.50000  0.75000  0.95599  1.0000
  Li  Li4       1.0  0.00000  0.50000  0.86798  1.0000
  Li  Li5       1.0  0.99999  0.50000  0.04018  1.0000
  Li  Li6       1.0  0.50000  0.72468  0.15561  1.0000
  Li  Li7       1.0  0.50000  0.27532  0.15561  1.0000
  Li  Li8       1.0  0.00000  0.00000  0.05662  1.0000
  Mg  Mg1       1.0  0.25000  0.00000  0.95599  1.0000
  Mg  Mg2       1.0  0.75000  0.50000  0.95599  1.0000
  Mg  Mg3       1.0  0.75000  0.00000  0.95599  1.0000
  Mg  Mg4       1.0  0.25000  0.50000  0.95599  1.0000
  Mg  Mg5       1.0  0.75000  0.75000  0.86798  1.0000
  Mg  Mg6       1.0  0.25000  0.25000  0.86798  1.0000
  Mg  Mg7       1.0  0.25000  0.75000  0.86798  1.0000
  Mg  Mg8       1.0  0.75000  0.25000  0.86798  1.0000
  Mg  Mg9       1.0  0.23280  0.50000  0.13190  1.0000
  Mg  Mg10      1.0  0.69988  0.00000  0.14867  1.0000
  Mg  Mg11      1.0  0.76720  0.50000  0.13190  1.0000
  Mg  Mg12      1.0  0.30012  0.00000  0.14867  1.0000
  Mg  Mg13      1.0  0.74195  0.24984  0.04774  1.0000
  Mg  Mg14      1.0  0.25805  0.75016  0.04775  1.0000
  Mg  Mg15      1.0  0.25805  0.24984  0.04774  1.0000
  Mg  Mg16      1.0  0.74195  0.75016  0.04775  1.0000
  Ge  Ge1       1.0  0.00000  0.75000  0.95599  1.0000
  Ge  Ge2       1.0  0.50000  0.00000  0.86798  1.0000
  Ge  Ge3       1.0  0.00000  0.25000  0.95599  1.0000
  Ge  Ge4       1.0  0.50000  0.50000  0.86798  1.0000
  Ge  Ge5       1.0  0.00000  0.21423  0.13075  1.0000
  Ge  Ge6       1.0  0.50000  0.50000  0.03950  1.0000
  Ge  Ge7       1.0  0.00000  0.78577  0.13075  1.0000
  Ge  Ge8       1.0  0.50000  0.00000  0.04038  1.0000
  C   C1        1.0  0.00000  0.00000  0.13308  1.0000
