# generated using pymatgen
data_Li4Y4In4Sn4C
_symmetry_space_group_name_H-M   'P 1'
_cell_length_a   8.86856000
_cell_length_b   6.50942000
_cell_length_c   24.87900000
_cell_angle_alpha   90.00000000
_cell_angle_beta   90.00000000
_cell_angle_gamma   90.00000000
_symmetry_Int_Tables_number   1
_chemical_formula_structural   Li4Y4In4Sn4C
_chemical_formula_sum   'Li4 Y4 In4 Sn4 C1'
_cell_volume   1436.24431488
_cell_formula_units_Z   1
loop_
 _symmetry_equiv_pos_site_id
 _symmetry_equiv_pos_as_xyz
  1  'x, y, z'
loop_
 _atom_site_type_symbol
 _atom_site_label
 _atom_site_symmetry_multiplicity
 _atom_site_fract_x
 _atom_site_fract_y
 _atom_site_fract_z
 _atom_site_occupancy
  Li  Li0  1  0.75000000  0.75881000  0.96731000  1.0
  Li  Li1  1  0.84223000  0.24861000  0.10165000  1.0
  Li  Li2  1  0.25000000  0.75881000  0.96731000  1.0
  Li  Li3  1  0.15777000  0.24861000  0.10165000  1.0
  Y  Y4  1  0.75000000  0.25881000  0.96731000  1.0
  Y  Y5  1  0.78640000  0.79766000  0.10032000  1.0
  Y  Y6  1  0.25000000  0.25881000  0.96731000  1.0
  Y  Y7  1  0.21360000  0.79766000  0.10032000  1.0
  In  In8  1  0.00000000  0.00000000  0.90194000  1.0
  In  In9  1  0.00000000  0.52646000  0.02601000  1.0
  In  In10  1  0.50000000  0.00000000  0.90194000  1.0
  In  In11  1  0.50000000  0.55498000  0.03088000  1.0
  Sn  Sn12  1  0.00000000  0.50000000  0.90194000  1.0
  Sn  Sn13  1  0.00000000  0.00191000  0.02227000  1.0
  Sn  Sn14  1  0.50000000  0.50000000  0.90194000  1.0
  Sn  Sn15  1  0.50000000  0.05979000  0.05638000  1.0
  C  C16  1  0.00000000  0.98725000  0.11500000  1.0
