# generated using pymatgen
data_Li4Y4In4Sn4C
_symmetry_space_group_name_H-M   Pm
_cell_length_a   6.50942000
_cell_length_b   8.86856000
_cell_length_c   24.87900000
_cell_angle_alpha   90.00000000
_cell_angle_beta   90.00000000
_cell_angle_gamma   90.00000000
_symmetry_Int_Tables_number   6
_chemical_formula_structural   Li4Y4In4Sn4C
_chemical_formula_sum   'Li4 Y4 In4 Sn4 C1'
_cell_volume   1436.24431488
_cell_formula_units_Z   1
loop_
 _symmetry_equiv_pos_site_id
 _symmetry_equiv_pos_as_xyz
  1  'x, y, z'
  2  'x, -y, z'
loop_
 _atom_site_type_symbol
 _atom_site_label
 _atom_site_symmetry_multiplicity
 _atom_site_fract_x
 _atom_site_fract_y
 _atom_site_fract_z
 _atom_site_occupancy
  Li  Li0  2  0.24861000  0.15777000  0.89835000  1.0
  Li  Li1  2  0.75881000  0.25000000  0.03269000  1.0
  Y  Y2  2  0.25881000  0.25000000  0.03269000  1.0
  Y  Y3  2  0.79766000  0.21360000  0.89968000  1.0
  In  In4  1  0.00000000  0.00000000  0.09806000  1.0
  In  In5  1  0.00000000  0.50000000  0.09806000  1.0
  In  In6  1  0.52646000  0.00000000  0.97399000  1.0
  In  In7  1  0.55498000  0.50000000  0.96912000  1.0
  Sn  Sn8  1  0.00191000  0.00000000  0.97773000  1.0
  Sn  Sn9  1  0.05979000  0.50000000  0.94362000  1.0
  Sn  Sn10  1  0.50000000  0.00000000  0.09806000  1.0
  Sn  Sn11  1  0.50000000  0.50000000  0.09806000  1.0
  C  C12  1  0.98725000  0.00000000  0.88500000  1.0
