data_image0
_chemical_formula_structural       Ti4In4Ni8CO
_chemical_formula_sum              "Ti4 In4 Ni8 C1 O1"
_cell_length_a       6.16408
_cell_length_b       6.16408
_cell_length_c       24.6231
_cell_angle_alpha    90
_cell_angle_beta     90
_cell_angle_gamma    90

_space_group_name_H-M_alt    "P 1"
_space_group_IT_number       1

loop_
  _space_group_symop_operation_xyz
  'x, y, z'

loop_
  _atom_site_type_symbol
  _atom_site_label
  _atom_site_symmetry_multiplicity
  _atom_site_fract_x
  _atom_site_fract_y
  _atom_site_fract_z
  _atom_site_occupancy
  Ti  Ti1       1.0  0.00002  0.99999  0.08899  1.0000
  Ti  Ti2       1.0  0.49993  0.49998  0.08919  1.0000
  Ti  Ti3       1.0  0.50000  0.00000  0.96871  1.0000
  Ti  Ti4       1.0  0.00000  0.50000  0.96871  1.0000
  In  In1       1.0  0.00000  0.00000  0.96871  1.0000
  In  In2       1.0  0.50002  0.99998  0.10147  1.0000
  In  In3       1.0  0.99999  0.49998  0.10433  1.0000
  In  In4       1.0  0.50000  0.50000  0.96871  1.0000
  Ni  Ni1       1.0  0.24604  0.25389  0.03416  1.0000
  Ni  Ni2       1.0  0.75000  0.75000  0.90612  1.0000
  Ni  Ni3       1.0  0.75395  0.25391  0.03417  1.0000
  Ni  Ni4       1.0  0.25000  0.75000  0.90612  1.0000
  Ni  Ni5       1.0  0.75397  0.74606  0.03417  1.0000
  Ni  Ni6       1.0  0.25000  0.25000  0.90612  1.0000
  Ni  Ni7       1.0  0.24603  0.74608  0.03416  1.0000
  Ni  Ni8       1.0  0.75000  0.25000  0.90612  1.0000
  C   C1        1.0  0.99930  0.49995  0.25920  1.0000
  O   O1        1.0  0.00062  0.50020  0.30532  1.0000
