# generated using pymatgen
data_Ti4In4Ni8CO
_symmetry_space_group_name_H-M   P1
_cell_length_a   6.16408000
_cell_length_b   6.16408000
_cell_length_c   24.62310000
_cell_angle_alpha   90.00000000
_cell_angle_beta   90.00000000
_cell_angle_gamma   90.00000000
_symmetry_Int_Tables_number   1
_chemical_formula_structural   Ti4In4Ni8CO
_chemical_formula_sum   'Ti4 In4 Ni8 C1 O1'
_cell_volume   935.57640814
_cell_formula_units_Z   1
loop_
 _symmetry_equiv_pos_site_id
 _symmetry_equiv_pos_as_xyz
  1  'x, y, z'
loop_
 _atom_site_type_symbol
 _atom_site_label
 _atom_site_symmetry_multiplicity
 _atom_site_fract_x
 _atom_site_fract_y
 _atom_site_fract_z
 _atom_site_occupancy
  Ti  Ti0  1  0.00000000  0.50000000  0.96871000  1.0
  Ti  Ti1  1  0.00004000  0.99999000  0.08869000  1.0
  Ti  Ti2  1  0.49992000  0.49996000  0.08898000  1.0
  Ti  Ti3  1  0.50000000  0.00000000  0.96871000  1.0
  In  In4  1  0.00000000  0.00000000  0.96871000  1.0
  In  In5  1  0.00008000  0.49995000  0.10241000  1.0
  In  In6  1  0.50000000  0.50000000  0.96871000  1.0
  In  In7  1  0.50001000  0.99996000  0.10403000  1.0
  Ni  Ni8  1  0.25000000  0.25000000  0.90612000  1.0
  Ni  Ni9  1  0.25000000  0.75000000  0.90612000  1.0
  Ni  Ni10  1  0.25131000  0.24924000  0.03490000  1.0
  Ni  Ni11  1  0.25132000  0.75080000  0.03489000  1.0
  Ni  Ni12  1  0.74870000  0.24934000  0.03493000  1.0
  Ni  Ni13  1  0.74873000  0.75068000  0.03492000  1.0
  Ni  Ni14  1  0.75000000  0.25000000  0.90612000  1.0
  Ni  Ni15  1  0.75000000  0.75000000  0.90612000  1.0
  C  C16  1  0.99851000  0.49995000  0.26563000  1.0
  O  O17  1  0.00181000  0.50036000  0.31171000  1.0
