# generated using pymatgen
data_Li4Mg4In4Ag4C
_symmetry_space_group_name_H-M   P2
_cell_length_a   6.69019000
_cell_length_b   25.01760000
_cell_length_c   6.69019000
_cell_angle_alpha   90.00000000
_cell_angle_beta   90.00000000
_cell_angle_gamma   90.00000000
_symmetry_Int_Tables_number   3
_chemical_formula_structural   Li4Mg4In4Ag4C
_chemical_formula_sum   'Li4 Mg4 In4 Ag4 C1'
_cell_volume   1119.75380801
_cell_formula_units_Z   1
loop_
 _symmetry_equiv_pos_site_id
 _symmetry_equiv_pos_as_xyz
  1  'x, y, z'
  2  '-x, y, -z'
loop_
 _atom_site_type_symbol
 _atom_site_label
 _atom_site_symmetry_multiplicity
 _atom_site_fract_x
 _atom_site_fract_y
 _atom_site_fract_z
 _atom_site_occupancy
  Li  Li0  1  0.00000000  0.03949000  0.00000000  1.0
  Li  Li1  1  0.00000000  0.89972000  0.50000000  1.0
  Li  Li2  1  0.50000000  0.04029000  0.50000000  1.0
  Li  Li3  1  0.50000000  0.89972000  0.00000000  1.0
  Mg  Mg4  2  0.25000000  0.96657000  0.75000000  1.0
  Mg  Mg5  2  0.26684000  0.11420000  0.22984000  1.0
  In  In6  2  0.25000000  0.96657000  0.25000000  1.0
  In  In7  2  0.25259000  0.12004000  0.75056000  1.0
  Ag  Ag8  1  0.00000000  0.04207000  0.50000000  1.0
  Ag  Ag9  1  0.00000000  0.89972000  0.00000000  1.0
  Ag  Ag10  1  0.50000000  0.03035000  0.00000000  1.0
  Ag  Ag11  1  0.50000000  0.89972000  0.50000000  1.0
  C  C12  1  0.50000000  0.12470000  0.00000000  1.0
