# generated using pymatgen
data_Mn8Co16Sn8CO
_symmetry_space_group_name_H-M   'P 1'
_cell_length_a   8.51164000
_cell_length_b   6.01864000
_cell_length_c   26.38370000
_cell_angle_alpha   90.00000000
_cell_angle_beta   90.00000000
_cell_angle_gamma   90.00000000
_symmetry_Int_Tables_number   1
_chemical_formula_structural   Mn8Co16Sn8CO
_chemical_formula_sum   'Mn8 Co16 Sn8 C1 O1'
_cell_volume   1351.59729550
_cell_formula_units_Z   1
loop_
 _symmetry_equiv_pos_site_id
 _symmetry_equiv_pos_as_xyz
  1  'x, y, z'
loop_
 _atom_site_type_symbol
 _atom_site_label
 _atom_site_symmetry_multiplicity
 _atom_site_fract_x
 _atom_site_fract_y
 _atom_site_fract_z
 _atom_site_occupancy
  Mn  Mn0  1  0.00000000  0.00000000  0.12098000  1.0
  Mn  Mn1  1  0.25000000  0.50000000  0.04033000  1.0
  Mn  Mn2  1  0.75000000  0.50000000  0.04033000  1.0
  Mn  Mn3  1  0.50000000  0.00000000  0.12098000  1.0
  Mn  Mn4  1  0.50014000  0.00000000  0.95899000  1.0
  Mn  Mn5  1  0.75000000  0.50000000  0.88142000  1.0
  Mn  Mn6  1  0.24999000  0.50000000  0.88134000  1.0
  Mn  Mn7  1  0.99986000  0.00000000  0.95899000  1.0
  Co  Co8  1  0.00000000  0.74995000  0.04033000  1.0
  Co  Co9  1  0.50000000  0.24995000  0.04033000  1.0
  Co  Co10  1  0.00000000  0.25005000  0.04033000  1.0
  Co  Co11  1  0.50000000  0.75005000  0.04033000  1.0
  Co  Co12  1  0.75000000  0.24995000  0.12098000  1.0
  Co  Co13  1  0.25000000  0.74995000  0.12098000  1.0
  Co  Co14  1  0.75000000  0.75005000  0.12098000  1.0
  Co  Co15  1  0.25000000  0.25005000  0.12098000  1.0
  Co  Co16  1  0.49978000  0.75229000  0.88179000  1.0
  Co  Co17  1  0.00021000  0.24761000  0.88179000  1.0
  Co  Co18  1  0.49978000  0.24771000  0.88179000  1.0
  Co  Co19  1  0.00021000  0.75239000  0.88179000  1.0
  Co  Co20  1  0.24999000  0.24300000  0.95813000  1.0
  Co  Co21  1  0.75000000  0.75651000  0.95806000  1.0
  Co  Co22  1  0.24999000  0.75700000  0.95813000  1.0
  Co  Co23  1  0.75000000  0.24349000  0.95806000  1.0
  Sn  Sn24  1  0.75000000  0.00000000  0.04033000  1.0
  Sn  Sn25  1  0.00000000  0.50000000  0.12098000  1.0
  Sn  Sn26  1  0.25000000  0.00000000  0.04033000  1.0
  Sn  Sn27  1  0.50000000  0.50000000  0.12098000  1.0
  Sn  Sn28  1  0.25000000  0.00000000  0.87105000  1.0
  Sn  Sn29  1  0.49997000  0.50000000  0.96074000  1.0
  Sn  Sn30  1  0.75000000  0.00000000  0.87069000  1.0
  Sn  Sn31  1  0.00002000  0.50000000  0.96074000  1.0
  C  C32  1  0.25006000  0.00000000  0.71886000  1.0
  O  O33  1  0.24997000  0.00000000  0.67584000  1.0
