# generated using pymatgen
data_Mn8Co16Sn8CO
_symmetry_space_group_name_H-M   Pm
_cell_length_a   8.51164000
_cell_length_b   6.01864000
_cell_length_c   26.38370000
_cell_angle_alpha   90.00000000
_cell_angle_beta   90.00000000
_cell_angle_gamma   90.00000000
_symmetry_Int_Tables_number   6
_chemical_formula_structural   Mn8Co16Sn8CO
_chemical_formula_sum   'Mn8 Co16 Sn8 C1 O1'
_cell_volume   1351.59729550
_cell_formula_units_Z   1
loop_
 _symmetry_equiv_pos_site_id
 _symmetry_equiv_pos_as_xyz
  1  'x, y, z'
  2  'x, -y, z'
loop_
 _atom_site_type_symbol
 _atom_site_label
 _atom_site_symmetry_multiplicity
 _atom_site_fract_x
 _atom_site_fract_y
 _atom_site_fract_z
 _atom_site_occupancy
  Mn  Mn0  1  0.00000000  0.00000000  0.87902000  1.0
  Mn  Mn1  1  0.24999000  0.50000000  0.11866000  1.0
  Mn  Mn2  1  0.25000000  0.50000000  0.95967000  1.0
  Mn  Mn3  1  0.50000000  0.00000000  0.87902000  1.0
  Mn  Mn4  1  0.50014000  0.00000000  0.04101000  1.0
  Mn  Mn5  1  0.75000000  0.50000000  0.11858000  1.0
  Mn  Mn6  1  0.75000000  0.50000000  0.95967000  1.0
  Mn  Mn7  1  0.99986000  0.00000000  0.04101000  1.0
  Co  Co8  2  0.00000000  0.25005000  0.95967000  1.0
  Co  Co9  2  0.00021000  0.24761000  0.11821000  1.0
  Co  Co10  2  0.24999000  0.24300000  0.04187000  1.0
  Co  Co11  2  0.25000000  0.25005000  0.87902000  1.0
  Co  Co12  2  0.49978000  0.24771000  0.11821000  1.0
  Co  Co13  2  0.50000000  0.24995000  0.95967000  1.0
  Co  Co14  2  0.75000000  0.24349000  0.04194000  1.0
  Co  Co15  2  0.75000000  0.24995000  0.87902000  1.0
  Sn  Sn16  1  0.00000000  0.50000000  0.87902000  1.0
  Sn  Sn17  1  0.00002000  0.50000000  0.03926000  1.0
  Sn  Sn18  1  0.25000000  0.00000000  0.12895000  1.0
  Sn  Sn19  1  0.25000000  0.00000000  0.95967000  1.0
  Sn  Sn20  1  0.49997000  0.50000000  0.03926000  1.0
  Sn  Sn21  1  0.50000000  0.50000000  0.87902000  1.0
  Sn  Sn22  1  0.75000000  0.00000000  0.12931000  1.0
  Sn  Sn23  1  0.75000000  0.00000000  0.95967000  1.0
  C  C24  1  0.25006000  0.00000000  0.28114000  1.0
  O  O25  1  0.24997000  0.00000000  0.32416000  1.0
