data_image0
_chemical_formula_structural       Hf4Ga4Ni8CO
_chemical_formula_sum              "Hf4 Ga4 Ni8 C1 O1"
_cell_length_a       6.09904
_cell_length_b       6.09904
_cell_length_c       24.5743
_cell_angle_alpha    90
_cell_angle_beta     90
_cell_angle_gamma    90

_space_group_name_H-M_alt    "P 1"
_space_group_IT_number       1

loop_
  _space_group_symop_operation_xyz
  'x, y, z'

loop_
  _atom_site_type_symbol
  _atom_site_label
  _atom_site_symmetry_multiplicity
  _atom_site_fract_x
  _atom_site_fract_y
  _atom_site_fract_z
  _atom_site_occupancy
  Hf  Hf1       1.0  0.00006  0.99996  0.09420  1.0000
  Hf  Hf2       1.0  0.50004  0.49997  0.09591  1.0000
  Hf  Hf3       1.0  0.50000  0.00000  0.96898  1.0000
  Hf  Hf4       1.0  0.00000  0.50000  0.96898  1.0000
  Ga  Ga1       1.0  0.00000  0.00000  0.96898  1.0000
  Ga  Ga2       1.0  0.50004  0.99981  0.09457  1.0000
  Ga  Ga3       1.0  0.99978  0.50014  0.09454  1.0000
  Ga  Ga4       1.0  0.50000  0.50000  0.96898  1.0000
  Ni  Ni1       1.0  0.25872  0.25890  0.03460  1.0000
  Ni  Ni2       1.0  0.75000  0.75000  0.90693  1.0000
  Ni  Ni3       1.0  0.74176  0.25829  0.03440  1.0000
  Ni  Ni4       1.0  0.25000  0.75000  0.90693  1.0000
  Ni  Ni5       1.0  0.74144  0.74171  0.03446  1.0000
  Ni  Ni6       1.0  0.25000  0.25000  0.90693  1.0000
  Ni  Ni7       1.0  0.25834  0.74147  0.03442  1.0000
  Ni  Ni8       1.0  0.75000  0.25000  0.90693  1.0000
  C   C1        1.0  0.00003  0.99999  0.18607  1.0000
  O   O1        1.0  0.00002  0.00003  0.23300  1.0000
