# generated using pymatgen
data_Hf4Ga4Ni8CO
_symmetry_space_group_name_H-M   'P 1'
_cell_length_a   6.09904000
_cell_length_b   6.09904000
_cell_length_c   24.57430000
_cell_angle_alpha   90.00000000
_cell_angle_beta   90.00000000
_cell_angle_gamma   90.00000000
_symmetry_Int_Tables_number   1
_chemical_formula_structural   Hf4Ga4Ni8CO
_chemical_formula_sum   'Hf4 Ga4 Ni8 C1 O1'
_cell_volume   914.12191145
_cell_formula_units_Z   1
loop_
 _symmetry_equiv_pos_site_id
 _symmetry_equiv_pos_as_xyz
  1  'x, y, z'
loop_
 _atom_site_type_symbol
 _atom_site_label
 _atom_site_symmetry_multiplicity
 _atom_site_fract_x
 _atom_site_fract_y
 _atom_site_fract_z
 _atom_site_occupancy
  Hf  Hf0  1  0.00006000  0.99996000  0.09420000  1.0
  Hf  Hf1  1  0.50004000  0.49997000  0.09591000  1.0
  Hf  Hf2  1  0.50000000  0.00000000  0.96898000  1.0
  Hf  Hf3  1  0.00000000  0.50000000  0.96898000  1.0
  Ga  Ga4  1  0.00000000  0.00000000  0.96898000  1.0
  Ga  Ga5  1  0.50004000  0.99981000  0.09457000  1.0
  Ga  Ga6  1  0.99978000  0.50014000  0.09454000  1.0
  Ga  Ga7  1  0.50000000  0.50000000  0.96898000  1.0
  Ni  Ni8  1  0.25872000  0.25890000  0.03460000  1.0
  Ni  Ni9  1  0.75000000  0.75000000  0.90693000  1.0
  Ni  Ni10  1  0.74176000  0.25829000  0.03440000  1.0
  Ni  Ni11  1  0.25000000  0.75000000  0.90693000  1.0
  Ni  Ni12  1  0.74144000  0.74171000  0.03446000  1.0
  Ni  Ni13  1  0.25000000  0.25000000  0.90693000  1.0
  Ni  Ni14  1  0.25834000  0.74147000  0.03442000  1.0
  Ni  Ni15  1  0.75000000  0.25000000  0.90693000  1.0
  C  C16  1  0.00003000  0.99999000  0.18607000  1.0
  O  O17  1  0.00002000  0.00003000  0.23300000  1.0
