# generated using pymatgen
data_Y4In4Cu4Sn4C
_symmetry_space_group_name_H-M   Pm
_cell_length_a   6.35598000
_cell_length_b   8.84740000
_cell_length_c   24.76400000
_cell_angle_alpha   90.00000000
_cell_angle_beta   90.00000000
_cell_angle_gamma   90.00000000
_symmetry_Int_Tables_number   6
_chemical_formula_structural   Y4In4Cu4Sn4C
_chemical_formula_sum   'Y4 In4 Cu4 Sn4 C1'
_cell_volume   1392.57623650
_cell_formula_units_Z   1
loop_
 _symmetry_equiv_pos_site_id
 _symmetry_equiv_pos_as_xyz
  1  'x, y, z'
  2  'x, -y, z'
loop_
 _atom_site_type_symbol
 _atom_site_label
 _atom_site_symmetry_multiplicity
 _atom_site_fract_x
 _atom_site_fract_y
 _atom_site_fract_z
 _atom_site_occupancy
  Y  Y0  1  0.50000000  0.00000000  0.90381000  1.0
  Y  Y1  1  0.50000000  0.50000000  0.90381000  1.0
  Y  Y2  1  0.95140000  0.00000000  0.03074000  1.0
  Y  Y3  1  0.98576000  0.50000000  0.03486000  1.0
  In  In4  2  0.24117000  0.25000000  0.96794000  1.0
  In  In5  2  0.64842000  0.26999000  0.09080000  1.0
  Cu  Cu6  1  -0.00000000  0.50000000  0.90381000  1.0
  Cu  Cu7  1  0.00000000  0.00000000  0.90381000  1.0
  Cu  Cu8  1  0.44342000  0.00000000  0.03710000  1.0
  Cu  Cu9  1  0.48511000  0.50000000  0.01911000  1.0
  Sn  Sn10  2  0.18154000  0.23443000  0.11574000  1.0
  Sn  Sn11  2  0.74117000  0.25000000  0.96794000  1.0
  C  C12  1  0.21886000  0.00000000  0.09522000  1.0
