# generated using pymatgen
data_Hf4Ga4Ni8C
_symmetry_space_group_name_H-M   Cmm2
_cell_length_a   8.60362277
_cell_length_b   8.60362277
_cell_length_c   24.56280000
_cell_angle_alpha   90.00000000
_cell_angle_beta   90.00000000
_cell_angle_gamma   90.00000000
_symmetry_Int_Tables_number   35
_chemical_formula_structural   Hf4Ga4Ni8C
_chemical_formula_sum   'Hf8 Ga8 Ni16 C2'
_cell_volume   1818.19555677
_cell_formula_units_Z   2
loop_
 _symmetry_equiv_pos_site_id
 _symmetry_equiv_pos_as_xyz
  1  'x, y, z'
  2  '-x, -y, z'
  3  '-x, y, z'
  4  'x, -y, z'
  5  'x+1/2, y+1/2, z'
  6  '-x+1/2, -y+1/2, z'
  7  '-x+1/2, y+1/2, z'
  8  'x+1/2, -y+1/2, z'
loop_
 _atom_site_type_symbol
 _atom_site_label
 _atom_site_symmetry_multiplicity
 _atom_site_fract_x
 _atom_site_fract_y
 _atom_site_fract_z
 _atom_site_occupancy
  Hf  Hf0  4  0.00000000  0.25000000  0.09288000  1.0
  Hf  Hf1  4  0.25000000  0.00000000  0.96904000  1.0
  Ga  Ga2  4  0.00000000  0.25000000  0.96904000  1.0
  Ga  Ga3  4  0.25000000  0.00000000  0.09288000  1.0
  Ni  Ni4  4  0.25000000  0.25000000  0.03096000  1.0
  Ni  Ni5  4  0.25000000  0.25000000  0.90712000  1.0
  Ni  Ni6  2  0.00000000  0.00000000  0.03096000  1.0
  Ni  Ni7  2  0.00000000  0.00000000  0.90712000  1.0
  Ni  Ni8  2  0.00000000  0.50000000  0.03096000  1.0
  Ni  Ni9  2  0.00000000  0.50000000  0.90712000  1.0
  C  C10  2  0.00000000  0.50000000  0.12545000  1.0
