data_image0
_chemical_formula_structural       Zr16Rh16C
_chemical_formula_sum              "Zr16 Rh16 C1"
_cell_length_a       6.65024
_cell_length_b       9.40485
_cell_length_c       27.0536
_cell_angle_alpha    90
_cell_angle_beta     90
_cell_angle_gamma    90

_space_group_name_H-M_alt    "P 1"
_space_group_IT_number       1

loop_
  _space_group_symop_operation_xyz
  'x, y, z'

loop_
  _atom_site_type_symbol
  _atom_site_label
  _atom_site_symmetry_multiplicity
  _atom_site_fract_x
  _atom_site_fract_y
  _atom_site_fract_z
  _atom_site_occupancy
  Zr  Zr1       1.0  0.25000  0.25000  0.86964  1.0000
  Zr  Zr2       1.0  0.25000  0.00000  0.95655  1.0000
  Zr  Zr3       1.0  0.25017  0.25000  0.04418  1.0000
  Zr  Zr4       1.0  0.25018  0.00973  0.13142  1.0000
  Zr  Zr5       1.0  0.25000  0.75000  0.86964  1.0000
  Zr  Zr6       1.0  0.25000  0.50000  0.95655  1.0000
  Zr  Zr7       1.0  0.24997  0.75000  0.04391  1.0000
  Zr  Zr8       1.0  0.25018  0.49028  0.13142  1.0000
  Zr  Zr9       1.0  0.75000  0.25000  0.86964  1.0000
  Zr  Zr10      1.0  0.75000  0.00000  0.95655  1.0000
  Zr  Zr11      1.0  0.75009  0.25000  0.03901  1.0000
  Zr  Zr12      1.0  0.75019  0.99760  0.12986  1.0000
  Zr  Zr13      1.0  0.75000  0.75000  0.86964  1.0000
  Zr  Zr14      1.0  0.75000  0.50000  0.95655  1.0000
  Zr  Zr15      1.0  0.74997  0.75000  0.04334  1.0000
  Zr  Zr16      1.0  0.75019  0.50240  0.12986  1.0000
  Rh  Rh1       1.0  0.00000  0.00000  0.86964  1.0000
  Rh  Rh2       1.0  0.00000  0.25000  0.95655  1.0000
  Rh  Rh3       1.0  0.00088  0.00052  0.04438  1.0000
  Rh  Rh4       1.0  0.96028  0.25000  0.12113  1.0000
  Rh  Rh5       1.0  0.00000  0.50000  0.86964  1.0000
  Rh  Rh6       1.0  0.00000  0.75000  0.95655  1.0000
  Rh  Rh7       1.0  0.00088  0.49948  0.04438  1.0000
  Rh  Rh8       1.0  0.00495  0.75000  0.12098  1.0000
  Rh  Rh9       1.0  0.50000  0.00000  0.86964  1.0000
  Rh  Rh10      1.0  0.50000  0.25000  0.95655  1.0000
  Rh  Rh11      1.0  0.49907  0.00049  0.04438  1.0000
  Rh  Rh12      1.0  0.54076  0.25000  0.12119  1.0000
  Rh  Rh13      1.0  0.50000  0.50000  0.86964  1.0000
  Rh  Rh14      1.0  0.50000  0.75000  0.95655  1.0000
  Rh  Rh15      1.0  0.49908  0.49951  0.04438  1.0000
  Rh  Rh16      1.0  0.49516  0.75000  0.12098  1.0000
  C   C1        1.0  0.25065  0.25000  0.13698  1.0000
