# generated using pymatgen
data_Zr16Rh16C
_symmetry_space_group_name_H-M   'P 1'
_cell_length_a   9.40485000
_cell_length_b   6.65024000
_cell_length_c   27.05360000
_cell_angle_alpha   90.00000000
_cell_angle_beta   90.00000000
_cell_angle_gamma   90.00000000
_symmetry_Int_Tables_number   1
_chemical_formula_structural   Zr16Rh16C
_chemical_formula_sum   'Zr16 Rh16 C1'
_cell_volume   1692.05414665
_cell_formula_units_Z   1
loop_
 _symmetry_equiv_pos_site_id
 _symmetry_equiv_pos_as_xyz
  1  'x, y, z'
loop_
 _atom_site_type_symbol
 _atom_site_label
 _atom_site_symmetry_multiplicity
 _atom_site_fract_x
 _atom_site_fract_y
 _atom_site_fract_z
 _atom_site_occupancy
  Zr  Zr0  1  0.00000000  0.25000000  0.13036000  1.0
  Zr  Zr1  1  0.75000000  0.25000000  0.04345000  1.0
  Zr  Zr2  1  0.00000000  0.25017000  0.95582000  1.0
  Zr  Zr3  1  0.75973000  0.25018000  0.86858000  1.0
  Zr  Zr4  1  0.50000000  0.25000000  0.13036000  1.0
  Zr  Zr5  1  0.25000000  0.25000000  0.04345000  1.0
  Zr  Zr6  1  0.50000000  0.24997000  0.95609000  1.0
  Zr  Zr7  1  0.24027000  0.25018000  0.86858000  1.0
  Zr  Zr8  1  0.00000000  0.75000000  0.13036000  1.0
  Zr  Zr9  1  0.75000000  0.75000000  0.04345000  1.0
  Zr  Zr10  1  0.00000000  0.75009000  0.96099000  1.0
  Zr  Zr11  1  0.74760000  0.75019000  0.87014000  1.0
  Zr  Zr12  1  0.50000000  0.75000000  0.13036000  1.0
  Zr  Zr13  1  0.25000000  0.75000000  0.04345000  1.0
  Zr  Zr14  1  0.50000000  0.74997000  0.95666000  1.0
  Zr  Zr15  1  0.25240000  0.75019000  0.87014000  1.0
  Rh  Rh16  1  0.75000000  0.00000000  0.13036000  1.0
  Rh  Rh17  1  0.00000000  1.00000000  0.04345000  1.0
  Rh  Rh18  1  0.75052000  0.00088000  0.95562000  1.0
  Rh  Rh19  1  0.00000000  0.96028000  0.87887000  1.0
  Rh  Rh20  1  0.25000000  0.00000000  0.13036000  1.0
  Rh  Rh21  1  0.50000000  1.00000000  0.04345000  1.0
  Rh  Rh22  1  0.24948000  0.00088000  0.95562000  1.0
  Rh  Rh23  1  0.50000000  0.00495000  0.87902000  1.0
  Rh  Rh24  1  0.75000000  0.50000000  0.13036000  1.0
  Rh  Rh25  1  0.00000000  0.50000000  0.04345000  1.0
  Rh  Rh26  1  0.75049000  0.49907000  0.95562000  1.0
  Rh  Rh27  1  0.00000000  0.54076000  0.87881000  1.0
  Rh  Rh28  1  0.25000000  0.50000000  0.13036000  1.0
  Rh  Rh29  1  0.50000000  0.50000000  0.04345000  1.0
  Rh  Rh30  1  0.24951000  0.49907000  0.95562000  1.0
  Rh  Rh31  1  0.50000000  0.49516000  0.87902000  1.0
  C  C32  1  0.00000000  0.25065000  0.86302000  1.0
