# generated using pymatgen
data_Zr16Rh16C
_symmetry_space_group_name_H-M   Pm
_cell_length_a   6.65024000
_cell_length_b   9.40485000
_cell_length_c   27.05360000
_cell_angle_alpha   90.00000000
_cell_angle_beta   90.00000000
_cell_angle_gamma   90.00000000
_symmetry_Int_Tables_number   6
_chemical_formula_structural   Zr16Rh16C
_chemical_formula_sum   'Zr16 Rh16 C1'
_cell_volume   1692.05414665
_cell_formula_units_Z   1
loop_
 _symmetry_equiv_pos_site_id
 _symmetry_equiv_pos_as_xyz
  1  'x, y, z'
  2  'x, -y, z'
loop_
 _atom_site_type_symbol
 _atom_site_label
 _atom_site_symmetry_multiplicity
 _atom_site_fract_x
 _atom_site_fract_y
 _atom_site_fract_z
 _atom_site_occupancy
  Zr  Zr0  2  0.25000000  0.25000000  0.95655000  1.0
  Zr  Zr1  2  0.25018000  0.24027000  0.13142000  1.0
  Zr  Zr2  2  0.75000000  0.25000000  0.95655000  1.0
  Zr  Zr3  2  0.75019000  0.25240000  0.12986000  1.0
  Zr  Zr4  1  0.24997000  0.50000000  0.04391000  1.0
  Zr  Zr5  1  0.25000000  0.00000000  0.86964000  1.0
  Zr  Zr6  1  0.25000000  0.50000000  0.86964000  1.0
  Zr  Zr7  1  0.25017000  0.00000000  0.04418000  1.0
  Zr  Zr8  1  0.74997000  0.50000000  0.04334000  1.0
  Zr  Zr9  1  0.75000000  0.00000000  0.86964000  1.0
  Zr  Zr10  1  0.75000000  0.50000000  0.86964000  1.0
  Zr  Zr11  1  0.75009000  0.00000000  0.03901000  1.0
  Rh  Rh12  2  0.00000000  0.25000000  0.86964000  1.0
  Rh  Rh13  2  0.00088000  0.24948000  0.04438000  1.0
  Rh  Rh14  2  0.49907000  0.24951000  0.04438000  1.0
  Rh  Rh15  2  0.50000000  0.25000000  0.86964000  1.0
  Rh  Rh16  1  -0.00000000  0.50000000  0.95655000  1.0
  Rh  Rh17  1  -0.00000000  0.00000000  0.95655000  1.0
  Rh  Rh18  1  0.00495000  0.50000000  0.12098000  1.0
  Rh  Rh19  1  0.49516000  0.50000000  0.12098000  1.0
  Rh  Rh20  1  0.50000000  0.00000000  0.95655000  1.0
  Rh  Rh21  1  0.50000000  0.50000000  0.95655000  1.0
  Rh  Rh22  1  0.54076000  0.00000000  0.12119000  1.0
  Rh  Rh23  1  0.96028000  0.00000000  0.12113000  1.0
  C  C24  1  0.25065000  0.00000000  0.13698000  1.0
