# generated using pymatgen
data_Li8Hf8In8Pd8CO
_symmetry_space_group_name_H-M   P1
_cell_length_a   6.51419000
_cell_length_b   9.21246000
_cell_length_c   26.90930000
_cell_angle_alpha   90.00000000
_cell_angle_beta   90.00000000
_cell_angle_gamma   90.00000000
_symmetry_Int_Tables_number   1
_chemical_formula_structural   Li8Hf8In8Pd8CO
_chemical_formula_sum   'Li8 Hf8 In8 Pd8 C1 O1'
_cell_volume   1614.87323727
_cell_formula_units_Z   1
loop_
 _symmetry_equiv_pos_site_id
 _symmetry_equiv_pos_as_xyz
  1  'x, y, z'
loop_
 _atom_site_type_symbol
 _atom_site_label
 _atom_site_symmetry_multiplicity
 _atom_site_fract_x
 _atom_site_fract_y
 _atom_site_fract_z
 _atom_site_occupancy
  Li  Li0  1  0.25000000  0.25000000  0.87162000  1.0
  Li  Li1  1  0.25000000  0.75000000  0.87162000  1.0
  Li  Li2  1  0.25320000  0.75216000  0.04772000  1.0
  Li  Li3  1  0.26601000  0.24892000  0.04767000  1.0
  Li  Li4  1  0.74147000  0.50010000  0.14439000  1.0
  Li  Li5  1  0.75000000  0.00000000  0.95721000  1.0
  Li  Li6  1  0.75000000  0.50000000  0.95721000  1.0
  Li  Li7  1  0.89268000  0.99956000  0.19202000  1.0
  Hf  Hf8  1  0.00000000  0.00000000  0.87162000  1.0
  Hf  Hf9  1  0.00000000  0.50000000  0.87162000  1.0
  Hf  Hf10  1  0.00046000  0.50029000  0.04696000  1.0
  Hf  Hf11  1  0.50000000  0.25000000  0.95721000  1.0
  Hf  Hf12  1  0.50000000  0.75000000  0.95721000  1.0
  Hf  Hf13  1  0.54081000  0.80342000  0.13140000  1.0
  Hf  Hf14  1  0.55279000  0.18412000  0.13428000  1.0
  Hf  Hf15  1  0.97334000  0.00173000  0.04948000  1.0
  In  In16  1  0.00000000  0.25000000  0.95721000  1.0
  In  In17  1  0.00000000  0.75000000  0.95721000  1.0
  In  In18  1  0.01397000  0.74054000  0.13586000  1.0
  In  In19  1  0.02614000  0.26291000  0.13216000  1.0
  In  In20  1  0.49128000  0.99892000  0.04010000  1.0
  In  In21  1  0.50000000  0.00000000  0.87162000  1.0
  In  In22  1  0.50000000  0.50000000  0.87162000  1.0
  In  In23  1  0.51013000  0.50235000  0.04446000  1.0
  Pd  Pd24  1  0.22239000  0.00012000  0.12390000  1.0
  Pd  Pd25  1  0.25000000  0.00000000  0.95721000  1.0
  Pd  Pd26  1  0.25000000  0.50000000  0.95721000  1.0
  Pd  Pd27  1  0.27140000  0.50492000  0.12597000  1.0
  Pd  Pd28  1  0.75000000  0.25000000  0.87162000  1.0
  Pd  Pd29  1  0.75000000  0.75000000  0.87162000  1.0
  Pd  Pd30  1  0.75024000  0.25001000  0.04278000  1.0
  Pd  Pd31  1  0.75496000  0.75071000  0.04201000  1.0
  C  C32  1  0.57474000  0.97618000  0.17626000  1.0
  O  O33  1  0.62694000  0.09930000  0.20146000  1.0
