# generated using pymatgen
data_Li8Al8In8Cu8C
_symmetry_space_group_name_H-M   'P 1'
_cell_length_a   9.01514000
_cell_length_b   6.37467000
_cell_length_c   26.76140000
_cell_angle_alpha   90.00000000
_cell_angle_beta   90.00000000
_cell_angle_gamma   90.00000000
_symmetry_Int_Tables_number   1
_chemical_formula_structural   Li8Al8In8Cu8C
_chemical_formula_sum   'Li8 Al8 In8 Cu8 C1'
_cell_volume   1537.93865336
_cell_formula_units_Z   1
loop_
 _symmetry_equiv_pos_site_id
 _symmetry_equiv_pos_as_xyz
  1  'x, y, z'
loop_
 _atom_site_type_symbol
 _atom_site_label
 _atom_site_symmetry_multiplicity
 _atom_site_fract_x
 _atom_site_fract_y
 _atom_site_fract_z
 _atom_site_occupancy
  Li  Li0  1  0.00000000  0.75000000  0.04211000  1.0
  Li  Li1  1  0.50000000  0.75000000  0.04211000  1.0
  Li  Li2  1  0.25000000  0.25000000  0.12633000  1.0
  Li  Li3  1  0.75000000  0.25000000  0.12633000  1.0
  Li  Li4  1  0.50000000  0.67046000  0.84846000  1.0
  Li  Li5  1  0.00000000  0.79395000  0.83330000  1.0
  Li  Li6  1  0.74725000  0.23335000  0.95391000  1.0
  Li  Li7  1  0.25275000  0.23335000  0.95391000  1.0
  Al  Al8  1  0.00000000  0.00000000  0.12633000  1.0
  Al  Al9  1  0.50000000  1.00000000  0.12633000  1.0
  Al  Al10  1  0.75000000  0.50000000  0.04211000  1.0
  Al  Al11  1  0.25000000  0.50000000  0.04211000  1.0
  Al  Al12  1  0.50000000  0.97407000  0.94970000  1.0
  Al  Al13  1  0.00000000  0.96356000  0.95023000  1.0
  Al  Al14  1  0.21734000  0.50552000  0.86809000  1.0
  Al  Al15  1  0.78266000  0.50552000  0.86809000  1.0
  In  In16  1  0.25000000  0.00000000  0.04211000  1.0
  In  In17  1  0.75000000  0.00000000  0.04211000  1.0
  In  In18  1  0.50000000  0.50000000  0.12633000  1.0
  In  In19  1  0.00000000  0.50000000  0.12633000  1.0
  In  In20  1  0.73134000  0.98271000  0.86420000  1.0
  In  In21  1  0.26866000  0.98271000  0.86420000  1.0
  In  In22  1  0.00000000  0.50295000  0.95481000  1.0
  In  In23  1  0.50000000  0.50763000  0.95773000  1.0
  Cu  Cu24  1  0.00000000  0.25000000  0.04211000  1.0
  Cu  Cu25  1  0.50000000  0.25000000  0.04211000  1.0
  Cu  Cu26  1  0.25000000  0.75000000  0.12633000  1.0
  Cu  Cu27  1  0.75000000  0.75000000  0.12633000  1.0
  Cu  Cu28  1  0.50000000  0.26034000  0.87875000  1.0
  Cu  Cu29  1  0.00000000  0.19238000  0.87705000  1.0
  Cu  Cu30  1  0.74879000  0.75054000  0.96095000  1.0
  Cu  Cu31  1  0.25121000  0.75054000  0.96095000  1.0
  C  C32  1  0.00000000  0.49438000  0.86086000  1.0
