# generated using pymatgen
data_Hf16Os16C
_symmetry_space_group_name_H-M   Pmm2
_cell_length_a   6.49845000
_cell_length_b   9.19019000
_cell_length_c   26.89260000
_cell_angle_alpha   90.00000000
_cell_angle_beta   90.00000000
_cell_angle_gamma   90.00000000
_symmetry_Int_Tables_number   25
_chemical_formula_structural   Hf16Os16C
_chemical_formula_sum   'Hf16 Os16 C1'
_cell_volume   1606.07959380
_cell_formula_units_Z   1
loop_
 _symmetry_equiv_pos_site_id
 _symmetry_equiv_pos_as_xyz
  1  'x, y, z'
  2  '-x, -y, z'
  3  '-x, y, z'
  4  'x, -y, z'
loop_
 _atom_site_type_symbol
 _atom_site_label
 _atom_site_symmetry_multiplicity
 _atom_site_fract_x
 _atom_site_fract_y
 _atom_site_fract_z
 _atom_site_occupancy
  Hf  Hf0  4  0.25000000  0.25000000  0.87185000  1.0
  Hf  Hf1  4  0.25011000  0.24984000  0.04442000  1.0
  Hf  Hf2  2  0.24803000  0.50000000  0.12983000  1.0
  Hf  Hf3  2  0.25000000  0.00000000  0.95728000  1.0
  Hf  Hf4  2  0.25000000  0.50000000  0.95728000  1.0
  Hf  Hf5  2  0.27780000  0.00000000  0.12938000  1.0
  Os  Os6  2  0.00000000  0.23589000  0.12486000  1.0
  Os  Os7  2  0.00000000  0.25000000  0.95728000  1.0
  Os  Os8  2  0.50000000  0.25000000  0.95728000  1.0
  Os  Os9  2  0.50000000  0.25945000  0.12313000  1.0
  Os  Os10  1  0.00000000  0.00000000  0.04112000  1.0
  Os  Os11  1  0.00000000  0.00000000  0.87185000  1.0
  Os  Os12  1  0.00000000  0.50000000  0.04479000  1.0
  Os  Os13  1  0.00000000  0.50000000  0.87185000  1.0
  Os  Os14  1  0.50000000  0.00000000  0.03957000  1.0
  Os  Os15  1  0.50000000  0.00000000  0.87185000  1.0
  Os  Os16  1  0.50000000  0.50000000  0.04261000  1.0
  Os  Os17  1  0.50000000  0.50000000  0.87185000  1.0
  C  C18  1  0.00000000  0.00000000  0.16483000  1.0
