# generated using pymatgen
data_Li8Y8Ag8Pb8CO
_symmetry_space_group_name_H-M   'P 1'
_cell_length_a   7.20907000
_cell_length_b   10.19520000
_cell_length_c   27.64640000
_cell_angle_alpha   90.00000000
_cell_angle_beta   90.00000000
_cell_angle_gamma   90.00000000
_symmetry_Int_Tables_number   1
_chemical_formula_structural   Li8Y8Ag8Pb8CO
_chemical_formula_sum   'Li8 Y8 Ag8 Pb8 C1 O1'
_cell_volume   2031.95263185
_cell_formula_units_Z   1
loop_
 _symmetry_equiv_pos_site_id
 _symmetry_equiv_pos_as_xyz
  1  'x, y, z'
loop_
 _atom_site_type_symbol
 _atom_site_label
 _atom_site_symmetry_multiplicity
 _atom_site_fract_x
 _atom_site_fract_y
 _atom_site_fract_z
 _atom_site_occupancy
  Li  Li0  1  0.25000000  0.00000000  0.95390000  1.0
  Li  Li1  1  0.25000000  0.50000000  0.95390000  1.0
  Li  Li2  1  0.75000000  0.25000000  0.86171000  1.0
  Li  Li3  1  0.75000000  0.75000000  0.86171000  1.0
  Li  Li4  1  0.24654000  0.49401000  0.13460000  1.0
  Li  Li5  1  0.24461000  0.98076000  0.13355000  1.0
  Li  Li6  1  0.75759000  0.74577000  0.04296000  1.0
  Li  Li7  1  0.75495000  0.24291000  0.04699000  1.0
  Y  Y8  1  0.75000000  0.00000000  0.95390000  1.0
  Y  Y9  1  0.75000000  0.50000000  0.95390000  1.0
  Y  Y10  1  0.25000000  0.25000000  0.86171000  1.0
  Y  Y11  1  0.25000000  0.75000000  0.86171000  1.0
  Y  Y12  1  0.76722000  0.46890000  0.13988000  1.0
  Y  Y13  1  0.77169000  0.00186000  0.13755000  1.0
  Y  Y14  1  0.24831000  0.74281000  0.04744000  1.0
  Y  Y15  1  0.24290000  0.24391000  0.04883000  1.0
  Ag  Ag16  1  0.00000000  0.00000000  0.86171000  1.0
  Ag  Ag17  1  0.00000000  0.50000000  0.86171000  1.0
  Ag  Ag18  1  0.50000000  0.75000000  0.95390000  1.0
  Ag  Ag19  1  0.50000000  0.25000000  0.95390000  1.0
  Ag  Ag20  1  0.99916000  0.49576000  0.04586000  1.0
  Ag  Ag21  1  0.99990000  0.99244000  0.04552000  1.0
  Ag  Ag22  1  0.49149000  0.23589000  0.13507000  1.0
  Ag  Ag23  1  0.54273000  0.73780000  0.12752000  1.0
  Pb  Pb24  1  0.00000000  0.25000000  0.95390000  1.0
  Pb  Pb25  1  0.00000000  0.75000000  0.95390000  1.0
  Pb  Pb26  1  0.50000000  0.50000000  0.86171000  1.0
  Pb  Pb27  1  0.50000000  0.00000000  0.86171000  1.0
  Pb  Pb28  1  0.99689000  0.73620000  0.14296000  1.0
  Pb  Pb29  1  0.04720000  0.23579000  0.15376000  1.0
  Pb  Pb30  1  0.50331000  0.99360000  0.04819000  1.0
  Pb  Pb31  1  0.50501000  0.49322000  0.04828000  1.0
  C  C32  1  0.68564000  0.37580000  0.21830000  1.0
  O  O33  1  0.65046000  0.33757000  0.25659000  1.0
