# generated using pymatgen
data_Y4In4Sn4Pd4C
_symmetry_space_group_name_H-M   'P 1'
_cell_length_a   9.06394000
_cell_length_b   6.32964000
_cell_length_c   24.74170000
_cell_angle_alpha   90.00000000
_cell_angle_beta   90.00000000
_cell_angle_gamma   90.00000000
_symmetry_Int_Tables_number   1
_chemical_formula_structural   Y4In4Sn4Pd4C
_chemical_formula_sum   'Y4 In4 Sn4 Pd4 C1'
_cell_volume   1419.46787698
_cell_formula_units_Z   1
loop_
 _symmetry_equiv_pos_site_id
 _symmetry_equiv_pos_as_xyz
  1  'x, y, z'
loop_
 _atom_site_type_symbol
 _atom_site_label
 _atom_site_symmetry_multiplicity
 _atom_site_fract_x
 _atom_site_fract_y
 _atom_site_fract_z
 _atom_site_occupancy
  Y  Y0  1  0.00000000  0.75211000  0.97322000  1.0
  Y  Y1  1  0.00000000  0.21396000  0.09582000  1.0
  Y  Y2  1  0.50000000  0.71937000  0.96650000  1.0
  Y  Y3  1  0.50000000  0.21396000  0.09582000  1.0
  In  In4  1  0.73093000  0.05366000  0.90823000  1.0
  In  In5  1  0.74999000  0.47597000  0.03194000  1.0
  In  In6  1  0.26907000  0.05366000  0.90823000  1.0
  In  In7  1  0.25001000  0.47597000  0.03194000  1.0
  Sn  Sn8  1  0.76976000  0.52071000  0.88925000  1.0
  Sn  Sn9  1  0.74999000  0.97597000  0.03194000  1.0
  Sn  Sn10  1  0.23024000  0.52071000  0.88925000  1.0
  Sn  Sn11  1  0.25001000  0.97597000  0.03194000  1.0
  Pd  Pd12  1  0.00000000  0.24105000  0.96832000  1.0
  Pd  Pd13  1  0.00000000  0.71396000  0.09582000  1.0
  Pd  Pd14  1  0.50000000  0.22057000  0.98212000  1.0
  Pd  Pd15  1  0.50000000  0.71396000  0.09582000  1.0
  C  C16  1  0.00000000  0.49599000  0.90671000  1.0
