# generated using pymatgen
data_Mg8Sc8In8Pd8CO
_symmetry_space_group_name_H-M   'P 1'
_cell_length_a   9.57114000
_cell_length_b   6.76782000
_cell_length_c   27.17840000
_cell_angle_alpha   90.00000000
_cell_angle_beta   90.00000000
_cell_angle_gamma   90.00000000
_symmetry_Int_Tables_number   1
_chemical_formula_structural   Mg8Sc8In8Pd8CO
_chemical_formula_sum   'Mg8 Sc8 In8 Pd8 C1 O1'
_cell_volume   1760.50131758
_cell_formula_units_Z   1
loop_
 _symmetry_equiv_pos_site_id
 _symmetry_equiv_pos_as_xyz
  1  'x, y, z'
loop_
 _atom_site_type_symbol
 _atom_site_label
 _atom_site_symmetry_multiplicity
 _atom_site_fract_x
 _atom_site_fract_y
 _atom_site_fract_z
 _atom_site_occupancy
  Mg  Mg0  1  0.00000000  0.25000000  0.04402000  1.0
  Mg  Mg1  1  0.50000000  0.25000000  0.04402000  1.0
  Mg  Mg2  1  0.25000000  0.75000000  0.13206000  1.0
  Mg  Mg3  1  0.75000000  0.75000000  0.13206000  1.0
  Mg  Mg4  1  0.50000000  0.24822000  0.86528000  1.0
  Mg  Mg5  1  0.00000000  0.24236000  0.86396000  1.0
  Mg  Mg6  1  0.75218000  0.73655000  0.95229000  1.0
  Mg  Mg7  1  0.24782000  0.73655000  0.95229000  1.0
  Sc  Sc8  1  0.00000000  0.75000000  0.04402000  1.0
  Sc  Sc9  1  0.50000000  0.75000000  0.04402000  1.0
  Sc  Sc10  1  0.25000000  0.25000000  0.13206000  1.0
  Sc  Sc11  1  0.75000000  0.25000000  0.13206000  1.0
  Sc  Sc12  1  0.50000000  0.74253000  0.86597000  1.0
  Sc  Sc13  1  0.00000000  0.74465000  0.86622000  1.0
  Sc  Sc14  1  0.74797000  0.25985000  0.95219000  1.0
  Sc  Sc15  1  0.25203000  0.25985000  0.95219000  1.0
  In  In16  1  0.00000000  0.00000000  0.13206000  1.0
  In  In17  1  0.50000000  1.00000000  0.13206000  1.0
  In  In18  1  0.75000000  0.50000000  0.04402000  1.0
  In  In19  1  0.25000000  0.50000000  0.04402000  1.0
  In  In20  1  0.50000000  0.99313000  0.95424000  1.0
  In  In21  1  0.00000000  0.00108000  0.95461000  1.0
  In  In22  1  0.24812000  0.48902000  0.84835000  1.0
  In  In23  1  0.75188000  0.48902000  0.84835000  1.0
  Pd  Pd24  1  0.25000000  1.00000000  0.04402000  1.0
  Pd  Pd25  1  0.75000000  1.00000000  0.04402000  1.0
  Pd  Pd26  1  0.50000000  0.50000000  0.13206000  1.0
  Pd  Pd27  1  0.00000000  0.50000000  0.13206000  1.0
  Pd  Pd28  1  0.74640000  0.00669000  0.87705000  1.0
  Pd  Pd29  1  0.25360000  0.00669000  0.87705000  1.0
  Pd  Pd30  1  0.00000000  0.49698000  0.95708000  1.0
  Pd  Pd31  1  0.50000000  0.51074000  0.95623000  1.0
  C  C32  1  0.00000000  0.74624000  0.78267000  1.0
  O  O33  1  0.00000000  0.74942000  0.74027000  1.0
