# generated using pymatgen
data_Mg8Sc8In8Pd8CO
_symmetry_space_group_name_H-M   Pm
_cell_length_a   6.76782000
_cell_length_b   9.57114000
_cell_length_c   27.17840000
_cell_angle_alpha   90.00000000
_cell_angle_beta   90.00000000
_cell_angle_gamma   90.00000000
_symmetry_Int_Tables_number   6
_chemical_formula_structural   Mg8Sc8In8Pd8CO
_chemical_formula_sum   'Mg8 Sc8 In8 Pd8 C1 O1'
_cell_volume   1760.50131758
_cell_formula_units_Z   1
loop_
 _symmetry_equiv_pos_site_id
 _symmetry_equiv_pos_as_xyz
  1  'x, y, z'
  2  'x, -y, z'
loop_
 _atom_site_type_symbol
 _atom_site_label
 _atom_site_symmetry_multiplicity
 _atom_site_fract_x
 _atom_site_fract_y
 _atom_site_fract_z
 _atom_site_occupancy
  Mg  Mg0  2  0.73655000  0.24782000  0.04771000  1.0
  Mg  Mg1  2  0.75000000  0.25000000  0.86794000  1.0
  Mg  Mg2  1  0.24236000  0.00000000  0.13604000  1.0
  Mg  Mg3  1  0.24822000  0.50000000  0.13472000  1.0
  Mg  Mg4  1  0.25000000  0.00000000  0.95598000  1.0
  Mg  Mg5  1  0.25000000  0.50000000  0.95598000  1.0
  Sc  Sc6  2  0.25000000  0.25000000  0.86794000  1.0
  Sc  Sc7  2  0.25985000  0.25203000  0.04781000  1.0
  Sc  Sc8  1  0.74253000  0.50000000  0.13403000  1.0
  Sc  Sc9  1  0.74465000  0.00000000  0.13378000  1.0
  Sc  Sc10  1  0.75000000  0.00000000  0.95598000  1.0
  Sc  Sc11  1  0.75000000  0.50000000  0.95598000  1.0
  In  In12  2  0.48902000  0.24812000  0.15165000  1.0
  In  In13  2  0.50000000  0.25000000  0.95598000  1.0
  In  In14  1  -0.00000000  0.50000000  0.86794000  1.0
  In  In15  1  0.00000000  0.00000000  0.86794000  1.0
  In  In16  1  0.00108000  0.00000000  0.04539000  1.0
  In  In17  1  0.99313000  0.50000000  0.04576000  1.0
  Pd  Pd18  2  -0.00000000  0.25000000  0.95598000  1.0
  Pd  Pd19  2  0.00669000  0.25360000  0.12295000  1.0
  Pd  Pd20  1  0.49698000  0.00000000  0.04292000  1.0
  Pd  Pd21  1  0.50000000  0.00000000  0.86794000  1.0
  Pd  Pd22  1  0.50000000  0.50000000  0.86794000  1.0
  Pd  Pd23  1  0.51074000  0.50000000  0.04377000  1.0
  C  C24  1  0.74624000  0.00000000  0.21733000  1.0
  O  O25  1  0.74942000  0.00000000  0.25973000  1.0
