# generated using pymatgen
data_Li8Hf8Sn8Pd8C
_symmetry_space_group_name_H-M   P1
_cell_length_a   6.67688000
_cell_length_b   9.44254000
_cell_length_c   27.08190000
_cell_angle_alpha   90.00000000
_cell_angle_beta   90.00000000
_cell_angle_gamma   90.00000000
_symmetry_Int_Tables_number   1
_chemical_formula_structural   Li8Hf8Sn8Pd8C
_chemical_formula_sum   'Li8 Hf8 Sn8 Pd8 C1'
_cell_volume   1707.42460009
_cell_formula_units_Z   1
loop_
 _symmetry_equiv_pos_site_id
 _symmetry_equiv_pos_as_xyz
  1  'x, y, z'
loop_
 _atom_site_type_symbol
 _atom_site_label
 _atom_site_symmetry_multiplicity
 _atom_site_fract_x
 _atom_site_fract_y
 _atom_site_fract_z
 _atom_site_occupancy
  Li  Li0  1  0.00000000  0.25000000  0.95642000  1.0
  Li  Li1  1  0.00000000  0.75000000  0.95642000  1.0
  Li  Li2  1  0.49723000  0.50196000  0.03715000  1.0
  Li  Li3  1  0.49727000  0.99805000  0.03712000  1.0
  Li  Li4  1  0.50000000  0.00000000  0.86925000  1.0
  Li  Li5  1  0.50000000  0.50000000  0.86925000  1.0
  Li  Li6  1  0.91388000  0.24999000  0.16147000  1.0
  Li  Li7  1  0.94978000  0.75001000  0.15418000  1.0
  Hf  Hf8  1  0.00000000  0.00000000  0.86925000  1.0
  Hf  Hf9  1  0.00000000  0.50000000  0.86925000  1.0
  Hf  Hf10  1  0.04528000  0.01915000  0.07654000  1.0
  Hf  Hf11  1  0.04528000  0.48090000  0.07653000  1.0
  Hf  Hf12  1  0.35269000  0.24992000  0.12403000  1.0
  Hf  Hf13  1  0.40602000  0.75004000  0.11574000  1.0
  Hf  Hf14  1  0.50000000  0.25000000  0.95642000  1.0
  Hf  Hf15  1  0.50000000  0.75000000  0.95642000  1.0
  Sn  Sn16  1  0.25000000  0.00000000  0.95642000  1.0
  Sn  Sn17  1  0.25000000  0.50000000  0.95642000  1.0
  Sn  Sn18  1  0.26896000  0.51366000  0.17262000  1.0
  Sn  Sn19  1  0.26896000  0.98641000  0.17258000  1.0
  Sn  Sn20  1  0.72760000  0.25002000  0.05941000  1.0
  Sn  Sn21  1  0.75000000  0.25000000  0.86925000  1.0
  Sn  Sn22  1  0.75000000  0.75000000  0.86925000  1.0
  Sn  Sn23  1  0.77942000  0.75003000  0.05201000  1.0
  Pd  Pd24  1  0.20861000  0.75001000  0.03387000  1.0
  Pd  Pd25  1  0.24357000  0.24999000  0.02492000  1.0
  Pd  Pd26  1  0.25000000  0.25000000  0.86925000  1.0
  Pd  Pd27  1  0.25000000  0.75000000  0.86925000  1.0
  Pd  Pd28  1  0.65598000  0.50544000  0.11845000  1.0
  Pd  Pd29  1  0.65606000  0.99452000  0.11845000  1.0
  Pd  Pd30  1  0.75000000  0.00000000  0.95642000  1.0
  Pd  Pd31  1  0.75000000  0.50000000  0.95642000  1.0
  C  C32  1  0.05496000  0.24998000  0.09066000  1.0
