# generated using pymatgen
data_Li4Ge4Pd4Au4CO
_symmetry_space_group_name_H-M   'P 1'
_cell_length_a   6.30991000
_cell_length_b   6.30991000
_cell_length_c   24.73240000
_cell_angle_alpha   90.00000000
_cell_angle_beta   90.00000000
_cell_angle_gamma   90.00000000
_symmetry_Int_Tables_number   1
_chemical_formula_structural   Li4Ge4Pd4Au4CO
_chemical_formula_sum   'Li4 Ge4 Pd4 Au4 C1 O1'
_cell_volume   984.71962078
_cell_formula_units_Z   1
loop_
 _symmetry_equiv_pos_site_id
 _symmetry_equiv_pos_as_xyz
  1  'x, y, z'
loop_
 _atom_site_type_symbol
 _atom_site_label
 _atom_site_symmetry_multiplicity
 _atom_site_fract_x
 _atom_site_fract_y
 _atom_site_fract_z
 _atom_site_occupancy
  Li  Li0  1  0.25000000  0.75000000  0.03189000  1
  Li  Li1  1  0.24856500  0.24856500  0.89757000  1
  Li  Li2  1  0.75140000  0.75140000  0.89653000  1
  Li  Li3  1  0.75000000  0.25000000  0.03189000  1
  Ge  Ge4  1  0.75000000  0.75000000  0.03189000  1
  Ge  Ge5  1  0.75006000  0.24952000  0.90364000  1
  Ge  Ge6  1  0.24952000  0.75006000  0.90364000  1
  Ge  Ge7  1  0.25000000  0.25000000  0.03189000  1
  Pd  Pd8  1  1.00000000  0.50000000  0.09567000  1
  Pd  Pd9  1  0.00093000  0.00093000  0.95852000  1
  Pd  Pd10  1  0.49837000  0.49837000  0.95791000  1
  Pd  Pd11  1  0.50000000  1.00000000  0.09567000  1
  Au  Au12  1  0.00000000  0.00000000  0.09567000  1
  Au  Au13  1  0.99948000  0.50009000  0.96399000  1
  Au  Au14  1  0.50009000  0.99948000  0.96399000  1
  Au  Au15  1  0.50000000  0.50000000  0.09567000  1
  C  C16  1  0.75194000  0.75194000  0.80989000  1
  O  O17  1  0.75222000  0.75222000  0.76388000  1
