# generated using pymatgen
data_Li4Ge4Pd4Au4CO
_symmetry_space_group_name_H-M   Cm
_cell_length_a   8.92356030
_cell_length_b   8.92356030
_cell_length_c   24.73240000
_cell_angle_alpha   90.00000000
_cell_angle_beta   90.00000000
_cell_angle_gamma   90.00000000
_symmetry_Int_Tables_number   8
_chemical_formula_structural   Li4Ge4Pd4Au4CO
_chemical_formula_sum   'Li8 Ge8 Pd8 Au8 C2 O2'
_cell_volume   1969.43924156
_cell_formula_units_Z   2
loop_
 _symmetry_equiv_pos_site_id
 _symmetry_equiv_pos_as_xyz
  1  'x, y, z'
  2  'x, -y, z'
  3  'x+1/2, y+1/2, z'
  4  'x+1/2, -y+1/2, z'
loop_
 _atom_site_type_symbol
 _atom_site_label
 _atom_site_symmetry_multiplicity
 _atom_site_fract_x
 _atom_site_fract_y
 _atom_site_fract_z
 _atom_site_occupancy
  Li  Li0  4  0.00000000  0.25000000  0.96811000  1.0
  Li  Li1  2  0.24856500  0.00000000  0.10243000  1.0
  Li  Li2  2  0.25140000  0.50000000  0.10347000  1.0
  Ge  Ge3  4  0.49979000  0.25027000  0.09636000  1.0
  Ge  Ge4  2  0.25000000  0.00000000  0.96811000  1.0
  Ge  Ge5  2  0.25000000  0.50000000  0.96811000  1.0
  Pd  Pd6  4  0.25000000  0.25000000  0.90433000  1.0
  Pd  Pd7  2  0.00093000  0.00000000  0.04148000  1.0
  Pd  Pd8  2  0.49837000  0.00000000  0.04209000  1.0
  Au  Au9  4  0.24978500  0.25030500  0.03601000  1.0
  Au  Au10  2  0.00000000  0.00000000  0.90433000  1.0
  Au  Au11  2  0.00000000  0.50000000  0.90433000  1.0
  C  C12  2  0.25194000  0.50000000  0.19011000  1.0
  O  O13  2  0.25222000  0.50000000  0.23612000  1.0
