# generated using pymatgen
data_Ti16Co16C
_symmetry_space_group_name_H-M   Pm
_cell_length_a   5.98862000
_cell_length_b   8.46918000
_cell_length_c   26.35190000
_cell_angle_alpha   90.00000000
_cell_angle_beta   90.00000000
_cell_angle_gamma   90.00000000
_symmetry_Int_Tables_number   6
_chemical_formula_structural   Ti16Co16C
_chemical_formula_sum   'Ti16 Co16 C1'
_cell_volume   1336.53412981
_cell_formula_units_Z   1
loop_
 _symmetry_equiv_pos_site_id
 _symmetry_equiv_pos_as_xyz
  1  'x, y, z'
  2  'x, -y, z'
loop_
 _atom_site_type_symbol
 _atom_site_label
 _atom_site_symmetry_multiplicity
 _atom_site_fract_x
 _atom_site_fract_y
 _atom_site_fract_z
 _atom_site_occupancy
  Ti  Ti0  2  0.00000000  0.25001000  0.87948000  1.0
  Ti  Ti1  2  0.49987000  0.25128000  0.04107000  1.0
  Ti  Ti2  2  0.50000000  0.25001000  0.87948000  1.0
  Ti  Ti3  2  0.99978000  0.25140000  0.04102000  1.0
  Ti  Ti4  1  0.00000000  0.00000000  0.95983000  1.0
  Ti  Ti5  1  0.00000000  0.50000000  0.95983000  1.0
  Ti  Ti6  1  0.00129000  0.50000000  0.12407000  1.0
  Ti  Ti7  1  0.49825000  0.50000000  0.12407000  1.0
  Ti  Ti8  1  0.50000000  0.00000000  0.95983000  1.0
  Ti  Ti9  1  0.50000000  0.50000000  0.95983000  1.0
  Ti  Ti10  1  0.56188000  0.00000000  0.12423000  1.0
  Ti  Ti11  1  0.93690000  0.00000000  0.12397000  1.0
  Co  Co12  2  0.24961000  0.23712000  0.11093000  1.0
  Co  Co13  2  0.25000000  0.25001000  0.95983000  1.0
  Co  Co14  2  0.74977000  0.27576000  0.11179000  1.0
  Co  Co15  2  0.75000000  0.25001000  0.95983000  1.0
  Co  Co16  1  0.24976000  0.00000000  0.04419000  1.0
  Co  Co17  1  0.24991000  0.50000000  0.04354000  1.0
  Co  Co18  1  0.25000000  0.00000000  0.87948000  1.0
  Co  Co19  1  0.25000000  0.50000000  0.87948000  1.0
  Co  Co20  1  0.74964000  0.00000000  0.03585000  1.0
  Co  Co21  1  0.74981000  0.50000000  0.04032000  1.0
  Co  Co22  1  0.75000000  0.00000000  0.87948000  1.0
  Co  Co23  1  0.75000000  0.50000000  0.87948000  1.0
  C  C24  1  0.24967000  0.00000000  0.12116000  1.0
