# generated using pymatgen
data_Zr4In4Au8C
_symmetry_space_group_name_H-M   Cmm2
_cell_length_a   9.71577445
_cell_length_b   9.71577445
_cell_length_c   25.15260000
_cell_angle_alpha   90.00000000
_cell_angle_beta   90.00000000
_cell_angle_gamma   90.00000000
_symmetry_Int_Tables_number   35
_chemical_formula_structural   Zr4In4Au8C
_chemical_formula_sum   'Zr8 In8 Au16 C2'
_cell_volume   2374.31170170
_cell_formula_units_Z   2
loop_
 _symmetry_equiv_pos_site_id
 _symmetry_equiv_pos_as_xyz
  1  'x, y, z'
  2  '-x, -y, z'
  3  '-x, y, z'
  4  'x, -y, z'
  5  'x+1/2, y+1/2, z'
  6  '-x+1/2, -y+1/2, z'
  7  '-x+1/2, y+1/2, z'
  8  'x+1/2, -y+1/2, z'
loop_
 _atom_site_type_symbol
 _atom_site_label
 _atom_site_symmetry_multiplicity
 _atom_site_fract_x
 _atom_site_fract_y
 _atom_site_fract_z
 _atom_site_occupancy
  Zr  Zr0  4  0.00000000  0.25000000  0.10243000  1.0
  Zr  Zr1  4  0.25000000  0.00000000  0.96586000  1.0
  In  In2  4  0.00000000  0.25000000  0.96586000  1.0
  In  In3  4  0.25000000  0.00000000  0.10243000  1.0
  Au  Au4  4  0.25000000  0.25000000  0.03414000  1.0
  Au  Au5  4  0.25000000  0.25000000  0.89757000  1.0
  Au  Au6  2  0.00000000  0.00000000  0.03414000  1.0
  Au  Au7  2  0.00000000  0.00000000  0.89757000  1.0
  Au  Au8  2  0.00000000  0.50000000  0.03414000  1.0
  Au  Au9  2  0.00000000  0.50000000  0.89757000  1.0
  C  C10  2  0.00000000  0.50000000  0.13423000  1.0
