# generated using pymatgen
data_Li4Al12C
_symmetry_space_group_name_H-M   Pm
_cell_length_a   5.66125000
_cell_length_b   8.00621000
_cell_length_c   24.24590000
_cell_angle_alpha   90.00000000
_cell_angle_beta   90.00000000
_cell_angle_gamma   90.00000000
_symmetry_Int_Tables_number   6
_chemical_formula_structural   Li4Al12C
_chemical_formula_sum   'Li4 Al12 C1'
_cell_volume   1098.94920865
_cell_formula_units_Z   1
loop_
 _symmetry_equiv_pos_site_id
 _symmetry_equiv_pos_as_xyz
  1  'x, y, z'
  2  'x, -y, z'
loop_
 _atom_site_type_symbol
 _atom_site_label
 _atom_site_symmetry_multiplicity
 _atom_site_fract_x
 _atom_site_fract_y
 _atom_site_fract_z
 _atom_site_occupancy
  Li  Li0  2  0.50000000  0.25000000  0.02919000  1.0
  Li  Li1  2  0.99976000  0.30924000  0.89820000  1.0
  Al  Al2  2  0.00000000  0.25000000  0.02919000  1.0
  Al  Al3  2  0.50748000  0.30986000  0.90720000  1.0
  Al  Al4  1  0.24716000  0.50000000  0.97729000  1.0
  Al  Al5  1  0.25000000  0.00000000  0.08756000  1.0
  Al  Al6  1  0.25000000  0.50000000  0.08756000  1.0
  Al  Al7  1  0.25353000  0.00000000  0.95966000  1.0
  Al  Al8  1  0.75000000  0.00000000  0.08756000  1.0
  Al  Al9  1  0.75000000  0.50000000  0.08756000  1.0
  Al  Al10  1  0.76133000  0.00000000  0.96519000  1.0
  Al  Al11  1  0.76463000  0.50000000  0.97783000  1.0
  C  C12  1  0.73250000  0.50000000  0.89477000  1.0
