# generated using pymatgen
data_Li4Y4Sn4Pb4C
_symmetry_space_group_name_H-M   Pm
_cell_length_a   6.45119000
_cell_length_b   9.64462000
_cell_length_c   24.83120000
_cell_angle_alpha   90.00000000
_cell_angle_beta   90.00000000
_cell_angle_gamma   90.00000000
_symmetry_Int_Tables_number   6
_chemical_formula_structural   Li4Y4Sn4Pb4C
_chemical_formula_sum   'Li4 Y4 Sn4 Pb4 C1'
_cell_volume   1544.97928864
_cell_formula_units_Z   1
loop_
 _symmetry_equiv_pos_site_id
 _symmetry_equiv_pos_as_xyz
  1  'x, y, z'
  2  'x, -y, z'
loop_
 _atom_site_type_symbol
 _atom_site_label
 _atom_site_symmetry_multiplicity
 _atom_site_fract_x
 _atom_site_fract_y
 _atom_site_fract_z
 _atom_site_occupancy
  Li  Li0  2  0.04335000  0.26106000  0.09367000  1.0
  Li  Li1  2  0.47279000  0.25001000  0.96757000  1.0
  Y  Y2  1  0.20919000  0.00000000  0.90272000  1.0
  Y  Y3  1  0.20919000  0.50000000  0.90272000  1.0
  Y  Y4  1  0.72788000  0.50000000  0.03246000  1.0
  Y  Y5  1  0.76819000  0.00000000  0.03186000  1.0
  Sn  Sn6  1  0.23362000  0.50000000  0.03708000  1.0
  Sn  Sn7  1  0.24841000  0.00000000  0.04522000  1.0
  Sn  Sn8  1  0.70919000  0.00000000  0.90272000  1.0
  Sn  Sn9  1  0.70919000  0.50000000  0.90272000  1.0
  Pb  Pb10  2  0.52648000  0.23592000  0.11837000  1.0
  Pb  Pb11  2  0.97279000  0.25001000  0.96757000  1.0
  C  C12  1  0.53904000  0.00000000  0.09921000  1.0
