# generated using pymatgen
data_Zr8Zn8Cu16CO
_symmetry_space_group_name_H-M   'P 1'
_cell_length_a   6.25397000
_cell_length_b   8.84445000
_cell_length_c   26.63330000
_cell_angle_alpha   90.00000000
_cell_angle_beta   90.00000000
_cell_angle_gamma   90.00000000
_symmetry_Int_Tables_number   1
_chemical_formula_structural   Zr8Zn8Cu16CO
_chemical_formula_sum   'Zr8 Zn8 Cu16 C1 O1'
_cell_volume   1473.16572451
_cell_formula_units_Z   1
loop_
 _symmetry_equiv_pos_site_id
 _symmetry_equiv_pos_as_xyz
  1  'x, y, z'
loop_
 _atom_site_type_symbol
 _atom_site_label
 _atom_site_symmetry_multiplicity
 _atom_site_fract_x
 _atom_site_fract_y
 _atom_site_fract_z
 _atom_site_occupancy
  Zr  Zr0  1  0.00000000  0.75000000  0.87547000  1.0
  Zr  Zr1  1  0.50000000  0.00000000  0.95849000  1.0
  Zr  Zr2  1  0.50000000  0.50000000  0.95849000  1.0
  Zr  Zr3  1  0.00000000  0.25000000  0.87547000  1.0
  Zr  Zr4  1  0.00000000  0.25404000  0.04321000  1.0
  Zr  Zr5  1  0.50000000  0.50000000  0.12577000  1.0
  Zr  Zr6  1  0.50000000  0.00000000  0.12179000  1.0
  Zr  Zr7  1  0.00000000  0.74596000  0.04321000  1.0
  Zn  Zn8  1  0.00000000  0.50000000  0.95849000  1.0
  Zn  Zn9  1  0.50000000  0.75000000  0.87547000  1.0
  Zn  Zn10  1  0.00000000  0.00000000  0.95849000  1.0
  Zn  Zn11  1  0.50000000  0.25000000  0.87547000  1.0
  Zn  Zn12  1  0.00000000  0.00000000  0.12016000  1.0
  Zn  Zn13  1  0.50000000  0.24655000  0.04092000  1.0
  Zn  Zn14  1  0.00000000  0.50000000  0.11977000  1.0
  Zn  Zn15  1  0.50000000  0.75345000  0.04092000  1.0
  Cu  Cu16  1  0.25000000  0.75000000  0.95849000  1.0
  Cu  Cu17  1  0.75000000  0.25000000  0.95849000  1.0
  Cu  Cu18  1  0.75000000  0.75000000  0.95849000  1.0
  Cu  Cu19  1  0.25000000  0.25000000  0.95849000  1.0
  Cu  Cu20  1  0.75000000  0.50000000  0.87547000  1.0
  Cu  Cu21  1  0.25000000  0.00000000  0.87547000  1.0
  Cu  Cu22  1  0.25000000  0.50000000  0.87547000  1.0
  Cu  Cu23  1  0.75000000  0.00000000  0.87547000  1.0
  Cu  Cu24  1  0.24252000  0.24977000  0.12683000  1.0
  Cu  Cu25  1  0.75748000  0.75023000  0.12683000  1.0
  Cu  Cu26  1  0.75748000  0.24977000  0.12683000  1.0
  Cu  Cu27  1  0.24252000  0.75023000  0.12683000  1.0
  Cu  Cu28  1  0.75662000  0.00000000  0.03943000  1.0
  Cu  Cu29  1  0.26702000  0.50000000  0.04231000  1.0
  Cu  Cu30  1  0.24338000  0.00000000  0.03943000  1.0
  Cu  Cu31  1  0.73298000  0.50000000  0.04231000  1.0
  C  C32  1  0.50000000  0.00000000  0.20697000  1.0
  O  O33  1  0.50000000  0.00000000  0.25029000  1.0
