# generated using pymatgen
data_Li8Al8Co8Pd8C
_symmetry_space_group_name_H-M   P1
_cell_length_a   5.87254000
_cell_length_b   8.30502000
_cell_length_c   26.22880000
_cell_angle_alpha   90.00000000
_cell_angle_beta   90.00000000
_cell_angle_gamma   90.00000000
_symmetry_Int_Tables_number   1
_chemical_formula_structural   Li8Al8Co8Pd8C
_chemical_formula_sum   'Li8 Al8 Co8 Pd8 C1'
_cell_volume   1279.21954934
_cell_formula_units_Z   1
loop_
 _symmetry_equiv_pos_site_id
 _symmetry_equiv_pos_as_xyz
  1  'x, y, z'
loop_
 _atom_site_type_symbol
 _atom_site_label
 _atom_site_symmetry_multiplicity
 _atom_site_fract_x
 _atom_site_fract_y
 _atom_site_fract_z
 _atom_site_occupancy
  Li  Li0  1  -0.00000000  0.25000000  0.96042000  1.0
  Li  Li1  1  -0.00000000  0.75000000  0.96042000  1.0
  Li  Li2  1  0.07302000  0.24997000  0.15375000  1.0
  Li  Li3  1  0.49711000  0.50171000  0.03929000  1.0
  Li  Li4  1  0.49719000  0.99829000  0.03925000  1.0
  Li  Li5  1  0.50000000  0.00000000  0.88126000  1.0
  Li  Li6  1  0.50000000  0.50000000  0.88126000  1.0
  Li  Li7  1  0.97994000  0.75004000  0.14090000  1.0
  Al  Al8  1  0.00000000  0.00000000  0.88126000  1.0
  Al  Al9  1  0.00000000  0.50000000  0.88126000  1.0
  Al  Al10  1  0.00086000  0.99706000  0.03909000  1.0
  Al  Al11  1  0.00109000  0.50283000  0.03905000  1.0
  Al  Al12  1  0.45022000  0.25006000  0.10715000  1.0
  Al  Al13  1  0.50000000  0.25000000  0.96042000  1.0
  Al  Al14  1  0.50000000  0.75000000  0.96042000  1.0
  Al  Al15  1  0.50654000  0.74998000  0.11951000  1.0
  Co  Co16  1  0.22911000  0.25033000  0.03477000  1.0
  Co  Co17  1  0.24959000  0.74965000  0.04181000  1.0
  Co  Co18  1  0.25000000  0.25000000  0.88126000  1.0
  Co  Co19  1  0.25000000  0.75000000  0.88126000  1.0
  Co  Co20  1  0.75000000  0.00000000  0.96042000  1.0
  Co  Co21  1  0.75000000  0.50000000  0.96042000  1.0
  Co  Co22  1  0.75021000  0.04413000  0.11986000  1.0
  Co  Co23  1  0.75055000  0.45585000  0.12003000  1.0
  Pd  Pd24  1  0.24578000  0.50980000  0.11755000  1.0
  Pd  Pd25  1  0.24608000  0.99017000  0.11750000  1.0
  Pd  Pd26  1  0.25000000  0.00000000  0.96042000  1.0
  Pd  Pd27  1  0.25000000  0.50000000  0.96042000  1.0
  Pd  Pd28  1  0.75000000  0.25000000  0.88126000  1.0
  Pd  Pd29  1  0.75000000  0.75000000  0.88126000  1.0
  Pd  Pd30  1  0.75364000  0.25024000  0.03663000  1.0
  Pd  Pd31  1  0.75808000  0.74971000  0.04367000  1.0
  C  C32  1  0.75273000  0.24988000  0.13935000  1.0
