# generated using pymatgen
data_Ti8Ni8CO
_symmetry_space_group_name_H-M   'P 1'
_cell_length_a   6.03636000
_cell_length_b   6.03636000
_cell_length_c   24.52730000
_cell_angle_alpha   90.00000000
_cell_angle_beta   90.00000000
_cell_angle_gamma   90.00000000
_symmetry_Int_Tables_number   1
_chemical_formula_structural   Ti8Ni8CO
_chemical_formula_sum   'Ti8 Ni8 C1 O1'
_cell_volume   893.71697784
_cell_formula_units_Z   1
loop_
 _symmetry_equiv_pos_site_id
 _symmetry_equiv_pos_as_xyz
  1  'x, y, z'
loop_
 _atom_site_type_symbol
 _atom_site_label
 _atom_site_symmetry_multiplicity
 _atom_site_fract_x
 _atom_site_fract_y
 _atom_site_fract_z
 _atom_site_occupancy
  Ti  Ti0  1  0.25000000  0.25000000  0.97236000  1.0
  Ti  Ti1  1  0.24996000  0.24997000  0.09109000  1.0
  Ti  Ti2  1  0.25000000  0.75000000  0.97236000  1.0
  Ti  Ti3  1  0.24965000  0.75031000  0.09796000  1.0
  Ti  Ti4  1  0.75000000  0.25000000  0.97236000  1.0
  Ti  Ti5  1  0.75029000  0.24962000  0.09807000  1.0
  Ti  Ti6  1  0.75000000  0.75000000  0.97236000  1.0
  Ti  Ti7  1  0.74970000  0.74973000  0.09392000  1.0
  Ni  Ni8  1  0.00000000  0.00000000  0.91083000  1.0
  Ni  Ni9  1  0.98905000  0.98914000  0.03684000  1.0
  Ni  Ni10  1  0.00000000  0.50000000  0.91083000  1.0
  Ni  Ni11  1  0.98945000  0.51022000  0.03688000  1.0
  Ni  Ni12  1  0.50000000  0.00000000  0.91083000  1.0
  Ni  Ni13  1  0.51028000  0.98962000  0.03686000  1.0
  Ni  Ni14  1  0.50000000  0.50000000  0.91083000  1.0
  Ni  Ni15  1  0.50999000  0.50983000  0.03692000  1.0
  C  C16  1  0.24944000  0.24942000  0.17666000  1.0
  O  O17  1  0.24964000  0.24962000  0.22420000  1.0
