# generated using pymatgen
data_Ti16Pt16C
_symmetry_space_group_name_H-M   'P 1'
_cell_length_a   6.37073000
_cell_length_b   9.00957000
_cell_length_c   26.75720000
_cell_angle_alpha   90.00000000
_cell_angle_beta   90.00000000
_cell_angle_gamma   90.00000000
_symmetry_Int_Tables_number   1
_chemical_formula_structural   Ti16Pt16C
_chemical_formula_sum   'Ti16 Pt16 C1'
_cell_volume   1535.79740073
_cell_formula_units_Z   1
loop_
 _symmetry_equiv_pos_site_id
 _symmetry_equiv_pos_as_xyz
  1  'x, y, z'
loop_
 _atom_site_type_symbol
 _atom_site_label
 _atom_site_symmetry_multiplicity
 _atom_site_fract_x
 _atom_site_fract_y
 _atom_site_fract_z
 _atom_site_occupancy
  Ti  Ti0  1  0.25000000  0.75001000  0.87373000  1.0
  Ti  Ti1  1  0.25000000  0.50000000  0.95791000  1.0
  Ti  Ti2  1  0.24148000  0.74918000  0.04795000  1.0
  Ti  Ti3  1  0.26637000  0.50000000  0.12628000  1.0
  Ti  Ti4  1  0.25000000  0.24999000  0.87373000  1.0
  Ti  Ti5  1  0.25000000  0.00000000  0.95791000  1.0
  Ti  Ti6  1  0.24148000  0.25082000  0.04795000  1.0
  Ti  Ti7  1  0.21936000  0.00000000  0.12244000  1.0
  Ti  Ti8  1  0.75000000  0.75001000  0.87373000  1.0
  Ti  Ti9  1  0.75000000  0.50000000  0.95791000  1.0
  Ti  Ti10  1  0.75852000  0.74918000  0.04795000  1.0
  Ti  Ti11  1  0.73363000  0.50000000  0.12628000  1.0
  Ti  Ti12  1  0.75000000  0.24999000  0.87373000  1.0
  Ti  Ti13  1  0.75000000  0.00000000  0.95791000  1.0
  Ti  Ti14  1  0.75852000  0.25082000  0.04795000  1.0
  Ti  Ti15  1  0.78064000  0.00000000  0.12244000  1.0
  Pt  Pt16  1  0.00000000  0.50000000  0.87373000  1.0
  Pt  Pt17  1  0.00000000  0.75001000  0.95791000  1.0
  Pt  Pt18  1  0.00000000  0.50000000  0.03467000  1.0
  Pt  Pt19  1  0.00000000  0.75033000  0.13488000  1.0
  Pt  Pt20  1  0.00000000  0.00000000  0.87373000  1.0
  Pt  Pt21  1  0.00000000  0.24999000  0.95791000  1.0
  Pt  Pt22  1  0.00000000  0.00000000  0.03226000  1.0
  Pt  Pt23  1  0.00000000  0.24967000  0.13488000  1.0
  Pt  Pt24  1  0.50000000  0.50000000  0.87373000  1.0
  Pt  Pt25  1  0.50000000  0.75001000  0.95791000  1.0
  Pt  Pt26  1  0.50000000  0.50000000  0.03350000  1.0
  Pt  Pt27  1  0.50000000  0.75016000  0.12436000  1.0
  Pt  Pt28  1  0.50000000  0.00000000  0.87373000  1.0
  Pt  Pt29  1  0.50000000  0.24999000  0.95791000  1.0
  Pt  Pt30  1  0.50000000  0.00000000  0.04502000  1.0
  Pt  Pt31  1  0.50000000  0.24984000  0.12436000  1.0
  C  C32  1  0.00000000  0.50000000  0.15943000  1.0
