# generated using pymatgen
data_Ti8Co16Ge8C
_symmetry_space_group_name_H-M   P1
_cell_length_a   5.88044000
_cell_length_b   8.31620000
_cell_length_c   26.23710000
_cell_angle_alpha   90.00000000
_cell_angle_beta   90.00000000
_cell_angle_gamma   90.00000000
_symmetry_Int_Tables_number   1
_chemical_formula_structural   Ti8Co16Ge8C
_chemical_formula_sum   'Ti8 Co16 Ge8 C1'
_cell_volume   1283.07067450
_cell_formula_units_Z   1
loop_
 _symmetry_equiv_pos_site_id
 _symmetry_equiv_pos_as_xyz
  1  'x, y, z'
loop_
 _atom_site_type_symbol
 _atom_site_label
 _atom_site_symmetry_multiplicity
 _atom_site_fract_x
 _atom_site_fract_y
 _atom_site_fract_z
 _atom_site_occupancy
  Ti  Ti0  1  0.00000000  0.00000000  0.88114000  1.0
  Ti  Ti1  1  0.00000000  0.50000000  0.88114000  1.0
  Ti  Ti2  1  0.49894000  0.74999000  0.11911000  1.0
  Ti  Ti3  1  0.50000000  0.25000000  0.96038000  1.0
  Ti  Ti4  1  0.50000000  0.75000000  0.96038000  1.0
  Ti  Ti5  1  0.53547000  0.25002000  0.11611000  1.0
  Ti  Ti6  1  0.99657000  0.50213000  0.03890000  1.0
  Ti  Ti7  1  0.99657000  0.99788000  0.03890000  1.0
  Co  Co8  1  0.22612000  0.48964000  0.11215000  1.0
  Co  Co9  1  0.22614000  0.01037000  0.11215000  1.0
  Co  Co10  1  0.24105000  0.25001000  0.04236000  1.0
  Co  Co11  1  0.25000000  0.00000000  0.96038000  1.0
  Co  Co12  1  0.25000000  0.25000000  0.88114000  1.0
  Co  Co13  1  0.25000000  0.50000000  0.96038000  1.0
  Co  Co14  1  0.25000000  0.75000000  0.88114000  1.0
  Co  Co15  1  0.25818000  0.75000000  0.04005000  1.0
  Co  Co16  1  0.74065000  0.75000000  0.04014000  1.0
  Co  Co17  1  0.75000000  0.00000000  0.96038000  1.0
  Co  Co18  1  0.75000000  0.25000000  0.88114000  1.0
  Co  Co19  1  0.75000000  0.50000000  0.96038000  1.0
  Co  Co20  1  0.75000000  0.75000000  0.88114000  1.0
  Co  Co21  1  0.75224000  0.25000000  0.03779000  1.0
  Co  Co22  1  0.75951000  0.99354000  0.11264000  1.0
  Co  Co23  1  0.75955000  0.50644000  0.11264000  1.0
  Ge  Ge24  1  0.00000000  0.25000000  0.96038000  1.0
  Ge  Ge25  1  0.00000000  0.75000000  0.96038000  1.0
  Ge  Ge26  1  0.00590000  0.75002000  0.12116000  1.0
  Ge  Ge27  1  0.49840000  0.00123000  0.03998000  1.0
  Ge  Ge28  1  0.49841000  0.49878000  0.03997000  1.0
  Ge  Ge29  1  0.50000000  0.00000000  0.88114000  1.0
  Ge  Ge30  1  0.50000000  0.50000000  0.88114000  1.0
  Ge  Ge31  1  0.92015000  0.24991000  0.14865000  1.0
  C  C32  1  0.21551000  0.25001000  0.12360000  1.0
