# generated using pymatgen
data_Sc8Mn8In8Pd8CO
_symmetry_space_group_name_H-M   'P 1'
_cell_length_a   6.62299000
_cell_length_b   9.36632000
_cell_length_c   27.02470000
_cell_angle_alpha   90.00000000
_cell_angle_beta   90.00000000
_cell_angle_gamma   90.00000000
_symmetry_Int_Tables_number   1
_chemical_formula_structural   Sc8Mn8In8Pd8CO
_chemical_formula_sum   'Sc8 Mn8 In8 Pd8 C1 O1'
_cell_volume   1676.42439599
_cell_formula_units_Z   1
loop_
 _symmetry_equiv_pos_site_id
 _symmetry_equiv_pos_as_xyz
  1  'x, y, z'
loop_
 _atom_site_type_symbol
 _atom_site_label
 _atom_site_symmetry_multiplicity
 _atom_site_fract_x
 _atom_site_fract_y
 _atom_site_fract_z
 _atom_site_occupancy
  Sc  Sc0  1  0.00000000  0.25000000  0.95668000  1.0
  Sc  Sc1  1  0.00000000  0.75000000  0.95668000  1.0
  Sc  Sc2  1  0.50000000  0.50000000  0.87003000  1.0
  Sc  Sc3  1  0.50000000  0.00000000  0.87003000  1.0
  Sc  Sc4  1  0.00847000  0.75001000  0.12873000  1.0
  Sc  Sc5  1  0.00779000  0.24997000  0.12925000  1.0
  Sc  Sc6  1  0.50581000  0.00124000  0.04288000  1.0
  Sc  Sc7  1  0.50581000  0.49878000  0.04290000  1.0
  Mn  Mn8  1  0.75000000  0.00000000  0.95668000  1.0
  Mn  Mn9  1  0.75000000  0.50000000  0.95668000  1.0
  Mn  Mn10  1  0.25000000  0.25000000  0.87003000  1.0
  Mn  Mn11  1  0.25000000  0.75000000  0.87003000  1.0
  Mn  Mn12  1  0.73090000  0.50046000  0.13686000  1.0
  Mn  Mn13  1  0.73078000  0.99953000  0.13683000  1.0
  Mn  Mn14  1  0.25246000  0.75001000  0.04725000  1.0
  Mn  Mn15  1  0.24822000  0.25001000  0.04729000  1.0
  In  In16  1  0.00000000  0.00000000  0.87003000  1.0
  In  In17  1  0.00000000  0.50000000  0.87003000  1.0
  In  In18  1  0.50000000  0.75000000  0.95668000  1.0
  In  In19  1  0.50000000  0.25000000  0.95668000  1.0
  In  In20  1  0.99315000  0.50063000  0.04417000  1.0
  In  In21  1  0.99316000  0.99936000  0.04417000  1.0
  In  In22  1  0.50380000  0.25002000  0.13583000  1.0
  In  In23  1  0.50210000  0.74998000  0.13739000  1.0
  Pd  Pd24  1  0.25000000  0.00000000  0.95668000  1.0
  Pd  Pd25  1  0.25000000  0.50000000  0.95668000  1.0
  Pd  Pd26  1  0.75000000  0.25000000  0.87003000  1.0
  Pd  Pd27  1  0.75000000  0.75000000  0.87003000  1.0
  Pd  Pd28  1  0.26498000  0.50000000  0.12239000  1.0
  Pd  Pd29  1  0.26506000  0.99999000  0.12238000  1.0
  Pd  Pd30  1  0.74913000  0.75000000  0.04315000  1.0
  Pd  Pd31  1  0.75245000  0.25001000  0.04259000  1.0
  C  C32  1  0.36944000  0.25000000  0.27412000  1.0
  O  O33  1  0.52033000  0.25001000  0.29410000  1.0
