# generated using pymatgen
data_Y8Pd24C
_symmetry_space_group_name_H-M   Pmm2
_cell_length_a   8.33346000
_cell_length_b   8.33346000
_cell_length_c   26.25010000
_cell_angle_alpha   90.00000000
_cell_angle_beta   90.00000000
_cell_angle_gamma   90.00000000
_symmetry_Int_Tables_number   25
_chemical_formula_structural   Y8Pd24C
_chemical_formula_sum   'Y8 Pd24 C1'
_cell_volume   1822.97902841
_cell_formula_units_Z   1
loop_
 _symmetry_equiv_pos_site_id
 _symmetry_equiv_pos_as_xyz
  1  'x, y, z'
  2  '-x, -y, z'
  3  '-x, y, z'
  4  'x, -y, z'
loop_
 _atom_site_type_symbol
 _atom_site_label
 _atom_site_symmetry_multiplicity
 _atom_site_fract_x
 _atom_site_fract_y
 _atom_site_fract_z
 _atom_site_occupancy
  Y  Y0  2  0.25000000  0.00000000  0.11905000  1.0
  Y  Y1  2  0.25000000  0.00000000  0.96032000  1.0
  Y  Y2  2  0.25000000  0.50000000  0.11905000  1.0
  Y  Y3  2  0.25000000  0.50000000  0.96032000  1.0
  Pd  Pd4  4  0.25000000  0.25000000  0.03968000  1.0
  Pd  Pd5  4  0.25000000  0.25000000  0.88095000  1.0
  Pd  Pd6  2  0.00000000  0.25000000  0.11905000  1.0
  Pd  Pd7  2  0.00000000  0.25000000  0.96032000  1.0
  Pd  Pd8  2  0.50000000  0.25000000  0.11905000  1.0
  Pd  Pd9  2  0.50000000  0.25000000  0.96032000  1.0
  Pd  Pd10  1  0.00000000  0.00000000  0.03968000  1.0
  Pd  Pd11  1  0.00000000  0.00000000  0.88095000  1.0
  Pd  Pd12  1  0.00000000  0.50000000  0.03968000  1.0
  Pd  Pd13  1  0.00000000  0.50000000  0.88095000  1.0
  Pd  Pd14  1  0.50000000  0.00000000  0.03968000  1.0
  Pd  Pd15  1  0.50000000  0.00000000  0.88095000  1.0
  Pd  Pd16  1  0.50000000  0.50000000  0.03968000  1.0
  Pd  Pd17  1  0.50000000  0.50000000  0.88095000  1.0
  C  C18  1  0.00000000  0.00000000  0.14953000  1.0
