data_image0
_chemical_formula_structural       Zn16Ag8Au8CO
_chemical_formula_sum              "Zn16 Ag8 Au8 C1 O1"
_cell_length_a       6.35005
_cell_length_b       8.98033
_cell_length_c       26.7352
_cell_angle_alpha    90
_cell_angle_beta     90
_cell_angle_gamma    90

_space_group_name_H-M_alt    "P 1"
_space_group_IT_number       1

loop_
  _space_group_symop_operation_xyz
  'x, y, z'

loop_
  _atom_site_type_symbol
  _atom_site_label
  _atom_site_symmetry_multiplicity
  _atom_site_fract_x
  _atom_site_fract_y
  _atom_site_fract_z
  _atom_site_occupancy
  Zn  Zn1       1.0  0.25000  0.00000  0.95801  1.0000
  Zn  Zn2       1.0  0.75000  0.50000  0.95801  1.0000
  Zn  Zn3       1.0  0.75000  0.00000  0.95801  1.0000
  Zn  Zn4       1.0  0.25000  0.50000  0.95801  1.0000
  Zn  Zn5       1.0  0.75000  0.75000  0.87404  1.0000
  Zn  Zn6       1.0  0.25000  0.25000  0.87404  1.0000
  Zn  Zn7       1.0  0.25000  0.75000  0.87404  1.0000
  Zn  Zn8       1.0  0.75000  0.25000  0.87404  1.0000
  Zn  Zn9       1.0  0.24577  0.50000  0.13667  1.0000
  Zn  Zn10      1.0  0.76381  0.00000  0.13499  1.0000
  Zn  Zn11      1.0  0.76353  0.50000  0.14086  1.0000
  Zn  Zn12      1.0  0.23754  0.00000  0.13351  1.0000
  Zn  Zn13      1.0  0.74590  0.25039  0.04485  1.0000
  Zn  Zn14      1.0  0.25762  0.74942  0.04689  1.0000
  Zn  Zn15      1.0  0.25761  0.25057  0.04689  1.0000
  Zn  Zn16      1.0  0.74589  0.74960  0.04485  1.0000
  Ag  Ag1       1.0  0.00000  0.00000  0.87404  1.0000
  Ag  Ag2       1.0  0.50000  0.25000  0.95801  1.0000
  Ag  Ag3       1.0  0.50000  0.75000  0.95801  1.0000
  Ag  Ag4       1.0  0.00000  0.50000  0.87404  1.0000
  Ag  Ag5       1.0  0.99916  0.50000  0.04379  1.0000
  Ag  Ag6       1.0  0.50834  0.74481  0.13462  1.0000
  Ag  Ag7       1.0  0.50833  0.25520  0.13462  1.0000
  Ag  Ag8       1.0  0.00231  1.00000  0.04340  1.0000
  Au  Au1       1.0  0.00000  0.75000  0.95801  1.0000
  Au  Au2       1.0  0.50000  0.00000  0.87404  1.0000
  Au  Au3       1.0  0.00000  0.25000  0.95801  1.0000
  Au  Au4       1.0  0.50000  0.50000  0.87404  1.0000
  Au  Au5       1.0  0.99844  0.25321  0.12877  1.0000
  Au  Au6       1.0  0.50106  0.50000  0.04255  1.0000
  Au  Au7       1.0  0.99844  0.74679  0.12877  1.0000
  Au  Au8       1.0  0.50045  0.00000  0.04678  1.0000
  C   C1        1.0  0.26930  0.00000  0.21336  1.0000
  O   O1        1.0  0.26154  0.00001  0.25609  1.0000
