# generated using pymatgen
data_Zn16Ag8Au8CO
_symmetry_space_group_name_H-M   'P 1'
_cell_length_a   8.98033000
_cell_length_b   6.35005000
_cell_length_c   26.73520000
_cell_angle_alpha   90.00000000
_cell_angle_beta   90.00000000
_cell_angle_gamma   90.00000000
_symmetry_Int_Tables_number   1
_chemical_formula_structural   Zn16Ag8Au8CO
_chemical_formula_sum   'Zn16 Ag8 Au8 C1 O1'
_cell_volume   1524.58933776
_cell_formula_units_Z   1
loop_
 _symmetry_equiv_pos_site_id
 _symmetry_equiv_pos_as_xyz
  1  'x, y, z'
loop_
 _atom_site_type_symbol
 _atom_site_label
 _atom_site_symmetry_multiplicity
 _atom_site_fract_x
 _atom_site_fract_y
 _atom_site_fract_z
 _atom_site_occupancy
  Zn  Zn0  1  0.00000000  0.25000000  0.04199000  1.0
  Zn  Zn1  1  0.50000000  0.75000000  0.04199000  1.0
  Zn  Zn2  1  0.00000000  0.75000000  0.04199000  1.0
  Zn  Zn3  1  0.50000000  0.25000000  0.04199000  1.0
  Zn  Zn4  1  0.75000000  0.75000000  0.12596000  1.0
  Zn  Zn5  1  0.25000000  0.25000000  0.12596000  1.0
  Zn  Zn6  1  0.75000000  0.25000000  0.12596000  1.0
  Zn  Zn7  1  0.25000000  0.75000000  0.12596000  1.0
  Zn  Zn8  1  0.50000000  0.24577000  0.86333000  1.0
  Zn  Zn9  1  0.00000000  0.76381000  0.86501000  1.0
  Zn  Zn10  1  0.50000000  0.76353000  0.85914000  1.0
  Zn  Zn11  1  0.00000000  0.23754000  0.86649000  1.0
  Zn  Zn12  1  0.25039000  0.74590000  0.95515000  1.0
  Zn  Zn13  1  0.74942000  0.25762000  0.95311000  1.0
  Zn  Zn14  1  0.25058000  0.25762000  0.95311000  1.0
  Zn  Zn15  1  0.74961000  0.74590000  0.95515000  1.0
  Ag  Ag16  1  0.00000000  0.00000000  0.12596000  1.0
  Ag  Ag17  1  0.25000000  0.50000000  0.04199000  1.0
  Ag  Ag18  1  0.75000000  0.50000000  0.04199000  1.0
  Ag  Ag19  1  0.50000000  1.00000000  0.12596000  1.0
  Ag  Ag20  1  0.50000000  0.99916000  0.95621000  1.0
  Ag  Ag21  1  0.74481000  0.50834000  0.86538000  1.0
  Ag  Ag22  1  0.25519000  0.50834000  0.86538000  1.0
  Ag  Ag23  1  0.00000000  0.00231000  0.95660000  1.0
  Au  Au24  1  0.75000000  1.00000000  0.04199000  1.0
  Au  Au25  1  0.00000000  0.50000000  0.12596000  1.0
  Au  Au26  1  0.25000000  1.00000000  0.04199000  1.0
  Au  Au27  1  0.50000000  0.50000000  0.12596000  1.0
  Au  Au28  1  0.25321000  0.99844000  0.87123000  1.0
  Au  Au29  1  0.50000000  0.50106000  0.95745000  1.0
  Au  Au30  1  0.74679000  0.99844000  0.87123000  1.0
  Au  Au31  1  0.00000000  0.50045000  0.95322000  1.0
  C  C32  1  0.00000000  0.26930000  0.78664000  1.0
  O  O33  1  0.00000000  0.26154000  0.74391000  1.0
