# generated using pymatgen
data_Fe8Co16Si8C
_symmetry_space_group_name_H-M   Pmm2
_cell_length_a   5.64511000
_cell_length_b   7.98338000
_cell_length_c   25.98750000
_cell_angle_alpha   90.00000000
_cell_angle_beta   90.00000000
_cell_angle_gamma   90.00000000
_symmetry_Int_Tables_number   25
_chemical_formula_structural   Fe8Co16Si8C
_chemical_formula_sum   'Fe8 Co16 Si8 C1'
_cell_volume   1171.18017684
_cell_formula_units_Z   1
loop_
 _symmetry_equiv_pos_site_id
 _symmetry_equiv_pos_as_xyz
  1  'x, y, z'
  2  '-x, -y, z'
  3  '-x, y, z'
  4  'x, -y, z'
loop_
 _atom_site_type_symbol
 _atom_site_label
 _atom_site_symmetry_multiplicity
 _atom_site_fract_x
 _atom_site_fract_y
 _atom_site_fract_z
 _atom_site_occupancy
  Fe  Fe0  2  0.50000000  0.24239000  0.12129000  1.0
  Fe  Fe1  2  0.50000000  0.25000000  0.96160000  1.0
  Fe  Fe2  1  0.00000000  0.00000000  0.03564000  1.0
  Fe  Fe3  1  0.00000000  0.00000000  0.88480000  1.0
  Fe  Fe4  1  0.00000000  0.50000000  0.03804000  1.0
  Fe  Fe5  1  0.00000000  0.50000000  0.88480000  1.0
  Co  Co6  4  0.25000000  0.25000000  0.88480000  1.0
  Co  Co7  4  0.25359000  0.24848000  0.03897000  1.0
  Co  Co8  2  0.22348000  0.00000000  0.11188000  1.0
  Co  Co9  2  0.24629000  0.50000000  0.11133000  1.0
  Co  Co10  2  0.25000000  0.00000000  0.96160000  1.0
  Co  Co11  2  0.25000000  0.50000000  0.96160000  1.0
  Si  Si12  2  0.00000000  0.25000000  0.96160000  1.0
  Si  Si13  2  0.00000000  0.25392000  0.11517000  1.0
  Si  Si14  1  0.50000000  0.00000000  0.03901000  1.0
  Si  Si15  1  0.50000000  0.00000000  0.88480000  1.0
  Si  Si16  1  0.50000000  0.50000000  0.03993000  1.0
  Si  Si17  1  0.50000000  0.50000000  0.88480000  1.0
  C  C18  1  0.50000000  0.00000000  0.14476000  1.0
