# generated using pymatgen
data_Li24Pb8C
_symmetry_space_group_name_H-M   Pmm2
_cell_length_a   6.73051000
_cell_length_b   9.51837000
_cell_length_c   27.13880000
_cell_angle_alpha   90.00000000
_cell_angle_beta   90.00000000
_cell_angle_gamma   90.00000000
_symmetry_Int_Tables_number   25
_chemical_formula_structural   Li24Pb8C
_chemical_formula_sum   'Li24 Pb8 C1'
_cell_volume   1738.60609230
_cell_formula_units_Z   1
loop_
 _symmetry_equiv_pos_site_id
 _symmetry_equiv_pos_as_xyz
  1  'x, y, z'
  2  '-x, -y, z'
  3  '-x, y, z'
  4  'x, -y, z'
loop_
 _atom_site_type_symbol
 _atom_site_label
 _atom_site_symmetry_multiplicity
 _atom_site_fract_x
 _atom_site_fract_y
 _atom_site_fract_z
 _atom_site_occupancy
  Li  Li0  4  0.23571000  0.25436000  0.04602000  1.0
  Li  Li1  4  0.25004000  0.25000000  0.86848000  1.0
  Li  Li2  2  0.22297000  0.00000000  0.14988000  1.0
  Li  Li3  2  0.24462000  0.50000000  0.13663000  1.0
  Li  Li4  2  0.24996000  0.00000000  0.95616000  1.0
  Li  Li5  2  0.25004000  0.50000000  0.95616000  1.0
  Li  Li6  2  0.50000000  0.22057000  0.13019000  1.0
  Li  Li7  2  0.50000000  0.25000000  0.95616000  1.0
  Li  Li8  1  0.00000000  0.00000000  0.04993000  1.0
  Li  Li9  1  0.00000000  0.00000000  0.86848000  1.0
  Li  Li10  1  0.00000000  0.50000000  0.04744000  1.0
  Li  Li11  1  0.00000000  0.50000000  0.86848000  1.0
  Pb  Pb12  2  0.00000000  0.25000000  0.95616000  1.0
  Pb  Pb13  2  0.00000000  0.25650000  0.13659000  1.0
  Pb  Pb14  1  0.50000000  0.00000000  0.03825000  1.0
  Pb  Pb15  1  0.50000000  0.00000000  0.86848000  1.0
  Pb  Pb16  1  0.50000000  0.50000000  0.04899000  1.0
  Pb  Pb17  1  0.50000000  0.50000000  0.86848000  1.0
  C  C18  1  0.50000000  0.00000000  0.11888000  1.0
