data_image0
_chemical_formula_structural       Ti12Sn4CO
_chemical_formula_sum              "Ti12 Sn4 C1 O1"
_cell_length_a       8.3521
_cell_length_b       5.90582
_cell_length_c       24.4294
_cell_angle_alpha    90
_cell_angle_beta     90
_cell_angle_gamma    90

_space_group_name_H-M_alt    "P 1"
_space_group_IT_number       1

loop_
  _space_group_symop_operation_xyz
  'x, y, z'

loop_
  _atom_site_type_symbol
  _atom_site_label
  _atom_site_symmetry_multiplicity
  _atom_site_fract_x
  _atom_site_fract_y
  _atom_site_fract_z
  _atom_site_occupancy
  Ti  Ti1       1.0  0.99994  0.49999  0.08542  1.0000
  Ti  Ti2       1.0  0.24992  0.74387  0.02669  1.0000
  Ti  Ti3       1.0  0.24992  0.25612  0.02669  1.0000
  Ti  Ti4       1.0  0.00000  0.00000  0.96978  1.0000
  Ti  Ti5       1.0  0.25000  0.25000  0.90934  1.0000
  Ti  Ti6       1.0  0.25000  0.75000  0.90934  1.0000
  Ti  Ti7       1.0  0.50007  0.49999  0.08541  1.0000
  Ti  Ti8       1.0  0.75007  0.74387  0.02668  1.0000
  Ti  Ti9       1.0  0.75007  0.25612  0.02668  1.0000
  Ti  Ti10      1.0  0.50000  0.00000  0.96978  1.0000
  Ti  Ti11      1.0  0.75000  0.25000  0.90934  1.0000
  Ti  Ti12      1.0  0.75000  0.75000  0.90934  1.0000
  Sn  Sn1       1.0  0.99998  0.99999  0.09345  1.0000
  Sn  Sn2       1.0  0.00000  0.50000  0.96978  1.0000
  Sn  Sn3       1.0  0.49999  0.99999  0.09361  1.0000
  Sn  Sn4       1.0  0.50000  0.50000  0.96978  1.0000
  C   C1        1.0  0.00011  0.99991  0.26791  1.0000
  O   O1        1.0  0.99998  0.99999  0.31437  1.0000
