# generated using pymatgen
data_Zn16Ni16CO
_symmetry_space_group_name_H-M   Pmm2
_cell_length_a   5.79956000
_cell_length_b   8.20182000
_cell_length_c   26.15140000
_cell_angle_alpha   90.00000000
_cell_angle_beta   90.00000000
_cell_angle_gamma   90.00000000
_symmetry_Int_Tables_number   25
_chemical_formula_structural   Zn16Ni16CO
_chemical_formula_sum   'Zn16 Ni16 C1 O1'
_cell_volume   1243.94226299
_cell_formula_units_Z   1
loop_
 _symmetry_equiv_pos_site_id
 _symmetry_equiv_pos_as_xyz
  1  'x, y, z'
  2  '-x, -y, z'
  3  '-x, y, z'
  4  'x, -y, z'
loop_
 _atom_site_type_symbol
 _atom_site_label
 _atom_site_symmetry_multiplicity
 _atom_site_fract_x
 _atom_site_fract_y
 _atom_site_fract_z
 _atom_site_occupancy
  Zn  Zn0  4  0.25000000  0.24999000  0.96080000  1.0
  Zn  Zn1  4  0.25293000  0.25454000  0.12243000  1.0
  Zn  Zn2  2  0.24442000  0.00000000  0.03833000  1.0
  Zn  Zn3  2  0.25000000  0.00000000  0.88239000  1.0
  Zn  Zn4  2  0.25000000  0.50000000  0.88239000  1.0
  Zn  Zn5  2  0.25109000  0.50000000  0.03698000  1.0
  Ni  Ni6  2  0.00000000  0.24963000  0.04125000  1.0
  Ni  Ni7  2  0.00000000  0.24999000  0.88239000  1.0
  Ni  Ni8  2  0.50000000  0.24799000  0.04067000  1.0
  Ni  Ni9  2  0.50000000  0.24999000  0.88239000  1.0
  Ni  Ni10  1  0.00000000  0.00000000  0.12070000  1.0
  Ni  Ni11  1  0.00000000  0.00000000  0.96080000  1.0
  Ni  Ni12  1  0.00000000  0.50000000  0.11194000  1.0
  Ni  Ni13  1  0.00000000  0.50000000  0.96080000  1.0
  Ni  Ni14  1  0.50000000  0.00000000  0.11191000  1.0
  Ni  Ni15  1  0.50000000  0.00000000  0.96080000  1.0
  Ni  Ni16  1  0.50000000  0.50000000  0.11254000  1.0
  Ni  Ni17  1  0.50000000  0.50000000  0.96080000  1.0
  C  C18  1  0.00000000  0.00000000  0.18828000  1.0
  O  O19  1  0.00000000  0.00000000  0.23251000  1.0
