data_image0
_chemical_formula_structural       V4Ni8Sn4C
_chemical_formula_sum              "V4 Ni8 Sn4 C1"
_cell_length_a       6.08368
_cell_length_b       6.08368
_cell_length_c       24.5628
_cell_angle_alpha    90
_cell_angle_beta     90
_cell_angle_gamma    90

_space_group_name_H-M_alt    "P 1"
_space_group_IT_number       1

loop_
  _space_group_symop_operation_xyz
  'x, y, z'

loop_
  _atom_site_type_symbol
  _atom_site_label
  _atom_site_symmetry_multiplicity
  _atom_site_fract_x
  _atom_site_fract_y
  _atom_site_fract_z
  _atom_site_occupancy
  V   V1        1.0  0.00000  0.00000  0.90712  1.0000
  V   V2        1.0  0.50000  0.50000  0.90712  1.0000
  V   V3        1.0  0.49999  0.00000  0.03645  1.0000
  V   V4        1.0  1.00000  0.49999  0.03646  1.0000
  Ni  Ni1       1.0  0.25000  0.25000  0.96904  1.0000
  Ni  Ni2       1.0  0.78890  0.78878  0.09440  1.0000
  Ni  Ni3       1.0  0.75000  0.25000  0.96904  1.0000
  Ni  Ni4       1.0  0.21117  0.78870  0.09448  1.0000
  Ni  Ni5       1.0  0.75000  0.75000  0.96904  1.0000
  Ni  Ni6       1.0  0.21105  0.21117  0.09438  1.0000
  Ni  Ni7       1.0  0.25000  0.75000  0.96904  1.0000
  Ni  Ni8       1.0  0.78885  0.21130  0.09446  1.0000
  Sn  Sn1       1.0  0.00001  0.00001  0.02032  1.0000
  Sn  Sn2       1.0  0.50000  0.00000  0.90712  1.0000
  Sn  Sn3       1.0  0.00000  0.50000  0.90712  1.0000
  Sn  Sn4       1.0  0.49999  0.49999  0.04658  1.0000
  C   C1        1.0  0.99998  0.99999  0.12115  1.0000
