# generated using pymatgen
data_V4Ni8Sn4C
_symmetry_space_group_name_H-M   P2
_cell_length_a   6.08368000
_cell_length_b   24.56280000
_cell_length_c   6.08368000
_cell_angle_alpha   90.00000000
_cell_angle_beta   90.00000000
_cell_angle_gamma   90.00000000
_symmetry_Int_Tables_number   3
_chemical_formula_structural   V4Ni8Sn4C
_chemical_formula_sum   'V4 Ni8 Sn4 C1'
_cell_volume   909.09777838
_cell_formula_units_Z   1
loop_
 _symmetry_equiv_pos_site_id
 _symmetry_equiv_pos_as_xyz
  1  'x, y, z'
  2  '-x, y, -z'
loop_
 _atom_site_type_symbol
 _atom_site_label
 _atom_site_symmetry_multiplicity
 _atom_site_fract_x
 _atom_site_fract_y
 _atom_site_fract_z
 _atom_site_occupancy
  V  V0  1  0.00000000  0.03646000  0.50000000  1.0
  V  V1  1  0.00000000  0.90712000  0.00000000  1.0
  V  V2  1  0.50000000  0.03645000  0.00000000  1.0
  V  V3  1  0.50000000  0.90712000  0.50000000  1.0
  Ni  Ni4  2  0.24999000  0.96904000  0.24998000  1.0
  Ni  Ni5  2  0.24999000  0.96904000  0.74998000  1.0
  Ni  Ni6  2  0.28871000  0.09448000  0.71119000  1.0
  Ni  Ni7  2  0.28879000  0.09440000  0.28892000  1.0
  Sn  Sn8  1  0.00000000  0.04658000  0.00000000  1.0
  Sn  Sn9  1  0.00000000  0.90712000  0.50000000  1.0
  Sn  Sn10  1  0.50000000  0.02032000  0.50000000  1.0
  Sn  Sn11  1  0.50000000  0.90712000  0.00000000  1.0
  C  C12  1  0.50000000  0.12115000  0.50000000  1.0
