data_image0
_chemical_formula_structural       Sc8Ga8Cu8Pd8C
_chemical_formula_sum              "Sc8 Ga8 Cu8 Pd8 C1"
_cell_length_a       6.33027
_cell_length_b       8.95236
_cell_length_c       26.7143
_cell_angle_alpha    90
_cell_angle_beta     90
_cell_angle_gamma    90

_space_group_name_H-M_alt    "P 1"
_space_group_IT_number       1

loop_
  _space_group_symop_operation_xyz
  'x, y, z'

loop_
  _atom_site_type_symbol
  _atom_site_label
  _atom_site_symmetry_multiplicity
  _atom_site_fract_x
  _atom_site_fract_y
  _atom_site_fract_z
  _atom_site_occupancy
  Sc  Sc1       1.0  0.75000  0.00000  0.95811  1.0000
  Sc  Sc2       1.0  0.75000  0.50000  0.95811  1.0000
  Sc  Sc3       1.0  0.25000  0.25000  0.87433  1.0000
  Sc  Sc4       1.0  0.25000  0.75000  0.87433  1.0000
  Sc  Sc5       1.0  0.71667  0.52602  0.12668  1.0000
  Sc  Sc6       1.0  0.71668  0.97398  0.12667  1.0000
  Sc  Sc7       1.0  0.25909  0.75000  0.04786  1.0000
  Sc  Sc8       1.0  0.23928  0.24999  0.04455  1.0000
  Ga  Ga1       1.0  0.25000  0.00000  0.95811  1.0000
  Ga  Ga2       1.0  0.25000  0.50000  0.95811  1.0000
  Ga  Ga3       1.0  0.75000  0.25000  0.87433  1.0000
  Ga  Ga4       1.0  0.75000  0.75000  0.87433  1.0000
  Ga  Ga5       1.0  0.23338  0.48699  0.12679  1.0000
  Ga  Ga6       1.0  0.23336  0.01301  0.12681  1.0000
  Ga  Ga7       1.0  0.75193  0.74999  0.04125  1.0000
  Ga  Ga8       1.0  0.74555  0.25000  0.03977  1.0000
  Cu  Cu1       1.0  0.00000  0.00000  0.87433  1.0000
  Cu  Cu2       1.0  0.00000  0.50000  0.87433  1.0000
  Cu  Cu3       1.0  0.50000  0.75000  0.95811  1.0000
  Cu  Cu4       1.0  0.50000  0.25000  0.95811  1.0000
  Cu  Cu5       1.0  0.99107  0.50464  0.04310  1.0000
  Cu  Cu6       1.0  0.99110  0.99535  0.04310  1.0000
  Cu  Cu7       1.0  0.53107  0.24999  0.12529  1.0000
  Cu  Cu8       1.0  0.41397  0.75000  0.14768  1.0000
  Pd  Pd1       1.0  0.00000  0.25000  0.95811  1.0000
  Pd  Pd2       1.0  0.00000  0.75000  0.95811  1.0000
  Pd  Pd3       1.0  0.50000  0.50000  0.87433  1.0000
  Pd  Pd4       1.0  0.50000  0.00000  0.87433  1.0000
  Pd  Pd5       1.0  0.00143  0.74999  0.12600  1.0000
  Pd  Pd6       1.0  0.92610  0.25000  0.12644  1.0000
  Pd  Pd7       1.0  0.50017  0.00113  0.04033  1.0000
  Pd  Pd8       1.0  0.50016  0.49886  0.04033  1.0000
  C   C1        1.0  0.23981  0.24999  0.13204  1.0000
