# generated using pymatgen
data_Sc8Ga8Cu8Pd8C
_symmetry_space_group_name_H-M   'P 1'
_cell_length_a   8.95236000
_cell_length_b   6.33027000
_cell_length_c   26.71430000
_cell_angle_alpha   90.00000000
_cell_angle_beta   90.00000000
_cell_angle_gamma   90.00000000
_symmetry_Int_Tables_number   1
_chemical_formula_structural   Sc8Ga8Cu8Pd8C
_chemical_formula_sum   'Sc8 Ga8 Cu8 Pd8 C1'
_cell_volume   1513.92224676
_cell_formula_units_Z   1
loop_
 _symmetry_equiv_pos_site_id
 _symmetry_equiv_pos_as_xyz
  1  'x, y, z'
loop_
 _atom_site_type_symbol
 _atom_site_label
 _atom_site_symmetry_multiplicity
 _atom_site_fract_x
 _atom_site_fract_y
 _atom_site_fract_z
 _atom_site_occupancy
  Sc  Sc0  1  0.75001000  0.75000000  0.04189000  1.0
  Sc  Sc1  1  0.24999000  0.75000000  0.04189000  1.0
  Sc  Sc2  1  0.00000000  0.25000000  0.12567000  1.0
  Sc  Sc3  1  0.50000000  0.25000000  0.12567000  1.0
  Sc  Sc4  1  0.27603000  0.71667000  0.87332000  1.0
  Sc  Sc5  1  0.72397000  0.71667000  0.87332000  1.0
  Sc  Sc6  1  0.50000000  0.25909000  0.95214000  1.0
  Sc  Sc7  1  0.00000000  0.23928000  0.95545000  1.0
  Ga  Ga8  1  0.75001000  0.25000000  0.04189000  1.0
  Ga  Ga9  1  0.24999000  0.25000000  0.04189000  1.0
  Ga  Ga10  1  0.00000000  0.75000000  0.12567000  1.0
  Ga  Ga11  1  0.50000000  0.75000000  0.12567000  1.0
  Ga  Ga12  1  0.23700000  0.23338000  0.87321000  1.0
  Ga  Ga13  1  0.76300000  0.23338000  0.87321000  1.0
  Ga  Ga14  1  0.50000000  0.75193000  0.95875000  1.0
  Ga  Ga15  1  0.00000000  0.74555000  0.96023000  1.0
  Cu  Cu16  1  0.75001000  0.00000000  0.12567000  1.0
  Cu  Cu17  1  0.24999000  0.00000000  0.12567000  1.0
  Cu  Cu18  1  0.50000000  0.50000000  0.04189000  1.0
  Cu  Cu19  1  0.00000000  0.50000000  0.04189000  1.0
  Cu  Cu20  1  0.25465000  0.99107000  0.95690000  1.0
  Cu  Cu21  1  0.74535000  0.99107000  0.95690000  1.0
  Cu  Cu22  1  0.00000000  0.53107000  0.87471000  1.0
  Cu  Cu23  1  0.50000000  0.41397000  0.85232000  1.0
  Pd  Pd24  1  0.00000000  0.00000000  0.04189000  1.0
  Pd  Pd25  1  0.50000000  0.00000000  0.04189000  1.0
  Pd  Pd26  1  0.25001000  0.50000000  0.12567000  1.0
  Pd  Pd27  1  0.74999000  0.50000000  0.12567000  1.0
  Pd  Pd28  1  0.50000000  0.00143000  0.87400000  1.0
  Pd  Pd29  1  0.00000000  0.92610000  0.87356000  1.0
  Pd  Pd30  1  0.75114000  0.50017000  0.95967000  1.0
  Pd  Pd31  1  0.24886000  0.50017000  0.95967000  1.0
  C  C32  1  0.00000000  0.23981000  0.86796000  1.0
