# generated using pymatgen
data_Sc8Ga8Cu8Pd8C
_symmetry_space_group_name_H-M   Pm
_cell_length_a   6.33027000
_cell_length_b   8.95236000
_cell_length_c   26.71430000
_cell_angle_alpha   90.00000000
_cell_angle_beta   90.00000000
_cell_angle_gamma   90.00000000
_symmetry_Int_Tables_number   6
_chemical_formula_structural   Sc8Ga8Cu8Pd8C
_chemical_formula_sum   'Sc8 Ga8 Cu8 Pd8 C1'
_cell_volume   1513.92224676
_cell_formula_units_Z   1
loop_
 _symmetry_equiv_pos_site_id
 _symmetry_equiv_pos_as_xyz
  1  'x, y, z'
  2  'x, -y, z'
loop_
 _atom_site_type_symbol
 _atom_site_label
 _atom_site_symmetry_multiplicity
 _atom_site_fract_x
 _atom_site_fract_y
 _atom_site_fract_z
 _atom_site_occupancy
  Sc  Sc0  2  0.71667000  0.27603000  0.12668000  1.0
  Sc  Sc1  2  0.75000000  0.24999000  0.95811000  1.0
  Sc  Sc2  1  0.23928000  0.00000000  0.04455000  1.0
  Sc  Sc3  1  0.25000000  0.00000000  0.87433000  1.0
  Sc  Sc4  1  0.25000000  0.50000000  0.87433000  1.0
  Sc  Sc5  1  0.25909000  0.50000000  0.04786000  1.0
  Ga  Ga6  2  0.23338000  0.23700000  0.12679000  1.0
  Ga  Ga7  2  0.25000000  0.24999000  0.95811000  1.0
  Ga  Ga8  1  0.74555000  0.00000000  0.03977000  1.0
  Ga  Ga9  1  0.75000000  0.00000000  0.87433000  1.0
  Ga  Ga10  1  0.75000000  0.50000000  0.87433000  1.0
  Ga  Ga11  1  0.75193000  0.50000000  0.04125000  1.0
  Cu  Cu12  2  0.00000000  0.24999000  0.87433000  1.0
  Cu  Cu13  2  0.99107000  0.25465000  0.04310000  1.0
  Cu  Cu14  1  0.41397000  0.50000000  0.14768000  1.0
  Cu  Cu15  1  0.50000000  0.00000000  0.95811000  1.0
  Cu  Cu16  1  0.50000000  0.50000000  0.95811000  1.0
  Cu  Cu17  1  0.53107000  0.00000000  0.12529000  1.0
  Pd  Pd18  2  0.50000000  0.25001000  0.87433000  1.0
  Pd  Pd19  2  0.50017000  0.24886000  0.04033000  1.0
  Pd  Pd20  1  0.00000000  0.00000000  0.95811000  1.0
  Pd  Pd21  1  0.00000000  0.50000000  0.95811000  1.0
  Pd  Pd22  1  0.00143000  0.50000000  0.12600000  1.0
  Pd  Pd23  1  0.92610000  0.00000000  0.12644000  1.0
  C  C24  1  0.23981000  0.00000000  0.13204000  1.0
