# generated using pymatgen
data_TiCo2Si
_symmetry_space_group_name_H-M   'P 1'
_cell_length_a   4.07440500
_cell_length_b   5.76208000
_cell_length_c   26.11160000
_cell_angle_alpha   90.00000000
_cell_angle_beta   90.00000000
_cell_angle_gamma   90.00000000
_symmetry_Int_Tables_number   1
_chemical_formula_structural   TiCo2Si
_chemical_formula_sum   'Ti4 Co8 Si4'
_cell_volume   613.02327513
_cell_formula_units_Z   4
loop_
 _symmetry_equiv_pos_site_id
 _symmetry_equiv_pos_as_xyz
  1  'x, y, z'
loop_
 _atom_site_type_symbol
 _atom_site_label
 _atom_site_symmetry_multiplicity
 _atom_site_fract_x
 _atom_site_fract_y
 _atom_site_fract_z
 _atom_site_occupancy
  Ti  Ti0  1  0.00000000  0.00000000  0.11703000  1.0
  Ti  Ti1  1  0.50000000  0.50000000  0.03901000  1.0
  Ti  Ti2  1  0.00000000  0.00000000  0.96173000  1.0
  Ti  Ti3  1  0.50000000  0.50000000  0.87921000  1.0
  Co  Co4  1  0.00000000  0.75000000  0.03901000  1.0
  Co  Co5  1  0.00000000  0.25000000  0.03901000  1.0
  Co  Co6  1  0.50000000  0.25000000  0.11703000  1.0
  Co  Co7  1  0.50000000  0.75000000  0.11703000  1.0
  Co  Co8  1  0.00000000  0.76405000  0.88855000  1.0
  Co  Co9  1  0.00000000  0.23595000  0.88855000  1.0
  Co  Co10  1  0.50000000  0.25899500  0.96047000  1.0
  Co  Co11  1  0.50000000  0.74100500  0.96047000  1.0
  Si  Si12  1  0.50000000  0.00000000  0.03901000  1.0
  Si  Si13  1  0.00000000  0.50000000  0.11703000  1.0
  Si  Si14  1  0.50000000  0.00000000  0.88365000  1.0
  Si  Si15  1  0.00000000  0.50000000  0.95898000  1.0
