# generated using pymatgen
data_Ti4Ir12CO
_symmetry_space_group_name_H-M   'P 1'
_cell_length_a   5.50195000
_cell_length_b   7.78093000
_cell_length_c   24.12650000
_cell_angle_alpha   90.00000000
_cell_angle_beta   90.00000000
_cell_angle_gamma   90.00000000
_symmetry_Int_Tables_number   1
_chemical_formula_structural   Ti4Ir12CO
_chemical_formula_sum   'Ti4 Ir12 C1 O1'
_cell_volume   1032.86240893
_cell_formula_units_Z   1
loop_
 _symmetry_equiv_pos_site_id
 _symmetry_equiv_pos_as_xyz
  1  'x, y, z'
loop_
 _atom_site_type_symbol
 _atom_site_label
 _atom_site_symmetry_multiplicity
 _atom_site_fract_x
 _atom_site_fract_y
 _atom_site_fract_z
 _atom_site_occupancy
  Ti  Ti0  1  0.00000000  0.00000000  0.92238000  1.0
  Ti  Ti1  1  0.50000000  0.00000000  0.02851000  1.0
  Ti  Ti2  1  0.00000000  0.50000000  0.92513000  1.0
  Ti  Ti3  1  0.50000000  0.50000000  0.02851000  1.0
  Ir  Ir4  1  0.50000000  0.00000000  0.91975000  1.0
  Ir  Ir5  1  0.74867000  0.24864000  0.97117000  1.0
  Ir  Ir6  1  0.25133000  0.24864000  0.97117000  1.0
  Ir  Ir7  1  0.00000000  0.00000000  0.02851000  1.0
  Ir  Ir8  1  0.25000000  0.25000000  0.08552000  1.0
  Ir  Ir9  1  0.75000000  0.25000000  0.08552000  1.0
  Ir  Ir10  1  0.50000000  0.50000000  0.92132000  1.0
  Ir  Ir11  1  0.74867000  0.75136000  0.97117000  1.0
  Ir  Ir12  1  0.25133000  0.75136000  0.97117000  1.0
  Ir  Ir13  1  0.00000000  0.50000000  0.02851000  1.0
  Ir  Ir14  1  0.25000000  0.75000000  0.08552000  1.0
  Ir  Ir15  1  0.75000000  0.75000000  0.08552000  1.0
  C  C16  1  0.00000000  0.00000000  0.83036000  1.0
  O  O17  1  0.00000000  0.00000000  0.78288000  1.0
