# generated using pymatgen
data_Ti8Ni16Sb8CO
_symmetry_space_group_name_H-M   'P 1'
_cell_length_a   6.14888000
_cell_length_b   8.69583000
_cell_length_c   26.52190000
_cell_angle_alpha   90.00000000
_cell_angle_beta   90.00000000
_cell_angle_gamma   90.00000000
_symmetry_Int_Tables_number   1
_chemical_formula_structural   Ti8Ni16Sb8CO
_chemical_formula_sum   'Ti8 Ni16 Sb8 C1 O1'
_cell_volume   1418.11578659
_cell_formula_units_Z   1
loop_
 _symmetry_equiv_pos_site_id
 _symmetry_equiv_pos_as_xyz
  1  'x, y, z'
loop_
 _atom_site_type_symbol
 _atom_site_label
 _atom_site_symmetry_multiplicity
 _atom_site_fract_x
 _atom_site_fract_y
 _atom_site_fract_z
 _atom_site_occupancy
  Ti  Ti0  1  0.00000000  0.75000000  0.87705000  1.0
  Ti  Ti1  1  0.50000000  0.00000000  0.95902000  1.0
  Ti  Ti2  1  0.50000000  0.50000000  0.95902000  1.0
  Ti  Ti3  1  0.00000000  0.25000000  0.87705000  1.0
  Ti  Ti4  1  0.00000000  0.25149000  0.04294000  1.0
  Ti  Ti5  1  0.50000000  0.50000000  0.12095000  1.0
  Ti  Ti6  1  0.50000000  0.00000000  0.12175000  1.0
  Ti  Ti7  1  0.00000000  0.74851000  0.04294000  1.0
  Ni  Ni8  1  0.25000000  0.75000000  0.95902000  1.0
  Ni  Ni9  1  0.75000000  0.25000000  0.95902000  1.0
  Ni  Ni10  1  0.75000000  0.75000000  0.95902000  1.0
  Ni  Ni11  1  0.25000000  0.25000000  0.95902000  1.0
  Ni  Ni12  1  0.75000000  0.50000000  0.87705000  1.0
  Ni  Ni13  1  0.25000000  0.00000000  0.87705000  1.0
  Ni  Ni14  1  0.25000000  0.50000000  0.87705000  1.0
  Ni  Ni15  1  0.75000000  0.00000000  0.87705000  1.0
  Ni  Ni16  1  0.26898000  0.25110000  0.11698000  1.0
  Ni  Ni17  1  0.73102000  0.74890000  0.11698000  1.0
  Ni  Ni18  1  0.73102000  0.25110000  0.11698000  1.0
  Ni  Ni19  1  0.26898000  0.74890000  0.11698000  1.0
  Ni  Ni20  1  0.77383000  0.00000000  0.04360000  1.0
  Ni  Ni21  1  0.23840000  0.50000000  0.04520000  1.0
  Ni  Ni22  1  0.22617000  0.00000000  0.04360000  1.0
  Ni  Ni23  1  0.76160000  0.50000000  0.04520000  1.0
  Sb  Sb24  1  0.00000000  0.50000000  0.95902000  1.0
  Sb  Sb25  1  0.50000000  0.75000000  0.87705000  1.0
  Sb  Sb26  1  0.00000000  0.00000000  0.95902000  1.0
  Sb  Sb27  1  0.50000000  0.25000000  0.87705000  1.0
  Sb  Sb28  1  0.00000000  0.00000000  0.13272000  1.0
  Sb  Sb29  1  0.50000000  0.24682000  0.03815000  1.0
  Sb  Sb30  1  0.00000000  0.50000000  0.13361000  1.0
  Sb  Sb31  1  0.50000000  0.75318000  0.03815000  1.0
  C  C32  1  0.50000000  0.00000000  0.20118000  1.0
  O  O33  1  0.50000000  0.00000000  0.24463000  1.0
