# generated using pymatgen
data_Li16Ga8Pt8C
_symmetry_space_group_name_H-M   'P 1'
_cell_length_a   8.63876000
_cell_length_b   6.10853000
_cell_length_c   26.47910000
_cell_angle_alpha   90.00000000
_cell_angle_beta   90.00000000
_cell_angle_gamma   90.00000000
_symmetry_Int_Tables_number   1
_chemical_formula_structural   Li16Ga8Pt8C
_chemical_formula_sum   'Li16 Ga8 Pt8 C1'
_cell_volume   1397.30540690
_cell_formula_units_Z   1
loop_
 _symmetry_equiv_pos_site_id
 _symmetry_equiv_pos_as_xyz
  1  'x, y, z'
loop_
 _atom_site_type_symbol
 _atom_site_label
 _atom_site_symmetry_multiplicity
 _atom_site_fract_x
 _atom_site_fract_y
 _atom_site_fract_z
 _atom_site_occupancy
  Li  Li0  1  0.50000000  0.00000000  0.04078000  1.0
  Li  Li1  1  0.75000000  0.50000000  0.12234000  1.0
  Li  Li2  1  0.00000000  0.00000000  0.04078000  1.0
  Li  Li3  1  0.25000000  0.50000000  0.12234000  1.0
  Li  Li4  1  0.00000000  0.25000000  0.12234000  1.0
  Li  Li5  1  0.50000000  0.25000000  0.12234000  1.0
  Li  Li6  1  0.25000000  0.75000000  0.04078000  1.0
  Li  Li7  1  0.75000000  0.75000000  0.04078000  1.0
  Li  Li8  1  0.00000000  0.99410000  0.83829000  1.0
  Li  Li9  1  0.23906000  0.50437000  0.95795000  1.0
  Li  Li10  1  0.50000000  0.97339000  0.87972000  1.0
  Li  Li11  1  0.76094000  0.50437000  0.95795000  1.0
  Li  Li12  1  0.50000000  0.25430000  0.96159000  1.0
  Li  Li13  1  0.00000000  0.23728000  0.95759000  1.0
  Li  Li14  1  0.75816000  0.71688000  0.87155000  1.0
  Li  Li15  1  0.24184000  0.71688000  0.87155000  1.0
  Ga  Ga16  1  0.75000000  0.25000000  0.04078000  1.0
  Ga  Ga17  1  0.25000000  0.25000000  0.04078000  1.0
  Ga  Ga18  1  0.50000000  0.75000000  0.12234000  1.0
  Ga  Ga19  1  0.00000000  0.75000000  0.12234000  1.0
  Ga  Ga20  1  0.25884000  0.22993000  0.87646000  1.0
  Ga  Ga21  1  0.74116000  0.22993000  0.87646000  1.0
  Ga  Ga22  1  0.00000000  0.78710000  0.95660000  1.0
  Ga  Ga23  1  0.50000000  0.73755000  0.95885000  1.0
  Pt  Pt24  1  0.75000000  0.00000000  0.12234000  1.0
  Pt  Pt25  1  0.00000000  0.50000000  0.04078000  1.0
  Pt  Pt26  1  0.50000000  0.50000000  0.04078000  1.0
  Pt  Pt27  1  0.25000000  0.00000000  0.12234000  1.0
  Pt  Pt28  1  0.26283000  0.99873000  0.96113000  1.0
  Pt  Pt29  1  0.50000000  0.47377000  0.88479000  1.0
  Pt  Pt30  1  0.00000000  0.40798000  0.87160000  1.0
  Pt  Pt31  1  0.73717000  0.99873000  0.96113000  1.0
  C  C32  1  0.00000000  0.71838000  0.88222000  1.0
