data_image0
_chemical_formula_structural       Y4Ga4Cu4Pd4C
_chemical_formula_sum              "Y4 Ga4 Cu4 Pd4 C1"
_cell_length_a       6.59466
_cell_length_b       6.59466
_cell_length_c       24.946
_cell_angle_alpha    90
_cell_angle_beta     90
_cell_angle_gamma    90

_space_group_name_H-M_alt    "P 1"
_space_group_IT_number       1

loop_
  _space_group_symop_operation_xyz
  'x, y, z'

loop_
  _atom_site_type_symbol
  _atom_site_label
  _atom_site_symmetry_multiplicity
  _atom_site_fract_x
  _atom_site_fract_y
  _atom_site_fract_z
  _atom_site_occupancy
  Y   Y1        1.0  0.74996  0.24998  0.03834  1.0000
  Y   Y2        1.0  0.75000  0.75000  0.90087  1.0000
  Y   Y3        1.0  0.25000  0.25000  0.90087  1.0000
  Y   Y4        1.0  0.25005  0.74998  0.03847  1.0000
  Ga  Ga1       1.0  0.24975  0.24999  0.02180  1.0000
  Ga  Ga2       1.0  0.25000  0.75000  0.90087  1.0000
  Ga  Ga3       1.0  0.75000  0.25000  0.90087  1.0000
  Ga  Ga4       1.0  0.75002  0.75004  0.07973  1.0000
  Cu  Cu1       1.0  0.03738  0.03814  0.10876  1.0000
  Cu  Cu2       1.0  0.00000  0.50000  0.96696  1.0000
  Cu  Cu3       1.0  0.50000  0.00000  0.96696  1.0000
  Cu  Cu4       1.0  0.46276  0.46190  0.10880  1.0000
  Pd  Pd1       1.0  0.02446  0.47528  0.09993  1.0000
  Pd  Pd2       1.0  0.00000  0.00000  0.96696  1.0000
  Pd  Pd3       1.0  0.50000  0.50000  0.96696  1.0000
  Pd  Pd4       1.0  0.47536  0.02484  0.09992  1.0000
  C   C1        1.0  0.24995  0.25017  0.10691  1.0000
