# generated using pymatgen
data_Y4Ga4Cu4Pd4C
_symmetry_space_group_name_H-M   'P 1'
_cell_length_a   6.59466000
_cell_length_b   6.59466000
_cell_length_c   24.94600000
_cell_angle_alpha   90.00000000
_cell_angle_beta   90.00000000
_cell_angle_gamma   90.00000000
_symmetry_Int_Tables_number   1
_chemical_formula_structural   Y4Ga4Cu4Pd4C
_chemical_formula_sum   'Y4 Ga4 Cu4 Pd4 C1'
_cell_volume   1084.89007770
_cell_formula_units_Z   1
loop_
 _symmetry_equiv_pos_site_id
 _symmetry_equiv_pos_as_xyz
  1  'x, y, z'
loop_
 _atom_site_type_symbol
 _atom_site_label
 _atom_site_symmetry_multiplicity
 _atom_site_fract_x
 _atom_site_fract_y
 _atom_site_fract_z
 _atom_site_occupancy
  Y  Y0  1  0.25004000  0.75002000  0.03834000  1.0
  Y  Y1  1  0.25000000  0.25000000  0.90087000  1.0
  Y  Y2  1  0.75000000  0.75000000  0.90087000  1.0
  Y  Y3  1  0.74995000  0.25002000  0.03847000  1.0
  Ga  Ga4  1  0.75025000  0.75001000  0.02180000  1.0
  Ga  Ga5  1  0.75000000  0.25000000  0.90087000  1.0
  Ga  Ga6  1  0.25000000  0.75000000  0.90087000  1.0
  Ga  Ga7  1  0.24998000  0.24996000  0.07973000  1.0
  Cu  Cu8  1  0.96262000  0.96186000  0.10876000  1.0
  Cu  Cu9  1  1.00000000  0.50000000  0.96696000  1.0
  Cu  Cu10  1  0.50000000  0.00000000  0.96696000  1.0
  Cu  Cu11  1  0.53724000  0.53810000  0.10880000  1.0
  Pd  Pd12  1  0.97554000  0.52472000  0.09993000  1.0
  Pd  Pd13  1  0.00000000  0.00000000  0.96696000  1.0
  Pd  Pd14  1  0.50000000  0.50000000  0.96696000  1.0
  Pd  Pd15  1  0.52464000  0.97516000  0.09992000  1.0
  C  C16  1  0.75005000  0.74983000  0.10691000  1.0
