# generated using pymatgen
data_LiYGePd
_symmetry_space_group_name_H-M   'P 1'
_cell_length_a   6.55453000
_cell_length_b   4.63475000
_cell_length_c   26.95210000
_cell_angle_alpha   90.00000000
_cell_angle_beta   90.00000000
_cell_angle_gamma   90.00000000
_symmetry_Int_Tables_number   1
_chemical_formula_structural   LiYGePd
_chemical_formula_sum   'Li4 Y4 Ge4 Pd4'
_cell_volume   818.76727845
_cell_formula_units_Z   4
loop_
 _symmetry_equiv_pos_site_id
 _symmetry_equiv_pos_as_xyz
  1  'x, y, z'
loop_
 _atom_site_type_symbol
 _atom_site_label
 _atom_site_symmetry_multiplicity
 _atom_site_fract_x
 _atom_site_fract_y
 _atom_site_fract_z
 _atom_site_occupancy
  Li  Li0  1  0.25000000  0.00000000  0.95701000  1.0
  Li  Li1  1  0.75000000  0.50000000  0.87103000  1.0
  Li  Li2  1  0.46988500  0.00000000  0.17737000  1.0
  Li  Li3  1  0.77096000  0.50000000  0.04802000  1.0
  Y  Y4  1  1.00000000  0.50000000  0.95701000  1.0
  Y  Y5  1  0.50000000  0.00000000  0.87103000  1.0
  Y  Y6  1  0.06274500  0.50000000  0.13101000  1.0
  Y  Y7  1  0.49762000  0.00000000  0.04881000  1.0
  Ge  Ge8  1  1.00000000  0.00000000  0.87103000  1.0
  Ge  Ge9  1  0.50000000  0.50000000  0.95701000  1.0
  Ge  Ge10  1  0.01402000  0.00000000  0.04169000  1.0
  Ge  Ge11  1  0.53444000  0.50000000  0.13049000  1.0
  Pd  Pd12  1  0.75000000  0.00000000  0.95701000  1.0
  Pd  Pd13  1  0.25000000  0.50000000  0.87103000  1.0
  Pd  Pd14  1  0.79741000  0.00000000  0.12274000  1.0
  Pd  Pd15  1  0.25173000  0.50000000  0.04003000  1.0
