# generated using pymatgen
data_Li4Si4Ni8CO
_symmetry_space_group_name_H-M   Cmm2
_cell_length_a   7.86772260
_cell_length_b   7.86772260
_cell_length_c   24.17250000
_cell_angle_alpha   90.00000000
_cell_angle_beta   90.00000000
_cell_angle_gamma   90.00000000
_symmetry_Int_Tables_number   35
_chemical_formula_structural   Li4Si4Ni8CO
_chemical_formula_sum   'Li8 Si8 Ni16 C2 O2'
_cell_volume   1496.30334493
_cell_formula_units_Z   2
loop_
 _symmetry_equiv_pos_site_id
 _symmetry_equiv_pos_as_xyz
  1  'x, y, z'
  2  '-x, -y, z'
  3  '-x, y, z'
  4  'x, -y, z'
  5  'x+1/2, y+1/2, z'
  6  '-x+1/2, -y+1/2, z'
  7  '-x+1/2, y+1/2, z'
  8  'x+1/2, -y+1/2, z'
loop_
 _atom_site_type_symbol
 _atom_site_label
 _atom_site_symmetry_multiplicity
 _atom_site_fract_x
 _atom_site_fract_y
 _atom_site_fract_z
 _atom_site_occupancy
  Li  Li0  4  0.00000000  0.25000000  0.91369000  1.0
  Li  Li1  4  0.25000000  0.00000000  0.02877000  1.0
  Si  Si2  4  0.00000000  0.25000000  0.02877000  1.0
  Si  Si3  4  0.25000000  0.00000000  0.91369000  1.0
  Ni  Ni4  4  0.25000000  0.25000000  0.08631000  1.0
  Ni  Ni5  4  0.25000000  0.25000000  0.97123000  1.0
  Ni  Ni6  2  0.00000000  0.00000000  0.08631000  1.0
  Ni  Ni7  2  0.00000000  0.00000000  0.97123000  1.0
  Ni  Ni8  2  0.00000000  0.50000000  0.08631000  1.0
  Ni  Ni9  2  0.00000000  0.50000000  0.97123000  1.0
  C  C10  2  0.00000000  0.50000000  0.16491000  1.0
  O  O11  2  0.00000000  0.50000000  0.21248000  1.0
