# generated using pymatgen
data_Li8Al8Fe8Pd8CO
_symmetry_space_group_name_H-M   Pmm2
_cell_length_a   5.67696000
_cell_length_b   8.60712000
_cell_length_c   26.63180000
_cell_angle_alpha   90.00000000
_cell_angle_beta   90.00000000
_cell_angle_gamma   90.00000000
_symmetry_Int_Tables_number   25
_chemical_formula_structural   Li8Al8Fe8Pd8CO
_chemical_formula_sum   'Li8 Al8 Fe8 Pd8 C1 O1'
_cell_volume   1301.29036078
_cell_formula_units_Z   1
loop_
 _symmetry_equiv_pos_site_id
 _symmetry_equiv_pos_as_xyz
  1  'x, y, z'
  2  '-x, -y, z'
  3  '-x, y, z'
  4  'x, -y, z'
loop_
 _atom_site_type_symbol
 _atom_site_label
 _atom_site_symmetry_multiplicity
 _atom_site_fract_x
 _atom_site_fract_y
 _atom_site_fract_z
 _atom_site_occupancy
  Li  Li0  2  0.25000000  0.00000000  0.87549000  1.0
  Li  Li1  2  0.25000000  0.50000000  0.87549000  1.0
  Li  Li2  2  0.25024000  0.00000000  0.03871000  1.0
  Li  Li3  2  0.25109000  0.50000000  0.03837000  1.0
  Al  Al4  4  0.24951000  0.25062000  0.12389000  1.0
  Al  Al5  4  0.25000000  0.25000000  0.95850000  1.0
  Fe  Fe6  1  0.00000000  0.00000000  0.12388000  1.0
  Fe  Fe7  1  0.00000000  0.00000000  0.95850000  1.0
  Fe  Fe8  1  0.00000000  0.50000000  0.11766000  1.0
  Fe  Fe9  1  0.00000000  0.50000000  0.95850000  1.0
  Fe  Fe10  1  0.50000000  0.00000000  0.11795000  1.0
  Fe  Fe11  1  0.50000000  0.00000000  0.95850000  1.0
  Fe  Fe12  1  0.50000000  0.50000000  0.11795000  1.0
  Fe  Fe13  1  0.50000000  0.50000000  0.95850000  1.0
  Pd  Pd14  2  0.00000000  0.25000000  0.87549000  1.0
  Pd  Pd15  2  0.00000000  0.25027000  0.04029000  1.0
  Pd  Pd16  2  0.50000000  0.24942000  0.03995000  1.0
  Pd  Pd17  2  0.50000000  0.25000000  0.87549000  1.0
  C  C18  1  0.00000000  0.00000000  0.18921000  1.0
  O  O19  1  0.00000000  0.00000000  0.23303000  1.0
