# generated using pymatgen
data_Sc8Ga8Cu8Pd8CO
_symmetry_space_group_name_H-M   Pm
_cell_length_a   6.33027000
_cell_length_b   8.95236000
_cell_length_c   26.71430000
_cell_angle_alpha   90.00000000
_cell_angle_beta   90.00000000
_cell_angle_gamma   90.00000000
_symmetry_Int_Tables_number   6
_chemical_formula_structural   Sc8Ga8Cu8Pd8CO
_chemical_formula_sum   'Sc8 Ga8 Cu8 Pd8 C1 O1'
_cell_volume   1513.92224676
_cell_formula_units_Z   1
loop_
 _symmetry_equiv_pos_site_id
 _symmetry_equiv_pos_as_xyz
  1  'x, y, z'
  2  'x, -y, z'
loop_
 _atom_site_type_symbol
 _atom_site_label
 _atom_site_symmetry_multiplicity
 _atom_site_fract_x
 _atom_site_fract_y
 _atom_site_fract_z
 _atom_site_occupancy
  Sc  Sc0  2  0.74861000  0.24902000  0.12938000  1.0
  Sc  Sc1  2  0.75000000  0.24999000  0.95811000  1.0
  Sc  Sc2  1  0.24076000  0.00000000  0.04273000  1.0
  Sc  Sc3  1  0.24930000  0.50000000  0.04106000  1.0
  Sc  Sc4  1  0.25000000  0.00000000  0.87433000  1.0
  Sc  Sc5  1  0.25000000  0.50000000  0.87433000  1.0
  Ga  Ga6  2  0.25000000  0.24999000  0.95811000  1.0
  Ga  Ga7  2  0.25087000  0.25265000  0.12291000  1.0
  Ga  Ga8  1  0.74843000  0.50000000  0.04434000  1.0
  Ga  Ga9  1  0.75000000  0.00000000  0.87433000  1.0
  Ga  Ga10  1  0.75000000  0.50000000  0.87433000  1.0
  Ga  Ga11  1  0.75904000  0.00000000  0.04774000  1.0
  Cu  Cu12  2  0.00000000  0.24999000  0.87433000  1.0
  Cu  Cu13  2  0.98419000  0.25102000  0.04451000  1.0
  Cu  Cu14  1  0.47210000  0.00000000  0.12371000  1.0
  Cu  Cu15  1  0.48083000  0.50000000  0.12535000  1.0
  Cu  Cu16  1  0.50000000  0.00000000  0.95811000  1.0
  Cu  Cu17  1  0.50000000  0.50000000  0.95811000  1.0
  Pd  Pd18  2  0.50000000  0.25001000  0.87433000  1.0
  Pd  Pd19  2  0.51341000  0.24833000  0.04271000  1.0
  Pd  Pd20  1  0.00000000  0.00000000  0.95811000  1.0
  Pd  Pd21  1  0.00000000  0.50000000  0.95811000  1.0
  Pd  Pd22  1  0.00840000  0.50000000  0.12309000  1.0
  Pd  Pd23  1  0.01619000  0.00000000  0.13840000  1.0
  C  C24  1  0.95051000  0.00000000  0.20995000  1.0
  O  O25  1  0.94492000  0.00000000  0.25322000  1.0
