# generated using pymatgen
data_Al8V8Fe16C
_symmetry_space_group_name_H-M   Pm
_cell_length_a   5.71239000
_cell_length_b   8.07854000
_cell_length_c   26.05890000
_cell_angle_alpha   90.00000000
_cell_angle_beta   90.00000000
_cell_angle_gamma   90.00000000
_symmetry_Int_Tables_number   6
_chemical_formula_structural   Al8V8Fe16C
_chemical_formula_sum   'Al8 V8 Fe16 C1'
_cell_volume   1202.56015259
_cell_formula_units_Z   1
loop_
 _symmetry_equiv_pos_site_id
 _symmetry_equiv_pos_as_xyz
  1  'x, y, z'
  2  'x, -y, z'
loop_
 _atom_site_type_symbol
 _atom_site_label
 _atom_site_symmetry_multiplicity
 _atom_site_fract_x
 _atom_site_fract_y
 _atom_site_fract_z
 _atom_site_occupancy
  Al  Al0  2  0.00000000  0.25000000  0.88375000  1.0
  Al  Al1  2  0.00492000  0.25068000  0.03924000  1.0
  Al  Al2  1  0.48959000  0.50000000  0.12444000  1.0
  Al  Al3  1  0.50000000  0.00000000  0.96125000  1.0
  Al  Al4  1  0.50000000  0.50000000  0.96125000  1.0
  Al  Al5  1  0.54095000  0.00000000  0.12467000  1.0
  V  V6  2  0.50000000  0.25000000  0.88375000  1.0
  V  V7  2  0.50138000  0.25087000  0.04092000  1.0
  V  V8  1  -0.00000000  0.50000000  0.96125000  1.0
  V  V9  1  -0.00000000  0.00000000  0.96125000  1.0
  V  V10  1  0.96546000  0.00000000  0.10956000  1.0
  V  V11  1  0.99913000  0.50000000  0.11596000  1.0
  Fe  Fe12  2  0.25000000  0.25000000  0.96125000  1.0
  Fe  Fe13  2  0.25598000  0.22977000  0.12225000  1.0
  Fe  Fe14  2  0.75000000  0.25000000  0.96125000  1.0
  Fe  Fe15  2  0.75237000  0.26021000  0.11616000  1.0
  Fe  Fe16  1  0.25000000  0.00000000  0.88375000  1.0
  Fe  Fe17  1  0.25000000  0.50000000  0.88375000  1.0
  Fe  Fe18  1  0.25405000  0.50000000  0.04161000  1.0
  Fe  Fe19  1  0.25585000  0.00000000  0.03958000  1.0
  Fe  Fe20  1  0.74194000  0.00000000  0.03604000  1.0
  Fe  Fe21  1  0.74919000  0.50000000  0.04084000  1.0
  Fe  Fe22  1  0.75000000  0.00000000  0.88375000  1.0
  Fe  Fe23  1  0.75000000  0.50000000  0.88375000  1.0
  C  C24  1  0.23034000  0.00000000  0.15115000  1.0
