# generated using pymatgen
data_Li16Ga8Ir8C
_symmetry_space_group_name_H-M   Pm
_cell_length_a   6.01864000
_cell_length_b   8.51164000
_cell_length_c   26.38370000
_cell_angle_alpha   90.00000000
_cell_angle_beta   90.00000000
_cell_angle_gamma   90.00000000
_symmetry_Int_Tables_number   6
_chemical_formula_structural   Li16Ga8Ir8C
_chemical_formula_sum   'Li16 Ga8 Ir8 C1'
_cell_volume   1351.59729550
_cell_formula_units_Z   1
loop_
 _symmetry_equiv_pos_site_id
 _symmetry_equiv_pos_as_xyz
  1  'x, y, z'
  2  'x, -y, z'
loop_
 _atom_site_type_symbol
 _atom_site_label
 _atom_site_symmetry_multiplicity
 _atom_site_fract_x
 _atom_site_fract_y
 _atom_site_fract_z
 _atom_site_occupancy
  Li  Li0  2  0.25000000  0.25000000  0.95967000  1.0
  Li  Li1  2  0.28406000  0.26151000  0.14545000  1.0
  Li  Li2  2  0.48997000  0.24626000  0.04176000  1.0
  Li  Li3  2  0.50000000  0.25000000  0.87902000  1.0
  Li  Li4  1  0.00000000  0.00000000  0.95967000  1.0
  Li  Li5  1  0.00000000  0.50000000  0.95967000  1.0
  Li  Li6  1  0.00641000  0.50000000  0.11957000  1.0
  Li  Li7  1  0.03350000  0.00000000  0.13039000  1.0
  Li  Li8  1  0.75000000  0.00000000  0.87902000  1.0
  Li  Li9  1  0.75000000  0.50000000  0.87902000  1.0
  Li  Li10  1  0.75213000  0.00000000  0.04160000  1.0
  Li  Li11  1  0.75776000  0.50000000  0.03707000  1.0
  Ga  Ga12  2  0.74363000  0.25113000  0.12135000  1.0
  Ga  Ga13  2  0.75000000  0.25000000  0.95967000  1.0
  Ga  Ga14  1  0.23603000  0.00000000  0.03400000  1.0
  Ga  Ga15  1  0.25000000  0.00000000  0.87902000  1.0
  Ga  Ga16  1  0.25000000  0.50000000  0.87902000  1.0
  Ga  Ga17  1  0.25029000  0.50000000  0.03891000  1.0
  Ir  Ir18  2  0.00000000  0.25000000  0.87902000  1.0
  Ir  Ir19  2  0.00951000  0.24809000  0.04599000  1.0
  Ir  Ir20  1  0.46854000  0.00000000  0.11638000  1.0
  Ir  Ir21  1  0.50000000  0.00000000  0.95967000  1.0
  Ir  Ir22  1  0.50000000  0.50000000  0.95967000  1.0
  Ir  Ir23  1  0.51452000  0.50000000  0.11358000  1.0
  C  C24  1  0.71447000  0.00000000  0.15666000  1.0
