# generated using pymatgen
data_Cr8Ga8Fe16C
_symmetry_space_group_name_H-M   'P 1'
_cell_length_a   6.89656000
_cell_length_b   9.75322000
_cell_length_c   27.31490000
_cell_angle_alpha   90.00000000
_cell_angle_beta   90.00000000
_cell_angle_gamma   90.00000000
_symmetry_Int_Tables_number   1
_chemical_formula_structural   Cr8Ga8Fe16C
_chemical_formula_sum   'Cr8 Ga8 Fe16 C1'
_cell_volume   1837.30033564
_cell_formula_units_Z   1
loop_
 _symmetry_equiv_pos_site_id
 _symmetry_equiv_pos_as_xyz
  1  'x, y, z'
loop_
 _atom_site_type_symbol
 _atom_site_label
 _atom_site_symmetry_multiplicity
 _atom_site_fract_x
 _atom_site_fract_y
 _atom_site_fract_z
 _atom_site_occupancy
  Cr  Cr0  1  0.00000000  0.00000000  0.86610000  1.0
  Cr  Cr1  1  0.50000000  0.25000000  0.95537000  1.0
  Cr  Cr2  1  0.50000000  0.75000000  0.95537000  1.0
  Cr  Cr3  1  0.00000000  0.50000000  0.86610000  1.0
  Cr  Cr4  1  0.00000000  0.50000000  0.04463000  1.0
  Cr  Cr5  1  0.50000000  0.75000000  0.13390000  1.0
  Cr  Cr6  1  0.50000000  0.25000000  0.13390000  1.0
  Cr  Cr7  1  0.00000000  0.00000000  0.04463000  1.0
  Ga  Ga8  1  0.00000000  0.75000000  0.95537000  1.0
  Ga  Ga9  1  0.50000000  0.00000000  0.86610000  1.0
  Ga  Ga10  1  0.00000000  0.25000000  0.95537000  1.0
  Ga  Ga11  1  0.50000000  0.50000000  0.86610000  1.0
  Ga  Ga12  1  0.00000000  0.25000000  0.13390000  1.0
  Ga  Ga13  1  0.50000000  0.50000000  0.04463000  1.0
  Ga  Ga14  1  0.00000000  0.75000000  0.13390000  1.0
  Ga  Ga15  1  0.50000000  0.00000000  0.04463000  1.0
  Fe  Fe16  1  0.25000000  0.00000000  0.95537000  1.0
  Fe  Fe17  1  0.75000000  0.50000000  0.95537000  1.0
  Fe  Fe18  1  0.75000000  0.00000000  0.95537000  1.0
  Fe  Fe19  1  0.25000000  0.50000000  0.95537000  1.0
  Fe  Fe20  1  0.75000000  0.75000000  0.86610000  1.0
  Fe  Fe21  1  0.25000000  0.25000000  0.86610000  1.0
  Fe  Fe22  1  0.25000000  0.75000000  0.86610000  1.0
  Fe  Fe23  1  0.75000000  0.25000000  0.86610000  1.0
  Fe  Fe24  1  0.25000000  0.50000000  0.13390000  1.0
  Fe  Fe25  1  0.75000000  0.00000000  0.13390000  1.0
  Fe  Fe26  1  0.75000000  0.50000000  0.13390000  1.0
  Fe  Fe27  1  0.25000000  0.00000000  0.13390000  1.0
  Fe  Fe28  1  0.75000000  0.25000000  0.04463000  1.0
  Fe  Fe29  1  0.25000000  0.75000000  0.04463000  1.0
  Fe  Fe30  1  0.25000000  0.25000000  0.04463000  1.0
  Fe  Fe31  1  0.75000000  0.75000000  0.04463000  1.0
  C  C32  1  0.50000000  0.00000000  0.16319000  1.0
