# generated using pymatgen
data_Li4Y4In4Ge4C
_symmetry_space_group_name_H-M   Pm
_cell_length_a   6.03525000
_cell_length_b   9.31878000
_cell_length_c   24.52620000
_cell_angle_alpha   90.00000000
_cell_angle_beta   90.00000000
_cell_angle_gamma   90.00000000
_symmetry_Int_Tables_number   6
_chemical_formula_structural   Li4Y4In4Ge4C
_chemical_formula_sum   'Li4 Y4 In4 Ge4 C1'
_cell_volume   1379.38210995
_cell_formula_units_Z   1
loop_
 _symmetry_equiv_pos_site_id
 _symmetry_equiv_pos_as_xyz
  1  'x, y, z'
  2  'x, -y, z'
loop_
 _atom_site_type_symbol
 _atom_site_label
 _atom_site_symmetry_multiplicity
 _atom_site_fract_x
 _atom_site_fract_y
 _atom_site_fract_z
 _atom_site_occupancy
  Li  Li0  2  0.28949000  0.14921000  0.11971000  1.0
  Li  Li1  2  0.74758000  0.25000000  0.96924000  1.0
  Y  Y2  1  0.01550000  0.00000000  0.02857000  1.0
  Y  Y3  1  0.50000000  0.00000000  0.90773000  1.0
  Y  Y4  1  0.50000000  0.50000000  0.90773000  1.0
  Y  Y5  1  0.97738000  0.50000000  0.03502000  1.0
  In  In6  2  0.24758000  0.25000000  0.96924000  1.0
  In  In7  2  0.77415000  0.18183000  0.12243000  1.0
  Ge  Ge8  1  0.00000000  0.00000000  0.90773000  1.0
  Ge  Ge9  1  0.00000000  0.50000000  0.90773000  1.0
  Ge  Ge10  1  0.47064000  0.50000000  0.02997000  1.0
  Ge  Ge11  1  0.51830000  0.00000000  0.02836000  1.0
  C  C12  1  0.02768000  0.00000000  0.12134000  1.0
