# generated using pymatgen
data_Sc3In
_symmetry_space_group_name_H-M   Pmm2
_cell_length_a   4.52905000
_cell_length_b   6.40504000
_cell_length_c   24.80380000
_cell_angle_alpha   90.00000000
_cell_angle_beta   90.00000000
_cell_angle_gamma   90.00000000
_symmetry_Int_Tables_number   25
_chemical_formula_structural   Sc3In
_chemical_formula_sum   'Sc6 In2'
_cell_volume   719.52714425
_cell_formula_units_Z   2
loop_
 _symmetry_equiv_pos_site_id
 _symmetry_equiv_pos_as_xyz
  1  'x, y, z'
  2  '-x, -y, z'
  3  '-x, y, z'
  4  'x, -y, z'
loop_
 _atom_site_type_symbol
 _atom_site_label
 _atom_site_symmetry_multiplicity
 _atom_site_fract_x
 _atom_site_fract_y
 _atom_site_fract_z
 _atom_site_occupancy
  Sc  Sc0  2  0.50000000  0.24999500  0.90316000  1.0
  Sc  Sc1  2  0.50000000  0.25380000  0.03290000  1.0
  Sc  Sc2  1  0.00000000  0.00000000  0.96772000  1.0
  Sc  Sc3  1  0.00000000  0.50000000  0.09841500  1.0
  In  In4  1  0.00000000  0.00000000  0.08968000  1.0
  In  In5  1  0.00000000  0.50000000  0.96772000  1.0
