# generated using pymatgen
data_Li8Ge8Pd8Au8CO
_symmetry_space_group_name_H-M   Pm
_cell_length_a   6.30991000
_cell_length_b   8.92356000
_cell_length_c   26.69270000
_cell_angle_alpha   90.00000000
_cell_angle_beta   90.00000000
_cell_angle_gamma   90.00000000
_symmetry_Int_Tables_number   6
_chemical_formula_structural   Li8Ge8Pd8Au8CO
_chemical_formula_sum   'Li8 Ge8 Pd8 Au8 C1 O1'
_cell_volume   1502.98213472
_cell_formula_units_Z   1
loop_
 _symmetry_equiv_pos_site_id
 _symmetry_equiv_pos_as_xyz
  1  'x, y, z'
  2  'x, -y, z'
loop_
 _atom_site_type_symbol
 _atom_site_label
 _atom_site_symmetry_multiplicity
 _atom_site_fract_x
 _atom_site_fract_y
 _atom_site_fract_z
 _atom_site_occupancy
  Li  Li0  2  0.25000000  0.25000000  0.95821000  1.0
  Li  Li1  2  0.25292000  0.24874000  0.13386000  1.0
  Li  Li2  1  0.75000000  0.00000000  0.87463000  1.0
  Li  Li3  1  0.75000000  0.50000000  0.87463000  1.0
  Li  Li4  1  0.75227000  0.50000000  0.03830000  1.0
  Li  Li5  1  0.75404000  0.00000000  0.03875000  1.0
  Ge  Ge6  2  0.74542000  0.25644000  0.13129000  1.0
  Ge  Ge7  2  0.75000000  0.25000000  0.95821000  1.0
  Ge  Ge8  1  0.24234000  0.50000000  0.04135000  1.0
  Ge  Ge9  1  0.25000000  0.00000000  0.87463000  1.0
  Ge  Ge10  1  0.25000000  0.50000000  0.87463000  1.0
  Ge  Ge11  1  0.25007000  0.00000000  0.04091000  1.0
  Pd  Pd12  2  0.49227000  0.25153000  0.04325000  1.0
  Pd  Pd13  2  0.50000000  0.25000000  0.87463000  1.0
  Pd  Pd14  1  0.00000000  0.00000000  0.95821000  1.0
  Pd  Pd15  1  0.00000000  0.50000000  0.95821000  1.0
  Pd  Pd16  1  0.00359000  0.00000000  0.13215000  1.0
  Pd  Pd17  1  0.98188000  0.50000000  0.11816000  1.0
  Au  Au18  2  0.00000000  0.25000000  0.87463000  1.0
  Au  Au19  2  0.99190000  0.23989000  0.04875000  1.0
  Au  Au20  1  0.50000000  0.00000000  0.95821000  1.0
  Au  Au21  1  0.50000000  0.50000000  0.95821000  1.0
  Au  Au22  1  0.50431000  0.50000000  0.12035000  1.0
  Au  Au23  1  0.52958000  0.00000000  0.11838000  1.0
  C  C24  1  0.08873000  0.00000000  0.20170000  1.0
  O  O25  1  0.11084000  0.00000000  0.24459000  1.0
