# generated using pymatgen
data_Li8Zn8Ag8Ge8CO
_symmetry_space_group_name_H-M   Pm
_cell_length_a   6.35563000
_cell_length_b   8.98822000
_cell_length_c   26.74120000
_cell_angle_alpha   90.00000000
_cell_angle_beta   90.00000000
_cell_angle_gamma   90.00000000
_symmetry_Int_Tables_number   6
_chemical_formula_structural   Li8Zn8Ag8Ge8CO
_chemical_formula_sum   'Li8 Zn8 Ag8 Ge8 C1 O1'
_cell_volume   1527.61246111
_cell_formula_units_Z   1
loop_
 _symmetry_equiv_pos_site_id
 _symmetry_equiv_pos_as_xyz
  1  'x, y, z'
  2  'x, -y, z'
loop_
 _atom_site_type_symbol
 _atom_site_label
 _atom_site_symmetry_multiplicity
 _atom_site_fract_x
 _atom_site_fract_y
 _atom_site_fract_z
 _atom_site_occupancy
  Li  Li0  2  0.25000000  0.25000000  0.87396000  1.0
  Li  Li1  2  0.25240000  0.24489000  0.04297000  1.0
  Li  Li2  1  0.75000000  0.00000000  0.95799000  1.0
  Li  Li3  1  0.75000000  0.50000000  0.95799000  1.0
  Li  Li4  1  0.76075000  0.50000000  0.14128000  1.0
  Li  Li5  1  0.77201000  0.00000000  0.13837000  1.0
  Zn  Zn6  2  0.75000000  0.25000000  0.87396000  1.0
  Zn  Zn7  2  0.75052000  0.25637000  0.04401000  1.0
  Zn  Zn8  1  0.22516000  0.00000000  0.12862000  1.0
  Zn  Zn9  1  0.23971000  0.50000000  0.13542000  1.0
  Zn  Zn10  1  0.25000000  0.00000000  0.95799000  1.0
  Zn  Zn11  1  0.25000000  0.50000000  0.95799000  1.0
  Ag  Ag12  2  0.49796000  0.25389000  0.12895000  1.0
  Ag  Ag13  2  0.50000000  0.25000000  0.95799000  1.0
  Ag  Ag14  1  0.00000000  0.00000000  0.87396000  1.0
  Ag  Ag15  1  0.00000000  0.50000000  0.87396000  1.0
  Ag  Ag16  1  0.00625000  0.50000000  0.04821000  1.0
  Ag  Ag17  1  0.98179000  0.00000000  0.04398000  1.0
  Ge  Ge18  2  0.00000000  0.25000000  0.95799000  1.0
  Ge  Ge19  2  0.99879000  0.25605000  0.12980000  1.0
  Ge  Ge20  1  0.50000000  0.00000000  0.87396000  1.0
  Ge  Ge21  1  0.50000000  0.50000000  0.87396000  1.0
  Ge  Ge22  1  0.50232000  0.50000000  0.04833000  1.0
  Ge  Ge23  1  0.51244000  0.00000000  0.05164000  1.0
  C  C24  1  0.26910000  0.00000000  0.20859000  1.0
  O  O25  1  0.24760000  0.00000000  0.25116000  1.0
