# generated using pymatgen
data_Li8Mg8Ag8Sn8C
_symmetry_space_group_name_H-M   Pm
_cell_length_a   6.75899000
_cell_length_b   9.55866000
_cell_length_c   27.16900000
_cell_angle_alpha   90.00000000
_cell_angle_beta   90.00000000
_cell_angle_gamma   90.00000000
_symmetry_Int_Tables_number   6
_chemical_formula_structural   Li8Mg8Ag8Sn8C
_chemical_formula_sum   'Li8 Mg8 Ag8 Sn8 C1'
_cell_volume   1755.30452250
_cell_formula_units_Z   1
loop_
 _symmetry_equiv_pos_site_id
 _symmetry_equiv_pos_as_xyz
  1  'x, y, z'
  2  'x, -y, z'
loop_
 _atom_site_type_symbol
 _atom_site_label
 _atom_site_symmetry_multiplicity
 _atom_site_fract_x
 _atom_site_fract_y
 _atom_site_fract_z
 _atom_site_occupancy
  Li  Li0  2  0.24547000  0.25368000  0.04684000  1.0
  Li  Li1  2  0.25000000  0.25000000  0.86807000  1.0
  Li  Li2  1  0.71022000  0.00000000  0.13623000  1.0
  Li  Li3  1  0.75000000  0.00000000  0.95602000  1.0
  Li  Li4  1  0.75000000  0.50000000  0.95602000  1.0
  Li  Li5  1  0.75491000  0.50000000  0.13381000  1.0
  Mg  Mg6  2  0.75000000  0.25000000  0.86807000  1.0
  Mg  Mg7  2  0.75579000  0.24576000  0.04558000  1.0
  Mg  Mg8  1  0.24748000  0.50000000  0.13763000  1.0
  Mg  Mg9  1  0.25000000  0.00000000  0.95602000  1.0
  Mg  Mg10  1  0.25000000  0.50000000  0.95602000  1.0
  Mg  Mg11  1  0.31228000  0.00000000  0.14976000  1.0
  Ag  Ag12  2  0.50000000  0.25000000  0.95602000  1.0
  Ag  Ag13  2  0.50462000  0.25921000  0.13086000  1.0
  Ag  Ag14  1  0.00000000  0.00000000  0.86807000  1.0
  Ag  Ag15  1  0.00000000  0.50000000  0.86807000  1.0
  Ag  Ag16  1  0.00094000  0.50000000  0.04411000  1.0
  Ag  Ag17  1  0.01845000  0.00000000  0.05876000  1.0
  Sn  Sn18  2  0.00000000  0.25000000  0.95602000  1.0
  Sn  Sn19  2  0.96602000  0.22747000  0.14950000  1.0
  Sn  Sn20  1  0.48595000  0.00000000  0.04761000  1.0
  Sn  Sn21  1  0.50000000  0.00000000  0.86807000  1.0
  Sn  Sn22  1  0.50000000  0.50000000  0.86807000  1.0
  Sn  Sn23  1  0.50189000  0.50000000  0.04857000  1.0
  C  C24  1  0.00277000  0.00000000  0.14942000  1.0
