data_image0
_chemical_formula_structural       Li8Al8Fe8Pd8C
_chemical_formula_sum              "Li8 Al8 Fe8 Pd8 C1"
_cell_length_a       8.84236
_cell_length_b       5.67696
_cell_length_c       26.4553
_cell_angle_alpha    90
_cell_angle_beta     90
_cell_angle_gamma    90

_space_group_name_H-M_alt    "P 1"
_space_group_IT_number       1

loop_
  _space_group_symop_operation_xyz
  'x, y, z'

loop_
  _atom_site_type_symbol
  _atom_site_label
  _atom_site_symmetry_multiplicity
  _atom_site_fract_x
  _atom_site_fract_y
  _atom_site_fract_z
  _atom_site_occupancy
  Li  Li1       1.0  0.25000  0.00000  0.95933  1.0000
  Li  Li2       1.0  0.25525  0.96990  0.19192  1.0000
  Li  Li3       1.0  0.25000  0.50000  0.95933  1.0000
  Li  Li4       1.0  0.25134  0.50164  0.13638  1.0000
  Li  Li5       1.0  0.75000  0.00000  0.95933  1.0000
  Li  Li6       1.0  0.75208  0.99637  0.13402  1.0000
  Li  Li7       1.0  0.75000  0.50000  0.95933  1.0000
  Li  Li8       1.0  0.74935  0.49729  0.13084  1.0000
  Al  Al1       1.0  0.00000  0.00000  0.87800  1.0000
  Al  Al2       1.0  0.99253  0.00138  0.03493  1.0000
  Al  Al3       1.0  0.00000  0.50000  0.87800  1.0000
  Al  Al4       1.0  0.99872  0.49692  0.04120  1.0000
  Al  Al5       1.0  0.50000  0.00000  0.87800  1.0000
  Al  Al6       1.0  0.50828  0.00121  0.03483  1.0000
  Al  Al7       1.0  0.50000  0.50000  0.87800  1.0000
  Al  Al8       1.0  0.50215  0.49349  0.04103  1.0000
  Fe  Fe1       1.0  0.00000  0.25000  0.95933  1.0000
  Fe  Fe2       1.0  0.04484  0.19722  0.11804  1.0000
  Fe  Fe3       1.0  0.00000  0.75000  0.95933  1.0000
  Fe  Fe4       1.0  0.04036  0.79993  0.11922  1.0000
  Fe  Fe5       1.0  0.50000  0.25000  0.95933  1.0000
  Fe  Fe6       1.0  0.44963  0.18435  0.11841  1.0000
  Fe  Fe7       1.0  0.50000  0.75000  0.95933  1.0000
  Fe  Fe8       1.0  0.46827  0.79119  0.11912  1.0000
  Pd  Pd1       1.0  0.25000  0.25000  0.87800  1.0000
  Pd  Pd2       1.0  0.25003  0.24702  0.04024  1.0000
  Pd  Pd3       1.0  0.25000  0.75000  0.87800  1.0000
  Pd  Pd4       1.0  0.25184  0.74915  0.04265  1.0000
  Pd  Pd5       1.0  0.75000  0.25000  0.87800  1.0000
  Pd  Pd6       1.0  0.75076  0.24782  0.04897  1.0000
  Pd  Pd7       1.0  0.75000  0.75000  0.87800  1.0000
  Pd  Pd8       1.0  0.75012  0.74742  0.04654  1.0000
  C   C1        1.0  0.24575  0.13867  0.12416  1.0000
