# generated using pymatgen
data_Li8Al8Fe8Pd8C
_symmetry_space_group_name_H-M   P1
_cell_length_a   5.67696000
_cell_length_b   8.84236000
_cell_length_c   26.45530000
_cell_angle_alpha   90.00000000
_cell_angle_beta   90.00000000
_cell_angle_gamma   90.00000000
_symmetry_Int_Tables_number   1
_chemical_formula_structural   Li8Al8Fe8Pd8C
_chemical_formula_sum   'Li8 Al8 Fe8 Pd8 C1'
_cell_volume   1327.99584841
_cell_formula_units_Z   1
loop_
 _symmetry_equiv_pos_site_id
 _symmetry_equiv_pos_as_xyz
  1  'x, y, z'
loop_
 _atom_site_type_symbol
 _atom_site_label
 _atom_site_symmetry_multiplicity
 _atom_site_fract_x
 _atom_site_fract_y
 _atom_site_fract_z
 _atom_site_occupancy
  Li  Li0  1  0.00000000  0.25000000  0.04067000  1.0
  Li  Li1  1  0.00000000  0.75000000  0.04067000  1.0
  Li  Li2  1  0.00363000  0.24792000  0.86598000  1.0
  Li  Li3  1  0.03010000  0.74475000  0.80808000  1.0
  Li  Li4  1  0.49836000  0.74866000  0.86362000  1.0
  Li  Li5  1  0.50000000  0.25000000  0.04067000  1.0
  Li  Li6  1  0.50000000  0.75000000  0.04067000  1.0
  Li  Li7  1  0.50271000  0.25065000  0.86916000  1.0
  Al  Al8  1  0.00000000  0.00000000  0.12200000  1.0
  Al  Al9  1  0.00000000  0.50000000  0.12200000  1.0
  Al  Al10  1  0.50000000  0.00000000  0.12200000  1.0
  Al  Al11  1  0.50000000  0.50000000  0.12200000  1.0
  Al  Al12  1  0.50308000  0.00128000  0.95880000  1.0
  Al  Al13  1  0.50651000  0.49785000  0.95897000  1.0
  Al  Al14  1  0.99862000  0.00747000  0.96507000  1.0
  Al  Al15  1  0.99879000  0.49172000  0.96517000  1.0
  Fe  Fe16  1  0.20007000  0.95964000  0.88078000  1.0
  Fe  Fe17  1  0.20881000  0.53173000  0.88088000  1.0
  Fe  Fe18  1  0.25000000  0.00000000  0.04067000  1.0
  Fe  Fe19  1  0.25000000  0.50000000  0.04067000  1.0
  Fe  Fe20  1  0.75000000  0.00000000  0.04067000  1.0
  Fe  Fe21  1  0.75000000  0.50000000  0.04067000  1.0
  Fe  Fe22  1  0.80278000  0.95516000  0.88196000  1.0
  Fe  Fe23  1  0.81565000  0.55037000  0.88159000  1.0
  Pd  Pd24  1  0.25000000  0.25000000  0.12200000  1.0
  Pd  Pd25  1  0.25000000  0.75000000  0.12200000  1.0
  Pd  Pd26  1  0.25085000  0.74816000  0.95735000  1.0
  Pd  Pd27  1  0.25258000  0.24988000  0.95346000  1.0
  Pd  Pd28  1  0.75000000  0.25000000  0.12200000  1.0
  Pd  Pd29  1  0.75000000  0.75000000  0.12200000  1.0
  Pd  Pd30  1  0.75218000  0.24924000  0.95103000  1.0
  Pd  Pd31  1  0.75298000  0.74997000  0.95976000  1.0
  C  C32  1  0.86133000  0.75425000  0.87584000  1.0
