# generated using pymatgen
data_Li8Cu8Sb8Pd8CO
_symmetry_space_group_name_H-M   'P 1'
_cell_length_a   9.01208000
_cell_length_b   6.37250000
_cell_length_c   26.75910000
_cell_angle_alpha   90.00000000
_cell_angle_beta   90.00000000
_cell_angle_gamma   90.00000000
_symmetry_Int_Tables_number   1
_chemical_formula_structural   Li8Cu8Sb8Pd8CO
_chemical_formula_sum   'Li8 Cu8 Sb8 Pd8 C1 O1'
_cell_volume   1536.76119292
_cell_formula_units_Z   1
loop_
 _symmetry_equiv_pos_site_id
 _symmetry_equiv_pos_as_xyz
  1  'x, y, z'
loop_
 _atom_site_type_symbol
 _atom_site_label
 _atom_site_symmetry_multiplicity
 _atom_site_fract_x
 _atom_site_fract_y
 _atom_site_fract_z
 _atom_site_occupancy
  Li  Li0  1  0.75000000  0.25000000  0.04210000  1.0
  Li  Li1  1  0.25000000  0.25000000  0.04210000  1.0
  Li  Li2  1  0.00000000  0.75000000  0.12629000  1.0
  Li  Li3  1  0.50000000  0.75000000  0.12629000  1.0
  Li  Li4  1  0.26734000  0.26196000  0.86711000  1.0
  Li  Li5  1  0.73266000  0.26196000  0.86711000  1.0
  Li  Li6  1  0.50000000  0.75131000  0.96523000  1.0
  Li  Li7  1  0.00000000  0.77104000  0.95520000  1.0
  Cu  Cu8  1  0.75000000  0.00000000  0.12629000  1.0
  Cu  Cu9  1  0.25000000  0.00000000  0.12629000  1.0
  Cu  Cu10  1  0.50000000  0.50000000  0.04210000  1.0
  Cu  Cu11  1  0.00000000  0.50000000  0.04210000  1.0
  Cu  Cu12  1  0.25054000  0.99056000  0.94876000  1.0
  Cu  Cu13  1  0.74946000  0.99056000  0.94876000  1.0
  Cu  Cu14  1  0.00000000  0.51071000  0.88240000  1.0
  Cu  Cu15  1  0.50000000  0.54486000  0.88627000  1.0
  Sb  Sb16  1  0.75000000  0.75000000  0.04210000  1.0
  Sb  Sb17  1  0.25000000  0.75000000  0.04210000  1.0
  Sb  Sb18  1  0.00000000  0.25000000  0.12629000  1.0
  Sb  Sb19  1  0.50000000  0.25000000  0.12629000  1.0
  Sb  Sb20  1  0.24099000  0.75153000  0.86531000  1.0
  Sb  Sb21  1  0.75901000  0.75153000  0.86531000  1.0
  Sb  Sb22  1  0.50000000  0.25608000  0.95716000  1.0
  Sb  Sb23  1  0.00000000  0.24276000  0.95828000  1.0
  Pd  Pd24  1  0.00000000  1.00000000  0.04210000  1.0
  Pd  Pd25  1  0.50000000  1.00000000  0.04210000  1.0
  Pd  Pd26  1  0.25000000  0.50000000  0.12629000  1.0
  Pd  Pd27  1  0.75000000  0.50000000  0.12629000  1.0
  Pd  Pd28  1  0.50000000  0.96682000  0.88472000  1.0
  Pd  Pd29  1  0.00000000  0.07432000  0.86344000  1.0
  Pd  Pd30  1  0.75335000  0.51435000  0.95266000  1.0
  Pd  Pd31  1  0.24665000  0.51435000  0.95266000  1.0
  C  C32  1  0.00000000  0.12522000  0.79204000  1.0
  O  O33  1  0.00000000  0.14951000  0.74937000  1.0
