# generated using pymatgen
data_Sc8Al8Cu8Pd8CO
_symmetry_space_group_name_H-M   'P 1'
_cell_length_a   6.32596000
_cell_length_b   8.94626000
_cell_length_c   26.70970000
_cell_angle_alpha   90.00000000
_cell_angle_beta   90.00000000
_cell_angle_gamma   90.00000000
_symmetry_Int_Tables_number   1
_chemical_formula_structural   Sc8Al8Cu8Pd8CO
_chemical_formula_sum   'Sc8 Al8 Cu8 Pd8 C1 O1'
_cell_volume   1511.60029241
_cell_formula_units_Z   1
loop_
 _symmetry_equiv_pos_site_id
 _symmetry_equiv_pos_as_xyz
  1  'x, y, z'
loop_
 _atom_site_type_symbol
 _atom_site_label
 _atom_site_symmetry_multiplicity
 _atom_site_fract_x
 _atom_site_fract_y
 _atom_site_fract_z
 _atom_site_occupancy
  Sc  Sc0  1  0.00000000  0.75000000  0.95813000  1.0
  Sc  Sc1  1  0.00000000  0.25000000  0.95813000  1.0
  Sc  Sc2  1  0.50000000  0.50000000  0.87440000  1.0
  Sc  Sc3  1  0.50000000  0.00000000  0.87440000  1.0
  Sc  Sc4  1  0.99908000  0.25010000  0.13137000  1.0
  Sc  Sc5  1  0.00505000  0.74995000  0.13325000  1.0
  Sc  Sc6  1  0.50001000  0.00132000  0.04045000  1.0
  Sc  Sc7  1  0.50029000  0.49876000  0.04038000  1.0
  Al  Al8  1  0.00000000  0.00000000  0.87440000  1.0
  Al  Al9  1  0.00000000  0.50000000  0.87440000  1.0
  Al  Al10  1  0.50000000  0.25000000  0.95813000  1.0
  Al  Al11  1  0.50000000  0.75000000  0.95813000  1.0
  Al  Al12  1  0.99873000  0.50353000  0.04446000  1.0
  Al  Al13  1  0.99882000  0.99656000  0.04449000  1.0
  Al  Al14  1  0.50563000  0.75007000  0.12391000  1.0
  Al  Al15  1  0.49989000  0.25001000  0.12175000  1.0
  Cu  Cu16  1  0.25000000  0.00000000  0.95813000  1.0
  Cu  Cu17  1  0.25000000  0.50000000  0.95813000  1.0
  Cu  Cu18  1  0.75000000  0.75000000  0.87440000  1.0
  Cu  Cu19  1  0.75000000  0.25000000  0.87440000  1.0
  Cu  Cu20  1  0.26390000  0.49287000  0.12115000  1.0
  Cu  Cu21  1  0.26354000  0.00717000  0.12123000  1.0
  Cu  Cu22  1  0.77067000  0.24986000  0.04430000  1.0
  Cu  Cu23  1  0.76507000  0.75019000  0.04542000  1.0
  Pd  Pd24  1  0.75000000  0.00000000  0.95813000  1.0
  Pd  Pd25  1  0.75000000  0.50000000  0.95813000  1.0
  Pd  Pd26  1  0.25000000  0.75000000  0.87440000  1.0
  Pd  Pd27  1  0.25000000  0.25000000  0.87440000  1.0
  Pd  Pd28  1  0.73681000  0.49949000  0.12239000  1.0
  Pd  Pd29  1  0.73699000  0.00054000  0.12243000  1.0
  Pd  Pd30  1  0.23114000  0.25005000  0.04357000  1.0
  Pd  Pd31  1  0.24016000  0.75010000  0.04617000  1.0
  C  C32  1  0.37665000  0.74969000  0.19071000  1.0
  O  O33  1  0.31900000  0.74945000  0.23264000  1.0
