# generated using pymatgen
data_Ti8Al8Ni16C
_symmetry_space_group_name_H-M   'P 1'
_cell_length_a   8.36280000
_cell_length_b   5.91339000
_cell_length_c   26.27210000
_cell_angle_alpha   90.00000000
_cell_angle_beta   90.00000000
_cell_angle_gamma   90.00000000
_symmetry_Int_Tables_number   1
_chemical_formula_structural   Ti8Al8Ni16C
_chemical_formula_sum   'Ti8 Al8 Ni16 C1'
_cell_volume   1299.22096987
_cell_formula_units_Z   1
loop_
 _symmetry_equiv_pos_site_id
 _symmetry_equiv_pos_as_xyz
  1  'x, y, z'
loop_
 _atom_site_type_symbol
 _atom_site_label
 _atom_site_symmetry_multiplicity
 _atom_site_fract_x
 _atom_site_fract_y
 _atom_site_fract_z
 _atom_site_occupancy
  Ti  Ti0  1  0.75000000  0.00000000  0.11937000  1.0
  Ti  Ti1  1  0.00000000  0.50000000  0.03979000  1.0
  Ti  Ti2  1  0.50000000  0.50000000  0.03979000  1.0
  Ti  Ti3  1  0.25000000  0.00000000  0.11937000  1.0
  Ti  Ti4  1  0.25355000  0.00304000  0.95955000  1.0
  Ti  Ti5  1  0.50000000  0.49137000  0.87922000  1.0
  Ti  Ti6  1  0.00000000  0.53392000  0.88061000  1.0
  Ti  Ti7  1  0.74645000  0.00304000  0.95955000  1.0
  Al  Al8  1  0.50000000  0.00000000  0.03979000  1.0
  Al  Al9  1  0.75000000  0.50000000  0.11937000  1.0
  Al  Al10  1  0.00000000  0.00000000  0.03979000  1.0
  Al  Al11  1  0.25000000  0.50000000  0.11937000  1.0
  Al  Al12  1  0.00000000  0.96433000  0.87953000  1.0
  Al  Al13  1  0.24765000  0.49640000  0.95907000  1.0
  Al  Al14  1  0.50000000  0.00706000  0.88067000  1.0
  Al  Al15  1  0.75235000  0.49640000  0.95907000  1.0
  Ni  Ni16  1  0.75000000  0.25000000  0.03979000  1.0
  Ni  Ni17  1  0.25000000  0.75000000  0.03979000  1.0
  Ni  Ni18  1  0.75000000  0.75000000  0.03979000  1.0
  Ni  Ni19  1  0.25000000  0.25000000  0.03979000  1.0
  Ni  Ni20  1  0.50000000  0.75000000  0.11937000  1.0
  Ni  Ni21  1  0.00000000  0.25000000  0.11937000  1.0
  Ni  Ni22  1  0.50000000  0.25000000  0.11937000  1.0
  Ni  Ni23  1  0.00000000  0.75000000  0.11937000  1.0
  Ni  Ni24  1  0.23366000  0.23667000  0.87908000  1.0
  Ni  Ni25  1  0.73955000  0.75381000  0.88637000  1.0
  Ni  Ni26  1  0.26045000  0.75381000  0.88637000  1.0
  Ni  Ni27  1  0.76634000  0.23667000  0.87908000  1.0
  Ni  Ni28  1  0.00000000  0.75367000  0.96373000  1.0
  Ni  Ni29  1  0.50000000  0.26659000  0.96057000  1.0
  Ni  Ni30  1  0.00000000  0.25018000  0.96111000  1.0
  Ni  Ni31  1  0.50000000  0.73754000  0.95795000  1.0
  C  C32  1  0.00000000  0.25040000  0.84887000  1.0
