data_image0
_chemical_formula_structural       Mn8V4Ga4
_chemical_formula_sum              "Mn8 V4 Ga4"
_cell_length_a       5.83886
_cell_length_b       5.83886
_cell_length_c       24.3791
_cell_angle_alpha    90
_cell_angle_beta     90
_cell_angle_gamma    90

_space_group_name_H-M_alt    "P 1"
_space_group_IT_number       1

loop_
  _space_group_symop_operation_xyz
  'x, y, z'

loop_
  _atom_site_type_symbol
  _atom_site_label
  _atom_site_symmetry_multiplicity
  _atom_site_fract_x
  _atom_site_fract_y
  _atom_site_fract_z
  _atom_site_occupancy
  Mn  Mn1       1.0  0.25000  0.25000  0.02994  1.0000
  Mn  Mn2       1.0  0.75000  0.75000  0.91019  1.0000
  Mn  Mn3       1.0  0.75000  0.25000  0.02994  1.0000
  Mn  Mn4       1.0  0.25000  0.75000  0.91019  1.0000
  Mn  Mn5       1.0  0.75000  0.75000  0.02994  1.0000
  Mn  Mn6       1.0  0.25000  0.25000  0.91019  1.0000
  Mn  Mn7       1.0  0.25000  0.75000  0.02994  1.0000
  Mn  Mn8       1.0  0.75000  0.25000  0.91019  1.0000
  V   V1        1.0  0.00000  0.00000  0.08981  1.0000
  V   V2        1.0  0.50000  0.50000  0.08981  1.0000
  V   V3        1.0  0.50000  0.00000  0.97006  1.0000
  V   V4        1.0  0.00000  0.50000  0.97006  1.0000
  Ga  Ga1       1.0  0.00000  0.00000  0.97006  1.0000
  Ga  Ga2       1.0  0.50000  0.00000  0.08981  1.0000
  Ga  Ga3       1.0  0.00000  0.50000  0.08981  1.0000
  Ga  Ga4       1.0  0.50000  0.50000  0.97006  1.0000
