# generated using pymatgen
data_Li8Ni16Sn8CO
_symmetry_space_group_name_H-M   Pmm2
_cell_length_a   6.04935000
_cell_length_b   8.55507000
_cell_length_c   26.41630000
_cell_angle_alpha   90.00000000
_cell_angle_beta   90.00000000
_cell_angle_gamma   90.00000000
_symmetry_Int_Tables_number   25
_chemical_formula_structural   Li8Ni16Sn8CO
_chemical_formula_sum   'Li8 Ni16 Sn8 C1 O1'
_cell_volume   1367.11254299
_cell_formula_units_Z   1
loop_
 _symmetry_equiv_pos_site_id
 _symmetry_equiv_pos_as_xyz
  1  'x, y, z'
  2  '-x, -y, z'
  3  '-x, y, z'
  4  'x, -y, z'
loop_
 _atom_site_type_symbol
 _atom_site_label
 _atom_site_symmetry_multiplicity
 _atom_site_fract_x
 _atom_site_fract_y
 _atom_site_fract_z
 _atom_site_occupancy
  Li  Li0  2  0.00000000  0.24768000  0.03434000  1.0
  Li  Li1  2  0.00000000  0.25001000  0.87855000  1.0
  Li  Li2  1  0.50000000  0.00000000  0.13099000  1.0
  Li  Li3  1  0.50000000  0.00000000  0.95952000  1.0
  Li  Li4  1  0.50000000  0.50000000  0.12789000  1.0
  Li  Li5  1  0.50000000  0.50000000  0.95952000  1.0
  Ni  Ni6  4  0.21452000  0.25151000  0.11093000  1.0
  Ni  Ni7  4  0.25000000  0.25001000  0.95952000  1.0
  Ni  Ni8  2  0.23771000  0.50000000  0.04373000  1.0
  Ni  Ni9  2  0.24453000  0.00000000  0.04322000  1.0
  Ni  Ni10  2  0.25000000  0.00000000  0.87855000  1.0
  Ni  Ni11  2  0.25000000  0.50000000  0.87855000  1.0
  Sn  Sn12  2  0.50000000  0.25001000  0.87855000  1.0
  Sn  Sn13  2  0.50000000  0.25126000  0.04013000  1.0
  Sn  Sn14  1  0.00000000  0.00000000  0.12841000  1.0
  Sn  Sn15  1  0.00000000  0.00000000  0.95952000  1.0
  Sn  Sn16  1  0.00000000  0.50000000  0.13186000  1.0
  Sn  Sn17  1  0.00000000  0.50000000  0.95952000  1.0
  C  C18  1  0.50000000  0.00000000  0.21243000  1.0
  O  O19  1  0.50000000  0.00000000  0.25553000  1.0
