# generated using pymatgen
data_Li8Hf8Ge8Pd8CO
_symmetry_space_group_name_H-M   'P 1'
_cell_length_a   9.08784000
_cell_length_b   6.42607000
_cell_length_c   26.81590000
_cell_angle_alpha   90.00000000
_cell_angle_beta   90.00000000
_cell_angle_gamma   90.00000000
_symmetry_Int_Tables_number   1
_chemical_formula_structural   Li8Hf8Ge8Pd8CO
_chemical_formula_sum   'Li8 Hf8 Ge8 Pd8 C1 O1'
_cell_volume   1566.02431813
_cell_formula_units_Z   1
loop_
 _symmetry_equiv_pos_site_id
 _symmetry_equiv_pos_as_xyz
  1  'x, y, z'
loop_
 _atom_site_type_symbol
 _atom_site_label
 _atom_site_symmetry_multiplicity
 _atom_site_fract_x
 _atom_site_fract_y
 _atom_site_fract_z
 _atom_site_occupancy
  Li  Li0  1  0.00000000  0.25000000  0.04236000  1.0
  Li  Li1  1  0.50000000  0.25000000  0.04236000  1.0
  Li  Li2  1  0.25000000  0.75000000  0.12709000  1.0
  Li  Li3  1  0.75000000  0.75000000  0.12709000  1.0
  Li  Li4  1  0.50000000  0.23867000  0.86258000  1.0
  Li  Li5  1  0.00000000  0.23681000  0.86251000  1.0
  Li  Li6  1  0.75462000  0.74183000  0.95907000  1.0
  Li  Li7  1  0.24538000  0.74183000  0.95907000  1.0
  Hf  Hf8  1  0.00000000  0.75000000  0.04236000  1.0
  Hf  Hf9  1  0.50000000  0.75000000  0.04236000  1.0
  Hf  Hf10  1  0.25000000  0.25000000  0.12709000  1.0
  Hf  Hf11  1  0.75000000  0.25000000  0.12709000  1.0
  Hf  Hf12  1  0.50000000  0.72242000  0.87174000  1.0
  Hf  Hf13  1  0.00000000  0.72306000  0.87795000  1.0
  Hf  Hf14  1  0.74225000  0.24934000  0.95377000  1.0
  Hf  Hf15  1  0.25775000  0.24934000  0.95377000  1.0
  Ge  Ge16  1  0.00000000  0.00000000  0.12709000  1.0
  Ge  Ge17  1  0.50000000  0.00000000  0.12709000  1.0
  Ge  Ge18  1  0.75000000  0.50000000  0.04236000  1.0
  Ge  Ge19  1  0.25000000  0.50000000  0.04236000  1.0
  Ge  Ge20  1  0.50000000  0.98048000  0.95231000  1.0
  Ge  Ge21  1  0.00000000  0.01073000  0.95493000  1.0
  Ge  Ge22  1  0.25048000  0.48611000  0.86483000  1.0
  Ge  Ge23  1  0.74952000  0.48611000  0.86483000  1.0
  Pd  Pd24  1  0.25000000  0.00000000  0.04236000  1.0
  Pd  Pd25  1  0.75000000  0.00000000  0.04236000  1.0
  Pd  Pd26  1  0.50000000  0.50000000  0.12709000  1.0
  Pd  Pd27  1  0.00000000  0.50000000  0.12709000  1.0
  Pd  Pd28  1  0.74633000  0.96919000  0.87903000  1.0
  Pd  Pd29  1  0.25367000  0.96919000  0.87903000  1.0
  Pd  Pd30  1  0.00000000  0.46694000  0.96156000  1.0
  Pd  Pd31  1  0.50000000  0.51414000  0.95709000  1.0
  C  C32  1  0.00000000  0.72750000  0.79542000  1.0
  O  O33  1  0.00000000  0.73001000  0.75229000  1.0
