# generated using pymatgen
data_Fe16Rh16CO
_symmetry_space_group_name_H-M   P1
_cell_length_a   6.04788000
_cell_length_b   8.55299000
_cell_length_c   26.41470000
_cell_angle_alpha   90.00000000
_cell_angle_beta   90.00000000
_cell_angle_gamma   90.00000000
_symmetry_Int_Tables_number   1
_chemical_formula_structural   Fe16Rh16CO
_chemical_formula_sum   'Fe16 Rh16 C1 O1'
_cell_volume   1366.36526268
_cell_formula_units_Z   1
loop_
 _symmetry_equiv_pos_site_id
 _symmetry_equiv_pos_as_xyz
  1  'x, y, z'
loop_
 _atom_site_type_symbol
 _atom_site_label
 _atom_site_symmetry_multiplicity
 _atom_site_fract_x
 _atom_site_fract_y
 _atom_site_fract_z
 _atom_site_occupancy
  Fe  Fe0  1  0.00000000  0.00000000  0.87858000  1.0
  Fe  Fe1  1  0.00000000  0.25000000  0.95953000  1.0
  Fe  Fe2  1  0.00000000  0.50000000  0.87858000  1.0
  Fe  Fe3  1  0.00000000  0.75000000  0.95953000  1.0
  Fe  Fe4  1  0.00216000  0.50007000  0.04090000  1.0
  Fe  Fe5  1  0.49790000  0.50007000  0.04090000  1.0
  Fe  Fe6  1  0.50000000  0.00000000  0.87858000  1.0
  Fe  Fe7  1  0.50000000  0.25000000  0.95953000  1.0
  Fe  Fe8  1  0.50000000  0.50000000  0.87858000  1.0
  Fe  Fe9  1  0.50000000  0.75000000  0.95953000  1.0
  Fe  Fe10  1  0.50178000  0.99994000  0.04112000  1.0
  Fe  Fe11  1  0.50554000  0.74750000  0.12367000  1.0
  Fe  Fe12  1  0.50559000  0.25247000  0.12367000  1.0
  Fe  Fe13  1  0.99458000  0.25251000  0.12369000  1.0
  Fe  Fe14  1  0.99463000  0.74746000  0.12369000  1.0
  Fe  Fe15  1  0.99829000  0.99994000  0.04111000  1.0
  Rh  Rh16  1  0.24988000  0.00005000  0.12448000  1.0
  Rh  Rh17  1  0.25000000  0.00000000  0.95953000  1.0
  Rh  Rh18  1  0.25000000  0.25000000  0.87858000  1.0
  Rh  Rh19  1  0.25000000  0.50000000  0.95953000  1.0
  Rh  Rh20  1  0.25000000  0.75000000  0.87858000  1.0
  Rh  Rh21  1  0.25005000  0.75504000  0.04218000  1.0
  Rh  Rh22  1  0.25006000  0.24497000  0.04219000  1.0
  Rh  Rh23  1  0.25011000  0.49996000  0.11752000  1.0
  Rh  Rh24  1  0.74997000  0.00004000  0.11793000  1.0
  Rh  Rh25  1  0.74998000  0.50000000  0.11752000  1.0
  Rh  Rh26  1  0.75000000  0.00000000  0.95953000  1.0
  Rh  Rh27  1  0.75000000  0.25000000  0.87858000  1.0
  Rh  Rh28  1  0.75000000  0.50000000  0.95953000  1.0
  Rh  Rh29  1  0.75000000  0.75000000  0.87858000  1.0
  Rh  Rh30  1  0.75001000  0.25069000  0.04119000  1.0
  Rh  Rh31  1  0.75001000  0.74929000  0.04119000  1.0
  C  C32  1  0.24877000  0.00000000  0.19532000  1.0
  O  O33  1  0.24854000  0.99999000  0.23919000  1.0
