# generated using pymatgen
data_Li8Hf8In8Pd8CO
_symmetry_space_group_name_H-M   'P 1'
_cell_length_a   6.51419000
_cell_length_b   9.21246000
_cell_length_c   26.90930000
_cell_angle_alpha   90.00000000
_cell_angle_beta   90.00000000
_cell_angle_gamma   90.00000000
_symmetry_Int_Tables_number   1
_chemical_formula_structural   Li8Hf8In8Pd8CO
_chemical_formula_sum   'Li8 Hf8 In8 Pd8 C1 O1'
_cell_volume   1614.87323727
_cell_formula_units_Z   1
loop_
 _symmetry_equiv_pos_site_id
 _symmetry_equiv_pos_as_xyz
  1  'x, y, z'
loop_
 _atom_site_type_symbol
 _atom_site_label
 _atom_site_symmetry_multiplicity
 _atom_site_fract_x
 _atom_site_fract_y
 _atom_site_fract_z
 _atom_site_occupancy
  Li  Li0  1  0.75000000  0.00000000  0.95721000  1.0
  Li  Li1  1  0.75000000  0.50000000  0.95721000  1.0
  Li  Li2  1  0.25000000  0.25000000  0.87162000  1.0
  Li  Li3  1  0.25000000  0.75000000  0.87162000  1.0
  Li  Li4  1  0.81585000  0.50000000  0.17451000  1.0
  Li  Li5  1  0.84775000  0.00000000  0.17499000  1.0
  Li  Li6  1  0.24273000  0.75016000  0.04497000  1.0
  Li  Li7  1  0.24274000  0.24986000  0.04497000  1.0
  Hf  Hf8  1  0.00000000  0.00000000  0.87162000  1.0
  Hf  Hf9  1  0.00000000  0.50000000  0.87162000  1.0
  Hf  Hf10  1  0.50000000  0.75000000  0.95721000  1.0
  Hf  Hf11  1  0.50000000  0.25000000  0.95721000  1.0
  Hf  Hf12  1  0.99153000  0.50001000  0.04814000  1.0
  Hf  Hf13  1  0.99268000  0.00004000  0.04871000  1.0
  Hf  Hf14  1  0.52372000  0.25330000  0.12427000  1.0
  Hf  Hf15  1  0.52372000  0.74668000  0.12428000  1.0
  In  In16  1  0.00000000  0.25000000  0.95721000  1.0
  In  In17  1  0.00000000  0.75000000  0.95721000  1.0
  In  In18  1  0.50000000  0.50000000  0.87162000  1.0
  In  In19  1  0.50000000  0.00000000  0.87162000  1.0
  In  In20  1  0.99922000  0.74651000  0.13365000  1.0
  In  In21  1  0.99923000  0.25350000  0.13366000  1.0
  In  In22  1  0.49991000  0.00000000  0.04286000  1.0
  In  In23  1  0.50450000  0.49998000  0.04145000  1.0
  Pd  Pd24  1  0.25000000  0.00000000  0.95721000  1.0
  Pd  Pd25  1  0.25000000  0.50000000  0.95721000  1.0
  Pd  Pd26  1  0.75000000  0.25000000  0.87162000  1.0
  Pd  Pd27  1  0.75000000  0.75000000  0.87162000  1.0
  Pd  Pd28  1  0.27344000  0.49998000  0.12545000  1.0
  Pd  Pd29  1  0.27481000  0.99999000  0.13108000  1.0
  Pd  Pd30  1  0.75166000  0.75051000  0.04165000  1.0
  Pd  Pd31  1  0.75164000  0.24950000  0.04165000  1.0
  C  C32  1  0.38433000  0.99998000  0.19872000  1.0
  O  O33  1  0.41871000  0.99998000  0.24133000  1.0
