# generated using pymatgen
data_Li24Au8CO
_symmetry_space_group_name_H-M   Pm
_cell_length_a   6.35005000
_cell_length_b   8.98033000
_cell_length_c   26.73520000
_cell_angle_alpha   90.00000000
_cell_angle_beta   90.00000000
_cell_angle_gamma   90.00000000
_symmetry_Int_Tables_number   6
_chemical_formula_structural   Li24Au8CO
_chemical_formula_sum   'Li24 Au8 C1 O1'
_cell_volume   1524.58933776
_cell_formula_units_Z   1
loop_
 _symmetry_equiv_pos_site_id
 _symmetry_equiv_pos_as_xyz
  1  'x, y, z'
  2  'x, -y, z'
loop_
 _atom_site_type_symbol
 _atom_site_label
 _atom_site_symmetry_multiplicity
 _atom_site_fract_x
 _atom_site_fract_y
 _atom_site_fract_z
 _atom_site_occupancy
  Li  Li0  2  -0.00000000  0.25000000  0.95801000  1.0
  Li  Li1  2  0.24988000  0.24945000  0.03882000  1.0
  Li  Li2  2  0.25000000  0.25000000  0.87404000  1.0
  Li  Li3  2  0.75000000  0.25000000  0.87404000  1.0
  Li  Li4  2  0.75046000  0.24975000  0.03860000  1.0
  Li  Li5  2  0.99929000  0.24966000  0.11848000  1.0
  Li  Li6  1  0.25000000  0.00000000  0.95801000  1.0
  Li  Li7  1  0.25000000  0.50000000  0.95801000  1.0
  Li  Li8  1  0.26305000  0.00000000  0.13256000  1.0
  Li  Li9  1  0.26764000  0.50000000  0.13115000  1.0
  Li  Li10  1  0.49816000  0.00000000  0.04217000  1.0
  Li  Li11  1  0.50000000  0.00000000  0.87404000  1.0
  Li  Li12  1  0.50000000  0.50000000  0.87404000  1.0
  Li  Li13  1  0.50064000  0.50000000  0.04166000  1.0
  Li  Li14  1  0.72712000  0.00000000  0.13214000  1.0
  Li  Li15  1  0.73341000  0.50000000  0.13226000  1.0
  Li  Li16  1  0.75000000  0.00000000  0.95801000  1.0
  Li  Li17  1  0.75000000  0.50000000  0.95801000  1.0
  Au  Au18  2  0.50000000  0.25000000  0.95801000  1.0
  Au  Au19  2  0.50266000  0.25132000  0.11670000  1.0
  Au  Au20  1  -0.00000000  0.50000000  0.87404000  1.0
  Au  Au21  1  0.00000000  0.00000000  0.87404000  1.0
  Au  Au22  1  0.99799000  0.50000000  0.04725000  1.0
  Au  Au23  1  0.99969000  0.00000000  0.04665000  1.0
  C  C24  1  0.22672000  0.00000000  0.20909000  1.0
  O  O25  1  0.21605000  0.00000000  0.25193000  1.0
