# generated using pymatgen
data_Y16Zn16C
_symmetry_space_group_name_H-M   'P 1'
_cell_length_a   7.16718000
_cell_length_b   10.13590000
_cell_length_c   27.60190000
_cell_angle_alpha   90.00000000
_cell_angle_beta   90.00000000
_cell_angle_gamma   90.00000000
_symmetry_Int_Tables_number   1
_chemical_formula_structural   Y16Zn16C
_chemical_formula_sum   'Y16 Zn16 C1'
_cell_volume   2005.16265249
_cell_formula_units_Z   1
loop_
 _symmetry_equiv_pos_site_id
 _symmetry_equiv_pos_as_xyz
  1  'x, y, z'
loop_
 _atom_site_type_symbol
 _atom_site_label
 _atom_site_symmetry_multiplicity
 _atom_site_fract_x
 _atom_site_fract_y
 _atom_site_fract_z
 _atom_site_occupancy
  Y  Y0  1  0.00000000  0.00000000  0.86229000  1.0
  Y  Y1  1  0.00000000  0.25000000  0.95410000  1.0
  Y  Y2  1  0.00000000  0.00000000  0.04622000  1.0
  Y  Y3  1  0.00000000  0.22975000  0.13753000  1.0
  Y  Y4  1  0.00000000  0.50000000  0.86229000  1.0
  Y  Y5  1  0.00000000  0.75000000  0.95410000  1.0
  Y  Y6  1  0.00000000  0.50000000  0.04458000  1.0
  Y  Y7  1  0.00000000  0.77025000  0.13753000  1.0
  Y  Y8  1  0.50000000  0.00000000  0.86229000  1.0
  Y  Y9  1  0.50000000  0.25000000  0.95410000  1.0
  Y  Y10  1  0.50000000  0.00000000  0.04365000  1.0
  Y  Y11  1  0.50000000  0.26641000  0.13401000  1.0
  Y  Y12  1  0.50000000  0.50000000  0.86229000  1.0
  Y  Y13  1  0.50000000  0.75000000  0.95410000  1.0
  Y  Y14  1  0.50000000  0.50000000  0.04308000  1.0
  Y  Y15  1  0.50000000  0.73359000  0.13401000  1.0
  Zn  Zn16  1  0.25000000  0.25000000  0.86229000  1.0
  Zn  Zn17  1  0.25000000  0.00000000  0.95410000  1.0
  Zn  Zn18  1  0.24933000  0.25268000  0.04515000  1.0
  Zn  Zn19  1  0.23324000  0.50000000  0.13544000  1.0
  Zn  Zn20  1  0.25000000  0.75000000  0.86229000  1.0
  Zn  Zn21  1  0.25000000  0.50000000  0.95410000  1.0
  Zn  Zn22  1  0.24933000  0.74732000  0.04515000  1.0
  Zn  Zn23  1  0.28769000  0.00000000  0.13587000  1.0
  Zn  Zn24  1  0.75000000  0.25000000  0.86229000  1.0
  Zn  Zn25  1  0.75000000  0.00000000  0.95410000  1.0
  Zn  Zn26  1  0.75067000  0.25268000  0.04515000  1.0
  Zn  Zn27  1  0.76676000  0.50000000  0.13544000  1.0
  Zn  Zn28  1  0.75000000  0.75000000  0.86229000  1.0
  Zn  Zn29  1  0.75000000  0.50000000  0.95410000  1.0
  Zn  Zn30  1  0.75067000  0.74732000  0.04515000  1.0
  Zn  Zn31  1  0.71231000  0.00000000  0.13587000  1.0
  C  C32  1  0.00000000  0.00000000  0.13464000  1.0
