# generated using pymatgen
data_Y16Zn16C
_symmetry_space_group_name_H-M   Pmm2
_cell_length_a   7.16718000
_cell_length_b   10.13590000
_cell_length_c   27.60190000
_cell_angle_alpha   90.00000000
_cell_angle_beta   90.00000000
_cell_angle_gamma   90.00000000
_symmetry_Int_Tables_number   25
_chemical_formula_structural   Y16Zn16C
_chemical_formula_sum   'Y16 Zn16 C1'
_cell_volume   2005.16265249
_cell_formula_units_Z   1
loop_
 _symmetry_equiv_pos_site_id
 _symmetry_equiv_pos_as_xyz
  1  'x, y, z'
  2  '-x, -y, z'
  3  '-x, y, z'
  4  'x, -y, z'
loop_
 _atom_site_type_symbol
 _atom_site_label
 _atom_site_symmetry_multiplicity
 _atom_site_fract_x
 _atom_site_fract_y
 _atom_site_fract_z
 _atom_site_occupancy
  Y  Y0  2  0.00000000  0.22975000  0.13753000  1.0
  Y  Y1  2  0.00000000  0.25000000  0.95410000  1.0
  Y  Y2  2  0.50000000  0.25000000  0.95410000  1.0
  Y  Y3  2  0.50000000  0.26641000  0.13401000  1.0
  Y  Y4  1  0.00000000  0.00000000  0.04622000  1.0
  Y  Y5  1  0.00000000  0.00000000  0.86229000  1.0
  Y  Y6  1  0.00000000  0.50000000  0.04458000  1.0
  Y  Y7  1  0.00000000  0.50000000  0.86229000  1.0
  Y  Y8  1  0.50000000  0.00000000  0.04365000  1.0
  Y  Y9  1  0.50000000  0.00000000  0.86229000  1.0
  Y  Y10  1  0.50000000  0.50000000  0.04308000  1.0
  Y  Y11  1  0.50000000  0.50000000  0.86229000  1.0
  Zn  Zn12  4  0.24933000  0.25268000  0.04515000  1.0
  Zn  Zn13  4  0.25000000  0.25000000  0.86229000  1.0
  Zn  Zn14  2  0.23324000  0.50000000  0.13544000  1.0
  Zn  Zn15  2  0.25000000  0.00000000  0.95410000  1.0
  Zn  Zn16  2  0.25000000  0.50000000  0.95410000  1.0
  Zn  Zn17  2  0.28769000  0.00000000  0.13587000  1.0
  C  C18  1  0.00000000  0.00000000  0.13464000  1.0
