# generated using pymatgen
data_Li16Al8Rh8C
_symmetry_space_group_name_H-M   'P 1'
_cell_length_a   8.51164000
_cell_length_b   6.01864000
_cell_length_c   26.38370000
_cell_angle_alpha   90.00000000
_cell_angle_beta   90.00000000
_cell_angle_gamma   90.00000000
_symmetry_Int_Tables_number   1
_chemical_formula_structural   Li16Al8Rh8C
_chemical_formula_sum   'Li16 Al8 Rh8 C1'
_cell_volume   1351.59729550
_cell_formula_units_Z   1
loop_
 _symmetry_equiv_pos_site_id
 _symmetry_equiv_pos_as_xyz
  1  'x, y, z'
loop_
 _atom_site_type_symbol
 _atom_site_label
 _atom_site_symmetry_multiplicity
 _atom_site_fract_x
 _atom_site_fract_y
 _atom_site_fract_z
 _atom_site_occupancy
  Li  Li0  1  0.75000000  0.00000000  0.04033000  1.0
  Li  Li1  1  0.00000000  0.50000000  0.12098000  1.0
  Li  Li2  1  0.25000000  0.00000000  0.04033000  1.0
  Li  Li3  1  0.50000000  0.50000000  0.12098000  1.0
  Li  Li4  1  0.25000000  0.25000000  0.12098000  1.0
  Li  Li5  1  0.75000000  0.25000000  0.12098000  1.0
  Li  Li6  1  0.50000000  0.75000000  0.04033000  1.0
  Li  Li7  1  0.00000000  0.75000000  0.04033000  1.0
  Li  Li8  1  0.27478000  0.02850000  0.86505000  1.0
  Li  Li9  1  0.50000000  0.50995000  0.96422000  1.0
  Li  Li10  1  0.72522000  0.02850000  0.86505000  1.0
  Li  Li11  1  0.00000000  0.50741000  0.95445000  1.0
  Li  Li12  1  0.75572000  0.24311000  0.95880000  1.0
  Li  Li13  1  0.24428000  0.24311000  0.95880000  1.0
  Li  Li14  1  0.00000000  0.79766000  0.85038000  1.0
  Li  Li15  1  0.50000000  0.72537000  0.87738000  1.0
  Al  Al16  1  0.00000000  0.00000000  0.12098000  1.0
  Al  Al17  1  0.25000000  0.50000000  0.04033000  1.0
  Al  Al18  1  0.75000000  0.50000000  0.04033000  1.0
  Al  Al19  1  0.50000000  0.00000000  0.12098000  1.0
  Al  Al20  1  0.50000000  0.00296000  0.95818000  1.0
  Al  Al21  1  0.77095000  0.48695000  0.87680000  1.0
  Al  Al22  1  0.22905000  0.48695000  0.87680000  1.0
  Al  Al23  1  0.00000000  0.98336000  0.96586000  1.0
  Rh  Rh24  1  0.00000000  0.25000000  0.04033000  1.0
  Rh  Rh25  1  0.50000000  0.25000000  0.04033000  1.0
  Rh  Rh26  1  0.75000000  0.75000000  0.12098000  1.0
  Rh  Rh27  1  0.25000000  0.75000000  0.12098000  1.0
  Rh  Rh28  1  0.50000000  0.29350000  0.88859000  1.0
  Rh  Rh29  1  0.00000000  0.18027000  0.88624000  1.0
  Rh  Rh30  1  0.25067000  0.76025000  0.95387000  1.0
  Rh  Rh31  1  0.74933000  0.76025000  0.95387000  1.0
  C  C32  1  0.00000000  0.48014000  0.86136000  1.0
