# generated using pymatgen
data_Li16Al8Rh8C
_symmetry_space_group_name_H-M   Pm
_cell_length_a   6.01864000
_cell_length_b   8.51164000
_cell_length_c   26.38370000
_cell_angle_alpha   90.00000000
_cell_angle_beta   90.00000000
_cell_angle_gamma   90.00000000
_symmetry_Int_Tables_number   6
_chemical_formula_structural   Li16Al8Rh8C
_chemical_formula_sum   'Li16 Al8 Rh8 C1'
_cell_volume   1351.59729550
_cell_formula_units_Z   1
loop_
 _symmetry_equiv_pos_site_id
 _symmetry_equiv_pos_as_xyz
  1  'x, y, z'
  2  'x, -y, z'
loop_
 _atom_site_type_symbol
 _atom_site_label
 _atom_site_symmetry_multiplicity
 _atom_site_fract_x
 _atom_site_fract_y
 _atom_site_fract_z
 _atom_site_occupancy
  Li  Li0  2  0.00000000  0.25000000  0.95967000  1.0
  Li  Li1  2  0.02850000  0.27478000  0.13495000  1.0
  Li  Li2  2  0.24311000  0.24428000  0.04120000  1.0
  Li  Li3  2  0.25000000  0.25000000  0.87902000  1.0
  Li  Li4  1  0.50000000  0.00000000  0.87902000  1.0
  Li  Li5  1  0.50000000  0.50000000  0.87902000  1.0
  Li  Li6  1  0.50741000  0.00000000  0.04555000  1.0
  Li  Li7  1  0.50995000  0.50000000  0.03578000  1.0
  Li  Li8  1  0.72537000  0.50000000  0.12262000  1.0
  Li  Li9  1  0.75000000  0.00000000  0.95967000  1.0
  Li  Li10  1  0.75000000  0.50000000  0.95967000  1.0
  Li  Li11  1  0.79766000  0.00000000  0.14962000  1.0
  Al  Al12  2  0.48695000  0.22905000  0.12320000  1.0
  Al  Al13  2  0.50000000  0.25000000  0.95967000  1.0
  Al  Al14  1  0.00000000  0.00000000  0.87902000  1.0
  Al  Al15  1  0.00000000  0.50000000  0.87902000  1.0
  Al  Al16  1  0.00296000  0.50000000  0.04182000  1.0
  Al  Al17  1  0.98336000  0.00000000  0.03414000  1.0
  Rh  Rh18  2  0.75000000  0.25000000  0.87902000  1.0
  Rh  Rh19  2  0.76025000  0.25067000  0.04613000  1.0
  Rh  Rh20  1  0.18027000  0.00000000  0.11376000  1.0
  Rh  Rh21  1  0.25000000  0.00000000  0.95967000  1.0
  Rh  Rh22  1  0.25000000  0.50000000  0.95967000  1.0
  Rh  Rh23  1  0.29350000  0.50000000  0.11141000  1.0
  C  C24  1  0.48014000  0.00000000  0.13864000  1.0
