# generated using pymatgen
data_In8Ni24C
_symmetry_space_group_name_H-M   'P 1'
_cell_length_a   7.54029000
_cell_length_b   7.54029000
_cell_length_c   25.65520000
_cell_angle_alpha   90.00000000
_cell_angle_beta   90.00000000
_cell_angle_gamma   90.00000000
_symmetry_Int_Tables_number   1
_chemical_formula_structural   In8Ni24C
_chemical_formula_sum   'In8 Ni24 C1'
_cell_volume   1458.65136580
_cell_formula_units_Z   1
loop_
 _symmetry_equiv_pos_site_id
 _symmetry_equiv_pos_as_xyz
  1  'x, y, z'
loop_
 _atom_site_type_symbol
 _atom_site_label
 _atom_site_symmetry_multiplicity
 _atom_site_fract_x
 _atom_site_fract_y
 _atom_site_fract_z
 _atom_site_occupancy
  In  In0  1  0.00000000  0.00000000  0.88978000  1.0
  In  In1  1  0.00000000  0.00000000  0.03674000  1.0
  In  In2  1  0.00000000  0.50000000  0.88978000  1.0
  In  In3  1  0.00000000  0.50000000  0.03674000  1.0
  In  In4  1  0.50000000  0.00000000  0.88978000  1.0
  In  In5  1  0.50000000  0.00000000  0.03674000  1.0
  In  In6  1  0.50000000  0.50000000  0.88978000  1.0
  In  In7  1  0.50000000  0.50000000  0.03674000  1.0
  Ni  Ni8  1  0.00000000  0.25000000  0.96326000  1.0
  Ni  Ni9  1  0.25000000  0.00000000  0.96326000  1.0
  Ni  Ni10  1  0.25000000  0.25000000  0.88978000  1.0
  Ni  Ni11  1  0.00000000  0.25000000  0.11022000  1.0
  Ni  Ni12  1  0.25000000  0.00000000  0.11022000  1.0
  Ni  Ni13  1  0.25000000  0.25000000  0.03674000  1.0
  Ni  Ni14  1  0.00000000  0.75000000  0.96326000  1.0
  Ni  Ni15  1  0.25000000  0.50000000  0.96326000  1.0
  Ni  Ni16  1  0.25000000  0.75000000  0.88978000  1.0
  Ni  Ni17  1  0.00000000  0.75000000  0.11022000  1.0
  Ni  Ni18  1  0.25000000  0.50000000  0.11022000  1.0
  Ni  Ni19  1  0.25000000  0.75000000  0.03674000  1.0
  Ni  Ni20  1  0.50000000  0.25000000  0.96326000  1.0
  Ni  Ni21  1  0.75000000  0.00000000  0.96326000  1.0
  Ni  Ni22  1  0.75000000  0.25000000  0.88978000  1.0
  Ni  Ni23  1  0.50000000  0.25000000  0.11022000  1.0
  Ni  Ni24  1  0.75000000  0.00000000  0.11022000  1.0
  Ni  Ni25  1  0.75000000  0.25000000  0.03674000  1.0
  Ni  Ni26  1  0.50000000  0.75000000  0.96326000  1.0
  Ni  Ni27  1  0.75000000  0.50000000  0.96326000  1.0
  Ni  Ni28  1  0.75000000  0.75000000  0.88978000  1.0
  Ni  Ni29  1  0.50000000  0.75000000  0.11022000  1.0
  Ni  Ni30  1  0.75000000  0.50000000  0.11022000  1.0
  Ni  Ni31  1  0.75000000  0.75000000  0.03674000  1.0
  C  C32  1  0.00000000  0.00000000  0.14140000  1.0
