# generated using pymatgen
data_Hf4Rh12C
_symmetry_space_group_name_H-M   Pmm2
_cell_length_a   5.58411000
_cell_length_b   7.89713000
_cell_length_c   24.18810000
_cell_angle_alpha   90.00000000
_cell_angle_beta   90.00000000
_cell_angle_gamma   90.00000000
_symmetry_Int_Tables_number   25
_chemical_formula_structural   Hf4Rh12C
_chemical_formula_sum   'Hf4 Rh12 C1'
_cell_volume   1066.65753956
_cell_formula_units_Z   1
loop_
 _symmetry_equiv_pos_site_id
 _symmetry_equiv_pos_as_xyz
  1  'x, y, z'
  2  '-x, -y, z'
  3  '-x, y, z'
  4  'x, -y, z'
loop_
 _atom_site_type_symbol
 _atom_site_label
 _atom_site_symmetry_multiplicity
 _atom_site_fract_x
 _atom_site_fract_y
 _atom_site_fract_z
 _atom_site_occupancy
  Hf  Hf0  1  0.00000000  0.00000000  0.08657000  1.0
  Hf  Hf1  1  0.00000000  0.50000000  0.08657000  1.0
  Hf  Hf2  1  0.50000000  0.00000000  0.97678000  1.0
  Hf  Hf3  1  0.50000000  0.50000000  0.97400000  1.0
  Rh  Rh4  4  0.24969000  0.19751000  0.91003000  1.0
  Rh  Rh5  4  0.25000000  0.24998000  0.02886000  1.0
  Rh  Rh6  1  0.00000000  0.00000000  0.97953000  1.0
  Rh  Rh7  1  0.00000000  0.50000000  0.96881000  1.0
  Rh  Rh8  1  0.50000000  0.00000000  0.08657000  1.0
  Rh  Rh9  1  0.50000000  0.50000000  0.08657000  1.0
  C  C10  1  0.00000000  0.00000000  0.89685000  1.0
