# generated using pymatgen
data_Li8Sn8Ge8Pd8CO
_symmetry_space_group_name_H-M   'P 1'
_cell_length_a   9.34812000
_cell_length_b   6.61012000
_cell_length_c   27.01110000
_cell_angle_alpha   90.00000000
_cell_angle_beta   90.00000000
_cell_angle_gamma   90.00000000
_symmetry_Int_Tables_number   1
_chemical_formula_structural   Li8Sn8Ge8Pd8CO
_chemical_formula_sum   'Li8 Sn8 Ge8 Pd8 C1 O1'
_cell_volume   1669.07515767
_cell_formula_units_Z   1
loop_
 _symmetry_equiv_pos_site_id
 _symmetry_equiv_pos_as_xyz
  1  'x, y, z'
loop_
 _atom_site_type_symbol
 _atom_site_label
 _atom_site_symmetry_multiplicity
 _atom_site_fract_x
 _atom_site_fract_y
 _atom_site_fract_z
 _atom_site_occupancy
  Li  Li0  1  0.75000000  0.75000000  0.04326000  1.0
  Li  Li1  1  0.25000000  0.75000000  0.04326000  1.0
  Li  Li2  1  0.00000000  0.25000000  0.12978000  1.0
  Li  Li3  1  0.50000000  0.25000000  0.12978000  1.0
  Li  Li4  1  0.25720000  0.70798000  0.86091000  1.0
  Li  Li5  1  0.74280000  0.70798000  0.86091000  1.0
  Li  Li6  1  0.50000000  0.21962000  0.95549000  1.0
  Li  Li7  1  0.00000000  0.24280000  0.95801000  1.0
  Sn  Sn8  1  0.00000000  0.00000000  0.04326000  1.0
  Sn  Sn9  1  0.50000000  0.00000000  0.04326000  1.0
  Sn  Sn10  1  0.25000000  0.50000000  0.12978000  1.0
  Sn  Sn11  1  0.75000000  0.50000000  0.12978000  1.0
  Sn  Sn12  1  0.50000000  0.02071000  0.85899000  1.0
  Sn  Sn13  1  0.00000000  0.00318000  0.86529000  1.0
  Sn  Sn14  1  0.74323000  0.51437000  0.95942000  1.0
  Sn  Sn15  1  0.25677000  0.51437000  0.95942000  1.0
  Ge  Ge16  1  0.75000000  0.00000000  0.12978000  1.0
  Ge  Ge17  1  0.25000000  0.00000000  0.12978000  1.0
  Ge  Ge18  1  0.50000000  0.50000000  0.04326000  1.0
  Ge  Ge19  1  0.00000000  0.50000000  0.04326000  1.0
  Ge  Ge20  1  0.24615000  0.97748000  0.95119000  1.0
  Ge  Ge21  1  0.75385000  0.97748000  0.95119000  1.0
  Ge  Ge22  1  0.00000000  0.46820000  0.87223000  1.0
  Ge  Ge23  1  0.50000000  0.46209000  0.87065000  1.0
  Pd  Pd24  1  0.75000000  0.25000000  0.04326000  1.0
  Pd  Pd25  1  0.25000000  0.25000000  0.04326000  1.0
  Pd  Pd26  1  0.00000000  0.75000000  0.12978000  1.0
  Pd  Pd27  1  0.50000000  0.75000000  0.12978000  1.0
  Pd  Pd28  1  0.24754000  0.25680000  0.88280000  1.0
  Pd  Pd29  1  0.75246000  0.25680000  0.88280000  1.0
  Pd  Pd30  1  0.50000000  0.77315000  0.94915000  1.0
  Pd  Pd31  1  0.00000000  0.74575000  0.95619000  1.0
  C  C32  1  0.00000000  0.10688000  0.73032000  1.0
  O  O33  1  0.00000000  0.95708000  0.70968000  1.0
