# generated using pymatgen
data_HfNi2Sn
_symmetry_space_group_name_H-M   'P 1'
_cell_length_a   6.28964000
_cell_length_b   6.28964000
_cell_length_c   24.71720000
_cell_angle_alpha   90.00000000
_cell_angle_beta   90.00000000
_cell_angle_gamma   90.00000000
_symmetry_Int_Tables_number   1
_chemical_formula_structural   HfNi2Sn
_chemical_formula_sum   'Hf4 Ni8 Sn4'
_cell_volume   977.80183647
_cell_formula_units_Z   4
loop_
 _symmetry_equiv_pos_site_id
 _symmetry_equiv_pos_as_xyz
  1  'x, y, z'
loop_
 _atom_site_type_symbol
 _atom_site_label
 _atom_site_symmetry_multiplicity
 _atom_site_fract_x
 _atom_site_fract_y
 _atom_site_fract_z
 _atom_site_occupancy
  Hf  Hf0  1  0.00000000  0.00000000  0.90458000  1.0
  Hf  Hf1  1  0.50000000  0.50000000  0.90458000  1.0
  Hf  Hf2  1  0.49987000  0.00006000  0.03442000  1.0
  Hf  Hf3  1  0.99996000  0.49994000  0.03442000  1.0
  Ni  Ni4  1  0.25000000  0.25000000  0.96819000  1.0
  Ni  Ni5  1  0.75103000  0.75138000  0.09139000  1.0
  Ni  Ni6  1  0.75000000  0.25000000  0.96819000  1.0
  Ni  Ni7  1  0.24922000  0.75008000  0.09121000  1.0
  Ni  Ni8  1  0.75000000  0.75000000  0.96819000  1.0
  Ni  Ni9  1  0.24913000  0.24943000  0.09121000  1.0
  Ni  Ni10  1  0.25000000  0.75000000  0.96819000  1.0
  Ni  Ni11  1  0.75049000  0.24925000  0.09124000  1.0
  Sn  Sn12  1  0.00000000  0.00008000  0.03597000  1.0
  Sn  Sn13  1  0.50000000  0.00000000  0.90458000  1.0
  Sn  Sn14  1  0.00000000  0.50000000  0.90458000  1.0
  Sn  Sn15  1  0.50025000  0.50014000  0.03653000  1.0
