# generated using pymatgen
data_Li8Cu8Sb8Pd8CO
_symmetry_space_group_name_H-M   Pm
_cell_length_a   6.37250000
_cell_length_b   9.01208000
_cell_length_c   26.75910000
_cell_angle_alpha   90.00000000
_cell_angle_beta   90.00000000
_cell_angle_gamma   90.00000000
_symmetry_Int_Tables_number   6
_chemical_formula_structural   Li8Cu8Sb8Pd8CO
_chemical_formula_sum   'Li8 Cu8 Sb8 Pd8 C1 O1'
_cell_volume   1536.76119292
_cell_formula_units_Z   1
loop_
 _symmetry_equiv_pos_site_id
 _symmetry_equiv_pos_as_xyz
  1  'x, y, z'
  2  'x, -y, z'
loop_
 _atom_site_type_symbol
 _atom_site_label
 _atom_site_symmetry_multiplicity
 _atom_site_fract_x
 _atom_site_fract_y
 _atom_site_fract_z
 _atom_site_occupancy
  Li  Li0  2  0.74882000  0.24855000  0.03465000  1.0
  Li  Li1  2  0.75000000  0.25000000  0.87371000  1.0
  Li  Li2  1  0.24293000  0.50000000  0.12927000  1.0
  Li  Li3  1  0.24328000  0.00000000  0.13009000  1.0
  Li  Li4  1  0.25000000  0.00000000  0.95790000  1.0
  Li  Li5  1  0.25000000  0.50000000  0.95790000  1.0
  Cu  Cu6  2  0.50000000  0.25000000  0.95790000  1.0
  Cu  Cu7  2  0.54013000  0.25186000  0.11380000  1.0
  Cu  Cu8  1  -0.00000000  0.50000000  0.87371000  1.0
  Cu  Cu9  1  0.00000000  0.00000000  0.87371000  1.0
  Cu  Cu10  1  0.97206000  0.50000000  0.05093000  1.0
  Cu  Cu11  1  0.97777000  0.00000000  0.05107000  1.0
  Sb  Sb12  2  0.25000000  0.25000000  0.87371000  1.0
  Sb  Sb13  2  0.25386000  0.24989000  0.04231000  1.0
  Sb  Sb14  1  0.74014000  0.50000000  0.14254000  1.0
  Sb  Sb15  1  0.74737000  0.00000000  0.13890000  1.0
  Sb  Sb16  1  0.75000000  0.00000000  0.95790000  1.0
  Sb  Sb17  1  0.75000000  0.50000000  0.95790000  1.0
  Pd  Pd18  2  -0.00000000  0.25000000  0.95790000  1.0
  Pd  Pd19  2  0.96722000  0.25444000  0.11428000  1.0
  Pd  Pd20  1  0.50000000  0.00000000  0.87371000  1.0
  Pd  Pd21  1  0.50000000  0.50000000  0.87371000  1.0
  Pd  Pd22  1  0.51492000  0.00000000  0.05065000  1.0
  Pd  Pd23  1  0.52212000  0.50000000  0.05009000  1.0
  C  C24  1  0.25291000  0.00000000  0.20930000  1.0
  O  O25  1  0.25271000  0.00000000  0.25185000  1.0
