# generated using pymatgen
data_Li8Ge8Pd8Au8C
_symmetry_space_group_name_H-M   Pm
_cell_length_a   6.30991000
_cell_length_b   8.92356000
_cell_length_c   26.69270000
_cell_angle_alpha   90.00000000
_cell_angle_beta   90.00000000
_cell_angle_gamma   90.00000000
_symmetry_Int_Tables_number   6
_chemical_formula_structural   Li8Ge8Pd8Au8C
_chemical_formula_sum   'Li8 Ge8 Pd8 Au8 C1'
_cell_volume   1502.98213472
_cell_formula_units_Z   1
loop_
 _symmetry_equiv_pos_site_id
 _symmetry_equiv_pos_as_xyz
  1  'x, y, z'
  2  'x, -y, z'
loop_
 _atom_site_type_symbol
 _atom_site_label
 _atom_site_symmetry_multiplicity
 _atom_site_fract_x
 _atom_site_fract_y
 _atom_site_fract_z
 _atom_site_occupancy
  Li  Li0  2  0.22911000  0.24544000  0.13914000  1.0
  Li  Li1  2  0.25000000  0.25002000  0.95821000  1.0
  Li  Li2  1  0.74222000  0.50000000  0.03885000  1.0
  Li  Li3  1  0.75000000  0.00000000  0.87463000  1.0
  Li  Li4  1  0.75000000  0.50000000  0.87463000  1.0
  Li  Li5  1  0.76152000  0.00000000  0.04562000  1.0
  Ge  Ge6  2  0.75000000  0.25002000  0.95821000  1.0
  Ge  Ge7  2  0.75865000  0.25306000  0.12915000  1.0
  Ge  Ge8  1  0.24998000  0.00000000  0.03843000  1.0
  Ge  Ge9  1  0.25000000  0.00000000  0.87463000  1.0
  Ge  Ge10  1  0.25000000  0.50000000  0.87463000  1.0
  Ge  Ge11  1  0.25680000  0.50000000  0.04219000  1.0
  Pd  Pd12  2  0.49371000  0.24341000  0.04955000  1.0
  Pd  Pd13  2  0.50000000  0.24998000  0.87463000  1.0
  Pd  Pd14  1  0.00000000  0.00000000  0.95821000  1.0
  Pd  Pd15  1  0.00000000  0.50000000  0.95821000  1.0
  Pd  Pd16  1  0.92606000  0.00000000  0.15413000  1.0
  Pd  Pd17  1  0.98987000  0.50000000  0.11568000  1.0
  Au  Au18  2  0.00000000  0.25002000  0.87463000  1.0
  Au  Au19  2  0.99829000  0.24774000  0.04426000  1.0
  Au  Au20  1  0.50000000  0.00000000  0.95821000  1.0
  Au  Au21  1  0.50000000  0.50000000  0.95821000  1.0
  Au  Au22  1  0.50657000  0.00000000  0.13054000  1.0
  Au  Au23  1  0.51224000  0.50000000  0.12387000  1.0
  C  C24  1  0.21833000  0.00000000  0.15802000  1.0
