# generated using pymatgen
data_Ta4Ir12C
_symmetry_space_group_name_H-M   'P 1'
_cell_length_a   7.86698000
_cell_length_b   5.56279000
_cell_length_c   24.17210000
_cell_angle_alpha   90.00000000
_cell_angle_beta   90.00000000
_cell_angle_gamma   90.00000000
_symmetry_Int_Tables_number   1
_chemical_formula_structural   Ta4Ir12C
_chemical_formula_sum   'Ta4 Ir12 C1'
_cell_volume   1057.82808594
_cell_formula_units_Z   1
loop_
 _symmetry_equiv_pos_site_id
 _symmetry_equiv_pos_as_xyz
  1  'x, y, z'
loop_
 _atom_site_type_symbol
 _atom_site_label
 _atom_site_symmetry_multiplicity
 _atom_site_fract_x
 _atom_site_fract_y
 _atom_site_fract_z
 _atom_site_occupancy
  Ta  Ta0  1  0.73265000  0.00290000  0.07969000  1.0
  Ta  Ta1  1  0.75000000  0.50000000  0.97123000  1.0
  Ta  Ta2  1  0.26735000  0.00290000  0.07969000  1.0
  Ta  Ta3  1  0.25000000  0.50000000  0.97123000  1.0
  Ir  Ir4  1  0.73054000  0.51349000  0.08227000  1.0
  Ir  Ir5  1  0.50000000  0.25211000  0.02525000  1.0
  Ir  Ir6  1  0.50000000  0.75496000  0.02337000  1.0
  Ir  Ir7  1  0.75000000  0.00000000  0.97123000  1.0
  Ir  Ir8  1  0.50000000  0.75000000  0.91370000  1.0
  Ir  Ir9  1  0.50000000  0.25000000  0.91370000  1.0
  Ir  Ir10  1  0.26946000  0.51349000  0.08227000  1.0
  Ir  Ir11  1  0.00000000  0.25484000  0.03927000  1.0
  Ir  Ir12  1  0.00000000  0.75865000  0.03978000  1.0
  Ir  Ir13  1  0.25000000  0.00000000  0.97123000  1.0
  Ir  Ir14  1  0.00000000  0.75000000  0.91370000  1.0
  Ir  Ir15  1  0.00000000  0.25000000  0.91370000  1.0
  C  C16  1  0.50000000  0.74070000  0.10702000  1.0
