# generated using pymatgen
data_Mg8Ni16Sb8C
_symmetry_space_group_name_H-M   'P 1'
_cell_length_a   8.78760000
_cell_length_b   6.21377000
_cell_length_c   26.59070000
_cell_angle_alpha   90.00000000
_cell_angle_beta   90.00000000
_cell_angle_gamma   90.00000000
_symmetry_Int_Tables_number   1
_chemical_formula_structural   Mg8Ni16Sb8C
_chemical_formula_sum   'Mg8 Ni16 Sb8 C1'
_cell_volume   1451.96191334
_cell_formula_units_Z   1
loop_
 _symmetry_equiv_pos_site_id
 _symmetry_equiv_pos_as_xyz
  1  'x, y, z'
loop_
 _atom_site_type_symbol
 _atom_site_label
 _atom_site_symmetry_multiplicity
 _atom_site_fract_x
 _atom_site_fract_y
 _atom_site_fract_z
 _atom_site_occupancy
  Mg  Mg0  1  0.74999000  0.00000000  0.12393000  1.0
  Mg  Mg1  1  0.00000000  0.50000000  0.04131000  1.0
  Mg  Mg2  1  0.50000000  0.50000000  0.04131000  1.0
  Mg  Mg3  1  0.25001000  0.00000000  0.12393000  1.0
  Mg  Mg4  1  0.25527000  0.00612000  0.95857000  1.0
  Mg  Mg5  1  0.50000000  0.48869000  0.86686000  1.0
  Mg  Mg6  1  0.00000000  0.53828000  0.87409000  1.0
  Mg  Mg7  1  0.74473000  0.00612000  0.95857000  1.0
  Ni  Ni8  1  0.74999000  0.25000000  0.04131000  1.0
  Ni  Ni9  1  0.24999000  0.75000000  0.04131000  1.0
  Ni  Ni10  1  0.75001000  0.75000000  0.04131000  1.0
  Ni  Ni11  1  0.25001000  0.25000000  0.04131000  1.0
  Ni  Ni12  1  0.50000000  0.75000000  0.12393000  1.0
  Ni  Ni13  1  0.00000000  0.25000000  0.12393000  1.0
  Ni  Ni14  1  0.50000000  0.25000000  0.12393000  1.0
  Ni  Ni15  1  0.00000000  0.75000000  0.12393000  1.0
  Ni  Ni16  1  0.20674000  0.25349000  0.87441000  1.0
  Ni  Ni17  1  0.73399000  0.75670000  0.88381000  1.0
  Ni  Ni18  1  0.26601000  0.75670000  0.88381000  1.0
  Ni  Ni19  1  0.79326000  0.25349000  0.87441000  1.0
  Ni  Ni20  1  0.00000000  0.75301000  0.96406000  1.0
  Ni  Ni21  1  0.50000000  0.25899000  0.95639000  1.0
  Ni  Ni22  1  0.00000000  0.24578000  0.95499000  1.0
  Ni  Ni23  1  0.50000000  0.73869000  0.95002000  1.0
  Sb  Sb24  1  0.50000000  0.00000000  0.04131000  1.0
  Sb  Sb25  1  0.74999000  0.50000000  0.12393000  1.0
  Sb  Sb26  1  0.00000000  0.00000000  0.04131000  1.0
  Sb  Sb27  1  0.25001000  0.50000000  0.12393000  1.0
  Sb  Sb28  1  0.00000000  0.94267000  0.87529000  1.0
  Sb  Sb29  1  0.24879000  0.49637000  0.95831000  1.0
  Sb  Sb30  1  0.50000000  0.01372000  0.87002000  1.0
  Sb  Sb31  1  0.75121000  0.49637000  0.95831000  1.0
  C  C32  1  0.00000000  0.24535000  0.84488000  1.0
