# generated using pymatgen
data_ScPt3
_symmetry_space_group_name_H-M   Pmm2
_cell_length_a   4.03325500
_cell_length_b   5.70388000
_cell_length_c   24.27790000
_cell_angle_alpha   90.00000000
_cell_angle_beta   90.00000000
_cell_angle_gamma   90.00000000
_symmetry_Int_Tables_number   25
_chemical_formula_structural   ScPt3
_chemical_formula_sum   'Sc2 Pt6'
_cell_volume   558.51800649
_cell_formula_units_Z   2
loop_
 _symmetry_equiv_pos_site_id
 _symmetry_equiv_pos_as_xyz
  1  'x, y, z'
  2  '-x, -y, z'
  3  '-x, y, z'
  4  'x, -y, z'
loop_
 _atom_site_type_symbol
 _atom_site_label
 _atom_site_symmetry_multiplicity
 _atom_site_fract_x
 _atom_site_fract_y
 _atom_site_fract_z
 _atom_site_occupancy
  Sc  Sc0  1  0.00000000  0.00000000  0.08132000  1.0
  Sc  Sc1  1  0.00000000  0.50000000  0.97063000  1.0
  Pt  Pt2  2  0.50000000  0.24283000  0.03444000  1.0
  Pt  Pt3  2  0.50000000  0.25000000  0.91190000  1.0
  Pt  Pt4  1  0.00000000  0.00000000  0.97063000  1.0
  Pt  Pt5  1  0.00000000  0.50000000  0.08052000  1.0
