# generated using pymatgen
data_Mg8Zn8Ag16C
_symmetry_space_group_name_H-M   'P 1'
_cell_length_a   6.56971000
_cell_length_b   9.29097000
_cell_length_c   26.96820000
_cell_angle_alpha   90.00000000
_cell_angle_beta   90.00000000
_cell_angle_gamma   90.00000000
_symmetry_Int_Tables_number   1
_chemical_formula_structural   Mg8Zn8Ag16C
_chemical_formula_sum   'Mg8 Zn8 Ag16 C1'
_cell_volume   1646.11138049
_cell_formula_units_Z   1
loop_
 _symmetry_equiv_pos_site_id
 _symmetry_equiv_pos_as_xyz
  1  'x, y, z'
loop_
 _atom_site_type_symbol
 _atom_site_label
 _atom_site_symmetry_multiplicity
 _atom_site_fract_x
 _atom_site_fract_y
 _atom_site_fract_z
 _atom_site_occupancy
  Mg  Mg0  1  0.00000000  0.00000000  0.87081000  1.0
  Mg  Mg1  1  0.50000000  0.25000000  0.95694000  1.0
  Mg  Mg2  1  0.50000000  0.75000000  0.95694000  1.0
  Mg  Mg3  1  0.00000000  0.50000000  0.87081000  1.0
  Mg  Mg4  1  0.99964000  0.49979000  0.04741000  1.0
  Mg  Mg5  1  0.50010000  0.76457000  0.13253000  1.0
  Mg  Mg6  1  0.49976000  0.23543000  0.13263000  1.0
  Mg  Mg7  1  0.00063000  0.00002000  0.05056000  1.0
  Zn  Zn8  1  0.00000000  0.75000000  0.95694000  1.0
  Zn  Zn9  1  0.50000000  0.00000000  0.87081000  1.0
  Zn  Zn10  1  0.00000000  0.25000000  0.95694000  1.0
  Zn  Zn11  1  0.50000000  0.50000000  0.87081000  1.0
  Zn  Zn12  1  0.00012000  0.26084000  0.13451000  1.0
  Zn  Zn13  1  0.50040000  0.50005000  0.04509000  1.0
  Zn  Zn14  1  0.99998000  0.73910000  0.13447000  1.0
  Zn  Zn15  1  0.50006000  0.99999000  0.04390000  1.0
  Ag  Ag16  1  0.25000000  0.00000000  0.95694000  1.0
  Ag  Ag17  1  0.75000000  0.50000000  0.95694000  1.0
  Ag  Ag18  1  0.75000000  0.00000000  0.95694000  1.0
  Ag  Ag19  1  0.25000000  0.50000000  0.95694000  1.0
  Ag  Ag20  1  0.75000000  0.75000000  0.87081000  1.0
  Ag  Ag21  1  0.25000000  0.25000000  0.87081000  1.0
  Ag  Ag22  1  0.25000000  0.75000000  0.87081000  1.0
  Ag  Ag23  1  0.75000000  0.25000000  0.87081000  1.0
  Ag  Ag24  1  0.25826000  0.50003000  0.13280000  1.0
  Ag  Ag25  1  0.79759000  0.00002000  0.15203000  1.0
  Ag  Ag26  1  0.74174000  0.49993000  0.13289000  1.0
  Ag  Ag27  1  0.20235000  0.99990000  0.15226000  1.0
  Ag  Ag28  1  0.75525000  0.25436000  0.04167000  1.0
  Ag  Ag29  1  0.24480000  0.74513000  0.04164000  1.0
  Ag  Ag30  1  0.24499000  0.25481000  0.04165000  1.0
  Ag  Ag31  1  0.75544000  0.74560000  0.04163000  1.0
  C  C32  1  0.49967000  0.00003000  0.11836000  1.0
