# generated using pymatgen
data_ScPd3
_symmetry_space_group_name_H-M   Pmm2
_cell_length_a   4.04257500
_cell_length_b   5.71706000
_cell_length_c   24.28780000
_cell_angle_alpha   90.00000000
_cell_angle_beta   90.00000000
_cell_angle_gamma   90.00000000
_symmetry_Int_Tables_number   25
_chemical_formula_structural   ScPd3
_chemical_formula_sum   'Sc2 Pd6'
_cell_volume   561.33098300
_cell_formula_units_Z   2
loop_
 _symmetry_equiv_pos_site_id
 _symmetry_equiv_pos_as_xyz
  1  'x, y, z'
  2  '-x, -y, z'
  3  '-x, y, z'
  4  'x, -y, z'
loop_
 _atom_site_type_symbol
 _atom_site_label
 _atom_site_symmetry_multiplicity
 _atom_site_fract_x
 _atom_site_fract_y
 _atom_site_fract_z
 _atom_site_occupancy
  Sc  Sc0  1  0.00000000  0.00000000  0.07633000  1.0
  Sc  Sc1  1  0.00000000  0.50000000  0.97058000  1.0
  Pd  Pd2  2  0.50000000  0.24909000  0.03119500  1.0
  Pd  Pd3  2  0.50000000  0.25000000  0.91173000  1.0
  Pd  Pd4  1  0.00000000  0.00000000  0.97058000  1.0
  Pd  Pd5  1  0.00000000  0.50000000  0.08463000  1.0
