# generated using pymatgen
data_Li4Al4Cu4Ag4CO
_symmetry_space_group_name_H-M   'P 1'
_cell_length_a   6.15237000
_cell_length_b   6.15237000
_cell_length_c   24.61430000
_cell_angle_alpha   90.00000000
_cell_angle_beta   90.00000000
_cell_angle_gamma   90.00000000
_symmetry_Int_Tables_number   1
_chemical_formula_structural   Li4Al4Cu4Ag4CO
_chemical_formula_sum   'Li4 Al4 Cu4 Ag4 C1 O1'
_cell_volume   931.69203147
_cell_formula_units_Z   1
loop_
 _symmetry_equiv_pos_site_id
 _symmetry_equiv_pos_as_xyz
  1  'x, y, z'
loop_
 _atom_site_type_symbol
 _atom_site_label
 _atom_site_symmetry_multiplicity
 _atom_site_fract_x
 _atom_site_fract_y
 _atom_site_fract_z
 _atom_site_occupancy
  Li  Li0  1  0.50000000  1.00000000  0.96876000  1
  Li  Li1  1  0.00000000  0.00000000  0.09373000  1
  Li  Li2  1  0.50000000  0.50000000  0.09373000  1
  Li  Li3  1  0.00000000  0.50000000  0.96876000  1
  Al  Al4  1  0.50000000  0.50000000  0.96876000  1
  Al  Al5  1  0.00000000  0.50000000  0.09373000  1
  Al  Al6  1  0.50000000  1.00000000  0.09373000  1
  Al  Al7  1  0.00000000  0.00000000  0.96876000  1
  Cu  Cu8  1  0.25000000  0.25000000  0.90627000  1
  Cu  Cu9  1  0.75000000  0.25000000  0.03124000  1
  Cu  Cu10  1  0.25000000  0.75000000  0.03124000  1
  Cu  Cu11  1  0.75000000  0.75000000  0.90627000  1
  Ag  Ag12  1  0.75000000  0.25000000  0.90627000  1
  Ag  Ag13  1  0.25000000  0.25000000  0.03124000  1
  Ag  Ag14  1  0.75000000  0.75000000  0.03124000  1
  Ag  Ag15  1  0.25000000  0.75000000  0.90627000  1
  C  C16  1  0.50000000  0.50000000  0.17092000  1
  O  O17  1  0.50000000  0.50000000  0.21764000  1
