# generated using pymatgen
data_Zn4Pt12CO
_symmetry_space_group_name_H-M   Pm
_cell_length_a   5.59226000
_cell_length_b   7.90864000
_cell_length_c   24.19420000
_cell_angle_alpha   90.00000000
_cell_angle_beta   90.00000000
_cell_angle_gamma   90.00000000
_symmetry_Int_Tables_number   6
_chemical_formula_structural   Zn4Pt12CO
_chemical_formula_sum   'Zn4 Pt12 C1 O1'
_cell_volume   1070.04102367
_cell_formula_units_Z   1
loop_
 _symmetry_equiv_pos_site_id
 _symmetry_equiv_pos_as_xyz
  1  'x, y, z'
  2  'x, -y, z'
loop_
 _atom_site_type_symbol
 _atom_site_label
 _atom_site_symmetry_multiplicity
 _atom_site_fract_x
 _atom_site_fract_y
 _atom_site_fract_z
 _atom_site_occupancy
  Zn  Zn0  2  0.00000000  0.25001000  0.08668000  1.0
  Zn  Zn1  2  0.49278000  0.24849000  0.96800000  1.0
  Pt  Pt2  2  0.50000000  0.25001000  0.08668000  1.0
  Pt  Pt3  2  0.99737000  0.24964000  0.97013000  1.0
  Pt  Pt4  1  0.23964000  0.00000000  0.91404000  1.0
  Pt  Pt5  1  0.24924000  0.50000000  0.91417000  1.0
  Pt  Pt6  1  0.25000000  0.00000000  0.02889000  1.0
  Pt  Pt7  1  0.25000000  0.50000000  0.02889000  1.0
  Pt  Pt8  1  0.72951000  0.00000000  0.91535000  1.0
  Pt  Pt9  1  0.74010000  0.50000000  0.91318000  1.0
  Pt  Pt10  1  0.75000000  0.00000000  0.02889000  1.0
  Pt  Pt11  1  0.75000000  0.50000000  0.02889000  1.0
  C  C12  1  0.71769000  0.50000000  0.83593000  1.0
  O  O13  1  0.71971000  0.50000000  0.78828000  1.0
