# generated using pymatgen
data_Y4In4Cu4Sn4C
_symmetry_space_group_name_H-M   Pm
_cell_length_a   6.36255000
_cell_length_b   8.82850000
_cell_length_c   24.76930000
_cell_angle_alpha   90.00000000
_cell_angle_beta   90.00000000
_cell_angle_gamma   90.00000000
_symmetry_Int_Tables_number   6
_chemical_formula_structural   Y4In4Cu4Sn4C
_chemical_formula_sum   'Y4 In4 Cu4 Sn4 C1'
_cell_volume   1391.33548892
_cell_formula_units_Z   1
loop_
 _symmetry_equiv_pos_site_id
 _symmetry_equiv_pos_as_xyz
  1  'x, y, z'
  2  'x, -y, z'
loop_
 _atom_site_type_symbol
 _atom_site_label
 _atom_site_symmetry_multiplicity
 _atom_site_fract_x
 _atom_site_fract_y
 _atom_site_fract_z
 _atom_site_occupancy
  Y  Y0  1  0.27554000  0.50000000  0.96610000  1.0
  Y  Y1  1  0.28548000  0.00000000  0.96254000  1.0
  Y  Y2  1  0.77490000  0.00000000  0.09627000  1.0
  Y  Y3  1  0.77490000  0.50000000  0.09627000  1.0
  In  In4  1  0.27490000  0.00000000  0.09627000  1.0
  In  In5  1  0.27490000  0.50000000  0.09627000  1.0
  In  In6  1  0.77249000  0.00000000  0.93787000  1.0
  In  In7  1  0.81102000  0.50000000  0.92204000  1.0
  Cu  Cu8  2  0.04418000  0.24068000  0.92124000  1.0
  Cu  Cu9  2  0.51660000  0.25000000  0.03209000  1.0
  Sn  Sn10  2  0.01660000  0.25000000  0.03209000  1.0
  Sn  Sn11  2  0.43481000  0.26122000  0.87115000  1.0
  C  C12  1  0.48488000  0.50000000  0.89101000  1.0
