# generated using pymatgen
data_Li4In4Cu4Ge4CO
_symmetry_space_group_name_H-M   'P 1'
_cell_length_a   6.49386000
_cell_length_b   6.49386000
_cell_length_c   24.87040000
_cell_angle_alpha   90.00000000
_cell_angle_beta   90.00000000
_cell_angle_gamma   90.00000000
_symmetry_Int_Tables_number   1
_chemical_formula_structural   Li4In4Cu4Ge4CO
_chemical_formula_sum   'Li4 In4 Cu4 Ge4 C1 O1'
_cell_volume   1048.79018228
_cell_formula_units_Z   1
loop_
 _symmetry_equiv_pos_site_id
 _symmetry_equiv_pos_as_xyz
  1  'x, y, z'
loop_
 _atom_site_type_symbol
 _atom_site_label
 _atom_site_symmetry_multiplicity
 _atom_site_fract_x
 _atom_site_fract_y
 _atom_site_fract_z
 _atom_site_occupancy
  Li  Li0  1  0.50000000  0.50000000  0.10198000  1
  Li  Li1  1  0.00000000  0.50000000  0.96736000  1
  Li  Li2  1  0.50000000  1.00000000  0.96736000  1
  Li  Li3  1  0.00000000  0.00000000  0.10356000  1
  In  In4  1  0.74977000  0.74977000  0.02919000  1
  In  In5  1  0.25000000  0.75000000  0.90208000  1
  In  In6  1  0.75000000  0.25000000  0.90208000  1
  In  In7  1  0.25023000  0.25023000  0.02919000  1
  Cu  Cu8  1  0.00000000  0.50000000  0.08081000  1
  Cu  Cu9  1  0.50000000  0.50000000  0.96736000  1
  Cu  Cu10  1  0.00000000  0.00000000  0.96736000  1
  Cu  Cu11  1  0.50000000  1.00000000  0.08081000  1
  Ge  Ge12  1  0.75566000  0.24434000  0.03984000  1
  Ge  Ge13  1  0.25000000  0.25000000  0.90208000  1
  Ge  Ge14  1  0.75000000  0.75000000  0.90208000  1
  Ge  Ge15  1  0.24434000  0.75566000  0.03984000  1
  C  C16  1  0.50000000  0.50000000  0.18653000  1
  O  O17  1  0.50000000  0.50000000  0.23237000  1
