# generated using pymatgen
data_ScGaGePd
_symmetry_space_group_name_H-M   'P 1'
_cell_length_a   5.89664000
_cell_length_b   3.91859000
_cell_length_c   24.41460000
_cell_angle_alpha   90.00000000
_cell_angle_beta   90.00000000
_cell_angle_gamma   90.00000000
_symmetry_Int_Tables_number   1
_chemical_formula_structural   ScGaGePd
_chemical_formula_sum   'Sc2 Ga2 Ge2 Pd2'
_cell_volume   564.13630983
_cell_formula_units_Z   2
loop_
 _symmetry_equiv_pos_site_id
 _symmetry_equiv_pos_as_xyz
  1  'x, y, z'
loop_
 _atom_site_type_symbol
 _atom_site_label
 _atom_site_symmetry_multiplicity
 _atom_site_fract_x
 _atom_site_fract_y
 _atom_site_fract_z
 _atom_site_occupancy
  Sc  Sc0  1  0.50000000  0.00000000  0.09041000  1.0
  Sc  Sc1  1  0.96156000  0.00000000  0.96537000  1.0
  Ga  Ga2  1  0.00000000  0.00000000  0.09041000  1.0
  Ga  Ga3  1  0.45075000  0.00000000  0.96371500  1.0
  Ge  Ge4  1  0.73509000  0.50000000  0.03014000  1.0
  Ge  Ge5  1  0.23480500  0.50000000  0.91222000  1.0
  Pd  Pd6  1  0.23509000  0.50000000  0.03014000  1.0
  Pd  Pd7  1  0.69864000  0.50000000  0.91593000  1.0
