# generated using pymatgen
data_Li4Sc4In4Ag4CO
_symmetry_space_group_name_H-M   Cm
_cell_length_a   9.45660568
_cell_length_b   9.45660568
_cell_length_c   25.01510000
_cell_angle_alpha   90.00000000
_cell_angle_beta   90.00000000
_cell_angle_gamma   90.00000000
_symmetry_Int_Tables_number   8
_chemical_formula_structural   Li4Sc4In4Ag4CO
_chemical_formula_sum   'Li8 Sc8 In8 Ag8 C2 O2'
_cell_volume   2237.03512605
_cell_formula_units_Z   2
loop_
 _symmetry_equiv_pos_site_id
 _symmetry_equiv_pos_as_xyz
  1  'x, y, z'
  2  'x, -y, z'
  3  'x+1/2, y+1/2, z'
  4  'x+1/2, -y+1/2, z'
loop_
 _atom_site_type_symbol
 _atom_site_label
 _atom_site_symmetry_multiplicity
 _atom_site_fract_x
 _atom_site_fract_y
 _atom_site_fract_z
 _atom_site_occupancy
  Li  Li0  4  0.25000000  0.25000000  0.89976000  1.0
  Li  Li1  2  0.01490000  0.00000000  0.03866000  1.0
  Li  Li2  2  0.48591000  0.00000000  0.03876000  1.0
  Sc  Sc3  4  0.49998500  0.25035500  0.10552000  1.0
  Sc  Sc4  2  0.25000000  0.00000000  0.96659000  1.0
  Sc  Sc5  2  0.25000000  0.50000000  0.96659000  1.0
  In  In6  4  0.00000000  0.25000000  0.96659000  1.0
  In  In7  2  0.25035000  0.00000000  0.11589000  1.0
  In  In8  2  0.25078500  0.50000000  0.09530000  1.0
  Ag  Ag9  4  0.24991000  0.23719000  0.03645000  1.0
  Ag  Ag10  2  0.00000000  0.00000000  0.89976000  1.0
  Ag  Ag11  2  0.00000000  0.50000000  0.89976000  1.0
  C  C12  2  0.24844000  0.50000000  0.18568000  1.0
  O  O13  2  0.24914500  0.50000000  0.23198000  1.0
