# generated using pymatgen
data_V8Fe16Si8C
_symmetry_space_group_name_H-M   'P 1'
_cell_length_a   5.64262000
_cell_length_b   7.97986000
_cell_length_c   25.98490000
_cell_angle_alpha   90.00000000
_cell_angle_beta   90.00000000
_cell_angle_gamma   90.00000000
_symmetry_Int_Tables_number   1
_chemical_formula_structural   V8Fe16Si8C
_chemical_formula_sum   'V8 Fe16 Si8 C1'
_cell_volume   1170.03034597
_cell_formula_units_Z   1
loop_
 _symmetry_equiv_pos_site_id
 _symmetry_equiv_pos_as_xyz
  1  'x, y, z'
loop_
 _atom_site_type_symbol
 _atom_site_label
 _atom_site_symmetry_multiplicity
 _atom_site_fract_x
 _atom_site_fract_y
 _atom_site_fract_z
 _atom_site_occupancy
  V  V0  1  0.00000000  0.00000000  0.88484000  1.0
  V  V1  1  0.50000000  0.24999000  0.96161000  1.0
  V  V2  1  0.50000000  0.75001000  0.96161000  1.0
  V  V3  1  0.00000000  0.50000000  0.88484000  1.0
  V  V4  1  0.00000000  0.50000000  0.03964000  1.0
  V  V5  1  0.50000000  0.74641000  0.11602000  1.0
  V  V6  1  0.50000000  0.25359000  0.11602000  1.0
  V  V7  1  0.00000000  0.00000000  0.03774000  1.0
  Fe  Fe8  1  0.25000000  0.00000000  0.96161000  1.0
  Fe  Fe9  1  0.75000000  0.50000000  0.96161000  1.0
  Fe  Fe10  1  0.75000000  0.00000000  0.96161000  1.0
  Fe  Fe11  1  0.25000000  0.50000000  0.96161000  1.0
  Fe  Fe12  1  0.75000000  0.74999000  0.88484000  1.0
  Fe  Fe13  1  0.25000000  0.25001000  0.88484000  1.0
  Fe  Fe14  1  0.25000000  0.74999000  0.88484000  1.0
  Fe  Fe15  1  0.75000000  0.25001000  0.88484000  1.0
  Fe  Fe16  1  0.24391000  0.50000000  0.11093000  1.0
  Fe  Fe17  1  0.75309000  0.00000000  0.11464000  1.0
  Fe  Fe18  1  0.75609000  0.50000000  0.11093000  1.0
  Fe  Fe19  1  0.24691000  0.00000000  0.11464000  1.0
  Fe  Fe20  1  0.74753000  0.24621000  0.03895000  1.0
  Fe  Fe21  1  0.25247000  0.75379000  0.03895000  1.0
  Fe  Fe22  1  0.25247000  0.24621000  0.03895000  1.0
  Fe  Fe23  1  0.74753000  0.75379000  0.03895000  1.0
  Si  Si24  1  0.00000000  0.74999000  0.96161000  1.0
  Si  Si25  1  0.50000000  0.00000000  0.88484000  1.0
  Si  Si26  1  0.00000000  0.25001000  0.96161000  1.0
  Si  Si27  1  0.50000000  0.50000000  0.88484000  1.0
  Si  Si28  1  0.00000000  0.25452000  0.11708000  1.0
  Si  Si29  1  0.50000000  0.50000000  0.03846000  1.0
  Si  Si30  1  0.00000000  0.74548000  0.11708000  1.0
  Si  Si31  1  0.50000000  0.00000000  0.03753000  1.0
  C  C32  1  0.00000000  0.00000000  0.15666000  1.0
