data_image0
_chemical_formula_structural       Mn8Co16Sb8
_chemical_formula_sum              "Mn8 Co16 Sb8"
_cell_length_a       6.03986
_cell_length_b       8.54165
_cell_length_c       26.4062
_cell_angle_alpha    90
_cell_angle_beta     90
_cell_angle_gamma    90

_space_group_name_H-M_alt    "P 1"
_space_group_IT_number       1

loop_
  _space_group_symop_operation_xyz
  'x, y, z'

loop_
  _atom_site_type_symbol
  _atom_site_label
  _atom_site_symmetry_multiplicity
  _atom_site_fract_x
  _atom_site_fract_y
  _atom_site_fract_z
  _atom_site_occupancy
  Mn  Mn1       1.0  0.00000  0.00000  0.87870  1.0000
  Mn  Mn2       1.0  0.50000  0.25000  0.95957  1.0000
  Mn  Mn3       1.0  0.50000  0.75000  0.95957  1.0000
  Mn  Mn4       1.0  0.00000  0.50000  0.87870  1.0000
  Mn  Mn5       1.0  1.00000  0.50000  0.03959  1.0000
  Mn  Mn6       1.0  0.50000  0.75001  0.12095  1.0000
  Mn  Mn7       1.0  0.50000  0.24999  0.12095  1.0000
  Mn  Mn8       1.0  1.00000  1.00000  0.03959  1.0000
  Co  Co1       1.0  0.25000  0.00000  0.95957  1.0000
  Co  Co2       1.0  0.75000  0.50000  0.95957  1.0000
  Co  Co3       1.0  0.75000  0.00000  0.95957  1.0000
  Co  Co4       1.0  0.25000  0.50000  0.95957  1.0000
  Co  Co5       1.0  0.75000  0.75000  0.87870  1.0000
  Co  Co6       1.0  0.25000  0.25000  0.87870  1.0000
  Co  Co7       1.0  0.25000  0.75000  0.87870  1.0000
  Co  Co8       1.0  0.75000  0.25000  0.87870  1.0000
  Co  Co9       1.0  0.24043  0.50001  0.11527  1.0000
  Co  Co10      1.0  0.75956  0.99999  0.11528  1.0000
  Co  Co11      1.0  0.75956  0.50001  0.11527  1.0000
  Co  Co12      1.0  0.24044  0.99999  0.11528  1.0000
  Co  Co13      1.0  0.75546  0.24999  0.04092  1.0000
  Co  Co14      1.0  0.24454  0.75001  0.04092  1.0000
  Co  Co15      1.0  0.24454  0.24999  0.04092  1.0000
  Co  Co16      1.0  0.75546  0.75001  0.04092  1.0000
  Sb  Sb1       1.0  0.00000  0.75000  0.95957  1.0000
  Sb  Sb2       1.0  0.50000  0.00000  0.87870  1.0000
  Sb  Sb3       1.0  0.00000  0.25000  0.95957  1.0000
  Sb  Sb4       1.0  0.50000  0.50000  0.87870  1.0000
  Sb  Sb5       1.0  1.00000  0.25001  0.12889  1.0000
  Sb  Sb6       1.0  0.50000  0.50000  0.04012  1.0000
  Sb  Sb7       1.0  1.00000  0.74999  0.12889  1.0000
  Sb  Sb8       1.0  0.50000  0.00000  0.04012  1.0000
