# generated using pymatgen
data_Hf8Ni16Sn8CO
_symmetry_space_group_name_H-M   'P 1'
_cell_length_a   6.29417000
_cell_length_b   8.90130000
_cell_length_c   26.67600000
_cell_angle_alpha   90.00000000
_cell_angle_beta   90.00000000
_cell_angle_gamma   90.00000000
_symmetry_Int_Tables_number   1
_chemical_formula_structural   Hf8Ni16Sn8CO
_chemical_formula_sum   'Hf8 Ni16 Sn8 C1 O1'
_cell_volume   1494.55745665
_cell_formula_units_Z   1
loop_
 _symmetry_equiv_pos_site_id
 _symmetry_equiv_pos_as_xyz
  1  'x, y, z'
loop_
 _atom_site_type_symbol
 _atom_site_label
 _atom_site_symmetry_multiplicity
 _atom_site_fract_x
 _atom_site_fract_y
 _atom_site_fract_z
 _atom_site_occupancy
  Hf  Hf0  1  0.00000000  0.75000000  0.87487000  1.0
  Hf  Hf1  1  0.50000000  0.00000000  0.95829000  1.0
  Hf  Hf2  1  0.50000000  0.50000000  0.95829000  1.0
  Hf  Hf3  1  0.00000000  0.25000000  0.87487000  1.0
  Hf  Hf4  1  0.00000000  0.25240000  0.04252000  1.0
  Hf  Hf5  1  0.50000000  0.50000000  0.12547000  1.0
  Hf  Hf6  1  0.50000000  0.00000000  0.12558000  1.0
  Hf  Hf7  1  0.00000000  0.74760000  0.04252000  1.0
  Ni  Ni8  1  0.25000000  0.75000000  0.95829000  1.0
  Ni  Ni9  1  0.75000000  0.25000000  0.95829000  1.0
  Ni  Ni10  1  0.75000000  0.75000000  0.95829000  1.0
  Ni  Ni11  1  0.25000000  0.25000000  0.95829000  1.0
  Ni  Ni12  1  0.75000000  0.50000000  0.87487000  1.0
  Ni  Ni13  1  0.25000000  0.00000000  0.87487000  1.0
  Ni  Ni14  1  0.25000000  0.50000000  0.87487000  1.0
  Ni  Ni15  1  0.75000000  0.00000000  0.87487000  1.0
  Ni  Ni16  1  0.25688000  0.25215000  0.11992000  1.0
  Ni  Ni17  1  0.74312000  0.74785000  0.11992000  1.0
  Ni  Ni18  1  0.74312000  0.25215000  0.11992000  1.0
  Ni  Ni19  1  0.25688000  0.74785000  0.11992000  1.0
  Ni  Ni20  1  0.76379000  0.00000000  0.04341000  1.0
  Ni  Ni21  1  0.25819000  0.50000000  0.04470000  1.0
  Ni  Ni22  1  0.23621000  0.00000000  0.04341000  1.0
  Ni  Ni23  1  0.74181000  0.50000000  0.04470000  1.0
  Sn  Sn24  1  0.00000000  0.50000000  0.95829000  1.0
  Sn  Sn25  1  0.50000000  0.75000000  0.87487000  1.0
  Sn  Sn26  1  0.00000000  0.00000000  0.95829000  1.0
  Sn  Sn27  1  0.50000000  0.25000000  0.87487000  1.0
  Sn  Sn28  1  0.00000000  0.00000000  0.13361000  1.0
  Sn  Sn29  1  0.50000000  0.24623000  0.04026000  1.0
  Sn  Sn30  1  0.00000000  0.50000000  0.13251000  1.0
  Sn  Sn31  1  0.50000000  0.75377000  0.04026000  1.0
  C  C32  1  0.50000000  0.00000000  0.20984000  1.0
  O  O33  1  0.50000000  0.00000000  0.25298000  1.0
