# generated using pymatgen
data_Li2GeAu
_symmetry_space_group_name_H-M   'P 1'
_cell_length_a   6.30953000
_cell_length_b   6.30953000
_cell_length_c   24.73210000
_cell_angle_alpha   90.00000000
_cell_angle_beta   90.00000000
_cell_angle_gamma   90.00000000
_symmetry_Int_Tables_number   1
_chemical_formula_structural   Li2GeAu
_chemical_formula_sum   'Li8 Ge4 Au4'
_cell_volume   984.58907630
_cell_formula_units_Z   4
loop_
 _symmetry_equiv_pos_site_id
 _symmetry_equiv_pos_as_xyz
  1  'x, y, z'
loop_
 _atom_site_type_symbol
 _atom_site_label
 _atom_site_symmetry_multiplicity
 _atom_site_fract_x
 _atom_site_fract_y
 _atom_site_fract_z
 _atom_site_occupancy
  Li  Li0  1  0.00000000  0.00000000  0.03101000  1
  Li  Li1  1  1.00000000  0.50000000  0.90433000  1
  Li  Li2  1  0.50000000  0.00000000  0.90433000  1
  Li  Li3  1  0.50000000  0.50000000  0.03058000  1
  Li  Li4  1  0.75155000  0.24845000  0.10874000  1
  Li  Li5  1  0.25000000  0.25000000  0.96811000  1
  Li  Li6  1  0.24845000  0.75155000  0.10874000  1
  Li  Li7  1  0.75000000  0.75000000  0.96811000  1
  Ge  Ge8  1  0.00000000  0.00000000  0.90433000  1
  Ge  Ge9  1  0.50000000  0.50000000  0.90433000  1
  Ge  Ge10  1  1.00000000  0.50000000  0.03837000  1
  Ge  Ge11  1  0.50000000  0.00000000  0.03837000  1
  Au  Au12  1  0.75000000  0.25000000  0.96811000  1
  Au  Au13  1  0.24914000  0.24914000  0.09188000  1
  Au  Au14  1  0.25000000  0.75000000  0.96811000  1
  Au  Au15  1  0.75086000  0.75086000  0.09188000  1
