# generated using pymatgen
data_Y8Mg8Sn8Pd8CO
_symmetry_space_group_name_H-M   'P 1'
_cell_length_a   7.00634000
_cell_length_b   9.90846000
_cell_length_c   27.43130000
_cell_angle_alpha   90.00000000
_cell_angle_beta   90.00000000
_cell_angle_gamma   90.00000000
_symmetry_Int_Tables_number   1
_chemical_formula_structural   Y8Mg8Sn8Pd8CO
_chemical_formula_sum   'Y8 Mg8 Sn8 Pd8 C1 O1'
_cell_volume   1904.33679588
_cell_formula_units_Z   1
loop_
 _symmetry_equiv_pos_site_id
 _symmetry_equiv_pos_as_xyz
  1  'x, y, z'
loop_
 _atom_site_type_symbol
 _atom_site_label
 _atom_site_symmetry_multiplicity
 _atom_site_fract_x
 _atom_site_fract_y
 _atom_site_fract_z
 _atom_site_occupancy
  Y  Y0  1  0.00000000  0.75000000  0.95485000  1.0
  Y  Y1  1  0.00000000  0.25000000  0.95485000  1.0
  Y  Y2  1  0.50000000  0.50000000  0.86455000  1.0
  Y  Y3  1  0.50000000  0.00000000  0.86455000  1.0
  Y  Y4  1  0.97934000  0.25053000  0.13799000  1.0
  Y  Y5  1  0.97063000  0.74984000  0.14299000  1.0
  Y  Y6  1  0.50484000  0.99385000  0.04768000  1.0
  Y  Y7  1  0.50503000  0.50663000  0.04766000  1.0
  Mg  Mg8  1  0.00000000  0.00000000  0.86455000  1.0
  Mg  Mg9  1  0.00000000  0.50000000  0.86455000  1.0
  Mg  Mg10  1  0.50000000  0.25000000  0.95485000  1.0
  Mg  Mg11  1  0.50000000  0.75000000  0.95485000  1.0
  Mg  Mg12  1  0.98291000  0.49566000  0.05033000  1.0
  Mg  Mg13  1  0.98284000  0.00450000  0.05030000  1.0
  Mg  Mg14  1  0.48001000  0.75063000  0.13839000  1.0
  Mg  Mg15  1  0.48998000  0.24995000  0.13583000  1.0
  Sn  Sn16  1  0.75000000  0.00000000  0.95485000  1.0
  Sn  Sn17  1  0.75000000  0.50000000  0.95485000  1.0
  Sn  Sn18  1  0.25000000  0.75000000  0.86455000  1.0
  Sn  Sn19  1  0.25000000  0.25000000  0.86455000  1.0
  Sn  Sn20  1  0.70577000  0.49844000  0.15393000  1.0
  Sn  Sn21  1  0.70733000  0.00188000  0.15377000  1.0
  Sn  Sn22  1  0.24808000  0.25027000  0.04776000  1.0
  Sn  Sn23  1  0.22380000  0.75030000  0.05038000  1.0
  Pd  Pd24  1  0.25000000  0.00000000  0.95485000  1.0
  Pd  Pd25  1  0.25000000  0.50000000  0.95485000  1.0
  Pd  Pd26  1  0.75000000  0.75000000  0.86455000  1.0
  Pd  Pd27  1  0.75000000  0.25000000  0.86455000  1.0
  Pd  Pd28  1  0.24978000  0.49182000  0.12472000  1.0
  Pd  Pd29  1  0.24900000  0.00854000  0.12469000  1.0
  Pd  Pd30  1  0.75522000  0.25015000  0.04485000  1.0
  Pd  Pd31  1  0.77642000  0.75027000  0.04471000  1.0
  C  C32  1  0.28446000  0.74931000  0.19997000  1.0
  O  O33  1  0.15652000  0.74923000  0.22791000  1.0
