# generated using pymatgen
data_Y8Mg8Sn8Pd8CO
_symmetry_space_group_name_H-M   P1
_cell_length_a   7.00634000
_cell_length_b   9.90846000
_cell_length_c   27.43130000
_cell_angle_alpha   90.00000000
_cell_angle_beta   90.00000000
_cell_angle_gamma   90.00000000
_symmetry_Int_Tables_number   1
_chemical_formula_structural   Y8Mg8Sn8Pd8CO
_chemical_formula_sum   'Y8 Mg8 Sn8 Pd8 C1 O1'
_cell_volume   1904.33679588
_cell_formula_units_Z   1
loop_
 _symmetry_equiv_pos_site_id
 _symmetry_equiv_pos_as_xyz
  1  'x, y, z'
loop_
 _atom_site_type_symbol
 _atom_site_label
 _atom_site_symmetry_multiplicity
 _atom_site_fract_x
 _atom_site_fract_y
 _atom_site_fract_z
 _atom_site_occupancy
  Y  Y0  1  0.00000000  0.25000000  0.95485000  1.0
  Y  Y1  1  0.00000000  0.75000000  0.95485000  1.0
  Y  Y2  1  0.02066000  0.74947000  0.13799000  1.0
  Y  Y3  1  0.02937000  0.25016000  0.14299000  1.0
  Y  Y4  1  0.49497000  0.49337000  0.04766000  1.0
  Y  Y5  1  0.49516000  0.00615000  0.04768000  1.0
  Y  Y6  1  0.50000000  0.00000000  0.86455000  1.0
  Y  Y7  1  0.50000000  0.50000000  0.86455000  1.0
  Mg  Mg8  1  0.00000000  0.00000000  0.86455000  1.0
  Mg  Mg9  1  0.00000000  0.50000000  0.86455000  1.0
  Mg  Mg10  1  0.01709000  0.50434000  0.05033000  1.0
  Mg  Mg11  1  0.01716000  0.99550000  0.05030000  1.0
  Mg  Mg12  1  0.50000000  0.25000000  0.95485000  1.0
  Mg  Mg13  1  0.50000000  0.75000000  0.95485000  1.0
  Mg  Mg14  1  0.51002000  0.75005000  0.13583000  1.0
  Mg  Mg15  1  0.51999000  0.24937000  0.13839000  1.0
  Sn  Sn16  1  0.25000000  0.00000000  0.95485000  1.0
  Sn  Sn17  1  0.25000000  0.50000000  0.95485000  1.0
  Sn  Sn18  1  0.29267000  0.99812000  0.15377000  1.0
  Sn  Sn19  1  0.29423000  0.50156000  0.15393000  1.0
  Sn  Sn20  1  0.75000000  0.25000000  0.86455000  1.0
  Sn  Sn21  1  0.75000000  0.75000000  0.86455000  1.0
  Sn  Sn22  1  0.75192000  0.74973000  0.04776000  1.0
  Sn  Sn23  1  0.77620000  0.24970000  0.05038000  1.0
  Pd  Pd24  1  0.22358000  0.24973000  0.04471000  1.0
  Pd  Pd25  1  0.24478000  0.74985000  0.04485000  1.0
  Pd  Pd26  1  0.25000000  0.25000000  0.86455000  1.0
  Pd  Pd27  1  0.25000000  0.75000000  0.86455000  1.0
  Pd  Pd28  1  0.75000000  0.00000000  0.95485000  1.0
  Pd  Pd29  1  0.75000000  0.50000000  0.95485000  1.0
  Pd  Pd30  1  0.75022000  0.50818000  0.12472000  1.0
  Pd  Pd31  1  0.75100000  0.99146000  0.12469000  1.0
  C  C32  1  0.71554000  0.25069000  0.19997000  1.0
  O  O33  1  0.84348000  0.25077000  0.22791000  1.0
