# generated using pymatgen
data_SnSb
_symmetry_space_group_name_H-M   'P 1'
_cell_length_a   3.82259500
_cell_length_b   10.81190000
_cell_length_c   28.10890000
_cell_angle_alpha   90.00000000
_cell_angle_beta   90.00000000
_cell_angle_gamma   90.00000000
_symmetry_Int_Tables_number   1
_chemical_formula_structural   SnSb
_chemical_formula_sum   'Sn8 Sb8'
_cell_volume   1161.72720082
_cell_formula_units_Z   8
loop_
 _symmetry_equiv_pos_site_id
 _symmetry_equiv_pos_as_xyz
  1  'x, y, z'
loop_
 _atom_site_type_symbol
 _atom_site_label
 _atom_site_symmetry_multiplicity
 _atom_site_fract_x
 _atom_site_fract_y
 _atom_site_fract_z
 _atom_site_occupancy
  Sn  Sn0  1  0.50000000  0.25000000  0.85576000  1.0
  Sn  Sn1  1  0.50000000  0.00000000  0.95192000  1.0
  Sn  Sn2  1  0.50000000  0.25016500  0.05213000  1.0
  Sn  Sn3  1  0.50000000  0.00000000  0.15802000  1.0
  Sn  Sn4  1  0.50000000  0.75000000  0.85576000  1.0
  Sn  Sn5  1  0.50000000  0.50000000  0.95192000  1.0
  Sn  Sn6  1  0.50000000  0.74983500  0.05213000  1.0
  Sn  Sn7  1  0.50000000  0.50000000  0.15803000  1.0
  Sb  Sb8  1  0.00000000  0.00000000  0.85576000  1.0
  Sb  Sb9  1  0.00000000  0.25000000  0.95192000  1.0
  Sb  Sb10  1  0.00000000  0.00000000  0.07224000  1.0
  Sb  Sb11  1  0.00000000  0.24992000  0.14165000  1.0
  Sb  Sb12  1  0.00000000  0.50000000  0.85576000  1.0
  Sb  Sb13  1  0.00000000  0.75000000  0.95192000  1.0
  Sb  Sb14  1  0.00000000  0.50000000  0.07226000  1.0
  Sb  Sb15  1  0.00000000  0.75008000  0.14165000  1.0
