# generated using pymatgen
data_Li8In8Ag16C
_symmetry_space_group_name_H-M   Pm
_cell_length_a   6.74000000
_cell_length_b   9.53179000
_cell_length_c   27.14880000
_cell_angle_alpha   90.00000000
_cell_angle_beta   90.00000000
_cell_angle_gamma   90.00000000
_symmetry_Int_Tables_number   6
_chemical_formula_structural   Li8In8Ag16C
_chemical_formula_sum   'Li8 In8 Ag16 C1'
_cell_volume   1744.15469077
_cell_formula_units_Z   1
loop_
 _symmetry_equiv_pos_site_id
 _symmetry_equiv_pos_as_xyz
  1  'x, y, z'
  2  'x, -y, z'
loop_
 _atom_site_type_symbol
 _atom_site_label
 _atom_site_symmetry_multiplicity
 _atom_site_fract_x
 _atom_site_fract_y
 _atom_site_fract_z
 _atom_site_occupancy
  Li  Li0  2  0.00000000  0.25000000  0.86834000  1.0
  Li  Li1  2  0.00401000  0.25011000  0.04122000  1.0
  Li  Li2  1  0.48812000  0.50000000  0.12871000  1.0
  Li  Li3  1  0.50000000  0.00000000  0.95611000  1.0
  Li  Li4  1  0.50000000  0.50000000  0.95611000  1.0
  Li  Li5  1  0.52150000  0.00000000  0.13615000  1.0
  In  In6  2  0.50000000  0.25000000  0.86834000  1.0
  In  In7  2  0.50156000  0.25558000  0.04326000  1.0
  In  In8  1  0.00000000  0.00000000  0.95611000  1.0
  In  In9  1  0.00000000  0.50000000  0.95611000  1.0
  In  In10  1  0.03628000  0.50000000  0.14896000  1.0
  In  In11  1  0.92234000  0.00000000  0.15330000  1.0
  Ag  Ag12  2  0.23342000  0.23747000  0.12808000  1.0
  Ag  Ag13  2  0.25000000  0.25000000  0.95611000  1.0
  Ag  Ag14  2  0.75000000  0.25000000  0.95611000  1.0
  Ag  Ag15  2  0.76734000  0.27169000  0.12731000  1.0
  Ag  Ag16  1  0.23099000  0.00000000  0.04619000  1.0
  Ag  Ag17  1  0.23575000  0.50000000  0.04802000  1.0
  Ag  Ag18  1  0.25000000  0.00000000  0.86834000  1.0
  Ag  Ag19  1  0.25000000  0.50000000  0.86834000  1.0
  Ag  Ag20  1  0.75000000  0.00000000  0.86834000  1.0
  Ag  Ag21  1  0.75000000  0.50000000  0.86834000  1.0
  Ag  Ag22  1  0.75275000  0.00000000  0.04444000  1.0
  Ag  Ag23  1  0.77513000  0.50000000  0.04927000  1.0
  C  C24  1  0.22663000  0.00000000  0.12886000  1.0
