# generated using pymatgen
data_CoPt3
_symmetry_space_group_name_H-M   Pmm2
_cell_length_a   3.91796000
_cell_length_b   5.54083000
_cell_length_c   24.15560000
_cell_angle_alpha   90.00000000
_cell_angle_beta   90.00000000
_cell_angle_gamma   90.00000000
_symmetry_Int_Tables_number   25
_chemical_formula_structural   CoPt3
_chemical_formula_sum   'Co2 Pt6'
_cell_volume   524.38788891
_cell_formula_units_Z   2
loop_
 _symmetry_equiv_pos_site_id
 _symmetry_equiv_pos_as_xyz
  1  'x, y, z'
  2  '-x, -y, z'
  3  '-x, y, z'
  4  'x, -y, z'
loop_
 _atom_site_type_symbol
 _atom_site_label
 _atom_site_symmetry_multiplicity
 _atom_site_fract_x
 _atom_site_fract_y
 _atom_site_fract_z
 _atom_site_occupancy
  Co  Co0  1  0.00000000  0.00000000  0.08602000  1.0
  Co  Co1  1  0.00000000  0.50000000  0.97133000  1.0
  Pt  Pt2  2  0.50000000  0.25000000  0.02867000  1.0
  Pt  Pt3  2  0.50000000  0.25000000  0.91398000  1.0
  Pt  Pt4  1  0.00000000  0.00000000  0.97133000  1.0
  Pt  Pt5  1  0.00000000  0.50000000  0.08602000  1.0
