# generated using pymatgen
data_Sc16Ni16CO
_symmetry_space_group_name_H-M   'P 1'
_cell_length_a   6.37073000
_cell_length_b   9.00957000
_cell_length_c   26.75720000
_cell_angle_alpha   90.00000000
_cell_angle_beta   90.00000000
_cell_angle_gamma   90.00000000
_symmetry_Int_Tables_number   1
_chemical_formula_structural   Sc16Ni16CO
_chemical_formula_sum   'Sc16 Ni16 C1 O1'
_cell_volume   1535.79740073
_cell_formula_units_Z   1
loop_
 _symmetry_equiv_pos_site_id
 _symmetry_equiv_pos_as_xyz
  1  'x, y, z'
loop_
 _atom_site_type_symbol
 _atom_site_label
 _atom_site_symmetry_multiplicity
 _atom_site_fract_x
 _atom_site_fract_y
 _atom_site_fract_z
 _atom_site_occupancy
  Sc  Sc0  1  0.25000000  0.00000000  0.87373000  1.0
  Sc  Sc1  1  0.25000000  0.75000000  0.95791000  1.0
  Sc  Sc2  1  0.25099000  0.00000000  0.04129000  1.0
  Sc  Sc3  1  0.25214000  0.74881000  0.12847000  1.0
  Sc  Sc4  1  0.25000000  0.50000000  0.87373000  1.0
  Sc  Sc5  1  0.25000000  0.25000000  0.95791000  1.0
  Sc  Sc6  1  0.24886000  0.50000000  0.04168000  1.0
  Sc  Sc7  1  0.25214000  0.25119000  0.12847000  1.0
  Sc  Sc8  1  0.75000000  0.00000000  0.87373000  1.0
  Sc  Sc9  1  0.75000000  0.75000000  0.95791000  1.0
  Sc  Sc10  1  0.74901000  0.00000000  0.04129000  1.0
  Sc  Sc11  1  0.74786000  0.74881000  0.12847000  1.0
  Sc  Sc12  1  0.75000000  0.50000000  0.87373000  1.0
  Sc  Sc13  1  0.75000000  0.25000000  0.95791000  1.0
  Sc  Sc14  1  0.75114000  0.50000000  0.04168000  1.0
  Sc  Sc15  1  0.74786000  0.25119000  0.12847000  1.0
  Ni  Ni16  1  0.00000000  0.75000000  0.87373000  1.0
  Ni  Ni17  1  0.00000000  0.00000000  0.95791000  1.0
  Ni  Ni18  1  0.00000000  0.75651000  0.04825000  1.0
  Ni  Ni19  1  0.00000000  0.00000000  0.12462000  1.0
  Ni  Ni20  1  0.00000000  0.25000000  0.87373000  1.0
  Ni  Ni21  1  0.00000000  0.50000000  0.95791000  1.0
  Ni  Ni22  1  0.00000000  0.24349000  0.04825000  1.0
  Ni  Ni23  1  0.00000000  0.50000000  0.11779000  1.0
  Ni  Ni24  1  0.50000000  0.75000000  0.87373000  1.0
  Ni  Ni25  1  0.50000000  0.00000000  0.95791000  1.0
  Ni  Ni26  1  0.50000000  0.74952000  0.04569000  1.0
  Ni  Ni27  1  0.50000000  0.00000000  0.11668000  1.0
  Ni  Ni28  1  0.50000000  0.25000000  0.87373000  1.0
  Ni  Ni29  1  0.50000000  0.50000000  0.95791000  1.0
  Ni  Ni30  1  0.50000000  0.25048000  0.04569000  1.0
  Ni  Ni31  1  0.50000000  0.50000000  0.11701000  1.0
  C  C32  1  0.00000000  0.00000000  0.19049000  1.0
  O  O33  1  0.00000000  0.00000000  0.23441000  1.0
