# generated using pymatgen
data_Sc16Ni16CO
_symmetry_space_group_name_H-M   Pmm2
_cell_length_a   6.37073000
_cell_length_b   9.00957000
_cell_length_c   26.75720000
_cell_angle_alpha   90.00000000
_cell_angle_beta   90.00000000
_cell_angle_gamma   90.00000000
_symmetry_Int_Tables_number   25
_chemical_formula_structural   Sc16Ni16CO
_chemical_formula_sum   'Sc16 Ni16 C1 O1'
_cell_volume   1535.79740073
_cell_formula_units_Z   1
loop_
 _symmetry_equiv_pos_site_id
 _symmetry_equiv_pos_as_xyz
  1  'x, y, z'
  2  '-x, -y, z'
  3  '-x, y, z'
  4  'x, -y, z'
loop_
 _atom_site_type_symbol
 _atom_site_label
 _atom_site_symmetry_multiplicity
 _atom_site_fract_x
 _atom_site_fract_y
 _atom_site_fract_z
 _atom_site_occupancy
  Sc  Sc0  4  0.25000000  0.25000000  0.95791000  1.0
  Sc  Sc1  4  0.25214000  0.25119000  0.12847000  1.0
  Sc  Sc2  2  0.24886000  0.50000000  0.04168000  1.0
  Sc  Sc3  2  0.25000000  0.00000000  0.87373000  1.0
  Sc  Sc4  2  0.25000000  0.50000000  0.87373000  1.0
  Sc  Sc5  2  0.25099000  0.00000000  0.04129000  1.0
  Ni  Ni6  2  0.00000000  0.24349000  0.04825000  1.0
  Ni  Ni7  2  0.00000000  0.25000000  0.87373000  1.0
  Ni  Ni8  2  0.50000000  0.25000000  0.87373000  1.0
  Ni  Ni9  2  0.50000000  0.25048000  0.04569000  1.0
  Ni  Ni10  1  0.00000000  0.00000000  0.12462000  1.0
  Ni  Ni11  1  0.00000000  0.00000000  0.95791000  1.0
  Ni  Ni12  1  0.00000000  0.50000000  0.11779000  1.0
  Ni  Ni13  1  0.00000000  0.50000000  0.95791000  1.0
  Ni  Ni14  1  0.50000000  0.00000000  0.11668000  1.0
  Ni  Ni15  1  0.50000000  0.00000000  0.95791000  1.0
  Ni  Ni16  1  0.50000000  0.50000000  0.11701000  1.0
  Ni  Ni17  1  0.50000000  0.50000000  0.95791000  1.0
  C  C18  1  0.00000000  0.00000000  0.19049000  1.0
  O  O19  1  0.00000000  0.00000000  0.23441000  1.0
