# generated using pymatgen
data_LiPb
_symmetry_space_group_name_H-M   Pm
_cell_length_a   10.20490000
_cell_length_b   7.21597000
_cell_length_c   27.65370000
_cell_angle_alpha   90.00000000
_cell_angle_beta   90.00000000
_cell_angle_gamma   90.00000000
_symmetry_Int_Tables_number   6
_chemical_formula_structural   LiPb
_chemical_formula_sum   'Li16 Pb16'
_cell_volume   2036.37013633
_cell_formula_units_Z   16
loop_
 _symmetry_equiv_pos_site_id
 _symmetry_equiv_pos_as_xyz
  1  'x, y, z'
  2  'x, -y, z'
loop_
 _atom_site_type_symbol
 _atom_site_label
 _atom_site_symmetry_multiplicity
 _atom_site_fract_x
 _atom_site_fract_y
 _atom_site_fract_z
 _atom_site_occupancy
  Li  Li0  1  0.00000000  0.00000000  0.86162000  1.0
  Li  Li1  1  0.00000000  0.50000000  0.86162000  1.0
  Li  Li2  1  0.00004000  0.50000000  0.04550000  1.0
  Li  Li3  1  0.25000000  0.00000000  0.95387000  1.0
  Li  Li4  1  0.25000000  0.50000000  0.95387000  1.0
  Li  Li5  1  0.25026000  0.00000000  0.13827000  1.0
  Li  Li6  1  0.25027000  0.50000000  0.13816000  1.0
  Li  Li7  1  0.49998000  0.50000000  0.04546000  1.0
  Li  Li8  1  0.50000000  0.00000000  0.86162000  1.0
  Li  Li9  1  0.50000000  0.50000000  0.86162000  1.0
  Li  Li10  1  0.50003000  0.00000000  0.04545000  1.0
  Li  Li11  1  0.74973000  0.50000000  0.13819000  1.0
  Li  Li12  1  0.74974000  0.00000000  0.13829000  1.0
  Li  Li13  1  0.75000000  0.00000000  0.95387000  1.0
  Li  Li14  1  0.75000000  0.50000000  0.95387000  1.0
  Li  Li15  1  0.99998000  0.00000000  0.04547000  1.0
  Pb  Pb16  2  0.00000000  0.25000000  0.95387000  1.0
  Pb  Pb17  2  0.25000000  0.24988000  0.04961000  1.0
  Pb  Pb18  2  0.25000000  0.25000000  0.86162000  1.0
  Pb  Pb19  2  0.50000000  0.25000000  0.95387000  1.0
  Pb  Pb20  2  0.50002000  0.25000000  0.13876000  1.0
  Pb  Pb21  2  0.75000000  0.25000000  0.86162000  1.0
  Pb  Pb22  2  0.75001000  0.24991000  0.04965000  1.0
  Pb  Pb23  2  0.99995000  0.24993000  0.13874000  1.0
