# generated using pymatgen
data_Li4Y4In4Ge4CO
_symmetry_space_group_name_H-M   'P 1'
_cell_length_a   9.31878000
_cell_length_b   6.03525000
_cell_length_c   24.52620000
_cell_angle_alpha   90.00000000
_cell_angle_beta   90.00000000
_cell_angle_gamma   90.00000000
_symmetry_Int_Tables_number   1
_chemical_formula_structural   Li4Y4In4Ge4CO
_chemical_formula_sum   'Li4 Y4 In4 Ge4 C1 O1'
_cell_volume   1379.38210995
_cell_formula_units_Z   1
loop_
 _symmetry_equiv_pos_site_id
 _symmetry_equiv_pos_as_xyz
  1  'x, y, z'
loop_
 _atom_site_type_symbol
 _atom_site_label
 _atom_site_symmetry_multiplicity
 _atom_site_fract_x
 _atom_site_fract_y
 _atom_site_fract_z
 _atom_site_occupancy
  Li  Li0  1  0.00000000  0.74758000  0.03076000  1.0
  Li  Li1  1  0.00000000  0.29435000  0.90446000  1.0
  Li  Li2  1  0.50000000  0.74758000  0.03076000  1.0
  Li  Li3  1  0.50000000  0.29407000  0.90839000  1.0
  Y  Y4  1  0.75000000  0.50000000  0.09227000  1.0
  Y  Y5  1  0.75025000  0.00744000  0.96996000  1.0
  Y  Y6  1  0.25000000  0.50000000  0.09227000  1.0
  Y  Y7  1  0.24975000  0.00744000  0.96996000  1.0
  In  In8  1  0.00000000  0.24758000  0.03076000  1.0
  In  In9  1  0.00000000  0.77254000  0.90416000  1.0
  In  In10  1  0.50000000  0.24758000  0.03076000  1.0
  In  In11  1  0.50000000  0.77980000  0.90520000  1.0
  Ge  Ge12  1  0.75000000  0.00000000  0.09227000  1.0
  Ge  Ge13  1  0.74792000  0.51348000  0.95737000  1.0
  Ge  Ge14  1  0.25000000  0.00000000  0.09227000  1.0
  Ge  Ge15  1  0.25208000  0.51348000  0.95737000  1.0
  C  C16  1  0.00000000  0.27666000  0.81905000  1.0
  O  O17  1  0.00000000  0.25542000  0.77277000  1.0
