# generated using pymatgen
data_Sc8Co16Sn8C
_symmetry_space_group_name_H-M   Pm
_cell_length_a   6.22913000
_cell_length_b   8.80931000
_cell_length_c   26.60700000
_cell_angle_alpha   90.00000000
_cell_angle_beta   90.00000000
_cell_angle_gamma   90.00000000
_symmetry_Int_Tables_number   6
_chemical_formula_structural   Sc8Co16Sn8C
_chemical_formula_sum   'Sc8 Co16 Sn8 C1'
_cell_volume   1460.04148989
_cell_formula_units_Z   1
loop_
 _symmetry_equiv_pos_site_id
 _symmetry_equiv_pos_as_xyz
  1  'x, y, z'
  2  'x, -y, z'
loop_
 _atom_site_type_symbol
 _atom_site_label
 _atom_site_symmetry_multiplicity
 _atom_site_fract_x
 _atom_site_fract_y
 _atom_site_fract_z
 _atom_site_occupancy
  Sc  Sc0  2  0.00000000  0.25001000  0.87584000  1.0
  Sc  Sc1  2  0.99294000  0.25033000  0.04009000  1.0
  Sc  Sc2  1  0.50000000  0.00000000  0.95861000  1.0
  Sc  Sc3  1  0.50000000  0.50000000  0.95861000  1.0
  Sc  Sc4  1  0.51563000  0.50000000  0.12664000  1.0
  Sc  Sc5  1  0.53577000  0.00000000  0.12968000  1.0
  Co  Co6  2  0.19747000  0.20603000  0.11971000  1.0
  Co  Co7  2  0.25000000  0.25001000  0.95861000  1.0
  Co  Co8  2  0.75000000  0.24999000  0.95861000  1.0
  Co  Co9  2  0.78180000  0.24125000  0.12085000  1.0
  Co  Co10  1  0.24626000  0.00000000  0.04244000  1.0
  Co  Co11  1  0.25000000  0.00000000  0.87584000  1.0
  Co  Co12  1  0.25000000  0.50000000  0.87584000  1.0
  Co  Co13  1  0.25534000  0.50000000  0.04523000  1.0
  Co  Co14  1  0.74417000  0.50000000  0.04519000  1.0
  Co  Co15  1  0.74535000  0.00000000  0.04330000  1.0
  Co  Co16  1  0.75000000  0.00000000  0.87584000  1.0
  Co  Co17  1  0.75000000  0.50000000  0.87584000  1.0
  Sn  Sn18  2  0.49871000  0.24874000  0.04399000  1.0
  Sn  Sn19  2  0.50000000  0.25001000  0.87584000  1.0
  Sn  Sn20  1  0.00000000  0.00000000  0.95861000  1.0
  Sn  Sn21  1  0.00000000  0.50000000  0.95861000  1.0
  Sn  Sn22  1  0.01197000  0.50000000  0.12865000  1.0
  Sn  Sn23  1  0.96249000  0.00000000  0.17739000  1.0
  C  C24  1  0.18231000  0.00000000  0.10960000  1.0
