# generated using pymatgen
data_Li8Y8Sn8Pb8CO
_symmetry_space_group_name_H-M   Pm
_cell_length_a   8.87168000
_cell_length_b   9.36828000
_cell_length_c   27.23350000
_cell_angle_alpha   90.00000000
_cell_angle_beta   90.00000000
_cell_angle_gamma   90.00000000
_symmetry_Int_Tables_number   6
_chemical_formula_structural   Li8Y8Sn8Pb8CO
_chemical_formula_sum   'Li8 Y8 Sn8 Pb8 C1 O1'
_cell_volume   2263.44106365
_cell_formula_units_Z   1
loop_
 _symmetry_equiv_pos_site_id
 _symmetry_equiv_pos_as_xyz
  1  'x, y, z'
  2  'x, -y, z'
loop_
 _atom_site_type_symbol
 _atom_site_label
 _atom_site_symmetry_multiplicity
 _atom_site_fract_x
 _atom_site_fract_y
 _atom_site_fract_z
 _atom_site_occupancy
  Li  Li0  1  0.00000000  0.50000000  0.86720000  1.0
  Li  Li1  1  0.00000000  0.00000000  0.86720000  1.0
  Li  Li2  1  0.50000000  0.00000000  0.86720000  1.0
  Li  Li3  1  0.50000000  0.50000000  0.86720000  1.0
  Li  Li4  1  0.50128000  0.50000000  0.04487000  1.0
  Li  Li5  1  0.50282000  0.00000000  0.04478000  1.0
  Li  Li6  1  0.99716000  0.00000000  0.04478000  1.0
  Li  Li7  1  0.99870000  0.50000000  0.04487000  1.0
  Y  Y8  2  -0.00000000  0.24999000  0.95573000  1.0
  Y  Y9  2  0.00033000  0.25001000  0.13149000  1.0
  Y  Y10  2  0.49965000  0.25001000  0.13149000  1.0
  Y  Y11  2  0.50000000  0.24999000  0.95573000  1.0
  Sn  Sn12  1  0.24999000  0.00000000  0.13501000  1.0
  Sn  Sn13  1  0.24999000  0.50000000  0.13382000  1.0
  Sn  Sn14  1  0.25000000  0.00000000  0.95573000  1.0
  Sn  Sn15  1  0.25000000  0.50000000  0.95573000  1.0
  Sn  Sn16  1  0.74999000  0.00000000  0.13426000  1.0
  Sn  Sn17  1  0.74999000  0.50000000  0.13610000  1.0
  Sn  Sn18  1  0.75000000  0.00000000  0.95573000  1.0
  Sn  Sn19  1  0.75000000  0.50000000  0.95573000  1.0
  Pb  Pb20  2  0.24999000  0.24984000  0.04595000  1.0
  Pb  Pb21  2  0.25000000  0.24999000  0.86720000  1.0
  Pb  Pb22  2  0.74999000  0.25143000  0.04604000  1.0
  Pb  Pb23  2  0.75000000  0.24999000  0.86720000  1.0
  C  C24  1  0.25039000  0.50000000  0.29616000  1.0
  O  O25  1  0.24996000  0.50000000  0.33785000  1.0
