# generated using pymatgen
data_Ca16In16CO
_symmetry_space_group_name_H-M   'P 1'
_cell_length_a   11.03900000
_cell_length_b   7.80577000
_cell_length_c   28.27930000
_cell_angle_alpha   90.00000000
_cell_angle_beta   90.00000000
_cell_angle_gamma   90.00000000
_symmetry_Int_Tables_number   1
_chemical_formula_structural   Ca16In16CO
_chemical_formula_sum   'Ca16 In16 C1 O1'
_cell_volume   2436.76775392
_cell_formula_units_Z   1
loop_
 _symmetry_equiv_pos_site_id
 _symmetry_equiv_pos_as_xyz
  1  'x, y, z'
loop_
 _atom_site_type_symbol
 _atom_site_label
 _atom_site_symmetry_multiplicity
 _atom_site_fract_x
 _atom_site_fract_y
 _atom_site_fract_z
 _atom_site_occupancy
  Ca  Ca0  1  0.00000000  0.00000000  0.14638000  1.0
  Ca  Ca1  1  0.25000000  0.00000000  0.04879000  1.0
  Ca  Ca2  1  0.00230000  0.00000000  0.95245000  1.0
  Ca  Ca3  1  0.24995000  0.00000000  0.85558000  1.0
  Ca  Ca4  1  0.50000000  0.00000000  0.14638000  1.0
  Ca  Ca5  1  0.75000000  0.00000000  0.04879000  1.0
  Ca  Ca6  1  0.49788000  0.00000000  0.95247000  1.0
  Ca  Ca7  1  0.75004000  0.00000000  0.84593000  1.0
  Ca  Ca8  1  0.00000000  0.50000000  0.14638000  1.0
  Ca  Ca9  1  0.25000000  0.50000000  0.04879000  1.0
  Ca  Ca10  1  0.99724000  0.50000000  0.95160000  1.0
  Ca  Ca11  1  0.25006000  0.50000000  0.84889000  1.0
  Ca  Ca12  1  0.50000000  0.50000000  0.14638000  1.0
  Ca  Ca13  1  0.75000000  0.50000000  0.04879000  1.0
  Ca  Ca14  1  0.50296000  0.50000000  0.95157000  1.0
  Ca  Ca15  1  0.74992000  0.50000000  0.84738000  1.0
  In  In16  1  0.25000000  0.75000000  0.14638000  1.0
  In  In17  1  0.00000000  0.75000000  0.04879000  1.0
  In  In18  1  0.25005000  0.73667000  0.94834000  1.0
  In  In19  1  0.99712000  0.75158000  0.85381000  1.0
  In  In20  1  0.75000000  0.75000000  0.14638000  1.0
  In  In21  1  0.50000000  0.75000000  0.04879000  1.0
  In  In22  1  0.75015000  0.75392000  0.94403000  1.0
  In  In23  1  0.50280000  0.75196000  0.85381000  1.0
  In  In24  1  0.25000000  0.25000000  0.14638000  1.0
  In  In25  1  0.00000000  0.25000000  0.04879000  1.0
  In  In26  1  0.25005000  0.26333000  0.94834000  1.0
  In  In27  1  0.99712000  0.24842000  0.85381000  1.0
  In  In28  1  0.75000000  0.25000000  0.14638000  1.0
  In  In29  1  0.50000000  0.25000000  0.04879000  1.0
  In  In30  1  0.75015000  0.24608000  0.94403000  1.0
  In  In31  1  0.50280000  0.24804000  0.85381000  1.0
  C  C32  1  0.24809000  0.00000000  0.76496000  1.0
  O  O33  1  0.24741000  0.00000000  0.72443000  1.0
