# generated using pymatgen
data_LiSnGePd
_symmetry_space_group_name_H-M   'P 1'
_cell_length_a   6.61012000
_cell_length_b   4.67406000
_cell_length_c   27.01110000
_cell_angle_alpha   90.00000000
_cell_angle_beta   90.00000000
_cell_angle_gamma   90.00000000
_symmetry_Int_Tables_number   1
_chemical_formula_structural   LiSnGePd
_chemical_formula_sum   'Li4 Sn4 Ge4 Pd4'
_cell_volume   834.53757884
_cell_formula_units_Z   4
loop_
 _symmetry_equiv_pos_site_id
 _symmetry_equiv_pos_as_xyz
  1  'x, y, z'
loop_
 _atom_site_type_symbol
 _atom_site_label
 _atom_site_symmetry_multiplicity
 _atom_site_fract_x
 _atom_site_fract_y
 _atom_site_fract_z
 _atom_site_occupancy
  Li  Li0  1  0.25000000  0.00000000  0.95674000  1.0
  Li  Li1  1  0.75000000  0.50000000  0.87022000  1.0
  Li  Li2  1  0.28031000  0.00000000  0.13640000  1.0
  Li  Li3  1  0.76888500  0.50000000  0.04285000  1.0
  Sn  Sn4  1  0.00000000  0.50000000  0.95674000  1.0
  Sn  Sn5  1  0.50000000  0.00000000  0.87022000  1.0
  Sn  Sn6  1  0.97812000  0.50000000  0.13913000  1.0
  Sn  Sn7  1  0.48247000  0.00000000  0.04022000  1.0
  Ge  Ge8  1  0.00000000  0.00000000  0.87022000  1.0
  Ge  Ge9  1  0.50000000  0.50000000  0.95674000  1.0
  Ge  Ge10  1  0.01864000  0.00000000  0.04686000  1.0
  Ge  Ge11  1  0.52909000  0.50000000  0.12725000  1.0
  Pd  Pd12  1  0.75000000  0.00000000  0.95674000  1.0
  Pd  Pd13  1  0.25000000  0.50000000  0.87022000  1.0
  Pd  Pd14  1  0.74458000  0.00000000  0.11587000  1.0
  Pd  Pd15  1  0.23312000  0.50000000  0.04840000  1.0
