# generated using pymatgen
data_Y8In8Cu8Sn8CO
_symmetry_space_group_name_H-M   Pmm2
_cell_length_a   8.82850000
_cell_length_b   9.14612000
_cell_length_c   26.63560000
_cell_angle_alpha   90.00000000
_cell_angle_beta   90.00000000
_cell_angle_gamma   90.00000000
_symmetry_Int_Tables_number   25
_chemical_formula_structural   Y8In8Cu8Sn8CO
_chemical_formula_sum   'Y8 In8 Cu8 Sn8 C1 O1'
_cell_volume   2150.73201930
_cell_formula_units_Z   1
loop_
 _symmetry_equiv_pos_site_id
 _symmetry_equiv_pos_as_xyz
  1  'x, y, z'
  2  '-x, -y, z'
  3  '-x, y, z'
  4  'x, -y, z'
loop_
 _atom_site_type_symbol
 _atom_site_label
 _atom_site_symmetry_multiplicity
 _atom_site_fract_x
 _atom_site_fract_y
 _atom_site_fract_z
 _atom_site_occupancy
  Y  Y0  2  0.25000000  0.00000000  0.12456000  1.0
  Y  Y1  2  0.25000000  0.50000000  0.12456000  1.0
  Y  Y2  2  0.25012000  0.50000000  0.95839000  1.0
  Y  Y3  2  0.26158000  0.00000000  0.95697000  1.0
  In  In4  4  0.25000000  0.25000000  0.04152000  1.0
  In  In5  4  0.26111000  0.25343000  0.87394000  1.0
  Cu  Cu6  2  0.00000000  0.25000000  0.12456000  1.0
  Cu  Cu7  2  0.00000000  0.25625000  0.96556000  1.0
  Cu  Cu8  2  0.50000000  0.25000000  0.12456000  1.0
  Cu  Cu9  2  0.50000000  0.25544000  0.96164000  1.0
  Sn  Sn10  1  0.00000000  0.00000000  0.04152000  1.0
  Sn  Sn11  1  0.00000000  0.00000000  0.88106000  1.0
  Sn  Sn12  1  0.00000000  0.50000000  0.04152000  1.0
  Sn  Sn13  1  0.00000000  0.50000000  0.87142000  1.0
  Sn  Sn14  1  0.50000000  0.00000000  0.04152000  1.0
  Sn  Sn15  1  0.50000000  0.00000000  0.86203000  1.0
  Sn  Sn16  1  0.50000000  0.50000000  0.04152000  1.0
  Sn  Sn17  1  0.50000000  0.50000000  0.86839000  1.0
  C  C18  1  0.00000000  0.00000000  0.79257000  1.0
  O  O19  1  0.00000000  0.00000000  0.74952000  1.0
