# generated using pymatgen
data_AlNi3
_symmetry_space_group_name_H-M   Pm
_cell_length_a   7.20976000
_cell_length_b   5.09807000
_cell_length_c   23.82360000
_cell_angle_alpha   90.00000000
_cell_angle_beta   90.00000000
_cell_angle_gamma   90.00000000
_symmetry_Int_Tables_number   6
_chemical_formula_structural   AlNi3
_chemical_formula_sum   'Al4 Ni12'
_cell_volume   875.65693401
_cell_formula_units_Z   4
loop_
 _symmetry_equiv_pos_site_id
 _symmetry_equiv_pos_as_xyz
  1  'x, y, z'
  2  'x, -y, z'
loop_
 _atom_site_type_symbol
 _atom_site_label
 _atom_site_symmetry_multiplicity
 _atom_site_fract_x
 _atom_site_fract_y
 _atom_site_fract_z
 _atom_site_occupancy
  Al  Al0  1  0.00000000  0.00000000  0.91975000  1.0
  Al  Al1  1  0.50000000  0.00000000  0.91975000  1.0
  Al  Al2  1  0.50008000  0.50000000  0.02634000  1.0
  Al  Al3  1  0.99991000  0.50000000  0.02635000  1.0
  Ni  Ni4  2  0.25000000  0.25000000  0.97325000  1.0
  Ni  Ni5  2  0.25006000  0.25381000  0.07595000  1.0
  Ni  Ni6  2  0.74997000  0.25380000  0.07603000  1.0
  Ni  Ni7  2  0.75000000  0.25000000  0.97325000  1.0
  Ni  Ni8  1  0.00000000  0.50000000  0.91975000  1.0
  Ni  Ni9  1  0.50000000  0.50000000  0.91975000  1.0
  Ni  Ni10  1  0.50008000  0.00000000  0.02798000  1.0
  Ni  Ni11  1  0.99994000  0.00000000  0.02803000  1.0
