# generated using pymatgen
data_LiInGaPd
_symmetry_space_group_name_H-M   Pm
_cell_length_a   6.46680000
_cell_length_b   4.57272000
_cell_length_c   26.85910000
_cell_angle_alpha   90.00000000
_cell_angle_beta   90.00000000
_cell_angle_gamma   90.00000000
_symmetry_Int_Tables_number   6
_chemical_formula_structural   LiInGaPd
_chemical_formula_sum   'Li4 In4 Ga4 Pd4'
_cell_volume   794.24683882
_cell_formula_units_Z   4
loop_
 _symmetry_equiv_pos_site_id
 _symmetry_equiv_pos_as_xyz
  1  'x, y, z'
  2  'x, -y, z'
loop_
 _atom_site_type_symbol
 _atom_site_label
 _atom_site_symmetry_multiplicity
 _atom_site_fract_x
 _atom_site_fract_y
 _atom_site_fract_z
 _atom_site_occupancy
  Li  Li0  1  0.25000000  0.00000000  0.04256000  1.0
  Li  Li1  1  0.28825000  0.00000000  0.85658500  1.0
  Li  Li2  1  0.75000000  0.50000000  0.12769000  1.0
  Li  Li3  1  0.78426000  0.50000000  0.95141500  1.0
  In  In4  1  0.00000000  0.50000000  0.04256000  1.0
  In  In5  1  0.01264000  0.50000000  0.85211000  1.0
  In  In6  1  0.50000000  0.00000000  0.12769000  1.0
  In  In7  1  0.50176500  0.00000000  0.95508500  1.0
  Ga  Ga8  1  0.00000000  0.00000000  0.12769000  1.0
  Ga  Ga9  1  0.02694000  0.00000000  0.94927000  1.0
  Ga  Ga10  1  0.50000000  0.50000000  0.04256000  1.0
  Ga  Ga11  1  0.52096000  0.50000000  0.86884000  1.0
  Pd  Pd12  1  0.24733000  0.50000000  0.95836000  1.0
  Pd  Pd13  1  0.25000000  0.50000000  0.12769000  1.0
  Pd  Pd14  1  0.75000000  0.00000000  0.04256000  1.0
  Pd  Pd15  1  0.76309000  0.00000000  0.87578000  1.0
