# generated using pymatgen
data_Li8Ag8Ge8Pd8CO
_symmetry_space_group_name_H-M   'P 1'
_cell_length_a   8.88488000
_cell_length_b   6.28256000
_cell_length_c   26.66370000
_cell_angle_alpha   90.00000000
_cell_angle_beta   90.00000000
_cell_angle_gamma   90.00000000
_symmetry_Int_Tables_number   1
_chemical_formula_structural   Li8Ag8Ge8Pd8CO
_chemical_formula_sum   'Li8 Ag8 Ge8 Pd8 C1 O1'
_cell_volume   1488.36217976
_cell_formula_units_Z   1
loop_
 _symmetry_equiv_pos_site_id
 _symmetry_equiv_pos_as_xyz
  1  'x, y, z'
loop_
 _atom_site_type_symbol
 _atom_site_label
 _atom_site_symmetry_multiplicity
 _atom_site_fract_x
 _atom_site_fract_y
 _atom_site_fract_z
 _atom_site_occupancy
  Li  Li0  1  0.75000000  0.25000000  0.04165000  1.0
  Li  Li1  1  0.25000000  0.25000000  0.04165000  1.0
  Li  Li2  1  0.00000000  0.75000000  0.12496000  1.0
  Li  Li3  1  0.50000000  0.75000000  0.12496000  1.0
  Li  Li4  1  0.25421000  0.22845000  0.86551000  1.0
  Li  Li5  1  0.74579000  0.22845000  0.86551000  1.0
  Li  Li6  1  0.50000000  0.73909000  0.96197000  1.0
  Li  Li7  1  0.00000000  0.74533000  0.95841000  1.0
  Ag  Ag8  1  0.75000000  0.00000000  0.12496000  1.0
  Ag  Ag9  1  0.25000000  0.00000000  0.12496000  1.0
  Ag  Ag10  1  0.50000000  0.50000000  0.04165000  1.0
  Ag  Ag11  1  0.00000000  0.50000000  0.04165000  1.0
  Ag  Ag12  1  0.24344000  0.99213000  0.95522000  1.0
  Ag  Ag13  1  0.75656000  0.99213000  0.95522000  1.0
  Ag  Ag14  1  0.00000000  0.51562000  0.87511000  1.0
  Ag  Ag15  1  0.50000000  0.50242000  0.87509000  1.0
  Ge  Ge16  1  0.75000000  0.75000000  0.04165000  1.0
  Ge  Ge17  1  0.25000000  0.75000000  0.04165000  1.0
  Ge  Ge18  1  0.00000000  0.25000000  0.12496000  1.0
  Ge  Ge19  1  0.50000000  0.25000000  0.12496000  1.0
  Ge  Ge20  1  0.25467000  0.74927000  0.87078000  1.0
  Ge  Ge21  1  0.74533000  0.74927000  0.87078000  1.0
  Ge  Ge22  1  0.50000000  0.24581000  0.95791000  1.0
  Ge  Ge23  1  0.00000000  0.25028000  0.95856000  1.0
  Pd  Pd24  1  0.00000000  0.00000000  0.04165000  1.0
  Pd  Pd25  1  0.50000000  0.00000000  0.04165000  1.0
  Pd  Pd26  1  0.25000000  0.50000000  0.12496000  1.0
  Pd  Pd27  1  0.75000000  0.50000000  0.12496000  1.0
  Pd  Pd28  1  0.50000000  0.97431000  0.88420000  1.0
  Pd  Pd29  1  0.00000000  0.99704000  0.86972000  1.0
  Pd  Pd30  1  0.75082000  0.48431000  0.95248000  1.0
  Pd  Pd31  1  0.24918000  0.48431000  0.95248000  1.0
  C  C32  1  0.00000000  0.10155000  0.80083000  1.0
  O  O33  1  0.00000000  0.11650000  0.75765000  1.0
