data_image0
_chemical_formula_structural       In4Fe4Co8CO
_chemical_formula_sum              "In4 Fe4 Co8 C1 O1"
_cell_length_a       6.01864
_cell_length_b       6.01864
_cell_length_c       24.514
_cell_angle_alpha    90
_cell_angle_beta     90
_cell_angle_gamma    90

_space_group_name_H-M_alt    "P 1"
_space_group_IT_number       1

loop_
  _space_group_symop_operation_xyz
  'x, y, z'

loop_
  _atom_site_type_symbol
  _atom_site_label
  _atom_site_symmetry_multiplicity
  _atom_site_fract_x
  _atom_site_fract_y
  _atom_site_fract_z
  _atom_site_occupancy
  In  In1       1.0  0.00000  0.00000  0.90793  1.0000
  In  In2       1.0  0.50000  0.50000  0.90793  1.0000
  In  In3       1.0  0.49915  0.00099  0.03226  1.0000
  In  In4       1.0  0.00097  0.49912  0.03226  1.0000
  Fe  Fe1       1.0  0.99500  0.99508  0.03522  1.0000
  Fe  Fe2       1.0  0.50000  0.00000  0.90793  1.0000
  Fe  Fe3       1.0  0.00000  0.50000  0.90793  1.0000
  Fe  Fe4       1.0  0.50500  0.50493  0.03521  1.0000
  Co  Co1       1.0  0.25000  0.25000  0.96931  1.0000
  Co  Co2       1.0  0.75003  0.75004  0.09111  1.0000
  Co  Co3       1.0  0.75000  0.25000  0.96931  1.0000
  Co  Co4       1.0  0.24996  0.75024  0.09190  1.0000
  Co  Co5       1.0  0.75000  0.75000  0.96931  1.0000
  Co  Co6       1.0  0.24976  0.24975  0.09082  1.0000
  Co  Co7       1.0  0.25000  0.75000  0.96931  1.0000
  Co  Co8       1.0  0.75024  0.24995  0.09188  1.0000
  C   C1        1.0  0.24970  0.24970  0.16199  1.0000
  O   O1        1.0  0.24965  0.24964  0.20940  1.0000
