# generated using pymatgen
data_Li8Mg8Ag8Pd8C
_symmetry_space_group_name_H-M   'P 1'
_cell_length_a   9.02734000
_cell_length_b   6.38329000
_cell_length_c   26.77050000
_cell_angle_alpha   90.00000000
_cell_angle_beta   90.00000000
_cell_angle_gamma   90.00000000
_symmetry_Int_Tables_number   1
_chemical_formula_structural   Li8Mg8Ag8Pd8C
_chemical_formula_sum   'Li8 Mg8 Ag8 Pd8 C1'
_cell_volume   1542.62674937
_cell_formula_units_Z   1
loop_
 _symmetry_equiv_pos_site_id
 _symmetry_equiv_pos_as_xyz
  1  'x, y, z'
loop_
 _atom_site_type_symbol
 _atom_site_label
 _atom_site_symmetry_multiplicity
 _atom_site_fract_x
 _atom_site_fract_y
 _atom_site_fract_z
 _atom_site_occupancy
  Li  Li0  1  0.00000000  0.75000000  0.04215000  1.0
  Li  Li1  1  0.50000000  0.75000000  0.04215000  1.0
  Li  Li2  1  0.25000000  0.25000000  0.12645000  1.0
  Li  Li3  1  0.75000000  0.25000000  0.12645000  1.0
  Li  Li4  1  0.50000000  0.76693000  0.86644000  1.0
  Li  Li5  1  0.00000000  0.70874000  0.87922000  1.0
  Li  Li6  1  0.75005000  0.25082000  0.95481000  1.0
  Li  Li7  1  0.24995000  0.25082000  0.95481000  1.0
  Mg  Mg8  1  0.00000000  0.25000000  0.04215000  1.0
  Mg  Mg9  1  0.50000000  0.25000000  0.04215000  1.0
  Mg  Mg10  1  0.25000000  0.75000000  0.12645000  1.0
  Mg  Mg11  1  0.75000000  0.75000000  0.12645000  1.0
  Mg  Mg12  1  0.50000000  0.22052000  0.86754000  1.0
  Mg  Mg13  1  0.00000000  0.30435000  0.86991000  1.0
  Mg  Mg14  1  0.74991000  0.75194000  0.95685000  1.0
  Mg  Mg15  1  0.25009000  0.75194000  0.95685000  1.0
  Ag  Ag16  1  0.00000000  0.00000000  0.12645000  1.0
  Ag  Ag17  1  0.50000000  0.00000000  0.12645000  1.0
  Ag  Ag18  1  0.75000000  0.50000000  0.04215000  1.0
  Ag  Ag19  1  0.25000000  0.50000000  0.04215000  1.0
  Ag  Ag20  1  0.50000000  0.00099000  0.95563000  1.0
  Ag  Ag21  1  0.00000000  0.00851000  0.95730000  1.0
  Ag  Ag22  1  0.26804000  0.50678000  0.87195000  1.0
  Ag  Ag23  1  0.73196000  0.50678000  0.87195000  1.0
  Pd  Pd24  1  0.25000000  0.00000000  0.04215000  1.0
  Pd  Pd25  1  0.75000000  0.00000000  0.04215000  1.0
  Pd  Pd26  1  0.50000000  0.50000000  0.12645000  1.0
  Pd  Pd27  1  0.00000000  0.50000000  0.12645000  1.0
  Pd  Pd28  1  0.78481000  0.99275000  0.87234000  1.0
  Pd  Pd29  1  0.21519000  0.99275000  0.87234000  1.0
  Pd  Pd30  1  0.00000000  0.49917000  0.96115000  1.0
  Pd  Pd31  1  0.50000000  0.49677000  0.95401000  1.0
  C  C32  1  0.00000000  0.98594000  0.85045000  1.0
