# generated using pymatgen
data_Li8Mg8Ag8Pd8C
_symmetry_space_group_name_H-M   Pm
_cell_length_a   6.38329000
_cell_length_b   9.02734000
_cell_length_c   26.77050000
_cell_angle_alpha   90.00000000
_cell_angle_beta   90.00000000
_cell_angle_gamma   90.00000000
_symmetry_Int_Tables_number   6
_chemical_formula_structural   Li8Mg8Ag8Pd8C
_chemical_formula_sum   'Li8 Mg8 Ag8 Pd8 C1'
_cell_volume   1542.62674937
_cell_formula_units_Z   1
loop_
 _symmetry_equiv_pos_site_id
 _symmetry_equiv_pos_as_xyz
  1  'x, y, z'
  2  'x, -y, z'
loop_
 _atom_site_type_symbol
 _atom_site_label
 _atom_site_symmetry_multiplicity
 _atom_site_fract_x
 _atom_site_fract_y
 _atom_site_fract_z
 _atom_site_occupancy
  Li  Li0  2  0.25000000  0.25000000  0.87355000  1.0
  Li  Li1  2  0.25082000  0.24995000  0.04519000  1.0
  Li  Li2  1  0.70874000  0.00000000  0.12078000  1.0
  Li  Li3  1  0.75000000  0.00000000  0.95785000  1.0
  Li  Li4  1  0.75000000  0.50000000  0.95785000  1.0
  Li  Li5  1  0.76693000  0.50000000  0.13356000  1.0
  Mg  Mg6  2  0.75000000  0.25000000  0.87355000  1.0
  Mg  Mg7  2  0.75194000  0.25009000  0.04315000  1.0
  Mg  Mg8  1  0.22052000  0.50000000  0.13246000  1.0
  Mg  Mg9  1  0.25000000  0.00000000  0.95785000  1.0
  Mg  Mg10  1  0.25000000  0.50000000  0.95785000  1.0
  Mg  Mg11  1  0.30435000  0.00000000  0.13009000  1.0
  Ag  Ag12  2  0.50000000  0.25000000  0.95785000  1.0
  Ag  Ag13  2  0.50678000  0.26804000  0.12805000  1.0
  Ag  Ag14  1  0.00000000  0.00000000  0.87355000  1.0
  Ag  Ag15  1  0.00000000  0.50000000  0.87355000  1.0
  Ag  Ag16  1  0.00099000  0.50000000  0.04437000  1.0
  Ag  Ag17  1  0.00851000  0.00000000  0.04270000  1.0
  Pd  Pd18  2  0.00000000  0.25000000  0.95785000  1.0
  Pd  Pd19  2  0.99275000  0.21519000  0.12766000  1.0
  Pd  Pd20  1  0.49677000  0.50000000  0.04599000  1.0
  Pd  Pd21  1  0.49917000  0.00000000  0.03885000  1.0
  Pd  Pd22  1  0.50000000  0.00000000  0.87355000  1.0
  Pd  Pd23  1  0.50000000  0.50000000  0.87355000  1.0
  C  C24  1  0.98594000  0.00000000  0.14955000  1.0
