# generated using pymatgen
data_Sc8Al8Au16C
_symmetry_space_group_name_H-M   P1
_cell_length_a   6.63475000
_cell_length_b   9.38295000
_cell_length_c   27.03720000
_cell_angle_alpha   90.00000000
_cell_angle_beta   90.00000000
_cell_angle_gamma   90.00000000
_symmetry_Int_Tables_number   1
_chemical_formula_structural   Sc8Al8Au16C
_chemical_formula_sum   'Sc8 Al8 Au16 C1'
_cell_volume   1683.16107406
_cell_formula_units_Z   1
loop_
 _symmetry_equiv_pos_site_id
 _symmetry_equiv_pos_as_xyz
  1  'x, y, z'
loop_
 _atom_site_type_symbol
 _atom_site_label
 _atom_site_symmetry_multiplicity
 _atom_site_fract_x
 _atom_site_fract_y
 _atom_site_fract_z
 _atom_site_occupancy
  Sc  Sc0  1  0.00000000  0.00000000  0.86986000  1.0
  Sc  Sc1  1  0.00000000  0.50000000  0.86986000  1.0
  Sc  Sc2  1  0.00004000  0.00001000  0.04483000  1.0
  Sc  Sc3  1  0.50000000  0.25000000  0.95662000  1.0
  Sc  Sc4  1  0.50000000  0.27310000  0.12850000  1.0
  Sc  Sc5  1  0.50000000  0.72690000  0.12849000  1.0
  Sc  Sc6  1  0.50000000  0.75000000  0.95662000  1.0
  Sc  Sc7  1  0.99967000  0.49990000  0.05752000  1.0
  Al  Al8  1  0.00000000  0.25000000  0.95662000  1.0
  Al  Al9  1  0.00000000  0.75000000  0.95662000  1.0
  Al  Al10  1  0.00002000  0.21877000  0.12420000  1.0
  Al  Al11  1  0.00002000  0.78121000  0.12420000  1.0
  Al  Al12  1  0.49993000  0.50001000  0.04016000  1.0
  Al  Al13  1  0.50000000  0.00000000  0.86986000  1.0
  Al  Al14  1  0.50000000  0.50000000  0.86986000  1.0
  Al  Al15  1  0.50000000  0.99998000  0.04040000  1.0
  Au  Au16  1  0.22326000  0.50002000  0.14767000  1.0
  Au  Au17  1  0.25000000  0.00000000  0.95662000  1.0
  Au  Au18  1  0.25000000  0.25000000  0.86986000  1.0
  Au  Au19  1  0.25000000  0.50000000  0.95662000  1.0
  Au  Au20  1  0.25000000  0.75000000  0.86986000  1.0
  Au  Au21  1  0.25389000  0.74742000  0.04248000  1.0
  Au  Au22  1  0.25400000  0.25253000  0.04247000  1.0
  Au  Au23  1  0.30114000  0.99999000  0.15008000  1.0
  Au  Au24  1  0.69888000  0.99999000  0.15007000  1.0
  Au  Au25  1  0.74593000  0.25245000  0.04247000  1.0
  Au  Au26  1  0.74602000  0.74752000  0.04247000  1.0
  Au  Au27  1  0.75000000  0.00000000  0.95662000  1.0
  Au  Au28  1  0.75000000  0.25000000  0.86986000  1.0
  Au  Au29  1  0.75000000  0.50000000  0.95662000  1.0
  Au  Au30  1  0.75000000  0.75000000  0.86986000  1.0
  Au  Au31  1  0.77667000  0.50002000  0.14772000  1.0
  C  C32  1  0.00002000  0.99999000  0.12581000  1.0
