# generated using pymatgen
data_Y16Ir16C
_symmetry_space_group_name_H-M   Pmm2
_cell_length_a   6.88160000
_cell_length_b   9.73205000
_cell_length_c   27.29900000
_cell_angle_alpha   90.00000000
_cell_angle_beta   90.00000000
_cell_angle_gamma   90.00000000
_symmetry_Int_Tables_number   25
_chemical_formula_structural   Y16Ir16C
_chemical_formula_sum   'Y16 Ir16 C1'
_cell_volume   1828.27068307
_cell_formula_units_Z   1
loop_
 _symmetry_equiv_pos_site_id
 _symmetry_equiv_pos_as_xyz
  1  'x, y, z'
  2  '-x, -y, z'
  3  '-x, y, z'
  4  'x, -y, z'
loop_
 _atom_site_type_symbol
 _atom_site_label
 _atom_site_symmetry_multiplicity
 _atom_site_fract_x
 _atom_site_fract_y
 _atom_site_fract_z
 _atom_site_occupancy
  Y  Y0  4  0.24754000  0.25312000  0.04673000  1.0
  Y  Y1  4  0.25000000  0.25000000  0.86631000  1.0
  Y  Y2  2  0.25000000  0.00000000  0.95544000  1.0
  Y  Y3  2  0.25000000  0.50000000  0.95544000  1.0
  Y  Y4  2  0.25287000  0.50000000  0.13934000  1.0
  Y  Y5  2  0.29102000  0.00000000  0.13021000  1.0
  Ir  Ir6  2  0.00000000  0.18365000  0.14540000  1.0
  Ir  Ir7  2  0.00000000  0.25000000  0.95544000  1.0
  Ir  Ir8  2  0.50000000  0.25000000  0.95544000  1.0
  Ir  Ir9  2  0.50000000  0.26922000  0.12862000  1.0
  Ir  Ir10  1  0.00000000  0.00000000  0.04657000  1.0
  Ir  Ir11  1  0.00000000  0.00000000  0.86631000  1.0
  Ir  Ir12  1  0.00000000  0.50000000  0.05266000  1.0
  Ir  Ir13  1  0.00000000  0.50000000  0.86631000  1.0
  Ir  Ir14  1  0.50000000  0.00000000  0.04033000  1.0
  Ir  Ir15  1  0.50000000  0.00000000  0.86631000  1.0
  Ir  Ir16  1  0.50000000  0.50000000  0.04857000  1.0
  Ir  Ir17  1  0.50000000  0.50000000  0.86631000  1.0
  C  C18  1  0.00000000  0.00000000  0.17571000  1.0
