# generated using pymatgen
data_Hf8Al8Ni16CO
_symmetry_space_group_name_H-M   Pmm2
_cell_length_a   6.09317000
_cell_length_b   8.61704000
_cell_length_c   26.46280000
_cell_angle_alpha   90.00000000
_cell_angle_beta   90.00000000
_cell_angle_gamma   90.00000000
_symmetry_Int_Tables_number   25
_chemical_formula_structural   Hf8Al8Ni16CO
_chemical_formula_sum   'Hf8 Al8 Ni16 C1 O1'
_cell_volume   1389.43168551
_cell_formula_units_Z   1
loop_
 _symmetry_equiv_pos_site_id
 _symmetry_equiv_pos_as_xyz
  1  'x, y, z'
  2  '-x, -y, z'
  3  '-x, y, z'
  4  'x, -y, z'
loop_
 _atom_site_type_symbol
 _atom_site_label
 _atom_site_symmetry_multiplicity
 _atom_site_fract_x
 _atom_site_fract_y
 _atom_site_fract_z
 _atom_site_occupancy
  Hf  Hf0  2  0.00000000  0.25000000  0.87789000  1.0
  Hf  Hf1  2  0.00000000  0.25151000  0.03978000  1.0
  Hf  Hf2  1  0.50000000  0.00000000  0.12572000  1.0
  Hf  Hf3  1  0.50000000  0.00000000  0.95930000  1.0
  Hf  Hf4  1  0.50000000  0.50000000  0.12581000  1.0
  Hf  Hf5  1  0.50000000  0.50000000  0.95930000  1.0
  Al  Al6  2  0.50000000  0.24863000  0.04244000  1.0
  Al  Al7  2  0.50000000  0.25000000  0.87789000  1.0
  Al  Al8  1  0.00000000  0.00000000  0.12021000  1.0
  Al  Al9  1  0.00000000  0.00000000  0.95930000  1.0
  Al  Al10  1  0.00000000  0.50000000  0.12033000  1.0
  Al  Al11  1  0.00000000  0.50000000  0.95930000  1.0
  Ni  Ni12  4  0.24002000  0.25132000  0.11745000  1.0
  Ni  Ni13  4  0.25000000  0.25000000  0.95930000  1.0
  Ni  Ni14  2  0.25000000  0.00000000  0.87789000  1.0
  Ni  Ni15  2  0.25000000  0.50000000  0.87789000  1.0
  Ni  Ni16  2  0.25741000  0.00000000  0.04125000  1.0
  Ni  Ni17  2  0.26811000  0.50000000  0.04354000  1.0
  C  C18  1  0.50000000  0.00000000  0.21221000  1.0
  O  O19  1  0.50000000  0.00000000  0.25561000  1.0
