# generated using pymatgen
data_Mg12In4C
_symmetry_space_group_name_H-M   'P 1'
_cell_length_a   9.03947000
_cell_length_b   6.39187000
_cell_length_c   24.79390000
_cell_angle_alpha   90.00000000
_cell_angle_beta   90.00000000
_cell_angle_gamma   90.00000000
_symmetry_Int_Tables_number   1
_chemical_formula_structural   Mg12In4C
_chemical_formula_sum   'Mg12 In4 C1'
_cell_volume   1432.56965169
_cell_formula_units_Z   1
loop_
 _symmetry_equiv_pos_site_id
 _symmetry_equiv_pos_as_xyz
  1  'x, y, z'
loop_
 _atom_site_type_symbol
 _atom_site_label
 _atom_site_symmetry_multiplicity
 _atom_site_fract_x
 _atom_site_fract_y
 _atom_site_fract_z
 _atom_site_occupancy
  Mg  Mg0  1  0.68293000  0.50694000  0.10571000  1.0
  Mg  Mg1  1  0.50000000  0.24839000  0.02407000  1.0
  Mg  Mg2  1  0.50000000  0.75225000  0.02223000  1.0
  Mg  Mg3  1  0.75000000  0.00000000  0.96777000  1.0
  Mg  Mg4  1  0.50000000  0.75000000  0.90332000  1.0
  Mg  Mg5  1  0.50000000  0.25000000  0.90332000  1.0
  Mg  Mg6  1  0.31707000  0.50694000  0.10571000  1.0
  Mg  Mg7  1  0.00000000  0.25717000  0.04285000  1.0
  Mg  Mg8  1  0.00000000  0.75076000  0.04893000  1.0
  Mg  Mg9  1  0.25000000  0.00000000  0.96777000  1.0
  Mg  Mg10  1  0.00000000  0.75000000  0.90332000  1.0
  Mg  Mg11  1  0.00000000  0.25000000  0.90332000  1.0
  In  In12  1  0.69281000  0.99602000  0.10597000  1.0
  In  In13  1  0.75000000  0.50000000  0.96777000  1.0
  In  In14  1  0.30719000  0.99602000  0.10597000  1.0
  In  In15  1  0.25000000  0.50000000  0.96777000  1.0
  C  C16  1  0.50000000  0.73637000  0.11049000  1.0
