# generated using pymatgen
data_Mg12In4C
_symmetry_space_group_name_H-M   Pm
_cell_length_a   6.39187000
_cell_length_b   9.03947000
_cell_length_c   24.79390000
_cell_angle_alpha   90.00000000
_cell_angle_beta   90.00000000
_cell_angle_gamma   90.00000000
_symmetry_Int_Tables_number   6
_chemical_formula_structural   Mg12In4C
_chemical_formula_sum   'Mg12 In4 C1'
_cell_volume   1432.56965169
_cell_formula_units_Z   1
loop_
 _symmetry_equiv_pos_site_id
 _symmetry_equiv_pos_as_xyz
  1  'x, y, z'
  2  'x, -y, z'
loop_
 _atom_site_type_symbol
 _atom_site_label
 _atom_site_symmetry_multiplicity
 _atom_site_fract_x
 _atom_site_fract_y
 _atom_site_fract_z
 _atom_site_occupancy
  Mg  Mg0  2  0.00000000  0.25000000  0.03223000  1.0
  Mg  Mg1  2  0.50694000  0.31707000  0.89429000  1.0
  Mg  Mg2  1  0.24839000  0.50000000  0.97593000  1.0
  Mg  Mg3  1  0.25000000  0.00000000  0.09668000  1.0
  Mg  Mg4  1  0.25000000  0.50000000  0.09668000  1.0
  Mg  Mg5  1  0.25717000  0.00000000  0.95715000  1.0
  Mg  Mg6  1  0.75000000  0.00000000  0.09668000  1.0
  Mg  Mg7  1  0.75000000  0.50000000  0.09668000  1.0
  Mg  Mg8  1  0.75076000  0.00000000  0.95107000  1.0
  Mg  Mg9  1  0.75225000  0.50000000  0.97777000  1.0
  In  In10  2  0.50000000  0.25000000  0.03223000  1.0
  In  In11  2  0.99602000  0.30719000  0.89403000  1.0
  C  C12  1  0.73637000  0.50000000  0.88951000  1.0
