# generated using pymatgen
data_Li4Al8Rh4CO
_symmetry_space_group_name_H-M   P4mm
_cell_length_a   6.03986000
_cell_length_b   6.03986000
_cell_length_c   24.52990000
_cell_angle_alpha   90.00000000
_cell_angle_beta   90.00000000
_cell_angle_gamma   90.00000000
_symmetry_Int_Tables_number   99
_chemical_formula_structural   Li4Al8Rh4CO
_chemical_formula_sum   'Li4 Al8 Rh4 C1 O1'
_cell_volume   894.84851535
_cell_formula_units_Z   1
loop_
 _symmetry_equiv_pos_site_id
 _symmetry_equiv_pos_as_xyz
  1  'x, y, z'
  2  '-y, x, z'
  3  '-x, -y, z'
  4  'y, -x, z'
  5  '-x, y, z'
  6  'y, x, z'
  7  'x, -y, z'
  8  '-y, -x, z'
loop_
 _atom_site_type_symbol
 _atom_site_label
 _atom_site_symmetry_multiplicity
 _atom_site_fract_x
 _atom_site_fract_y
 _atom_site_fract_z
 _atom_site_occupancy
  Li  Li0  2  0.00000000  0.50000000  0.09233000  1.0
  Li  Li1  1  0.00000000  0.00000000  0.96922000  1.0
  Li  Li2  1  0.50000000  0.50000000  0.96922000  1.0
  Al  Al3  4  0.25000000  0.25000000  0.03078000  1.0
  Al  Al4  4  0.25000000  0.75000000  0.90767000  1.0
  Rh  Rh5  2  0.00000000  0.50000000  0.96922000  1.0
  Rh  Rh6  1  0.00000000  0.00000000  0.09233000  1.0
  Rh  Rh7  1  0.50000000  0.50000000  0.09233000  1.0
  C  C8  1  0.00000000  0.00000000  0.16979000  1.0
  O  O9  1  0.00000000  0.00000000  0.21667000  1.0
