# generated using pymatgen
data_VGaNi2
_symmetry_space_group_name_H-M   'P 1'
_cell_length_a   5.81624000
_cell_length_b   8.22541000
_cell_length_c   26.16910000
_cell_angle_alpha   90.00000000
_cell_angle_beta   90.00000000
_cell_angle_gamma   90.00000000
_symmetry_Int_Tables_number   1
_chemical_formula_structural   VGaNi2
_chemical_formula_sum   'V8 Ga8 Ni16'
_cell_volume   1251.95483123
_cell_formula_units_Z   8
loop_
 _symmetry_equiv_pos_site_id
 _symmetry_equiv_pos_as_xyz
  1  'x, y, z'
loop_
 _atom_site_type_symbol
 _atom_site_label
 _atom_site_symmetry_multiplicity
 _atom_site_fract_x
 _atom_site_fract_y
 _atom_site_fract_z
 _atom_site_occupancy
  V  V0  1  0.00000000  0.00000000  0.88213000  1.0
  V  V1  1  0.50000000  0.25000000  0.96071000  1.0
  V  V2  1  0.50000000  0.75000000  0.96071000  1.0
  V  V3  1  0.00000000  0.50000000  0.88213000  1.0
  V  V4  1  0.00000000  0.50000000  0.04049000  1.0
  V  V5  1  0.50000000  0.75002000  0.11716000  1.0
  V  V6  1  0.50000000  0.24998000  0.11716000  1.0
  V  V7  1  0.00000000  0.00000000  0.04049000  1.0
  Ga  Ga8  1  0.00000000  0.75000000  0.96071000  1.0
  Ga  Ga9  1  0.50000000  0.00000000  0.88213000  1.0
  Ga  Ga10  1  0.00000000  0.25000000  0.96071000  1.0
  Ga  Ga11  1  0.50000000  0.50000000  0.88213000  1.0
  Ga  Ga12  1  0.00000000  0.25002000  0.12245000  1.0
  Ga  Ga13  1  0.50000000  0.50000000  0.03793000  1.0
  Ga  Ga14  1  0.00000000  0.74998000  0.12245000  1.0
  Ga  Ga15  1  0.50000000  0.00000000  0.03794000  1.0
  Ni  Ni16  1  0.25000000  0.00000000  0.96071000  1.0
  Ni  Ni17  1  0.75000000  0.50000000  0.96071000  1.0
  Ni  Ni18  1  0.75000000  0.00000000  0.96071000  1.0
  Ni  Ni19  1  0.25000000  0.50000000  0.96071000  1.0
  Ni  Ni20  1  0.75000000  0.75000000  0.88213000  1.0
  Ni  Ni21  1  0.25000000  0.25000000  0.88213000  1.0
  Ni  Ni22  1  0.25000000  0.75000000  0.88213000  1.0
  Ni  Ni23  1  0.75000000  0.25000000  0.88213000  1.0
  Ni  Ni24  1  0.25761000  0.50000000  0.11499000  1.0
  Ni  Ni25  1  0.74254000  0.00000000  0.11501000  1.0
  Ni  Ni26  1  0.74239000  0.50000000  0.11499000  1.0
  Ni  Ni27  1  0.25746000  0.00000000  0.11501000  1.0
  Ni  Ni28  1  0.75126000  0.25001000  0.04151000  1.0
  Ni  Ni29  1  0.24874000  0.74999000  0.04151000  1.0
  Ni  Ni30  1  0.24874000  0.25001000  0.04151000  1.0
  Ni  Ni31  1  0.75126000  0.74999000  0.04151000  1.0
