# generated using pymatgen
data_Li8V8Ge8Pd8C
_symmetry_space_group_name_H-M   'P 1'
_cell_length_a   9.40562000
_cell_length_b   8.64114000
_cell_length_c   24.26620000
_cell_angle_alpha   90.00000000
_cell_angle_beta   90.00000000
_cell_angle_gamma   90.00000000
_symmetry_Int_Tables_number   1
_chemical_formula_structural   Li8V8Ge8Pd8C
_chemical_formula_sum   'Li8 V8 Ge8 Pd8 C1'
_cell_volume   1972.24218029
_cell_formula_units_Z   1
loop_
 _symmetry_equiv_pos_site_id
 _symmetry_equiv_pos_as_xyz
  1  'x, y, z'
loop_
 _atom_site_type_symbol
 _atom_site_label
 _atom_site_symmetry_multiplicity
 _atom_site_fract_x
 _atom_site_fract_y
 _atom_site_fract_z
 _atom_site_occupancy
  Li  Li0  1  0.25000000  0.75000000  0.02930000  1.0
  Li  Li1  1  0.25000000  0.74771000  0.90618000  1.0
  Li  Li2  1  0.75000000  0.75000000  0.02930000  1.0
  Li  Li3  1  0.75000000  0.75033000  0.90133000  1.0
  Li  Li4  1  0.25000000  0.25000000  0.02930000  1.0
  Li  Li5  1  0.25000000  0.25229000  0.90618000  1.0
  Li  Li6  1  0.75000000  0.25000000  0.02930000  1.0
  Li  Li7  1  0.75000000  0.24967000  0.90133000  1.0
  V  V8  1  0.00000000  0.50000000  0.02930000  1.0
  V  V9  1  0.04094000  0.50000000  0.91820000  1.0
  V  V10  1  0.50000000  0.50000000  0.02930000  1.0
  V  V11  1  0.45914000  0.50000000  0.91826000  1.0
  V  V12  1  0.00000000  0.00000000  0.02930000  1.0
  V  V13  1  0.00409000  0.00000000  0.93357000  1.0
  V  V14  1  0.50000000  0.00000000  0.02930000  1.0
  V  V15  1  0.49591000  0.00000000  0.93357000  1.0
  Ge  Ge16  1  0.00000000  0.75000000  0.08790000  1.0
  Ge  Ge17  1  0.98665000  0.73919000  0.97136000  1.0
  Ge  Ge18  1  0.50000000  0.75000000  0.08790000  1.0
  Ge  Ge19  1  0.51336000  0.73924000  0.97137000  1.0
  Ge  Ge20  1  0.00000000  0.25000000  0.08790000  1.0
  Ge  Ge21  1  0.98665000  0.26081000  0.97136000  1.0
  Ge  Ge22  1  0.50000000  0.25000000  0.08790000  1.0
  Ge  Ge23  1  0.51336000  0.26076000  0.97137000  1.0
  Pd  Pd24  1  0.25000000  0.50000000  0.08790000  1.0
  Pd  Pd25  1  0.24997000  0.50000000  0.98332000  1.0
  Pd  Pd26  1  0.75000000  0.50000000  0.08790000  1.0
  Pd  Pd27  1  0.75004000  0.50000000  0.95970000  1.0
  Pd  Pd28  1  0.25000000  0.00000000  0.08790000  1.0
  Pd  Pd29  1  0.25001000  0.00000000  0.96839000  1.0
  Pd  Pd30  1  0.75000000  0.00000000  0.08790000  1.0
  Pd  Pd31  1  0.74999000  0.00000000  0.96426000  1.0
  C  C32  1  0.25001000  0.50000000  0.89793000  1.0
