# generated using pymatgen
data_Li8V8Ge8Pd8C
_symmetry_space_group_name_H-M   Pm
_cell_length_a   9.40562000
_cell_length_b   8.64114000
_cell_length_c   24.26620000
_cell_angle_alpha   90.00000000
_cell_angle_beta   90.00000000
_cell_angle_gamma   90.00000000
_symmetry_Int_Tables_number   6
_chemical_formula_structural   Li8V8Ge8Pd8C
_chemical_formula_sum   'Li8 V8 Ge8 Pd8 C1'
_cell_volume   1972.24218029
_cell_formula_units_Z   1
loop_
 _symmetry_equiv_pos_site_id
 _symmetry_equiv_pos_as_xyz
  1  'x, y, z'
  2  'x, -y, z'
loop_
 _atom_site_type_symbol
 _atom_site_label
 _atom_site_symmetry_multiplicity
 _atom_site_fract_x
 _atom_site_fract_y
 _atom_site_fract_z
 _atom_site_occupancy
  Li  Li0  2  0.25000000  0.25000000  0.97070000  1.0
  Li  Li1  2  0.25000000  0.25229000  0.09382000  1.0
  Li  Li2  2  0.75000000  0.24967000  0.09867000  1.0
  Li  Li3  2  0.75000000  0.25000000  0.97070000  1.0
  V  V4  1  0.00000000  0.00000000  0.97070000  1.0
  V  V5  1  0.00000000  0.50000000  0.97070000  1.0
  V  V6  1  0.00409000  0.00000000  0.06643000  1.0
  V  V7  1  0.04094000  0.50000000  0.08180000  1.0
  V  V8  1  0.45914000  0.50000000  0.08174000  1.0
  V  V9  1  0.49591000  0.00000000  0.06643000  1.0
  V  V10  1  0.50000000  0.00000000  0.97070000  1.0
  V  V11  1  0.50000000  0.50000000  0.97070000  1.0
  Ge  Ge12  2  0.00000000  0.25000000  0.91210000  1.0
  Ge  Ge13  2  0.50000000  0.25000000  0.91210000  1.0
  Ge  Ge14  2  0.51336000  0.26076000  0.02863000  1.0
  Ge  Ge15  2  0.98665000  0.26081000  0.02864000  1.0
  Pd  Pd16  1  0.24997000  0.50000000  0.01668000  1.0
  Pd  Pd17  1  0.25000000  0.00000000  0.91210000  1.0
  Pd  Pd18  1  0.25000000  0.50000000  0.91210000  1.0
  Pd  Pd19  1  0.25001000  0.00000000  0.03161000  1.0
  Pd  Pd20  1  0.74999000  0.00000000  0.03574000  1.0
  Pd  Pd21  1  0.75000000  0.00000000  0.91210000  1.0
  Pd  Pd22  1  0.75000000  0.50000000  0.91210000  1.0
  Pd  Pd23  1  0.75004000  0.50000000  0.04030000  1.0
  C  C24  1  0.25001000  0.50000000  0.10207000  1.0
