# generated using pymatgen
data_V8Ni16Sn8CO
_symmetry_space_group_name_H-M   Pm
_cell_length_a   6.09179000
_cell_length_b   8.61509000
_cell_length_c   26.46130000
_cell_angle_alpha   90.00000000
_cell_angle_beta   90.00000000
_cell_angle_gamma   90.00000000
_symmetry_Int_Tables_number   6
_chemical_formula_structural   V8Ni16Sn8CO
_chemical_formula_sum   'V8 Ni16 Sn8 C1 O1'
_cell_volume   1388.72392939
_cell_formula_units_Z   1
loop_
 _symmetry_equiv_pos_site_id
 _symmetry_equiv_pos_as_xyz
  1  'x, y, z'
  2  'x, -y, z'
loop_
 _atom_site_type_symbol
 _atom_site_label
 _atom_site_symmetry_multiplicity
 _atom_site_fract_x
 _atom_site_fract_y
 _atom_site_fract_z
 _atom_site_occupancy
  V  V0  2  0.50000000  0.25000000  0.95930000  1.0
  V  V1  2  0.50000000  0.25000000  0.12209000  1.0
  V  V2  1  0.00000000  0.00000000  0.04070000  1.0
  V  V3  1  0.00000000  0.00000000  0.87791000  1.0
  V  V4  1  0.00000000  0.50000000  0.04070000  1.0
  V  V5  1  0.00000000  0.50000000  0.87791000  1.0
  Ni  Ni6  2  0.25000000  0.25000000  0.87791000  1.0
  Ni  Ni7  2  0.25000000  0.25000000  0.04070000  1.0
  Ni  Ni8  2  0.75000000  0.25000000  0.04070000  1.0
  Ni  Ni9  2  0.75000000  0.25000000  0.87791000  1.0
  Ni  Ni10  1  0.25000000  0.00000000  0.12209000  1.0
  Ni  Ni11  1  0.25000000  0.00000000  0.95930000  1.0
  Ni  Ni12  1  0.25000000  0.50000000  0.12209000  1.0
  Ni  Ni13  1  0.25000000  0.50000000  0.95930000  1.0
  Ni  Ni14  1  0.75000000  0.00000000  0.12209000  1.0
  Ni  Ni15  1  0.75000000  0.00000000  0.95930000  1.0
  Ni  Ni16  1  0.75000000  0.50000000  0.12209000  1.0
  Ni  Ni17  1  0.75000000  0.50000000  0.95930000  1.0
  Sn  Sn18  2  -0.00000000  0.25000000  0.12209000  1.0
  Sn  Sn19  2  0.00000000  0.25000000  0.95930000  1.0
  Sn  Sn20  1  0.50000000  0.00000000  0.04070000  1.0
  Sn  Sn21  1  0.50000000  0.00000000  0.87791000  1.0
  Sn  Sn22  1  0.50000000  0.50000000  0.04070000  1.0
  Sn  Sn23  1  0.50000000  0.50000000  0.87791000  1.0
  C  C24  1  0.25000000  0.00000000  0.19389000  1.0
  O  O25  1  0.25000000  0.00000000  0.23735000  1.0
