# generated using pymatgen
data_Hf4Rh12CO
_symmetry_space_group_name_H-M   Pm
_cell_length_a   7.89713000
_cell_length_b   5.58411000
_cell_length_c   24.18810000
_cell_angle_alpha   90.00000000
_cell_angle_beta   90.00000000
_cell_angle_gamma   90.00000000
_symmetry_Int_Tables_number   6
_chemical_formula_structural   Hf4Rh12CO
_chemical_formula_sum   'Hf4 Rh12 C1 O1'
_cell_volume   1066.65753956
_cell_formula_units_Z   1
loop_
 _symmetry_equiv_pos_site_id
 _symmetry_equiv_pos_as_xyz
  1  'x, y, z'
  2  'x, -y, z'
loop_
 _atom_site_type_symbol
 _atom_site_label
 _atom_site_symmetry_multiplicity
 _atom_site_fract_x
 _atom_site_fract_y
 _atom_site_fract_z
 _atom_site_occupancy
  Hf  Hf0  1  -0.00000000  0.50000000  0.97114000  1.0
  Hf  Hf1  1  0.00000000  0.00000000  0.07828000  1.0
  Hf  Hf2  1  0.49999000  0.00000000  0.07495000  1.0
  Hf  Hf3  1  0.50000000  0.50000000  0.97114000  1.0
  Rh  Rh4  2  0.24586000  0.25260000  0.02939000  1.0
  Rh  Rh5  2  0.25000000  0.25000000  0.91343000  1.0
  Rh  Rh6  2  0.75000000  0.25000000  0.91343000  1.0
  Rh  Rh7  2  0.75414000  0.25261000  0.02940000  1.0
  Rh  Rh8  1  0.00000000  0.00000000  0.97114000  1.0
  Rh  Rh9  1  0.00012000  0.50000000  0.09193000  1.0
  Rh  Rh10  1  0.49999000  0.50000000  0.08093000  1.0
  Rh  Rh11  1  0.50000000  0.00000000  0.97114000  1.0
  C  C12  1  0.99989000  0.50000000  0.16934000  1.0
  O  O13  1  -0.00000000  0.50000000  0.21747000  1.0
