data_image0
_chemical_formula_structural       Li4Mg4Sb4Pd4CO
_chemical_formula_sum              "Li4 Mg4 Sb4 Pd4 C1 O1"
_cell_length_a       6.57147
_cell_length_b       6.57147
_cell_length_c       24.9286
_cell_angle_alpha    90
_cell_angle_beta     90
_cell_angle_gamma    90

_space_group_name_H-M_alt    "P 1"
_space_group_IT_number       1

loop_
  _space_group_symop_operation_xyz
  'x, y, z'

loop_
  _atom_site_type_symbol
  _atom_site_label
  _atom_site_symmetry_multiplicity
  _atom_site_fract_x
  _atom_site_fract_y
  _atom_site_fract_z
  _atom_site_occupancy
  Li  Li1       1.0  0.00000  0.00000  0.90115  1.0000
  Li  Li2       1.0  0.00086  0.49884  0.03521  1.0000
  Li  Li3       1.0  0.49880  0.00076  0.03523  1.0000
  Li  Li4       1.0  0.50000  0.50000  0.90115  1.0000
  Mg  Mg1       1.0  0.25000  0.25000  0.96705  1.0000
  Mg  Mg2       1.0  0.24971  0.74910  0.10023  1.0000
  Mg  Mg3       1.0  0.75018  0.24949  0.10015  1.0000
  Mg  Mg4       1.0  0.75000  0.75000  0.96705  1.0000
  Sb  Sb1       1.0  0.75000  0.25000  0.96705  1.0000
  Sb  Sb2       1.0  0.75015  0.74993  0.10415  1.0000
  Sb  Sb3       1.0  0.25015  0.24988  0.10404  1.0000
  Sb  Sb4       1.0  0.25000  0.75000  0.96705  1.0000
  Pd  Pd1       1.0  0.00000  0.50000  0.90115  1.0000
  Pd  Pd2       1.0  0.00063  0.00028  0.03504  1.0000
  Pd  Pd3       1.0  0.49985  0.49957  0.03506  1.0000
  Pd  Pd4       1.0  0.50000  0.00000  0.90115  1.0000
  C   C1        1.0  0.24349  0.25803  0.28295  1.0000
  O   O1        1.0  0.25293  0.24688  0.32831  1.0000
