# generated using pymatgen
data_Y4In4Pd4Pt4CO
_symmetry_space_group_name_H-M   Cmm2
_cell_length_a   9.65477942
_cell_length_b   9.65477942
_cell_length_c   25.12020000
_cell_angle_alpha   90.00000000
_cell_angle_beta   90.00000000
_cell_angle_gamma   90.00000000
_symmetry_Int_Tables_number   35
_chemical_formula_structural   Y4In4Pd4Pt4CO
_chemical_formula_sum   'Y8 In8 Pd8 Pt8 C2 O2'
_cell_volume   2341.57355692
_cell_formula_units_Z   2
loop_
 _symmetry_equiv_pos_site_id
 _symmetry_equiv_pos_as_xyz
  1  'x, y, z'
  2  '-x, -y, z'
  3  '-x, y, z'
  4  'x, -y, z'
  5  'x+1/2, y+1/2, z'
  6  '-x+1/2, -y+1/2, z'
  7  '-x+1/2, y+1/2, z'
  8  'x+1/2, -y+1/2, z'
loop_
 _atom_site_type_symbol
 _atom_site_label
 _atom_site_symmetry_multiplicity
 _atom_site_fract_x
 _atom_site_fract_y
 _atom_site_fract_z
 _atom_site_occupancy
  Y  Y0  4  0.25000000  0.25000000  0.10191000  1.0
  Y  Y1  2  0.00000000  0.00000000  0.96603000  1.0
  Y  Y2  2  0.00000000  0.50000000  0.96603000  1.0
  In  In3  4  0.25000000  0.25000000  0.96603000  1.0
  In  In4  2  0.00000000  0.00000000  0.10191000  1.0
  In  In5  2  0.00000000  0.50000000  0.10191000  1.0
  Pd  Pd6  4  0.00000000  0.25000000  0.89809000  1.0
  Pd  Pd7  4  0.25000000  0.00000000  0.03397000  1.0
  Pt  Pt8  4  0.00000000  0.25000000  0.03397000  1.0
  Pt  Pt9  4  0.25000000  0.00000000  0.89809000  1.0
  C  C10  2  0.00000000  0.00000000  0.17755000  1.0
  O  O11  2  0.00000000  0.00000000  0.22333000  1.0
