# generated using pymatgen
data_Li4Mg4Cu4Pd4CO
_symmetry_space_group_name_H-M   'P 1'
_cell_length_a   7.95764000
_cell_length_b   5.46655000
_cell_length_c   24.09630000
_cell_angle_alpha   90.00000000
_cell_angle_beta   90.00000000
_cell_angle_gamma   90.00000000
_symmetry_Int_Tables_number   1
_chemical_formula_structural   Li4Mg4Cu4Pd4CO
_chemical_formula_sum   'Li4 Mg4 Cu4 Pd4 C1 O1'
_cell_volume   1048.20921721
_cell_formula_units_Z   1
loop_
 _symmetry_equiv_pos_site_id
 _symmetry_equiv_pos_as_xyz
  1  'x, y, z'
loop_
 _atom_site_type_symbol
 _atom_site_label
 _atom_site_symmetry_multiplicity
 _atom_site_fract_x
 _atom_site_fract_y
 _atom_site_fract_z
 _atom_site_occupancy
  Li  Li0  1  0.00000000  0.52669000  0.90805000  1.0
  Li  Li1  1  0.00000000  0.97912000  0.02833000  1.0
  Li  Li2  1  0.50000000  0.52590000  0.91215000  1.0
  Li  Li3  1  0.50000000  0.97912000  0.02833000  1.0
  Mg  Mg4  1  0.24439000  0.23996000  0.97232000  1.0
  Mg  Mg5  1  0.25000000  0.71869000  0.08500000  1.0
  Mg  Mg6  1  0.75561000  0.23996000  0.97232000  1.0
  Mg  Mg7  1  0.75000000  0.71869000  0.08500000  1.0
  Cu  Cu8  1  0.00000000  0.98919000  0.91961000  1.0
  Cu  Cu9  1  0.00000000  0.47912000  0.02833000  1.0
  Cu  Cu10  1  0.50000000  0.99632000  0.92588000  1.0
  Cu  Cu11  1  0.50000000  0.47912000  0.02833000  1.0
  Pd  Pd12  1  0.24810000  0.73546000  0.97297000  1.0
  Pd  Pd13  1  0.25000000  0.21869000  0.08500000  1.0
  Pd  Pd14  1  0.75190000  0.73546000  0.97297000  1.0
  Pd  Pd15  1  0.75000000  0.21869000  0.08500000  1.0
  C  C16  1  0.00000000  0.99154000  0.84271000  1.0
  O  O17  1  0.00000000  0.01113000  0.79482000  1.0
