# generated using pymatgen
data_Li4Mg4Cu4Pd4CO
_symmetry_space_group_name_H-M   Pm
_cell_length_a   5.46655000
_cell_length_b   7.95764000
_cell_length_c   24.09630000
_cell_angle_alpha   90.00000000
_cell_angle_beta   90.00000000
_cell_angle_gamma   90.00000000
_symmetry_Int_Tables_number   6
_chemical_formula_structural   Li4Mg4Cu4Pd4CO
_chemical_formula_sum   'Li4 Mg4 Cu4 Pd4 C1 O1'
_cell_volume   1048.20921721
_cell_formula_units_Z   1
loop_
 _symmetry_equiv_pos_site_id
 _symmetry_equiv_pos_as_xyz
  1  'x, y, z'
  2  'x, -y, z'
loop_
 _atom_site_type_symbol
 _atom_site_label
 _atom_site_symmetry_multiplicity
 _atom_site_fract_x
 _atom_site_fract_y
 _atom_site_fract_z
 _atom_site_occupancy
  Li  Li0  1  0.52590000  0.50000000  0.08785000  1.0
  Li  Li1  1  0.52669000  0.00000000  0.09195000  1.0
  Li  Li2  1  0.97912000  0.00000000  0.97167000  1.0
  Li  Li3  1  0.97912000  0.50000000  0.97167000  1.0
  Mg  Mg4  2  0.23996000  0.24439000  0.02768000  1.0
  Mg  Mg5  2  0.71869000  0.25000000  0.91500000  1.0
  Cu  Cu6  1  0.47912000  0.00000000  0.97167000  1.0
  Cu  Cu7  1  0.47912000  0.50000000  0.97167000  1.0
  Cu  Cu8  1  0.98919000  0.00000000  0.08039000  1.0
  Cu  Cu9  1  0.99632000  0.50000000  0.07412000  1.0
  Pd  Pd10  2  0.21869000  0.25000000  0.91500000  1.0
  Pd  Pd11  2  0.73546000  0.24810000  0.02703000  1.0
  C  C12  1  0.99154000  0.00000000  0.15729000  1.0
  O  O13  1  0.01113000  0.00000000  0.20518000  1.0
