# generated using pymatgen
data_Li8Mg8Sb8Pd8CO
_symmetry_space_group_name_H-M   P1
_cell_length_a   6.57147000
_cell_length_b   9.29346000
_cell_length_c   26.97010000
_cell_angle_alpha   90.00000000
_cell_angle_beta   90.00000000
_cell_angle_gamma   90.00000000
_symmetry_Int_Tables_number   1
_chemical_formula_structural   Li8Mg8Sb8Pd8CO
_chemical_formula_sum   'Li8 Mg8 Sb8 Pd8 C1 O1'
_cell_volume   1647.10968319
_cell_formula_units_Z   1
loop_
 _symmetry_equiv_pos_site_id
 _symmetry_equiv_pos_as_xyz
  1  'x, y, z'
loop_
 _atom_site_type_symbol
 _atom_site_label
 _atom_site_symmetry_multiplicity
 _atom_site_fract_x
 _atom_site_fract_y
 _atom_site_fract_z
 _atom_site_occupancy
  Li  Li0  1  0.00000000  0.00000000  0.87078000  1.0
  Li  Li1  1  0.00000000  0.50000000  0.87078000  1.0
  Li  Li2  1  0.50000000  0.25000000  0.95693000  1.0
  Li  Li3  1  0.50000000  0.75000000  0.95693000  1.0
  Li  Li4  1  0.53873000  0.74936000  0.15079000  1.0
  Li  Li5  1  0.53886000  0.25064000  0.15081000  1.0
  Li  Li6  1  0.98754000  0.00000000  0.04430000  1.0
  Li  Li7  1  0.98900000  0.50002000  0.04372000  1.0
  Mg  Mg8  1  0.23617000  0.49998000  0.12789000  1.0
  Mg  Mg9  1  0.23931000  0.00001000  0.12835000  1.0
  Mg  Mg10  1  0.25000000  0.00000000  0.95693000  1.0
  Mg  Mg11  1  0.25000000  0.50000000  0.95693000  1.0
  Mg  Mg12  1  0.73289000  0.74988000  0.04614000  1.0
  Mg  Mg13  1  0.73291000  0.25015000  0.04614000  1.0
  Mg  Mg14  1  0.75000000  0.25000000  0.87078000  1.0
  Mg  Mg15  1  0.75000000  0.75000000  0.87078000  1.0
  Sb  Sb16  1  0.25000000  0.25000000  0.87078000  1.0
  Sb  Sb17  1  0.25000000  0.75000000  0.87078000  1.0
  Sb  Sb18  1  0.25260000  0.24942000  0.04561000  1.0
  Sb  Sb19  1  0.25260000  0.75060000  0.04561000  1.0
  Sb  Sb20  1  0.74145000  0.99999000  0.13329000  1.0
  Sb  Sb21  1  0.74367000  0.50001000  0.13273000  1.0
  Sb  Sb22  1  0.75000000  0.00000000  0.95693000  1.0
  Sb  Sb23  1  0.75000000  0.50000000  0.95693000  1.0
  Pd  Pd24  1  0.00000000  0.25000000  0.95693000  1.0
  Pd  Pd25  1  0.00000000  0.75000000  0.95693000  1.0
  Pd  Pd26  1  0.50000000  0.00000000  0.87078000  1.0
  Pd  Pd27  1  0.50000000  0.50000000  0.87078000  1.0
  Pd  Pd28  1  0.50196000  0.50001000  0.03936000  1.0
  Pd  Pd29  1  0.50310000  0.00002000  0.03951000  1.0
  Pd  Pd30  1  0.98996000  0.24901000  0.12329000  1.0
  Pd  Pd31  1  0.98997000  0.75098000  0.12328000  1.0
  C  C32  1  0.87259000  0.99999000  0.28068000  1.0
  O  O33  1  0.71956000  0.99999000  0.30028000  1.0
