data_image0
_chemical_formula_structural       Li4Si4Ni8C
_chemical_formula_sum              "Li4 Si4 Ni8 C1"
_cell_length_a       5.56332
_cell_length_b       5.56332
_cell_length_c       24.1725
_cell_angle_alpha    90
_cell_angle_beta     90
_cell_angle_gamma    90

_space_group_name_H-M_alt    "P 1"
_space_group_IT_number       1

loop_
  _space_group_symop_operation_xyz
  'x, y, z'

loop_
  _atom_site_type_symbol
  _atom_site_label
  _atom_site_symmetry_multiplicity
  _atom_site_fract_x
  _atom_site_fract_y
  _atom_site_fract_z
  _atom_site_occupancy
  Li  Li1       1.0  0.98482  0.98480  0.10957  1.0000
  Li  Li2       1.0  0.51521  0.51519  0.10957  1.0000
  Li  Li3       1.0  0.50000  0.00000  0.97123  1.0000
  Li  Li4       1.0  0.00000  0.50000  0.97123  1.0000
  Si  Si1       1.0  0.00000  0.00000  0.97123  1.0000
  Si  Si2       1.0  0.47526  0.02471  0.08548  1.0000
  Si  Si3       1.0  0.02464  0.47533  0.08549  1.0000
  Si  Si4       1.0  0.50000  0.50000  0.97123  1.0000
  Ni  Ni1       1.0  0.24990  0.25017  0.02287  1.0000
  Ni  Ni2       1.0  0.75000  0.75000  0.91369  1.0000
  Ni  Ni3       1.0  0.75014  0.24994  0.03150  1.0000
  Ni  Ni4       1.0  0.25000  0.75000  0.91369  1.0000
  Ni  Ni5       1.0  0.74995  0.75007  0.03865  1.0000
  Ni  Ni6       1.0  0.25000  0.25000  0.91369  1.0000
  Ni  Ni7       1.0  0.25005  0.74978  0.03151  1.0000
  Ni  Ni8       1.0  0.75000  0.25000  0.91369  1.0000
  C   C1        1.0  0.24998  0.25003  0.10769  1.0000
