# generated using pymatgen
data_Li4Si4Ni8C
_symmetry_space_group_name_H-M   Cm
_cell_length_a   7.86772260
_cell_length_b   7.86772260
_cell_length_c   24.17250000
_cell_angle_alpha   90.00000000
_cell_angle_beta   90.00000000
_cell_angle_gamma   90.00000000
_symmetry_Int_Tables_number   8
_chemical_formula_structural   Li4Si4Ni8C
_chemical_formula_sum   'Li8 Si8 Ni16 C2'
_cell_volume   1496.30334493
_cell_formula_units_Z   2
loop_
 _symmetry_equiv_pos_site_id
 _symmetry_equiv_pos_as_xyz
  1  'x, y, z'
  2  'x, -y, z'
  3  'x+1/2, y+1/2, z'
  4  'x+1/2, -y+1/2, z'
loop_
 _atom_site_type_symbol
 _atom_site_label
 _atom_site_symmetry_multiplicity
 _atom_site_fract_x
 _atom_site_fract_y
 _atom_site_fract_z
 _atom_site_occupancy
  Li  Li0  4  0.25001500  0.26519500  0.10957000  1.0
  Li  Li1  2  0.00000500  0.00000000  0.97123000  1.0
  Li  Li2  2  0.00000500  0.50000000  0.97123000  1.0
  Si  Si3  4  0.25000500  0.25000500  0.97123000  1.0
  Si  Si4  2  0.02466000  0.00000000  0.08549000  1.0
  Si  Si5  2  0.47528000  0.00000000  0.08548000  1.0
  Ni  Ni6  4  0.00000500  0.75000500  0.91369000  1.0
  Ni  Ni7  4  0.00010500  0.24996500  0.03150000  1.0
  Ni  Ni8  2  0.24987000  0.00000000  0.02287000  1.0
  Ni  Ni9  2  0.24994500  0.50000000  0.03865000  1.0
  Ni  Ni10  2  0.25000500  0.50000000  0.91369000  1.0
  Ni  Ni11  2  0.25000500  0.00000000  0.91369000  1.0
  C  C12  2  0.24998000  0.00000000  0.10769000  1.0
