data_image0
_chemical_formula_structural       Sc8Al8In8Pd8C
_chemical_formula_sum              "Sc8 Al8 In8 Pd8 C1"
_cell_length_a       8.60736
_cell_length_b       8.30234
_cell_length_c       26.2527
_cell_angle_alpha    90
_cell_angle_beta     90
_cell_angle_gamma    90

_space_group_name_H-M_alt    "P 1"
_space_group_IT_number       1

loop_
  _space_group_symop_operation_xyz
  'x, y, z'

loop_
  _atom_site_type_symbol
  _atom_site_label
  _atom_site_symmetry_multiplicity
  _atom_site_fract_x
  _atom_site_fract_y
  _atom_site_fract_z
  _atom_site_occupancy
  Sc  Sc1       1.0  0.25000  0.25000  0.88091  1.0000
  Sc  Sc2       1.0  0.22856  0.22427  0.04902  1.0000
  Sc  Sc3       1.0  0.25000  0.75000  0.88091  1.0000
  Sc  Sc4       1.0  0.25028  0.76233  0.04433  1.0000
  Sc  Sc5       1.0  0.75000  0.25000  0.88091  1.0000
  Sc  Sc6       1.0  0.77197  0.22344  0.04921  1.0000
  Sc  Sc7       1.0  0.75000  0.75000  0.88091  1.0000
  Sc  Sc8       1.0  0.74997  0.76269  0.04428  1.0000
  Al  Al1       1.0  0.00000  0.00000  0.88091  1.0000
  Al  Al2       1.0  0.00034  0.99225  0.02193  1.0000
  Al  Al3       1.0  0.00000  0.50000  0.88091  1.0000
  Al  Al4       1.0  0.99980  0.50266  0.04068  1.0000
  Al  Al5       1.0  0.50000  0.00000  0.88091  1.0000
  Al  Al6       1.0  0.49976  0.00233  0.04055  1.0000
  Al  Al7       1.0  0.50000  0.50000  0.88091  1.0000
  Al  Al8       1.0  0.50008  0.49330  0.04063  1.0000
  In  In1       1.0  0.00000  0.25000  0.96030  1.0000
  In  In2       1.0  0.00014  0.28861  0.14618  1.0000
  In  In3       1.0  0.00000  0.75000  0.96030  1.0000
  In  In4       1.0  0.99998  0.74710  0.13896  1.0000
  In  In5       1.0  0.50000  0.25000  0.96030  1.0000
  In  In6       1.0  0.49984  0.24309  0.13326  1.0000
  In  In7       1.0  0.50000  0.75000  0.96030  1.0000
  In  In8       1.0  0.50049  0.75247  0.13196  1.0000
  Pd  Pd1       1.0  0.25000  0.00000  0.96030  1.0000
  Pd  Pd2       1.0  0.25197  0.98212  0.11958  1.0000
  Pd  Pd3       1.0  0.25000  0.50000  0.96030  1.0000
  Pd  Pd4       1.0  0.25651  0.50223  0.10510  1.0000
  Pd  Pd5       1.0  0.75000  0.00000  0.96030  1.0000
  Pd  Pd6       1.0  0.74727  0.98181  0.11990  1.0000
  Pd  Pd7       1.0  0.75000  0.50000  0.96030  1.0000
  Pd  Pd8       1.0  0.74355  0.50209  0.10510  1.0000
  C   C1        1.0  0.99878  0.06626  0.09243  1.0000
