# generated using pymatgen
data_Sc8Al8In8Pd8C
_symmetry_space_group_name_H-M   P1
_cell_length_a   8.30234000
_cell_length_b   8.60736000
_cell_length_c   26.25270000
_cell_angle_alpha   90.00000000
_cell_angle_beta   90.00000000
_cell_angle_gamma   90.00000000
_symmetry_Int_Tables_number   1
_chemical_formula_structural   Sc8Al8In8Pd8C
_chemical_formula_sum   'Sc8 Al8 In8 Pd8 C1'
_cell_volume   1876.05021241
_cell_formula_units_Z   1
loop_
 _symmetry_equiv_pos_site_id
 _symmetry_equiv_pos_as_xyz
  1  'x, y, z'
loop_
 _atom_site_type_symbol
 _atom_site_label
 _atom_site_symmetry_multiplicity
 _atom_site_fract_x
 _atom_site_fract_y
 _atom_site_fract_z
 _atom_site_occupancy
  Sc  Sc0  1  0.23731000  0.25003000  0.95572000  1.0
  Sc  Sc1  1  0.23767000  0.74972000  0.95567000  1.0
  Sc  Sc2  1  0.25000000  0.25000000  0.11909000  1.0
  Sc  Sc3  1  0.25000000  0.75000000  0.11909000  1.0
  Sc  Sc4  1  0.75000000  0.25000000  0.11909000  1.0
  Sc  Sc5  1  0.75000000  0.75000000  0.11909000  1.0
  Sc  Sc6  1  0.77573000  0.77144000  0.95098000  1.0
  Sc  Sc7  1  0.77656000  0.22803000  0.95079000  1.0
  Al  Al8  1  0.00000000  0.00000000  0.11909000  1.0
  Al  Al9  1  0.00000000  0.50000000  0.11909000  1.0
  Al  Al10  1  0.00775000  0.99966000  0.97807000  1.0
  Al  Al11  1  0.49734000  0.00020000  0.95932000  1.0
  Al  Al12  1  0.50000000  -0.00000000  0.11909000  1.0
  Al  Al13  1  0.50000000  0.50000000  0.11909000  1.0
  Al  Al14  1  0.50670000  0.49992000  0.95937000  1.0
  Al  Al15  1  0.99767000  0.50024000  0.95945000  1.0
  In  In16  1  0.24753000  0.49951000  0.86804000  1.0
  In  In17  1  0.25000000  -0.00000000  0.03970000  1.0
  In  In18  1  0.25000000  0.50000000  0.03970000  1.0
  In  In19  1  0.25290000  0.00002000  0.86104000  1.0
  In  In20  1  0.71139000  0.99986000  0.85382000  1.0
  In  In21  1  0.75000000  -0.00000000  0.03970000  1.0
  In  In22  1  0.75000000  0.50000000  0.03970000  1.0
  In  In23  1  0.75691000  0.50016000  0.86674000  1.0
  Pd  Pd24  1  0.00000000  0.25000000  0.03970000  1.0
  Pd  Pd25  1  0.00000000  0.75000000  0.03970000  1.0
  Pd  Pd26  1  0.01788000  0.74803000  0.88042000  1.0
  Pd  Pd27  1  0.01819000  0.25273000  0.88010000  1.0
  Pd  Pd28  1  0.49777000  0.74349000  0.89490000  1.0
  Pd  Pd29  1  0.49791000  0.25645000  0.89490000  1.0
  Pd  Pd30  1  0.50000000  0.25000000  0.03970000  1.0
  Pd  Pd31  1  0.50000000  0.75000000  0.03970000  1.0
  C  C32  1  0.93374000  0.00122000  0.90757000  1.0
