# generated using pymatgen
data_Li8Ti8Al8Pd8CO
_symmetry_space_group_name_H-M   'P 1'
_cell_length_a   8.73352000
_cell_length_b   6.17553000
_cell_length_c   26.55010000
_cell_angle_alpha   90.00000000
_cell_angle_beta   90.00000000
_cell_angle_gamma   90.00000000
_symmetry_Int_Tables_number   1
_chemical_formula_structural   Li8Ti8Al8Pd8CO
_chemical_formula_sum   'Li8 Ti8 Al8 Pd8 C1 O1'
_cell_volume   1431.95614044
_cell_formula_units_Z   1
loop_
 _symmetry_equiv_pos_site_id
 _symmetry_equiv_pos_as_xyz
  1  'x, y, z'
loop_
 _atom_site_type_symbol
 _atom_site_label
 _atom_site_symmetry_multiplicity
 _atom_site_fract_x
 _atom_site_fract_y
 _atom_site_fract_z
 _atom_site_occupancy
  Li  Li0  1  0.75000000  0.75000000  0.04112000  1.0
  Li  Li1  1  0.25000000  0.75000000  0.04112000  1.0
  Li  Li2  1  0.00000000  0.25000000  0.12335000  1.0
  Li  Li3  1  0.50000000  0.25000000  0.12335000  1.0
  Li  Li4  1  0.23055000  0.63590000  0.81546000  1.0
  Li  Li5  1  0.76945000  0.63590000  0.81546000  1.0
  Li  Li6  1  0.50000000  0.24324000  0.95770000  1.0
  Li  Li7  1  0.00000000  0.23924000  0.95869000  1.0
  Ti  Ti8  1  0.00000000  0.00000000  0.04112000  1.0
  Ti  Ti9  1  0.50000000  0.00000000  0.04112000  1.0
  Ti  Ti10  1  0.25000000  0.50000000  0.12335000  1.0
  Ti  Ti11  1  0.75000000  0.50000000  0.12335000  1.0
  Ti  Ti12  1  0.50000000  0.95973000  0.87955000  1.0
  Ti  Ti13  1  0.00000000  0.95650000  0.87736000  1.0
  Ti  Ti14  1  0.74919000  0.50699000  0.95454000  1.0
  Ti  Ti15  1  0.25081000  0.50699000  0.95454000  1.0
  Al  Al16  1  0.75000000  0.00000000  0.12335000  1.0
  Al  Al17  1  0.25000000  0.00000000  0.12335000  1.0
  Al  Al18  1  0.50000000  0.50000000  0.04112000  1.0
  Al  Al19  1  0.00000000  0.50000000  0.04112000  1.0
  Al  Al20  1  0.24929000  0.99081000  0.95787000  1.0
  Al  Al21  1  0.75071000  0.99081000  0.95787000  1.0
  Al  Al22  1  0.00000000  0.49834000  0.88200000  1.0
  Al  Al23  1  0.50000000  0.49397000  0.87406000  1.0
  Pd  Pd24  1  0.75000000  0.25000000  0.04112000  1.0
  Pd  Pd25  1  0.25000000  0.25000000  0.04112000  1.0
  Pd  Pd26  1  0.00000000  0.75000000  0.12335000  1.0
  Pd  Pd27  1  0.50000000  0.75000000  0.12335000  1.0
  Pd  Pd28  1  0.24984000  0.24274000  0.88088000  1.0
  Pd  Pd29  1  0.75016000  0.24274000  0.88088000  1.0
  Pd  Pd30  1  0.50000000  0.74838000  0.96131000  1.0
  Pd  Pd31  1  0.00000000  0.74743000  0.96400000  1.0
  C  C32  1  0.00000000  0.76439000  0.81904000  1.0
  O  O33  1  0.00000000  0.66582000  0.77753000  1.0
