# generated using pymatgen
data_Hf8Co16Sn8CO
_symmetry_space_group_name_H-M   Pm
_cell_length_a   8.86104000
_cell_length_b   6.26570000
_cell_length_c   26.64580000
_cell_angle_alpha   90.00000000
_cell_angle_beta   90.00000000
_cell_angle_gamma   90.00000000
_symmetry_Int_Tables_number   6
_chemical_formula_structural   Hf8Co16Sn8CO
_chemical_formula_sum   'Hf8 Co16 Sn8 C1 O1'
_cell_volume   1479.39129184
_cell_formula_units_Z   1
loop_
 _symmetry_equiv_pos_site_id
 _symmetry_equiv_pos_as_xyz
  1  'x, y, z'
  2  'x, -y, z'
loop_
 _atom_site_type_symbol
 _atom_site_label
 _atom_site_symmetry_multiplicity
 _atom_site_fract_x
 _atom_site_fract_y
 _atom_site_fract_z
 _atom_site_occupancy
  Hf  Hf0  1  0.00000000  0.00000000  0.87529000  1.0
  Hf  Hf1  1  0.25000000  0.50000000  0.12348000  1.0
  Hf  Hf2  1  0.25000000  0.50000000  0.95843000  1.0
  Hf  Hf3  1  0.50000000  0.00000000  0.87529000  1.0
  Hf  Hf4  1  0.50012000  0.00000000  0.04190000  1.0
  Hf  Hf5  1  0.75000000  0.50000000  0.12335000  1.0
  Hf  Hf6  1  0.75000000  0.50000000  0.95843000  1.0
  Hf  Hf7  1  0.99988000  0.00000000  0.04190000  1.0
  Co  Co8  2  0.00000000  0.25004000  0.95843000  1.0
  Co  Co9  2  0.00022000  0.24035000  0.11801000  1.0
  Co  Co10  2  0.25000000  0.25004000  0.87529000  1.0
  Co  Co11  2  0.25001000  0.25356000  0.04313000  1.0
  Co  Co12  2  0.49978000  0.24042000  0.11801000  1.0
  Co  Co13  2  0.50000000  0.24996000  0.95843000  1.0
  Co  Co14  2  0.74999000  0.25347000  0.04313000  1.0
  Co  Co15  2  0.75000000  0.24996000  0.87529000  1.0
  Sn  Sn16  1  0.00000000  0.50000000  0.87529000  1.0
  Sn  Sn17  1  0.00002000  0.50000000  0.04097000  1.0
  Sn  Sn18  1  0.25000000  0.00000000  0.13202000  1.0
  Sn  Sn19  1  0.25000000  0.00000000  0.95843000  1.0
  Sn  Sn20  1  0.49999000  0.50000000  0.04097000  1.0
  Sn  Sn21  1  0.50000000  0.50000000  0.87529000  1.0
  Sn  Sn22  1  0.75000000  0.00000000  0.13232000  1.0
  Sn  Sn23  1  0.75000000  0.00000000  0.95843000  1.0
  C  C24  1  0.24992000  0.00000000  0.28105000  1.0
  O  O25  1  0.25002000  0.00000000  0.32365000  1.0
