# generated using pymatgen
data_K8Na16Sb8C
_symmetry_space_group_name_H-M   'P 1'
_cell_length_a   7.84214000
_cell_length_b   11.09050000
_cell_length_c   28.31780000
_cell_angle_alpha   90.00000000
_cell_angle_beta   90.00000000
_cell_angle_gamma   90.00000000
_symmetry_Int_Tables_number   1
_chemical_formula_structural   K8Na16Sb8C
_chemical_formula_sum   'K8 Na16 Sb8 C1'
_cell_volume   2462.89120278
_cell_formula_units_Z   1
loop_
 _symmetry_equiv_pos_site_id
 _symmetry_equiv_pos_as_xyz
  1  'x, y, z'
loop_
 _atom_site_type_symbol
 _atom_site_label
 _atom_site_symmetry_multiplicity
 _atom_site_fract_x
 _atom_site_fract_y
 _atom_site_fract_z
 _atom_site_occupancy
  K  K0  1  0.00000000  0.00000000  0.85313000  1.0
  K  K1  1  0.50000000  0.25000000  0.95104000  1.0
  K  K2  1  0.50000000  0.75000000  0.95104000  1.0
  K  K3  1  1.00000000  0.50000000  0.85313000  1.0
  K  K4  1  0.00002000  0.50019000  0.04338000  1.0
  K  K5  1  0.50000000  0.74507000  0.22099000  1.0
  K  K6  1  0.50007000  0.25497000  0.22100000  1.0
  K  K7  1  0.00001000  0.00009000  0.04584000  1.0
  Na  Na8  1  0.25000000  0.00000000  0.95104000  1.0
  Na  Na9  1  0.75000000  0.50000000  0.95104000  1.0
  Na  Na10  1  0.75000000  0.00000000  0.95104000  1.0
  Na  Na11  1  0.25000000  0.50000000  0.95104000  1.0
  Na  Na12  1  0.75000000  0.75000000  0.85313000  1.0
  Na  Na13  1  0.25000000  0.25000000  0.85313000  1.0
  Na  Na14  1  0.25000000  0.75000000  0.85313000  1.0
  Na  Na15  1  0.75000000  0.25000000  0.85313000  1.0
  Na  Na16  1  0.24314000  0.50005000  0.15645000  1.0
  Na  Na17  1  0.69284000  0.99978000  0.14658000  1.0
  Na  Na18  1  0.75681000  0.50009000  0.15643000  1.0
  Na  Na19  1  0.30713000  0.99977000  0.14659000  1.0
  Na  Na20  1  0.71294000  0.25014000  0.06461000  1.0
  Na  Na21  1  0.28718000  0.74997000  0.06457000  1.0
  Na  Na22  1  0.28711000  0.25014000  0.06460000  1.0
  Na  Na23  1  0.71284000  0.74998000  0.06456000  1.0
  Sb  Sb24  1  1.00000000  0.75000000  0.95104000  1.0
  Sb  Sb25  1  0.50000000  0.00000000  0.85313000  1.0
  Sb  Sb26  1  1.00000000  0.25000000  0.95104000  1.0
  Sb  Sb27  1  0.50000000  0.50000000  0.85313000  1.0
  Sb  Sb28  1  1.00000000  0.18488000  0.15425000  1.0
  Sb  Sb29  1  0.50001000  0.50002000  0.05692000  1.0
  Sb  Sb30  1  0.99999000  0.81410000  0.15393000  1.0
  Sb  Sb31  1  0.49999000  0.00014000  0.04426000  1.0
  C  C32  1  0.99997000  0.99921000  0.14461000  1.0
