data_image0
_chemical_formula_structural       Li4Al4Ag4Ge4CO
_chemical_formula_sum              "Li4 Al4 Ag4 Ge4 C1 O1"
_cell_length_a       5.56638
_cell_length_b       8.55604
_cell_length_c       24.1715
_cell_angle_alpha    90
_cell_angle_beta     90
_cell_angle_gamma    90

_space_group_name_H-M_alt    "P 1"
_space_group_IT_number       1

loop_
  _space_group_symop_operation_xyz
  'x, y, z'

loop_
  _atom_site_type_symbol
  _atom_site_label
  _atom_site_symmetry_multiplicity
  _atom_site_fract_x
  _atom_site_fract_y
  _atom_site_fract_z
  _atom_site_occupancy
  Li  Li1       1.0  0.50000  0.00000  0.91371  1.0000
  Li  Li2       1.0  0.95848  0.99928  0.02708  1.0000
  Li  Li3       1.0  0.50000  0.50000  0.91371  1.0000
  Li  Li4       1.0  0.95851  0.50072  0.02708  1.0000
  Al  Al1       1.0  0.24004  0.25000  0.97124  1.0000
  Al  Al2       1.0  0.69322  0.25000  0.07965  1.0000
  Al  Al3       1.0  0.24004  0.75000  0.97124  1.0000
  Al  Al4       1.0  0.70027  0.75000  0.08024  1.0000
  Ag  Ag1       1.0  0.00000  0.00000  0.91371  1.0000
  Ag  Ag2       1.0  0.45654  0.99965  0.04096  1.0000
  Ag  Ag3       1.0  0.00000  0.50000  0.91371  1.0000
  Ag  Ag4       1.0  0.45660  0.50035  0.04095  1.0000
  Ge  Ge1       1.0  0.74004  0.25000  0.97124  1.0000
  Ge  Ge2       1.0  0.19160  0.25001  0.07949  1.0000
  Ge  Ge3       1.0  0.74004  0.75000  0.97124  1.0000
  Ge  Ge4       1.0  0.19689  0.75001  0.08113  1.0000
  C   C1        1.0  0.14033  0.24999  0.22044  1.0000
  O   O1        1.0  0.33059  0.25001  0.23730  1.0000
