# generated using pymatgen
data_Li4Al4Ag4Ge4CO
_symmetry_space_group_name_H-M   'P 1'
_cell_length_a   8.55604000
_cell_length_b   5.56638000
_cell_length_c   24.17150000
_cell_angle_alpha   90.00000000
_cell_angle_beta   90.00000000
_cell_angle_gamma   90.00000000
_symmetry_Int_Tables_number   1
_chemical_formula_structural   Li4Al4Ag4Ge4CO
_chemical_formula_sum   'Li4 Al4 Ag4 Ge4 C1 O1'
_cell_volume   1151.19596659
_cell_formula_units_Z   1
loop_
 _symmetry_equiv_pos_site_id
 _symmetry_equiv_pos_as_xyz
  1  'x, y, z'
loop_
 _atom_site_type_symbol
 _atom_site_label
 _atom_site_symmetry_multiplicity
 _atom_site_fract_x
 _atom_site_fract_y
 _atom_site_fract_z
 _atom_site_occupancy
  Li  Li0  1  0.75001000  0.50000000  0.08629000  1.0
  Li  Li1  1  0.74929000  0.95848000  0.97292000  1.0
  Li  Li2  1  0.24999000  0.50000000  0.08629000  1.0
  Li  Li3  1  0.25071000  0.95848000  0.97292000  1.0
  Al  Al4  1  0.00000000  0.24004000  0.02876000  1.0
  Al  Al5  1  0.00000000  0.69322000  0.92035000  1.0
  Al  Al6  1  0.50000000  0.24004000  0.02876000  1.0
  Al  Al7  1  0.50000000  0.70027000  0.91976000  1.0
  Ag  Ag8  1  0.75001000  0.00000000  0.08629000  1.0
  Ag  Ag9  1  0.74966000  0.45654000  0.95904000  1.0
  Ag  Ag10  1  0.24999000  0.00000000  0.08629000  1.0
  Ag  Ag11  1  0.25034000  0.45654000  0.95904000  1.0
  Ge  Ge12  1  0.00000000  0.74004000  0.02876000  1.0
  Ge  Ge13  1  0.00000000  0.19160000  0.92051000  1.0
  Ge  Ge14  1  0.50000000  0.74004000  0.02876000  1.0
  Ge  Ge15  1  0.50000000  0.19689000  0.91887000  1.0
  C  C16  1  0.00000000  0.14033000  0.77956000  1.0
  O  O17  1  0.00000000  0.33059000  0.76270000  1.0
