# generated using pymatgen
data_Li4Al4Ag4Ge4CO
_symmetry_space_group_name_H-M   Pm
_cell_length_a   5.56638000
_cell_length_b   8.55604000
_cell_length_c   24.17150000
_cell_angle_alpha   90.00000000
_cell_angle_beta   90.00000000
_cell_angle_gamma   90.00000000
_symmetry_Int_Tables_number   6
_chemical_formula_structural   Li4Al4Ag4Ge4CO
_chemical_formula_sum   'Li4 Al4 Ag4 Ge4 C1 O1'
_cell_volume   1151.19596659
_cell_formula_units_Z   1
loop_
 _symmetry_equiv_pos_site_id
 _symmetry_equiv_pos_as_xyz
  1  'x, y, z'
  2  'x, -y, z'
loop_
 _atom_site_type_symbol
 _atom_site_label
 _atom_site_symmetry_multiplicity
 _atom_site_fract_x
 _atom_site_fract_y
 _atom_site_fract_z
 _atom_site_occupancy
  Li  Li0  2  0.50000000  0.24999000  0.91371000  1.0
  Li  Li1  2  0.95848000  0.25071000  0.02708000  1.0
  Al  Al2  1  0.24004000  0.00000000  0.97124000  1.0
  Al  Al3  1  0.24004000  0.50000000  0.97124000  1.0
  Al  Al4  1  0.69322000  0.00000000  0.07965000  1.0
  Al  Al5  1  0.70027000  0.50000000  0.08024000  1.0
  Ag  Ag6  2  0.00000000  0.24999000  0.91371000  1.0
  Ag  Ag7  2  0.45654000  0.25034000  0.04096000  1.0
  Ge  Ge8  1  0.19160000  0.00000000  0.07949000  1.0
  Ge  Ge9  1  0.19689000  0.50000000  0.08113000  1.0
  Ge  Ge10  1  0.74004000  0.00000000  0.97124000  1.0
  Ge  Ge11  1  0.74004000  0.50000000  0.97124000  1.0
  C  C12  1  0.14033000  0.00000000  0.22044000  1.0
  O  O13  1  0.33059000  0.00000000  0.23730000  1.0
