# generated using pymatgen
data_Li4Sc4In4Ga4C
_symmetry_space_group_name_H-M   'P 1'
_cell_length_a   8.23116000
_cell_length_b   6.09788000
_cell_length_c   24.56590000
_cell_angle_alpha   90.00000000
_cell_angle_beta   90.00000000
_cell_angle_gamma   90.00000000
_symmetry_Int_Tables_number   1
_chemical_formula_structural   Li4Sc4In4Ga4C
_chemical_formula_sum   'Li4 Sc4 In4 Ga4 C1'
_cell_volume   1233.02702960
_cell_formula_units_Z   1
loop_
 _symmetry_equiv_pos_site_id
 _symmetry_equiv_pos_as_xyz
  1  'x, y, z'
loop_
 _atom_site_type_symbol
 _atom_site_label
 _atom_site_symmetry_multiplicity
 _atom_site_fract_x
 _atom_site_fract_y
 _atom_site_fract_z
 _atom_site_occupancy
  Li  Li0  1  0.00000000  0.50000000  0.90707000  1.0
  Li  Li1  1  0.00000000  0.06279000  0.02789000  1.0
  Li  Li2  1  0.50000000  0.50000000  0.90707000  1.0
  Li  Li3  1  0.50000000  0.03266000  0.04847000  1.0
  Sc  Sc4  1  0.75000000  0.76431000  0.96902000  1.0
  Sc  Sc5  1  0.79832000  0.36333000  0.09806000  1.0
  Sc  Sc6  1  0.25000000  0.76431000  0.96902000  1.0
  Sc  Sc7  1  0.20168000  0.36333000  0.09806000  1.0
  In  In8  1  0.75000000  0.26431000  0.96902000  1.0
  In  In9  1  0.80784000  0.86004000  0.11950000  1.0
  In  In10  1  0.25000000  0.26431000  0.96902000  1.0
  In  In11  1  0.19216000  0.86004000  0.11950000  1.0
  Ga  Ga12  1  0.00000000  0.00000000  0.90707000  1.0
  Ga  Ga13  1  0.00000000  0.59912000  0.02810000  1.0
  Ga  Ga14  1  0.50000000  0.00000000  0.90707000  1.0
  Ga  Ga15  1  0.50000000  0.53005000  0.03269000  1.0
  C  C16  1  0.00000000  0.15666000  0.11013000  1.0
