# generated using pymatgen
data_Li4Sc4In4Ga4C
_symmetry_space_group_name_H-M   Pm
_cell_length_a   6.09788000
_cell_length_b   8.23116000
_cell_length_c   24.56590000
_cell_angle_alpha   90.00000000
_cell_angle_beta   90.00000000
_cell_angle_gamma   90.00000000
_symmetry_Int_Tables_number   6
_chemical_formula_structural   Li4Sc4In4Ga4C
_chemical_formula_sum   'Li4 Sc4 In4 Ga4 C1'
_cell_volume   1233.02702960
_cell_formula_units_Z   1
loop_
 _symmetry_equiv_pos_site_id
 _symmetry_equiv_pos_as_xyz
  1  'x, y, z'
  2  'x, -y, z'
loop_
 _atom_site_type_symbol
 _atom_site_label
 _atom_site_symmetry_multiplicity
 _atom_site_fract_x
 _atom_site_fract_y
 _atom_site_fract_z
 _atom_site_occupancy
  Li  Li0  1  0.03266000  0.50000000  0.95153000  1.0
  Li  Li1  1  0.06279000  0.00000000  0.97211000  1.0
  Li  Li2  1  0.50000000  0.00000000  0.09293000  1.0
  Li  Li3  1  0.50000000  0.50000000  0.09293000  1.0
  Sc  Sc4  2  0.36333000  0.20168000  0.90194000  1.0
  Sc  Sc5  2  0.76431000  0.25000000  0.03098000  1.0
  In  In6  2  0.26431000  0.25000000  0.03098000  1.0
  In  In7  2  0.86004000  0.19216000  0.88050000  1.0
  Ga  Ga8  1  0.00000000  0.00000000  0.09293000  1.0
  Ga  Ga9  1  0.00000000  0.50000000  0.09293000  1.0
  Ga  Ga10  1  0.53005000  0.50000000  0.96731000  1.0
  Ga  Ga11  1  0.59912000  0.00000000  0.97190000  1.0
  C  C12  1  0.15666000  0.00000000  0.88987000  1.0
