# generated using pymatgen
data_Sc8Ga8Cu16CO
_symmetry_space_group_name_H-M   Pmm2
_cell_length_a   6.23499000
_cell_length_b   8.81761000
_cell_length_c   26.61320000
_cell_angle_alpha   90.00000000
_cell_angle_beta   90.00000000
_cell_angle_gamma   90.00000000
_symmetry_Int_Tables_number   25
_chemical_formula_structural   Sc8Ga8Cu16CO
_chemical_formula_sum   'Sc8 Ga8 Cu16 C1 O1'
_cell_volume   1463.13279640
_cell_formula_units_Z   1
loop_
 _symmetry_equiv_pos_site_id
 _symmetry_equiv_pos_as_xyz
  1  'x, y, z'
  2  '-x, -y, z'
  3  '-x, y, z'
  4  'x, -y, z'
loop_
 _atom_site_type_symbol
 _atom_site_label
 _atom_site_symmetry_multiplicity
 _atom_site_fract_x
 _atom_site_fract_y
 _atom_site_fract_z
 _atom_site_occupancy
  Sc  Sc0  2  0.00000000  0.25000000  0.87575000  1.0
  Sc  Sc1  2  0.00000000  0.25584000  0.04081000  1.0
  Sc  Sc2  1  0.50000000  0.00000000  0.12647000  1.0
  Sc  Sc3  1  0.50000000  0.00000000  0.95858000  1.0
  Sc  Sc4  1  0.50000000  0.50000000  0.13145000  1.0
  Sc  Sc5  1  0.50000000  0.50000000  0.95858000  1.0
  Ga  Ga6  2  0.50000000  0.24607000  0.04259000  1.0
  Ga  Ga7  2  0.50000000  0.25000000  0.87575000  1.0
  Ga  Ga8  1  0.00000000  0.00000000  0.12213000  1.0
  Ga  Ga9  1  0.00000000  0.00000000  0.95858000  1.0
  Ga  Ga10  1  0.00000000  0.50000000  0.12084000  1.0
  Ga  Ga11  1  0.00000000  0.50000000  0.95858000  1.0
  Cu  Cu12  4  0.22763000  0.25100000  0.12594000  1.0
  Cu  Cu13  4  0.25000000  0.25000000  0.95858000  1.0
  Cu  Cu14  2  0.24888000  0.00000000  0.04175000  1.0
  Cu  Cu15  2  0.25000000  0.00000000  0.87575000  1.0
  Cu  Cu16  2  0.25000000  0.50000000  0.87575000  1.0
  Cu  Cu17  2  0.27518000  0.50000000  0.04466000  1.0
  C  C18  1  0.50000000  0.00000000  0.21285000  1.0
  O  O19  1  0.50000000  0.00000000  0.25594000  1.0
