# generated using pymatgen
data_Li8In8Pd8Rh8CO
_symmetry_space_group_name_H-M   'P 1'
_cell_length_a   6.29773000
_cell_length_b   8.90634000
_cell_length_c   26.67980000
_cell_angle_alpha   90.00000000
_cell_angle_beta   90.00000000
_cell_angle_gamma   90.00000000
_symmetry_Int_Tables_number   1
_chemical_formula_structural   Li8In8Pd8Rh8CO
_chemical_formula_sum   'Li8 In8 Pd8 Rh8 C1 O1'
_cell_volume   1496.46263460
_cell_formula_units_Z   1
loop_
 _symmetry_equiv_pos_site_id
 _symmetry_equiv_pos_as_xyz
  1  'x, y, z'
loop_
 _atom_site_type_symbol
 _atom_site_label
 _atom_site_symmetry_multiplicity
 _atom_site_fract_x
 _atom_site_fract_y
 _atom_site_fract_z
 _atom_site_occupancy
  Li  Li0  1  0.00000000  0.25000000  0.95827000  1.0
  Li  Li1  1  0.00000000  0.75000000  0.95827000  1.0
  Li  Li2  1  0.50000000  0.50000000  0.87482000  1.0
  Li  Li3  1  0.50000000  0.00000000  0.87482000  1.0
  Li  Li4  1  0.99741000  0.74561000  0.13267000  1.0
  Li  Li5  1  0.99693000  0.25455000  0.13262000  1.0
  Li  Li6  1  0.49938000  0.99965000  0.03995000  1.0
  Li  Li7  1  0.49105000  0.50079000  0.04127000  1.0
  In  In8  1  0.00000000  0.00000000  0.87482000  1.0
  In  In9  1  0.00000000  0.50000000  0.87482000  1.0
  In  In10  1  0.50000000  0.75000000  0.95827000  1.0
  In  In11  1  0.50000000  0.25000000  0.95827000  1.0
  In  In12  1  0.99779000  0.50064000  0.04080000  1.0
  In  In13  1  0.99373000  0.00004000  0.04093000  1.0
  In  In14  1  0.48565000  0.25131000  0.13353000  1.0
  In  In15  1  0.48614000  0.74843000  0.13333000  1.0
  Pd  Pd16  1  0.75000000  0.00000000  0.95827000  1.0
  Pd  Pd17  1  0.75000000  0.50000000  0.95827000  1.0
  Pd  Pd18  1  0.25000000  0.25000000  0.87482000  1.0
  Pd  Pd19  1  0.25000000  0.75000000  0.87482000  1.0
  Pd  Pd20  1  0.73970000  0.49981000  0.12161000  1.0
  Pd  Pd21  1  0.73032000  0.00031000  0.12105000  1.0
  Pd  Pd22  1  0.24949000  0.75346000  0.04397000  1.0
  Pd  Pd23  1  0.25115000  0.24666000  0.04404000  1.0
  Rh  Rh24  1  0.25000000  0.00000000  0.95827000  1.0
  Rh  Rh25  1  0.25000000  0.50000000  0.95827000  1.0
  Rh  Rh26  1  0.75000000  0.25000000  0.87482000  1.0
  Rh  Rh27  1  0.75000000  0.75000000  0.87482000  1.0
  Rh  Rh28  1  0.25009000  0.49952000  0.12032000  1.0
  Rh  Rh29  1  0.22568000  0.99980000  0.12788000  1.0
  Rh  Rh30  1  0.74342000  0.74989000  0.04587000  1.0
  Rh  Rh31  1  0.74148000  0.25096000  0.04562000  1.0
  C  C32  1  0.09110000  0.99968000  0.18982000  1.0
  O  O33  1  0.00670000  0.99963000  0.22877000  1.0
