# generated using pymatgen
data_Li16Ga8Pt8C
_symmetry_space_group_name_H-M   'P 1'
_cell_length_a   8.63876000
_cell_length_b   6.10853000
_cell_length_c   26.47910000
_cell_angle_alpha   90.00000000
_cell_angle_beta   90.00000000
_cell_angle_gamma   90.00000000
_symmetry_Int_Tables_number   1
_chemical_formula_structural   Li16Ga8Pt8C
_chemical_formula_sum   'Li16 Ga8 Pt8 C1'
_cell_volume   1397.30540690
_cell_formula_units_Z   1
loop_
 _symmetry_equiv_pos_site_id
 _symmetry_equiv_pos_as_xyz
  1  'x, y, z'
loop_
 _atom_site_type_symbol
 _atom_site_label
 _atom_site_symmetry_multiplicity
 _atom_site_fract_x
 _atom_site_fract_y
 _atom_site_fract_z
 _atom_site_occupancy
  Li  Li0  1  0.50000000  0.00000000  0.04078000  1.0
  Li  Li1  1  0.75000000  0.50000000  0.12234000  1.0
  Li  Li2  1  0.00000000  0.00000000  0.04078000  1.0
  Li  Li3  1  0.25000000  0.50000000  0.12234000  1.0
  Li  Li4  1  0.00000000  0.25000000  0.12234000  1.0
  Li  Li5  1  0.50000000  0.25000000  0.12234000  1.0
  Li  Li6  1  0.25000000  0.75000000  0.04078000  1.0
  Li  Li7  1  0.75000000  0.75000000  0.04078000  1.0
  Li  Li8  1  0.00000000  0.94030000  0.86196000  1.0
  Li  Li9  1  0.24229000  0.50335000  0.95775000  1.0
  Li  Li10  1  0.50000000  0.01890000  0.88164000  1.0
  Li  Li11  1  0.75771000  0.50335000  0.95775000  1.0
  Li  Li12  1  0.50000000  0.24826000  0.96466000  1.0
  Li  Li13  1  0.00000000  0.23236000  0.95574000  1.0
  Li  Li14  1  0.72897000  0.71289000  0.86877000  1.0
  Li  Li15  1  0.27103000  0.71289000  0.86877000  1.0
  Ga  Ga16  1  0.75000000  0.25000000  0.04078000  1.0
  Ga  Ga17  1  0.25000000  0.25000000  0.04078000  1.0
  Ga  Ga18  1  0.50000000  0.75000000  0.12234000  1.0
  Ga  Ga19  1  0.00000000  0.75000000  0.12234000  1.0
  Ga  Ga20  1  0.23385000  0.23294000  0.87262000  1.0
  Ga  Ga21  1  0.76615000  0.23294000  0.87262000  1.0
  Ga  Ga22  1  0.00000000  0.77718000  0.96496000  1.0
  Ga  Ga23  1  0.50000000  0.73482000  0.95688000  1.0
  Pt  Pt24  1  0.75000000  0.00000000  0.12234000  1.0
  Pt  Pt25  1  0.00000000  0.50000000  0.04078000  1.0
  Pt  Pt26  1  0.50000000  0.50000000  0.04078000  1.0
  Pt  Pt27  1  0.25000000  0.00000000  0.12234000  1.0
  Pt  Pt28  1  0.25864000  0.99315000  0.95859000  1.0
  Pt  Pt29  1  0.50000000  0.44792000  0.88452000  1.0
  Pt  Pt30  1  0.00000000  0.55188000  0.88787000  1.0
  Pt  Pt31  1  0.74136000  0.99315000  0.95859000  1.0
  C  C32  1  0.00000000  0.25953000  0.85827000  1.0
