# generated using pymatgen
data_Li4Y4Sn4Ge4CO
_symmetry_space_group_name_H-M   'P 1'
_cell_length_a   9.43388000
_cell_length_b   6.05842000
_cell_length_c   24.54360000
_cell_angle_alpha   90.00000000
_cell_angle_beta   90.00000000
_cell_angle_gamma   90.00000000
_symmetry_Int_Tables_number   1
_chemical_formula_structural   Li4Y4Sn4Ge4CO
_chemical_formula_sum   'Li4 Y4 Sn4 Ge4 C1 O1'
_cell_volume   1402.77491026
_cell_formula_units_Z   1
loop_
 _symmetry_equiv_pos_site_id
 _symmetry_equiv_pos_as_xyz
  1  'x, y, z'
loop_
 _atom_site_type_symbol
 _atom_site_label
 _atom_site_symmetry_multiplicity
 _atom_site_fract_x
 _atom_site_fract_y
 _atom_site_fract_z
 _atom_site_occupancy
  Li  Li0  1  0.24984000  0.71828000  0.97488000  1.0
  Li  Li1  1  0.25000000  0.25707000  0.09256000  1.0
  Li  Li2  1  0.75016000  0.71828000  0.97488000  1.0
  Li  Li3  1  0.75000000  0.25707000  0.09256000  1.0
  Y  Y4  1  0.00000000  0.48926000  0.90617000  1.0
  Y  Y5  1  0.00000000  0.00471000  0.03085000  1.0
  Y  Y6  1  0.50000000  0.48923000  0.90751000  1.0
  Y  Y7  1  0.50000000  0.00471000  0.03085000  1.0
  Sn  Sn8  1  0.24966000  0.21309000  0.95578000  1.0
  Sn  Sn9  1  0.25000000  0.75707000  0.09256000  1.0
  Sn  Sn10  1  0.75034000  0.21309000  0.95578000  1.0
  Sn  Sn11  1  0.75000000  0.75707000  0.09256000  1.0
  Ge  Ge12  1  0.00000000  0.99547000  0.90203000  1.0
  Ge  Ge13  1  0.00000000  0.50471000  0.03085000  1.0
  Ge  Ge14  1  0.50000000  0.99575000  0.90411000  1.0
  Ge  Ge15  1  0.50000000  0.50471000  0.03085000  1.0
  C  C16  1  0.00000000  0.50013000  0.80361000  1.0
  O  O17  1  0.00000000  0.49793000  0.75689000  1.0
