# generated using pymatgen
data_Li4Y4Sn4Ge4CO
_symmetry_space_group_name_H-M   Pm
_cell_length_a   6.05842000
_cell_length_b   9.43388000
_cell_length_c   24.54360000
_cell_angle_alpha   90.00000000
_cell_angle_beta   90.00000000
_cell_angle_gamma   90.00000000
_symmetry_Int_Tables_number   6
_chemical_formula_structural   Li4Y4Sn4Ge4CO
_chemical_formula_sum   'Li4 Y4 Sn4 Ge4 C1 O1'
_cell_volume   1402.77491026
_cell_formula_units_Z   1
loop_
 _symmetry_equiv_pos_site_id
 _symmetry_equiv_pos_as_xyz
  1  'x, y, z'
  2  'x, -y, z'
loop_
 _atom_site_type_symbol
 _atom_site_label
 _atom_site_symmetry_multiplicity
 _atom_site_fract_x
 _atom_site_fract_y
 _atom_site_fract_z
 _atom_site_occupancy
  Li  Li0  2  0.25707000  0.25000000  0.90744000  1.0
  Li  Li1  2  0.71828000  0.24984000  0.02512000  1.0
  Y  Y2  1  0.00471000  0.00000000  0.96915000  1.0
  Y  Y3  1  0.00471000  0.50000000  0.96915000  1.0
  Y  Y4  1  0.48923000  0.50000000  0.09249000  1.0
  Y  Y5  1  0.48926000  0.00000000  0.09383000  1.0
  Sn  Sn6  2  0.21309000  0.24966000  0.04422000  1.0
  Sn  Sn7  2  0.75707000  0.25000000  0.90744000  1.0
  Ge  Ge8  1  0.50471000  0.00000000  0.96915000  1.0
  Ge  Ge9  1  0.50471000  0.50000000  0.96915000  1.0
  Ge  Ge10  1  0.99547000  0.00000000  0.09797000  1.0
  Ge  Ge11  1  0.99575000  0.50000000  0.09589000  1.0
  C  C12  1  0.50013000  0.00000000  0.19639000  1.0
  O  O13  1  0.49793000  0.00000000  0.24311000  1.0
