data_image0
_chemical_formula_structural       Li8Ni8Ge8Pd8CO
_chemical_formula_sum              "Li8 Ni8 Ge8 Pd8 C1 O1"
_cell_length_a       5.93854
_cell_length_b       8.39836
_cell_length_c       26.2988
_cell_angle_alpha    90
_cell_angle_beta     90
_cell_angle_gamma    90

_space_group_name_H-M_alt    "P 1"
_space_group_IT_number       1

loop_
  _space_group_symop_operation_xyz
  'x, y, z'

loop_
  _atom_site_type_symbol
  _atom_site_label
  _atom_site_symmetry_multiplicity
  _atom_site_fract_x
  _atom_site_fract_y
  _atom_site_fract_z
  _atom_site_occupancy
  Li  Li1       1.0  0.00000  0.25000  0.96008  1.0000
  Li  Li2       1.0  0.00000  0.75000  0.96008  1.0000
  Li  Li3       1.0  0.50000  0.50000  0.88025  1.0000
  Li  Li4       1.0  0.50000  0.00000  0.88025  1.0000
  Li  Li5       1.0  0.99390  0.75000  0.13346  1.0000
  Li  Li6       1.0  0.99574  0.25000  0.13658  1.0000
  Li  Li7       1.0  0.49895  0.00007  0.03618  1.0000
  Li  Li8       1.0  0.49895  0.49994  0.03618  1.0000
  Ni  Ni1       1.0  0.75000  0.00000  0.96008  1.0000
  Ni  Ni2       1.0  0.75000  0.50000  0.96008  1.0000
  Ni  Ni3       1.0  0.25000  0.25000  0.88025  1.0000
  Ni  Ni4       1.0  0.25000  0.75000  0.88025  1.0000
  Ni  Ni5       1.0  0.72952  0.50040  0.11072  1.0000
  Ni  Ni6       1.0  0.72951  0.99960  0.11071  1.0000
  Ni  Ni7       1.0  0.25129  0.75001  0.04141  1.0000
  Ni  Ni8       1.0  0.25117  0.25001  0.04176  1.0000
  Ge  Ge1       1.0  0.00000  0.00000  0.88025  1.0000
  Ge  Ge2       1.0  0.00000  0.50000  0.88025  1.0000
  Ge  Ge3       1.0  0.50000  0.75000  0.96008  1.0000
  Ge  Ge4       1.0  0.50000  0.25000  0.96008  1.0000
  Ge  Ge5       1.0  0.00596  0.49993  0.04195  1.0000
  Ge  Ge6       1.0  0.00596  0.00007  0.04195  1.0000
  Ge  Ge7       1.0  0.51305  0.25000  0.12143  1.0000
  Ge  Ge8       1.0  0.51764  0.75000  0.12319  1.0000
  Pd  Pd1       1.0  0.25000  0.00000  0.96008  1.0000
  Pd  Pd2       1.0  0.25000  0.50000  0.96008  1.0000
  Pd  Pd3       1.0  0.75000  0.25000  0.88025  1.0000
  Pd  Pd4       1.0  0.75000  0.75000  0.88025  1.0000
  Pd  Pd5       1.0  0.27327  0.50208  0.11618  1.0000
  Pd  Pd6       1.0  0.27327  0.99792  0.11618  1.0000
  Pd  Pd7       1.0  0.75360  0.75000  0.03960  1.0000
  Pd  Pd8       1.0  0.75449  0.25000  0.03985  1.0000
  C   C1        1.0  0.99387  0.25000  0.21832  1.0000
  O   O1        1.0  0.99220  0.25000  0.26156  1.0000
