# generated using pymatgen
data_Li8Cu8Sn8Ge8CO
_symmetry_space_group_name_H-M   Pm
_cell_length_a   6.57410000
_cell_length_b   9.29718000
_cell_length_c   26.97290000
_cell_angle_alpha   90.00000000
_cell_angle_beta   90.00000000
_cell_angle_gamma   90.00000000
_symmetry_Int_Tables_number   6
_chemical_formula_structural   Li8Cu8Sn8Ge8CO
_chemical_formula_sum   'Li8 Cu8 Sn8 Ge8 C1 O1'
_cell_volume   1648.59959001
_cell_formula_units_Z   1
loop_
 _symmetry_equiv_pos_site_id
 _symmetry_equiv_pos_as_xyz
  1  'x, y, z'
  2  'x, -y, z'
loop_
 _atom_site_type_symbol
 _atom_site_label
 _atom_site_symmetry_multiplicity
 _atom_site_fract_x
 _atom_site_fract_y
 _atom_site_fract_z
 _atom_site_occupancy
  Li  Li0  2  0.50000000  0.24999000  0.87074000  1.0
  Li  Li1  2  0.52170000  0.24972000  0.04519000  1.0
  Li  Li2  1  -0.00000000  0.50000000  0.95691000  1.0
  Li  Li3  1  -0.00000000  0.00000000  0.95691000  1.0
  Li  Li4  1  0.04035000  0.00000000  0.14537000  1.0
  Li  Li5  1  0.05209000  0.50000000  0.14682000  1.0
  Cu  Cu6  2  0.00000000  0.25001000  0.87074000  1.0
  Cu  Cu7  2  0.97215000  0.24931000  0.05698000  1.0
  Cu  Cu8  1  0.47873000  0.50000000  0.12288000  1.0
  Cu  Cu9  1  0.49516000  0.00000000  0.12196000  1.0
  Cu  Cu10  1  0.50000000  0.00000000  0.95691000  1.0
  Cu  Cu11  1  0.50000000  0.50000000  0.95691000  1.0
  Sn  Sn12  2  0.72692000  0.25697000  0.14506000  1.0
  Sn  Sn13  2  0.75000000  0.25001000  0.95691000  1.0
  Sn  Sn14  1  0.22909000  0.50000000  0.04418000  1.0
  Sn  Sn15  1  0.23263000  0.00000000  0.04466000  1.0
  Sn  Sn16  1  0.25000000  0.00000000  0.87074000  1.0
  Sn  Sn17  1  0.25000000  0.50000000  0.87074000  1.0
  Ge  Ge18  2  0.25000000  0.25001000  0.95691000  1.0
  Ge  Ge19  2  0.29360000  0.25074000  0.13313000  1.0
  Ge  Ge20  1  0.75000000  0.00000000  0.87074000  1.0
  Ge  Ge21  1  0.75000000  0.50000000  0.87074000  1.0
  Ge  Ge22  1  0.77410000  0.50000000  0.05651000  1.0
  Ge  Ge23  1  0.77760000  0.00000000  0.05487000  1.0
  C  C24  1  0.01732000  0.00000000  0.22362000  1.0
  O  O25  1  0.00491000  0.00000000  0.26572000  1.0
