# generated using pymatgen
data_Hf8Ni16Sn8CO
_symmetry_space_group_name_H-M   P1
_cell_length_a   6.28964000
_cell_length_b   8.89490000
_cell_length_c   26.67120000
_cell_angle_alpha   90.00000000
_cell_angle_beta   90.00000000
_cell_angle_gamma   90.00000000
_symmetry_Int_Tables_number   1
_chemical_formula_structural   Hf8Ni16Sn8CO
_chemical_formula_sum   'Hf8 Ni16 Sn8 C1 O1'
_cell_volume   1492.13945622
_cell_formula_units_Z   1
loop_
 _symmetry_equiv_pos_site_id
 _symmetry_equiv_pos_as_xyz
  1  'x, y, z'
loop_
 _atom_site_type_symbol
 _atom_site_label
 _atom_site_symmetry_multiplicity
 _atom_site_fract_x
 _atom_site_fract_y
 _atom_site_fract_z
 _atom_site_occupancy
  Hf  Hf0  1  0.00000000  0.00000000  0.87494000  1.0
  Hf  Hf1  1  0.00000000  0.50000000  0.87494000  1.0
  Hf  Hf2  1  0.49995000  0.25004000  0.12551000  1.0
  Hf  Hf3  1  0.49995000  0.75008000  0.12508000  1.0
  Hf  Hf4  1  0.50000000  0.25000000  0.95831000  1.0
  Hf  Hf5  1  0.50000000  0.75000000  0.95831000  1.0
  Hf  Hf6  1  0.99996000  0.49849000  0.04305000  1.0
  Hf  Hf7  1  0.99997000  0.00161000  0.04304000  1.0
  Ni  Ni8  1  0.24103000  0.75005000  0.04569000  1.0
  Ni  Ni9  1  0.25000000  0.00000000  0.95831000  1.0
  Ni  Ni10  1  0.25000000  0.25000000  0.87494000  1.0
  Ni  Ni11  1  0.25000000  0.50000000  0.95831000  1.0
  Ni  Ni12  1  0.25000000  0.75000000  0.87494000  1.0
  Ni  Ni13  1  0.25677000  0.25005000  0.04473000  1.0
  Ni  Ni14  1  0.26046000  0.00000000  0.12084000  1.0
  Ni  Ni15  1  0.26053000  0.50013000  0.12082000  1.0
  Ni  Ni16  1  0.73937000  0.50014000  0.12083000  1.0
  Ni  Ni17  1  0.73947000  0.99999000  0.12083000  1.0
  Ni  Ni18  1  0.74319000  0.25005000  0.04474000  1.0
  Ni  Ni19  1  0.75000000  0.00000000  0.95831000  1.0
  Ni  Ni20  1  0.75000000  0.25000000  0.87494000  1.0
  Ni  Ni21  1  0.75000000  0.50000000  0.95831000  1.0
  Ni  Ni22  1  0.75000000  0.75000000  0.87494000  1.0
  Ni  Ni23  1  0.75887000  0.75006000  0.04569000  1.0
  Sn  Sn24  1  0.00000000  0.25000000  0.95831000  1.0
  Sn  Sn25  1  0.00000000  0.75000000  0.95831000  1.0
  Sn  Sn26  1  0.49996000  0.50244000  0.04023000  1.0
  Sn  Sn27  1  0.49997000  0.99766000  0.04024000  1.0
  Sn  Sn28  1  0.50000000  0.00000000  0.87494000  1.0
  Sn  Sn29  1  0.50000000  0.50000000  0.87494000  1.0
  Sn  Sn30  1  0.99995000  0.25008000  0.13304000  1.0
  Sn  Sn31  1  0.99997000  0.75007000  0.13522000  1.0
  C  C32  1  0.00155000  0.24809000  0.28763000  1.0
  O  O33  1  0.99978000  0.25024000  0.33018000  1.0
