# generated using pymatgen
data_Y8Sc8Ga8Pd8C
_symmetry_space_group_name_H-M   Pm
_cell_length_a   9.48206000
_cell_length_b   7.06732000
_cell_length_c   27.39200000
_cell_angle_alpha   90.00000000
_cell_angle_beta   90.00000000
_cell_angle_gamma   90.00000000
_symmetry_Int_Tables_number   6
_chemical_formula_structural   Y8Sc8Ga8Pd8C
_chemical_formula_sum   'Y8 Sc8 Ga8 Pd8 C1'
_cell_volume   1835.61331043
_cell_formula_units_Z   1
loop_
 _symmetry_equiv_pos_site_id
 _symmetry_equiv_pos_as_xyz
  1  'x, y, z'
  2  'x, -y, z'
loop_
 _atom_site_type_symbol
 _atom_site_label
 _atom_site_symmetry_multiplicity
 _atom_site_fract_x
 _atom_site_fract_y
 _atom_site_fract_z
 _atom_site_occupancy
  Y  Y0  2  0.00000000  0.25002000  0.95502000  1.0
  Y  Y1  2  0.50000000  0.25002000  0.95502000  1.0
  Y  Y2  2  0.50000000  0.25128000  0.14219000  1.0
  Y  Y3  2  0.99980000  0.27410000  0.15173000  1.0
  Sc  Sc4  2  0.25000000  0.25002000  0.86507000  1.0
  Sc  Sc5  2  0.25122000  0.25510000  0.04493000  1.0
  Sc  Sc6  2  0.74872000  0.25500000  0.04493000  1.0
  Sc  Sc7  2  0.75000000  0.25002000  0.86507000  1.0
  Ga  Ga8  1  0.00000000  0.00000000  0.86507000  1.0
  Ga  Ga9  1  0.00000000  0.50000000  0.86507000  1.0
  Ga  Ga10  1  0.49994000  0.00000000  0.05267000  1.0
  Ga  Ga11  1  0.49997000  0.50000000  0.05178000  1.0
  Ga  Ga12  1  0.50000000  0.00000000  0.86507000  1.0
  Ga  Ga13  1  0.50000000  0.50000000  0.86507000  1.0
  Ga  Ga14  1  0.99993000  0.00000000  0.04630000  1.0
  Ga  Ga15  1  0.99995000  0.50000000  0.05333000  1.0
  Pd  Pd16  1  0.25000000  0.00000000  0.95502000  1.0
  Pd  Pd17  1  0.25000000  0.50000000  0.95502000  1.0
  Pd  Pd18  1  0.25643000  0.50000000  0.12213000  1.0
  Pd  Pd19  1  0.26008000  0.00000000  0.11958000  1.0
  Pd  Pd20  1  0.74000000  0.00000000  0.11965000  1.0
  Pd  Pd21  1  0.74342000  0.50000000  0.12208000  1.0
  Pd  Pd22  1  0.75000000  0.00000000  0.95502000  1.0
  Pd  Pd23  1  0.75000000  0.50000000  0.95502000  1.0
  C  C24  1  0.00113000  0.00000000  0.11894000  1.0
