# generated using pymatgen
data_LiMgAgPb
_symmetry_space_group_name_H-M   'P 1'
_cell_length_a   4.86488051
_cell_length_b   4.86488051
_cell_length_c   25.16000000
_cell_angle_alpha   90.00000000
_cell_angle_beta   90.00000000
_cell_angle_gamma   90.00000000
_symmetry_Int_Tables_number   1
_chemical_formula_structural   LiMgAgPb
_chemical_formula_sum   'Li2 Mg2 Ag2 Pb2'
_cell_volume   595.46328999
_cell_formula_units_Z   2
loop_
 _symmetry_equiv_pos_site_id
 _symmetry_equiv_pos_as_xyz
  1  'x, y, z'
loop_
 _atom_site_type_symbol
 _atom_site_label
 _atom_site_symmetry_multiplicity
 _atom_site_fract_x
 _atom_site_fract_y
 _atom_site_fract_z
 _atom_site_occupancy
  Li  Li0  1  0.00000000  0.50000000  0.03418000  1.0
  Li  Li1  1  0.50000000  0.00000000  0.89746000  1.0
  Mg  Mg2  1  0.50000000  0.00000000  0.03418000  1.0
  Mg  Mg3  1  0.00000000  0.50000000  0.89746000  1.0
  Ag  Ag4  1  0.00000000  0.00000000  0.10254000  1.0
  Ag  Ag5  1  0.50000000  0.50000000  0.96582000  1.0
  Pb  Pb6  1  0.50000000  0.50000000  0.10254000  1.0
  Pb  Pb7  1  0.00000000  0.00000000  0.96582000  1.0
