# generated using pymatgen
data_TiRh3
_symmetry_space_group_name_H-M   Pmm2
_cell_length_a   3.86607000
_cell_length_b   5.46745000
_cell_length_c   24.10060000
_cell_angle_alpha   90.00000000
_cell_angle_beta   90.00000000
_cell_angle_gamma   90.00000000
_symmetry_Int_Tables_number   25
_chemical_formula_structural   TiRh3
_chemical_formula_sum   'Ti2 Rh6'
_cell_volume   509.42750308
_cell_formula_units_Z   2
loop_
 _symmetry_equiv_pos_site_id
 _symmetry_equiv_pos_as_xyz
  1  'x, y, z'
  2  '-x, -y, z'
  3  '-x, y, z'
  4  'x, -y, z'
loop_
 _atom_site_type_symbol
 _atom_site_label
 _atom_site_symmetry_multiplicity
 _atom_site_fract_x
 _atom_site_fract_y
 _atom_site_fract_z
 _atom_site_occupancy
  Ti  Ti0  1  0.00000000  0.00000000  0.91493000  1.0
  Ti  Ti1  1  0.00000000  0.50000000  0.02829000  1.0
  Rh  Rh2  2  0.50000000  0.25000000  0.97164000  1.0
  Rh  Rh3  2  0.50000000  0.25804000  0.08082000  1.0
  Rh  Rh4  1  0.00000000  0.00000000  0.02430000  1.0
  Rh  Rh5  1  0.00000000  0.50000000  0.91493000  1.0
