# generated using pymatgen
data_CaIn
_symmetry_space_group_name_H-M   'P 1'
_cell_length_a   11.03900000
_cell_length_b   7.80577000
_cell_length_c   28.27930000
_cell_angle_alpha   90.00000000
_cell_angle_beta   90.00000000
_cell_angle_gamma   90.00000000
_symmetry_Int_Tables_number   1
_chemical_formula_structural   CaIn
_chemical_formula_sum   'Ca16 In16'
_cell_volume   2436.76775392
_cell_formula_units_Z   16
loop_
 _symmetry_equiv_pos_site_id
 _symmetry_equiv_pos_as_xyz
  1  'x, y, z'
loop_
 _atom_site_type_symbol
 _atom_site_label
 _atom_site_symmetry_multiplicity
 _atom_site_fract_x
 _atom_site_fract_y
 _atom_site_fract_z
 _atom_site_occupancy
  Ca  Ca0  1  0.00000000  0.00000000  0.14638000  1.0
  Ca  Ca1  1  0.25000000  1.00000000  0.04879000  1.0
  Ca  Ca2  1  0.00000000  0.00008000  0.95232000  1.0
  Ca  Ca3  1  0.25000000  1.00000000  0.85123000  1.0
  Ca  Ca4  1  0.50000000  0.00000000  0.14638000  1.0
  Ca  Ca5  1  0.75000000  1.00000000  0.04879000  1.0
  Ca  Ca6  1  0.50000000  0.99996000  0.95227000  1.0
  Ca  Ca7  1  0.75000000  1.00000000  0.85123000  1.0
  Ca  Ca8  1  0.00000000  0.50000000  0.14638000  1.0
  Ca  Ca9  1  0.25000000  0.50000000  0.04879000  1.0
  Ca  Ca10  1  0.00000000  0.50013000  0.95230000  1.0
  Ca  Ca11  1  0.25001000  0.49997000  0.85121000  1.0
  Ca  Ca12  1  0.50000000  0.50000000  0.14638000  1.0
  Ca  Ca13  1  0.75000000  0.50000000  0.04879000  1.0
  Ca  Ca14  1  0.50000000  0.50000000  0.95227000  1.0
  Ca  Ca15  1  0.74999000  0.49997000  0.85121000  1.0
  In  In16  1  0.25000000  0.25000000  0.14638000  1.0
  In  In17  1  0.00000000  0.25000000  0.04879000  1.0
  In  In18  1  0.25001000  0.25004000  0.94751000  1.0
  In  In19  1  0.00000000  0.24998000  0.85449000  1.0
  In  In20  1  0.75000000  0.25000000  0.14638000  1.0
  In  In21  1  0.50000000  0.25000000  0.04879000  1.0
  In  In22  1  0.74999000  0.25004000  0.94751000  1.0
  In  In23  1  0.50000000  0.25001000  0.85453000  1.0
  In  In24  1  0.25000000  0.75000000  0.14638000  1.0
  In  In25  1  0.00000000  0.75000000  0.04879000  1.0
  In  In26  1  0.25001000  0.74995000  0.94751000  1.0
  In  In27  1  0.00000000  0.75001000  0.85448000  1.0
  In  In28  1  0.75000000  0.75000000  0.14638000  1.0
  In  In29  1  0.50000000  0.75000000  0.04879000  1.0
  In  In30  1  0.74999000  0.74995000  0.94751000  1.0
  In  In31  1  0.50000000  0.74998000  0.85454000  1.0
