# generated using pymatgen
data_CaIn
_symmetry_space_group_name_H-M   Pm
_cell_length_a   7.80577000
_cell_length_b   11.03900000
_cell_length_c   28.27930000
_cell_angle_alpha   90.00000000
_cell_angle_beta   90.00000000
_cell_angle_gamma   90.00000000
_symmetry_Int_Tables_number   6
_chemical_formula_structural   CaIn
_chemical_formula_sum   'Ca16 In16'
_cell_volume   2436.76775392
_cell_formula_units_Z   16
loop_
 _symmetry_equiv_pos_site_id
 _symmetry_equiv_pos_as_xyz
  1  'x, y, z'
  2  'x, -y, z'
  3  'x+1/2, y, z'
  4  'x+1/2, -y, z'
loop_
 _atom_site_type_symbol
 _atom_site_label
 _atom_site_symmetry_multiplicity
 _atom_site_fract_x
 _atom_site_fract_y
 _atom_site_fract_z
 _atom_site_occupancy
  Ca  Ca0  4  -0.00000000  0.25000000  0.14877000  1.0
  Ca  Ca1  4  -0.00000000  0.25000000  0.95121000  1.0
  Ca  Ca2  2  0.00000000  0.00000000  0.85362000  1.0
  Ca  Ca3  2  0.00000000  0.50000000  0.85362000  1.0
  Ca  Ca4  2  0.00008000  0.00000000  0.04768000  1.0
  Ca  Ca5  2  0.50000000  0.50000000  0.04773000  1.0
  In  In6  4  0.25000000  0.25000000  0.85362000  1.0
  In  In7  4  0.25004000  0.25001000  0.05249000  1.0
  In  In8  2  0.24998000  0.00000000  0.14551000  1.0
  In  In9  2  0.25000000  0.00000000  0.95121000  1.0
  In  In10  2  0.25000000  0.50000000  0.95121000  1.0
  In  In11  2  0.25001000  0.50000000  0.14547000  1.0
