data_image0
_chemical_formula_structural       Li8Al8Cu8Ag8C
_chemical_formula_sum              "Li8 Al8 Cu8 Ag8 C1"
_cell_length_a       6.15237
_cell_length_b       8.70076
_cell_length_c       26.5256
_cell_angle_alpha    90
_cell_angle_beta     90
_cell_angle_gamma    90

_space_group_name_H-M_alt    "P 1"
_space_group_IT_number       1

loop_
  _space_group_symop_operation_xyz
  'x, y, z'

loop_
  _atom_site_type_symbol
  _atom_site_label
  _atom_site_symmetry_multiplicity
  _atom_site_fract_x
  _atom_site_fract_y
  _atom_site_fract_z
  _atom_site_occupancy
  Li  Li1       1.0  0.75000  0.00000  0.95900  1.0000
  Li  Li2       1.0  0.75000  0.50000  0.95900  1.0000
  Li  Li3       1.0  0.25000  0.25000  0.87699  1.0000
  Li  Li4       1.0  0.25000  0.75000  0.87699  1.0000
  Li  Li5       1.0  0.76776  0.50000  0.13133  1.0000
  Li  Li6       1.0  0.70441  0.00001  0.16116  1.0000
  Li  Li7       1.0  0.24940  0.75048  0.03979  1.0000
  Li  Li8       1.0  0.24941  0.24952  0.03978  1.0000
  Al  Al1       1.0  0.25000  0.00000  0.95900  1.0000
  Al  Al2       1.0  0.25000  0.50000  0.95900  1.0000
  Al  Al3       1.0  0.75000  0.25000  0.87699  1.0000
  Al  Al4       1.0  0.75000  0.75000  0.87699  1.0000
  Al  Al5       1.0  0.21499  0.50001  0.12880  1.0000
  Al  Al6       1.0  0.30284  0.00001  0.12232  1.0000
  Al  Al7       1.0  0.74580  0.74636  0.04172  1.0000
  Al  Al8       1.0  0.74580  0.25364  0.04172  1.0000
  Cu  Cu1       1.0  0.00000  0.25000  0.95900  1.0000
  Cu  Cu2       1.0  0.00000  0.75000  0.95900  1.0000
  Cu  Cu3       1.0  0.50000  0.50000  0.87699  1.0000
  Cu  Cu4       1.0  0.50000  0.00000  0.87699  1.0000
  Cu  Cu5       1.0  0.00058  0.77504  0.12049  1.0000
  Cu  Cu6       1.0  0.00061  0.22498  0.12048  1.0000
  Cu  Cu7       1.0  0.50827  0.00001  0.03861  1.0000
  Cu  Cu8       1.0  0.49405  0.50000  0.04417  1.0000
  Ag  Ag1       1.0  0.00000  0.00000  0.87699  1.0000
  Ag  Ag2       1.0  0.00000  0.50000  0.87699  1.0000
  Ag  Ag3       1.0  0.50000  0.75000  0.95900  1.0000
  Ag  Ag4       1.0  0.50000  0.25000  0.95900  1.0000
  Ag  Ag5       1.0  0.99988  0.50000  0.04306  1.0000
  Ag  Ag6       1.0  0.99412  0.00000  0.04023  1.0000
  Ag  Ag7       1.0  0.48878  0.26792  0.12410  1.0000
  Ag  Ag8       1.0  0.48879  0.73210  0.12410  1.0000
  C   C1        1.0  0.99609  0.00001  0.13114  1.0000
