# generated using pymatgen
data_Li8Al8Cu8Ag8C
_symmetry_space_group_name_H-M   Pm
_cell_length_a   6.15237000
_cell_length_b   8.70076000
_cell_length_c   26.52560000
_cell_angle_alpha   90.00000000
_cell_angle_beta   90.00000000
_cell_angle_gamma   90.00000000
_symmetry_Int_Tables_number   6
_chemical_formula_structural   Li8Al8Cu8Ag8C
_chemical_formula_sum   'Li8 Al8 Cu8 Ag8 C1'
_cell_volume   1419.92318778
_cell_formula_units_Z   1
loop_
 _symmetry_equiv_pos_site_id
 _symmetry_equiv_pos_as_xyz
  1  'x, y, z'
  2  'x, -y, z'
loop_
 _atom_site_type_symbol
 _atom_site_label
 _atom_site_symmetry_multiplicity
 _atom_site_fract_x
 _atom_site_fract_y
 _atom_site_fract_z
 _atom_site_occupancy
  Li  Li0  2  0.24940000  0.24953000  0.03979000  1.0
  Li  Li1  2  0.25000000  0.24999000  0.87699000  1.0
  Li  Li2  1  0.70441000  0.00000000  0.16116000  1.0
  Li  Li3  1  0.75000000  0.00000000  0.95900000  1.0
  Li  Li4  1  0.75000000  0.50000000  0.95900000  1.0
  Li  Li5  1  0.76776000  0.50000000  0.13133000  1.0
  Al  Al6  2  0.74580000  0.25365000  0.04172000  1.0
  Al  Al7  2  0.75000000  0.24999000  0.87699000  1.0
  Al  Al8  1  0.21499000  0.50000000  0.12880000  1.0
  Al  Al9  1  0.25000000  0.00000000  0.95900000  1.0
  Al  Al10  1  0.25000000  0.50000000  0.95900000  1.0
  Al  Al11  1  0.30284000  0.00000000  0.12232000  1.0
  Cu  Cu12  2  -0.00000000  0.24999000  0.95900000  1.0
  Cu  Cu13  2  0.00058000  0.22497000  0.12049000  1.0
  Cu  Cu14  1  0.49405000  0.50000000  0.04417000  1.0
  Cu  Cu15  1  0.50000000  0.00000000  0.87699000  1.0
  Cu  Cu16  1  0.50000000  0.50000000  0.87699000  1.0
  Cu  Cu17  1  0.50827000  0.00000000  0.03861000  1.0
  Ag  Ag18  2  0.48878000  0.26791000  0.12410000  1.0
  Ag  Ag19  2  0.50000000  0.25001000  0.95900000  1.0
  Ag  Ag20  1  -0.00000000  0.50000000  0.87699000  1.0
  Ag  Ag21  1  0.00000000  0.00000000  0.87699000  1.0
  Ag  Ag22  1  0.99412000  0.00000000  0.04023000  1.0
  Ag  Ag23  1  0.99988000  0.50000000  0.04306000  1.0
  C  C24  1  0.99609000  0.00000000  0.13114000  1.0
