# generated using pymatgen
data_Li16Ag16C
_symmetry_space_group_name_H-M   'P 1'
_cell_length_a   6.44966000
_cell_length_b   9.12120000
_cell_length_c   26.84090000
_cell_angle_alpha   90.00000000
_cell_angle_beta   90.00000000
_cell_angle_gamma   90.00000000
_symmetry_Int_Tables_number   1
_chemical_formula_structural   Li16Ag16C
_chemical_formula_sum   'Li16 Ag16 C1'
_cell_volume   1579.01361095
_cell_formula_units_Z   1
loop_
 _symmetry_equiv_pos_site_id
 _symmetry_equiv_pos_as_xyz
  1  'x, y, z'
loop_
 _atom_site_type_symbol
 _atom_site_label
 _atom_site_symmetry_multiplicity
 _atom_site_fract_x
 _atom_site_fract_y
 _atom_site_fract_z
 _atom_site_occupancy
  Li  Li0  1  0.25000000  0.25000000  0.87257000  1.0
  Li  Li1  1  0.25000000  0.00000000  0.95752000  1.0
  Li  Li2  1  0.24778000  0.24714000  0.04222000  1.0
  Li  Li3  1  0.28878000  0.00000000  0.14062000  1.0
  Li  Li4  1  0.25000000  0.75000000  0.87257000  1.0
  Li  Li5  1  0.25000000  0.50000000  0.95752000  1.0
  Li  Li6  1  0.24778000  0.75286000  0.04222000  1.0
  Li  Li7  1  0.24191000  0.50000000  0.13210000  1.0
  Li  Li8  1  0.75000000  0.25000000  0.87257000  1.0
  Li  Li9  1  0.75000000  0.00000000  0.95752000  1.0
  Li  Li10  1  0.75222000  0.24714000  0.04222000  1.0
  Li  Li11  1  0.71122000  0.00000000  0.14062000  1.0
  Li  Li12  1  0.75000000  0.75000000  0.87257000  1.0
  Li  Li13  1  0.75000000  0.50000000  0.95752000  1.0
  Li  Li14  1  0.75222000  0.75286000  0.04222000  1.0
  Li  Li15  1  0.75809000  0.50000000  0.13210000  1.0
  Ag  Ag16  1  0.00000000  0.00000000  0.87257000  1.0
  Ag  Ag17  1  0.00000000  0.25000000  0.95752000  1.0
  Ag  Ag18  1  0.00000000  0.00000000  0.03735000  1.0
  Ag  Ag19  1  0.00000000  0.24092000  0.12360000  1.0
  Ag  Ag20  1  0.00000000  0.50000000  0.87257000  1.0
  Ag  Ag21  1  0.00000000  0.75000000  0.95752000  1.0
  Ag  Ag22  1  0.00000000  0.50000000  0.04665000  1.0
  Ag  Ag23  1  0.00000000  0.75908000  0.12360000  1.0
  Ag  Ag24  1  0.50000000  0.00000000  0.87257000  1.0
  Ag  Ag25  1  0.50000000  0.25000000  0.95752000  1.0
  Ag  Ag26  1  0.50000000  0.00000000  0.04333000  1.0
  Ag  Ag27  1  0.50000000  0.25807000  0.12220000  1.0
  Ag  Ag28  1  0.50000000  0.50000000  0.87257000  1.0
  Ag  Ag29  1  0.50000000  0.75000000  0.95752000  1.0
  Ag  Ag30  1  0.50000000  0.50000000  0.04305000  1.0
  Ag  Ag31  1  0.50000000  0.74193000  0.12220000  1.0
  C  C32  1  0.00000000  0.00000000  0.11740000  1.0
