# generated using pymatgen
data_LiAlInPd
_symmetry_space_group_name_H-M   'P 1'
_cell_length_a   6.39489000
_cell_length_b   4.52187000
_cell_length_c   26.78280000
_cell_angle_alpha   90.00000000
_cell_angle_beta   90.00000000
_cell_angle_gamma   90.00000000
_symmetry_Int_Tables_number   1
_chemical_formula_structural   LiAlInPd
_chemical_formula_sum   'Li4 Al4 In4 Pd4'
_cell_volume   774.47451133
_cell_formula_units_Z   4
loop_
 _symmetry_equiv_pos_site_id
 _symmetry_equiv_pos_as_xyz
  1  'x, y, z'
loop_
 _atom_site_type_symbol
 _atom_site_label
 _atom_site_symmetry_multiplicity
 _atom_site_fract_x
 _atom_site_fract_y
 _atom_site_fract_z
 _atom_site_occupancy
  Li  Li0  1  0.25000000  0.00000000  0.95779000  1.0
  Li  Li1  1  0.75000000  0.50000000  0.87337000  1.0
  Li  Li2  1  0.29823000  0.00000000  0.15648000  1.0
  Li  Li3  1  0.78665500  0.50000000  0.04511000  1.0
  Al  Al4  1  0.00000000  0.00000000  0.87337000  1.0
  Al  Al5  1  0.50000000  0.50000000  0.95779000  1.0
  Al  Al6  1  0.03057500  0.00000000  0.05256500  1.0
  Al  Al7  1  0.52714500  0.50000000  0.12518000  1.0
  In  In8  1  0.00000000  0.50000000  0.95779000  1.0
  In  In9  1  0.50000000  0.00000000  0.87337000  1.0
  In  In10  1  0.03059500  0.50000000  0.14190000  1.0
  In  In11  1  0.50173500  0.00000000  0.04516000  1.0
  Pd  Pd12  1  0.75000000  0.00000000  0.95779000  1.0
  Pd  Pd13  1  0.25000000  0.50000000  0.87337000  1.0
  Pd  Pd14  1  0.76384500  0.00000000  0.12450000  1.0
  Pd  Pd15  1  0.25157500  0.50000000  0.03975000  1.0
