# generated using pymatgen
data_ZrIr
_symmetry_space_group_name_H-M   'P 1'
_cell_length_a   3.32512000
_cell_length_b   3.32512000
_cell_length_c   24.98770000
_cell_angle_alpha   90.00000000
_cell_angle_beta   90.00000000
_cell_angle_gamma   90.00000000
_symmetry_Int_Tables_number   1
_chemical_formula_structural   ZrIr
_chemical_formula_sum   'Zr2 Ir2'
_cell_volume   276.27458136
_cell_formula_units_Z   2
loop_
 _symmetry_equiv_pos_site_id
 _symmetry_equiv_pos_as_xyz
  1  'x, y, z'
loop_
 _atom_site_type_symbol
 _atom_site_label
 _atom_site_symmetry_multiplicity
 _atom_site_fract_x
 _atom_site_fract_y
 _atom_site_fract_z
 _atom_site_occupancy
  Zr  Zr0  1  0.00000000  0.00000000  0.08795000  1.0
  Zr  Zr1  1  0.00000000  0.00000000  0.95488000  1.0
  Ir  Ir2  1  0.50000000  0.50000000  0.02141000  1.0
  Ir  Ir3  1  0.50000000  0.50000000  0.88834000  1.0
