# generated using pymatgen
data_Y8In8Cu8Sn8CO
_symmetry_space_group_name_H-M   'P 1'
_cell_length_a   8.82850000
_cell_length_b   8.84740000
_cell_length_c   26.85960000
_cell_angle_alpha   90.00000000
_cell_angle_beta   90.00000000
_cell_angle_gamma   90.00000000
_symmetry_Int_Tables_number   1
_chemical_formula_structural   Y8In8Cu8Sn8CO
_chemical_formula_sum   'Y8 In8 Cu8 Sn8 C1 O1'
_cell_volume   2097.98377267
_cell_formula_units_Z   1
loop_
 _symmetry_equiv_pos_site_id
 _symmetry_equiv_pos_as_xyz
  1  'x, y, z'
loop_
 _atom_site_type_symbol
 _atom_site_label
 _atom_site_symmetry_multiplicity
 _atom_site_fract_x
 _atom_site_fract_y
 _atom_site_fract_z
 _atom_site_occupancy
  Y  Y0  1  0.00000000  0.00000000  0.95744000  1.0
  Y  Y1  1  0.00000000  0.00000000  0.12945000  1.0
  Y  Y2  1  0.00000000  0.50000000  0.95744000  1.0
  Y  Y3  1  0.00000000  0.50000000  0.12974000  1.0
  Y  Y4  1  0.50000000  0.00000000  0.95744000  1.0
  Y  Y5  1  0.50000000  0.00000000  0.12971000  1.0
  Y  Y6  1  0.50000000  0.50000000  0.95744000  1.0
  Y  Y7  1  0.50000000  0.50000000  0.12965000  1.0
  In  In8  1  0.00000000  0.25000000  0.87231000  1.0
  In  In9  1  0.00000000  0.25064000  0.04506000  1.0
  In  In10  1  0.00000000  0.75000000  0.87231000  1.0
  In  In11  1  0.00000000  0.74936000  0.04506000  1.0
  In  In12  1  0.50000000  0.25000000  0.87231000  1.0
  In  In13  1  0.50000000  0.25007000  0.04512000  1.0
  In  In14  1  0.50000000  0.75000000  0.87231000  1.0
  In  In15  1  0.50000000  0.74993000  0.04512000  1.0
  Cu  Cu16  1  0.75000000  0.00000000  0.87231000  1.0
  Cu  Cu17  1  0.74774000  0.00000000  0.04589000  1.0
  Cu  Cu18  1  0.75000000  0.50000000  0.87231000  1.0
  Cu  Cu19  1  0.74959000  0.50000000  0.04771000  1.0
  Cu  Cu20  1  0.25000000  0.00000000  0.87231000  1.0
  Cu  Cu21  1  0.25226000  0.00000000  0.04589000  1.0
  Cu  Cu22  1  0.25000000  0.50000000  0.87231000  1.0
  Cu  Cu23  1  0.25041000  0.50000000  0.04771000  1.0
  Sn  Sn24  1  0.75000000  0.25000000  0.95744000  1.0
  Sn  Sn25  1  0.74966000  0.24995000  0.13053000  1.0
  Sn  Sn26  1  0.75000000  0.75000000  0.95744000  1.0
  Sn  Sn27  1  0.74966000  0.75005000  0.13053000  1.0
  Sn  Sn28  1  0.25000000  0.25000000  0.95744000  1.0
  Sn  Sn29  1  0.25034000  0.24995000  0.13053000  1.0
  Sn  Sn30  1  0.25000000  0.75000000  0.95744000  1.0
  Sn  Sn31  1  0.25034000  0.75005000  0.13053000  1.0
  C  C32  1  0.00000000  0.00000000  0.22225000  1.0
  O  O33  1  0.00000000  0.00000000  0.26501000  1.0
