# generated using pymatgen
data_Y8In8Cu8Sn8CO
_symmetry_space_group_name_H-M   Pmm2
_cell_length_a   8.82850000
_cell_length_b   8.84740000
_cell_length_c   26.85960000
_cell_angle_alpha   90.00000000
_cell_angle_beta   90.00000000
_cell_angle_gamma   90.00000000
_symmetry_Int_Tables_number   25
_chemical_formula_structural   Y8In8Cu8Sn8CO
_chemical_formula_sum   'Y8 In8 Cu8 Sn8 C1 O1'
_cell_volume   2097.98377267
_cell_formula_units_Z   1
loop_
 _symmetry_equiv_pos_site_id
 _symmetry_equiv_pos_as_xyz
  1  'x, y, z'
  2  '-x, -y, z'
  3  '-x, y, z'
  4  'x, -y, z'
loop_
 _atom_site_type_symbol
 _atom_site_label
 _atom_site_symmetry_multiplicity
 _atom_site_fract_x
 _atom_site_fract_y
 _atom_site_fract_z
 _atom_site_occupancy
  Y  Y0  1  0.00000000  0.00000000  0.12945000  1.0
  Y  Y1  1  0.00000000  0.00000000  0.95744000  1.0
  Y  Y2  1  0.00000000  0.50000000  0.12974000  1.0
  Y  Y3  1  0.00000000  0.50000000  0.95744000  1.0
  Y  Y4  1  0.50000000  0.00000000  0.12971000  1.0
  Y  Y5  1  0.50000000  0.00000000  0.95744000  1.0
  Y  Y6  1  0.50000000  0.50000000  0.12965000  1.0
  Y  Y7  1  0.50000000  0.50000000  0.95744000  1.0
  In  In8  2  0.00000000  0.25000000  0.87231000  1.0
  In  In9  2  0.00000000  0.25064000  0.04506000  1.0
  In  In10  2  0.50000000  0.25000000  0.87231000  1.0
  In  In11  2  0.50000000  0.25007000  0.04512000  1.0
  Cu  Cu12  2  0.25000000  0.00000000  0.87231000  1.0
  Cu  Cu13  2  0.25000000  0.50000000  0.87231000  1.0
  Cu  Cu14  2  0.25041000  0.50000000  0.04771000  1.0
  Cu  Cu15  2  0.25226000  0.00000000  0.04589000  1.0
  Sn  Sn16  4  0.25000000  0.25000000  0.95744000  1.0
  Sn  Sn17  4  0.25034000  0.24995000  0.13053000  1.0
  C  C18  1  0.00000000  0.00000000  0.22225000  1.0
  O  O19  1  0.00000000  0.00000000  0.26501000  1.0
