# generated using pymatgen
data_Li8Mg8Al8Ag8CO
_symmetry_space_group_name_H-M   Pm
_cell_length_a   6.43596000
_cell_length_b   9.10182000
_cell_length_c   26.82640000
_cell_angle_alpha   90.00000000
_cell_angle_beta   90.00000000
_cell_angle_gamma   90.00000000
_symmetry_Int_Tables_number   6
_chemical_formula_structural   Li8Mg8Al8Ag8CO
_chemical_formula_sum   'Li8 Mg8 Al8 Ag8 C1 O1'
_cell_volume   1571.46232945
_cell_formula_units_Z   1
loop_
 _symmetry_equiv_pos_site_id
 _symmetry_equiv_pos_as_xyz
  1  'x, y, z'
  2  'x, -y, z'
loop_
 _atom_site_type_symbol
 _atom_site_label
 _atom_site_symmetry_multiplicity
 _atom_site_fract_x
 _atom_site_fract_y
 _atom_site_fract_z
 _atom_site_occupancy
  Li  Li0  2  -0.00000000  0.25000000  0.95759000  1.0
  Li  Li1  2  0.04288000  0.24803000  0.15366000  1.0
  Li  Li2  1  0.50000000  0.00000000  0.87277000  1.0
  Li  Li3  1  0.50000000  0.50000000  0.87277000  1.0
  Li  Li4  1  0.50752000  0.00000000  0.04300000  1.0
  Li  Li5  1  0.50809000  0.50000000  0.04525000  1.0
  Mg  Mg6  2  0.24403000  0.25005000  0.04537000  1.0
  Mg  Mg7  2  0.25000000  0.25000000  0.87277000  1.0
  Mg  Mg8  1  0.75000000  0.00000000  0.95759000  1.0
  Mg  Mg9  1  0.75000000  0.50000000  0.95759000  1.0
  Mg  Mg10  1  0.75344000  0.00000000  0.13032000  1.0
  Mg  Mg11  1  0.76919000  0.50000000  0.13238000  1.0
  Al  Al12  2  0.75000000  0.25000000  0.87277000  1.0
  Al  Al13  2  0.76012000  0.25095000  0.04938000  1.0
  Al  Al14  1  0.24822000  0.50000000  0.12910000  1.0
  Al  Al15  1  0.25000000  0.00000000  0.95759000  1.0
  Al  Al16  1  0.25000000  0.50000000  0.95759000  1.0
  Al  Al17  1  0.26178000  0.00000000  0.12777000  1.0
  Ag  Ag18  2  0.49059000  0.25436000  0.12782000  1.0
  Ag  Ag19  2  0.50000000  0.25000000  0.95759000  1.0
  Ag  Ag20  1  -0.00000000  0.50000000  0.87277000  1.0
  Ag  Ag21  1  0.00000000  0.00000000  0.87277000  1.0
  Ag  Ag22  1  0.99915000  0.00000000  0.04270000  1.0
  Ag  Ag23  1  0.99935000  0.50000000  0.04006000  1.0
  C  C24  1  0.78078000  0.00000000  0.21226000  1.0
  O  O25  1  0.79246000  0.00000000  0.25508000  1.0
