# generated using pymatgen
data_Li16Ga8Ir8CO
_symmetry_space_group_name_H-M   'P 1'
_cell_length_a   5.92875000
_cell_length_b   8.38451000
_cell_length_c   26.28840000
_cell_angle_alpha   90.00000000
_cell_angle_beta   90.00000000
_cell_angle_gamma   90.00000000
_symmetry_Int_Tables_number   1
_chemical_formula_structural   Li16Ga8Ir8CO
_chemical_formula_sum   'Li16 Ga8 Ir8 C1 O1'
_cell_volume   1306.78752223
_cell_formula_units_Z   1
loop_
 _symmetry_equiv_pos_site_id
 _symmetry_equiv_pos_as_xyz
  1  'x, y, z'
loop_
 _atom_site_type_symbol
 _atom_site_label
 _atom_site_symmetry_multiplicity
 _atom_site_fract_x
 _atom_site_fract_y
 _atom_site_fract_z
 _atom_site_occupancy
  Li  Li0  1  0.25000000  0.00000000  0.96013000  1.0
  Li  Li1  1  0.75000000  0.50000000  0.96013000  1.0
  Li  Li2  1  0.75000000  0.00000000  0.96013000  1.0
  Li  Li3  1  0.25000000  0.50000000  0.96013000  1.0
  Li  Li4  1  0.75000000  0.75000000  0.88040000  1.0
  Li  Li5  1  0.25000000  0.25000000  0.88040000  1.0
  Li  Li6  1  0.25000000  0.75000000  0.88040000  1.0
  Li  Li7  1  0.75000000  0.25000000  0.88040000  1.0
  Li  Li8  1  0.23834000  0.50124000  0.14511000  1.0
  Li  Li9  1  0.76164000  0.99879000  0.14512000  1.0
  Li  Li10  1  0.76166000  0.50122000  0.14512000  1.0
  Li  Li11  1  0.23835000  0.99877000  0.14512000  1.0
  Li  Li12  1  0.75102000  0.24998000  0.03634000  1.0
  Li  Li13  1  0.24857000  0.74998000  0.03601000  1.0
  Li  Li14  1  0.24897000  0.25002000  0.03634000  1.0
  Li  Li15  1  0.75143000  0.75001000  0.03601000  1.0
  Ga  Ga16  1  0.00000000  0.00000000  0.88040000  1.0
  Ga  Ga17  1  0.50000000  0.25000000  0.96013000  1.0
  Ga  Ga18  1  0.50000000  0.75000000  0.96013000  1.0
  Ga  Ga19  1  0.00000000  0.50000000  0.88040000  1.0
  Ga  Ga20  1  0.99993000  0.50027000  0.05492000  1.0
  Ga  Ga21  1  0.50002000  0.75001000  0.11249000  1.0
  Ga  Ga22  1  0.49995000  0.25000000  0.11329000  1.0
  Ga  Ga23  1  0.00005000  0.99974000  0.05492000  1.0
  Ir  Ir24  1  0.00000000  0.75000000  0.96013000  1.0
  Ir  Ir25  1  0.50000000  0.00000000  0.88040000  1.0
  Ir  Ir26  1  0.00000000  0.25000000  0.96013000  1.0
  Ir  Ir27  1  0.50000000  0.50000000  0.88040000  1.0
  Ir  Ir28  1  0.00003000  0.25000000  0.11384000  1.0
  Ir  Ir29  1  0.50005000  0.50037000  0.05711000  1.0
  Ir  Ir30  1  0.99998000  0.75000000  0.11491000  1.0
  Ir  Ir31  1  0.49997000  0.99965000  0.05711000  1.0
  C  C32  1  0.50006000  0.24978000  0.19295000  1.0
  O  O33  1  0.50002000  0.25009000  0.23738000  1.0
