# generated using pymatgen
data_Al8Cu24CO
_symmetry_space_group_name_H-M   'P 1'
_cell_length_a   5.88044000
_cell_length_b   8.31620000
_cell_length_c   26.23710000
_cell_angle_alpha   90.00000000
_cell_angle_beta   90.00000000
_cell_angle_gamma   90.00000000
_symmetry_Int_Tables_number   1
_chemical_formula_structural   Al8Cu24CO
_chemical_formula_sum   'Al8 Cu24 C1 O1'
_cell_volume   1283.07067450
_cell_formula_units_Z   1
loop_
 _symmetry_equiv_pos_site_id
 _symmetry_equiv_pos_as_xyz
  1  'x, y, z'
loop_
 _atom_site_type_symbol
 _atom_site_label
 _atom_site_symmetry_multiplicity
 _atom_site_fract_x
 _atom_site_fract_y
 _atom_site_fract_z
 _atom_site_occupancy
  Al  Al0  1  0.00000000  0.75000000  0.88114000  1.0
  Al  Al1  1  0.50000000  0.00000000  0.96038000  1.0
  Al  Al2  1  0.50000000  0.50000000  0.96038000  1.0
  Al  Al3  1  0.00000000  0.25000000  0.88114000  1.0
  Al  Al4  1  0.00000000  0.25419000  0.03974000  1.0
  Al  Al5  1  0.50000000  0.50000000  0.12407000  1.0
  Al  Al6  1  0.50000000  0.00000000  0.12215000  1.0
  Al  Al7  1  0.00000000  0.74581000  0.03974000  1.0
  Cu  Cu8  1  0.25000000  0.75000000  0.96038000  1.0
  Cu  Cu9  1  0.75000000  0.25000000  0.96038000  1.0
  Cu  Cu10  1  0.75000000  0.75000000  0.96038000  1.0
  Cu  Cu11  1  0.25000000  0.25000000  0.96038000  1.0
  Cu  Cu12  1  0.75000000  0.50000000  0.88114000  1.0
  Cu  Cu13  1  0.25000000  0.00000000  0.88114000  1.0
  Cu  Cu14  1  0.25000000  0.50000000  0.88114000  1.0
  Cu  Cu15  1  0.75000000  0.00000000  0.88114000  1.0
  Cu  Cu16  1  0.00000000  0.50000000  0.96038000  1.0
  Cu  Cu17  1  0.50000000  0.75000000  0.88114000  1.0
  Cu  Cu18  1  0.00000000  0.00000000  0.96038000  1.0
  Cu  Cu19  1  0.50000000  0.25000000  0.88114000  1.0
  Cu  Cu20  1  0.25426000  0.25298000  0.11708000  1.0
  Cu  Cu21  1  0.74574000  0.74702000  0.11708000  1.0
  Cu  Cu22  1  0.74574000  0.25298000  0.11708000  1.0
  Cu  Cu23  1  0.25426000  0.74702000  0.11708000  1.0
  Cu  Cu24  1  0.74993000  0.00000000  0.04018000  1.0
  Cu  Cu25  1  0.26072000  0.50000000  0.03969000  1.0
  Cu  Cu26  1  0.25007000  0.00000000  0.04018000  1.0
  Cu  Cu27  1  0.73928000  0.50000000  0.03969000  1.0
  Cu  Cu28  1  0.00000000  0.00000000  0.11706000  1.0
  Cu  Cu29  1  0.50000000  0.24735000  0.03742000  1.0
  Cu  Cu30  1  0.00000000  0.50000000  0.11626000  1.0
  Cu  Cu31  1  0.50000000  0.75265000  0.03742000  1.0
  C  C32  1  0.50000000  0.00000000  0.19902000  1.0
  O  O33  1  0.50000000  0.00000000  0.24279000  1.0
