# generated using pymatgen
data_LiInGeAu
_symmetry_space_group_name_H-M   Pm
_cell_length_a   5.96101000
_cell_length_b   8.57796000
_cell_length_c   24.47060000
_cell_angle_alpha   90.00000000
_cell_angle_beta   90.00000000
_cell_angle_gamma   90.00000000
_symmetry_Int_Tables_number   6
_chemical_formula_structural   LiInGeAu
_chemical_formula_sum   'Li4 In4 Ge4 Au4'
_cell_volume   1251.26266164
_cell_formula_units_Z   4
loop_
 _symmetry_equiv_pos_site_id
 _symmetry_equiv_pos_as_xyz
  1  'x, y, z'
  2  'x, -y, z'
  3  'x, y+1/2, z'
  4  'x, -y+1/2, z'
loop_
 _atom_site_type_symbol
 _atom_site_label
 _atom_site_symmetry_multiplicity
 _atom_site_fract_x
 _atom_site_fract_y
 _atom_site_fract_z
 _atom_site_occupancy
  Li  Li0  2  0.01162000  0.25000000  0.02542000  1.0
  Li  Li1  2  0.50000000  0.25000000  0.90865000  1.0
  In  In2  2  0.24790000  0.00000000  0.96955000  1.0
  In  In3  2  0.80744000  0.00000000  0.09881000  1.0
  Ge  Ge4  2  0.32077000  0.00000000  0.08445000  1.0
  Ge  Ge5  2  0.74790000  0.00000000  0.96955000  1.0
  Au  Au6  2  0.00000000  0.25000000  0.90865000  1.0
  Au  Au7  2  0.53553000  0.24996000  0.03549000  1.0
