# generated using pymatgen
data_Y8In8Pd8Au8C
_symmetry_space_group_name_H-M   'P 1'
_cell_length_a   9.80272000
_cell_length_b   6.93157000
_cell_length_c   27.35200000
_cell_angle_alpha   90.00000000
_cell_angle_beta   90.00000000
_cell_angle_gamma   90.00000000
_symmetry_Int_Tables_number   1
_chemical_formula_structural   Y8In8Pd8Au8C
_chemical_formula_sum   'Y8 In8 Pd8 Au8 C1'
_cell_volume   1858.52025694
_cell_formula_units_Z   1
loop_
 _symmetry_equiv_pos_site_id
 _symmetry_equiv_pos_as_xyz
  1  'x, y, z'
loop_
 _atom_site_type_symbol
 _atom_site_label
 _atom_site_symmetry_multiplicity
 _atom_site_fract_x
 _atom_site_fract_y
 _atom_site_fract_z
 _atom_site_occupancy
  Y  Y0  1  0.00000000  0.75000000  0.04480000  1.0
  Y  Y1  1  0.50000000  0.75000000  0.04480000  1.0
  Y  Y2  1  0.24995000  0.25000000  0.13440000  1.0
  Y  Y3  1  0.75005000  0.25000000  0.13440000  1.0
  Y  Y4  1  0.50000000  0.69289000  0.87109000  1.0
  Y  Y5  1  0.00000000  0.64853000  0.86786000  1.0
  Y  Y6  1  0.75067000  0.25830000  0.94943000  1.0
  Y  Y7  1  0.24933000  0.25830000  0.94943000  1.0
  In  In8  1  0.00000000  0.25000000  0.04480000  1.0
  In  In9  1  0.50000000  0.25000000  0.04480000  1.0
  In  In10  1  0.24995000  0.75000000  0.13440000  1.0
  In  In11  1  0.75005000  0.75000000  0.13440000  1.0
  In  In12  1  0.50000000  0.17027000  0.85681000  1.0
  In  In13  1  0.00000000  0.23456000  0.81531000  1.0
  In  In14  1  0.75065000  0.74644000  0.95490000  1.0
  In  In15  1  0.24935000  0.74644000  0.95490000  1.0
  Pd  Pd16  1  0.24995000  0.00000000  0.04480000  1.0
  Pd  Pd17  1  0.75005000  0.00000000  0.04480000  1.0
  Pd  Pd18  1  0.50000000  0.50000000  0.13440000  1.0
  Pd  Pd19  1  0.00000000  0.50000000  0.13440000  1.0
  Pd  Pd20  1  0.77641000  0.98999000  0.87131000  1.0
  Pd  Pd21  1  0.22359000  0.98999000  0.87131000  1.0
  Pd  Pd22  1  0.00000000  0.49741000  0.96348000  1.0
  Pd  Pd23  1  0.50000000  0.49176000  0.95940000  1.0
  Au  Au24  1  0.00000000  0.00000000  0.13440000  1.0
  Au  Au25  1  0.50000000  0.00000000  0.13440000  1.0
  Au  Au26  1  0.74995000  0.50000000  0.04480000  1.0
  Au  Au27  1  0.25005000  0.50000000  0.04480000  1.0
  Au  Au28  1  0.50000000  0.99938000  0.95357000  1.0
  Au  Au29  1  0.00000000  0.00636000  0.94859000  1.0
  Au  Au30  1  0.26127000  0.42091000  0.84696000  1.0
  Au  Au31  1  0.73873000  0.42091000  0.84696000  1.0
  C  C32  1  0.00000000  0.97056000  0.86125000  1.0
