data_image0
_chemical_formula_structural       Mg8In8Cu8Pd8CO
_chemical_formula_sum              "Mg8 In8 Cu8 Pd8 C1 O1"
_cell_length_a       6.45956
_cell_length_b       9.1352
_cell_length_c       26.8514
_cell_angle_alpha    90
_cell_angle_beta     90
_cell_angle_gamma    90

_space_group_name_H-M_alt    "P 1"
_space_group_IT_number       1

loop_
  _space_group_symop_operation_xyz
  'x, y, z'

loop_
  _atom_site_type_symbol
  _atom_site_label
  _atom_site_symmetry_multiplicity
  _atom_site_fract_x
  _atom_site_fract_y
  _atom_site_fract_z
  _atom_site_occupancy
  Mg  Mg1       1.0  0.25000  0.00000  0.95747  1.0000
  Mg  Mg2       1.0  0.25000  0.50000  0.95747  1.0000
  Mg  Mg3       1.0  0.75000  0.25000  0.87242  1.0000
  Mg  Mg4       1.0  0.75000  0.75000  0.87242  1.0000
  Mg  Mg5       1.0  0.24429  0.50000  0.13169  1.0000
  Mg  Mg6       1.0  0.24334  0.00000  0.13392  1.0000
  Mg  Mg7       1.0  0.74874  0.75260  0.04097  1.0000
  Mg  Mg8       1.0  0.74873  0.24742  0.04097  1.0000
  In  In1       1.0  0.75000  0.00000  0.95747  1.0000
  In  In2       1.0  0.75000  0.50000  0.95747  1.0000
  In  In3       1.0  0.25000  0.25000  0.87242  1.0000
  In  In4       1.0  0.25000  0.75000  0.87242  1.0000
  In  In5       1.0  0.74001  0.50000  0.14122  1.0000
  In  In6       1.0  0.74439  0.99999  0.13887  1.0000
  In  In7       1.0  0.24926  0.74799  0.04366  1.0000
  In  In8       1.0  0.24926  0.25201  0.04366  1.0000
  Cu  Cu1       1.0  0.00000  0.00000  0.87242  1.0000
  Cu  Cu2       1.0  0.00000  0.50000  0.87242  1.0000
  Cu  Cu3       1.0  0.50000  0.75000  0.95747  1.0000
  Cu  Cu4       1.0  0.50000  0.25000  0.95747  1.0000
  Cu  Cu5       1.0  0.98520  0.50000  0.04787  1.0000
  Cu  Cu6       1.0  0.99732  0.00001  0.04835  1.0000
  Cu  Cu7       1.0  0.51428  0.25133  0.12414  1.0000
  Cu  Cu8       1.0  0.51427  0.74867  0.12414  1.0000
  Pd  Pd1       1.0  0.00000  0.25000  0.95747  1.0000
  Pd  Pd2       1.0  0.00000  0.75000  0.95747  1.0000
  Pd  Pd3       1.0  0.50000  0.50000  0.87242  1.0000
  Pd  Pd4       1.0  0.50000  0.00000  0.87242  1.0000
  Pd  Pd5       1.0  0.98145  0.74717  0.12301  1.0000
  Pd  Pd6       1.0  0.98144  0.25283  0.12301  1.0000
  Pd  Pd7       1.0  0.49832  0.00000  0.04764  1.0000
  Pd  Pd8       1.0  0.50961  0.50001  0.04527  1.0000
  C   C1        1.0  0.25667  0.00000  0.21852  1.0000
  O   O1        1.0  0.25835  0.00001  0.26103  1.0000
