# generated using pymatgen
data_Li8Y8Ag8Pb8C
_symmetry_space_group_name_H-M   Pm
_cell_length_a   7.20907000
_cell_length_b   10.19520000
_cell_length_c   27.64640000
_cell_angle_alpha   90.00000000
_cell_angle_beta   90.00000000
_cell_angle_gamma   90.00000000
_symmetry_Int_Tables_number   6
_chemical_formula_structural   Li8Y8Ag8Pb8C
_chemical_formula_sum   'Li8 Y8 Ag8 Pb8 C1'
_cell_volume   2031.95263185
_cell_formula_units_Z   1
loop_
 _symmetry_equiv_pos_site_id
 _symmetry_equiv_pos_as_xyz
  1  'x, y, z'
  2  'x, -y, z'
loop_
 _atom_site_type_symbol
 _atom_site_label
 _atom_site_symmetry_multiplicity
 _atom_site_fract_x
 _atom_site_fract_y
 _atom_site_fract_z
 _atom_site_occupancy
  Li  Li0  2  0.75000000  0.25000000  0.86171000  1.0
  Li  Li1  2  0.75349000  0.25778000  0.04675000  1.0
  Li  Li2  1  0.20166000  0.00000000  0.14416000  1.0
  Li  Li3  1  0.24090000  0.50000000  0.13555000  1.0
  Li  Li4  1  0.25000000  0.00000000  0.95390000  1.0
  Li  Li5  1  0.25000000  0.50000000  0.95390000  1.0
  Y  Y6  2  0.23881000  0.23894000  0.05057000  1.0
  Y  Y7  2  0.25000000  0.25000000  0.86171000  1.0
  Y  Y8  1  0.71919000  0.50000000  0.13850000  1.0
  Y  Y9  1  0.75000000  0.00000000  0.95390000  1.0
  Y  Y10  1  0.75000000  0.50000000  0.95390000  1.0
  Y  Y11  1  0.75965000  0.00000000  0.14271000  1.0
  Ag  Ag12  2  0.47909000  0.24182000  0.13947000  1.0
  Ag  Ag13  2  0.50000000  0.25000000  0.95390000  1.0
  Ag  Ag14  1  0.00000000  0.00000000  0.86171000  1.0
  Ag  Ag15  1  0.00000000  0.50000000  0.86171000  1.0
  Ag  Ag16  1  0.97440000  0.00000000  0.04674000  1.0
  Ag  Ag17  1  0.99404000  0.50000000  0.05180000  1.0
  Pb  Pb18  2  0.00000000  0.25000000  0.95390000  1.0
  Pb  Pb19  2  0.99968000  0.26739000  0.14748000  1.0
  Pb  Pb20  1  0.48090000  0.50000000  0.04438000  1.0
  Pb  Pb21  1  0.50000000  0.00000000  0.86171000  1.0
  Pb  Pb22  1  0.50000000  0.50000000  0.86171000  1.0
  Pb  Pb23  1  0.52026000  0.00000000  0.04216000  1.0
  C  C24  1  0.46561000  0.00000000  0.12356000  1.0
