data_image0
_chemical_formula_structural       Li16Sb8Pt8C
_chemical_formula_sum              "Li16 Sb8 Pt8 C1"
_cell_length_a       6.40528
_cell_length_b       9.05843
_cell_length_c       26.7938
_cell_angle_alpha    90
_cell_angle_beta     90
_cell_angle_gamma    90

_space_group_name_H-M_alt    "P 1"
_space_group_IT_number       1

loop_
  _space_group_symop_operation_xyz
  'x, y, z'

loop_
  _atom_site_type_symbol
  _atom_site_label
  _atom_site_symmetry_multiplicity
  _atom_site_fract_x
  _atom_site_fract_y
  _atom_site_fract_z
  _atom_site_occupancy
  Li  Li1       1.0  0.00000  0.75000  0.95774  1.0000
  Li  Li2       1.0  0.50000  0.00000  0.87322  1.0000
  Li  Li3       1.0  0.00000  0.25000  0.95774  1.0000
  Li  Li4       1.0  0.50000  0.50000  0.87322  1.0000
  Li  Li5       1.0  0.25000  0.25000  0.87322  1.0000
  Li  Li6       1.0  0.25000  0.75000  0.87322  1.0000
  Li  Li7       1.0  0.75000  0.50000  0.95774  1.0000
  Li  Li8       1.0  0.75000  0.00000  0.95774  1.0000
  Li  Li9       1.0  0.98634  0.25000  0.12129  1.0000
  Li  Li10      1.0  0.50499  0.51141  0.03822  1.0000
  Li  Li11      1.0  0.01560  0.75000  0.12926  1.0000
  Li  Li12      1.0  0.50499  0.98859  0.03821  1.0000
  Li  Li13      1.0  0.25817  0.75000  0.04587  1.0000
  Li  Li14      1.0  0.32973  0.25000  0.06211  1.0000
  Li  Li15      1.0  0.70923  0.01882  0.12562  1.0000
  Li  Li16      1.0  0.70925  0.48118  0.12562  1.0000
  Sb  Sb1       1.0  0.00000  0.00000  0.87322  1.0000
  Sb  Sb2       1.0  0.50000  0.25000  0.95774  1.0000
  Sb  Sb3       1.0  0.50000  0.75000  0.95774  1.0000
  Sb  Sb4       1.0  0.00000  0.50000  0.87322  1.0000
  Sb  Sb5       1.0  0.00531  0.49250  0.04194  1.0000
  Sb  Sb6       1.0  0.50775  0.75000  0.13380  1.0000
  Sb  Sb7       1.0  0.39503  0.25000  0.16412  1.0000
  Sb  Sb8       1.0  0.00531  0.00750  0.04194  1.0000
  Pt  Pt1       1.0  0.25000  0.00000  0.95774  1.0000
  Pt  Pt2       1.0  0.25000  0.50000  0.95774  1.0000
  Pt  Pt3       1.0  0.75000  0.75000  0.87322  1.0000
  Pt  Pt4       1.0  0.75000  0.25000  0.87322  1.0000
  Pt  Pt5       1.0  0.26204  0.50850  0.11808  1.0000
  Pt  Pt6       1.0  0.26204  0.99150  0.11808  1.0000
  Pt  Pt7       1.0  0.72941  0.25000  0.04231  1.0000
  Pt  Pt8       1.0  0.76040  0.75000  0.04583  1.0000
  C   C1        1.0  0.64915  0.25001  0.11541  1.0000
