# generated using pymatgen
data_Y8Cu8Sn8Pd8CO
_symmetry_space_group_name_H-M   'P 1'
_cell_length_a   9.56710000
_cell_length_b   6.76496000
_cell_length_c   27.17530000
_cell_angle_alpha   90.00000000
_cell_angle_beta   90.00000000
_cell_angle_gamma   90.00000000
_symmetry_Int_Tables_number   1
_chemical_formula_structural   Y8Cu8Sn8Pd8CO
_chemical_formula_sum   'Y8 Cu8 Sn8 Pd8 C1 O1'
_cell_volume   1758.81391789
_cell_formula_units_Z   1
loop_
 _symmetry_equiv_pos_site_id
 _symmetry_equiv_pos_as_xyz
  1  'x, y, z'
loop_
 _atom_site_type_symbol
 _atom_site_label
 _atom_site_symmetry_multiplicity
 _atom_site_fract_x
 _atom_site_fract_y
 _atom_site_fract_z
 _atom_site_occupancy
  Y  Y0  1  0.75003000  0.25000000  0.04401000  1.0
  Y  Y1  1  0.24997000  0.25000000  0.04401000  1.0
  Y  Y2  1  0.00000000  0.75000000  0.13202000  1.0
  Y  Y3  1  0.50000000  0.75000000  0.13202000  1.0
  Y  Y4  1  0.26523000  0.28048000  0.86317000  1.0
  Y  Y5  1  0.73477000  0.28048000  0.86317000  1.0
  Y  Y6  1  0.50000000  0.75259000  0.95687000  1.0
  Y  Y7  1  0.00000000  0.76634000  0.95556000  1.0
  Cu  Cu8  1  0.75003000  0.00000000  0.13202000  1.0
  Cu  Cu9  1  0.24997000  0.00000000  0.13202000  1.0
  Cu  Cu10  1  0.50000000  0.50000000  0.04401000  1.0
  Cu  Cu11  1  0.00000000  0.50000000  0.04401000  1.0
  Cu  Cu12  1  0.25284000  0.01383000  0.94770000  1.0
  Cu  Cu13  1  0.74716000  0.01383000  0.94770000  1.0
  Cu  Cu14  1  0.00000000  0.50159000  0.87436000  1.0
  Cu  Cu15  1  0.50000000  0.57170000  0.85812000  1.0
  Sn  Sn16  1  0.75003000  0.75000000  0.04401000  1.0
  Sn  Sn17  1  0.24997000  0.75000000  0.04401000  1.0
  Sn  Sn18  1  0.00000000  0.25000000  0.13202000  1.0
  Sn  Sn19  1  0.50000000  0.25000000  0.13202000  1.0
  Sn  Sn20  1  0.24082000  0.76062000  0.86655000  1.0
  Sn  Sn21  1  0.75918000  0.76062000  0.86655000  1.0
  Sn  Sn22  1  0.50000000  0.25659000  0.95575000  1.0
  Sn  Sn23  1  0.00000000  0.24995000  0.95392000  1.0
  Pd  Pd24  1  0.00000000  0.00000000  0.04401000  1.0
  Pd  Pd25  1  0.50000000  1.00000000  0.04401000  1.0
  Pd  Pd26  1  0.25003000  0.50000000  0.13202000  1.0
  Pd  Pd27  1  0.74997000  0.50000000  0.13202000  1.0
  Pd  Pd28  1  0.50000000  0.99827000  0.87276000  1.0
  Pd  Pd29  1  0.00000000  0.05672000  0.85894000  1.0
  Pd  Pd30  1  0.75413000  0.49564000  0.95537000  1.0
  Pd  Pd31  1  0.24587000  0.49564000  0.95537000  1.0
  C  C32  1  0.00000000  0.04520000  0.78684000  1.0
  O  O33  1  0.00000000  0.02517000  0.74462000  1.0
