# generated using pymatgen
data_TiPt3
_symmetry_space_group_name_H-M   Pmm2
_cell_length_a   3.97295500
_cell_length_b   5.61861000
_cell_length_c   24.21400000
_cell_angle_alpha   90.00000000
_cell_angle_beta   90.00000000
_cell_angle_gamma   90.00000000
_symmetry_Int_Tables_number   25
_chemical_formula_structural   TiPt3
_chemical_formula_sum   'Ti2 Pt6'
_cell_volume   540.51664435
_cell_formula_units_Z   2
loop_
 _symmetry_equiv_pos_site_id
 _symmetry_equiv_pos_as_xyz
  1  'x, y, z'
  2  '-x, -y, z'
  3  '-x, y, z'
  4  'x, -y, z'
loop_
 _atom_site_type_symbol
 _atom_site_label
 _atom_site_symmetry_multiplicity
 _atom_site_fract_x
 _atom_site_fract_y
 _atom_site_fract_z
 _atom_site_occupancy
  Ti  Ti0  1  0.00000000  0.00000000  0.91298000  1.0
  Ti  Ti1  1  0.00000000  0.50000000  0.03540000  1.0
  Pt  Pt2  2  0.50000000  0.25000000  0.97099000  1.0
  Pt  Pt3  2  0.50000000  0.25938000  0.08524000  1.0
  Pt  Pt4  1  0.00000000  0.00000000  0.02442000  1.0
  Pt  Pt5  1  0.00000000  0.50000000  0.91298000  1.0
