# generated using pymatgen
data_Li8Ni16Ge8CO
_symmetry_space_group_name_H-M   Pmm2
_cell_length_a   5.71239000
_cell_length_b   8.07854000
_cell_length_c   26.05890000
_cell_angle_alpha   90.00000000
_cell_angle_beta   90.00000000
_cell_angle_gamma   90.00000000
_symmetry_Int_Tables_number   25
_chemical_formula_structural   Li8Ni16Ge8CO
_chemical_formula_sum   'Li8 Ni16 Ge8 C1 O1'
_cell_volume   1202.56015259
_cell_formula_units_Z   1
loop_
 _symmetry_equiv_pos_site_id
 _symmetry_equiv_pos_as_xyz
  1  'x, y, z'
  2  '-x, -y, z'
  3  '-x, y, z'
  4  'x, -y, z'
loop_
 _atom_site_type_symbol
 _atom_site_label
 _atom_site_symmetry_multiplicity
 _atom_site_fract_x
 _atom_site_fract_y
 _atom_site_fract_z
 _atom_site_occupancy
  Li  Li0  2  0.00000000  0.24958000  0.03393000  1.0
  Li  Li1  2  0.00000000  0.24999000  0.88375000  1.0
  Li  Li2  1  0.50000000  0.00000000  0.13623000  1.0
  Li  Li3  1  0.50000000  0.00000000  0.96125000  1.0
  Li  Li4  1  0.50000000  0.50000000  0.13293000  1.0
  Li  Li5  1  0.50000000  0.50000000  0.96125000  1.0
  Ni  Ni6  4  0.22527000  0.25062000  0.10900000  1.0
  Ni  Ni7  4  0.25000000  0.24999000  0.96125000  1.0
  Ni  Ni8  2  0.25000000  0.00000000  0.88375000  1.0
  Ni  Ni9  2  0.25000000  0.50000000  0.88375000  1.0
  Ni  Ni10  2  0.25078000  0.50000000  0.04021000  1.0
  Ni  Ni11  2  0.25240000  0.00000000  0.04028000  1.0
  Ge  Ge12  2  0.50000000  0.24999000  0.88375000  1.0
  Ge  Ge13  2  0.50000000  0.25020000  0.03942000  1.0
  Ge  Ge14  1  0.00000000  0.00000000  0.11823000  1.0
  Ge  Ge15  1  0.00000000  0.00000000  0.96125000  1.0
  Ge  Ge16  1  0.00000000  0.50000000  0.11971000  1.0
  Ge  Ge17  1  0.00000000  0.50000000  0.96125000  1.0
  C  C18  1  0.50000000  0.00000000  0.21852000  1.0
  O  O19  1  0.50000000  0.00000000  0.26216000  1.0
