data_image0
_chemical_formula_structural       Be8Rh8C
_chemical_formula_sum              "Be8 Rh8 C1"
_cell_length_a       5.57428
_cell_length_b       5.57428
_cell_length_c       24.1807
_cell_angle_alpha    90
_cell_angle_beta     90
_cell_angle_gamma    90

_space_group_name_H-M_alt    "P 1"
_space_group_IT_number       1

loop_
  _space_group_symop_operation_xyz
  'x, y, z'

loop_
  _atom_site_type_symbol
  _atom_site_label
  _atom_site_symmetry_multiplicity
  _atom_site_fract_x
  _atom_site_fract_y
  _atom_site_fract_z
  _atom_site_occupancy
  Be  Be1       1.0  0.25000  0.25000  0.94701  1.0000
  Be  Be2       1.0  0.21309  0.21310  0.06368  1.0000
  Be  Be3       1.0  0.25000  0.75000  0.94701  1.0000
  Be  Be4       1.0  0.21309  0.78689  0.06367  1.0000
  Be  Be5       1.0  0.75000  0.25000  0.94701  1.0000
  Be  Be6       1.0  0.78691  0.21309  0.06367  1.0000
  Be  Be7       1.0  0.75000  0.75000  0.94701  1.0000
  Be  Be8       1.0  0.78691  0.78689  0.06367  1.0000
  Rh  Rh1       1.0  0.00000  0.00000  0.88938  1.0000
  Rh  Rh2       1.0  0.00002  0.00009  0.99602  1.0000
  Rh  Rh3       1.0  0.00000  0.50000  0.88938  1.0000
  Rh  Rh4       1.0  0.00002  0.50006  0.00572  1.0000
  Rh  Rh5       1.0  0.50000  0.00000  0.88938  1.0000
  Rh  Rh6       1.0  0.50001  0.99999  0.00572  1.0000
  Rh  Rh7       1.0  0.50000  0.50000  0.88938  1.0000
  Rh  Rh8       1.0  0.49997  0.50003  0.01577  1.0000
  C   C1        1.0  1.00000  0.99999  0.08573  1.0000
