# generated using pymatgen
data_Li8Pb4Au4C
_symmetry_space_group_name_H-M   'P 1'
_cell_length_a   6.82040000
_cell_length_b   6.82040000
_cell_length_c   25.11530000
_cell_angle_alpha   90.00000000
_cell_angle_beta   90.00000000
_cell_angle_gamma   90.00000000
_symmetry_Int_Tables_number   1
_chemical_formula_structural   Li8Pb4Au4C
_chemical_formula_sum   'Li8 Pb4 Au4 C1'
_cell_volume   1168.30991282
_cell_formula_units_Z   1
loop_
 _symmetry_equiv_pos_site_id
 _symmetry_equiv_pos_as_xyz
  1  'x, y, z'
loop_
 _atom_site_type_symbol
 _atom_site_label
 _atom_site_symmetry_multiplicity
 _atom_site_fract_x
 _atom_site_fract_y
 _atom_site_fract_z
 _atom_site_occupancy
  Li  Li0  1  1.00000000  0.50000000  0.03763000  1
  Li  Li1  1  0.00000000  0.00000000  0.89816000  1
  Li  Li2  1  0.50000000  0.50000000  0.89816000  1
  Li  Li3  1  0.50000000  0.00000000  0.03763000  1
  Li  Li4  1  0.75000000  0.75000000  0.96605000  1
  Li  Li5  1  0.28282500  0.71717500  0.12798000  1
  Li  Li6  1  0.25000000  0.25000000  0.96605000  1
  Li  Li7  1  0.71717500  0.28282500  0.12798000  1
  Pb  Pb8  1  1.00000000  0.50000000  0.89816000  1
  Pb  Pb9  1  0.50000000  0.00000000  0.89816000  1
  Pb  Pb10  1  0.00000000  0.00000000  0.05189000  1
  Pb  Pb11  1  0.50000000  0.50000000  0.02407000  1
  Au  Au12  1  0.72723500  0.72723500  0.10360000  1
  Au  Au13  1  0.24999000  0.75001000  0.96605000  1
  Au  Au14  1  0.27276500  0.27276500  0.10360000  1
  Au  Au15  1  0.75001000  0.24999000  0.96605000  1
  C  C16  1  0.50000000  0.50000000  0.11870000  1
