# generated using pymatgen
data_Ni12Ge4CO
_symmetry_space_group_name_H-M   Pm
_cell_length_a   5.09807000
_cell_length_b   7.20976000
_cell_length_c   23.82360000
_cell_angle_alpha   90.00000000
_cell_angle_beta   90.00000000
_cell_angle_gamma   90.00000000
_symmetry_Int_Tables_number   6
_chemical_formula_structural   Ni12Ge4CO
_chemical_formula_sum   'Ni12 Ge4 C1 O1'
_cell_volume   875.65693401
_cell_formula_units_Z   1
loop_
 _symmetry_equiv_pos_site_id
 _symmetry_equiv_pos_as_xyz
  1  'x, y, z'
  2  'x, -y, z'
loop_
 _atom_site_type_symbol
 _atom_site_label
 _atom_site_symmetry_multiplicity
 _atom_site_fract_x
 _atom_site_fract_y
 _atom_site_fract_z
 _atom_site_occupancy
  Ni  Ni0  2  0.00203000  0.25016000  0.97254000  1.0
  Ni  Ni1  2  0.50000000  0.24999000  0.08025000  1.0
  Ni  Ni2  1  0.24925000  0.00000000  0.92442000  1.0
  Ni  Ni3  1  0.25000000  0.00000000  0.02675000  1.0
  Ni  Ni4  1  0.25000000  0.50000000  0.02675000  1.0
  Ni  Ni5  1  0.26306000  0.50000000  0.92406000  1.0
  Ni  Ni6  1  0.75000000  0.00000000  0.02675000  1.0
  Ni  Ni7  1  0.75000000  0.50000000  0.02675000  1.0
  Ni  Ni8  1  0.75096000  0.00000000  0.92421000  1.0
  Ni  Ni9  1  0.76332000  0.50000000  0.92103000  1.0
  Ge  Ge10  2  0.00000000  0.24999000  0.08025000  1.0
  Ge  Ge11  2  0.50190000  0.24879000  0.97057000  1.0
  C  C12  1  0.75249000  0.50000000  0.84733000  1.0
  O  O13  1  0.74903000  0.50000000  0.79884000  1.0
