# generated using pymatgen
data_Li4Y4Ge4Pb4C
_symmetry_space_group_name_H-M   'P 1'
_cell_length_a   6.08443000
_cell_length_b   9.86128000
_cell_length_c   24.56300000
_cell_angle_alpha   90.00000000
_cell_angle_beta   90.00000000
_cell_angle_gamma   90.00000000
_symmetry_Int_Tables_number   1
_chemical_formula_structural   Li4Y4Ge4Pb4C
_chemical_formula_sum   'Li4 Y4 Ge4 Pb4 C1'
_cell_volume   1473.78657970
_cell_formula_units_Z   1
loop_
 _symmetry_equiv_pos_site_id
 _symmetry_equiv_pos_as_xyz
  1  'x, y, z'
loop_
 _atom_site_type_symbol
 _atom_site_label
 _atom_site_symmetry_multiplicity
 _atom_site_fract_x
 _atom_site_fract_y
 _atom_site_fract_z
 _atom_site_occupancy
  Li  Li0  1  0.24707000  0.25000000  0.96904000  1.0
  Li  Li1  1  0.69405000  0.27221000  0.09205000  1.0
  Li  Li2  1  0.24707000  0.75000000  0.96904000  1.0
  Li  Li3  1  0.69405000  0.72781000  0.09205000  1.0
  Y  Y4  1  0.50000000  0.00000000  0.90712000  1.0
  Y  Y5  1  0.97327000  0.00000000  0.02832000  1.0
  Y  Y6  1  0.50000000  0.50000000  0.90712000  1.0
  Y  Y7  1  0.01663000  0.50000000  0.02888000  1.0
  Ge  Ge8  1  0.00000000  0.00000000  0.90712000  1.0
  Ge  Ge9  1  0.51654000  0.00002000  0.04947000  1.0
  Ge  Ge10  1  0.00000000  0.50000000  0.90712000  1.0
  Ge  Ge11  1  0.51056000  0.50004000  0.03529000  1.0
  Pb  Pb12  1  0.74707000  0.25000000  0.96904000  1.0
  Pb  Pb13  1  0.21351000  0.23535000  0.11366000  1.0
  Pb  Pb14  1  0.74707000  0.75000000  0.96904000  1.0
  Pb  Pb15  1  0.21343000  0.76457000  0.11366000  1.0
  C  C16  1  0.24584000  0.99993000  0.09117000  1.0
