# generated using pymatgen
data_Li8In4Pt4C
_symmetry_space_group_name_H-M   'P 1'
_cell_length_a   6.43375000
_cell_length_b   6.43375000
_cell_length_c   24.82530000
_cell_angle_alpha   90.00000000
_cell_angle_beta   90.00000000
_cell_angle_gamma   90.00000000
_symmetry_Int_Tables_number   1
_chemical_formula_structural   Li8In4Pt4C
_chemical_formula_sum   'Li8 In4 Pt4 C1'
_cell_volume   1027.59709517
_cell_formula_units_Z   1
loop_
 _symmetry_equiv_pos_site_id
 _symmetry_equiv_pos_as_xyz
  1  'x, y, z'
loop_
 _atom_site_type_symbol
 _atom_site_label
 _atom_site_symmetry_multiplicity
 _atom_site_fract_x
 _atom_site_fract_y
 _atom_site_fract_z
 _atom_site_occupancy
  Li  Li0  1  0.75000000  0.75000000  0.03240000  1.0
  Li  Li1  1  0.24242000  0.75761000  0.87397000  1.0
  Li  Li2  1  0.75758000  0.24239000  0.87397000  1.0
  Li  Li3  1  0.25000000  0.25000000  0.03240000  1.0
  Li  Li4  1  0.00000000  0.00000000  0.09719000  1.0
  Li  Li5  1  0.00000000  0.50000000  0.95788000  1.0
  Li  Li6  1  0.50000000  0.50000000  0.09719000  1.0
  Li  Li7  1  0.50000000  0.00000000  0.95788000  1.0
  In  In8  1  0.00000000  0.00000000  0.97684000  1.0
  In  In9  1  0.00000000  0.50000000  0.09719000  1.0
  In  In10  1  0.50000000  0.50000000  0.95355000  1.0
  In  In11  1  0.50000000  0.00000000  0.09719000  1.0
  Pt  Pt12  1  0.79220000  0.79233000  0.89954000  1.0
  Pt  Pt13  1  0.20780000  0.20767000  0.89954000  1.0
  Pt  Pt14  1  0.25000000  0.75000000  0.03240000  1.0
  Pt  Pt15  1  0.75000000  0.25000000  0.03240000  1.0
  C  C16  1  0.00000000  0.00000000  0.87705000  1.0
