# generated using pymatgen
data_Ga8Fe16Co8CO
_symmetry_space_group_name_H-M   'P 1'
_cell_length_a   8.20054000
_cell_length_b   5.79866000
_cell_length_c   26.15040000
_cell_angle_alpha   90.00000000
_cell_angle_beta   90.00000000
_cell_angle_gamma   90.00000000
_symmetry_Int_Tables_number   1
_chemical_formula_structural   Ga8Fe16Co8CO
_chemical_formula_sum   'Ga8 Fe16 Co8 C1 O1'
_cell_volume   1243.50756754
_cell_formula_units_Z   1
loop_
 _symmetry_equiv_pos_site_id
 _symmetry_equiv_pos_as_xyz
  1  'x, y, z'
loop_
 _atom_site_type_symbol
 _atom_site_label
 _atom_site_symmetry_multiplicity
 _atom_site_fract_x
 _atom_site_fract_y
 _atom_site_fract_z
 _atom_site_occupancy
  Ga  Ga0  1  0.00000000  0.00000000  0.11760000  1.0
  Ga  Ga1  1  0.25000000  0.50000000  0.03920000  1.0
  Ga  Ga2  1  0.75000000  0.50000000  0.03920000  1.0
  Ga  Ga3  1  0.50000000  0.00000000  0.11760000  1.0
  Ga  Ga4  1  0.50365000  0.00000000  0.96168000  1.0
  Ga  Ga5  1  0.74988000  0.50000000  0.86237000  1.0
  Ga  Ga6  1  0.24998000  0.50000000  0.86770000  1.0
  Ga  Ga7  1  0.99627000  0.00000000  0.96162000  1.0
  Fe  Fe8  1  0.00000000  0.74994000  0.03920000  1.0
  Fe  Fe9  1  0.50000000  0.24994000  0.03920000  1.0
  Fe  Fe10  1  0.00000000  0.25006000  0.03920000  1.0
  Fe  Fe11  1  0.50000000  0.75006000  0.03920000  1.0
  Fe  Fe12  1  0.75000000  0.24994000  0.11760000  1.0
  Fe  Fe13  1  0.25000000  0.74994000  0.11760000  1.0
  Fe  Fe14  1  0.75000000  0.75006000  0.11760000  1.0
  Fe  Fe15  1  0.25000000  0.25006000  0.11760000  1.0
  Fe  Fe16  1  0.50261000  0.74422000  0.88433000  1.0
  Fe  Fe17  1  0.99724000  0.25579000  0.88428000  1.0
  Fe  Fe18  1  0.50261000  0.25578000  0.88433000  1.0
  Fe  Fe19  1  0.99724000  0.74421000  0.88428000  1.0
  Fe  Fe20  1  0.24993000  0.25742000  0.95757000  1.0
  Fe  Fe21  1  0.74999000  0.73106000  0.95568000  1.0
  Fe  Fe22  1  0.24993000  0.74258000  0.95757000  1.0
  Fe  Fe23  1  0.74999000  0.26894000  0.95568000  1.0
  Co  Co24  1  0.75000000  0.00000000  0.03920000  1.0
  Co  Co25  1  0.00000000  0.50000000  0.11760000  1.0
  Co  Co26  1  0.25000000  0.00000000  0.03920000  1.0
  Co  Co27  1  0.50000000  0.50000000  0.11760000  1.0
  Co  Co28  1  0.25007000  0.00000000  0.88685000  1.0
  Co  Co29  1  0.49594000  0.50000000  0.96393000  1.0
  Co  Co30  1  0.74978000  0.00000000  0.88629000  1.0
  Co  Co31  1  0.00400000  0.50000000  0.96390000  1.0
  C  C32  1  0.25188000  0.50000000  0.72256000  1.0
  O  O33  1  0.24994000  0.50000000  0.67918000  1.0
