# generated using pymatgen
data_Ga8Fe16Co8CO
_symmetry_space_group_name_H-M   Pm
_cell_length_a   8.20054000
_cell_length_b   5.79866000
_cell_length_c   26.15040000
_cell_angle_alpha   90.00000000
_cell_angle_beta   90.00000000
_cell_angle_gamma   90.00000000
_symmetry_Int_Tables_number   6
_chemical_formula_structural   Ga8Fe16Co8CO
_chemical_formula_sum   'Ga8 Fe16 Co8 C1 O1'
_cell_volume   1243.50756754
_cell_formula_units_Z   1
loop_
 _symmetry_equiv_pos_site_id
 _symmetry_equiv_pos_as_xyz
  1  'x, y, z'
  2  'x, -y, z'
loop_
 _atom_site_type_symbol
 _atom_site_label
 _atom_site_symmetry_multiplicity
 _atom_site_fract_x
 _atom_site_fract_y
 _atom_site_fract_z
 _atom_site_occupancy
  Ga  Ga0  1  0.00000000  0.00000000  0.88240000  1.0
  Ga  Ga1  1  0.24998000  0.50000000  0.13230000  1.0
  Ga  Ga2  1  0.25000000  0.50000000  0.96080000  1.0
  Ga  Ga3  1  0.50000000  0.00000000  0.88240000  1.0
  Ga  Ga4  1  0.50365000  0.00000000  0.03832000  1.0
  Ga  Ga5  1  0.74988000  0.50000000  0.13763000  1.0
  Ga  Ga6  1  0.75000000  0.50000000  0.96080000  1.0
  Ga  Ga7  1  0.99627000  0.00000000  0.03838000  1.0
  Fe  Fe8  2  0.00000000  0.25006000  0.96080000  1.0
  Fe  Fe9  2  0.24993000  0.25742000  0.04243000  1.0
  Fe  Fe10  2  0.25000000  0.25006000  0.88240000  1.0
  Fe  Fe11  2  0.50000000  0.24994000  0.96080000  1.0
  Fe  Fe12  2  0.50261000  0.25578000  0.11567000  1.0
  Fe  Fe13  2  0.74999000  0.26894000  0.04432000  1.0
  Fe  Fe14  2  0.75000000  0.24994000  0.88240000  1.0
  Fe  Fe15  2  0.99724000  0.25579000  0.11572000  1.0
  Co  Co16  1  0.00000000  0.50000000  0.88240000  1.0
  Co  Co17  1  0.00400000  0.50000000  0.03610000  1.0
  Co  Co18  1  0.25000000  0.00000000  0.96080000  1.0
  Co  Co19  1  0.25007000  0.00000000  0.11315000  1.0
  Co  Co20  1  0.49594000  0.50000000  0.03607000  1.0
  Co  Co21  1  0.50000000  0.50000000  0.88240000  1.0
  Co  Co22  1  0.74978000  0.00000000  0.11371000  1.0
  Co  Co23  1  0.75000000  0.00000000  0.96080000  1.0
  C  C24  1  0.25188000  0.50000000  0.27744000  1.0
  O  O25  1  0.24994000  0.50000000  0.32082000  1.0
