data_image0
_chemical_formula_structural       Y8In8Pd8Au8CO
_chemical_formula_sum              "Y8 In8 Pd8 Au8 C1 O1"
_cell_length_a       6.93157
_cell_length_b       9.80272
_cell_length_c       27.352
_cell_angle_alpha    90
_cell_angle_beta     90
_cell_angle_gamma    90

_space_group_name_H-M_alt    "P 1"
_space_group_IT_number       1

loop_
  _space_group_symop_operation_xyz
  'x, y, z'

loop_
  _atom_site_type_symbol
  _atom_site_label
  _atom_site_symmetry_multiplicity
  _atom_site_fract_x
  _atom_site_fract_y
  _atom_site_fract_z
  _atom_site_occupancy
  Y   Y1        1.0  0.75000  0.00000  0.95520  1.0000
  Y   Y2        1.0  0.75000  0.50000  0.95520  1.0000
  Y   Y3        1.0  0.25000  0.25000  0.86560  1.0000
  Y   Y4        1.0  0.25000  0.75000  0.86560  1.0000
  Y   Y5        1.0  0.74491  0.49342  0.13417  1.0000
  Y   Y6        1.0  0.74491  0.00659  0.13417  1.0000
  Y   Y7        1.0  0.25178  0.75000  0.04666  1.0000
  Y   Y8        1.0  0.25057  0.25000  0.04695  1.0000
  In  In1       1.0  0.25000  0.00000  0.95520  1.0000
  In  In2       1.0  0.25000  0.50000  0.95520  1.0000
  In  In3       1.0  0.75000  0.25000  0.86560  1.0000
  In  In4       1.0  0.75000  0.75000  0.86560  1.0000
  In  In5       1.0  0.24191  0.50729  0.13699  1.0000
  In  In6       1.0  0.24191  0.99271  0.13699  1.0000
  In  In7       1.0  0.74743  0.75000  0.04519  1.0000
  In  In8       1.0  0.75266  0.25000  0.04707  1.0000
  Pd  Pd1       1.0  0.00000  0.25000  0.95520  1.0000
  Pd  Pd2       1.0  0.00000  0.75000  0.95520  1.0000
  Pd  Pd3       1.0  0.50000  0.50000  0.86560  1.0000
  Pd  Pd4       1.0  0.50000  0.00000  0.86560  1.0000
  Pd  Pd5       1.0  0.99058  0.75000  0.12904  1.0000
  Pd  Pd6       1.0  0.01123  0.25000  0.14499  1.0000
  Pd  Pd7       1.0  0.50394  0.00000  0.04577  1.0000
  Pd  Pd8       1.0  0.50395  0.50000  0.04577  1.0000
  Au  Au1       1.0  0.00000  0.00000  0.86560  1.0000
  Au  Au2       1.0  0.00000  0.50000  0.86560  1.0000
  Au  Au3       1.0  0.50000  0.75000  0.95520  1.0000
  Au  Au4       1.0  0.50000  0.25000  0.95520  1.0000
  Au  Au5       1.0  0.99675  0.49870  0.04588  1.0000
  Au  Au6       1.0  0.99675  0.00130  0.04588  1.0000
  Au  Au7       1.0  0.47320  0.25000  0.13827  1.0000
  Au  Au8       1.0  0.50359  0.75000  0.13844  1.0000
  C   C1        1.0  0.94636  0.25000  0.21469  1.0000
  O   O1        1.0  0.95008  0.25000  0.25700  1.0000
