# generated using pymatgen
data_Y8In8Pd8Au8CO
_symmetry_space_group_name_H-M   'P 1'
_cell_length_a   9.80272000
_cell_length_b   6.93157000
_cell_length_c   27.35200000
_cell_angle_alpha   90.00000000
_cell_angle_beta   90.00000000
_cell_angle_gamma   90.00000000
_symmetry_Int_Tables_number   1
_chemical_formula_structural   Y8In8Pd8Au8CO
_chemical_formula_sum   'Y8 In8 Pd8 Au8 C1 O1'
_cell_volume   1858.52025694
_cell_formula_units_Z   1
loop_
 _symmetry_equiv_pos_site_id
 _symmetry_equiv_pos_as_xyz
  1  'x, y, z'
loop_
 _atom_site_type_symbol
 _atom_site_label
 _atom_site_symmetry_multiplicity
 _atom_site_fract_x
 _atom_site_fract_y
 _atom_site_fract_z
 _atom_site_occupancy
  Y  Y0  1  0.75000000  0.75000000  0.04480000  1.0
  Y  Y1  1  0.25000000  0.75000000  0.04480000  1.0
  Y  Y2  1  0.00000000  0.25000000  0.13440000  1.0
  Y  Y3  1  0.50000000  0.25000000  0.13440000  1.0
  Y  Y4  1  0.24342000  0.74491000  0.86583000  1.0
  Y  Y5  1  0.75658000  0.74491000  0.86583000  1.0
  Y  Y6  1  0.50000000  0.25178000  0.95334000  1.0
  Y  Y7  1  0.00000000  0.25057000  0.95305000  1.0
  In  In8  1  0.75000000  0.25000000  0.04480000  1.0
  In  In9  1  0.25000000  0.25000000  0.04480000  1.0
  In  In10  1  0.00000000  0.75000000  0.13440000  1.0
  In  In11  1  0.50000000  0.75000000  0.13440000  1.0
  In  In12  1  0.25729000  0.24191000  0.86301000  1.0
  In  In13  1  0.74271000  0.24191000  0.86301000  1.0
  In  In14  1  0.50000000  0.74743000  0.95481000  1.0
  In  In15  1  0.00000000  0.75266000  0.95293000  1.0
  Pd  Pd16  1  0.00000000  0.00000000  0.04480000  1.0
  Pd  Pd17  1  0.50000000  0.00000000  0.04480000  1.0
  Pd  Pd18  1  0.25000000  0.50000000  0.13440000  1.0
  Pd  Pd19  1  0.75000000  0.50000000  0.13440000  1.0
  Pd  Pd20  1  0.50000000  0.99058000  0.87096000  1.0
  Pd  Pd21  1  0.00000000  0.01123000  0.85501000  1.0
  Pd  Pd22  1  0.75000000  0.50394000  0.95423000  1.0
  Pd  Pd23  1  0.25000000  0.50394000  0.95423000  1.0
  Au  Au24  1  0.75000000  0.00000000  0.13440000  1.0
  Au  Au25  1  0.25000000  0.00000000  0.13440000  1.0
  Au  Au26  1  0.50000000  0.50000000  0.04480000  1.0
  Au  Au27  1  0.00000000  0.50000000  0.04480000  1.0
  Au  Au28  1  0.24870000  0.99675000  0.95412000  1.0
  Au  Au29  1  0.75130000  0.99675000  0.95412000  1.0
  Au  Au30  1  0.00000000  0.47320000  0.86173000  1.0
  Au  Au31  1  0.50000000  0.50359000  0.86156000  1.0
  C  C32  1  0.00000000  0.94636000  0.78531000  1.0
  O  O33  1  0.00000000  0.95008000  0.74300000  1.0
