# generated using pymatgen
data_Al16Co16CO
_symmetry_space_group_name_H-M   'P 1'
_cell_length_a   5.70199000
_cell_length_b   8.06383000
_cell_length_c   26.04790000
_cell_angle_alpha   90.00000000
_cell_angle_beta   90.00000000
_cell_angle_gamma   90.00000000
_symmetry_Int_Tables_number   1
_chemical_formula_structural   Al16Co16CO
_chemical_formula_sum   'Al16 Co16 C1 O1'
_cell_volume   1197.67926472
_cell_formula_units_Z   1
loop_
 _symmetry_equiv_pos_site_id
 _symmetry_equiv_pos_as_xyz
  1  'x, y, z'
loop_
 _atom_site_type_symbol
 _atom_site_label
 _atom_site_symmetry_multiplicity
 _atom_site_fract_x
 _atom_site_fract_y
 _atom_site_fract_z
 _atom_site_occupancy
  Al  Al0  1  0.00000000  0.75000000  0.88391000  1.0
  Al  Al1  1  0.00000000  0.00000000  0.96130000  1.0
  Al  Al2  1  0.00000000  0.74930000  0.03887000  1.0
  Al  Al3  1  0.00000000  0.00000000  0.12209000  1.0
  Al  Al4  1  0.00000000  0.25000000  0.88391000  1.0
  Al  Al5  1  0.00000000  0.50000000  0.96130000  1.0
  Al  Al6  1  0.00000000  0.25070000  0.03887000  1.0
  Al  Al7  1  0.00000000  0.50000000  0.11828000  1.0
  Al  Al8  1  0.50000000  0.75000000  0.88391000  1.0
  Al  Al9  1  0.50000000  0.00000000  0.96130000  1.0
  Al  Al10  1  0.50000000  0.75017000  0.03861000  1.0
  Al  Al11  1  0.50000000  0.00000000  0.11962000  1.0
  Al  Al12  1  0.50000000  0.25000000  0.88391000  1.0
  Al  Al13  1  0.50000000  0.50000000  0.96130000  1.0
  Al  Al14  1  0.50000000  0.24983000  0.03861000  1.0
  Al  Al15  1  0.50000000  0.50000000  0.11985000  1.0
  Co  Co16  1  0.25000000  0.00000000  0.88391000  1.0
  Co  Co17  1  0.25000000  0.75000000  0.96130000  1.0
  Co  Co18  1  0.24856000  0.00000000  0.03879000  1.0
  Co  Co19  1  0.25176000  0.74831000  0.11299000  1.0
  Co  Co20  1  0.25000000  0.50000000  0.88391000  1.0
  Co  Co21  1  0.25000000  0.25000000  0.96130000  1.0
  Co  Co22  1  0.25085000  0.50000000  0.03745000  1.0
  Co  Co23  1  0.25176000  0.25169000  0.11299000  1.0
  Co  Co24  1  0.75000000  0.00000000  0.88391000  1.0
  Co  Co25  1  0.75000000  0.75000000  0.96130000  1.0
  Co  Co26  1  0.75144000  0.00000000  0.03879000  1.0
  Co  Co27  1  0.74824000  0.74831000  0.11299000  1.0
  Co  Co28  1  0.75000000  0.50000000  0.88391000  1.0
  Co  Co29  1  0.75000000  0.25000000  0.96130000  1.0
  Co  Co30  1  0.74915000  0.50000000  0.03745000  1.0
  Co  Co31  1  0.74824000  0.25169000  0.11299000  1.0
  C  C32  1  0.00000000  0.00000000  0.20039000  1.0
  O  O33  1  0.00000000  0.00000000  0.24449000  1.0
