# generated using pymatgen
data_Li8Mg8Al8Pt8C
_symmetry_space_group_name_H-M   P1
_cell_length_a   6.24880000
_cell_length_b   8.83714000
_cell_length_c   26.62790000
_cell_angle_alpha   90.00000000
_cell_angle_beta   90.00000000
_cell_angle_gamma   90.00000000
_symmetry_Int_Tables_number   1
_chemical_formula_structural   Li8Mg8Al8Pt8C
_chemical_formula_sum   'Li8 Mg8 Al8 Pt8 C1'
_cell_volume   1470.43312391
_cell_formula_units_Z   1
loop_
 _symmetry_equiv_pos_site_id
 _symmetry_equiv_pos_as_xyz
  1  'x, y, z'
loop_
 _atom_site_type_symbol
 _atom_site_label
 _atom_site_symmetry_multiplicity
 _atom_site_fract_x
 _atom_site_fract_y
 _atom_site_fract_z
 _atom_site_occupancy
  Li  Li0  1  0.25000000  0.00000000  0.95852000  1.0
  Li  Li1  1  0.25000000  0.50000000  0.95852000  1.0
  Li  Li2  1  0.31303000  0.48070000  0.16094000  1.0
  Li  Li3  1  0.31574000  0.01827000  0.16026000  1.0
  Li  Li4  1  0.75000000  0.25000000  0.87555000  1.0
  Li  Li5  1  0.75000000  0.75000000  0.87555000  1.0
  Li  Li6  1  0.75705000  0.75048000  0.04121000  1.0
  Li  Li7  1  0.76301000  0.25012000  0.03943000  1.0
  Mg  Mg8  1  0.00000000  0.25000000  0.95852000  1.0
  Mg  Mg9  1  0.00000000  0.75000000  0.95852000  1.0
  Mg  Mg10  1  0.01853000  0.74987000  0.12841000  1.0
  Mg  Mg11  1  0.48754000  0.50101000  0.04152000  1.0
  Mg  Mg12  1  0.48861000  0.99944000  0.04134000  1.0
  Mg  Mg13  1  0.50000000  0.00000000  0.87555000  1.0
  Mg  Mg14  1  0.50000000  0.50000000  0.87555000  1.0
  Mg  Mg15  1  0.98221000  0.25027000  0.13227000  1.0
  Al  Al16  1  0.00000000  0.00000000  0.87555000  1.0
  Al  Al17  1  0.00000000  0.50000000  0.87555000  1.0
  Al  Al18  1  0.00734000  0.49985000  0.04324000  1.0
  Al  Al19  1  0.00864000  0.00089000  0.04290000  1.0
  Al  Al20  1  0.50000000  0.25000000  0.95852000  1.0
  Al  Al21  1  0.50000000  0.75000000  0.95852000  1.0
  Al  Al22  1  0.51544000  0.74977000  0.12262000  1.0
  Al  Al23  1  0.53665000  0.25000000  0.12022000  1.0
  Pt  Pt24  1  0.24649000  0.75036000  0.03927000  1.0
  Pt  Pt25  1  0.24663000  0.25013000  0.03817000  1.0
  Pt  Pt26  1  0.25000000  0.25000000  0.87555000  1.0
  Pt  Pt27  1  0.25000000  0.75000000  0.87555000  1.0
  Pt  Pt28  1  0.74778000  0.50657000  0.11676000  1.0
  Pt  Pt29  1  0.74975000  0.99323000  0.11635000  1.0
  Pt  Pt30  1  0.75000000  0.00000000  0.95852000  1.0
  Pt  Pt31  1  0.75000000  0.50000000  0.95852000  1.0
  C  C32  1  0.29002000  0.24949000  0.15934000  1.0
