# generated using pymatgen
data_TaRu
_symmetry_space_group_name_H-M   Pmm2
_cell_length_a   3.17605000
_cell_length_b   4.49161000
_cell_length_c   26.73740000
_cell_angle_alpha   90.00000000
_cell_angle_beta   90.00000000
_cell_angle_gamma   90.00000000
_symmetry_Int_Tables_number   25
_chemical_formula_structural   TaRu
_chemical_formula_sum   'Ta4 Ru4'
_cell_volume   381.42446363
_cell_formula_units_Z   4
loop_
 _symmetry_equiv_pos_site_id
 _symmetry_equiv_pos_as_xyz
  1  'x, y, z'
  2  '-x, -y, z'
  3  '-x, y, z'
  4  'x, -y, z'
loop_
 _atom_site_type_symbol
 _atom_site_label
 _atom_site_symmetry_multiplicity
 _atom_site_fract_x
 _atom_site_fract_y
 _atom_site_fract_z
 _atom_site_occupancy
  Ta  Ta0  1  0.50000000  0.00000000  0.12780000  1.0
  Ta  Ta1  1  0.50000000  0.00000000  0.95800000  1.0
  Ta  Ta2  1  0.50000000  0.50000000  0.04400000  1.0
  Ta  Ta3  1  0.50000000  0.50000000  0.87401000  1.0
  Ru  Ru4  1  0.00000000  0.00000000  0.04283000  1.0
  Ru  Ru5  1  0.00000000  0.00000000  0.87401000  1.0
  Ru  Ru6  1  0.00000000  0.50000000  0.12047000  1.0
  Ru  Ru7  1  0.00000000  0.50000000  0.95800000  1.0
