# generated using pymatgen
data_ScPt
_symmetry_space_group_name_H-M   'P 1'
_cell_length_a   3.32512000
_cell_length_b   4.70242500
_cell_length_c   27.05360000
_cell_angle_alpha   90.00000000
_cell_angle_beta   90.00000000
_cell_angle_gamma   90.00000000
_symmetry_Int_Tables_number   1
_chemical_formula_structural   ScPt
_chemical_formula_sum   'Sc4 Pt4'
_cell_volume   423.01353666
_cell_formula_units_Z   4
loop_
 _symmetry_equiv_pos_site_id
 _symmetry_equiv_pos_as_xyz
  1  'x, y, z'
loop_
 _atom_site_type_symbol
 _atom_site_label
 _atom_site_symmetry_multiplicity
 _atom_site_fract_x
 _atom_site_fract_y
 _atom_site_fract_z
 _atom_site_occupancy
  Sc  Sc0  1  0.50000000  0.50000000  0.86964000  1.0
  Sc  Sc1  1  0.50000000  0.00000000  0.95655000  1.0
  Sc  Sc2  1  0.50000000  0.50000000  0.04268000  1.0
  Sc  Sc3  1  0.50000000  0.00000000  0.12937000  1.0
  Pt  Pt4  1  0.00000000  0.00000000  0.86964000  1.0
  Pt  Pt5  1  0.00000000  0.50000000  0.95655000  1.0
  Pt  Pt6  1  0.00000000  0.00000000  0.04328250  1.0
  Pt  Pt7  1  0.00000000  0.50000000  0.12170250  1.0
