# generated using pymatgen
data_Mn8Ni16Sn8CO
_symmetry_space_group_name_H-M   'P 1'
_cell_length_a   6.10266000
_cell_length_b   8.63046000
_cell_length_c   26.47280000
_cell_angle_alpha   90.00000000
_cell_angle_beta   90.00000000
_cell_angle_gamma   90.00000000
_symmetry_Int_Tables_number   1
_chemical_formula_structural   Mn8Ni16Sn8CO
_chemical_formula_sum   'Mn8 Ni16 Sn8 C1 O1'
_cell_volume   1394.28962977
_cell_formula_units_Z   1
loop_
 _symmetry_equiv_pos_site_id
 _symmetry_equiv_pos_as_xyz
  1  'x, y, z'
loop_
 _atom_site_type_symbol
 _atom_site_label
 _atom_site_symmetry_multiplicity
 _atom_site_fract_x
 _atom_site_fract_y
 _atom_site_fract_z
 _atom_site_occupancy
  Mn  Mn0  1  0.00000000  0.00000000  0.87775000  1.0
  Mn  Mn1  1  0.50000000  0.25000000  0.95925000  1.0
  Mn  Mn2  1  0.50000000  0.75000000  0.95925000  1.0
  Mn  Mn3  1  1.00000000  0.50000000  0.87775000  1.0
  Mn  Mn4  1  0.99773000  0.50001000  0.03913000  1.0
  Mn  Mn5  1  0.50201000  0.74343000  0.12190000  1.0
  Mn  Mn6  1  0.50200000  0.25659000  0.12190000  1.0
  Mn  Mn7  1  0.00464000  0.99999000  0.04152000  1.0
  Ni  Ni8  1  0.25000000  0.00000000  0.95925000  1.0
  Ni  Ni9  1  0.75000000  0.50000000  0.95925000  1.0
  Ni  Ni10  1  0.75000000  0.00000000  0.95925000  1.0
  Ni  Ni11  1  0.25000000  0.50000000  0.95925000  1.0
  Ni  Ni12  1  0.75000000  0.75000000  0.87775000  1.0
  Ni  Ni13  1  0.25000000  0.25000000  0.87775000  1.0
  Ni  Ni14  1  0.25000000  0.75000000  0.87775000  1.0
  Ni  Ni15  1  0.75000000  0.25000000  0.87775000  1.0
  Ni  Ni16  1  0.23972000  0.50003000  0.11587000  1.0
  Ni  Ni17  1  0.75958000  0.99997000  0.11534000  1.0
  Ni  Ni18  1  0.75570000  0.50004000  0.11623000  1.0
  Ni  Ni19  1  0.25595000  0.99997000  0.12628000  1.0
  Ni  Ni20  1  0.75499000  0.24863000  0.04235000  1.0
  Ni  Ni21  1  0.24117000  0.74994000  0.04371000  1.0
  Ni  Ni22  1  0.24112000  0.25007000  0.04373000  1.0
  Ni  Ni23  1  0.75496000  0.75137000  0.04234000  1.0
  Sn  Sn24  1  0.00000000  0.75000000  0.95925000  1.0
  Sn  Sn25  1  0.50000000  0.00000000  0.87775000  1.0
  Sn  Sn26  1  0.00000000  0.25000000  0.95925000  1.0
  Sn  Sn27  1  0.50000000  0.50000000  0.87775000  1.0
  Sn  Sn28  1  0.99528000  0.25127000  0.12997000  1.0
  Sn  Sn29  1  0.49935000  0.50001000  0.03914000  1.0
  Sn  Sn30  1  0.99528000  0.74873000  0.12996000  1.0
  Sn  Sn31  1  0.49495000  0.99999000  0.04012000  1.0
  C  C32  1  0.37870000  0.99998000  0.18693000  1.0
  O  O33  1  0.43657000  0.00000000  0.22876000  1.0
