# generated using pymatgen
data_Ta4Ir12CO
_symmetry_space_group_name_H-M   'P 1'
_cell_length_a   7.86698000
_cell_length_b   5.56279000
_cell_length_c   24.17210000
_cell_angle_alpha   90.00000000
_cell_angle_beta   90.00000000
_cell_angle_gamma   90.00000000
_symmetry_Int_Tables_number   1
_chemical_formula_structural   Ta4Ir12CO
_chemical_formula_sum   'Ta4 Ir12 C1 O1'
_cell_volume   1057.82808594
_cell_formula_units_Z   1
loop_
 _symmetry_equiv_pos_site_id
 _symmetry_equiv_pos_as_xyz
  1  'x, y, z'
loop_
 _atom_site_type_symbol
 _atom_site_label
 _atom_site_symmetry_multiplicity
 _atom_site_fract_x
 _atom_site_fract_y
 _atom_site_fract_z
 _atom_site_occupancy
  Ta  Ta0  1  0.75000000  0.00000000  0.91370000  1.0
  Ta  Ta1  1  0.74951000  0.50016000  0.03190000  1.0
  Ta  Ta2  1  0.25000000  0.00000000  0.91370000  1.0
  Ta  Ta3  1  0.25049000  0.50016000  0.03190000  1.0
  Ir  Ir4  1  0.75000000  0.50000000  0.91370000  1.0
  Ir  Ir5  1  0.50000000  0.25000000  0.97123000  1.0
  Ir  Ir6  1  0.50000000  0.75000000  0.97123000  1.0
  Ir  Ir7  1  0.75028000  0.00050000  0.02310000  1.0
  Ir  Ir8  1  0.50000000  0.75452000  0.08496000  1.0
  Ir  Ir9  1  0.50000000  0.25781000  0.08131000  1.0
  Ir  Ir10  1  0.25000000  0.50000000  0.91370000  1.0
  Ir  Ir11  1  0.00000000  0.25000000  0.97123000  1.0
  Ir  Ir12  1  0.00000000  0.75000000  0.97123000  1.0
  Ir  Ir13  1  0.24972000  0.00050000  0.02310000  1.0
  Ir  Ir14  1  0.00000000  0.74230000  0.08147000  1.0
  Ir  Ir15  1  0.00000000  0.25674000  0.08163000  1.0
  C  C16  1  0.50000000  0.75046000  0.16272000  1.0
  O  O17  1  0.50000000  0.74656000  0.21070000  1.0
