# generated using pymatgen
data_Ta4Ir12CO
_symmetry_space_group_name_H-M   Pm
_cell_length_a   5.56279000
_cell_length_b   7.86698000
_cell_length_c   24.17210000
_cell_angle_alpha   90.00000000
_cell_angle_beta   90.00000000
_cell_angle_gamma   90.00000000
_symmetry_Int_Tables_number   6
_chemical_formula_structural   Ta4Ir12CO
_chemical_formula_sum   'Ta4 Ir12 C1 O1'
_cell_volume   1057.82808594
_cell_formula_units_Z   1
loop_
 _symmetry_equiv_pos_site_id
 _symmetry_equiv_pos_as_xyz
  1  'x, y, z'
  2  'x, -y, z'
loop_
 _atom_site_type_symbol
 _atom_site_label
 _atom_site_symmetry_multiplicity
 _atom_site_fract_x
 _atom_site_fract_y
 _atom_site_fract_z
 _atom_site_occupancy
  Ta  Ta0  2  0.00000000  0.25000000  0.08630000  1.0
  Ta  Ta1  2  0.50016000  0.25049000  0.96810000  1.0
  Ir  Ir2  2  0.00050000  0.24972000  0.97690000  1.0
  Ir  Ir3  2  0.50000000  0.25000000  0.08630000  1.0
  Ir  Ir4  1  0.25000000  0.00000000  0.02877000  1.0
  Ir  Ir5  1  0.25000000  0.50000000  0.02877000  1.0
  Ir  Ir6  1  0.25674000  0.00000000  0.91837000  1.0
  Ir  Ir7  1  0.25781000  0.50000000  0.91869000  1.0
  Ir  Ir8  1  0.74230000  0.00000000  0.91853000  1.0
  Ir  Ir9  1  0.75000000  0.00000000  0.02877000  1.0
  Ir  Ir10  1  0.75000000  0.50000000  0.02877000  1.0
  Ir  Ir11  1  0.75452000  0.50000000  0.91504000  1.0
  C  C12  1  0.75046000  0.50000000  0.83728000  1.0
  O  O13  1  0.74656000  0.50000000  0.78930000  1.0
