# generated using pymatgen
data_Y4Sn4Ge4Pd4C
_symmetry_space_group_name_H-M   P1
_cell_length_a   5.93056000
_cell_length_b   9.60308000
_cell_length_c   24.43880000
_cell_angle_alpha   90.00000000
_cell_angle_beta   90.00000000
_cell_angle_gamma   90.00000000
_symmetry_Int_Tables_number   1
_chemical_formula_structural   Y4Sn4Ge4Pd4C
_chemical_formula_sum   'Y4 Sn4 Ge4 Pd4 C1'
_cell_volume   1391.82979156
_cell_formula_units_Z   1
loop_
 _symmetry_equiv_pos_site_id
 _symmetry_equiv_pos_as_xyz
  1  'x, y, z'
loop_
 _atom_site_type_symbol
 _atom_site_label
 _atom_site_symmetry_multiplicity
 _atom_site_fract_x
 _atom_site_fract_y
 _atom_site_fract_z
 _atom_site_occupancy
  Y  Y0  1  0.50000000  0.00000000  0.90919000  1.0
  Y  Y1  1  0.50000000  0.50000000  0.90919000  1.0
  Y  Y2  1  0.91644000  0.50001000  0.03508000  1.0
  Y  Y3  1  0.91672000  0.99994000  0.02835000  1.0
  Sn  Sn4  1  0.23402000  0.25000000  0.96973000  1.0
  Sn  Sn5  1  0.23402000  0.75000000  0.96973000  1.0
  Sn  Sn6  1  0.67991000  0.76680000  0.10529000  1.0
  Sn  Sn7  1  0.68032000  0.23318000  0.10536000  1.0
  Ge  Ge8  1  0.00000000  0.00000000  0.90919000  1.0
  Ge  Ge9  1  0.00000000  0.50000000  0.90919000  1.0
  Ge  Ge10  1  0.39054000  0.00013000  0.04711000  1.0
  Ge  Ge11  1  0.42421000  0.49971000  0.05619000  1.0
  Pd  Pd12  1  0.19181000  0.74490000  0.07857000  1.0
  Pd  Pd13  1  0.19190000  0.25498000  0.07859000  1.0
  Pd  Pd14  1  0.73402000  0.25000000  0.96973000  1.0
  Pd  Pd15  1  0.73402000  0.75000000  0.96973000  1.0
  C  C16  1  0.65172000  0.00001000  0.09626000  1.0
