# generated using pymatgen
data_LiCuSnGe
_symmetry_space_group_name_H-M   Pm
_cell_length_a   6.57410000
_cell_length_b   4.64859000
_cell_length_c   26.97290000
_cell_angle_alpha   90.00000000
_cell_angle_beta   90.00000000
_cell_angle_gamma   90.00000000
_symmetry_Int_Tables_number   6
_chemical_formula_structural   LiCuSnGe
_chemical_formula_sum   'Li4 Cu4 Sn4 Ge4'
_cell_volume   824.29979500
_cell_formula_units_Z   4
loop_
 _symmetry_equiv_pos_site_id
 _symmetry_equiv_pos_as_xyz
  1  'x, y, z'
  2  'x, -y, z'
loop_
 _atom_site_type_symbol
 _atom_site_label
 _atom_site_symmetry_multiplicity
 _atom_site_fract_x
 _atom_site_fract_y
 _atom_site_fract_z
 _atom_site_occupancy
  Li  Li0  1  0.00000000  0.50000000  0.04309000  1.0
  Li  Li1  1  0.48199000  0.00000000  0.95504000  1.0
  Li  Li2  1  0.50000000  0.00000000  0.12926000  1.0
  Li  Li3  1  0.95574000  0.50000000  0.85544000  1.0
  Cu  Cu4  1  0.00000000  0.00000000  0.12926000  1.0
  Cu  Cu5  1  0.02995500  0.00000000  0.94565000  1.0
  Cu  Cu6  1  0.50000000  0.50000000  0.04309000  1.0
  Cu  Cu7  1  0.51318500  0.50000000  0.87736000  1.0
  Sn  Sn8  1  0.25000000  0.00000000  0.04309000  1.0
  Sn  Sn9  1  0.26971000  0.00000000  0.85623000  1.0
  Sn  Sn10  1  0.75000000  0.50000000  0.12926000  1.0
  Sn  Sn11  1  0.76939500  0.50000000  0.95547000  1.0
  Ge  Ge12  1  0.22677000  0.50000000  0.94580000  1.0
  Ge  Ge13  1  0.25000000  0.50000000  0.12926000  1.0
  Ge  Ge14  1  0.70602000  0.00000000  0.86619000  1.0
  Ge  Ge15  1  0.75000000  0.00000000  0.04309000  1.0
