# generated using pymatgen
data_Sc4Al4In4Pd4CO
_symmetry_space_group_name_H-M   'P 1'
_cell_length_a   8.60736000
_cell_length_b   5.88291000
_cell_length_c   24.41210000
_cell_angle_alpha   90.00000000
_cell_angle_beta   90.00000000
_cell_angle_gamma   90.00000000
_symmetry_Int_Tables_number   1
_chemical_formula_structural   Sc4Al4In4Pd4CO
_chemical_formula_sum   'Sc4 Al4 In4 Pd4 C1 O1'
_cell_volume   1236.13901043
_cell_formula_units_Z   1
loop_
 _symmetry_equiv_pos_site_id
 _symmetry_equiv_pos_as_xyz
  1  'x, y, z'
loop_
 _atom_site_type_symbol
 _atom_site_label
 _atom_site_symmetry_multiplicity
 _atom_site_fract_x
 _atom_site_fract_y
 _atom_site_fract_z
 _atom_site_occupancy
  Sc  Sc0  1  0.24843000  0.25832000  0.97388000  1.0
  Sc  Sc1  1  0.25000000  0.74688000  0.09037000  1.0
  Sc  Sc2  1  0.75157000  0.25832000  0.97388000  1.0
  Sc  Sc3  1  0.75000000  0.74688000  0.09037000  1.0
  Al  Al4  1  0.00000000  0.98577000  0.91323000  1.0
  Al  Al5  1  0.00000000  0.49792000  0.03012000  1.0
  Al  Al6  1  0.50000000  0.97483000  0.91673000  1.0
  Al  Al7  1  0.50000000  0.49792000  0.03012000  1.0
  In  In8  1  0.00000000  0.51002000  0.90751000  1.0
  In  In9  1  0.00000000  0.99792000  0.03012000  1.0
  In  In10  1  0.50000000  0.50535000  0.90587000  1.0
  In  In11  1  0.50000000  0.99792000  0.03012000  1.0
  Pd  Pd12  1  0.24788000  0.76565000  0.96355000  1.0
  Pd  Pd13  1  0.25000000  0.24688000  0.09037000  1.0
  Pd  Pd14  1  0.75212000  0.76565000  0.96355000  1.0
  Pd  Pd15  1  0.75000000  0.24688000  0.09037000  1.0
  C  C16  1  0.00000000  0.99240000  0.83083000  1.0
  O  O17  1  0.00000000  0.99443000  0.78354000  1.0
