# generated using pymatgen
data_Ti8Co16Sn8C
_symmetry_space_group_name_H-M   'P 1'
_cell_length_a   8.64705000
_cell_length_b   6.11439000
_cell_length_c   26.48530000
_cell_angle_alpha   90.00000000
_cell_angle_beta   90.00000000
_cell_angle_gamma   90.00000000
_symmetry_Int_Tables_number   1
_chemical_formula_structural   Ti8Co16Sn8C
_chemical_formula_sum   'Ti8 Co16 Sn8 C1'
_cell_volume   1400.31584520
_cell_formula_units_Z   1
loop_
 _symmetry_equiv_pos_site_id
 _symmetry_equiv_pos_as_xyz
  1  'x, y, z'
loop_
 _atom_site_type_symbol
 _atom_site_label
 _atom_site_symmetry_multiplicity
 _atom_site_fract_x
 _atom_site_fract_y
 _atom_site_fract_z
 _atom_site_occupancy
  Ti  Ti0  1  0.75000000  0.00000000  0.12243000  1.0
  Ti  Ti1  1  0.00000000  0.50000000  0.04081000  1.0
  Ti  Ti2  1  0.50000000  0.50000000  0.04081000  1.0
  Ti  Ti3  1  0.25000000  0.00000000  0.12243000  1.0
  Ti  Ti4  1  0.25085000  0.99791000  0.95764000  1.0
  Ti  Ti5  1  0.50000000  0.52079000  0.87985000  1.0
  Ti  Ti6  1  0.00000000  0.55196000  0.88229000  1.0
  Ti  Ti7  1  0.74915000  0.99791000  0.95764000  1.0
  Co  Co8  1  0.75000000  0.25000000  0.04081000  1.0
  Co  Co9  1  0.25000000  0.75000000  0.04081000  1.0
  Co  Co10  1  0.75000000  0.75000000  0.04081000  1.0
  Co  Co11  1  0.25000000  0.25000000  0.04081000  1.0
  Co  Co12  1  0.50000000  0.75000000  0.12243000  1.0
  Co  Co13  1  0.00000000  0.25000000  0.12243000  1.0
  Co  Co14  1  0.50000000  0.25000000  0.12243000  1.0
  Co  Co15  1  0.00000000  0.75000000  0.12243000  1.0
  Co  Co16  1  0.21134000  0.19674000  0.88389000  1.0
  Co  Co17  1  0.74982000  0.77062000  0.88277000  1.0
  Co  Co18  1  0.25018000  0.77062000  0.88277000  1.0
  Co  Co19  1  0.78866000  0.19674000  0.88389000  1.0
  Co  Co20  1  0.00000000  0.75233000  0.95843000  1.0
  Co  Co21  1  0.50000000  0.26207000  0.95824000  1.0
  Co  Co22  1  0.00000000  0.23852000  0.95358000  1.0
  Co  Co23  1  0.50000000  0.75081000  0.95495000  1.0
  Sn  Sn24  1  0.50000000  0.00000000  0.04081000  1.0
  Sn  Sn25  1  0.75000000  0.50000000  0.12243000  1.0
  Sn  Sn26  1  0.00000000  0.00000000  0.04081000  1.0
  Sn  Sn27  1  0.25000000  0.50000000  0.12243000  1.0
  Sn  Sn28  1  0.00000000  0.93370000  0.82385000  1.0
  Sn  Sn29  1  0.24759000  0.50056000  0.95887000  1.0
  Sn  Sn30  1  0.50000000  0.02717000  0.86774000  1.0
  Sn  Sn31  1  0.75241000  0.50056000  0.95887000  1.0
  C  C32  1  0.00000000  0.22289000  0.87723000  1.0
