# generated using pymatgen
data_Ti8Co16Sn8C
_symmetry_space_group_name_H-M   Pm
_cell_length_a   6.11439000
_cell_length_b   8.64705000
_cell_length_c   26.48530000
_cell_angle_alpha   90.00000000
_cell_angle_beta   90.00000000
_cell_angle_gamma   90.00000000
_symmetry_Int_Tables_number   6
_chemical_formula_structural   Ti8Co16Sn8C
_chemical_formula_sum   'Ti8 Co16 Sn8 C1'
_cell_volume   1400.31584520
_cell_formula_units_Z   1
loop_
 _symmetry_equiv_pos_site_id
 _symmetry_equiv_pos_as_xyz
  1  'x, y, z'
  2  'x, -y, z'
loop_
 _atom_site_type_symbol
 _atom_site_label
 _atom_site_symmetry_multiplicity
 _atom_site_fract_x
 _atom_site_fract_y
 _atom_site_fract_z
 _atom_site_occupancy
  Ti  Ti0  2  0.00000000  0.25000000  0.87757000  1.0
  Ti  Ti1  2  0.99791000  0.25085000  0.04236000  1.0
  Ti  Ti2  1  0.50000000  0.00000000  0.95919000  1.0
  Ti  Ti3  1  0.50000000  0.50000000  0.95919000  1.0
  Ti  Ti4  1  0.52079000  0.50000000  0.12015000  1.0
  Ti  Ti5  1  0.55196000  0.00000000  0.11771000  1.0
  Co  Co6  2  0.19674000  0.21134000  0.11611000  1.0
  Co  Co7  2  0.25000000  0.25000000  0.95919000  1.0
  Co  Co8  2  0.75000000  0.25000000  0.95919000  1.0
  Co  Co9  2  0.77062000  0.25018000  0.11723000  1.0
  Co  Co10  1  0.23852000  0.00000000  0.04642000  1.0
  Co  Co11  1  0.25000000  0.00000000  0.87757000  1.0
  Co  Co12  1  0.25000000  0.50000000  0.87757000  1.0
  Co  Co13  1  0.26207000  0.50000000  0.04176000  1.0
  Co  Co14  1  0.75000000  0.00000000  0.87757000  1.0
  Co  Co15  1  0.75000000  0.50000000  0.87757000  1.0
  Co  Co16  1  0.75081000  0.50000000  0.04505000  1.0
  Co  Co17  1  0.75233000  0.00000000  0.04157000  1.0
  Sn  Sn18  2  0.50000000  0.25000000  0.87757000  1.0
  Sn  Sn19  2  0.50056000  0.24759000  0.04113000  1.0
  Sn  Sn20  1  0.00000000  0.00000000  0.95919000  1.0
  Sn  Sn21  1  0.00000000  0.50000000  0.95919000  1.0
  Sn  Sn22  1  0.02717000  0.50000000  0.13226000  1.0
  Sn  Sn23  1  0.93370000  0.00000000  0.17615000  1.0
  C  C24  1  0.22289000  0.00000000  0.12277000  1.0
