data_image0
_chemical_formula_structural       Y16Ag16C
_chemical_formula_sum              "Y16 Ag16 C1"
_cell_length_a       7.32505
_cell_length_b       10.3592
_cell_length_c       27.7694
_cell_angle_alpha    90
_cell_angle_beta     90
_cell_angle_gamma    90

_space_group_name_H-M_alt    "P 1"
_space_group_IT_number       1

loop_
  _space_group_symop_operation_xyz
  'x, y, z'

loop_
  _atom_site_type_symbol
  _atom_site_label
  _atom_site_symmetry_multiplicity
  _atom_site_fract_x
  _atom_site_fract_y
  _atom_site_fract_z
  _atom_site_occupancy
  Y   Y1        1.0  0.25000  0.25000  0.86011  1.0000
  Y   Y2        1.0  0.25000  0.00000  0.95337  1.0000
  Y   Y3        1.0  0.25272  0.26010  0.04592  1.0000
  Y   Y4        1.0  0.22817  0.00069  0.14216  1.0000
  Y   Y5        1.0  0.25000  0.75000  0.86011  1.0000
  Y   Y6        1.0  0.25000  0.50000  0.95337  1.0000
  Y   Y7        1.0  0.23017  0.76546  0.05082  1.0000
  Y   Y8        1.0  0.25669  0.49788  0.13962  1.0000
  Y   Y9        1.0  0.75000  0.25000  0.86011  1.0000
  Y   Y10       1.0  0.75000  0.00000  0.95337  1.0000
  Y   Y11       1.0  0.74772  0.25983  0.04537  1.0000
  Y   Y12       1.0  0.76967  0.00075  0.14240  1.0000
  Y   Y13       1.0  0.75000  0.75000  0.86011  1.0000
  Y   Y14       1.0  0.75000  0.50000  0.95337  1.0000
  Y   Y15       1.0  0.76865  0.76557  0.05062  1.0000
  Y   Y16       1.0  0.74410  0.49893  0.13965  1.0000
  Ag  Ag1       1.0  0.00000  0.00000  0.86011  1.0000
  Ag  Ag2       1.0  0.00000  0.25000  0.95337  1.0000
  Ag  Ag3       1.0  0.99976  0.02725  0.03902  1.0000
  Ag  Ag4       1.0  0.99952  0.25905  0.13057  1.0000
  Ag  Ag5       1.0  0.00000  0.50000  0.86011  1.0000
  Ag  Ag6       1.0  0.00000  0.75000  0.95337  1.0000
  Ag  Ag7       1.0  0.00038  0.50927  0.05095  1.0000
  Ag  Ag8       1.0  0.99915  0.71347  0.13843  1.0000
  Ag  Ag9       1.0  0.50000  0.00000  0.86011  1.0000
  Ag  Ag10      1.0  0.50000  0.25000  0.95337  1.0000
  Ag  Ag11      1.0  0.50102  0.01021  0.05340  1.0000
  Ag  Ag12      1.0  0.49961  0.24147  0.13241  1.0000
  Ag  Ag13      1.0  0.50000  0.50000  0.86011  1.0000
  Ag  Ag14      1.0  0.50000  0.75000  0.95337  1.0000
  Ag  Ag15      1.0  0.49921  0.50913  0.04588  1.0000
  Ag  Ag16      1.0  0.50030  0.75204  0.13707  1.0000
  C   C1        1.0  0.00340  0.89227  0.10158  1.0000
