# generated using pymatgen
data_Y16Ag16C
_symmetry_space_group_name_H-M   P1
_cell_length_a   7.32505000
_cell_length_b   10.35920000
_cell_length_c   27.76940000
_cell_angle_alpha   90.00000000
_cell_angle_beta   90.00000000
_cell_angle_gamma   90.00000000
_symmetry_Int_Tables_number   1
_chemical_formula_structural   Y16Ag16C
_chemical_formula_sum   'Y16 Ag16 C1'
_cell_volume   2107.18811255
_cell_formula_units_Z   1
loop_
 _symmetry_equiv_pos_site_id
 _symmetry_equiv_pos_as_xyz
  1  'x, y, z'
loop_
 _atom_site_type_symbol
 _atom_site_label
 _atom_site_symmetry_multiplicity
 _atom_site_fract_x
 _atom_site_fract_y
 _atom_site_fract_z
 _atom_site_occupancy
  Y  Y0  1  0.22817000  0.00069000  0.14216000  1.0
  Y  Y1  1  0.23017000  0.76546000  0.05082000  1.0
  Y  Y2  1  0.25000000  0.00000000  0.95337000  1.0
  Y  Y3  1  0.25000000  0.25000000  0.86011000  1.0
  Y  Y4  1  0.25000000  0.50000000  0.95337000  1.0
  Y  Y5  1  0.25000000  0.75000000  0.86011000  1.0
  Y  Y6  1  0.25272000  0.26010000  0.04592000  1.0
  Y  Y7  1  0.25669000  0.49788000  0.13962000  1.0
  Y  Y8  1  0.74410000  0.49893000  0.13965000  1.0
  Y  Y9  1  0.74772000  0.25983000  0.04537000  1.0
  Y  Y10  1  0.75000000  0.00000000  0.95337000  1.0
  Y  Y11  1  0.75000000  0.25000000  0.86011000  1.0
  Y  Y12  1  0.75000000  0.50000000  0.95337000  1.0
  Y  Y13  1  0.75000000  0.75000000  0.86011000  1.0
  Y  Y14  1  0.76865000  0.76557000  0.05062000  1.0
  Y  Y15  1  0.76967000  0.00075000  0.14240000  1.0
  Ag  Ag16  1  -0.00000000  0.25000000  0.95337000  1.0
  Ag  Ag17  1  -0.00000000  0.75000000  0.95337000  1.0
  Ag  Ag18  1  0.00000000  0.00000000  0.86011000  1.0
  Ag  Ag19  1  0.00000000  0.50000000  0.86011000  1.0
  Ag  Ag20  1  0.00038000  0.50927000  0.05095000  1.0
  Ag  Ag21  1  0.49921000  0.50913000  0.04588000  1.0
  Ag  Ag22  1  0.49961000  0.24147000  0.13241000  1.0
  Ag  Ag23  1  0.50000000  0.00000000  0.86011000  1.0
  Ag  Ag24  1  0.50000000  0.25000000  0.95337000  1.0
  Ag  Ag25  1  0.50000000  0.50000000  0.86011000  1.0
  Ag  Ag26  1  0.50000000  0.75000000  0.95337000  1.0
  Ag  Ag27  1  0.50030000  0.75204000  0.13707000  1.0
  Ag  Ag28  1  0.50102000  0.01021000  0.05340000  1.0
  Ag  Ag29  1  0.99915000  0.71347000  0.13843000  1.0
  Ag  Ag30  1  0.99952000  0.25905000  0.13057000  1.0
  Ag  Ag31  1  0.99976000  0.02725000  0.03902000  1.0
  C  C32  1  0.00340000  0.89227000  0.10158000  1.0
