# generated using pymatgen
data_MgIn3
_symmetry_space_group_name_H-M   'P 1'
_cell_length_a   4.71131000
_cell_length_b   4.71131000
_cell_length_c   27.06700000
_cell_angle_alpha   90.00000000
_cell_angle_beta   90.00000000
_cell_angle_gamma   90.00000000
_symmetry_Int_Tables_number   1
_chemical_formula_structural   MgIn3
_chemical_formula_sum   'Mg2 In6'
_cell_volume   600.79109334
_cell_formula_units_Z   2
loop_
 _symmetry_equiv_pos_site_id
 _symmetry_equiv_pos_as_xyz
  1  'x, y, z'
loop_
 _atom_site_type_symbol
 _atom_site_label
 _atom_site_symmetry_multiplicity
 _atom_site_fract_x
 _atom_site_fract_y
 _atom_site_fract_z
 _atom_site_occupancy
  Mg  Mg0  1  0.00000000  0.00000000  0.86945000  1.0
  Mg  Mg1  1  0.00000000  0.00000000  0.04352000  1.0
  In  In2  1  0.50000000  0.00000000  0.95648000  1.0
  In  In3  1  0.00000000  0.50000000  0.95648000  1.0
  In  In4  1  0.50000000  0.50000000  0.86945000  1.0
  In  In5  1  0.50000000  0.00000000  0.13055000  1.0
  In  In6  1  0.00000000  0.50000000  0.13055000  1.0
  In  In7  1  0.50000000  0.50000000  0.04352000  1.0
