# generated using pymatgen
data_LiYGePb
_symmetry_space_group_name_H-M   'P 1'
_cell_length_a   6.08443000
_cell_length_b   4.93064000
_cell_length_c   24.56300000
_cell_angle_alpha   90.00000000
_cell_angle_beta   90.00000000
_cell_angle_gamma   90.00000000
_symmetry_Int_Tables_number   1
_chemical_formula_structural   LiYGePb
_chemical_formula_sum   'Li2 Y2 Ge2 Pb2'
_cell_volume   736.89328985
_cell_formula_units_Z   2
loop_
 _symmetry_equiv_pos_site_id
 _symmetry_equiv_pos_as_xyz
  1  'x, y, z'
loop_
 _atom_site_type_symbol
 _atom_site_label
 _atom_site_symmetry_multiplicity
 _atom_site_fract_x
 _atom_site_fract_y
 _atom_site_fract_z
 _atom_site_occupancy
  Li  Li0  1  0.24832500  0.50000000  0.97021500  1.0
  Li  Li1  1  0.74120000  0.50000000  0.09288000  1.0
  Y  Y2  1  0.48688500  0.00000000  0.90925500  1.0
  Y  Y3  1  0.99413000  0.00000000  0.03096000  1.0
  Ge  Ge4  1  0.99056000  0.00000000  0.90602500  1.0
  Ge  Ge5  1  0.49413000  0.00000000  0.03096000  1.0
  Pb  Pb6  1  0.76025000  0.50000000  0.95883500  1.0
  Pb  Pb7  1  0.24120000  0.50000000  0.09288000  1.0
