data_image0
_chemical_formula_structural       Pt12Pb4C
_chemical_formula_sum              "Pt12 Pb4 C1"
_cell_length_a       8.34058
_cell_length_b       5.89768
_cell_length_c       24.4233
_cell_angle_alpha    90
_cell_angle_beta     90
_cell_angle_gamma    90

_space_group_name_H-M_alt    "P 1"
_space_group_IT_number       1

loop_
  _space_group_symop_operation_xyz
  'x, y, z'

loop_
  _atom_site_type_symbol
  _atom_site_label
  _atom_site_symmetry_multiplicity
  _atom_site_fract_x
  _atom_site_fract_y
  _atom_site_fract_z
  _atom_site_occupancy
  Pt  Pt1       1.0  0.00000  0.50000  0.90945  1.0000
  Pt  Pt2       1.0  0.25000  0.75000  0.96982  1.0000
  Pt  Pt3       1.0  0.25000  0.25000  0.96982  1.0000
  Pt  Pt4       1.0  1.00000  1.00000  0.02298  1.0000
  Pt  Pt5       1.0  0.19164  0.23625  0.09767  1.0000
  Pt  Pt6       1.0  0.19165  0.76375  0.09767  1.0000
  Pt  Pt7       1.0  0.50000  0.50000  0.90945  1.0000
  Pt  Pt8       1.0  0.75000  0.75000  0.96982  1.0000
  Pt  Pt9       1.0  0.75000  0.25000  0.96982  1.0000
  Pt  Pt10      1.0  0.50000  0.00001  0.03220  1.0000
  Pt  Pt11      1.0  0.80835  0.23625  0.09767  1.0000
  Pt  Pt12      1.0  0.80835  0.76375  0.09767  1.0000
  Pb  Pb1       1.0  0.00000  0.00000  0.90945  1.0000
  Pb  Pb2       1.0  1.00000  0.50000  0.02634  1.0000
  Pb  Pb3       1.0  0.50000  0.00000  0.90945  1.0000
  Pb  Pb4       1.0  0.50000  0.50001  0.08229  1.0000
  C   C1        1.0  1.00000  0.00001  0.10793  1.0000
