# generated using pymatgen
data_K8Na16Sb8CO
_symmetry_space_group_name_H-M   Pmm2
_cell_length_a   7.84214000
_cell_length_b   11.09050000
_cell_length_c   28.31780000
_cell_angle_alpha   90.00000000
_cell_angle_beta   90.00000000
_cell_angle_gamma   90.00000000
_symmetry_Int_Tables_number   25
_chemical_formula_structural   K8Na16Sb8CO
_chemical_formula_sum   'K8 Na16 Sb8 C1 O1'
_cell_volume   2462.89120278
_cell_formula_units_Z   1
loop_
 _symmetry_equiv_pos_site_id
 _symmetry_equiv_pos_as_xyz
  1  'x, y, z'
  2  '-x, -y, z'
  3  '-x, y, z'
  4  'x, -y, z'
loop_
 _atom_site_type_symbol
 _atom_site_label
 _atom_site_symmetry_multiplicity
 _atom_site_fract_x
 _atom_site_fract_y
 _atom_site_fract_z
 _atom_site_occupancy
  K  K0  2  0.00000000  0.25000000  0.04896000  1.0
  K  K1  2  0.00000000  0.25000000  0.85313000  1.0
  K  K2  1  0.50000000  0.00000000  0.14687000  1.0
  K  K3  1  0.50000000  0.00000000  0.95104000  1.0
  K  K4  1  0.50000000  0.50000000  0.14687000  1.0
  K  K5  1  0.50000000  0.50000000  0.95104000  1.0
  Na  Na6  4  0.25000000  0.25000000  0.14687000  1.0
  Na  Na7  4  0.25000000  0.25000000  0.95104000  1.0
  Na  Na8  2  0.25000000  0.00000000  0.85313000  1.0
  Na  Na9  2  0.25000000  0.50000000  0.04896000  1.0
  Na  Na10  2  0.25000000  0.00000000  0.04896000  1.0
  Na  Na11  2  0.25000000  0.50000000  0.85313000  1.0
  Sb  Sb12  2  0.50000000  0.25000000  0.04896000  1.0
  Sb  Sb13  2  0.50000000  0.25000000  0.85313000  1.0
  Sb  Sb14  1  0.00000000  0.00000000  0.14687000  1.0
  Sb  Sb15  1  0.00000000  0.00000000  0.95104000  1.0
  Sb  Sb16  1  0.00000000  0.50000000  0.14687000  1.0
  Sb  Sb17  1  0.00000000  0.50000000  0.95104000  1.0
  C  C18  1  0.50000000  0.00000000  0.21396000  1.0
  O  O19  1  0.50000000  0.00000000  0.25457000  1.0
