data_image0
_chemical_formula_structural       Li4In4Cu4Sn4
_chemical_formula_sum              "Li4 In4 Cu4 Sn4"
_cell_length_a       6.73938
_cell_length_b       6.73938
_cell_length_c       25.0545
_cell_angle_alpha    90
_cell_angle_beta     90
_cell_angle_gamma    90

_space_group_name_H-M_alt    "P 1"
_space_group_IT_number       1

loop_
  _space_group_symop_operation_xyz
  'x, y, z'

loop_
  _atom_site_type_symbol
  _atom_site_label
  _atom_site_symmetry_multiplicity
  _atom_site_fract_x
  _atom_site_fract_y
  _atom_site_fract_z
  _atom_site_occupancy
  Li  Li1       1.0  0.00000  0.50000  0.89913  1.0000
  Li  Li2       1.0  0.00000  0.00008  0.03519  1.0000
  Li  Li3       1.0  0.50002  0.50001  0.03489  1.0000
  Li  Li4       1.0  0.50000  0.00000  0.89913  1.0000
  In  In1       1.0  0.25000  0.25000  0.96638  1.0000
  In  In2       1.0  0.24983  0.75028  0.10923  1.0000
  In  In3       1.0  0.75016  0.24971  0.10924  1.0000
  In  In4       1.0  0.75000  0.75000  0.96638  1.0000
  Cu  Cu1       1.0  0.00000  0.00000  0.89913  1.0000
  Cu  Cu2       1.0  0.00002  0.49998  0.02697  1.0000
  Cu  Cu3       1.0  0.49999  0.00000  0.02698  1.0000
  Cu  Cu4       1.0  0.50000  0.50000  0.89913  1.0000
  Sn  Sn1       1.0  0.75000  0.25000  0.96638  1.0000
  Sn  Sn2       1.0  0.75043  0.75049  0.09966  1.0000
  Sn  Sn3       1.0  0.24957  0.24951  0.09967  1.0000
  Sn  Sn4       1.0  0.25000  0.75000  0.96638  1.0000
