# generated using pymatgen
data_Li8In8Pd8Ru8C
_symmetry_space_group_name_H-M   'P 1'
_cell_length_a   8.93846000
_cell_length_b   6.32045000
_cell_length_c   26.70380000
_cell_angle_alpha   90.00000000
_cell_angle_beta   90.00000000
_cell_angle_gamma   90.00000000
_symmetry_Int_Tables_number   1
_chemical_formula_structural   Li8In8Pd8Ru8C
_chemical_formula_sum   'Li8 In8 Pd8 Ru8 C1'
_cell_volume   1508.63357118
_cell_formula_units_Z   1
loop_
 _symmetry_equiv_pos_site_id
 _symmetry_equiv_pos_as_xyz
  1  'x, y, z'
loop_
 _atom_site_type_symbol
 _atom_site_label
 _atom_site_symmetry_multiplicity
 _atom_site_fract_x
 _atom_site_fract_y
 _atom_site_fract_z
 _atom_site_occupancy
  Li  Li0  1  0.00000000  1.00000000  0.04184000  1.0
  Li  Li1  1  0.50000000  1.00000000  0.04184000  1.0
  Li  Li2  1  0.25002000  0.50000000  0.12552000  1.0
  Li  Li3  1  0.74998000  0.50000000  0.12552000  1.0
  Li  Li4  1  0.50000000  0.00586000  0.86723000  1.0
  Li  Li5  1  0.00000000  0.95339000  0.88446000  1.0
  Li  Li6  1  0.75195000  0.49653000  0.95625000  1.0
  Li  Li7  1  0.24805000  0.49653000  0.95625000  1.0
  In  In8  1  0.75002000  0.00000000  0.12552000  1.0
  In  In9  1  0.24998000  0.00000000  0.12552000  1.0
  In  In10  1  0.50000000  0.50000000  0.04184000  1.0
  In  In11  1  0.00000000  0.50000000  0.04184000  1.0
  In  In12  1  0.25384000  0.00268000  0.95840000  1.0
  In  In13  1  0.74616000  0.00268000  0.95840000  1.0
  In  In14  1  0.00000000  0.56530000  0.87002000  1.0
  In  In15  1  0.50000000  0.47416000  0.86761000  1.0
  Pd  Pd16  1  0.75002000  0.75000000  0.04184000  1.0
  Pd  Pd17  1  0.24998000  0.75000000  0.04184000  1.0
  Pd  Pd18  1  0.00000000  0.25000000  0.12552000  1.0
  Pd  Pd19  1  0.50000000  0.25000000  0.12552000  1.0
  Pd  Pd20  1  0.26677000  0.75103000  0.87649000  1.0
  Pd  Pd21  1  0.73323000  0.75103000  0.87649000  1.0
  Pd  Pd22  1  0.50000000  0.25522000  0.95575000  1.0
  Pd  Pd23  1  0.00000000  0.25629000  0.95732000  1.0
  Ru  Ru24  1  0.75002000  0.25000000  0.04184000  1.0
  Ru  Ru25  1  0.24998000  0.25000000  0.04184000  1.0
  Ru  Ru26  1  0.00000000  0.75000000  0.12552000  1.0
  Ru  Ru27  1  0.50000000  0.75000000  0.12552000  1.0
  Ru  Ru28  1  0.19849000  0.23633000  0.87001000  1.0
  Ru  Ru29  1  0.80151000  0.23633000  0.87001000  1.0
  Ru  Ru30  1  0.50000000  0.74040000  0.95375000  1.0
  Ru  Ru31  1  0.00000000  0.75119000  0.96180000  1.0
  C  C32  1  0.00000000  0.21931000  0.85064000  1.0
