# generated using pymatgen
data_Li8In8Pd8Ru8C
_symmetry_space_group_name_H-M   Pm
_cell_length_a   6.32045000
_cell_length_b   8.93846000
_cell_length_c   26.70380000
_cell_angle_alpha   90.00000000
_cell_angle_beta   90.00000000
_cell_angle_gamma   90.00000000
_symmetry_Int_Tables_number   6
_chemical_formula_structural   Li8In8Pd8Ru8C
_chemical_formula_sum   'Li8 In8 Pd8 Ru8 C1'
_cell_volume   1508.63357118
_cell_formula_units_Z   1
loop_
 _symmetry_equiv_pos_site_id
 _symmetry_equiv_pos_as_xyz
  1  'x, y, z'
  2  'x, -y, z'
loop_
 _atom_site_type_symbol
 _atom_site_label
 _atom_site_symmetry_multiplicity
 _atom_site_fract_x
 _atom_site_fract_y
 _atom_site_fract_z
 _atom_site_occupancy
  Li  Li0  2  0.49653000  0.24805000  0.04375000  1.0
  Li  Li1  2  0.50000000  0.25002000  0.87448000  1.0
  Li  Li2  1  -0.00000000  0.50000000  0.95816000  1.0
  Li  Li3  1  -0.00000000  0.00000000  0.95816000  1.0
  Li  Li4  1  0.00586000  0.50000000  0.13277000  1.0
  Li  Li5  1  0.95339000  0.00000000  0.11554000  1.0
  In  In6  2  0.00000000  0.24998000  0.87448000  1.0
  In  In7  2  0.00268000  0.25384000  0.04160000  1.0
  In  In8  1  0.47416000  0.50000000  0.13239000  1.0
  In  In9  1  0.50000000  0.00000000  0.95816000  1.0
  In  In10  1  0.50000000  0.50000000  0.95816000  1.0
  In  In11  1  0.56530000  0.00000000  0.12998000  1.0
  Ru  Ru12  2  0.23633000  0.19849000  0.12999000  1.0
  Ru  Ru13  2  0.25000000  0.24998000  0.95816000  1.0
  Pd  Pd14  2  0.75000000  0.24998000  0.95816000  1.0
  Pd  Pd15  2  0.75103000  0.26677000  0.12351000  1.0
  Pd  Pd16  1  0.25000000  0.00000000  0.87448000  1.0
  Pd  Pd17  1  0.25000000  0.50000000  0.87448000  1.0
  Pd  Pd18  1  0.25522000  0.50000000  0.04425000  1.0
  Pd  Pd19  1  0.25629000  0.00000000  0.04268000  1.0
  Ru  Ru20  1  0.74040000  0.50000000  0.04625000  1.0
  Ru  Ru21  1  0.75000000  0.00000000  0.87448000  1.0
  Ru  Ru22  1  0.75000000  0.50000000  0.87448000  1.0
  Ru  Ru23  1  0.75119000  0.00000000  0.03820000  1.0
  C  C24  1  0.21931000  0.00000000  0.14936000  1.0
