# generated using pymatgen
data_Li8Sc8In8Ag8C
_symmetry_space_group_name_H-M   'P 1'
_cell_length_a   9.45660000
_cell_length_b   6.68683000
_cell_length_c   27.09240000
_cell_angle_alpha   90.00000000
_cell_angle_beta   90.00000000
_cell_angle_gamma   90.00000000
_symmetry_Int_Tables_number   1
_chemical_formula_structural   Li8Sc8In8Ag8C
_chemical_formula_sum   'Li8 Sc8 In8 Ag8 C1'
_cell_volume   1713.17915172
_cell_formula_units_Z   1
loop_
 _symmetry_equiv_pos_site_id
 _symmetry_equiv_pos_as_xyz
  1  'x, y, z'
loop_
 _atom_site_type_symbol
 _atom_site_label
 _atom_site_symmetry_multiplicity
 _atom_site_fract_x
 _atom_site_fract_y
 _atom_site_fract_z
 _atom_site_occupancy
  Li  Li0  1  0.24999000  0.00000000  0.04363000  1.0
  Li  Li1  1  0.75001000  0.00000000  0.04363000  1.0
  Li  Li2  1  0.50000000  0.50000000  0.13089000  1.0
  Li  Li3  1  0.00000000  0.50000000  0.13089000  1.0
  Li  Li4  1  0.78383000  0.06028000  0.81350000  1.0
  Li  Li5  1  0.21617000  0.06028000  0.81350000  1.0
  Li  Li6  1  0.00000000  0.50067000  0.95273000  1.0
  Li  Li7  1  0.50000000  0.49452000  0.95221000  1.0
  Sc  Sc8  1  0.00000000  0.75000000  0.04363000  1.0
  Sc  Sc9  1  0.50000000  0.75000000  0.04363000  1.0
  Sc  Sc10  1  0.24999000  0.25000000  0.13089000  1.0
  Sc  Sc11  1  0.75001000  0.25000000  0.13089000  1.0
  Sc  Sc12  1  0.50000000  0.78009000  0.87109000  1.0
  Sc  Sc13  1  0.00000000  0.77245000  0.86738000  1.0
  Sc  Sc14  1  0.74914000  0.23822000  0.94971000  1.0
  Sc  Sc15  1  0.25086000  0.23822000  0.94971000  1.0
  In  In16  1  0.00000000  0.25000000  0.04363000  1.0
  In  In17  1  0.50000000  0.25000000  0.04363000  1.0
  In  In18  1  0.24999000  0.75000000  0.13089000  1.0
  In  In19  1  0.75001000  0.75000000  0.13089000  1.0
  In  In20  1  0.50000000  0.22902000  0.86066000  1.0
  In  In21  1  0.00000000  0.26732000  0.86655000  1.0
  In  In22  1  0.74850000  0.75131000  0.95448000  1.0
  In  In23  1  0.25150000  0.75131000  0.95448000  1.0
  Ag  Ag24  1  0.00000000  0.00000000  0.13089000  1.0
  Ag  Ag25  1  0.50000000  0.00000000  0.13089000  1.0
  Ag  Ag26  1  0.74999000  0.50000000  0.04363000  1.0
  Ag  Ag27  1  0.25001000  0.50000000  0.04363000  1.0
  Ag  Ag28  1  0.50000000  0.00373000  0.95799000  1.0
  Ag  Ag29  1  0.00000000  0.99985000  0.95858000  1.0
  Ag  Ag30  1  0.26170000  0.50157000  0.86641000  1.0
  Ag  Ag31  1  0.73830000  0.50157000  0.86641000  1.0
  C  C32  1  0.00000000  0.00075000  0.82081000  1.0
