# generated using pymatgen
data_Li8Sc8In8Ag8C
_symmetry_space_group_name_H-M   Pm
_cell_length_a   6.68683000
_cell_length_b   9.45660000
_cell_length_c   27.09240000
_cell_angle_alpha   90.00000000
_cell_angle_beta   90.00000000
_cell_angle_gamma   90.00000000
_symmetry_Int_Tables_number   6
_chemical_formula_structural   Li8Sc8In8Ag8C
_chemical_formula_sum   'Li8 Sc8 In8 Ag8 C1'
_cell_volume   1713.17915172
_cell_formula_units_Z   1
loop_
 _symmetry_equiv_pos_site_id
 _symmetry_equiv_pos_as_xyz
  1  'x, y, z'
  2  'x, -y, z'
loop_
 _atom_site_type_symbol
 _atom_site_label
 _atom_site_symmetry_multiplicity
 _atom_site_fract_x
 _atom_site_fract_y
 _atom_site_fract_z
 _atom_site_occupancy
  Li  Li0  2  0.00000000  0.24999000  0.95637000  1.0
  Li  Li1  2  0.06028000  0.21617000  0.18650000  1.0
  Li  Li2  1  0.49452000  0.50000000  0.04779000  1.0
  Li  Li3  1  0.50000000  0.00000000  0.86911000  1.0
  Li  Li4  1  0.50000000  0.50000000  0.86911000  1.0
  Li  Li5  1  0.50067000  0.00000000  0.04727000  1.0
  Sc  Sc6  2  0.23822000  0.25086000  0.05029000  1.0
  Sc  Sc7  2  0.25000000  0.24999000  0.86911000  1.0
  Sc  Sc8  1  0.75000000  0.00000000  0.95637000  1.0
  Sc  Sc9  1  0.75000000  0.50000000  0.95637000  1.0
  Sc  Sc10  1  0.77245000  0.00000000  0.13262000  1.0
  Sc  Sc11  1  0.78009000  0.50000000  0.12891000  1.0
  In  In12  2  0.75000000  0.24999000  0.86911000  1.0
  In  In13  2  0.75131000  0.25150000  0.04552000  1.0
  In  In14  1  0.22902000  0.50000000  0.13934000  1.0
  In  In15  1  0.25000000  0.00000000  0.95637000  1.0
  In  In16  1  0.25000000  0.50000000  0.95637000  1.0
  In  In17  1  0.26732000  0.00000000  0.13345000  1.0
  Ag  Ag18  2  0.50000000  0.25001000  0.95637000  1.0
  Ag  Ag19  2  0.50157000  0.26170000  0.13359000  1.0
  Ag  Ag20  1  0.00000000  0.00000000  0.86911000  1.0
  Ag  Ag21  1  0.00000000  0.50000000  0.86911000  1.0
  Ag  Ag22  1  0.00373000  0.50000000  0.04201000  1.0
  Ag  Ag23  1  0.99985000  0.00000000  0.04142000  1.0
  C  C24  1  0.00075000  0.00000000  0.17919000  1.0
