# generated using pymatgen
data_Li4In4Pd4Au4C
_symmetry_space_group_name_H-M   'P 1'
_cell_length_a   8.89782000
_cell_length_b   5.60636000
_cell_length_c   24.18540000
_cell_angle_alpha   90.00000000
_cell_angle_beta   90.00000000
_cell_angle_gamma   90.00000000
_symmetry_Int_Tables_number   1
_chemical_formula_structural   Li4In4Pd4Au4C
_chemical_formula_sum   'Li4 In4 Pd4 Au4 C1'
_cell_volume   1206.47373569
_cell_formula_units_Z   1
loop_
 _symmetry_equiv_pos_site_id
 _symmetry_equiv_pos_as_xyz
  1  'x, y, z'
loop_
 _atom_site_type_symbol
 _atom_site_label
 _atom_site_symmetry_multiplicity
 _atom_site_fract_x
 _atom_site_fract_y
 _atom_site_fract_z
 _atom_site_occupancy
  Li  Li0  1  0.50000000  0.50000000  0.08653000  1.0
  Li  Li1  1  0.50000000  0.92137000  0.98262000  1.0
  Li  Li2  1  0.00000000  0.50000000  0.08653000  1.0
  Li  Li3  1  0.00000000  0.94441000  0.96826000  1.0
  In  In4  1  0.75001000  0.22604000  0.02884000  1.0
  In  In5  1  0.73120000  0.64553000  0.90020000  1.0
  In  In6  1  0.24999000  0.22604000  0.02884000  1.0
  In  In7  1  0.26880000  0.64553000  0.90020000  1.0
  Pd  Pd8  1  0.75001000  0.72604000  0.02884000  1.0
  Pd  Pd9  1  0.67207000  0.13327000  0.91360000  1.0
  Pd  Pd10  1  0.24999000  0.72604000  0.02884000  1.0
  Pd  Pd11  1  0.32793000  0.13327000  0.91360000  1.0
  Au  Au12  1  0.50000000  0.00000000  0.08653000  1.0
  Au  Au13  1  0.50000000  0.46684000  0.98245000  1.0
  Au  Au14  1  0.00000000  0.00000000  0.08653000  1.0
  Au  Au15  1  0.00000000  0.45843000  0.96191000  1.0
  C  C16  1  0.50000000  0.35993000  0.89576000  1.0
