# generated using pymatgen
data_LiInCuGe
_symmetry_space_group_name_H-M   Pmm2
_cell_length_a   4.59185244
_cell_length_b   4.59185244
_cell_length_c   24.87040000
_cell_angle_alpha   90.00000000
_cell_angle_beta   90.00000000
_cell_angle_gamma   90.00000000
_symmetry_Int_Tables_number   25
_chemical_formula_structural   LiInCuGe
_chemical_formula_sum   'Li2 In2 Cu2 Ge2'
_cell_volume   524.39509114
_cell_formula_units_Z   2
loop_
 _symmetry_equiv_pos_site_id
 _symmetry_equiv_pos_as_xyz
  1  'x, y, z'
  2  '-x, -y, z'
  3  '-x, y, z'
  4  'x, -y, z'
loop_
 _atom_site_type_symbol
 _atom_site_label
 _atom_site_symmetry_multiplicity
 _atom_site_fract_x
 _atom_site_fract_y
 _atom_site_fract_z
 _atom_site_occupancy
  Li  Li0  1  0.00000000  0.00000000  0.96736000  1.0
  Li  Li1  1  0.50000000  0.50000000  0.10189500  1.0
  In  In2  1  0.00000000  0.50000000  0.02948000  1.0
  In  In3  1  0.50000000  0.00000000  0.90208000  1.0
  Cu  Cu4  1  0.00000000  0.00000000  0.08180000  1.0
  Cu  Cu5  1  0.50000000  0.50000000  0.96736000  1.0
  Ge  Ge6  1  0.00000000  0.50000000  0.90208000  1.0
  Ge  Ge7  1  0.50000000  0.00000000  0.04135000  1.0
