# generated using pymatgen
data_Li4Sc4Al4In4CO
_symmetry_space_group_name_H-M   Pm
_cell_length_a   5.96334000
_cell_length_b   8.71362000
_cell_length_c   24.47210000
_cell_angle_alpha   90.00000000
_cell_angle_beta   90.00000000
_cell_angle_gamma   90.00000000
_symmetry_Int_Tables_number   6
_chemical_formula_structural   Li4Sc4Al4In4CO
_chemical_formula_sum   'Li4 Sc4 Al4 In4 C1 O1'
_cell_volume   1271.62608035
_cell_formula_units_Z   1
loop_
 _symmetry_equiv_pos_site_id
 _symmetry_equiv_pos_as_xyz
  1  'x, y, z'
  2  'x, -y, z'
loop_
 _atom_site_type_symbol
 _atom_site_label
 _atom_site_symmetry_multiplicity
 _atom_site_fract_x
 _atom_site_fract_y
 _atom_site_fract_z
 _atom_site_occupancy
  Li  Li0  2  0.23945000  0.24999000  0.90863000  1.0
  Li  Li1  2  0.71109000  0.24938000  0.03208000  1.0
  Sc  Sc2  1  0.45674000  0.00000000  0.09627000  1.0
  Sc  Sc3  1  0.45904000  0.50000000  0.09430000  1.0
  Sc  Sc4  1  0.99297000  0.00000000  0.96954000  1.0
  Sc  Sc5  1  0.99297000  0.50000000  0.96954000  1.0
  Al  Al6  1  0.49297000  0.00000000  0.96954000  1.0
  Al  Al7  1  0.49297000  0.50000000  0.96954000  1.0
  Al  Al8  1  0.95130000  0.50000000  0.09359000  1.0
  Al  Al9  1  0.95294000  0.00000000  0.09166000  1.0
  In  In10  2  0.21540000  0.24885000  0.03715000  1.0
  In  In11  2  0.73945000  0.24999000  0.90863000  1.0
  C  C12  1  0.49140000  0.50000000  0.18851000  1.0
  O  O13  1  0.50182000  0.50000000  0.23541000  1.0
