# generated using pymatgen
data_Mn16Pd16CO
_symmetry_space_group_name_H-M   Pmm2
_cell_length_a   6.32195000
_cell_length_b   8.94058000
_cell_length_c   26.70540000
_cell_angle_alpha   90.00000000
_cell_angle_beta   90.00000000
_cell_angle_gamma   90.00000000
_symmetry_Int_Tables_number   25
_chemical_formula_structural   Mn16Pd16CO
_chemical_formula_sum   'Mn16 Pd16 C1 O1'
_cell_volume   1509.43994108
_cell_formula_units_Z   1
loop_
 _symmetry_equiv_pos_site_id
 _symmetry_equiv_pos_as_xyz
  1  'x, y, z'
  2  '-x, -y, z'
  3  '-x, y, z'
  4  'x, -y, z'
loop_
 _atom_site_type_symbol
 _atom_site_label
 _atom_site_symmetry_multiplicity
 _atom_site_fract_x
 _atom_site_fract_y
 _atom_site_fract_z
 _atom_site_occupancy
  Mn  Mn0  2  0.00000000  0.25000000  0.87446000  1.0
  Mn  Mn1  2  0.00000000  0.25019000  0.04202000  1.0
  Mn  Mn2  2  0.50000000  0.24942000  0.04297000  1.0
  Mn  Mn3  2  0.50000000  0.25000000  0.87446000  1.0
  Mn  Mn4  1  0.00000000  0.00000000  0.12461000  1.0
  Mn  Mn5  1  0.00000000  0.00000000  0.95815000  1.0
  Mn  Mn6  1  0.00000000  0.50000000  0.12681000  1.0
  Mn  Mn7  1  0.00000000  0.50000000  0.95815000  1.0
  Mn  Mn8  1  0.50000000  0.00000000  0.12548000  1.0
  Mn  Mn9  1  0.50000000  0.00000000  0.95815000  1.0
  Mn  Mn10  1  0.50000000  0.50000000  0.12658000  1.0
  Mn  Mn11  1  0.50000000  0.50000000  0.95815000  1.0
  Pd  Pd12  4  0.24821000  0.25175000  0.12262000  1.0
  Pd  Pd13  4  0.25000000  0.25000000  0.95815000  1.0
  Pd  Pd14  2  0.24785000  0.00000000  0.04136000  1.0
  Pd  Pd15  2  0.24926000  0.50000000  0.04185000  1.0
  Pd  Pd16  2  0.25000000  0.00000000  0.87446000  1.0
  Pd  Pd17  2  0.25000000  0.50000000  0.87446000  1.0
  C  C18  1  0.00000000  0.00000000  0.19794000  1.0
  O  O19  1  0.00000000  0.00000000  0.24115000  1.0
