# generated using pymatgen
data_Li8Ga8Ge8Pd8CO
_symmetry_space_group_name_H-M   P1
_cell_length_a   6.27488000
_cell_length_b   8.87402000
_cell_length_c   26.65550000
_cell_angle_alpha   90.00000000
_cell_angle_beta   90.00000000
_cell_angle_gamma   90.00000000
_symmetry_Int_Tables_number   1
_chemical_formula_structural   Li8Ga8Ge8Pd8CO
_chemical_formula_sum   'Li8 Ga8 Ge8 Pd8 C1 O1'
_cell_volume   1484.26915172
_cell_formula_units_Z   1
loop_
 _symmetry_equiv_pos_site_id
 _symmetry_equiv_pos_as_xyz
  1  'x, y, z'
loop_
 _atom_site_type_symbol
 _atom_site_label
 _atom_site_symmetry_multiplicity
 _atom_site_fract_x
 _atom_site_fract_y
 _atom_site_fract_z
 _atom_site_occupancy
  Li  Li0  1  0.25000000  0.25000000  0.87516000  1.0
  Li  Li1  1  0.25000000  0.75000000  0.87516000  1.0
  Li  Li2  1  0.25126000  0.25013000  0.04179000  1.0
  Li  Li3  1  0.25833000  0.75010000  0.04151000  1.0
  Li  Li4  1  0.75000000  0.00000000  0.95839000  1.0
  Li  Li5  1  0.75000000  0.50000000  0.95839000  1.0
  Li  Li6  1  0.75341000  0.50894000  0.14219000  1.0
  Li  Li7  1  0.75347000  0.99118000  0.14218000  1.0
  Ga  Ga8  1  0.00000000  0.00000000  0.87516000  1.0
  Ga  Ga9  1  0.00000000  0.50000000  0.87516000  1.0
  Ga  Ga10  1  0.46862000  0.75014000  0.13637000  1.0
  Ga  Ga11  1  0.50000000  0.25000000  0.95839000  1.0
  Ga  Ga12  1  0.50000000  0.75000000  0.95839000  1.0
  Ga  Ga13  1  0.50086000  0.24996000  0.12932000  1.0
  Ga  Ga14  1  0.98585000  0.99922000  0.04367000  1.0
  Ga  Ga15  1  0.98592000  0.50112000  0.04369000  1.0
  Ge  Ge16  1  0.00000000  0.25000000  0.95839000  1.0
  Ge  Ge17  1  0.00000000  0.75000000  0.95839000  1.0
  Ge  Ge18  1  0.00590000  0.75009000  0.12486000  1.0
  Ge  Ge19  1  0.50000000  0.00000000  0.87516000  1.0
  Ge  Ge20  1  0.50000000  0.50000000  0.87516000  1.0
  Ge  Ge21  1  0.51356000  0.49935000  0.04573000  1.0
  Ge  Ge22  1  0.51361000  0.00099000  0.04573000  1.0
  Ge  Ge23  1  0.98558000  0.25006000  0.12508000  1.0
  Pd  Pd24  1  0.24447000  0.00562000  0.11792000  1.0
  Pd  Pd25  1  0.24462000  0.49448000  0.11796000  1.0
  Pd  Pd26  1  0.25000000  0.00000000  0.95839000  1.0
  Pd  Pd27  1  0.25000000  0.50000000  0.95839000  1.0
  Pd  Pd28  1  0.74779000  0.75019000  0.03798000  1.0
  Pd  Pd29  1  0.75000000  0.25000000  0.87516000  1.0
  Pd  Pd30  1  0.75000000  0.75000000  0.87516000  1.0
  Pd  Pd31  1  0.75166000  0.25023000  0.03572000  1.0
  C  C32  1  0.38313000  0.24587000  0.25808000  1.0
  O  O33  1  0.54588000  0.25012000  0.27677000  1.0
