data_image0
_chemical_formula_structural       Li8Pb4Au4CO
_chemical_formula_sum              "Li8 Pb4 Au4 C1 O1"
_cell_length_a       6.8204
_cell_length_b       6.8204
_cell_length_c       25.1153
_cell_angle_alpha    90
_cell_angle_beta     90
_cell_angle_gamma    90

_space_group_name_H-M_alt    "P 1"
_space_group_IT_number       1

loop_
  _space_group_symop_operation_xyz
  'x, y, z'

loop_
  _atom_site_type_symbol
  _atom_site_label
  _atom_site_symmetry_multiplicity
  _atom_site_fract_x
  _atom_site_fract_y
  _atom_site_fract_z
  _atom_site_occupancy
  Li  Li1       1.0  0.00000  0.00000  0.96605  1.0000
  Li  Li2       1.0  0.49999  0.00004  0.09719  1.0000
  Li  Li3       1.0  0.00003  0.49999  0.09717  1.0000
  Li  Li4       1.0  0.50000  0.50000  0.96605  1.0000
  Li  Li5       1.0  0.27701  0.27699  0.03731  1.0000
  Li  Li6       1.0  0.25000  0.75000  0.89816  1.0000
  Li  Li7       1.0  0.72307  0.72308  0.03728  1.0000
  Li  Li8       1.0  0.75000  0.25000  0.89816  1.0000
  Pb  Pb1       1.0  0.99998  0.00003  0.09871  1.0000
  Pb  Pb2       1.0  0.50010  0.50011  0.11898  1.0000
  Pb  Pb3       1.0  0.50000  0.00000  0.96605  1.0000
  Pb  Pb4       1.0  0.00000  0.50000  0.96605  1.0000
  Au  Au1       1.0  0.25000  0.25000  0.89816  1.0000
  Au  Au2       1.0  0.27195  0.72813  0.03857  1.0000
  Au  Au3       1.0  0.75000  0.75000  0.89816  1.0000
  Au  Au4       1.0  0.72809  0.27197  0.03857  1.0000
  C   C1        1.0  0.00001  0.00008  0.25706  1.0000
  O   O1        1.0  0.00007  0.00004  0.30225  1.0000
