# generated using pymatgen
data_Li8Pb4Au4CO
_symmetry_space_group_name_H-M   P1
_cell_length_a   6.82040000
_cell_length_b   6.82040000
_cell_length_c   25.11530000
_cell_angle_alpha   90.00000000
_cell_angle_beta   90.00000000
_cell_angle_gamma   90.00000000
_symmetry_Int_Tables_number   1
_chemical_formula_structural   Li8Pb4Au4CO
_chemical_formula_sum   'Li8 Pb4 Au4 C1 O1'
_cell_volume   1168.30991282
_cell_formula_units_Z   1
loop_
 _symmetry_equiv_pos_site_id
 _symmetry_equiv_pos_as_xyz
  1  'x, y, z'
loop_
 _atom_site_type_symbol
 _atom_site_label
 _atom_site_symmetry_multiplicity
 _atom_site_fract_x
 _atom_site_fract_y
 _atom_site_fract_z
 _atom_site_occupancy
  Li  Li0  1  0.00000000  0.00000000  0.96605000  1.0
  Li  Li1  1  0.00001000  0.50003000  0.09689000  1.0
  Li  Li2  1  0.25000000  0.75000000  0.89816000  1.0
  Li  Li3  1  0.27710000  0.27694000  0.03749000  1.0
  Li  Li4  1  0.50000000  0.50000000  0.96605000  1.0
  Li  Li5  1  0.50002000  0.00001000  0.09691000  1.0
  Li  Li6  1  0.72294000  0.72311000  0.03748000  1.0
  Li  Li7  1  0.75000000  0.25000000  0.89816000  1.0
  Pb  Pb8  1  0.00000000  0.00002000  0.09887000  1.0
  Pb  Pb9  1  0.00000000  0.50000000  0.96605000  1.0
  Pb  Pb10  1  0.50000000  0.00000000  0.96605000  1.0
  Pb  Pb11  1  0.50006000  0.50009000  0.11860000  1.0
  Au  Au12  1  0.25000000  0.25000000  0.89816000  1.0
  Au  Au13  1  0.27240000  0.72799000  0.03838000  1.0
  Au  Au14  1  0.72760000  0.27206000  0.03837000  1.0
  Au  Au15  1  0.75000000  0.75000000  0.89816000  1.0
  C  C16  1  0.00001000  0.00009000  0.25719000  1.0
  O  O17  1  0.00007000  0.00004000  0.30239000  1.0
