# generated using pymatgen
data_LiYGePb
_symmetry_space_group_name_H-M   Pm
_cell_length_a   6.52719000
_cell_length_b   4.32750000
_cell_length_c   24.84630000
_cell_angle_alpha   90.00000000
_cell_angle_beta   90.00000000
_cell_angle_gamma   90.00000000
_symmetry_Int_Tables_number   6
_chemical_formula_structural   LiYGePb
_chemical_formula_sum   'Li2 Y2 Ge2 Pb2'
_cell_volume   701.81889418
_cell_formula_units_Z   2
loop_
 _symmetry_equiv_pos_site_id
 _symmetry_equiv_pos_as_xyz
  1  'x, y, z'
  2  'x, -y, z'
loop_
 _atom_site_type_symbol
 _atom_site_label
 _atom_site_symmetry_multiplicity
 _atom_site_fract_x
 _atom_site_fract_y
 _atom_site_fract_z
 _atom_site_occupancy
  Li  Li0  1  0.07522000  0.00000000  0.97160000  1.0
  Li  Li1  1  0.50000000  0.00000000  0.09753000  1.0
  Y  Y2  1  0.42720000  0.50000000  0.90491000  1.0
  Y  Y3  1  0.78531000  0.50000000  0.03251000  1.0
  Ge  Ge4  1  -0.00000000  0.00000000  0.09753000  1.0
  Ge  Ge5  1  0.65015000  0.00000000  0.95536000  1.0
  Pb  Pb6  1  0.28531000  0.50000000  0.03251000  1.0
  Pb  Pb7  1  0.91710500  0.50000000  0.88815500  1.0
