# generated using pymatgen
data_Li4Sc4In4Pd4CO
_symmetry_space_group_name_H-M   Cmm2
_cell_length_a   9.31983708
_cell_length_b   9.31983708
_cell_length_c   24.94260000
_cell_angle_alpha   90.00000000
_cell_angle_beta   90.00000000
_cell_angle_gamma   90.00000000
_symmetry_Int_Tables_number   35
_chemical_formula_structural   Li4Sc4In4Pd4CO
_chemical_formula_sum   'Li8 Sc8 In8 Pd8 C2 O2'
_cell_volume   2166.49835327
_cell_formula_units_Z   2
loop_
 _symmetry_equiv_pos_site_id
 _symmetry_equiv_pos_as_xyz
  1  'x, y, z'
  2  '-x, -y, z'
  3  '-x, y, z'
  4  'x, -y, z'
  5  'x+1/2, y+1/2, z'
  6  '-x+1/2, -y+1/2, z'
  7  '-x+1/2, y+1/2, z'
  8  'x+1/2, -y+1/2, z'
loop_
 _atom_site_type_symbol
 _atom_site_label
 _atom_site_symmetry_multiplicity
 _atom_site_fract_x
 _atom_site_fract_y
 _atom_site_fract_z
 _atom_site_occupancy
  Li  Li0  4  0.00000000  0.24786500  0.03372000  1.0
  Li  Li1  4  0.25000000  0.00000000  0.90092000  1.0
  Sc  Sc2  4  0.25000000  0.25000000  0.96697000  1.0
  Sc  Sc3  2  0.00000000  0.00000000  0.09921000  1.0
  Sc  Sc4  2  0.00000000  0.50000000  0.09955000  1.0
  In  In5  4  0.25000000  0.25000000  0.10145000  1.0
  In  In6  2  0.00000000  0.00000000  0.96697000  1.0
  In  In7  2  0.00000000  0.50000000  0.96697000  1.0
  Pd  Pd8  4  0.00000000  0.25000000  0.90092000  1.0
  Pd  Pd9  4  0.24749500  0.00000000  0.03314000  1.0
  C  C10  2  0.00000000  0.50000000  0.19198000  1.0
  O  O11  2  0.00000000  0.50000000  0.23805000  1.0
