data_image0
_chemical_formula_structural       Nb8Al8Co16C
_chemical_formula_sum              "Nb8 Al8 Co16 C1"
_cell_length_a       5.97844
_cell_length_b       8.45478
_cell_length_c       26.3411
_cell_angle_alpha    90
_cell_angle_beta     90
_cell_angle_gamma    90

_space_group_name_H-M_alt    "P 1"
_space_group_IT_number       1

loop_
  _space_group_symop_operation_xyz
  'x, y, z'

loop_
  _atom_site_type_symbol
  _atom_site_label
  _atom_site_symmetry_multiplicity
  _atom_site_fract_x
  _atom_site_fract_y
  _atom_site_fract_z
  _atom_site_occupancy
  Nb  Nb1       1.0  0.00000  0.00000  0.87964  1.0000
  Nb  Nb2       1.0  0.50000  0.25000  0.95988  1.0000
  Nb  Nb3       1.0  0.50000  0.75000  0.95988  1.0000
  Nb  Nb4       1.0  0.00000  0.50000  0.87964  1.0000
  Nb  Nb5       1.0  0.99992  0.50231  0.04164  1.0000
  Nb  Nb6       1.0  0.50079  0.75000  0.12147  1.0000
  Nb  Nb7       1.0  0.53635  0.25001  0.11773  1.0000
  Nb  Nb8       1.0  0.99992  0.99769  0.04164  1.0000
  Al  Al1       1.0  0.00000  0.75000  0.95988  1.0000
  Al  Al2       1.0  0.50000  0.00000  0.87964  1.0000
  Al  Al3       1.0  0.00000  0.25000  0.95988  1.0000
  Al  Al4       1.0  0.50000  0.50000  0.87964  1.0000
  Al  Al5       1.0  0.96482  0.25000  0.12436  1.0000
  Al  Al6       1.0  0.49639  0.49909  0.04062  1.0000
  Al  Al7       1.0  0.00109  0.75000  0.12273  1.0000
  Al  Al8       1.0  0.49639  0.00091  0.04062  1.0000
  Co  Co1       1.0  0.25000  0.00000  0.95988  1.0000
  Co  Co2       1.0  0.75000  0.50000  0.95988  1.0000
  Co  Co3       1.0  0.75000  0.00000  0.95988  1.0000
  Co  Co4       1.0  0.25000  0.50000  0.95988  1.0000
  Co  Co5       1.0  0.75000  0.75000  0.87964  1.0000
  Co  Co6       1.0  0.25000  0.25000  0.87964  1.0000
  Co  Co7       1.0  0.25000  0.75000  0.87964  1.0000
  Co  Co8       1.0  0.75000  0.25000  0.87964  1.0000
  Co  Co9       1.0  0.23758  0.48383  0.11908  1.0000
  Co  Co10      1.0  0.75033  0.99054  0.11302  1.0000
  Co  Co11      1.0  0.75034  0.50946  0.11302  1.0000
  Co  Co12      1.0  0.23758  0.01617  0.11908  1.0000
  Co  Co13      1.0  0.75936  0.24999  0.03539  1.0000
  Co  Co14      1.0  0.25886  0.75001  0.04185  1.0000
  Co  Co15      1.0  0.24855  0.24999  0.03946  1.0000
  Co  Co16      1.0  0.74049  0.75001  0.04157  1.0000
  C   C1        1.0  0.25311  0.25000  0.15264  1.0000
