# generated using pymatgen
data_Nb8Al8Co16C
_symmetry_space_group_name_H-M   'P 1'
_cell_length_a   8.45478000
_cell_length_b   5.97844000
_cell_length_c   26.34110000
_cell_angle_alpha   90.00000000
_cell_angle_beta   90.00000000
_cell_angle_gamma   90.00000000
_symmetry_Int_Tables_number   1
_chemical_formula_structural   Nb8Al8Co16C
_chemical_formula_sum   'Nb8 Al8 Co16 C1'
_cell_volume   1331.44764384
_cell_formula_units_Z   1
loop_
 _symmetry_equiv_pos_site_id
 _symmetry_equiv_pos_as_xyz
  1  'x, y, z'
loop_
 _atom_site_type_symbol
 _atom_site_label
 _atom_site_symmetry_multiplicity
 _atom_site_fract_x
 _atom_site_fract_y
 _atom_site_fract_z
 _atom_site_occupancy
  Nb  Nb0  1  0.75000000  0.00000000  0.12036000  1.0
  Nb  Nb1  1  0.00000000  0.50000000  0.04012000  1.0
  Nb  Nb2  1  0.50000000  0.50000000  0.04012000  1.0
  Nb  Nb3  1  0.25000000  0.00000000  0.12036000  1.0
  Nb  Nb4  1  0.25231000  0.99992000  0.95836000  1.0
  Nb  Nb5  1  0.50000000  0.50079000  0.87853000  1.0
  Nb  Nb6  1  0.00000000  0.53635000  0.88227000  1.0
  Nb  Nb7  1  0.74769000  0.99992000  0.95836000  1.0
  Al  Al8  1  0.50000000  0.00000000  0.04012000  1.0
  Al  Al9  1  0.75000000  0.50000000  0.12036000  1.0
  Al  Al10  1  0.00000000  0.00000000  0.04012000  1.0
  Al  Al11  1  0.25000000  0.50000000  0.12036000  1.0
  Al  Al12  1  0.00000000  0.96482000  0.87564000  1.0
  Al  Al13  1  0.24909000  0.49639000  0.95938000  1.0
  Al  Al14  1  0.50000000  0.00109000  0.87727000  1.0
  Al  Al15  1  0.75091000  0.49639000  0.95938000  1.0
  Co  Co16  1  0.75000000  0.25000000  0.04012000  1.0
  Co  Co17  1  0.25000000  0.75000000  0.04012000  1.0
  Co  Co18  1  0.75000000  0.75000000  0.04012000  1.0
  Co  Co19  1  0.25000000  0.25000000  0.04012000  1.0
  Co  Co20  1  0.50000000  0.75000000  0.12036000  1.0
  Co  Co21  1  0.00000000  0.25000000  0.12036000  1.0
  Co  Co22  1  0.50000000  0.25000000  0.12036000  1.0
  Co  Co23  1  0.00000000  0.75000000  0.12036000  1.0
  Co  Co24  1  0.23383000  0.23758000  0.88092000  1.0
  Co  Co25  1  0.74054000  0.75033000  0.88698000  1.0
  Co  Co26  1  0.25946000  0.75033000  0.88698000  1.0
  Co  Co27  1  0.76617000  0.23758000  0.88092000  1.0
  Co  Co28  1  0.00000000  0.75936000  0.96461000  1.0
  Co  Co29  1  0.50000000  0.25886000  0.95815000  1.0
  Co  Co30  1  0.00000000  0.24855000  0.96054000  1.0
  Co  Co31  1  0.50000000  0.74049000  0.95843000  1.0
  C  C32  1  0.00000000  0.25311000  0.84736000  1.0
