# generated using pymatgen
data_Nb8Al8Co16C
_symmetry_space_group_name_H-M   Pm
_cell_length_a   5.97844000
_cell_length_b   8.45478000
_cell_length_c   26.34110000
_cell_angle_alpha   90.00000000
_cell_angle_beta   90.00000000
_cell_angle_gamma   90.00000000
_symmetry_Int_Tables_number   6
_chemical_formula_structural   Nb8Al8Co16C
_chemical_formula_sum   'Nb8 Al8 Co16 C1'
_cell_volume   1331.44764384
_cell_formula_units_Z   1
loop_
 _symmetry_equiv_pos_site_id
 _symmetry_equiv_pos_as_xyz
  1  'x, y, z'
  2  'x, -y, z'
loop_
 _atom_site_type_symbol
 _atom_site_label
 _atom_site_symmetry_multiplicity
 _atom_site_fract_x
 _atom_site_fract_y
 _atom_site_fract_z
 _atom_site_occupancy
  Nb  Nb0  2  0.00000000  0.25000000  0.87964000  1.0
  Nb  Nb1  2  0.99992000  0.25231000  0.04164000  1.0
  Nb  Nb2  1  0.50000000  0.00000000  0.95988000  1.0
  Nb  Nb3  1  0.50000000  0.50000000  0.95988000  1.0
  Nb  Nb4  1  0.50079000  0.50000000  0.12147000  1.0
  Nb  Nb5  1  0.53635000  0.00000000  0.11773000  1.0
  Al  Al6  2  0.49639000  0.24909000  0.04062000  1.0
  Al  Al7  2  0.50000000  0.25000000  0.87964000  1.0
  Al  Al8  1  0.00000000  0.00000000  0.95988000  1.0
  Al  Al9  1  0.00000000  0.50000000  0.95988000  1.0
  Al  Al10  1  0.00109000  0.50000000  0.12273000  1.0
  Al  Al11  1  0.96482000  0.00000000  0.12436000  1.0
  Co  Co12  2  0.23758000  0.23383000  0.11908000  1.0
  Co  Co13  2  0.25000000  0.25000000  0.95988000  1.0
  Co  Co14  2  0.75000000  0.25000000  0.95988000  1.0
  Co  Co15  2  0.75033000  0.25946000  0.11302000  1.0
  Co  Co16  1  0.24855000  0.00000000  0.03946000  1.0
  Co  Co17  1  0.25000000  0.00000000  0.87964000  1.0
  Co  Co18  1  0.25000000  0.50000000  0.87964000  1.0
  Co  Co19  1  0.25886000  0.50000000  0.04185000  1.0
  Co  Co20  1  0.74049000  0.50000000  0.04157000  1.0
  Co  Co21  1  0.75000000  0.00000000  0.87964000  1.0
  Co  Co22  1  0.75000000  0.50000000  0.87964000  1.0
  Co  Co23  1  0.75936000  0.00000000  0.03539000  1.0
  C  C24  1  0.25311000  0.00000000  0.15264000  1.0
