# generated using pymatgen
data_Li16Al8Rh8CO
_symmetry_space_group_name_H-M   P1
_cell_length_a   6.01864000
_cell_length_b   8.51164000
_cell_length_c   26.38370000
_cell_angle_alpha   90.00000000
_cell_angle_beta   90.00000000
_cell_angle_gamma   90.00000000
_symmetry_Int_Tables_number   1
_chemical_formula_structural   Li16Al8Rh8CO
_chemical_formula_sum   'Li16 Al8 Rh8 C1 O1'
_cell_volume   1351.59729550
_cell_formula_units_Z   1
loop_
 _symmetry_equiv_pos_site_id
 _symmetry_equiv_pos_as_xyz
  1  'x, y, z'
loop_
 _atom_site_type_symbol
 _atom_site_label
 _atom_site_symmetry_multiplicity
 _atom_site_fract_x
 _atom_site_fract_y
 _atom_site_fract_z
 _atom_site_occupancy
  Li  Li0  1  0.00000000  0.25000000  0.95967000  1.0
  Li  Li1  1  0.00000000  0.75000000  0.95967000  1.0
  Li  Li2  1  0.01327000  0.75000000  0.13619000  1.0
  Li  Li3  1  0.01586000  0.24999000  0.13249000  1.0
  Li  Li4  1  0.23521000  0.75000000  0.03733000  1.0
  Li  Li5  1  0.24328000  0.25000000  0.03916000  1.0
  Li  Li6  1  0.25000000  0.25000000  0.87902000  1.0
  Li  Li7  1  0.25000000  0.75000000  0.87902000  1.0
  Li  Li8  1  0.50000000  0.00000000  0.87902000  1.0
  Li  Li9  1  0.50000000  0.50000000  0.87902000  1.0
  Li  Li10  1  0.50447000  0.00024000  0.03901000  1.0
  Li  Li11  1  0.50452000  0.49977000  0.03901000  1.0
  Li  Li12  1  0.74073000  0.00089000  0.12464000  1.0
  Li  Li13  1  0.74073000  0.49909000  0.12464000  1.0
  Li  Li14  1  0.75000000  0.00000000  0.95967000  1.0
  Li  Li15  1  0.75000000  0.50000000  0.95967000  1.0
  Al  Al16  1  0.00000000  0.00000000  0.87902000  1.0
  Al  Al17  1  0.00000000  0.50000000  0.87902000  1.0
  Al  Al18  1  0.47128000  0.24999000  0.11919000  1.0
  Al  Al19  1  0.47505000  0.74999000  0.11527000  1.0
  Al  Al20  1  0.50000000  0.25000000  0.95967000  1.0
  Al  Al21  1  0.50000000  0.75000000  0.95967000  1.0
  Al  Al22  1  0.99497000  0.49626000  0.03964000  1.0
  Al  Al23  1  0.99502000  0.00377000  0.03964000  1.0
  Rh  Rh24  1  0.25000000  0.00000000  0.95967000  1.0
  Rh  Rh25  1  0.25000000  0.50000000  0.95967000  1.0
  Rh  Rh26  1  0.25093000  0.50575000  0.11284000  1.0
  Rh  Rh27  1  0.25093000  0.99423000  0.11285000  1.0
  Rh  Rh28  1  0.75000000  0.25000000  0.87902000  1.0
  Rh  Rh29  1  0.75000000  0.75000000  0.87902000  1.0
  Rh  Rh30  1  0.75383000  0.24997000  0.04679000  1.0
  Rh  Rh31  1  0.76204000  0.75010000  0.04524000  1.0
  C  C32  1  0.50195000  0.25000000  0.19431000  1.0
  O  O33  1  0.50688000  0.25000000  0.23839000  1.0
