# generated using pymatgen
data_Sc4Al4Au8CO
_symmetry_space_group_name_H-M   'P 1'
_cell_length_a   6.63475000
_cell_length_b   6.63475000
_cell_length_c   24.97610000
_cell_angle_alpha   90.00000000
_cell_angle_beta   90.00000000
_cell_angle_gamma   90.00000000
_symmetry_Int_Tables_number   1
_chemical_formula_structural   Sc4Al4Au8CO
_chemical_formula_sum   'Sc4 Al4 Au8 C1 O1'
_cell_volume   1099.44561327
_cell_formula_units_Z   1
loop_
 _symmetry_equiv_pos_site_id
 _symmetry_equiv_pos_as_xyz
  1  'x, y, z'
loop_
 _atom_site_type_symbol
 _atom_site_label
 _atom_site_symmetry_multiplicity
 _atom_site_fract_x
 _atom_site_fract_y
 _atom_site_fract_z
 _atom_site_occupancy
  Sc  Sc0  1  0.00000000  0.50000000  0.09962000  1.0
  Sc  Sc1  1  0.50000000  0.00000000  0.09962000  1.0
  Sc  Sc2  1  0.50000000  0.50000000  0.96679000  1.0
  Sc  Sc3  1  0.00000000  0.00000000  0.96679000  1.0
  Al  Al4  1  0.00000000  0.50000000  0.96679000  1.0
  Al  Al5  1  0.50000000  0.50000000  0.09962000  1.0
  Al  Al6  1  0.00000000  0.00000000  0.09962000  1.0
  Al  Al7  1  0.50000000  0.00000000  0.96679000  1.0
  Au  Au8  1  0.25000000  0.75000000  0.03321000  1.0
  Au  Au9  1  0.75000000  0.25000000  0.90038000  1.0
  Au  Au10  1  0.75000000  0.75000000  0.03321000  1.0
  Au  Au11  1  0.25000000  0.25000000  0.90038000  1.0
  Au  Au12  1  0.75000000  0.25000000  0.03321000  1.0
  Au  Au13  1  0.25000000  0.75000000  0.90038000  1.0
  Au  Au14  1  0.25000000  0.25000000  0.03321000  1.0
  Au  Au15  1  0.75000000  0.75000000  0.90038000  1.0
  C  C16  1  0.00000000  0.00000000  0.17569000  1.0
  O  O17  1  0.00000000  0.00000000  0.22173000  1.0
