# generated using pymatgen
data_YInSnPd
_symmetry_space_group_name_H-M   'P 1'
_cell_length_a   9.06394000
_cell_length_b   6.32964000
_cell_length_c   24.74170000
_cell_angle_alpha   90.00000000
_cell_angle_beta   90.00000000
_cell_angle_gamma   90.00000000
_symmetry_Int_Tables_number   1
_chemical_formula_structural   YInSnPd
_chemical_formula_sum   'Y4 In4 Sn4 Pd4'
_cell_volume   1419.46787698
_cell_formula_units_Z   4
loop_
 _symmetry_equiv_pos_site_id
 _symmetry_equiv_pos_as_xyz
  1  'x, y, z'
loop_
 _atom_site_type_symbol
 _atom_site_label
 _atom_site_symmetry_multiplicity
 _atom_site_fract_x
 _atom_site_fract_y
 _atom_site_fract_z
 _atom_site_occupancy
  Y  Y0  1  0.25000000  0.73799000  0.03194000  1.0
  Y  Y1  1  0.24993000  0.17647000  0.91541000  1.0
  Y  Y2  1  0.75000000  0.73799000  0.03194000  1.0
  Y  Y3  1  0.75007000  0.17647000  0.91541000  1.0
  In  In4  1  0.00000000  0.00000000  0.09582000  1.0
  In  In5  1  0.00000000  0.41859000  0.97519000  1.0
  In  In6  1  0.50000000  0.00000000  0.09582000  1.0
  In  In7  1  0.50000000  0.41876000  0.97515000  1.0
  Sn  Sn8  1  0.00000000  0.50000000  0.09582000  1.0
  Sn  Sn9  1  0.00000000  0.89378000  0.94914000  1.0
  Sn  Sn10  1  0.50000000  0.50000000  0.09582000  1.0
  Sn  Sn11  1  0.50000000  0.89427000  0.94927000  1.0
  Pd  Pd12  1  0.25000000  0.23799000  0.03194000  1.0
  Pd  Pd13  1  0.25004000  0.64976000  0.92390000  1.0
  Pd  Pd14  1  0.75000000  0.23799000  0.03194000  1.0
  Pd  Pd15  1  0.74996000  0.64976000  0.92390000  1.0
