# generated using pymatgen
data_Li8Y8Cu8Pd8C
_symmetry_space_group_name_H-M   'P 1'
_cell_length_a   9.43388000
_cell_length_b   6.67076000
_cell_length_c   27.07540000
_cell_angle_alpha   90.00000000
_cell_angle_beta   90.00000000
_cell_angle_gamma   90.00000000
_symmetry_Int_Tables_number   1
_chemical_formula_structural   Li8Y8Cu8Pd8C
_chemical_formula_sum   'Li8 Y8 Cu8 Pd8 C1'
_cell_volume   1703.88604108
_cell_formula_units_Z   1
loop_
 _symmetry_equiv_pos_site_id
 _symmetry_equiv_pos_as_xyz
  1  'x, y, z'
loop_
 _atom_site_type_symbol
 _atom_site_label
 _atom_site_symmetry_multiplicity
 _atom_site_fract_x
 _atom_site_fract_y
 _atom_site_fract_z
 _atom_site_occupancy
  Li  Li0  1  0.50000000  0.25000000  0.04355000  1.0
  Li  Li1  1  0.00000000  0.25000000  0.04355000  1.0
  Li  Li2  1  0.75001000  0.75000000  0.13066000  1.0
  Li  Li3  1  0.24999000  0.75000000  0.13066000  1.0
  Li  Li4  1  0.00000000  0.21529000  0.87041000  1.0
  Li  Li5  1  0.50000000  0.20928000  0.86407000  1.0
  Li  Li6  1  0.24585000  0.72959000  0.95679000  1.0
  Li  Li7  1  0.75415000  0.72959000  0.95679000  1.0
  Y  Y8  1  0.50000000  0.75000000  0.04355000  1.0
  Y  Y9  1  0.00000000  0.75000000  0.04355000  1.0
  Y  Y10  1  0.75001000  0.25000000  0.13066000  1.0
  Y  Y11  1  0.24999000  0.25000000  0.13066000  1.0
  Y  Y12  1  0.00000000  0.70682000  0.87331000  1.0
  Y  Y13  1  0.50000000  0.76412000  0.83204000  1.0
  Y  Y14  1  0.26950000  0.22984000  0.95571000  1.0
  Y  Y15  1  0.73050000  0.22984000  0.95571000  1.0
  Cu  Cu16  1  0.50000000  0.00000000  0.13066000  1.0
  Cu  Cu17  1  0.00000000  0.00000000  0.13066000  1.0
  Cu  Cu18  1  0.25001000  0.50000000  0.04355000  1.0
  Cu  Cu19  1  0.74999000  0.50000000  0.04355000  1.0
  Cu  Cu20  1  0.00000000  0.99867000  0.95290000  1.0
  Cu  Cu21  1  0.50000000  0.91574000  0.93340000  1.0
  Cu  Cu22  1  0.71492000  0.50632000  0.87460000  1.0
  Cu  Cu23  1  0.28508000  0.50632000  0.87460000  1.0
  Pd  Pd24  1  0.75001000  1.00000000  0.04355000  1.0
  Pd  Pd25  1  0.24999000  1.00000000  0.04355000  1.0
  Pd  Pd26  1  0.00000000  0.50000000  0.13066000  1.0
  Pd  Pd27  1  0.50000000  0.50000000  0.13066000  1.0
  Pd  Pd28  1  0.25061000  0.95076000  0.87654000  1.0
  Pd  Pd29  1  0.74939000  0.95076000  0.87654000  1.0
  Pd  Pd30  1  0.50000000  0.50628000  0.95823000  1.0
  Pd  Pd31  1  0.00000000  0.46484000  0.95831000  1.0
  C  C32  1  0.50000000  0.50724000  0.88179000  1.0
