# generated using pymatgen
data_Li8Y8Cu8Pd8C
_symmetry_space_group_name_H-M   Pm
_cell_length_a   6.67076000
_cell_length_b   9.43388000
_cell_length_c   27.07540000
_cell_angle_alpha   90.00000000
_cell_angle_beta   90.00000000
_cell_angle_gamma   90.00000000
_symmetry_Int_Tables_number   6
_chemical_formula_structural   Li8Y8Cu8Pd8C
_chemical_formula_sum   'Li8 Y8 Cu8 Pd8 C1'
_cell_volume   1703.88604108
_cell_formula_units_Z   1
loop_
 _symmetry_equiv_pos_site_id
 _symmetry_equiv_pos_as_xyz
  1  'x, y, z'
  2  'x, -y, z'
loop_
 _atom_site_type_symbol
 _atom_site_label
 _atom_site_symmetry_multiplicity
 _atom_site_fract_x
 _atom_site_fract_y
 _atom_site_fract_z
 _atom_site_occupancy
  Li  Li0  2  0.72959000  0.24585000  0.04321000  1.0
  Li  Li1  2  0.75000000  0.24999000  0.86934000  1.0
  Li  Li2  1  0.20928000  0.50000000  0.13593000  1.0
  Li  Li3  1  0.21529000  0.00000000  0.12959000  1.0
  Li  Li4  1  0.25000000  0.00000000  0.95645000  1.0
  Li  Li5  1  0.25000000  0.50000000  0.95645000  1.0
  Y  Y6  2  0.22984000  0.26950000  0.04429000  1.0
  Y  Y7  2  0.25000000  0.24999000  0.86934000  1.0
  Y  Y8  1  0.70682000  0.00000000  0.12669000  1.0
  Y  Y9  1  0.75000000  0.00000000  0.95645000  1.0
  Y  Y10  1  0.75000000  0.50000000  0.95645000  1.0
  Y  Y11  1  0.76412000  0.50000000  0.16796000  1.0
  Cu  Cu12  2  0.50000000  0.25001000  0.95645000  1.0
  Cu  Cu13  2  0.50632000  0.28508000  0.12540000  1.0
  Cu  Cu14  1  0.00000000  0.50000000  0.86934000  1.0
  Cu  Cu15  1  0.00000000  0.00000000  0.86934000  1.0
  Cu  Cu16  1  0.91574000  0.50000000  0.06660000  1.0
  Cu  Cu17  1  0.99867000  0.00000000  0.04710000  1.0
  Pd  Pd18  2  -0.00000000  0.24999000  0.95645000  1.0
  Pd  Pd19  2  0.95076000  0.25061000  0.12346000  1.0
  Pd  Pd20  1  0.46484000  0.00000000  0.04169000  1.0
  Pd  Pd21  1  0.50000000  0.00000000  0.86934000  1.0
  Pd  Pd22  1  0.50000000  0.50000000  0.86934000  1.0
  Pd  Pd23  1  0.50628000  0.50000000  0.04177000  1.0
  C  C24  1  0.50724000  0.50000000  0.11821000  1.0
