# generated using pymatgen
data_Zr8Co16Sn8CO
_symmetry_space_group_name_H-M   Pmm2
_cell_length_a   6.31315000
_cell_length_b   8.92814000
_cell_length_c   26.69610000
_cell_angle_alpha   90.00000000
_cell_angle_beta   90.00000000
_cell_angle_gamma   90.00000000
_symmetry_Int_Tables_number   25
_chemical_formula_structural   Zr8Co16Sn8CO
_chemical_formula_sum   'Zr8 Co16 Sn8 C1 O1'
_cell_volume   1504.71732172
_cell_formula_units_Z   1
loop_
 _symmetry_equiv_pos_site_id
 _symmetry_equiv_pos_as_xyz
  1  'x, y, z'
  2  '-x, -y, z'
  3  '-x, y, z'
  4  'x, -y, z'
loop_
 _atom_site_type_symbol
 _atom_site_label
 _atom_site_symmetry_multiplicity
 _atom_site_fract_x
 _atom_site_fract_y
 _atom_site_fract_z
 _atom_site_occupancy
  Zr  Zr0  2  0.00000000  0.25000000  0.87459000  1.0
  Zr  Zr1  2  0.00000000  0.25099000  0.04164000  1.0
  Zr  Zr2  1  0.50000000  0.00000000  0.12642000  1.0
  Zr  Zr3  1  0.50000000  0.00000000  0.95820000  1.0
  Zr  Zr4  1  0.50000000  0.50000000  0.12560000  1.0
  Zr  Zr5  1  0.50000000  0.50000000  0.95820000  1.0
  Co  Co6  4  0.23778000  0.25163000  0.11855000  1.0
  Co  Co7  4  0.25000000  0.25000000  0.95820000  1.0
  Co  Co8  2  0.25000000  0.00000000  0.87459000  1.0
  Co  Co9  2  0.25000000  0.50000000  0.87459000  1.0
  Co  Co10  2  0.25001000  0.00000000  0.04237000  1.0
  Co  Co11  2  0.25717000  0.50000000  0.04401000  1.0
  Sn  Sn12  2  0.50000000  0.24848000  0.04174000  1.0
  Sn  Sn13  2  0.50000000  0.25000000  0.87459000  1.0
  Sn  Sn14  1  0.00000000  0.00000000  0.13025000  1.0
  Sn  Sn15  1  0.00000000  0.00000000  0.95820000  1.0
  Sn  Sn16  1  0.00000000  0.50000000  0.13161000  1.0
  Sn  Sn17  1  0.00000000  0.50000000  0.95820000  1.0
  C  C18  1  0.50000000  0.00000000  0.21392000  1.0
  O  O19  1  0.50000000  0.00000000  0.25691000  1.0
