# generated using pymatgen
data_Li4Hf4Sn4Pd4CO
_symmetry_space_group_name_H-M   'P 1'
_cell_length_a   6.67688000
_cell_length_b   6.67688000
_cell_length_c   25.00770000
_cell_angle_alpha   90.00000000
_cell_angle_beta   90.00000000
_cell_angle_gamma   90.00000000
_symmetry_Int_Tables_number   1
_chemical_formula_structural   Li4Hf4Sn4Pd4CO
_chemical_formula_sum   'Li4 Hf4 Sn4 Pd4 C1 O1'
_cell_volume   1114.86143495
_cell_formula_units_Z   1
loop_
 _symmetry_equiv_pos_site_id
 _symmetry_equiv_pos_as_xyz
  1  'x, y, z'
loop_
 _atom_site_type_symbol
 _atom_site_label
 _atom_site_symmetry_multiplicity
 _atom_site_fract_x
 _atom_site_fract_y
 _atom_site_fract_z
 _atom_site_occupancy
  Li  Li0  1  0.00000000  0.49998000  0.10012000  1
  Li  Li1  1  0.00296500  0.00296500  0.96938000  1
  Li  Li2  1  0.50285000  0.50285000  0.96296000  1
  Li  Li3  1  0.49998000  1.00000000  0.10012000  1
  Hf  Hf4  1  0.99999000  0.99999000  0.10012000  1
  Hf  Hf5  1  0.99987000  0.50009000  0.96273000  1
  Hf  Hf6  1  0.50009000  0.99987000  0.96273000  1
  Hf  Hf7  1  0.49999000  0.49999000  0.10012000  1
  Sn  Sn8  1  0.25000000  0.74998000  0.03337000  1
  Sn  Sn9  1  0.24092000  0.24092000  0.89380000  1
  Sn  Sn10  1  0.77034000  0.77034000  0.89403000  1
  Sn  Sn11  1  0.74998000  0.25000000  0.03337000  1
  Pd  Pd12  1  0.74999000  0.74999000  0.03337000  1
  Pd  Pd13  1  0.76103000  0.23854000  0.90921000  1
  Pd  Pd14  1  0.23854000  0.76103000  0.90921000  1
  Pd  Pd15  1  0.24999000  0.24999000  0.03337000  1
  C  C16  1  0.68613000  0.68613000  0.76386000  1
  O  O17  1  0.77834500  0.77834500  0.73464000  1
