# generated using pymatgen
data_Pd
_symmetry_space_group_name_H-M   'P 1'
_cell_length_a   2.82467592
_cell_length_b   2.82467592
_cell_length_c   25.99200000
_cell_angle_alpha   90.00000000
_cell_angle_beta   90.00000000
_cell_angle_gamma   90.00000000
_symmetry_Int_Tables_number   1
_chemical_formula_structural   Pd
_chemical_formula_sum   Pd4
_cell_volume   207.38481551
_cell_formula_units_Z   4
loop_
 _symmetry_equiv_pos_site_id
 _symmetry_equiv_pos_as_xyz
  1  'x, y, z'
loop_
 _atom_site_type_symbol
 _atom_site_label
 _atom_site_symmetry_multiplicity
 _atom_site_fract_x
 _atom_site_fract_y
 _atom_site_fract_z
 _atom_site_occupancy
  Pd  Pd0  1  0.00000000  0.50000000  0.88473000  1.0
  Pd  Pd1  1  0.50000000  0.00000000  0.96158000  1.0
  Pd  Pd2  1  0.00000000  0.50000000  0.03842000  1.0
  Pd  Pd3  1  0.50000000  0.00000000  0.11527000  1.0
