# generated using pymatgen
data_Sc4Ga4Ge4Pd4C
_symmetry_space_group_name_H-M   Pm
_cell_length_a   5.81182000
_cell_length_b   8.08666000
_cell_length_c   24.34090000
_cell_angle_alpha   90.00000000
_cell_angle_beta   90.00000000
_cell_angle_gamma   90.00000000
_symmetry_Int_Tables_number   6
_chemical_formula_structural   Sc4Ga4Ge4Pd4C
_chemical_formula_sum   'Sc4 Ga4 Ge4 Pd4 C1'
_cell_volume   1143.97878629
_cell_formula_units_Z   1
loop_
 _symmetry_equiv_pos_site_id
 _symmetry_equiv_pos_as_xyz
  1  'x, y, z'
  2  'x, -y, z'
loop_
 _atom_site_type_symbol
 _atom_site_label
 _atom_site_symmetry_multiplicity
 _atom_site_fract_x
 _atom_site_fract_y
 _atom_site_fract_z
 _atom_site_occupancy
  Sc  Sc0  1  0.18191000  0.00000000  0.91083000  1.0
  Sc  Sc1  1  0.18191000  0.50000000  0.91083000  1.0
  Sc  Sc2  1  0.72335000  0.50000000  0.03560000  1.0
  Sc  Sc3  1  0.75263000  0.00000000  0.02807000  1.0
  Ga  Ga4  2  0.05394000  0.25880000  0.08264000  1.0
  Ga  Ga5  2  0.45461000  0.25002000  0.97028000  1.0
  Ge  Ge6  2  0.52116000  0.23370000  0.10555000  1.0
  Ge  Ge7  2  0.95461000  0.25002000  0.97028000  1.0
  Pd  Pd8  1  0.23334000  0.50000000  0.02174000  1.0
  Pd  Pd9  1  0.25010000  0.00000000  0.03242000  1.0
  Pd  Pd10  1  0.68191000  0.00000000  0.91083000  1.0
  Pd  Pd11  1  0.68191000  0.50000000  0.91083000  1.0
  C  C12  1  0.52227000  0.00000000  0.10015000  1.0
