# generated using pymatgen
data_MnAl
_symmetry_space_group_name_H-M   'P 1'
_cell_length_a   3.54180000
_cell_length_b   3.88348500
_cell_length_c   25.82520000
_cell_angle_alpha   90.00000000
_cell_angle_beta   90.00000000
_cell_angle_gamma   90.00000000
_symmetry_Int_Tables_number   1
_chemical_formula_structural   MnAl
_chemical_formula_sum   'Mn4 Al4'
_cell_volume   355.21341515
_cell_formula_units_Z   4
loop_
 _symmetry_equiv_pos_site_id
 _symmetry_equiv_pos_as_xyz
  1  'x, y, z'
loop_
 _atom_site_type_symbol
 _atom_site_label
 _atom_site_symmetry_multiplicity
 _atom_site_fract_x
 _atom_site_fract_y
 _atom_site_fract_z
 _atom_site_occupancy
  Mn  Mn0  1  0.50000000  0.25000000  0.88722000  1.0
  Mn  Mn1  1  0.50000000  0.75000000  0.96241000  1.0
  Mn  Mn2  1  0.50000000  0.25000000  0.03759000  1.0
  Mn  Mn3  1  0.50000000  0.75000000  0.11278000  1.0
  Al  Al4  1  0.00000000  0.75000000  0.88722000  1.0
  Al  Al5  1  0.00000000  0.25000000  0.96241000  1.0
  Al  Al6  1  0.00000000  0.75000000  0.03759000  1.0
  Al  Al7  1  0.00000000  0.25000000  0.11278000  1.0
