# generated using pymatgen
data_Ti16Ni16CO
_symmetry_space_group_name_H-M   P1
_cell_length_a   6.03636000
_cell_length_b   8.53670000
_cell_length_c   26.40250000
_cell_angle_alpha   90.00000000
_cell_angle_beta   90.00000000
_cell_angle_gamma   90.00000000
_symmetry_Int_Tables_number   1
_chemical_formula_structural   Ti16Ni16CO
_chemical_formula_sum   'Ti16 Ni16 C1 O1'
_cell_volume   1360.53651896
_cell_formula_units_Z   1
loop_
 _symmetry_equiv_pos_site_id
 _symmetry_equiv_pos_as_xyz
  1  'x, y, z'
loop_
 _atom_site_type_symbol
 _atom_site_label
 _atom_site_symmetry_multiplicity
 _atom_site_fract_x
 _atom_site_fract_y
 _atom_site_fract_z
 _atom_site_occupancy
  Ti  Ti0  1  0.25000000  0.00000000  0.95958000  1.0
  Ti  Ti1  1  0.25000000  0.25000000  0.87875000  1.0
  Ti  Ti2  1  0.25000000  0.50000000  0.95958000  1.0
  Ti  Ti3  1  0.25000000  0.75000000  0.87875000  1.0
  Ti  Ti4  1  0.25002000  0.99999000  0.12332000  1.0
  Ti  Ti5  1  0.25017000  0.50002000  0.12548000  1.0
  Ti  Ti6  1  0.25018000  0.24343000  0.03917000  1.0
  Ti  Ti7  1  0.25018000  0.75663000  0.03916000  1.0
  Ti  Ti8  1  0.75000000  0.00000000  0.95958000  1.0
  Ti  Ti9  1  0.75000000  0.25000000  0.87875000  1.0
  Ti  Ti10  1  0.75000000  0.50000000  0.95958000  1.0
  Ti  Ti11  1  0.75000000  0.75000000  0.87875000  1.0
  Ti  Ti12  1  0.75009000  0.50001000  0.12149000  1.0
  Ti  Ti13  1  0.75011000  0.25581000  0.03952000  1.0
  Ti  Ti14  1  0.75012000  0.74410000  0.03951000  1.0
  Ti  Ti15  1  0.75021000  0.00000000  0.12669000  1.0
  Ni  Ni16  1  0.00000000  0.00000000  0.87875000  1.0
  Ni  Ni17  1  0.00000000  0.25000000  0.95958000  1.0
  Ni  Ni18  1  0.00000000  0.50000000  0.87875000  1.0
  Ni  Ni19  1  0.00000000  0.75000000  0.95958000  1.0
  Ni  Ni20  1  0.00039000  0.74915000  0.11306000  1.0
  Ni  Ni21  1  0.00040000  0.25083000  0.11306000  1.0
  Ni  Ni22  1  0.02952000  0.50000000  0.04686000  1.0
  Ni  Ni23  1  0.47045000  0.50000000  0.04686000  1.0
  Ni  Ni24  1  0.49982000  0.25073000  0.11307000  1.0
  Ni  Ni25  1  0.49983000  0.74925000  0.11307000  1.0
  Ni  Ni26  1  0.50000000  0.00000000  0.87875000  1.0
  Ni  Ni27  1  0.50000000  0.25000000  0.95958000  1.0
  Ni  Ni28  1  0.50000000  0.50000000  0.87875000  1.0
  Ni  Ni29  1  0.50000000  0.75000000  0.95958000  1.0
  Ni  Ni30  1  0.53139000  0.99992000  0.04663000  1.0
  Ni  Ni31  1  0.96941000  0.99992000  0.04662000  1.0
  C  C32  1  0.24800000  0.00000000  0.20310000  1.0
  O  O33  1  0.24755000  0.00001000  0.24693000  1.0
