# generated using pymatgen
data_Zr8In8Cu16CO
_symmetry_space_group_name_H-M   'P 1'
_cell_length_a   6.47982000
_cell_length_b   9.16384000
_cell_length_c   26.87290000
_cell_angle_alpha   90.00000000
_cell_angle_beta   90.00000000
_cell_angle_gamma   90.00000000
_symmetry_Int_Tables_number   1
_chemical_formula_structural   Zr8In8Cu16CO
_chemical_formula_sum   'Zr8 In8 Cu16 C1 O1'
_cell_volume   1595.71370785
_cell_formula_units_Z   1
loop_
 _symmetry_equiv_pos_site_id
 _symmetry_equiv_pos_as_xyz
  1  'x, y, z'
loop_
 _atom_site_type_symbol
 _atom_site_label
 _atom_site_symmetry_multiplicity
 _atom_site_fract_x
 _atom_site_fract_y
 _atom_site_fract_z
 _atom_site_occupancy
  Zr  Zr0  1  0.00000000  0.00000000  0.87212000  1.0
  Zr  Zr1  1  0.50000000  0.25000000  0.95737000  1.0
  Zr  Zr2  1  0.50000000  0.75000000  0.95737000  1.0
  Zr  Zr3  1  0.00000000  0.50000000  0.87212000  1.0
  Zr  Zr4  1  0.99794000  0.49760000  0.04383000  1.0
  Zr  Zr5  1  0.48841000  0.77332000  0.12958000  1.0
  Zr  Zr6  1  0.48890000  0.21788000  0.13404000  1.0
  Zr  Zr7  1  0.00370000  0.00222000  0.04381000  1.0
  In  In8  1  0.00000000  0.75000000  0.95737000  1.0
  In  In9  1  0.50000000  0.00000000  0.87212000  1.0
  In  In10  1  0.00000000  0.25000000  0.95737000  1.0
  In  In11  1  0.50000000  0.50000000  0.87212000  1.0
  In  In12  1  0.99334000  0.25791000  0.13058000  1.0
  In  In13  1  0.49892000  0.50206000  0.04098000  1.0
  In  In14  1  0.99122000  0.71803000  0.13577000  1.0
  In  In15  1  0.50063000  0.99943000  0.04112000  1.0
  Cu  Cu16  1  0.25000000  0.00000000  0.95737000  1.0
  Cu  Cu17  1  0.75000000  0.50000000  0.95737000  1.0
  Cu  Cu18  1  0.75000000  0.00000000  0.95737000  1.0
  Cu  Cu19  1  0.25000000  0.50000000  0.95737000  1.0
  Cu  Cu20  1  0.75000000  0.75000000  0.87212000  1.0
  Cu  Cu21  1  0.25000000  0.25000000  0.87212000  1.0
  Cu  Cu22  1  0.25000000  0.75000000  0.87212000  1.0
  Cu  Cu23  1  0.75000000  0.25000000  0.87212000  1.0
  Cu  Cu24  1  0.28596000  0.49109000  0.12935000  1.0
  Cu  Cu25  1  0.78477000  0.98403000  0.12973000  1.0
  Cu  Cu26  1  0.69999000  0.48985000  0.12960000  1.0
  Cu  Cu27  1  0.18416000  0.98215000  0.13681000  1.0
  Cu  Cu28  1  0.73860000  0.25073000  0.04550000  1.0
  Cu  Cu29  1  0.24530000  0.74838000  0.04366000  1.0
  Cu  Cu30  1  0.25693000  0.25228000  0.04450000  1.0
  Cu  Cu31  1  0.75060000  0.75078000  0.04473000  1.0
  C  C32  1  0.48737000  0.97630000  0.17104000  1.0
  O  O33  1  0.49242000  0.09164000  0.19991000  1.0
