# generated using pymatgen
data_Li4Al4Ag4Sn4C
_symmetry_space_group_name_H-M   'P 1'
_cell_length_a   8.16098000
_cell_length_b   6.09080000
_cell_length_c   24.56780000
_cell_angle_alpha   90.00000000
_cell_angle_beta   90.00000000
_cell_angle_gamma   90.00000000
_symmetry_Int_Tables_number   1
_chemical_formula_structural   Li4Al4Ag4Sn4C
_chemical_formula_sum   'Li4 Al4 Ag4 Sn4 C1'
_cell_volume   1221.18910372
_cell_formula_units_Z   1
loop_
 _symmetry_equiv_pos_site_id
 _symmetry_equiv_pos_as_xyz
  1  'x, y, z'
loop_
 _atom_site_type_symbol
 _atom_site_label
 _atom_site_symmetry_multiplicity
 _atom_site_fract_x
 _atom_site_fract_y
 _atom_site_fract_z
 _atom_site_occupancy
  Li  Li0  1  0.50000000  0.76023000  0.03739000  1.0
  Li  Li1  1  0.50000000  0.25929000  0.90704000  1.0
  Li  Li2  1  0.00000000  0.75490000  0.03324000  1.0
  Li  Li3  1  0.00000000  0.25929000  0.90704000  1.0
  Al  Al4  1  0.50000000  0.24228000  0.02454000  1.0
  Al  Al5  1  0.50000000  0.75929000  0.90704000  1.0
  Al  Al6  1  0.00000000  0.29251000  0.03801000  1.0
  Al  Al7  1  0.00000000  0.75929000  0.90704000  1.0
  Ag  Ag8  1  0.78501000  0.01399000  0.09181000  1.0
  Ag  Ag9  1  0.75000000  0.50619000  0.96901000  1.0
  Ag  Ag10  1  0.21499000  0.01399000  0.09181000  1.0
  Ag  Ag11  1  0.25000000  0.50619000  0.96901000  1.0
  Sn  Sn12  1  0.74817000  0.52536000  0.10953000  1.0
  Sn  Sn13  1  0.75000000  0.00619000  0.96901000  1.0
  Sn  Sn14  1  0.25183000  0.52536000  0.10953000  1.0
  Sn  Sn15  1  0.25000000  0.00619000  0.96901000  1.0
  C  C16  1  0.50000000  0.45606000  0.08180000  1.0
