# generated using pymatgen
data_Li2SbPd
_symmetry_space_group_name_H-M   'P 1'
_cell_length_a   6.43375000
_cell_length_b   4.54935000
_cell_length_c   26.82400000
_cell_angle_alpha   90.00000000
_cell_angle_beta   90.00000000
_cell_angle_gamma   90.00000000
_symmetry_Int_Tables_number   1
_chemical_formula_structural   Li2SbPd
_chemical_formula_sum   'Li8 Sb4 Pd4'
_cell_volume   785.12186421
_cell_formula_units_Z   4
loop_
 _symmetry_equiv_pos_site_id
 _symmetry_equiv_pos_as_xyz
  1  'x, y, z'
loop_
 _atom_site_type_symbol
 _atom_site_label
 _atom_site_symmetry_multiplicity
 _atom_site_fract_x
 _atom_site_fract_y
 _atom_site_fract_z
 _atom_site_occupancy
  Li  Li0  1  0.00000000  0.50000000  0.95760000  1.0
  Li  Li1  1  0.50000000  0.00000000  0.87280000  1.0
  Li  Li2  1  0.75000000  0.50000000  0.87280000  1.0
  Li  Li3  1  0.25000000  0.00000000  0.95760000  1.0
  Li  Li4  1  0.97567000  0.50000000  0.12488000  1.0
  Li  Li5  1  0.48859000  0.00000000  0.03820000  1.0
  Li  Li6  1  0.73607000  0.50000000  0.04439000  1.0
  Li  Li7  1  0.27616000  0.00000000  0.12762000  1.0
  Sb  Sb8  1  0.00000000  0.00000000  0.87280000  1.0
  Sb  Sb9  1  0.50000000  0.50000000  0.95760000  1.0
  Sb  Sb10  1  0.00756000  0.00000000  0.04380000  1.0
  Sb  Sb11  1  0.50883000  0.50000000  0.13461000  1.0
  Pd  Pd12  1  0.75000000  0.00000000  0.95760000  1.0
  Pd  Pd13  1  0.25000000  0.50000000  0.87280000  1.0
  Pd  Pd14  1  0.72326000  0.00000000  0.11511000  1.0
  Pd  Pd15  1  0.25971000  0.50000000  0.04710000  1.0
