# generated using pymatgen
data_K24Pd8CO
_symmetry_space_group_name_H-M   P4mm
_cell_length_a   11.07580000
_cell_length_b   11.07580000
_cell_length_c   28.30690000
_cell_angle_alpha   90.00000000
_cell_angle_beta   90.00000000
_cell_angle_gamma   90.00000000
_symmetry_Int_Tables_number   99
_chemical_formula_structural   K24Pd8CO
_chemical_formula_sum   'K24 Pd8 C1 O1'
_cell_volume   3472.50212770
_cell_formula_units_Z   1
loop_
 _symmetry_equiv_pos_site_id
 _symmetry_equiv_pos_as_xyz
  1  'x, y, z'
  2  '-y, x, z'
  3  '-x, -y, z'
  4  'y, -x, z'
  5  '-x, y, z'
  6  'y, x, z'
  7  'x, -y, z'
  8  '-y, -x, z'
loop_
 _atom_site_type_symbol
 _atom_site_label
 _atom_site_symmetry_multiplicity
 _atom_site_fract_x
 _atom_site_fract_y
 _atom_site_fract_z
 _atom_site_occupancy
  K  K0  4  0.00000000  0.25000000  0.04891000  1.0
  K  K1  4  0.00000000  0.25000000  0.85327000  1.0
  K  K2  4  0.25000000  0.25000000  0.14673000  1.0
  K  K3  4  0.25000000  0.25000000  0.95109000  1.0
  K  K4  4  0.25000000  0.50000000  0.04891000  1.0
  K  K5  4  0.25000000  0.50000000  0.85327000  1.0
  Pd  Pd6  2  0.00000000  0.50000000  0.14673000  1.0
  Pd  Pd7  2  0.00000000  0.50000000  0.95109000  1.0
  Pd  Pd8  1  0.00000000  0.00000000  0.14673000  1.0
  Pd  Pd9  1  0.00000000  0.00000000  0.95109000  1.0
  Pd  Pd10  1  0.50000000  0.50000000  0.14673000  1.0
  Pd  Pd11  1  0.50000000  0.50000000  0.95109000  1.0
  C  C12  1  0.00000000  0.00000000  0.21385000  1.0
  O  O13  1  0.00000000  0.00000000  0.25448000  1.0
