data_image0
_chemical_formula_structural       Sc16Cu16C
_chemical_formula_sum              "Sc16 Cu16 C1"
_cell_length_a       6.54723
_cell_length_b       9.25918
_cell_length_c       26.9444
_cell_angle_alpha    90
_cell_angle_beta     90
_cell_angle_gamma    90

_space_group_name_H-M_alt    "P 1"
_space_group_IT_number       1

loop_
  _space_group_symop_operation_xyz
  'x, y, z'

loop_
  _atom_site_type_symbol
  _atom_site_label
  _atom_site_symmetry_multiplicity
  _atom_site_fract_x
  _atom_site_fract_y
  _atom_site_fract_z
  _atom_site_occupancy
  Sc  Sc1       1.0  0.25000  0.25000  0.87113  1.0000
  Sc  Sc2       1.0  0.25000  0.50000  0.95704  1.0000
  Sc  Sc3       1.0  0.24171  0.23372  0.05013  1.0000
  Sc  Sc4       1.0  0.25783  0.51391  0.13544  1.0000
  Sc  Sc5       1.0  0.25000  0.75000  0.87113  1.0000
  Sc  Sc6       1.0  0.25000  0.00000  0.95704  1.0000
  Sc  Sc7       1.0  0.25394  0.73580  0.04223  1.0000
  Sc  Sc8       1.0  0.24829  0.99078  0.13219  1.0000
  Sc  Sc9       1.0  0.75000  0.25000  0.87113  1.0000
  Sc  Sc10      1.0  0.75000  0.50000  0.95704  1.0000
  Sc  Sc11      1.0  0.75863  0.23427  0.04995  1.0000
  Sc  Sc12      1.0  0.74195  0.51417  0.13551  1.0000
  Sc  Sc13      1.0  0.75000  0.75000  0.87113  1.0000
  Sc  Sc14      1.0  0.75000  0.00000  0.95704  1.0000
  Sc  Sc15      1.0  0.74617  0.73541  0.04219  1.0000
  Sc  Sc16      1.0  0.75297  0.99082  0.13196  1.0000
  Cu  Cu1       1.0  0.00000  0.00000  0.87113  1.0000
  Cu  Cu2       1.0  0.00000  0.25000  0.95704  1.0000
  Cu  Cu3       1.0  0.99948  0.96983  0.03892  1.0000
  Cu  Cu4       1.0  0.99941  0.28279  0.13441  1.0000
  Cu  Cu5       1.0  0.00000  0.50000  0.87113  1.0000
  Cu  Cu6       1.0  0.00000  0.75000  0.95704  1.0000
  Cu  Cu7       1.0  0.00028  0.48929  0.05185  1.0000
  Cu  Cu8       1.0  0.99988  0.73743  0.12095  1.0000
  Cu  Cu9       1.0  0.50000  0.00000  0.87113  1.0000
  Cu  Cu10      1.0  0.50000  0.25000  0.95704  1.0000
  Cu  Cu11      1.0  0.50074  0.98506  0.04983  1.0000
  Cu  Cu12      1.0  0.50057  0.25640  0.12796  1.0000
  Cu  Cu13      1.0  0.50000  0.50000  0.87113  1.0000
  Cu  Cu14      1.0  0.50000  0.75000  0.95704  1.0000
  Cu  Cu15      1.0  0.49977  0.48151  0.04785  1.0000
  Cu  Cu16      1.0  0.50012  0.75030  0.12240  1.0000
  C   C1        1.0  0.00086  0.10469  0.09765  1.0000
