# generated using pymatgen
data_Sc16Cu16C
_symmetry_space_group_name_H-M   P1
_cell_length_a   6.54723000
_cell_length_b   9.25918000
_cell_length_c   26.94440000
_cell_angle_alpha   90.00000000
_cell_angle_beta   90.00000000
_cell_angle_gamma   90.00000000
_symmetry_Int_Tables_number   1
_chemical_formula_structural   Sc16Cu16C
_chemical_formula_sum   'Sc16 Cu16 C1'
_cell_volume   1633.42290678
_cell_formula_units_Z   1
loop_
 _symmetry_equiv_pos_site_id
 _symmetry_equiv_pos_as_xyz
  1  'x, y, z'
loop_
 _atom_site_type_symbol
 _atom_site_label
 _atom_site_symmetry_multiplicity
 _atom_site_fract_x
 _atom_site_fract_y
 _atom_site_fract_z
 _atom_site_occupancy
  Sc  Sc0  1  0.24171000  0.23372000  0.05013000  1.0
  Sc  Sc1  1  0.24829000  0.99078000  0.13219000  1.0
  Sc  Sc2  1  0.25000000  0.00000000  0.95704000  1.0
  Sc  Sc3  1  0.25000000  0.25000000  0.87113000  1.0
  Sc  Sc4  1  0.25000000  0.50000000  0.95704000  1.0
  Sc  Sc5  1  0.25000000  0.75000000  0.87113000  1.0
  Sc  Sc6  1  0.25394000  0.73580000  0.04223000  1.0
  Sc  Sc7  1  0.25783000  0.51391000  0.13544000  1.0
  Sc  Sc8  1  0.74195000  0.51417000  0.13551000  1.0
  Sc  Sc9  1  0.74617000  0.73541000  0.04219000  1.0
  Sc  Sc10  1  0.75000000  0.00000000  0.95704000  1.0
  Sc  Sc11  1  0.75000000  0.25000000  0.87113000  1.0
  Sc  Sc12  1  0.75000000  0.50000000  0.95704000  1.0
  Sc  Sc13  1  0.75000000  0.75000000  0.87113000  1.0
  Sc  Sc14  1  0.75297000  0.99082000  0.13196000  1.0
  Sc  Sc15  1  0.75863000  0.23427000  0.04995000  1.0
  Cu  Cu16  1  0.00000000  0.00000000  0.87113000  1.0
  Cu  Cu17  1  0.00000000  0.25000000  0.95704000  1.0
  Cu  Cu18  1  0.00000000  0.50000000  0.87113000  1.0
  Cu  Cu19  1  0.00000000  0.75000000  0.95704000  1.0
  Cu  Cu20  1  0.00028000  0.48929000  0.05185000  1.0
  Cu  Cu21  1  0.49977000  0.48151000  0.04785000  1.0
  Cu  Cu22  1  0.50000000  0.00000000  0.87113000  1.0
  Cu  Cu23  1  0.50000000  0.25000000  0.95704000  1.0
  Cu  Cu24  1  0.50000000  0.50000000  0.87113000  1.0
  Cu  Cu25  1  0.50000000  0.75000000  0.95704000  1.0
  Cu  Cu26  1  0.50012000  0.75030000  0.12240000  1.0
  Cu  Cu27  1  0.50057000  0.25640000  0.12796000  1.0
  Cu  Cu28  1  0.50074000  0.98506000  0.04983000  1.0
  Cu  Cu29  1  0.99941000  0.28279000  0.13441000  1.0
  Cu  Cu30  1  0.99948000  0.96983000  0.03892000  1.0
  Cu  Cu31  1  0.99988000  0.73743000  0.12095000  1.0
  C  C32  1  0.00086000  0.10469000  0.09765000  1.0
