# generated using pymatgen
data_ScInAu2
_symmetry_space_group_name_H-M   'P 1'
_cell_length_a   4.84702607
_cell_length_b   4.84702607
_cell_length_c   25.14100000
_cell_angle_alpha   90.00000000
_cell_angle_beta   90.00000000
_cell_angle_gamma   90.00000000
_symmetry_Int_Tables_number   1
_chemical_formula_structural   ScInAu2
_chemical_formula_sum   'Sc2 In2 Au4'
_cell_volume   590.65414846
_cell_formula_units_Z   2
loop_
 _symmetry_equiv_pos_site_id
 _symmetry_equiv_pos_as_xyz
  1  'x, y, z'
loop_
 _atom_site_type_symbol
 _atom_site_label
 _atom_site_symmetry_multiplicity
 _atom_site_fract_x
 _atom_site_fract_y
 _atom_site_fract_z
 _atom_site_occupancy
  Sc  Sc0  1  0.00000000  0.00000000  0.89776000  1.0
  Sc  Sc1  1  0.50000000  0.50000000  0.03408000  1.0
  In  In2  1  0.00000000  0.00000000  0.03408000  1.0
  In  In3  1  0.50000000  0.50000000  0.89776000  1.0
  Au  Au4  1  0.50000000  0.00000000  0.96592000  1.0
  Au  Au5  1  0.50000000  0.00000000  0.10224000  1.0
  Au  Au6  1  0.00000000  0.50000000  0.96592000  1.0
  Au  Au7  1  0.00000000  0.50000000  0.10224000  1.0
