# generated using pymatgen
data_Li8Al8Sn8Pd8CO
_symmetry_space_group_name_H-M   Pm
_cell_length_a   6.48942000
_cell_length_b   9.17742000
_cell_length_c   26.88310000
_cell_angle_alpha   90.00000000
_cell_angle_beta   90.00000000
_cell_angle_gamma   90.00000000
_symmetry_Int_Tables_number   6
_chemical_formula_structural   Li8Al8Sn8Pd8CO
_chemical_formula_sum   'Li8 Al8 Sn8 Pd8 C1 O1'
_cell_volume   1601.05347627
_cell_formula_units_Z   1
loop_
 _symmetry_equiv_pos_site_id
 _symmetry_equiv_pos_as_xyz
  1  'x, y, z'
  2  'x, -y, z'
loop_
 _atom_site_type_symbol
 _atom_site_label
 _atom_site_symmetry_multiplicity
 _atom_site_fract_x
 _atom_site_fract_y
 _atom_site_fract_z
 _atom_site_occupancy
  Li  Li0  2  0.22369000  0.24981000  0.04417000  1.0
  Li  Li1  2  0.25000000  0.25000000  0.87198000  1.0
  Li  Li2  1  0.68418000  0.50000000  0.15725000  1.0
  Li  Li3  1  0.68521000  0.00000000  0.16230000  1.0
  Li  Li4  1  0.75000000  0.00000000  0.95733000  1.0
  Li  Li5  1  0.75000000  0.50000000  0.95733000  1.0
  Al  Al6  2  0.45354000  0.24902000  0.12956000  1.0
  Al  Al7  2  0.50000000  0.25000000  0.95733000  1.0
  Al  Al8  1  -0.00000000  0.50000000  0.87198000  1.0
  Al  Al9  1  0.00000000  0.00000000  0.87198000  1.0
  Al  Al10  1  0.96203000  0.00000000  0.05123000  1.0
  Al  Al11  1  0.96233000  0.50000000  0.05157000  1.0
  Sn  Sn12  2  0.00000000  0.25000000  0.95733000  1.0
  Sn  Sn13  2  0.95993000  0.25066000  0.13368000  1.0
  Sn  Sn14  1  0.49828000  0.00000000  0.04540000  1.0
  Sn  Sn15  1  0.49879000  0.50000000  0.04517000  1.0
  Sn  Sn16  1  0.50000000  0.00000000  0.87198000  1.0
  Sn  Sn17  1  0.50000000  0.50000000  0.87198000  1.0
  Pd  Pd18  2  0.74612000  0.24998000  0.03739000  1.0
  Pd  Pd19  2  0.75000000  0.25000000  0.87198000  1.0
  Pd  Pd20  1  0.22875000  0.00000000  0.12138000  1.0
  Pd  Pd21  1  0.23137000  0.50000000  0.12123000  1.0
  Pd  Pd22  1  0.25000000  0.00000000  0.95733000  1.0
  Pd  Pd23  1  0.25000000  0.50000000  0.95733000  1.0
  C  C24  1  0.72090000  0.00000000  0.24049000  1.0
  O  O25  1  0.74002000  0.00000000  0.28255000  1.0
