# generated using pymatgen
data_Li8Y8In8Ag8C
_symmetry_space_group_name_H-M   'P 1'
_cell_length_a   9.76810000
_cell_length_b   6.90709000
_cell_length_c   27.32610000
_cell_angle_alpha   90.00000000
_cell_angle_beta   90.00000000
_cell_angle_gamma   90.00000000
_symmetry_Int_Tables_number   1
_chemical_formula_structural   Li8Y8In8Ag8C
_chemical_formula_sum   'Li8 Y8 In8 Ag8 C1'
_cell_volume   1843.66862584
_cell_formula_units_Z   1
loop_
 _symmetry_equiv_pos_site_id
 _symmetry_equiv_pos_as_xyz
  1  'x, y, z'
loop_
 _atom_site_type_symbol
 _atom_site_label
 _atom_site_symmetry_multiplicity
 _atom_site_fract_x
 _atom_site_fract_y
 _atom_site_fract_z
 _atom_site_occupancy
  Li  Li0  1  0.00000000  0.00000000  0.04468000  1.0
  Li  Li1  1  0.50000000  0.00000000  0.04468000  1.0
  Li  Li2  1  0.25000000  0.50000000  0.13405000  1.0
  Li  Li3  1  0.75000000  0.50000000  0.13405000  1.0
  Li  Li4  1  0.50000000  0.19641000  0.80648000  1.0
  Li  Li5  1  0.00000000  0.12169000  0.81911000  1.0
  Li  Li6  1  0.75303000  0.49984000  0.94924000  1.0
  Li  Li7  1  0.24697000  0.49984000  0.94924000  1.0
  Y  Y8  1  0.75000000  0.75000000  0.04468000  1.0
  Y  Y9  1  0.25000000  0.75000000  0.04468000  1.0
  Y  Y10  1  0.00000000  0.25000000  0.13405000  1.0
  Y  Y11  1  0.50000000  0.25000000  0.13405000  1.0
  Y  Y12  1  0.22633000  0.82281000  0.86542000  1.0
  Y  Y13  1  0.77367000  0.82281000  0.86542000  1.0
  Y  Y14  1  0.50000000  0.24561000  0.94328000  1.0
  Y  Y15  1  0.00000000  0.18261000  0.93010000  1.0
  In  In16  1  0.75000000  0.25000000  0.04468000  1.0
  In  In17  1  0.25000000  0.25000000  0.04468000  1.0
  In  In18  1  0.00000000  0.75000000  0.13405000  1.0
  In  In19  1  0.50000000  0.75000000  0.13405000  1.0
  In  In20  1  0.25731000  0.29099000  0.85726000  1.0
  In  In21  1  0.74269000  0.29099000  0.85726000  1.0
  In  In22  1  0.50000000  0.74879000  0.95719000  1.0
  In  In23  1  0.00000000  0.73450000  0.95827000  1.0
  Ag  Ag24  1  0.75000000  0.00000000  0.13405000  1.0
  Ag  Ag25  1  0.25000000  0.00000000  0.13405000  1.0
  Ag  Ag26  1  0.50000000  0.50000000  0.04468000  1.0
  Ag  Ag27  1  0.00000000  0.50000000  0.04468000  1.0
  Ag  Ag28  1  0.26041000  0.00909000  0.96165000  1.0
  Ag  Ag29  1  0.73959000  0.00909000  0.96165000  1.0
  Ag  Ag30  1  0.00000000  0.51857000  0.86342000  1.0
  Ag  Ag31  1  0.50000000  0.54858000  0.86535000  1.0
  C  C32  1  0.00000000  0.90530000  0.87529000  1.0
