# generated using pymatgen
data_ZrNi2Sb
_symmetry_space_group_name_H-M   'P 1'
_cell_length_a   4.48322500
_cell_length_b   6.34024000
_cell_length_c   26.72480000
_cell_angle_alpha   90.00000000
_cell_angle_beta   90.00000000
_cell_angle_gamma   90.00000000
_symmetry_Int_Tables_number   1
_chemical_formula_structural   ZrNi2Sb
_chemical_formula_sum   'Zr4 Ni8 Sb4'
_cell_volume   759.64502317
_cell_formula_units_Z   4
loop_
 _symmetry_equiv_pos_site_id
 _symmetry_equiv_pos_as_xyz
  1  'x, y, z'
loop_
 _atom_site_type_symbol
 _atom_site_label
 _atom_site_symmetry_multiplicity
 _atom_site_fract_x
 _atom_site_fract_y
 _atom_site_fract_z
 _atom_site_occupancy
  Zr  Zr0  1  0.00000000  0.00000000  0.12582000  1.0
  Zr  Zr1  1  0.50000000  0.50000000  0.04194000  1.0
  Zr  Zr2  1  0.00000000  0.00000000  0.95802500  1.0
  Zr  Zr3  1  0.50000000  0.50000000  0.87510500  1.0
  Ni  Ni4  1  0.00000000  0.75000000  0.04194000  1.0
  Ni  Ni5  1  0.00000000  0.25000000  0.04194000  1.0
  Ni  Ni6  1  0.50000000  0.25000000  0.12582000  1.0
  Ni  Ni7  1  0.50000000  0.75000000  0.12582000  1.0
  Ni  Ni8  1  0.00000000  0.72751500  0.88213000  1.0
  Ni  Ni9  1  0.00000000  0.27248500  0.88213000  1.0
  Ni  Ni10  1  0.50000000  0.24085000  0.95401500  1.0
  Ni  Ni11  1  0.50000000  0.75915000  0.95401500  1.0
  Sb  Sb12  1  0.50000000  0.00000000  0.04194000  1.0
  Sb  Sb13  1  0.00000000  0.50000000  0.12582000  1.0
  Sb  Sb14  1  0.50000000  0.00000000  0.86676000  1.0
  Sb  Sb15  1  0.00000000  0.50000000  0.96136000  1.0
