# generated using pymatgen
data_LiAlFePd
_symmetry_space_group_name_H-M   Pm
_cell_length_a   5.25393000
_cell_length_b   4.30356000
_cell_length_c   23.58290000
_cell_angle_alpha   90.00000000
_cell_angle_beta   90.00000000
_cell_angle_gamma   90.00000000
_symmetry_Int_Tables_number   6
_chemical_formula_structural   LiAlFePd
_chemical_formula_sum   'Li2 Al2 Fe2 Pd2'
_cell_volume   533.22358927
_cell_formula_units_Z   2
loop_
 _symmetry_equiv_pos_site_id
 _symmetry_equiv_pos_as_xyz
  1  'x, y, z'
  2  'x, -y, z'
loop_
 _atom_site_type_symbol
 _atom_site_label
 _atom_site_symmetry_multiplicity
 _atom_site_fract_x
 _atom_site_fract_y
 _atom_site_fract_z
 _atom_site_occupancy
  Li  Li0  1  0.07545000  0.50000000  0.91738500  1.0
  Li  Li1  1  0.35406000  0.50000000  0.02532000  1.0
  Al  Al2  1  0.00000000  0.00000000  0.07596000  1.0
  Al  Al3  1  0.71528000  0.00000000  0.97839000  1.0
  Fe  Fe4  1  0.61603500  0.50000000  0.94841000  1.0
  Fe  Fe5  1  0.85406000  0.50000000  0.02532000  1.0
  Pd  Pd6  1  0.20918000  0.00000000  0.97282000  1.0
  Pd  Pd7  1  0.50000000  0.00000000  0.07596000  1.0
