data_image0
_chemical_formula_structural       Li8In8Pd8Pt8C
_chemical_formula_sum              "Li8 In8 Pd8 Pt8 C1"
_cell_length_a       6.39502
_cell_length_b       9.04392
_cell_length_c       26.7829
_cell_angle_alpha    90
_cell_angle_beta     90
_cell_angle_gamma    90

_space_group_name_H-M_alt    "P 1"
_space_group_IT_number       1

loop_
  _space_group_symop_operation_xyz
  'x, y, z'

loop_
  _atom_site_type_symbol
  _atom_site_label
  _atom_site_symmetry_multiplicity
  _atom_site_fract_x
  _atom_site_fract_y
  _atom_site_fract_z
  _atom_site_occupancy
  Li  Li1       1.0  0.00000  0.25000  0.95779  1.0000
  Li  Li2       1.0  0.00000  0.75000  0.95779  1.0000
  Li  Li3       1.0  0.50000  0.50000  0.87337  1.0000
  Li  Li4       1.0  0.50000  0.00000  0.87337  1.0000
  Li  Li5       1.0  0.01209  0.75000  0.13127  1.0000
  Li  Li6       1.0  0.02829  0.25000  0.13277  1.0000
  Li  Li7       1.0  0.49891  0.99987  0.04121  1.0000
  Li  Li8       1.0  0.49891  0.50013  0.04121  1.0000
  In  In1       1.0  0.00000  0.00000  0.87337  1.0000
  In  In2       1.0  0.00000  0.50000  0.87337  1.0000
  In  In3       1.0  0.50000  0.75000  0.95779  1.0000
  In  In4       1.0  0.50000  0.25000  0.95779  1.0000
  In  In5       1.0  0.00260  0.50161  0.04163  1.0000
  In  In6       1.0  0.00260  0.99838  0.04163  1.0000
  In  In7       1.0  0.41555  0.25000  0.16633  1.0000
  In  In8       1.0  0.50597  0.75000  0.13367  1.0000
  Pd  Pd1       1.0  0.75000  0.00000  0.95779  1.0000
  Pd  Pd2       1.0  0.75000  0.50000  0.95779  1.0000
  Pd  Pd3       1.0  0.25000  0.25000  0.87337  1.0000
  Pd  Pd4       1.0  0.25000  0.75000  0.87337  1.0000
  Pd  Pd5       1.0  0.73199  0.47715  0.12317  1.0000
  Pd  Pd6       1.0  0.73199  0.02285  0.12317  1.0000
  Pd  Pd7       1.0  0.25815  0.75000  0.04416  1.0000
  Pd  Pd8       1.0  0.26210  0.25000  0.04553  1.0000
  Pt  Pt1       1.0  0.25000  0.00000  0.95779  1.0000
  Pt  Pt2       1.0  0.25000  0.50000  0.95779  1.0000
  Pt  Pt3       1.0  0.75000  0.25000  0.87337  1.0000
  Pt  Pt4       1.0  0.75000  0.75000  0.87337  1.0000
  Pt  Pt5       1.0  0.26285  0.50401  0.12182  1.0000
  Pt  Pt6       1.0  0.26285  0.99599  0.12182  1.0000
  Pt  Pt7       1.0  0.74592  0.75000  0.04574  1.0000
  Pt  Pt8       1.0  0.74079  0.25000  0.04533  1.0000
  C   C1        1.0  0.71589  0.25000  0.11830  1.0000
