# generated using pymatgen
data_Li8In8Pd8Pt8C
_symmetry_space_group_name_H-M   'P 1'
_cell_length_a   9.04392000
_cell_length_b   6.39502000
_cell_length_c   26.78290000
_cell_angle_alpha   90.00000000
_cell_angle_beta   90.00000000
_cell_angle_gamma   90.00000000
_symmetry_Int_Tables_number   1
_chemical_formula_structural   Li8In8Pd8Pt8C
_chemical_formula_sum   'Li8 In8 Pd8 Pt8 C1'
_cell_volume   1549.01712422
_cell_formula_units_Z   1
loop_
 _symmetry_equiv_pos_site_id
 _symmetry_equiv_pos_as_xyz
  1  'x, y, z'
loop_
 _atom_site_type_symbol
 _atom_site_label
 _atom_site_symmetry_multiplicity
 _atom_site_fract_x
 _atom_site_fract_y
 _atom_site_fract_z
 _atom_site_occupancy
  Li  Li0  1  0.00000000  1.00000000  0.04221000  1.0
  Li  Li1  1  0.50000000  1.00000000  0.04221000  1.0
  Li  Li2  1  0.25000000  0.50000000  0.12663000  1.0
  Li  Li3  1  0.75000000  0.50000000  0.12663000  1.0
  Li  Li4  1  0.50000000  0.01209000  0.86873000  1.0
  Li  Li5  1  0.00000000  0.02829000  0.86723000  1.0
  Li  Li6  1  0.74987000  0.49891000  0.95879000  1.0
  Li  Li7  1  0.25013000  0.49891000  0.95879000  1.0
  In  In8  1  0.75000000  0.00000000  0.12663000  1.0
  In  In9  1  0.25000000  0.00000000  0.12663000  1.0
  In  In10  1  0.50000000  0.50000000  0.04221000  1.0
  In  In11  1  0.00000000  0.50000000  0.04221000  1.0
  In  In12  1  0.25161000  0.00260000  0.95837000  1.0
  In  In13  1  0.74839000  0.00260000  0.95837000  1.0
  In  In14  1  0.00000000  0.41555000  0.83367000  1.0
  In  In15  1  0.50000000  0.50597000  0.86633000  1.0
  Pd  Pd16  1  0.75000000  0.75000000  0.04221000  1.0
  Pd  Pd17  1  0.25000000  0.75000000  0.04221000  1.0
  Pd  Pd18  1  0.00000000  0.25000000  0.12663000  1.0
  Pd  Pd19  1  0.50000000  0.25000000  0.12663000  1.0
  Pd  Pd20  1  0.22715000  0.73199000  0.87683000  1.0
  Pd  Pd21  1  0.77285000  0.73199000  0.87683000  1.0
  Pd  Pd22  1  0.50000000  0.25815000  0.95584000  1.0
  Pd  Pd23  1  0.00000000  0.26210000  0.95447000  1.0
  Pt  Pt24  1  0.75000000  0.25000000  0.04221000  1.0
  Pt  Pt25  1  0.25000000  0.25000000  0.04221000  1.0
  Pt  Pt26  1  0.00000000  0.75000000  0.12663000  1.0
  Pt  Pt27  1  0.50000000  0.75000000  0.12663000  1.0
  Pt  Pt28  1  0.25401000  0.26285000  0.87818000  1.0
  Pt  Pt29  1  0.74599000  0.26285000  0.87818000  1.0
  Pt  Pt30  1  0.50000000  0.74592000  0.95426000  1.0
  Pt  Pt31  1  0.00000000  0.74079000  0.95467000  1.0
  C  C32  1  0.00000000  0.71589000  0.88170000  1.0
