data_image0
_chemical_formula_structural       Li16Al8Pt8CO
_chemical_formula_sum              "Li16 Al8 Pt8 C1 O1"
_cell_length_a       6.07419
_cell_length_b       8.5902
_cell_length_c       26.4427
_cell_angle_alpha    90
_cell_angle_beta     90
_cell_angle_gamma    90

_space_group_name_H-M_alt    "P 1"
_space_group_IT_number       1

loop_
  _space_group_symop_operation_xyz
  'x, y, z'

loop_
  _atom_site_type_symbol
  _atom_site_label
  _atom_site_symmetry_multiplicity
  _atom_site_fract_x
  _atom_site_fract_y
  _atom_site_fract_z
  _atom_site_occupancy
  Li  Li1       1.0  0.00000  0.75000  0.95939  1.0000
  Li  Li2       1.0  0.50000  0.00000  0.87818  1.0000
  Li  Li3       1.0  0.00000  0.25000  0.95939  1.0000
  Li  Li4       1.0  0.50000  0.50000  0.87818  1.0000
  Li  Li5       1.0  0.25000  0.00000  0.95939  1.0000
  Li  Li6       1.0  0.25000  0.50000  0.95939  1.0000
  Li  Li7       1.0  0.75000  0.75000  0.87818  1.0000
  Li  Li8       1.0  0.75000  0.25000  0.87818  1.0000
  Li  Li9       1.0  0.98458  0.24994  0.14168  1.0000
  Li  Li10      1.0  0.50155  0.49483  0.03839  1.0000
  Li  Li11      1.0  0.99367  0.75009  0.12596  1.0000
  Li  Li12      1.0  0.50114  0.00511  0.03831  1.0000
  Li  Li13      1.0  0.26295  0.49871  0.12484  1.0000
  Li  Li14      1.0  0.26306  0.00140  0.12479  1.0000
  Li  Li15      1.0  0.77109  0.24995  0.04218  1.0000
  Li  Li16      1.0  0.76670  0.75006  0.03610  1.0000
  Al  Al1       1.0  0.00000  0.00000  0.87818  1.0000
  Al  Al2       1.0  0.50000  0.25000  0.95939  1.0000
  Al  Al3       1.0  0.50000  0.75000  0.95939  1.0000
  Al  Al4       1.0  0.00000  0.50000  0.87818  1.0000
  Al  Al5       1.0  0.01326  0.50194  0.04038  1.0000
  Al  Al6       1.0  0.52860  0.75000  0.11578  1.0000
  Al  Al7       1.0  0.52868  0.25005  0.12120  1.0000
  Al  Al8       1.0  0.01332  0.99812  0.04034  1.0000
  Pt  Pt1       1.0  0.25000  0.25000  0.87818  1.0000
  Pt  Pt2       1.0  0.25000  0.75000  0.87818  1.0000
  Pt  Pt3       1.0  0.75000  0.50000  0.95939  1.0000
  Pt  Pt4       1.0  0.75000  0.00000  0.95939  1.0000
  Pt  Pt5       1.0  0.26118  0.74993  0.04135  1.0000
  Pt  Pt6       1.0  0.24801  0.25003  0.04332  1.0000
  Pt  Pt7       1.0  0.74842  0.99958  0.11371  1.0000
  Pt  Pt8       1.0  0.74891  0.50054  0.11384  1.0000
  C   C1        1.0  0.32939  0.25003  0.17846  1.0000
  O   O1        1.0  0.18683  0.24996  0.20955  1.0000
