# generated using pymatgen
data_Li16Al8Pt8CO
_symmetry_space_group_name_H-M   P1
_cell_length_a   6.07419000
_cell_length_b   8.59020000
_cell_length_c   26.44270000
_cell_angle_alpha   90.00000000
_cell_angle_beta   90.00000000
_cell_angle_gamma   90.00000000
_symmetry_Int_Tables_number   1
_chemical_formula_structural   Li16Al8Pt8CO
_chemical_formula_sum   'Li16 Al8 Pt8 C1 O1'
_cell_volume   1379.74060541
_cell_formula_units_Z   1
loop_
 _symmetry_equiv_pos_site_id
 _symmetry_equiv_pos_as_xyz
  1  'x, y, z'
loop_
 _atom_site_type_symbol
 _atom_site_label
 _atom_site_symmetry_multiplicity
 _atom_site_fract_x
 _atom_site_fract_y
 _atom_site_fract_z
 _atom_site_occupancy
  Li  Li0  1  0.00000000  0.25000000  0.95939000  1.0
  Li  Li1  1  0.00000000  0.75000000  0.95939000  1.0
  Li  Li2  1  0.25000000  0.00000000  0.95939000  1.0
  Li  Li3  1  0.25000000  0.50000000  0.95939000  1.0
  Li  Li4  1  0.26295000  0.49871000  0.12484000  1.0
  Li  Li5  1  0.26306000  0.00140000  0.12479000  1.0
  Li  Li6  1  0.50000000  0.00000000  0.87818000  1.0
  Li  Li7  1  0.50000000  0.50000000  0.87818000  1.0
  Li  Li8  1  0.50114000  0.00511000  0.03831000  1.0
  Li  Li9  1  0.50155000  0.49483000  0.03839000  1.0
  Li  Li10  1  0.75000000  0.25000000  0.87818000  1.0
  Li  Li11  1  0.75000000  0.75000000  0.87818000  1.0
  Li  Li12  1  0.76670000  0.75006000  0.03610000  1.0
  Li  Li13  1  0.77109000  0.24995000  0.04218000  1.0
  Li  Li14  1  0.98458000  0.24994000  0.14168000  1.0
  Li  Li15  1  0.99367000  0.75009000  0.12596000  1.0
  Al  Al16  1  0.00000000  0.00000000  0.87818000  1.0
  Al  Al17  1  0.00000000  0.50000000  0.87818000  1.0
  Al  Al18  1  0.01326000  0.50194000  0.04038000  1.0
  Al  Al19  1  0.01332000  0.99812000  0.04034000  1.0
  Al  Al20  1  0.50000000  0.25000000  0.95939000  1.0
  Al  Al21  1  0.50000000  0.75000000  0.95939000  1.0
  Al  Al22  1  0.52860000  0.75000000  0.11578000  1.0
  Al  Al23  1  0.52868000  0.25005000  0.12120000  1.0
  Pt  Pt24  1  0.24801000  0.25003000  0.04332000  1.0
  Pt  Pt25  1  0.25000000  0.25000000  0.87818000  1.0
  Pt  Pt26  1  0.25000000  0.75000000  0.87818000  1.0
  Pt  Pt27  1  0.26118000  0.74993000  0.04135000  1.0
  Pt  Pt28  1  0.74842000  0.99958000  0.11371000  1.0
  Pt  Pt29  1  0.74891000  0.50054000  0.11384000  1.0
  Pt  Pt30  1  0.75000000  0.00000000  0.95939000  1.0
  Pt  Pt31  1  0.75000000  0.50000000  0.95939000  1.0
  C  C32  1  0.32939000  0.25003000  0.17846000  1.0
  O  O33  1  0.18683000  0.24996000  0.20955000  1.0
