data_image0
_chemical_formula_structural       Li4Y4In4Sn4C
_chemical_formula_sum              "Li4 Y4 In4 Sn4 C1"
_cell_length_a       6.33264
_cell_length_b       9.36656
_cell_length_c       24.7486
_cell_angle_alpha    90
_cell_angle_beta     90
_cell_angle_gamma    90

_space_group_name_H-M_alt    "P 1"
_space_group_IT_number       1

loop_
  _space_group_symop_operation_xyz
  'x, y, z'

loop_
  _atom_site_type_symbol
  _atom_site_label
  _atom_site_symmetry_multiplicity
  _atom_site_fract_x
  _atom_site_fract_y
  _atom_site_fract_z
  _atom_site_occupancy
  Li  Li1       1.0  0.50000  0.00000  0.90406  1.0000
  Li  Li2       1.0  0.94538  1.00000  0.03342  1.0000
  Li  Li3       1.0  0.50000  0.50000  0.90406  1.0000
  Li  Li4       1.0  0.96416  0.50000  0.03172  1.0000
  Y   Y1        1.0  0.24516  0.25000  0.96802  1.0000
  Y   Y2        1.0  0.71353  0.23318  0.10425  1.0000
  Y   Y3        1.0  0.24516  0.75000  0.96802  1.0000
  Y   Y4        1.0  0.71352  0.76682  0.10425  1.0000
  In  In1       1.0  0.00000  0.00000  0.90406  1.0000
  In  In2       1.0  0.40867  0.00000  0.04578  1.0000
  In  In3       1.0  0.00000  0.50000  0.90406  1.0000
  In  In4       1.0  0.46655  0.50000  0.03615  1.0000
  Sn  Sn1       1.0  0.74516  0.25000  0.96802  1.0000
  Sn  Sn2       1.0  0.21672  0.28062  0.10076  1.0000
  Sn  Sn3       1.0  0.74516  0.75000  0.96802  1.0000
  Sn  Sn4       1.0  0.21671  0.71938  0.10076  1.0000
  C   C1        1.0  0.70850  1.00000  0.09243  1.0000
