# generated using pymatgen
data_Li4Y4In4Sn4C
_symmetry_space_group_name_H-M   Pm
_cell_length_a   6.33264000
_cell_length_b   9.36656000
_cell_length_c   24.74860000
_cell_angle_alpha   90.00000000
_cell_angle_beta   90.00000000
_cell_angle_gamma   90.00000000
_symmetry_Int_Tables_number   6
_chemical_formula_structural   Li4Y4In4Sn4C
_chemical_formula_sum   'Li4 Y4 In4 Sn4 C1'
_cell_volume   1467.96450876
_cell_formula_units_Z   1
loop_
 _symmetry_equiv_pos_site_id
 _symmetry_equiv_pos_as_xyz
  1  'x, y, z'
  2  'x, -y, z'
loop_
 _atom_site_type_symbol
 _atom_site_label
 _atom_site_symmetry_multiplicity
 _atom_site_fract_x
 _atom_site_fract_y
 _atom_site_fract_z
 _atom_site_occupancy
  Li  Li0  1  0.50000000  0.00000000  0.90406000  1.0
  Li  Li1  1  0.50000000  0.50000000  0.90406000  1.0
  Li  Li2  1  0.94538000  0.00000000  0.03342000  1.0
  Li  Li3  1  0.96416000  0.50000000  0.03172000  1.0
  Y  Y4  2  0.24516000  0.25000000  0.96802000  1.0
  Y  Y5  2  0.71353000  0.23318000  0.10425000  1.0
  In  In6  1  0.00000000  0.00000000  0.90406000  1.0
  In  In7  1  0.00000000  0.50000000  0.90406000  1.0
  In  In8  1  0.40867000  0.00000000  0.04578000  1.0
  In  In9  1  0.46655000  0.50000000  0.03615000  1.0
  Sn  Sn10  2  0.21672000  0.28062000  0.10076000  1.0
  Sn  Sn11  2  0.74516000  0.25000000  0.96802000  1.0
  C  C12  1  0.70850000  0.00000000  0.09243000  1.0
