# generated using pymatgen
data_Ca8Ni8C
_symmetry_space_group_name_H-M   P1
_cell_length_a   6.91175000
_cell_length_b   6.91175000
_cell_length_c   25.18380000
_cell_angle_alpha   90.00000000
_cell_angle_beta   90.00000000
_cell_angle_gamma   90.00000000
_symmetry_Int_Tables_number   1
_chemical_formula_structural   Ca8Ni8C
_chemical_formula_sum   'Ca8 Ni8 C1'
_cell_volume   1203.08774811
_cell_formula_units_Z   1
loop_
 _symmetry_equiv_pos_site_id
 _symmetry_equiv_pos_as_xyz
  1  'x, y, z'
loop_
 _atom_site_type_symbol
 _atom_site_label
 _atom_site_symmetry_multiplicity
 _atom_site_fract_x
 _atom_site_fract_y
 _atom_site_fract_z
 _atom_site_occupancy
  Ca  Ca0  1  0.00000000  0.00000000  0.89061000  1.0
  Ca  Ca1  1  0.00000000  0.50000000  0.89061000  1.0
  Ca  Ca2  1  0.00003000  0.99974000  0.01421000  1.0
  Ca  Ca3  1  0.00020000  0.49817000  0.03287000  1.0
  Ca  Ca4  1  0.50000000  0.00000000  0.89061000  1.0
  Ca  Ca5  1  0.50000000  0.50000000  0.89061000  1.0
  Ca  Ca6  1  0.50009000  0.00128000  0.03287000  1.0
  Ca  Ca7  1  0.50028000  0.50167000  0.03539000  1.0
  Ni  Ni8  1  0.18391000  0.18185000  0.10106000  1.0
  Ni  Ni9  1  0.18499000  0.81334000  0.09960000  1.0
  Ni  Ni10  1  0.25000000  0.25000000  0.95923000  1.0
  Ni  Ni11  1  0.25000000  0.75000000  0.95923000  1.0
  Ni  Ni12  1  0.75000000  0.25000000  0.95923000  1.0
  Ni  Ni13  1  0.75000000  0.75000000  0.95923000  1.0
  Ni  Ni14  1  0.81501000  0.81301000  0.09953000  1.0
  Ni  Ni15  1  0.81612000  0.18215000  0.10104000  1.0
  C  C16  1  0.99972000  0.99671000  0.11184000  1.0
