# generated using pymatgen
data_Li8Zr8Ge8Pd8CO
_symmetry_space_group_name_H-M   P1
_cell_length_a   6.47880000
_cell_length_b   9.16240000
_cell_length_c   26.87180000
_cell_angle_alpha   90.00000000
_cell_angle_beta   90.00000000
_cell_angle_gamma   90.00000000
_symmetry_Int_Tables_number   1
_chemical_formula_structural   Li8Zr8Ge8Pd8CO
_chemical_formula_sum   'Li8 Zr8 Ge8 Pd8 C1 O1'
_cell_volume   1595.14651626
_cell_formula_units_Z   1
loop_
 _symmetry_equiv_pos_site_id
 _symmetry_equiv_pos_as_xyz
  1  'x, y, z'
loop_
 _atom_site_type_symbol
 _atom_site_label
 _atom_site_symmetry_multiplicity
 _atom_site_fract_x
 _atom_site_fract_y
 _atom_site_fract_z
 _atom_site_occupancy
  Li  Li0  1  0.23114000  0.00033000  0.13585000  1.0
  Li  Li1  1  0.23880000  0.49820000  0.13511000  1.0
  Li  Li2  1  0.25000000  0.00000000  0.95738000  1.0
  Li  Li3  1  0.25000000  0.50000000  0.95738000  1.0
  Li  Li4  1  0.73857000  0.25320000  0.04134000  1.0
  Li  Li5  1  0.73861000  0.74894000  0.04156000  1.0
  Li  Li6  1  0.75000000  0.25000000  0.87214000  1.0
  Li  Li7  1  0.75000000  0.75000000  0.87214000  1.0
  Zr  Zr8  1  0.24330000  0.24368000  0.04558000  1.0
  Zr  Zr9  1  0.24595000  0.75830000  0.04548000  1.0
  Zr  Zr10  1  0.25000000  0.25000000  0.87214000  1.0
  Zr  Zr11  1  0.25000000  0.75000000  0.87214000  1.0
  Zr  Zr12  1  0.72131000  0.99638000  0.13041000  1.0
  Zr  Zr13  1  0.72206000  0.50093000  0.12272000  1.0
  Zr  Zr14  1  0.75000000  0.00000000  0.95738000  1.0
  Zr  Zr15  1  0.75000000  0.50000000  0.95738000  1.0
  Ge  Ge16  1  0.00000000  0.00000000  0.87214000  1.0
  Ge  Ge17  1  0.00000000  0.50000000  0.87214000  1.0
  Ge  Ge18  1  0.00359000  0.50125000  0.04584000  1.0
  Ge  Ge19  1  0.47859000  0.74667000  0.13524000  1.0
  Ge  Ge20  1  0.48595000  0.25015000  0.13390000  1.0
  Ge  Ge21  1  0.50000000  0.25000000  0.95738000  1.0
  Ge  Ge22  1  0.50000000  0.75000000  0.95738000  1.0
  Ge  Ge23  1  0.97451000  0.00052000  0.04874000  1.0
  Pd  Pd24  1  0.00000000  0.25000000  0.95738000  1.0
  Pd  Pd25  1  0.00000000  0.75000000  0.95738000  1.0
  Pd  Pd26  1  0.47439000  0.50062000  0.04029000  1.0
  Pd  Pd27  1  0.50000000  0.00000000  0.87214000  1.0
  Pd  Pd28  1  0.50000000  0.50000000  0.87214000  1.0
  Pd  Pd29  1  0.50140000  0.00303000  0.03920000  1.0
  Pd  Pd30  1  0.96534000  0.25139000  0.12147000  1.0
  Pd  Pd31  1  0.97417000  0.74635000  0.12154000  1.0
  C  C32  1  0.91559000  0.99905000  0.20126000  1.0
  O  O33  1  0.01057000  0.00046000  0.23783000  1.0
