data_image0
_chemical_formula_structural       Li8Ti8Al8Pd8C
_chemical_formula_sum              "Li8 Ti8 Al8 Pd8 C1"
_cell_length_a       6.17553
_cell_length_b       8.73352
_cell_length_c       26.5501
_cell_angle_alpha    90
_cell_angle_beta     90
_cell_angle_gamma    90

_space_group_name_H-M_alt    "P 1"
_space_group_IT_number       1

loop_
  _space_group_symop_operation_xyz
  'x, y, z'

loop_
  _atom_site_type_symbol
  _atom_site_label
  _atom_site_symmetry_multiplicity
  _atom_site_fract_x
  _atom_site_fract_y
  _atom_site_fract_z
  _atom_site_occupancy
  Li  Li1       1.0  0.75000  0.00000  0.95888  1.0000
  Li  Li2       1.0  0.75000  0.50000  0.95888  1.0000
  Li  Li3       1.0  0.25000  0.25000  0.87665  1.0000
  Li  Li4       1.0  0.25000  0.75000  0.87665  1.0000
  Li  Li5       1.0  0.68960  0.48352  0.17667  1.0000
  Li  Li6       1.0  0.68960  0.01648  0.17667  1.0000
  Li  Li7       1.0  0.25089  0.75000  0.04206  1.0000
  Li  Li8       1.0  0.24764  0.25000  0.04308  1.0000
  Ti  Ti1       1.0  0.00000  0.25000  0.95888  1.0000
  Ti  Ti2       1.0  0.00000  0.75000  0.95888  1.0000
  Ti  Ti3       1.0  0.50000  0.50000  0.87665  1.0000
  Ti  Ti4       1.0  0.50000  0.00000  0.87665  1.0000
  Ti  Ti5       1.0  0.97030  0.75000  0.11949  1.0000
  Ti  Ti6       1.0  0.97044  0.25000  0.12185  1.0000
  Ti  Ti7       1.0  0.50974  0.99944  0.04534  1.0000
  Ti  Ti8       1.0  0.50974  0.50056  0.04534  1.0000
  Al  Al1       1.0  0.00000  0.00000  0.87665  1.0000
  Al  Al2       1.0  0.00000  0.50000  0.87665  1.0000
  Al  Al3       1.0  0.50000  0.75000  0.95888  1.0000
  Al  Al4       1.0  0.50000  0.25000  0.95888  1.0000
  Al  Al5       1.0  0.99317  0.49938  0.04181  1.0000
  Al  Al6       1.0  0.99317  0.00062  0.04181  1.0000
  Al  Al7       1.0  0.49382  0.25000  0.12581  1.0000
  Al  Al8       1.0  0.50980  0.75000  0.12506  1.0000
  Pd  Pd1       1.0  0.25000  0.00000  0.95888  1.0000
  Pd  Pd2       1.0  0.25000  0.50000  0.95888  1.0000
  Pd  Pd3       1.0  0.75000  0.25000  0.87665  1.0000
  Pd  Pd4       1.0  0.75000  0.75000  0.87665  1.0000
  Pd  Pd5       1.0  0.24624  0.50560  0.11880  1.0000
  Pd  Pd6       1.0  0.24624  0.99440  0.11880  1.0000
  Pd  Pd7       1.0  0.75138  0.75000  0.03836  1.0000
  Pd  Pd8       1.0  0.74689  0.25000  0.03677  1.0000
  C   C1        1.0  0.75081  0.25000  0.16859  1.0000
