# generated using pymatgen
data_Li8Ti8Al8Pd8C
_symmetry_space_group_name_H-M   'P 1'
_cell_length_a   8.73352000
_cell_length_b   6.17553000
_cell_length_c   26.55010000
_cell_angle_alpha   90.00000000
_cell_angle_beta   90.00000000
_cell_angle_gamma   90.00000000
_symmetry_Int_Tables_number   1
_chemical_formula_structural   Li8Ti8Al8Pd8C
_chemical_formula_sum   'Li8 Ti8 Al8 Pd8 C1'
_cell_volume   1431.95614044
_cell_formula_units_Z   1
loop_
 _symmetry_equiv_pos_site_id
 _symmetry_equiv_pos_as_xyz
  1  'x, y, z'
loop_
 _atom_site_type_symbol
 _atom_site_label
 _atom_site_symmetry_multiplicity
 _atom_site_fract_x
 _atom_site_fract_y
 _atom_site_fract_z
 _atom_site_occupancy
  Li  Li0  1  0.75000000  0.75000000  0.04112000  1.0
  Li  Li1  1  0.25000000  0.75000000  0.04112000  1.0
  Li  Li2  1  0.00000000  0.25000000  0.12335000  1.0
  Li  Li3  1  0.50000000  0.25000000  0.12335000  1.0
  Li  Li4  1  0.23352000  0.68960000  0.82333000  1.0
  Li  Li5  1  0.76648000  0.68960000  0.82333000  1.0
  Li  Li6  1  0.50000000  0.25089000  0.95794000  1.0
  Li  Li7  1  0.00000000  0.24764000  0.95692000  1.0
  Ti  Ti8  1  0.00000000  0.00000000  0.04112000  1.0
  Ti  Ti9  1  0.50000000  0.00000000  0.04112000  1.0
  Ti  Ti10  1  0.25000000  0.50000000  0.12335000  1.0
  Ti  Ti11  1  0.75000000  0.50000000  0.12335000  1.0
  Ti  Ti12  1  0.50000000  0.97030000  0.88051000  1.0
  Ti  Ti13  1  0.00000000  0.97044000  0.87815000  1.0
  Ti  Ti14  1  0.74944000  0.50974000  0.95466000  1.0
  Ti  Ti15  1  0.25056000  0.50974000  0.95466000  1.0
  Al  Al16  1  0.75000000  0.00000000  0.12335000  1.0
  Al  Al17  1  0.25000000  0.00000000  0.12335000  1.0
  Al  Al18  1  0.50000000  0.50000000  0.04112000  1.0
  Al  Al19  1  0.00000000  0.50000000  0.04112000  1.0
  Al  Al20  1  0.24938000  0.99317000  0.95819000  1.0
  Al  Al21  1  0.75062000  0.99317000  0.95819000  1.0
  Al  Al22  1  0.00000000  0.49382000  0.87419000  1.0
  Al  Al23  1  0.50000000  0.50980000  0.87494000  1.0
  Pd  Pd24  1  0.75000000  0.25000000  0.04112000  1.0
  Pd  Pd25  1  0.25000000  0.25000000  0.04112000  1.0
  Pd  Pd26  1  0.00000000  0.75000000  0.12335000  1.0
  Pd  Pd27  1  0.50000000  0.75000000  0.12335000  1.0
  Pd  Pd28  1  0.25560000  0.24624000  0.88120000  1.0
  Pd  Pd29  1  0.74440000  0.24624000  0.88120000  1.0
  Pd  Pd30  1  0.50000000  0.75138000  0.96164000  1.0
  Pd  Pd31  1  0.00000000  0.74689000  0.96323000  1.0
  C  C32  1  0.00000000  0.75081000  0.83141000  1.0
