# generated using pymatgen
data_Li8Ti8Al8Pd8C
_symmetry_space_group_name_H-M   Pm
_cell_length_a   6.17553000
_cell_length_b   8.73352000
_cell_length_c   26.55010000
_cell_angle_alpha   90.00000000
_cell_angle_beta   90.00000000
_cell_angle_gamma   90.00000000
_symmetry_Int_Tables_number   6
_chemical_formula_structural   Li8Ti8Al8Pd8C
_chemical_formula_sum   'Li8 Ti8 Al8 Pd8 C1'
_cell_volume   1431.95614044
_cell_formula_units_Z   1
loop_
 _symmetry_equiv_pos_site_id
 _symmetry_equiv_pos_as_xyz
  1  'x, y, z'
  2  'x, -y, z'
loop_
 _atom_site_type_symbol
 _atom_site_label
 _atom_site_symmetry_multiplicity
 _atom_site_fract_x
 _atom_site_fract_y
 _atom_site_fract_z
 _atom_site_occupancy
  Li  Li0  2  0.68960000  0.23352000  0.17667000  1.0
  Li  Li1  2  0.75000000  0.25000000  0.95888000  1.0
  Li  Li2  1  0.24764000  0.00000000  0.04308000  1.0
  Li  Li3  1  0.25000000  0.00000000  0.87665000  1.0
  Li  Li4  1  0.25000000  0.50000000  0.87665000  1.0
  Li  Li5  1  0.25089000  0.50000000  0.04206000  1.0
  Ti  Ti6  2  0.50000000  0.25000000  0.87665000  1.0
  Ti  Ti7  2  0.50974000  0.25056000  0.04534000  1.0
  Ti  Ti8  1  0.00000000  0.00000000  0.95888000  1.0
  Ti  Ti9  1  0.00000000  0.50000000  0.95888000  1.0
  Ti  Ti10  1  0.97030000  0.50000000  0.11949000  1.0
  Ti  Ti11  1  0.97044000  0.00000000  0.12185000  1.0
  Al  Al12  2  0.00000000  0.25000000  0.87665000  1.0
  Al  Al13  2  0.99317000  0.24938000  0.04181000  1.0
  Al  Al14  1  0.49382000  0.00000000  0.12581000  1.0
  Al  Al15  1  0.50000000  0.00000000  0.95888000  1.0
  Al  Al16  1  0.50000000  0.50000000  0.95888000  1.0
  Al  Al17  1  0.50980000  0.50000000  0.12506000  1.0
  Pd  Pd18  2  0.24624000  0.25560000  0.11880000  1.0
  Pd  Pd19  2  0.25000000  0.25000000  0.95888000  1.0
  Pd  Pd20  1  0.74689000  0.00000000  0.03677000  1.0
  Pd  Pd21  1  0.75000000  0.00000000  0.87665000  1.0
  Pd  Pd22  1  0.75000000  0.50000000  0.87665000  1.0
  Pd  Pd23  1  0.75138000  0.50000000  0.03836000  1.0
  C  C24  1  0.75081000  0.00000000  0.16859000  1.0
