# generated using pymatgen
data_Fe8Co16Ge8C
_symmetry_space_group_name_H-M   'P 1'
_cell_length_a   5.76795000
_cell_length_b   8.15711000
_cell_length_c   26.11780000
_cell_angle_alpha   90.00000000
_cell_angle_beta   90.00000000
_cell_angle_gamma   90.00000000
_symmetry_Int_Tables_number   1
_chemical_formula_structural   Fe8Co16Ge8C
_chemical_formula_sum   'Fe8 Co16 Ge8 C1'
_cell_volume   1228.83733499
_cell_formula_units_Z   1
loop_
 _symmetry_equiv_pos_site_id
 _symmetry_equiv_pos_as_xyz
  1  'x, y, z'
loop_
 _atom_site_type_symbol
 _atom_site_label
 _atom_site_symmetry_multiplicity
 _atom_site_fract_x
 _atom_site_fract_y
 _atom_site_fract_z
 _atom_site_occupancy
  Fe  Fe0  1  0.00000000  0.00000000  0.88288000  1.0
  Fe  Fe1  1  0.50000000  0.25000000  0.96096000  1.0
  Fe  Fe2  1  0.50000000  0.75000000  0.96096000  1.0
  Fe  Fe3  1  0.00000000  0.50000000  0.88288000  1.0
  Fe  Fe4  1  0.00000000  0.50000000  0.03764000  1.0
  Fe  Fe5  1  0.50000000  0.74181000  0.11735000  1.0
  Fe  Fe6  1  0.50000000  0.25819000  0.11735000  1.0
  Fe  Fe7  1  0.00000000  0.00000000  0.03883000  1.0
  Co  Co8  1  0.25000000  0.00000000  0.96096000  1.0
  Co  Co9  1  0.75000000  0.50000000  0.96096000  1.0
  Co  Co10  1  0.75000000  0.00000000  0.96096000  1.0
  Co  Co11  1  0.25000000  0.50000000  0.96096000  1.0
  Co  Co12  1  0.75000000  0.75000000  0.88288000  1.0
  Co  Co13  1  0.25000000  0.25000000  0.88288000  1.0
  Co  Co14  1  0.25000000  0.75000000  0.88288000  1.0
  Co  Co15  1  0.75000000  0.25000000  0.88288000  1.0
  Co  Co16  1  0.24098000  0.50000000  0.11268000  1.0
  Co  Co17  1  0.73439000  0.00000000  0.11470000  1.0
  Co  Co18  1  0.75902000  0.50000000  0.11268000  1.0
  Co  Co19  1  0.26561000  0.00000000  0.11470000  1.0
  Co  Co20  1  0.75162000  0.24865000  0.04002000  1.0
  Co  Co21  1  0.24838000  0.75135000  0.04002000  1.0
  Co  Co22  1  0.24838000  0.24865000  0.04002000  1.0
  Co  Co23  1  0.75162000  0.75135000  0.04002000  1.0
  Ge  Ge24  1  0.00000000  0.75000000  0.96096000  1.0
  Ge  Ge25  1  0.50000000  0.00000000  0.88288000  1.0
  Ge  Ge26  1  0.00000000  0.25000000  0.96096000  1.0
  Ge  Ge27  1  0.50000000  0.50000000  0.88288000  1.0
  Ge  Ge28  1  0.00000000  0.25396000  0.12357000  1.0
  Ge  Ge29  1  0.50000000  0.50000000  0.03896000  1.0
  Ge  Ge30  1  0.00000000  0.74604000  0.12357000  1.0
  Ge  Ge31  1  0.50000000  0.00000000  0.03629000  1.0
  C  C32  1  0.00000000  0.00000000  0.15075000  1.0
