# generated using pymatgen
data_Y8In8Cu8Sn8CO
_symmetry_space_group_name_H-M   'P 1'
_cell_length_a   8.82850000
_cell_length_b   9.14612000
_cell_length_c   26.63560000
_cell_angle_alpha   90.00000000
_cell_angle_beta   90.00000000
_cell_angle_gamma   90.00000000
_symmetry_Int_Tables_number   1
_chemical_formula_structural   Y8In8Cu8Sn8CO
_chemical_formula_sum   'Y8 In8 Cu8 Sn8 C1 O1'
_cell_volume   2150.73201930
_cell_formula_units_Z   1
loop_
 _symmetry_equiv_pos_site_id
 _symmetry_equiv_pos_as_xyz
  1  'x, y, z'
loop_
 _atom_site_type_symbol
 _atom_site_label
 _atom_site_symmetry_multiplicity
 _atom_site_fract_x
 _atom_site_fract_y
 _atom_site_fract_z
 _atom_site_occupancy
  Y  Y0  1  0.00000000  0.00000000  0.87066000  1.0
  Y  Y1  1  0.00000000  0.00000000  0.04152000  1.0
  Y  Y2  1  0.50000000  0.00000000  0.87150000  1.0
  Y  Y3  1  0.50000000  0.00000000  0.04152000  1.0
  Y  Y4  1  0.00000000  0.50000000  0.87185000  1.0
  Y  Y5  1  0.00000000  0.50000000  0.04152000  1.0
  Y  Y6  1  0.50000000  0.50000000  0.87219000  1.0
  Y  Y7  1  0.50000000  0.50000000  0.04152000  1.0
  In  In8  1  0.00000000  0.75026000  0.95868000  1.0
  In  In9  1  0.00000000  0.75000000  0.12456000  1.0
  In  In10  1  0.50000000  0.75035000  0.95867000  1.0
  In  In11  1  0.50000000  0.75000000  0.12456000  1.0
  In  In12  1  0.00000000  0.24974000  0.95868000  1.0
  In  In13  1  0.00000000  0.25000000  0.12456000  1.0
  In  In14  1  0.50000000  0.24965000  0.95867000  1.0
  In  In15  1  0.50000000  0.25000000  0.12456000  1.0
  Cu  Cu16  1  0.74889000  0.74841000  0.88449000  1.0
  Cu  Cu17  1  0.75000000  0.75000000  0.04152000  1.0
  Cu  Cu18  1  0.25111000  0.74841000  0.88449000  1.0
  Cu  Cu19  1  0.25000000  0.75000000  0.04152000  1.0
  Cu  Cu20  1  0.74889000  0.25159000  0.88449000  1.0
  Cu  Cu21  1  0.75000000  0.25000000  0.04152000  1.0
  Cu  Cu22  1  0.25111000  0.25159000  0.88449000  1.0
  Cu  Cu23  1  0.25000000  0.25000000  0.04152000  1.0
  Sn  Sn24  1  0.74972000  0.00000000  0.95673000  1.0
  Sn  Sn25  1  0.75000000  0.00000000  0.12456000  1.0
  Sn  Sn26  1  0.25028000  0.00000000  0.95673000  1.0
  Sn  Sn27  1  0.25000000  0.00000000  0.12456000  1.0
  Sn  Sn28  1  0.74997000  0.50000000  0.95719000  1.0
  Sn  Sn29  1  0.75000000  0.50000000  0.12456000  1.0
  Sn  Sn30  1  0.25003000  0.50000000  0.95719000  1.0
  Sn  Sn31  1  0.25000000  0.50000000  0.12456000  1.0
  C  C32  1  0.00000000  0.00000000  0.77791000  1.0
  O  O33  1  0.00000000  0.00000000  0.73468000  1.0
