# generated using pymatgen
data_Cr8Ga8Fe16CO
_symmetry_space_group_name_H-M   P1
_cell_length_a   6.89656000
_cell_length_b   9.75322000
_cell_length_c   27.31490000
_cell_angle_alpha   90.00000000
_cell_angle_beta   90.00000000
_cell_angle_gamma   90.00000000
_symmetry_Int_Tables_number   1
_chemical_formula_structural   Cr8Ga8Fe16CO
_chemical_formula_sum   'Cr8 Ga8 Fe16 C1 O1'
_cell_volume   1837.30033564
_cell_formula_units_Z   1
loop_
 _symmetry_equiv_pos_site_id
 _symmetry_equiv_pos_as_xyz
  1  'x, y, z'
loop_
 _atom_site_type_symbol
 _atom_site_label
 _atom_site_symmetry_multiplicity
 _atom_site_fract_x
 _atom_site_fract_y
 _atom_site_fract_z
 _atom_site_occupancy
  Cr  Cr0  1  0.00000000  0.00000000  0.86610000  1.0
  Cr  Cr1  1  0.00000000  0.50000000  0.86610000  1.0
  Cr  Cr2  1  0.00002000  0.49460000  0.03795000  1.0
  Cr  Cr3  1  0.00005000  0.00556000  0.03802000  1.0
  Cr  Cr4  1  0.49988000  0.25017000  0.10771000  1.0
  Cr  Cr5  1  0.50000000  0.25000000  0.95537000  1.0
  Cr  Cr6  1  0.50000000  0.75000000  0.95537000  1.0
  Cr  Cr7  1  0.50001000  0.75003000  0.11189000  1.0
  Ga  Ga8  1  0.00000000  0.25000000  0.95537000  1.0
  Ga  Ga9  1  0.00000000  0.75000000  0.95537000  1.0
  Ga  Ga10  1  0.00004000  0.25005000  0.10354000  1.0
  Ga  Ga11  1  0.00008000  0.75005000  0.10555000  1.0
  Ga  Ga12  1  0.49988000  0.49374000  0.03842000  1.0
  Ga  Ga13  1  0.50000000  0.00000000  0.86610000  1.0
  Ga  Ga14  1  0.50000000  0.50000000  0.86610000  1.0
  Ga  Ga15  1  0.50003000  0.00629000  0.03838000  1.0
  Fe  Fe16  1  0.23083000  0.48647000  0.09747000  1.0
  Fe  Fe17  1  0.23157000  0.01328000  0.09750000  1.0
  Fe  Fe18  1  0.24742000  0.74995000  0.04052000  1.0
  Fe  Fe19  1  0.25000000  0.00000000  0.95537000  1.0
  Fe  Fe20  1  0.25000000  0.25000000  0.86610000  1.0
  Fe  Fe21  1  0.25000000  0.50000000  0.95537000  1.0
  Fe  Fe22  1  0.25000000  0.75000000  0.86610000  1.0
  Fe  Fe23  1  0.25359000  0.25009000  0.04135000  1.0
  Fe  Fe24  1  0.74631000  0.25000000  0.04139000  1.0
  Fe  Fe25  1  0.75000000  0.00000000  0.95537000  1.0
  Fe  Fe26  1  0.75000000  0.25000000  0.86610000  1.0
  Fe  Fe27  1  0.75000000  0.50000000  0.95537000  1.0
  Fe  Fe28  1  0.75000000  0.75000000  0.86610000  1.0
  Fe  Fe29  1  0.75264000  0.75001000  0.04051000  1.0
  Fe  Fe30  1  0.76857000  0.01348000  0.09749000  1.0
  Fe  Fe31  1  0.76908000  0.48645000  0.09744000  1.0
  C  C32  1  0.49985000  0.24979000  0.20276000  1.0
  O  O33  1  0.49998000  0.24996000  0.24437000  1.0
