data_image0
_chemical_formula_structural       Ta8Al8Co16CO
_chemical_formula_sum              "Ta8 Al8 Co16 C1 O1"
_cell_length_a       5.95946
_cell_length_b       8.42794
_cell_length_c       26.321
_cell_angle_alpha    90
_cell_angle_beta     90
_cell_angle_gamma    90

_space_group_name_H-M_alt    "P 1"
_space_group_IT_number       1

loop_
  _space_group_symop_operation_xyz
  'x, y, z'

loop_
  _atom_site_type_symbol
  _atom_site_label
  _atom_site_symmetry_multiplicity
  _atom_site_fract_x
  _atom_site_fract_y
  _atom_site_fract_z
  _atom_site_occupancy
  Ta  Ta1       1.0  0.00000  0.00000  0.87993  1.0000
  Ta  Ta2       1.0  0.50000  0.25000  0.95998  1.0000
  Ta  Ta3       1.0  0.50000  0.75000  0.95998  1.0000
  Ta  Ta4       1.0  0.00000  0.50000  0.87993  1.0000
  Ta  Ta5       1.0  1.00000  0.50023  0.04142  1.0000
  Ta  Ta6       1.0  0.50000  0.74999  0.12001  1.0000
  Ta  Ta7       1.0  0.50000  0.25001  0.11977  1.0000
  Ta  Ta8       1.0  1.00000  0.99977  0.04142  1.0000
  Al  Al1       1.0  0.00000  0.75000  0.95998  1.0000
  Al  Al2       1.0  0.50000  0.00000  0.87993  1.0000
  Al  Al3       1.0  0.00000  0.25000  0.95998  1.0000
  Al  Al4       1.0  0.50000  0.50000  0.87993  1.0000
  Al  Al5       1.0  1.00000  0.25000  0.11922  1.0000
  Al  Al6       1.0  0.50000  0.50004  0.04075  1.0000
  Al  Al7       1.0  1.00000  0.75000  0.12092  1.0000
  Al  Al8       1.0  0.50000  0.99996  0.04075  1.0000
  Co  Co1       1.0  0.25000  0.00000  0.95998  1.0000
  Co  Co2       1.0  0.75000  0.50000  0.95998  1.0000
  Co  Co3       1.0  0.75000  0.00000  0.95998  1.0000
  Co  Co4       1.0  0.25000  0.50000  0.95998  1.0000
  Co  Co5       1.0  0.75000  0.75000  0.87993  1.0000
  Co  Co6       1.0  0.25000  0.25000  0.87993  1.0000
  Co  Co7       1.0  0.25000  0.75000  0.87993  1.0000
  Co  Co8       1.0  0.75000  0.25000  0.87993  1.0000
  Co  Co9       1.0  0.25101  0.50032  0.11837  1.0000
  Co  Co10      1.0  0.74899  0.99968  0.11837  1.0000
  Co  Co11      1.0  0.74899  0.50032  0.11837  1.0000
  Co  Co12      1.0  0.25101  0.99968  0.11837  1.0000
  Co  Co13      1.0  0.74818  0.25000  0.04033  1.0000
  Co  Co14      1.0  0.25221  0.75001  0.04005  1.0000
  Co  Co15      1.0  0.25182  0.24999  0.04033  1.0000
  Co  Co16      1.0  0.74779  0.75000  0.04005  1.0000
  C   C1        1.0  1.00000  0.25000  0.19332  1.0000
  O   O1        1.0  0.00000  0.25000  0.23693  1.0000
