# generated using pymatgen
data_Ta8Al8Co16CO
_symmetry_space_group_name_H-M   'P 1'
_cell_length_a   5.95946000
_cell_length_b   8.42794000
_cell_length_c   26.32100000
_cell_angle_alpha   90.00000000
_cell_angle_beta   90.00000000
_cell_angle_gamma   90.00000000
_symmetry_Int_Tables_number   1
_chemical_formula_structural   Ta8Al8Co16CO
_chemical_formula_sum   'Ta8 Al8 Co16 C1 O1'
_cell_volume   1321.99779091
_cell_formula_units_Z   1
loop_
 _symmetry_equiv_pos_site_id
 _symmetry_equiv_pos_as_xyz
  1  'x, y, z'
loop_
 _atom_site_type_symbol
 _atom_site_label
 _atom_site_symmetry_multiplicity
 _atom_site_fract_x
 _atom_site_fract_y
 _atom_site_fract_z
 _atom_site_occupancy
  Ta  Ta0  1  0.00000000  0.75000000  0.87993000  1.0
  Ta  Ta1  1  0.50000000  0.00000000  0.95998000  1.0
  Ta  Ta2  1  0.50000000  0.50000000  0.95998000  1.0
  Ta  Ta3  1  0.00000000  0.25000000  0.87993000  1.0
  Ta  Ta4  1  0.00000000  0.25023000  0.04142000  1.0
  Ta  Ta5  1  0.50000000  0.50000000  0.12001000  1.0
  Ta  Ta6  1  0.50000000  0.00000000  0.11977000  1.0
  Ta  Ta7  1  0.00000000  0.74977000  0.04142000  1.0
  Al  Al8  1  0.00000000  0.50000000  0.95998000  1.0
  Al  Al9  1  0.50000000  0.75000000  0.87993000  1.0
  Al  Al10  1  0.00000000  0.00000000  0.95998000  1.0
  Al  Al11  1  0.50000000  0.25000000  0.87993000  1.0
  Al  Al12  1  0.00000000  0.00000000  0.11922000  1.0
  Al  Al13  1  0.50000000  0.25004000  0.04075000  1.0
  Al  Al14  1  0.00000000  0.50000000  0.12092000  1.0
  Al  Al15  1  0.50000000  0.74996000  0.04075000  1.0
  Co  Co16  1  0.25000000  0.75000000  0.95998000  1.0
  Co  Co17  1  0.75000000  0.25000000  0.95998000  1.0
  Co  Co18  1  0.75000000  0.75000000  0.95998000  1.0
  Co  Co19  1  0.25000000  0.25000000  0.95998000  1.0
  Co  Co20  1  0.75000000  0.50000000  0.87993000  1.0
  Co  Co21  1  0.25000000  0.00000000  0.87993000  1.0
  Co  Co22  1  0.25000000  0.50000000  0.87993000  1.0
  Co  Co23  1  0.75000000  0.00000000  0.87993000  1.0
  Co  Co24  1  0.25101000  0.25032000  0.11837000  1.0
  Co  Co25  1  0.74899000  0.74968000  0.11837000  1.0
  Co  Co26  1  0.74899000  0.25032000  0.11837000  1.0
  Co  Co27  1  0.25101000  0.74968000  0.11837000  1.0
  Co  Co28  1  0.74818000  0.00000000  0.04033000  1.0
  Co  Co29  1  0.25221000  0.50000000  0.04005000  1.0
  Co  Co30  1  0.25182000  0.00000000  0.04033000  1.0
  Co  Co31  1  0.74779000  0.50000000  0.04005000  1.0
  C  C32  1  0.00000000  0.00000000  0.19332000  1.0
  O  O33  1  0.00000000  0.00000000  0.23693000  1.0
