# generated using pymatgen
data_Pt12Pb4CO
_symmetry_space_group_name_H-M   Pm
_cell_length_a   5.89768000
_cell_length_b   8.34058000
_cell_length_c   24.42330000
_cell_angle_alpha   90.00000000
_cell_angle_beta   90.00000000
_cell_angle_gamma   90.00000000
_symmetry_Int_Tables_number   6
_chemical_formula_structural   Pt12Pb4CO
_chemical_formula_sum   'Pt12 Pb4 C1 O1'
_cell_volume   1201.38388192
_cell_formula_units_Z   1
loop_
 _symmetry_equiv_pos_site_id
 _symmetry_equiv_pos_as_xyz
  1  'x, y, z'
  2  'x, -y, z'
loop_
 _atom_site_type_symbol
 _atom_site_label
 _atom_site_symmetry_multiplicity
 _atom_site_fract_x
 _atom_site_fract_y
 _atom_site_fract_z
 _atom_site_occupancy
  Pt  Pt0  2  0.50000000  0.25000000  0.09055000  1.0
  Pt  Pt1  2  0.99844000  0.25223000  0.97090000  1.0
  Pt  Pt2  1  0.22584000  0.00000000  0.91679000  1.0
  Pt  Pt3  1  0.24123000  0.50000000  0.91644000  1.0
  Pt  Pt4  1  0.25000000  0.00000000  0.03018000  1.0
  Pt  Pt5  1  0.25000000  0.50000000  0.03018000  1.0
  Pt  Pt6  1  0.75000000  0.00000000  0.03018000  1.0
  Pt  Pt7  1  0.75000000  0.50000000  0.03018000  1.0
  Pt  Pt8  1  0.76905000  0.00000000  0.91610000  1.0
  Pt  Pt9  1  0.77348000  0.50000000  0.91194000  1.0
  Pb  Pb10  2  0.00000000  0.25000000  0.09055000  1.0
  Pb  Pb11  2  0.49956000  0.24739000  0.96138000  1.0
  C  C12  1  0.74158000  0.50000000  0.83605000  1.0
  O  O13  1  0.73307000  0.50000000  0.78886000  1.0
