# generated using pymatgen
data_V8Ni16Sn8CO
_symmetry_space_group_name_H-M   'P 1'
_cell_length_a   8.61509000
_cell_length_b   6.09179000
_cell_length_c   26.46130000
_cell_angle_alpha   90.00000000
_cell_angle_beta   90.00000000
_cell_angle_gamma   90.00000000
_symmetry_Int_Tables_number   1
_chemical_formula_structural   V8Ni16Sn8CO
_chemical_formula_sum   'V8 Ni16 Sn8 C1 O1'
_cell_volume   1388.72392939
_cell_formula_units_Z   1
loop_
 _symmetry_equiv_pos_site_id
 _symmetry_equiv_pos_as_xyz
  1  'x, y, z'
loop_
 _atom_site_type_symbol
 _atom_site_label
 _atom_site_symmetry_multiplicity
 _atom_site_fract_x
 _atom_site_fract_y
 _atom_site_fract_z
 _atom_site_occupancy
  V  V0  1  0.00000000  0.00000000  0.12209000  1.0
  V  V1  1  0.25000000  0.50000000  0.04070000  1.0
  V  V2  1  0.75000000  0.50000000  0.04070000  1.0
  V  V3  1  0.50000000  0.00000000  0.12209000  1.0
  V  V4  1  0.49616000  0.00000000  0.96104000  1.0
  V  V5  1  0.75002000  0.50000000  0.88251000  1.0
  V  V6  1  0.25000000  0.50000000  0.88432000  1.0
  V  V7  1  0.00391000  0.00000000  0.96106000  1.0
  Ni  Ni8  1  0.00000000  0.75000000  0.04070000  1.0
  Ni  Ni9  1  0.50000000  0.25000000  0.04070000  1.0
  Ni  Ni10  1  0.00000000  0.25000000  0.04070000  1.0
  Ni  Ni11  1  0.50000000  0.75000000  0.04070000  1.0
  Ni  Ni12  1  0.75000000  0.25000000  0.12209000  1.0
  Ni  Ni13  1  0.25000000  0.75000000  0.12209000  1.0
  Ni  Ni14  1  0.75000000  0.75000000  0.12209000  1.0
  Ni  Ni15  1  0.25000000  0.25000000  0.12209000  1.0
  Ni  Ni16  1  0.49999000  0.73988000  0.88327000  1.0
  Ni  Ni17  1  0.00002000  0.26001000  0.88331000  1.0
  Ni  Ni18  1  0.49999000  0.26012000  0.88327000  1.0
  Ni  Ni19  1  0.00002000  0.73999000  0.88331000  1.0
  Ni  Ni20  1  0.24991000  0.27149000  0.95935000  1.0
  Ni  Ni21  1  0.75007000  0.78928000  0.94733000  1.0
  Ni  Ni22  1  0.24991000  0.72851000  0.95935000  1.0
  Ni  Ni23  1  0.75007000  0.21072000  0.94733000  1.0
  Sn  Sn24  1  0.75000000  0.00000000  0.04070000  1.0
  Sn  Sn25  1  0.00000000  0.50000000  0.12209000  1.0
  Sn  Sn26  1  0.25000000  0.00000000  0.04070000  1.0
  Sn  Sn27  1  0.50000000  0.50000000  0.12209000  1.0
  Sn  Sn28  1  0.25001000  0.00000000  0.87419000  1.0
  Sn  Sn29  1  0.51701000  0.50000000  0.96268000  1.0
  Sn  Sn30  1  0.74998000  0.00000000  0.85458000  1.0
  Sn  Sn31  1  0.98297000  0.50000000  0.96268000  1.0
  C  C32  1  0.25000000  0.00000000  0.76366000  1.0
  O  O33  1  0.25000000  0.00000000  0.72080000  1.0
