# generated using pymatgen
data_Mn16Al8V8CO
_symmetry_space_group_name_H-M   P1
_cell_length_a   5.82937000
_cell_length_b   8.24397000
_cell_length_c   26.18300000
_cell_angle_alpha   90.00000000
_cell_angle_beta   90.00000000
_cell_angle_gamma   90.00000000
_symmetry_Int_Tables_number   1
_chemical_formula_structural   Mn16Al8V8CO
_chemical_formula_sum   'Mn16 Al8 V8 C1 O1'
_cell_volume   1258.28039508
_cell_formula_units_Z   1
loop_
 _symmetry_equiv_pos_site_id
 _symmetry_equiv_pos_as_xyz
  1  'x, y, z'
loop_
 _atom_site_type_symbol
 _atom_site_label
 _atom_site_symmetry_multiplicity
 _atom_site_fract_x
 _atom_site_fract_y
 _atom_site_fract_z
 _atom_site_occupancy
  Mn  Mn0  1  0.23645000  0.00002000  0.11924000  1.0
  Mn  Mn1  1  0.24865000  0.49996000  0.12051000  1.0
  Mn  Mn2  1  0.25000000  0.00000000  0.96064000  1.0
  Mn  Mn3  1  0.25000000  0.25000000  0.88193000  1.0
  Mn  Mn4  1  0.25000000  0.50000000  0.96064000  1.0
  Mn  Mn5  1  0.25000000  0.75000000  0.88193000  1.0
  Mn  Mn6  1  0.25132000  0.75041000  0.04022000  1.0
  Mn  Mn7  1  0.25133000  0.24960000  0.04020000  1.0
  Mn  Mn8  1  0.74871000  0.24976000  0.04037000  1.0
  Mn  Mn9  1  0.74876000  0.75025000  0.04039000  1.0
  Mn  Mn10  1  0.75000000  0.00000000  0.96064000  1.0
  Mn  Mn11  1  0.75000000  0.25000000  0.88193000  1.0
  Mn  Mn12  1  0.75000000  0.50000000  0.96064000  1.0
  Mn  Mn13  1  0.75000000  0.75000000  0.88193000  1.0
  Mn  Mn14  1  0.75130000  0.49996000  0.12067000  1.0
  Mn  Mn15  1  0.75548000  0.00003000  0.12080000  1.0
  Al  Al16  1  0.00000000  0.00000000  0.88193000  1.0
  Al  Al17  1  0.00000000  0.50000000  0.88193000  1.0
  Al  Al18  1  0.00062000  0.99999000  0.03901000  1.0
  Al  Al19  1  0.49599000  0.24507000  0.12302000  1.0
  Al  Al20  1  0.49602000  0.75491000  0.12305000  1.0
  Al  Al21  1  0.50000000  0.25000000  0.96064000  1.0
  Al  Al22  1  0.50000000  0.75000000  0.96064000  1.0
  Al  Al23  1  0.99972000  0.50002000  0.03964000  1.0
  V  V24  1  0.00000000  0.25000000  0.96064000  1.0
  V  V25  1  0.00000000  0.75000000  0.96064000  1.0
  V  V26  1  0.00789000  0.24797000  0.11551000  1.0
  V  V27  1  0.00793000  0.75206000  0.11552000  1.0
  V  V28  1  0.49850000  0.50014000  0.04067000  1.0
  V  V29  1  0.50000000  0.00000000  0.88193000  1.0
  V  V30  1  0.50000000  0.50000000  0.88193000  1.0
  V  V31  1  0.50292000  0.99991000  0.04005000  1.0
  C  C32  1  0.17869000  0.00000000  0.18743000  1.0
  O  O33  1  0.15102000  0.99996000  0.23170000  1.0
