# generated using pymatgen
data_Y16Al16C
_symmetry_space_group_name_H-M   Pm
_cell_length_a   10.16230000
_cell_length_b   7.18582000
_cell_length_c   27.62170000
_cell_angle_alpha   90.00000000
_cell_angle_beta   90.00000000
_cell_angle_gamma   90.00000000
_symmetry_Int_Tables_number   6
_chemical_formula_structural   Y16Al16C
_chemical_formula_sum   'Y16 Al16 C1'
_cell_volume   2017.05968772
_cell_formula_units_Z   1
loop_
 _symmetry_equiv_pos_site_id
 _symmetry_equiv_pos_as_xyz
  1  'x, y, z'
  2  'x, -y, z'
loop_
 _atom_site_type_symbol
 _atom_site_label
 _atom_site_symmetry_multiplicity
 _atom_site_fract_x
 _atom_site_fract_y
 _atom_site_fract_z
 _atom_site_occupancy
  Y  Y0  1  0.00000000  0.00000000  0.95401000  1.0
  Y  Y1  1  0.00000000  0.50000000  0.95401000  1.0
  Y  Y2  1  0.02189000  0.50000000  0.14652000  1.0
  Y  Y3  1  0.24992000  0.00000000  0.04371000  1.0
  Y  Y4  1  0.25000000  0.00000000  0.86203000  1.0
  Y  Y5  1  0.25000000  0.50000000  0.86203000  1.0
  Y  Y6  1  0.25003000  0.50000000  0.04897000  1.0
  Y  Y7  1  0.47838000  0.50000000  0.14650000  1.0
  Y  Y8  1  0.50000000  0.00000000  0.95401000  1.0
  Y  Y9  1  0.50000000  0.50000000  0.95401000  1.0
  Y  Y10  1  0.52042000  0.00000000  0.13915000  1.0
  Y  Y11  1  0.74993000  0.50000000  0.04296000  1.0
  Y  Y12  1  0.75000000  0.00000000  0.86203000  1.0
  Y  Y13  1  0.75000000  0.50000000  0.86203000  1.0
  Y  Y14  1  0.75002000  0.00000000  0.04439000  1.0
  Y  Y15  1  0.97976000  0.00000000  0.13914000  1.0
  Al  Al16  2  0.00000000  0.25000000  0.86203000  1.0
  Al  Al17  2  0.25000000  0.25000000  0.95401000  1.0
  Al  Al18  2  0.25015000  0.22491000  0.13779000  1.0
  Al  Al19  2  0.50000000  0.25000000  0.86203000  1.0
  Al  Al20  2  0.50082000  0.25375000  0.04970000  1.0
  Al  Al21  2  0.75000000  0.25000000  0.95401000  1.0
  Al  Al22  2  0.75015000  0.28384000  0.13627000  1.0
  Al  Al23  2  0.99911000  0.25394000  0.04971000  1.0
  C  C24  1  0.25019000  0.50000000  0.13659000  1.0
