# generated using pymatgen
data_Li8Co16Ge8C
_symmetry_space_group_name_H-M   Pmm2
_cell_length_a   5.64259000
_cell_length_b   7.97982000
_cell_length_c   25.98490000
_cell_angle_alpha   90.00000000
_cell_angle_beta   90.00000000
_cell_angle_gamma   90.00000000
_symmetry_Int_Tables_number   25
_chemical_formula_structural   Li8Co16Ge8C
_chemical_formula_sum   'Li8 Co16 Ge8 C1'
_cell_volume   1170.01826041
_cell_formula_units_Z   1
loop_
 _symmetry_equiv_pos_site_id
 _symmetry_equiv_pos_as_xyz
  1  'x, y, z'
  2  '-x, -y, z'
  3  '-x, y, z'
  4  'x, -y, z'
loop_
 _atom_site_type_symbol
 _atom_site_label
 _atom_site_symmetry_multiplicity
 _atom_site_fract_x
 _atom_site_fract_y
 _atom_site_fract_z
 _atom_site_occupancy
  Li  Li0  2  0.50000000  0.25000000  0.96161000  1.0
  Li  Li1  2  0.50000000  0.26591000  0.14665000  1.0
  Li  Li2  1  0.00000000  0.00000000  0.03642000  1.0
  Li  Li3  1  0.00000000  0.00000000  0.88484000  1.0
  Li  Li4  1  0.00000000  0.50000000  0.03299000  1.0
  Li  Li5  1  0.00000000  0.50000000  0.88484000  1.0
  Co  Co6  4  0.25001000  0.25000000  0.88484000  1.0
  Co  Co7  4  0.25689000  0.24955000  0.04042000  1.0
  Co  Co8  2  0.22657000  0.50000000  0.10872000  1.0
  Co  Co9  2  0.24999000  0.00000000  0.96161000  1.0
  Co  Co10  2  0.25001000  0.50000000  0.96161000  1.0
  Co  Co11  2  0.26183000  0.00000000  0.11429000  1.0
  Ge  Ge12  2  0.00000000  0.24411000  0.11549000  1.0
  Ge  Ge13  2  0.00000000  0.25000000  0.96161000  1.0
  Ge  Ge14  1  0.50000000  0.00000000  0.03524000  1.0
  Ge  Ge15  1  0.50000000  0.00000000  0.88484000  1.0
  Ge  Ge16  1  0.50000000  0.50000000  0.03709000  1.0
  Ge  Ge17  1  0.50000000  0.50000000  0.88484000  1.0
  C  C18  1  0.50000000  0.00000000  0.15478000  1.0
