# generated using pymatgen
data_Ni24Sb8CO
_symmetry_space_group_name_H-M   'P 1'
_cell_length_a   8.43051000
_cell_length_b   5.96127000
_cell_length_c   26.32290000
_cell_angle_alpha   90.00000000
_cell_angle_beta   90.00000000
_cell_angle_gamma   90.00000000
_symmetry_Int_Tables_number   1
_chemical_formula_structural   Ni24Sb8CO
_chemical_formula_sum   'Ni24 Sb8 C1 O1'
_cell_volume   1322.89804386
_cell_formula_units_Z   1
loop_
 _symmetry_equiv_pos_site_id
 _symmetry_equiv_pos_as_xyz
  1  'x, y, z'
loop_
 _atom_site_type_symbol
 _atom_site_label
 _atom_site_symmetry_multiplicity
 _atom_site_fract_x
 _atom_site_fract_y
 _atom_site_fract_z
 _atom_site_occupancy
  Ni  Ni0  1  0.00000000  0.75000000  0.04003000  1.0
  Ni  Ni1  1  0.50000000  0.25000000  0.04003000  1.0
  Ni  Ni2  1  0.00000000  0.25000000  0.04003000  1.0
  Ni  Ni3  1  0.50000000  0.75000000  0.04003000  1.0
  Ni  Ni4  1  0.75000000  0.25000000  0.12010000  1.0
  Ni  Ni5  1  0.25000000  0.75000000  0.12010000  1.0
  Ni  Ni6  1  0.75000000  0.75000000  0.12010000  1.0
  Ni  Ni7  1  0.25000000  0.25000000  0.12010000  1.0
  Ni  Ni8  1  0.75000000  0.00000000  0.04003000  1.0
  Ni  Ni9  1  0.00000000  0.50000000  0.12010000  1.0
  Ni  Ni10  1  0.25000000  0.00000000  0.04003000  1.0
  Ni  Ni11  1  0.50000000  0.50000000  0.12010000  1.0
  Ni  Ni12  1  0.50288000  0.74211000  0.88532000  1.0
  Ni  Ni13  1  0.99710000  0.25779000  0.88530000  1.0
  Ni  Ni14  1  0.50288000  0.25789000  0.88532000  1.0
  Ni  Ni15  1  0.99710000  0.74221000  0.88530000  1.0
  Ni  Ni16  1  0.24999000  0.23462000  0.95893000  1.0
  Ni  Ni17  1  0.75005000  0.71913000  0.95646000  1.0
  Ni  Ni18  1  0.24999000  0.76538000  0.95893000  1.0
  Ni  Ni19  1  0.75005000  0.28087000  0.95646000  1.0
  Ni  Ni20  1  0.25005000  0.00000000  0.87654000  1.0
  Ni  Ni21  1  0.48936000  0.50000000  0.96291000  1.0
  Ni  Ni22  1  0.74998000  0.00000000  0.88650000  1.0
  Ni  Ni23  1  0.01066000  0.50000000  0.96290000  1.0
  Sb  Sb24  1  0.00000000  0.00000000  0.12010000  1.0
  Sb  Sb25  1  0.25000000  0.50000000  0.04003000  1.0
  Sb  Sb26  1  0.75000000  0.50000000  0.04003000  1.0
  Sb  Sb27  1  0.50000000  0.00000000  0.12010000  1.0
  Sb  Sb28  1  0.51089000  0.00000000  0.96140000  1.0
  Sb  Sb29  1  0.75001000  0.50000000  0.86668000  1.0
  Sb  Sb30  1  0.24998000  0.50000000  0.87987000  1.0
  Sb  Sb31  1  0.98913000  0.00000000  0.96140000  1.0
  C  C32  1  0.25003000  0.00000000  0.80995000  1.0
  O  O33  1  0.24997000  0.00000000  0.76609000  1.0
