# generated using pymatgen
data_Fe2CoGe
_symmetry_space_group_name_H-M   'P 1'
_cell_length_a   4.08526500
_cell_length_b   5.77744000
_cell_length_c   26.12790000
_cell_angle_alpha   90.00000000
_cell_angle_beta   90.00000000
_cell_angle_gamma   90.00000000
_symmetry_Int_Tables_number   1
_chemical_formula_structural   Fe2CoGe
_chemical_formula_sum   'Fe8 Co4 Ge4'
_cell_volume   616.68045252
_cell_formula_units_Z   4
loop_
 _symmetry_equiv_pos_site_id
 _symmetry_equiv_pos_as_xyz
  1  'x, y, z'
loop_
 _atom_site_type_symbol
 _atom_site_label
 _atom_site_symmetry_multiplicity
 _atom_site_fract_x
 _atom_site_fract_y
 _atom_site_fract_z
 _atom_site_occupancy
  Fe  Fe0  1  0.00000000  0.75000000  0.03909000  1.0
  Fe  Fe1  1  0.00000000  0.25000000  0.03909000  1.0
  Fe  Fe2  1  0.50000000  0.25000000  0.11727000  1.0
  Fe  Fe3  1  0.50000000  0.75000000  0.11727000  1.0
  Fe  Fe4  1  0.00000000  0.74953500  0.88178500  1.0
  Fe  Fe5  1  0.00000000  0.25046500  0.88178500  1.0
  Fe  Fe6  1  0.50000000  0.24000500  0.95967000  1.0
  Fe  Fe7  1  0.50000000  0.75999500  0.95967000  1.0
  Co  Co8  1  0.00000000  0.00000000  0.11727000  1.0
  Co  Co9  1  0.50000000  0.50000000  0.03909000  1.0
  Co  Co10  1  0.00000000  0.00000000  0.95633500  1.0
  Co  Co11  1  0.50000000  0.50000000  0.88891000  1.0
  Ge  Ge12  1  0.50000000  0.00000000  0.03909000  1.0
  Ge  Ge13  1  0.00000000  0.50000000  0.11727000  1.0
  Ge  Ge14  1  0.50000000  0.00000000  0.87112000  1.0
  Ge  Ge15  1  0.00000000  0.50000000  0.96153000  1.0
