# generated using pymatgen
data_Fe2CoGe
_symmetry_space_group_name_H-M   Pmm2
_cell_length_a   4.08526500
_cell_length_b   5.77744000
_cell_length_c   26.12790000
_cell_angle_alpha   90.00000000
_cell_angle_beta   90.00000000
_cell_angle_gamma   90.00000000
_symmetry_Int_Tables_number   25
_chemical_formula_structural   Fe2CoGe
_chemical_formula_sum   'Fe8 Co4 Ge4'
_cell_volume   616.68045252
_cell_formula_units_Z   4
loop_
 _symmetry_equiv_pos_site_id
 _symmetry_equiv_pos_as_xyz
  1  'x, y, z'
  2  '-x, -y, z'
  3  '-x, y, z'
  4  'x, -y, z'
loop_
 _atom_site_type_symbol
 _atom_site_label
 _atom_site_symmetry_multiplicity
 _atom_site_fract_x
 _atom_site_fract_y
 _atom_site_fract_z
 _atom_site_occupancy
  Fe  Fe0  2  0.00000000  0.25000000  0.03909000  1.0
  Fe  Fe1  2  0.00000000  0.25046500  0.88178500  1.0
  Fe  Fe2  2  0.50000000  0.24000500  0.95967000  1.0
  Fe  Fe3  2  0.50000000  0.25000000  0.11727000  1.0
  Co  Co4  1  0.00000000  0.00000000  0.11727000  1.0
  Co  Co5  1  0.00000000  0.00000000  0.95633500  1.0
  Co  Co6  1  0.50000000  0.50000000  0.03909000  1.0
  Co  Co7  1  0.50000000  0.50000000  0.88891000  1.0
  Ge  Ge8  1  0.00000000  0.50000000  0.11727000  1.0
  Ge  Ge9  1  0.00000000  0.50000000  0.96153000  1.0
  Ge  Ge10  1  0.50000000  0.00000000  0.03909000  1.0
  Ge  Ge11  1  0.50000000  0.00000000  0.87112000  1.0
