# generated using pymatgen
data_Li16Mg8Pb8C
_symmetry_space_group_name_H-M   Pmm2
_cell_length_a   6.88544000
_cell_length_b   9.73748000
_cell_length_c   27.30310000
_cell_angle_alpha   90.00000000
_cell_angle_beta   90.00000000
_cell_angle_gamma   90.00000000
_symmetry_Int_Tables_number   25
_chemical_formula_structural   Li16Mg8Pb8C
_chemical_formula_sum   'Li16 Mg8 Pb8 C1'
_cell_volume   1830.58642134
_cell_formula_units_Z   1
loop_
 _symmetry_equiv_pos_site_id
 _symmetry_equiv_pos_as_xyz
  1  'x, y, z'
  2  '-x, -y, z'
  3  '-x, y, z'
  4  'x, -y, z'
loop_
 _atom_site_type_symbol
 _atom_site_label
 _atom_site_symmetry_multiplicity
 _atom_site_fract_x
 _atom_site_fract_y
 _atom_site_fract_z
 _atom_site_occupancy
  Li  Li0  4  0.24492000  0.25309000  0.04403000  1.0
  Li  Li1  4  0.25000000  0.25001000  0.86626000  1.0
  Li  Li2  2  0.21291000  0.00000000  0.15292000  1.0
  Li  Li3  2  0.25000000  0.00000000  0.95542000  1.0
  Li  Li4  2  0.25000000  0.50000000  0.95542000  1.0
  Li  Li5  2  0.25271000  0.50000000  0.13769000  1.0
  Mg  Mg6  2  0.50000000  0.21969000  0.13660000  1.0
  Mg  Mg7  2  0.50000000  0.24999000  0.95542000  1.0
  Mg  Mg8  1  0.00000000  0.00000000  0.05438000  1.0
  Mg  Mg9  1  0.00000000  0.00000000  0.86626000  1.0
  Mg  Mg10  1  0.00000000  0.50000000  0.05006000  1.0
  Mg  Mg11  1  0.00000000  0.50000000  0.86626000  1.0
  Pb  Pb12  2  0.00000000  0.25001000  0.95542000  1.0
  Pb  Pb13  2  0.00000000  0.25763000  0.13403000  1.0
  Pb  Pb14  1  0.50000000  0.00000000  0.04529000  1.0
  Pb  Pb15  1  0.50000000  0.00000000  0.86626000  1.0
  Pb  Pb16  1  0.50000000  0.50000000  0.04804000  1.0
  Pb  Pb17  1  0.50000000  0.50000000  0.86626000  1.0
  C  C18  1  0.50000000  0.00000000  0.13415000  1.0
