data_image0
_chemical_formula_structural       Co16Si16CO
_chemical_formula_sum              "Co16 Si16 C1 O1"
_cell_length_a       5.56276
_cell_length_b       7.86693
_cell_length_c       25.9002
_cell_angle_alpha    90
_cell_angle_beta     90
_cell_angle_gamma    90

_space_group_name_H-M_alt    "P 1"
_space_group_IT_number       1

loop_
  _space_group_symop_operation_xyz
  'x, y, z'

loop_
  _atom_site_type_symbol
  _atom_site_label
  _atom_site_symmetry_multiplicity
  _atom_site_fract_x
  _atom_site_fract_y
  _atom_site_fract_z
  _atom_site_occupancy
  Co  Co1       1.0  0.00000  0.00000  0.88610  1.0000
  Co  Co2       1.0  0.00000  0.25000  0.96203  1.0000
  Co  Co3       1.0  1.00000  0.00623  0.03848  1.0000
  Co  Co4       1.0  1.00000  0.25000  0.12219  1.0000
  Co  Co5       1.0  0.00000  0.50000  0.88610  1.0000
  Co  Co6       1.0  0.00000  0.75000  0.96203  1.0000
  Co  Co7       1.0  0.00000  0.49377  0.03848  1.0000
  Co  Co8       1.0  0.00000  0.75000  0.10979  1.0000
  Co  Co9       1.0  0.50000  0.00000  0.88610  1.0000
  Co  Co10      1.0  0.50000  0.25000  0.96203  1.0000
  Co  Co11      1.0  0.50000  0.99937  0.03558  1.0000
  Co  Co12      1.0  0.50000  0.25000  0.10749  1.0000
  Co  Co13      1.0  0.50000  0.50000  0.88610  1.0000
  Co  Co14      1.0  0.50000  0.75000  0.96203  1.0000
  Co  Co15      1.0  0.50000  0.50063  0.03558  1.0000
  Co  Co16      1.0  0.50000  0.75000  0.10935  1.0000
  Si  Si1       1.0  0.25000  0.25000  0.88610  1.0000
  Si  Si2       1.0  0.25000  0.00000  0.96203  1.0000
  Si  Si3       1.0  0.24705  0.25000  0.03923  1.0000
  Si  Si4       1.0  0.25821  0.50316  0.11636  1.0000
  Si  Si5       1.0  0.25000  0.75000  0.88610  1.0000
  Si  Si6       1.0  0.25000  0.50000  0.96203  1.0000
  Si  Si7       1.0  0.24885  0.75000  0.03844  1.0000
  Si  Si8       1.0  0.25821  0.99684  0.11636  1.0000
  Si  Si9       1.0  0.75000  0.25000  0.88610  1.0000
  Si  Si10      1.0  0.75000  0.00000  0.96203  1.0000
  Si  Si11      1.0  0.75295  0.25000  0.03923  1.0000
  Si  Si12      1.0  0.74179  0.50316  0.11636  1.0000
  Si  Si13      1.0  0.75000  0.75000  0.88610  1.0000
  Si  Si14      1.0  0.75000  0.50000  0.96203  1.0000
  Si  Si15      1.0  0.75115  0.75000  0.03844  1.0000
  Si  Si16      1.0  0.74179  0.99684  0.11636  1.0000
  C   C1        1.0  0.00000  0.25000  0.19024  1.0000
  O   O1        1.0  0.00000  0.25000  0.23479  1.0000
