# generated using pymatgen
data_Ti8Ga8Fe16CO
_symmetry_space_group_name_H-M   'P 1'
_cell_length_a   5.88011000
_cell_length_b   8.31574000
_cell_length_c   26.23680000
_cell_angle_alpha   90.00000000
_cell_angle_beta   90.00000000
_cell_angle_gamma   90.00000000
_symmetry_Int_Tables_number   1
_chemical_formula_structural   Ti8Ga8Fe16CO
_chemical_formula_sum   'Ti8 Ga8 Fe16 C1 O1'
_cell_volume   1282.91303415
_cell_formula_units_Z   1
loop_
 _symmetry_equiv_pos_site_id
 _symmetry_equiv_pos_as_xyz
  1  'x, y, z'
loop_
 _atom_site_type_symbol
 _atom_site_label
 _atom_site_symmetry_multiplicity
 _atom_site_fract_x
 _atom_site_fract_y
 _atom_site_fract_z
 _atom_site_occupancy
  Ti  Ti0  1  0.00000000  0.00000000  0.88114000  1.0
  Ti  Ti1  1  0.50000000  0.25000000  0.96038000  1.0
  Ti  Ti2  1  0.50000000  0.75000000  0.96038000  1.0
  Ti  Ti3  1  0.00000000  0.50000000  0.88114000  1.0
  Ti  Ti4  1  0.00009000  0.49963000  0.03666000  1.0
  Ti  Ti5  1  0.50023000  0.75049000  0.11779000  1.0
  Ti  Ti6  1  0.49980000  0.24981000  0.11760000  1.0
  Ti  Ti7  1  0.99989000  0.00037000  0.03655000  1.0
  Ga  Ga8  1  0.00000000  0.75000000  0.96038000  1.0
  Ga  Ga9  1  0.50000000  0.00000000  0.88114000  1.0
  Ga  Ga10  1  0.00000000  0.25000000  0.96038000  1.0
  Ga  Ga11  1  0.50000000  0.50000000  0.88114000  1.0
  Ga  Ga12  1  0.99964000  0.25033000  0.12430000  1.0
  Ga  Ga13  1  0.50002000  0.49998000  0.03822000  1.0
  Ga  Ga14  1  0.99997000  0.74996000  0.12493000  1.0
  Ga  Ga15  1  0.49992000  0.00015000  0.03830000  1.0
  Fe  Fe16  1  0.25000000  0.00000000  0.96038000  1.0
  Fe  Fe17  1  0.75000000  0.50000000  0.96038000  1.0
  Fe  Fe18  1  0.75000000  0.00000000  0.96038000  1.0
  Fe  Fe19  1  0.25000000  0.50000000  0.96038000  1.0
  Fe  Fe20  1  0.75000000  0.75000000  0.88114000  1.0
  Fe  Fe21  1  0.25000000  0.25000000  0.88114000  1.0
  Fe  Fe22  1  0.25000000  0.75000000  0.88114000  1.0
  Fe  Fe23  1  0.75000000  0.25000000  0.88114000  1.0
  Fe  Fe24  1  0.23533000  0.50043000  0.11506000  1.0
  Fe  Fe25  1  0.76582000  0.99994000  0.11509000  1.0
  Fe  Fe26  1  0.76433000  0.50052000  0.11508000  1.0
  Fe  Fe27  1  0.23382000  0.99998000  0.11508000  1.0
  Fe  Fe28  1  0.74811000  0.25004000  0.04107000  1.0
  Fe  Fe29  1  0.25126000  0.75004000  0.04135000  1.0
  Fe  Fe30  1  0.25161000  0.25004000  0.04109000  1.0
  Fe  Fe31  1  0.74853000  0.75007000  0.04135000  1.0
  C  C32  1  0.06531000  0.25021000  0.28095000  1.0
  O  O33  1  0.93263000  0.24926000  0.31237000  1.0
