# generated using pymatgen
data_Cu8Ni16Sb8C
_symmetry_space_group_name_H-M   Pm
_cell_length_a   6.01864000
_cell_length_b   8.51164000
_cell_length_c   26.38370000
_cell_angle_alpha   90.00000000
_cell_angle_beta   90.00000000
_cell_angle_gamma   90.00000000
_symmetry_Int_Tables_number   6
_chemical_formula_structural   Cu8Ni16Sb8C
_chemical_formula_sum   'Cu8 Ni16 Sb8 C1'
_cell_volume   1351.59729550
_cell_formula_units_Z   1
loop_
 _symmetry_equiv_pos_site_id
 _symmetry_equiv_pos_as_xyz
  1  'x, y, z'
  2  'x, -y, z'
loop_
 _atom_site_type_symbol
 _atom_site_label
 _atom_site_symmetry_multiplicity
 _atom_site_fract_x
 _atom_site_fract_y
 _atom_site_fract_z
 _atom_site_occupancy
  Cu  Cu0  2  0.00000000  0.25002000  0.87902000  1.0
  Cu  Cu1  2  0.00608000  0.24775000  0.04072000  1.0
  Cu  Cu2  1  0.47378000  0.50000000  0.12166000  1.0
  Cu  Cu3  1  0.50000000  0.00000000  0.95967000  1.0
  Cu  Cu4  1  0.50000000  0.50000000  0.95967000  1.0
  Cu  Cu5  1  0.53596000  0.00000000  0.11728000  1.0
  Ni  Ni6  2  0.25000000  0.25002000  0.95967000  1.0
  Ni  Ni7  2  0.25434000  0.21265000  0.12415000  1.0
  Ni  Ni8  2  0.75000000  0.24998000  0.95967000  1.0
  Ni  Ni9  2  0.75687000  0.27219000  0.11592000  1.0
  Ni  Ni10  1  0.22851000  0.50000000  0.04297000  1.0
  Ni  Ni11  1  0.24491000  0.00000000  0.04212000  1.0
  Ni  Ni12  1  0.25000000  0.00000000  0.87902000  1.0
  Ni  Ni13  1  0.25000000  0.50000000  0.87902000  1.0
  Ni  Ni14  1  0.74991000  0.00000000  0.03502000  1.0
  Ni  Ni15  1  0.75000000  0.00000000  0.87902000  1.0
  Ni  Ni16  1  0.75000000  0.50000000  0.87902000  1.0
  Ni  Ni17  1  0.76753000  0.50000000  0.04709000  1.0
  Sb  Sb18  2  0.49531000  0.25519000  0.04083000  1.0
  Sb  Sb19  2  0.50000000  0.25002000  0.87902000  1.0
  Sb  Sb20  1  0.00000000  0.00000000  0.95967000  1.0
  Sb  Sb21  1  0.00000000  0.50000000  0.95967000  1.0
  Sb  Sb22  1  0.02767000  0.50000000  0.13504000  1.0
  Sb  Sb23  1  0.93856000  0.00000000  0.12528000  1.0
  C  C24  1  0.27063000  0.00000000  0.15166000  1.0
