# generated using pymatgen
data_V8Fe16Sn8C
_symmetry_space_group_name_H-M   'P 1'
_cell_length_a   6.09904000
_cell_length_b   8.62534000
_cell_length_c   26.46900000
_cell_angle_alpha   90.00000000
_cell_angle_beta   90.00000000
_cell_angle_gamma   90.00000000
_symmetry_Int_Tables_number   1
_chemical_formula_structural   V8Fe16Sn8C
_chemical_formula_sum   'V8 Fe16 Sn8 C1'
_cell_volume   1392.43598725
_cell_formula_units_Z   1
loop_
 _symmetry_equiv_pos_site_id
 _symmetry_equiv_pos_as_xyz
  1  'x, y, z'
loop_
 _atom_site_type_symbol
 _atom_site_label
 _atom_site_symmetry_multiplicity
 _atom_site_fract_x
 _atom_site_fract_y
 _atom_site_fract_z
 _atom_site_occupancy
  V  V0  1  0.00000000  0.00000000  0.87780000  1.0
  V  V1  1  0.50000000  0.25000000  0.95927000  1.0
  V  V2  1  0.50000000  0.75000000  0.95927000  1.0
  V  V3  1  0.00000000  0.50000000  0.87780000  1.0
  V  V4  1  0.00000000  0.50000000  0.04148000  1.0
  V  V5  1  0.50000000  0.75382000  0.11952000  1.0
  V  V6  1  0.50000000  0.24618000  0.11952000  1.0
  V  V7  1  0.00000000  0.00000000  0.03876000  1.0
  Fe  Fe8  1  0.25000000  0.00000000  0.95927000  1.0
  Fe  Fe9  1  0.75000000  0.50000000  0.95927000  1.0
  Fe  Fe10  1  0.75000000  0.00000000  0.95927000  1.0
  Fe  Fe11  1  0.25000000  0.50000000  0.95927000  1.0
  Fe  Fe12  1  0.75000000  0.75000000  0.87780000  1.0
  Fe  Fe13  1  0.25000000  0.25000000  0.87780000  1.0
  Fe  Fe14  1  0.25000000  0.75000000  0.87780000  1.0
  Fe  Fe15  1  0.75000000  0.25000000  0.87780000  1.0
  Fe  Fe16  1  0.25840000  0.50000000  0.12172000  1.0
  Fe  Fe17  1  0.76749000  0.00000000  0.11933000  1.0
  Fe  Fe18  1  0.74160000  0.50000000  0.12172000  1.0
  Fe  Fe19  1  0.23251000  0.00000000  0.11933000  1.0
  Fe  Fe20  1  0.74809000  0.24936000  0.04236000  1.0
  Fe  Fe21  1  0.25191000  0.75064000  0.04236000  1.0
  Fe  Fe22  1  0.25191000  0.24936000  0.04236000  1.0
  Fe  Fe23  1  0.74809000  0.75064000  0.04236000  1.0
  Sn  Sn24  1  0.00000000  0.75000000  0.95927000  1.0
  Sn  Sn25  1  0.50000000  0.00000000  0.87780000  1.0
  Sn  Sn26  1  0.00000000  0.25000000  0.95927000  1.0
  Sn  Sn27  1  0.50000000  0.50000000  0.87780000  1.0
  Sn  Sn28  1  0.00000000  0.24654000  0.12932000  1.0
  Sn  Sn29  1  0.50000000  0.50000000  0.03992000  1.0
  Sn  Sn30  1  0.00000000  0.75346000  0.12932000  1.0
  Sn  Sn31  1  0.50000000  0.00000000  0.03945000  1.0
  C  C32  1  0.50000000  0.00000000  0.15078000  1.0
