# generated using pymatgen
data_Y4Sn4Pd8CO
_symmetry_space_group_name_H-M   P4mm
_cell_length_a   6.84524000
_cell_length_b   6.84524000
_cell_length_c   25.13390000
_cell_angle_alpha   90.00000000
_cell_angle_beta   90.00000000
_cell_angle_gamma   90.00000000
_symmetry_Int_Tables_number   99
_chemical_formula_structural   Y4Sn4Pd8CO
_chemical_formula_sum   'Y4 Sn4 Pd8 C1 O1'
_cell_volume   1177.70696034
_cell_formula_units_Z   1
loop_
 _symmetry_equiv_pos_site_id
 _symmetry_equiv_pos_as_xyz
  1  'x, y, z'
  2  '-y, x, z'
  3  '-x, -y, z'
  4  'y, -x, z'
  5  '-x, y, z'
  6  'y, x, z'
  7  'x, -y, z'
  8  '-y, -x, z'
loop_
 _atom_site_type_symbol
 _atom_site_label
 _atom_site_symmetry_multiplicity
 _atom_site_fract_x
 _atom_site_fract_y
 _atom_site_fract_z
 _atom_site_occupancy
  Y  Y0  2  0.00000000  0.50000000  0.10213000  1.0
  Y  Y1  1  0.00000000  0.00000000  0.96596000  1.0
  Y  Y2  1  0.50000000  0.50000000  0.96596000  1.0
  Sn  Sn3  2  0.00000000  0.50000000  0.96596000  1.0
  Sn  Sn4  1  0.00000000  0.00000000  0.10213000  1.0
  Sn  Sn5  1  0.50000000  0.50000000  0.10213000  1.0
  Pd  Pd6  4  0.25000000  0.25000000  0.03404000  1.0
  Pd  Pd7  4  0.25000000  0.25000000  0.89787000  1.0
  C  C8  1  0.00000000  0.00000000  0.17773000  1.0
  O  O9  1  0.00000000  0.00000000  0.22348000  1.0
