# generated using pymatgen
data_Mg4Sc4In4Pd4CO
_symmetry_space_group_name_H-M   P1
_cell_length_a   6.76782000
_cell_length_b   6.76782000
_cell_length_c   25.07590000
_cell_angle_alpha   90.00000000
_cell_angle_beta   90.00000000
_cell_angle_gamma   90.00000000
_symmetry_Int_Tables_number   1
_chemical_formula_structural   Mg4Sc4In4Pd4CO
_chemical_formula_sum   'Mg4 Sc4 In4 Pd4 C1 O1'
_cell_volume   1148.56116593
_cell_formula_units_Z   1
loop_
 _symmetry_equiv_pos_site_id
 _symmetry_equiv_pos_as_xyz
  1  'x, y, z'
loop_
 _atom_site_type_symbol
 _atom_site_label
 _atom_site_symmetry_multiplicity
 _atom_site_fract_x
 _atom_site_fract_y
 _atom_site_fract_z
 _atom_site_occupancy
  Mg  Mg0  1  0.25000000  0.75000000  0.89879000  1.0
  Mg  Mg1  1  0.25183000  0.25180000  0.03657000  1.0
  Mg  Mg2  1  0.74832000  0.74828000  0.03653000  1.0
  Mg  Mg3  1  0.75000000  0.25000000  0.89879000  1.0
  Sc  Sc4  1  0.24951000  0.75054000  0.03959000  1.0
  Sc  Sc5  1  0.25000000  0.25000000  0.89879000  1.0
  Sc  Sc6  1  0.75000000  0.75000000  0.89879000  1.0
  Sc  Sc7  1  0.75060000  0.24946000  0.03960000  1.0
  In  In8  1  0.00000000  0.50000000  0.96626000  1.0
  In  In9  1  0.00003000  0.99993000  0.12199000  1.0
  In  In10  1  0.50000000  0.00000000  0.96626000  1.0
  In  In11  1  0.50027000  0.50025000  0.12299000  1.0
  Pd  Pd12  1  0.00000000  0.00000000  0.96626000  1.0
  Pd  Pd13  1  0.50000000  0.50000000  0.96626000  1.0
  Pd  Pd14  1  0.50007000  0.99991000  0.09349000  1.0
  Pd  Pd15  1  0.99998000  0.50005000  0.09349000  1.0
  C  C16  1  0.99796000  0.99927000  0.27446000  1.0
  O  O17  1  0.00030000  0.00017000  0.31972000  1.0
