# generated using pymatgen
data_Y8In8Cu8Pd8CO
_symmetry_space_group_name_H-M   'P 1'
_cell_length_a   9.57344000
_cell_length_b   6.76944000
_cell_length_c   27.18010000
_cell_angle_alpha   90.00000000
_cell_angle_beta   90.00000000
_cell_angle_gamma   90.00000000
_symmetry_Int_Tables_number   1
_chemical_formula_structural   Y8In8Cu8Pd8CO
_chemical_formula_sum   'Y8 In8 Cu8 Pd8 C1 O1'
_cell_volume   1761.45605685
_cell_formula_units_Z   1
loop_
 _symmetry_equiv_pos_site_id
 _symmetry_equiv_pos_as_xyz
  1  'x, y, z'
loop_
 _atom_site_type_symbol
 _atom_site_label
 _atom_site_symmetry_multiplicity
 _atom_site_fract_x
 _atom_site_fract_y
 _atom_site_fract_z
 _atom_site_occupancy
  Y  Y0  1  0.00000000  0.75000000  0.04403000  1.0
  Y  Y1  1  0.50000000  0.75000000  0.04403000  1.0
  Y  Y2  1  0.25000000  0.25000000  0.13208000  1.0
  Y  Y3  1  0.75000000  0.25000000  0.13208000  1.0
  Y  Y4  1  0.50000000  0.75115000  0.86331000  1.0
  Y  Y5  1  0.00000000  0.75362000  0.86681000  1.0
  Y  Y6  1  0.74551000  0.24997000  0.95593000  1.0
  Y  Y7  1  0.25449000  0.24997000  0.95593000  1.0
  In  In8  1  0.00000000  0.25000000  0.04403000  1.0
  In  In9  1  0.50000000  0.25000000  0.04403000  1.0
  In  In10  1  0.25000000  0.75000000  0.13208000  1.0
  In  In11  1  0.75000000  0.75000000  0.13208000  1.0
  In  In12  1  0.50000000  0.25356000  0.86546000  1.0
  In  In13  1  0.00000000  0.25287000  0.86516000  1.0
  In  In14  1  0.75353000  0.75201000  0.95363000  1.0
  In  In15  1  0.24647000  0.75201000  0.95363000  1.0
  Cu  Cu16  1  0.00000000  0.00000000  0.13208000  1.0
  Cu  Cu17  1  0.50000000  1.00000000  0.13208000  1.0
  Cu  Cu18  1  0.75000000  0.50000000  0.04403000  1.0
  Cu  Cu19  1  0.25000000  0.50000000  0.04403000  1.0
  Cu  Cu20  1  0.50000000  0.97928000  0.95214000  1.0
  Cu  Cu21  1  0.00000000  0.00354000  0.95532000  1.0
  Cu  Cu22  1  0.25000000  0.47971000  0.86766000  1.0
  Cu  Cu23  1  0.75000000  0.47971000  0.86766000  1.0
  Pd  Pd24  1  0.25000000  0.00000000  0.04403000  1.0
  Pd  Pd25  1  0.75000000  0.00000000  0.04403000  1.0
  Pd  Pd26  1  0.50000000  0.50000000  0.13208000  1.0
  Pd  Pd27  1  0.00000000  0.50000000  0.13208000  1.0
  Pd  Pd28  1  0.74769000  0.01781000  0.86999000  1.0
  Pd  Pd29  1  0.25231000  0.01781000  0.86999000  1.0
  Pd  Pd30  1  0.00000000  0.49979000  0.95526000  1.0
  Pd  Pd31  1  0.50000000  0.52164000  0.95298000  1.0
  C  C32  1  0.00000000  0.74440000  0.77357000  1.0
  O  O33  1  0.00000000  0.74346000  0.73145000  1.0
