# generated using pymatgen
data_Li8Mg8Ag8Ge8CO
_symmetry_space_group_name_H-M   'P 1'
_cell_length_a   6.50572000
_cell_length_b   9.20048000
_cell_length_c   26.90040000
_cell_angle_alpha   90.00000000
_cell_angle_beta   90.00000000
_cell_angle_gamma   90.00000000
_symmetry_Int_Tables_number   1
_chemical_formula_structural   Li8Mg8Ag8Ge8CO
_chemical_formula_sum   'Li8 Mg8 Ag8 Ge8 C1 O1'
_cell_volume   1610.14352976
_cell_formula_units_Z   1
loop_
 _symmetry_equiv_pos_site_id
 _symmetry_equiv_pos_as_xyz
  1  'x, y, z'
loop_
 _atom_site_type_symbol
 _atom_site_label
 _atom_site_symmetry_multiplicity
 _atom_site_fract_x
 _atom_site_fract_y
 _atom_site_fract_z
 _atom_site_occupancy
  Li  Li0  1  0.75000000  0.00000000  0.95725000  1.0
  Li  Li1  1  0.75000000  0.50000000  0.95725000  1.0
  Li  Li2  1  0.25000000  0.25000000  0.87174000  1.0
  Li  Li3  1  0.25000000  0.75000000  0.87174000  1.0
  Li  Li4  1  0.76433000  0.48391000  0.13729000  1.0
  Li  Li5  1  0.76438000  0.01599000  0.13730000  1.0
  Li  Li6  1  0.26129000  0.75000000  0.04792000  1.0
  Li  Li7  1  0.24774000  0.25002000  0.03868000  1.0
  Mg  Mg8  1  0.25000000  0.00000000  0.95725000  1.0
  Mg  Mg9  1  0.25000000  0.50000000  0.95725000  1.0
  Mg  Mg10  1  0.75000000  0.25000000  0.87174000  1.0
  Mg  Mg11  1  0.75000000  0.75000000  0.87174000  1.0
  Mg  Mg12  1  0.23202000  0.51721000  0.14025000  1.0
  Mg  Mg13  1  0.23198000  0.98256000  0.14027000  1.0
  Mg  Mg14  1  0.74099000  0.75006000  0.04341000  1.0
  Mg  Mg15  1  0.75274000  0.25001000  0.04485000  1.0
  Ag  Ag16  1  0.00000000  0.00000000  0.87174000  1.0
  Ag  Ag17  1  0.00000000  0.50000000  0.87174000  1.0
  Ag  Ag18  1  0.50000000  0.75000000  0.95725000  1.0
  Ag  Ag19  1  0.50000000  0.25000000  0.95725000  1.0
  Ag  Ag20  1  0.00797000  0.50852000  0.04661000  1.0
  Ag  Ag21  1  0.00808000  0.99156000  0.04662000  1.0
  Ag  Ag22  1  0.45533000  0.24989000  0.12697000  1.0
  Ag  Ag23  1  0.53048000  0.74990000  0.13407000  1.0
  Ge  Ge24  1  0.00000000  0.25000000  0.95725000  1.0
  Ge  Ge25  1  0.00000000  0.75000000  0.95725000  1.0
  Ge  Ge26  1  0.50000000  0.50000000  0.87174000  1.0
  Ge  Ge27  1  0.50000000  0.00000000  0.87174000  1.0
  Ge  Ge28  1  0.96737000  0.74989000  0.13314000  1.0
  Ge  Ge29  1  0.03378000  0.24989000  0.16194000  1.0
  Ge  Ge30  1  0.49276000  0.00628000  0.05420000  1.0
  Ge  Ge31  1  0.49280000  0.49372000  0.05420000  1.0
  C  C32  1  0.08003000  0.24998000  0.23371000  1.0
  O  O33  1  0.09571000  0.25009000  0.27668000  1.0
