# generated using pymatgen
data_Li8Mg8In8Pb8CO
_symmetry_space_group_name_H-M   'P 1'
_cell_length_a   10.06110000
_cell_length_b   7.11424000
_cell_length_c   27.54580000
_cell_angle_alpha   90.00000000
_cell_angle_beta   90.00000000
_cell_angle_gamma   90.00000000
_symmetry_Int_Tables_number   1
_chemical_formula_structural   Li8Mg8In8Pb8CO
_chemical_formula_sum   'Li8 Mg8 In8 Pb8 C1 O1'
_cell_volume   1971.64793203
_cell_formula_units_Z   1
loop_
 _symmetry_equiv_pos_site_id
 _symmetry_equiv_pos_as_xyz
  1  'x, y, z'
loop_
 _atom_site_type_symbol
 _atom_site_label
 _atom_site_symmetry_multiplicity
 _atom_site_fract_x
 _atom_site_fract_y
 _atom_site_fract_z
 _atom_site_occupancy
  Li  Li0  1  0.00000000  0.75000000  0.04566000  1.0
  Li  Li1  1  0.50000000  0.75000000  0.04566000  1.0
  Li  Li2  1  0.25000000  0.25000000  0.13697000  1.0
  Li  Li3  1  0.75000000  0.25000000  0.13697000  1.0
  Li  Li4  1  0.50000000  0.74660000  0.85801000  1.0
  Li  Li5  1  0.00000000  0.75233000  0.85895000  1.0
  Li  Li6  1  0.74996000  0.24531000  0.95001000  1.0
  Li  Li7  1  0.25004000  0.24531000  0.95001000  1.0
  Mg  Mg8  1  0.00000000  0.25000000  0.04566000  1.0
  Mg  Mg9  1  0.50000000  0.25000000  0.04566000  1.0
  Mg  Mg10  1  0.25000000  0.75000000  0.13697000  1.0
  Mg  Mg11  1  0.75000000  0.75000000  0.13697000  1.0
  Mg  Mg12  1  0.50000000  0.24938000  0.85101000  1.0
  Mg  Mg13  1  0.00000000  0.24147000  0.85399000  1.0
  Mg  Mg14  1  0.74875000  0.75210000  0.94922000  1.0
  Mg  Mg15  1  0.25125000  0.75210000  0.94922000  1.0
  In  In16  1  0.00000000  0.00000000  0.13697000  1.0
  In  In17  1  0.50000000  0.00000000  0.13697000  1.0
  In  In18  1  0.75000000  0.50000000  0.04566000  1.0
  In  In19  1  0.25000000  0.50000000  0.04566000  1.0
  In  In20  1  0.50000000  0.00741000  0.94720000  1.0
  In  In21  1  0.00000000  0.00340000  0.94898000  1.0
  In  In22  1  0.25093000  0.50483000  0.85011000  1.0
  In  In23  1  0.74907000  0.50483000  0.85011000  1.0
  Pb  Pb24  1  0.25000000  0.00000000  0.04566000  1.0
  Pb  Pb25  1  0.75000000  0.00000000  0.04566000  1.0
  Pb  Pb26  1  0.50000000  0.50000000  0.13697000  1.0
  Pb  Pb27  1  0.00000000  0.50000000  0.13697000  1.0
  Pb  Pb28  1  0.74648000  0.98828000  0.84978000  1.0
  Pb  Pb29  1  0.25352000  0.98828000  0.84978000  1.0
  Pb  Pb30  1  0.00000000  0.49353000  0.94812000  1.0
  Pb  Pb31  1  0.50000000  0.49417000  0.94822000  1.0
  C  C32  1  0.00000000  0.25003000  0.77258000  1.0
  O  O33  1  0.00000000  0.25260000  0.73096000  1.0
