# generated using pymatgen
data_Li8Mg8In8Pb8CO
_symmetry_space_group_name_H-M   Pm
_cell_length_a   7.11424000
_cell_length_b   10.06110000
_cell_length_c   27.54580000
_cell_angle_alpha   90.00000000
_cell_angle_beta   90.00000000
_cell_angle_gamma   90.00000000
_symmetry_Int_Tables_number   6
_chemical_formula_structural   Li8Mg8In8Pb8CO
_chemical_formula_sum   'Li8 Mg8 In8 Pb8 C1 O1'
_cell_volume   1971.64793203
_cell_formula_units_Z   1
loop_
 _symmetry_equiv_pos_site_id
 _symmetry_equiv_pos_as_xyz
  1  'x, y, z'
  2  'x, -y, z'
loop_
 _atom_site_type_symbol
 _atom_site_label
 _atom_site_symmetry_multiplicity
 _atom_site_fract_x
 _atom_site_fract_y
 _atom_site_fract_z
 _atom_site_occupancy
  Li  Li0  2  0.24531000  0.25004000  0.04999000  1.0
  Li  Li1  2  0.25000000  0.25000000  0.86303000  1.0
  Li  Li2  1  0.74660000  0.50000000  0.14199000  1.0
  Li  Li3  1  0.75000000  0.00000000  0.95434000  1.0
  Li  Li4  1  0.75000000  0.50000000  0.95434000  1.0
  Li  Li5  1  0.75233000  0.00000000  0.14105000  1.0
  Mg  Mg6  2  0.75000000  0.25000000  0.86303000  1.0
  Mg  Mg7  2  0.75210000  0.25125000  0.05078000  1.0
  Mg  Mg8  1  0.24147000  0.00000000  0.14601000  1.0
  Mg  Mg9  1  0.24938000  0.50000000  0.14899000  1.0
  Mg  Mg10  1  0.25000000  0.00000000  0.95434000  1.0
  Mg  Mg11  1  0.25000000  0.50000000  0.95434000  1.0
  In  In12  2  0.50000000  0.25000000  0.95434000  1.0
  In  In13  2  0.50483000  0.25093000  0.14989000  1.0
  In  In14  1  0.00000000  0.00000000  0.86303000  1.0
  In  In15  1  0.00000000  0.50000000  0.86303000  1.0
  In  In16  1  0.00340000  0.00000000  0.05102000  1.0
  In  In17  1  0.00741000  0.50000000  0.05280000  1.0
  Pb  Pb18  2  0.00000000  0.25000000  0.95434000  1.0
  Pb  Pb19  2  0.98828000  0.25352000  0.15022000  1.0
  Pb  Pb20  1  0.49353000  0.00000000  0.05188000  1.0
  Pb  Pb21  1  0.49417000  0.50000000  0.05178000  1.0
  Pb  Pb22  1  0.50000000  0.00000000  0.86303000  1.0
  Pb  Pb23  1  0.50000000  0.50000000  0.86303000  1.0
  C  C24  1  0.25003000  0.00000000  0.22742000  1.0
  O  O25  1  0.25260000  0.00000000  0.26904000  1.0
