# generated using pymatgen
data_Li4Mg4Ag4Ge4CO
_symmetry_space_group_name_H-M   'P 1'
_cell_length_a   6.50572000
_cell_length_b   6.50572000
_cell_length_c   24.87930000
_cell_angle_alpha   90.00000000
_cell_angle_beta   90.00000000
_cell_angle_gamma   90.00000000
_symmetry_Int_Tables_number   1
_chemical_formula_structural   Li4Mg4Ag4Ge4CO
_chemical_formula_sum   'Li4 Mg4 Ag4 Ge4 C1 O1'
_cell_volume   1053.00126376
_cell_formula_units_Z   1
loop_
 _symmetry_equiv_pos_site_id
 _symmetry_equiv_pos_as_xyz
  1  'x, y, z'
loop_
 _atom_site_type_symbol
 _atom_site_label
 _atom_site_symmetry_multiplicity
 _atom_site_fract_x
 _atom_site_fract_y
 _atom_site_fract_z
 _atom_site_occupancy
  Li  Li0  1  0.75000000  0.25000000  0.96731000  1.0
  Li  Li1  1  0.75001000  0.75002000  0.09822000  1.0
  Li  Li2  1  0.25005000  0.25006000  0.10127000  1.0
  Li  Li3  1  0.25000000  0.75000000  0.96731000  1.0
  Mg  Mg4  1  0.25000000  0.25000000  0.96731000  1.0
  Mg  Mg5  1  0.24962000  0.74967000  0.10081000  1.0
  Mg  Mg6  1  0.74948000  0.24973000  0.10032000  1.0
  Mg  Mg7  1  0.75000000  0.75000000  0.96731000  1.0
  Ag  Ag8  1  0.00000000  0.00000000  0.90194000  1.0
  Ag  Ag9  1  0.00161000  0.49862000  0.03246000  1.0
  Ag  Ag10  1  0.49835000  0.00128000  0.03246000  1.0
  Ag  Ag11  1  0.50000000  0.50000000  0.90194000  1.0
  Ge  Ge12  1  0.00000000  0.50000000  0.90194000  1.0
  Ge  Ge13  1  0.99891000  0.99767000  0.04163000  1.0
  Ge  Ge14  1  0.50115000  0.50242000  0.04161000  1.0
  Ge  Ge15  1  0.50000000  0.00000000  0.90194000  1.0
  C  C16  1  0.25012000  0.25008000  0.18374000  1.0
  O  O17  1  0.25009000  0.25006000  0.22994000  1.0
