data_image0
_chemical_formula_structural       Ti16Ni16C
_chemical_formula_sum              "Ti16 Ni16 C1"
_cell_length_a       6.03636
_cell_length_b       8.5367
_cell_length_c       26.4025
_cell_angle_alpha    90
_cell_angle_beta     90
_cell_angle_gamma    90

_space_group_name_H-M_alt    "P 1"
_space_group_IT_number       1

loop_
  _space_group_symop_operation_xyz
  'x, y, z'

loop_
  _atom_site_type_symbol
  _atom_site_label
  _atom_site_symmetry_multiplicity
  _atom_site_fract_x
  _atom_site_fract_y
  _atom_site_fract_z
  _atom_site_occupancy
  Ti  Ti1       1.0  0.25000  0.25000  0.87875  1.0000
  Ti  Ti2       1.0  0.25000  0.00000  0.95958  1.0000
  Ti  Ti3       1.0  0.24904  0.24961  0.04010  1.0000
  Ti  Ti4       1.0  0.24301  0.99086  0.12570  1.0000
  Ti  Ti5       1.0  0.25000  0.75000  0.87875  1.0000
  Ti  Ti6       1.0  0.25000  0.50000  0.95958  1.0000
  Ti  Ti7       1.0  0.25062  0.73393  0.03856  1.0000
  Ti  Ti8       1.0  0.25262  0.49494  0.12064  1.0000
  Ti  Ti9       1.0  0.75000  0.25000  0.87875  1.0000
  Ti  Ti10      1.0  0.75000  0.00000  0.95958  1.0000
  Ti  Ti11      1.0  0.75269  0.23521  0.04098  1.0000
  Ti  Ti12      1.0  0.75450  0.98675  0.12698  1.0000
  Ti  Ti13      1.0  0.75000  0.75000  0.87875  1.0000
  Ti  Ti14      1.0  0.75000  0.50000  0.95958  1.0000
  Ti  Ti15      1.0  0.74865  0.74430  0.03967  1.0000
  Ti  Ti16      1.0  0.74671  0.49811  0.12654  1.0000
  Ni  Ni1       1.0  0.00000  0.00000  0.87875  1.0000
  Ni  Ni2       1.0  0.00000  0.25000  0.95958  1.0000
  Ni  Ni3       1.0  0.01513  0.97949  0.03843  1.0000
  Ni  Ni4       1.0  0.99611  0.26476  0.11795  1.0000
  Ni  Ni5       1.0  0.00000  0.50000  0.87875  1.0000
  Ni  Ni6       1.0  0.00000  0.75000  0.95958  1.0000
  Ni  Ni7       1.0  0.97097  0.48394  0.04798  1.0000
  Ni  Ni8       1.0  0.00076  0.73270  0.11128  1.0000
  Ni  Ni9       1.0  0.50000  0.00000  0.87875  1.0000
  Ni  Ni10      1.0  0.50000  0.25000  0.95958  1.0000
  Ni  Ni11      1.0  0.48780  0.99246  0.04026  1.0000
  Ni  Ni12      1.0  0.50115  0.24028  0.11181  1.0000
  Ni  Ni13      1.0  0.50000  0.50000  0.87875  1.0000
  Ni  Ni14      1.0  0.50000  0.75000  0.95958  1.0000
  Ni  Ni15      1.0  0.53245  0.48544  0.04708  1.0000
  Ni  Ni16      1.0  0.49695  0.73703  0.11354  1.0000
  C   C1        1.0  0.99729  0.09075  0.16013  1.0000
