# generated using pymatgen
data_Ti16Ni16C
_symmetry_space_group_name_H-M   'P 1'
_cell_length_a   6.03636000
_cell_length_b   8.53670000
_cell_length_c   26.40250000
_cell_angle_alpha   90.00000000
_cell_angle_beta   90.00000000
_cell_angle_gamma   90.00000000
_symmetry_Int_Tables_number   1
_chemical_formula_structural   Ti16Ni16C
_chemical_formula_sum   'Ti16 Ni16 C1'
_cell_volume   1360.53651896
_cell_formula_units_Z   1
loop_
 _symmetry_equiv_pos_site_id
 _symmetry_equiv_pos_as_xyz
  1  'x, y, z'
loop_
 _atom_site_type_symbol
 _atom_site_label
 _atom_site_symmetry_multiplicity
 _atom_site_fract_x
 _atom_site_fract_y
 _atom_site_fract_z
 _atom_site_occupancy
  Ti  Ti0  1  0.25000000  0.25000000  0.87875000  1.0
  Ti  Ti1  1  0.25000000  0.00000000  0.95958000  1.0
  Ti  Ti2  1  0.24904000  0.24961000  0.04010000  1.0
  Ti  Ti3  1  0.24301000  0.99086000  0.12570000  1.0
  Ti  Ti4  1  0.25000000  0.75000000  0.87875000  1.0
  Ti  Ti5  1  0.25000000  0.50000000  0.95958000  1.0
  Ti  Ti6  1  0.25062000  0.73393000  0.03856000  1.0
  Ti  Ti7  1  0.25262000  0.49494000  0.12064000  1.0
  Ti  Ti8  1  0.75000000  0.25000000  0.87875000  1.0
  Ti  Ti9  1  0.75000000  0.00000000  0.95958000  1.0
  Ti  Ti10  1  0.75269000  0.23521000  0.04098000  1.0
  Ti  Ti11  1  0.75450000  0.98675000  0.12698000  1.0
  Ti  Ti12  1  0.75000000  0.75000000  0.87875000  1.0
  Ti  Ti13  1  0.75000000  0.50000000  0.95958000  1.0
  Ti  Ti14  1  0.74865000  0.74430000  0.03967000  1.0
  Ti  Ti15  1  0.74671000  0.49811000  0.12654000  1.0
  Ni  Ni16  1  0.00000000  0.00000000  0.87875000  1.0
  Ni  Ni17  1  0.00000000  0.25000000  0.95958000  1.0
  Ni  Ni18  1  0.01513000  0.97949000  0.03843000  1.0
  Ni  Ni19  1  0.99611000  0.26476000  0.11795000  1.0
  Ni  Ni20  1  0.00000000  0.50000000  0.87875000  1.0
  Ni  Ni21  1  0.00000000  0.75000000  0.95958000  1.0
  Ni  Ni22  1  0.97097000  0.48394000  0.04798000  1.0
  Ni  Ni23  1  0.00076000  0.73270000  0.11128000  1.0
  Ni  Ni24  1  0.50000000  0.00000000  0.87875000  1.0
  Ni  Ni25  1  0.50000000  0.25000000  0.95958000  1.0
  Ni  Ni26  1  0.48780000  0.99246000  0.04026000  1.0
  Ni  Ni27  1  0.50115000  0.24028000  0.11181000  1.0
  Ni  Ni28  1  0.50000000  0.50000000  0.87875000  1.0
  Ni  Ni29  1  0.50000000  0.75000000  0.95958000  1.0
  Ni  Ni30  1  0.53245000  0.48544000  0.04708000  1.0
  Ni  Ni31  1  0.49695000  0.73703000  0.11354000  1.0
  C  C32  1  0.99729000  0.09075000  0.16013000  1.0
