data_image0
_chemical_formula_structural       Ti16Co16C
_chemical_formula_sum              "Ti16 Co16 C1"
_cell_length_a       5.98862
_cell_length_b       8.46918
_cell_length_c       26.3519
_cell_angle_alpha    90
_cell_angle_beta     90
_cell_angle_gamma    90

_space_group_name_H-M_alt    "P 1"
_space_group_IT_number       1

loop_
  _space_group_symop_operation_xyz
  'x, y, z'

loop_
  _atom_site_type_symbol
  _atom_site_label
  _atom_site_symmetry_multiplicity
  _atom_site_fract_x
  _atom_site_fract_y
  _atom_site_fract_z
  _atom_site_occupancy
  Ti  Ti1       1.0  0.00000  0.00000  0.87948  1.0000
  Ti  Ti2       1.0  0.00000  0.25000  0.95983  1.0000
  Ti  Ti3       1.0  0.00000  0.50000  0.04175  1.0000
  Ti  Ti4       1.0  1.00000  0.24896  0.12703  1.0000
  Ti  Ti5       1.0  0.00000  0.50000  0.87948  1.0000
  Ti  Ti6       1.0  0.00000  0.75000  0.95983  1.0000
  Ti  Ti7       1.0  0.00000  0.00000  0.04573  1.0000
  Ti  Ti8       1.0  1.00000  0.75103  0.12703  1.0000
  Ti  Ti9       1.0  0.50000  0.00000  0.87948  1.0000
  Ti  Ti10      1.0  0.50000  0.25000  0.95983  1.0000
  Ti  Ti11      1.0  0.50000  0.50000  0.04060  1.0000
  Ti  Ti12      1.0  0.50000  0.25499  0.12380  1.0000
  Ti  Ti13      1.0  0.50000  0.50000  0.87948  1.0000
  Ti  Ti14      1.0  0.50000  0.75000  0.95983  1.0000
  Ti  Ti15      1.0  0.50000  0.00000  0.03855  1.0000
  Ti  Ti16      1.0  0.50000  0.74500  0.12381  1.0000
  Co  Co1       1.0  0.25000  0.25000  0.87948  1.0000
  Co  Co2       1.0  0.25000  0.00000  0.95983  1.0000
  Co  Co3       1.0  0.24852  0.24773  0.04266  1.0000
  Co  Co4       1.0  0.28796  0.99997  0.11489  1.0000
  Co  Co5       1.0  0.25000  0.75000  0.87948  1.0000
  Co  Co6       1.0  0.25000  0.50000  0.95983  1.0000
  Co  Co7       1.0  0.24852  0.75227  0.04267  1.0000
  Co  Co8       1.0  0.24732  0.50003  0.11198  1.0000
  Co  Co9       1.0  0.75000  0.25000  0.87948  1.0000
  Co  Co10      1.0  0.75000  0.00000  0.95983  1.0000
  Co  Co11      1.0  0.75148  0.24773  0.04266  1.0000
  Co  Co12      1.0  0.71204  0.99997  0.11489  1.0000
  Co  Co13      1.0  0.75000  0.75000  0.87948  1.0000
  Co  Co14      1.0  0.75000  0.50000  0.95983  1.0000
  Co  Co15      1.0  0.75148  0.75227  0.04267  1.0000
  Co  Co16      1.0  0.75268  0.50003  0.11198  1.0000
  C   C1        1.0  1.00000  0.00001  0.13473  1.0000
