# generated using pymatgen
data_Ti16Co16C
_symmetry_space_group_name_H-M   Pmm2
_cell_length_a   5.98862000
_cell_length_b   8.46918000
_cell_length_c   26.35190000
_cell_angle_alpha   90.00000000
_cell_angle_beta   90.00000000
_cell_angle_gamma   90.00000000
_symmetry_Int_Tables_number   25
_chemical_formula_structural   Ti16Co16C
_chemical_formula_sum   'Ti16 Co16 C1'
_cell_volume   1336.53412981
_cell_formula_units_Z   1
loop_
 _symmetry_equiv_pos_site_id
 _symmetry_equiv_pos_as_xyz
  1  'x, y, z'
  2  '-x, -y, z'
  3  '-x, y, z'
  4  'x, -y, z'
loop_
 _atom_site_type_symbol
 _atom_site_label
 _atom_site_symmetry_multiplicity
 _atom_site_fract_x
 _atom_site_fract_y
 _atom_site_fract_z
 _atom_site_occupancy
  Ti  Ti0  2  0.00000000  0.24895000  0.12703000  1.0
  Ti  Ti1  2  0.00000000  0.24999000  0.95983000  1.0
  Ti  Ti2  2  0.50000000  0.24999000  0.95983000  1.0
  Ti  Ti3  2  0.50000000  0.25498000  0.12380000  1.0
  Ti  Ti4  1  0.00000000  0.00000000  0.04573000  1.0
  Ti  Ti5  1  0.00000000  0.00000000  0.87948000  1.0
  Ti  Ti6  1  0.00000000  0.50000000  0.04175000  1.0
  Ti  Ti7  1  0.00000000  0.50000000  0.87948000  1.0
  Ti  Ti8  1  0.50000000  0.00000000  0.03855000  1.0
  Ti  Ti9  1  0.50000000  0.00000000  0.87948000  1.0
  Ti  Ti10  1  0.50000000  0.50000000  0.04060000  1.0
  Ti  Ti11  1  0.50000000  0.50000000  0.87948000  1.0
  Co  Co12  4  0.24852000  0.24772000  0.04266000  1.0
  Co  Co13  4  0.25000000  0.24999000  0.87948000  1.0
  Co  Co14  2  0.24732000  0.50000000  0.11198000  1.0
  Co  Co15  2  0.25000000  0.00000000  0.95983000  1.0
  Co  Co16  2  0.25000000  0.50000000  0.95983000  1.0
  Co  Co17  2  0.28796000  0.00000000  0.11489000  1.0
  C  C18  1  0.00000000  0.00000000  0.13473000  1.0
