# generated using pymatgen
data_Hf8Rh24C
_symmetry_space_group_name_H-M   'P 1'
_cell_length_a   7.89713000
_cell_length_b   7.89713000
_cell_length_c   25.92280000
_cell_angle_alpha   90.00000000
_cell_angle_beta   90.00000000
_cell_angle_gamma   90.00000000
_symmetry_Int_Tables_number   1
_chemical_formula_structural   Hf8Rh24C
_chemical_formula_sum   'Hf8 Rh24 C1'
_cell_volume   1616.66666623
_cell_formula_units_Z   1
loop_
 _symmetry_equiv_pos_site_id
 _symmetry_equiv_pos_as_xyz
  1  'x, y, z'
loop_
 _atom_site_type_symbol
 _atom_site_label
 _atom_site_symmetry_multiplicity
 _atom_site_fract_x
 _atom_site_fract_y
 _atom_site_fract_z
 _atom_site_occupancy
  Hf  Hf0  1  0.00000000  0.00000000  0.88576000  1.0
  Hf  Hf1  1  0.00000000  0.00000000  0.03808000  1.0
  Hf  Hf2  1  0.00000000  0.50000000  0.88576000  1.0
  Hf  Hf3  1  0.00000000  0.50000000  0.03808000  1.0
  Hf  Hf4  1  0.50000000  0.00000000  0.88576000  1.0
  Hf  Hf5  1  0.50000000  0.00000000  0.03808000  1.0
  Hf  Hf6  1  0.50000000  0.50000000  0.88576000  1.0
  Hf  Hf7  1  0.50000000  0.50000000  0.03808000  1.0
  Rh  Rh8  1  0.00000000  0.25000000  0.96192000  1.0
  Rh  Rh9  1  0.25000000  0.00000000  0.96192000  1.0
  Rh  Rh10  1  0.25000000  0.25000000  0.88576000  1.0
  Rh  Rh11  1  0.00000000  0.25000000  0.11424000  1.0
  Rh  Rh12  1  0.25000000  0.00000000  0.11424000  1.0
  Rh  Rh13  1  0.25000000  0.25000000  0.03808000  1.0
  Rh  Rh14  1  0.00000000  0.75000000  0.96192000  1.0
  Rh  Rh15  1  0.25000000  0.50000000  0.96192000  1.0
  Rh  Rh16  1  0.25000000  0.75000000  0.88576000  1.0
  Rh  Rh17  1  0.00000000  0.75000000  0.11424000  1.0
  Rh  Rh18  1  0.25000000  0.50000000  0.11424000  1.0
  Rh  Rh19  1  0.25000000  0.75000000  0.03808000  1.0
  Rh  Rh20  1  0.50000000  0.25000000  0.96192000  1.0
  Rh  Rh21  1  0.75000000  0.00000000  0.96192000  1.0
  Rh  Rh22  1  0.75000000  0.25000000  0.88576000  1.0
  Rh  Rh23  1  0.50000000  0.25000000  0.11424000  1.0
  Rh  Rh24  1  0.75000000  0.00000000  0.11424000  1.0
  Rh  Rh25  1  0.75000000  0.25000000  0.03808000  1.0
  Rh  Rh26  1  0.50000000  0.75000000  0.96192000  1.0
  Rh  Rh27  1  0.75000000  0.50000000  0.96192000  1.0
  Rh  Rh28  1  0.75000000  0.75000000  0.88576000  1.0
  Rh  Rh29  1  0.50000000  0.75000000  0.11424000  1.0
  Rh  Rh30  1  0.75000000  0.50000000  0.11424000  1.0
  Rh  Rh31  1  0.75000000  0.75000000  0.03808000  1.0
  C  C32  1  0.00000000  0.00000000  0.14510000  1.0
