data_image0
_chemical_formula_structural       MgNi3MgNi3MgNi3MgNi3MgNi3MgNi3MgNi3MgNi3CO
_chemical_formula_sum              "Mg8 Ni24 C1 O1"
_cell_length_a       7.35611
_cell_length_b       7.35611
_cell_length_c       25.5171
_cell_angle_alpha    90
_cell_angle_beta     90
_cell_angle_gamma    90

_space_group_name_H-M_alt    "P 1"
_space_group_IT_number       1

loop_
  _space_group_symop_operation_xyz
  'x, y, z'

loop_
  _atom_site_type_symbol
  _atom_site_label
  _atom_site_symmetry_multiplicity
  _atom_site_fract_x
  _atom_site_fract_y
  _atom_site_fract_z
  _atom_site_occupancy
  Mg  Mg1       1.0  0.00000  0.00000  0.89189  1.0000
  Ni  Ni1       1.0  0.00000  0.25000  0.96396  1.0000
  Ni  Ni2       1.0  0.25000  0.00000  0.96396  1.0000
  Ni  Ni3       1.0  0.25000  0.25000  0.89189  1.0000
  Mg  Mg2       1.0  0.00000  0.00000  0.03604  1.0000
  Ni  Ni4       1.0  0.00000  0.25000  0.10811  1.0000
  Ni  Ni5       1.0  0.25000  0.00000  0.10811  1.0000
  Ni  Ni6       1.0  0.25000  0.25000  0.03604  1.0000
  Mg  Mg3       1.0  0.00000  0.50000  0.89189  1.0000
  Ni  Ni7       1.0  0.00000  0.75000  0.96396  1.0000
  Ni  Ni8       1.0  0.25000  0.50000  0.96396  1.0000
  Ni  Ni9       1.0  0.25000  0.75000  0.89189  1.0000
  Mg  Mg4       1.0  0.00000  0.50000  0.03604  1.0000
  Ni  Ni10      1.0  0.00000  0.75000  0.10811  1.0000
  Ni  Ni11      1.0  0.25000  0.50000  0.10811  1.0000
  Ni  Ni12      1.0  0.25000  0.75000  0.03604  1.0000
  Mg  Mg5       1.0  0.50000  0.00000  0.89189  1.0000
  Ni  Ni13      1.0  0.50000  0.25000  0.96396  1.0000
  Ni  Ni14      1.0  0.75000  0.00000  0.96396  1.0000
  Ni  Ni15      1.0  0.75000  0.25000  0.89189  1.0000
  Mg  Mg6       1.0  0.50000  0.00000  0.03604  1.0000
  Ni  Ni16      1.0  0.50000  0.25000  0.10811  1.0000
  Ni  Ni17      1.0  0.75000  0.00000  0.10811  1.0000
  Ni  Ni18      1.0  0.75000  0.25000  0.03604  1.0000
  Mg  Mg7       1.0  0.50000  0.50000  0.89189  1.0000
  Ni  Ni19      1.0  0.50000  0.75000  0.96396  1.0000
  Ni  Ni20      1.0  0.75000  0.50000  0.96396  1.0000
  Ni  Ni21      1.0  0.75000  0.75000  0.89189  1.0000
  Mg  Mg8       1.0  0.50000  0.50000  0.03604  1.0000
  Ni  Ni22      1.0  0.50000  0.75000  0.10811  1.0000
  Ni  Ni23      1.0  0.75000  0.50000  0.10811  1.0000
  Ni  Ni24      1.0  0.75000  0.75000  0.03604  1.0000
  C   C1        1.0  0.25000  0.00000  0.18257  1.0000
  O   O1        1.0  0.25000  0.00000  0.22763  1.0000
