# generated using pymatgen
data_V8Ni16Sn8CO
_symmetry_space_group_name_H-M   P1
_cell_length_a   6.08368000
_cell_length_b   8.60362000
_cell_length_c   26.45270000
_cell_angle_alpha   90.00000000
_cell_angle_beta   90.00000000
_cell_angle_gamma   90.00000000
_symmetry_Int_Tables_number   1
_chemical_formula_structural   V8Ni16Sn8CO
_chemical_formula_sum   'V8 Ni16 Sn8 C1 O1'
_cell_volume   1384.57851839
_cell_formula_units_Z   1
loop_
 _symmetry_equiv_pos_site_id
 _symmetry_equiv_pos_as_xyz
  1  'x, y, z'
loop_
 _atom_site_type_symbol
 _atom_site_label
 _atom_site_symmetry_multiplicity
 _atom_site_fract_x
 _atom_site_fract_y
 _atom_site_fract_z
 _atom_site_occupancy
  V  V0  1  0.00000000  0.00000000  0.87803000  1.0
  V  V1  1  0.00000000  0.50000000  0.87803000  1.0
  V  V2  1  0.00004000  0.50038000  0.04218000  1.0
  V  V3  1  0.00007000  0.99968000  0.04212000  1.0
  V  V4  1  0.50000000  0.25000000  0.95934000  1.0
  V  V5  1  0.50000000  0.75000000  0.95934000  1.0
  V  V6  1  0.50006000  0.24994000  0.11569000  1.0
  V  V7  1  0.50008000  0.75001000  0.11594000  1.0
  Ni  Ni8  1  0.21892000  0.74994000  0.04862000  1.0
  Ni  Ni9  1  0.23362000  0.24998000  0.04521000  1.0
  Ni  Ni10  1  0.25000000  0.00000000  0.95934000  1.0
  Ni  Ni11  1  0.25000000  0.25000000  0.87803000  1.0
  Ni  Ni12  1  0.25000000  0.50000000  0.95934000  1.0
  Ni  Ni13  1  0.25000000  0.75000000  0.87803000  1.0
  Ni  Ni14  1  0.26772000  0.00023000  0.11652000  1.0
  Ni  Ni15  1  0.26808000  0.49972000  0.11664000  1.0
  Ni  Ni16  1  0.73191000  0.49972000  0.11667000  1.0
  Ni  Ni17  1  0.73247000  0.00025000  0.11650000  1.0
  Ni  Ni18  1  0.75000000  0.00000000  0.95934000  1.0
  Ni  Ni19  1  0.75000000  0.25000000  0.87803000  1.0
  Ni  Ni20  1  0.75000000  0.50000000  0.95934000  1.0
  Ni  Ni21  1  0.75000000  0.75000000  0.87803000  1.0
  Ni  Ni22  1  0.76656000  0.24993000  0.04523000  1.0
  Ni  Ni23  1  0.78120000  0.74996000  0.04860000  1.0
  Sn  Sn24  1  0.00000000  0.25000000  0.95934000  1.0
  Sn  Sn25  1  0.00000000  0.75000000  0.95934000  1.0
  Sn  Sn26  1  0.00004000  0.74990000  0.13898000  1.0
  Sn  Sn27  1  0.00008000  0.25007000  0.13495000  1.0
  Sn  Sn28  1  0.50000000  0.00000000  0.87803000  1.0
  Sn  Sn29  1  0.50000000  0.50000000  0.87803000  1.0
  Sn  Sn30  1  0.50003000  0.99645000  0.03704000  1.0
  Sn  Sn31  1  0.50008000  0.50343000  0.03709000  1.0
  C  C32  1  0.99800000  0.24967000  0.28136000  1.0
  O  O33  1  0.00016000  0.24991000  0.32429000  1.0
