# generated using pymatgen
data_Mn16Au16C
_symmetry_space_group_name_H-M   'P 1'
_cell_length_a   6.71308000
_cell_length_b   9.12264000
_cell_length_c   26.84200000
_cell_angle_alpha   90.00000000
_cell_angle_beta   90.00000000
_cell_angle_gamma   90.00000000
_symmetry_Int_Tables_number   1
_chemical_formula_structural   Mn16Au16C
_chemical_formula_sum   'Mn16 Au16 C1'
_cell_volume   1643.83124763
_cell_formula_units_Z   1
loop_
 _symmetry_equiv_pos_site_id
 _symmetry_equiv_pos_as_xyz
  1  'x, y, z'
loop_
 _atom_site_type_symbol
 _atom_site_label
 _atom_site_symmetry_multiplicity
 _atom_site_fract_x
 _atom_site_fract_y
 _atom_site_fract_z
 _atom_site_occupancy
  Mn  Mn0  1  0.25000000  0.25000000  0.12745000  1.0
  Mn  Mn1  1  0.25000000  0.50000000  0.04248000  1.0
  Mn  Mn2  1  0.25000000  0.25000000  0.95752000  1.0
  Mn  Mn3  1  0.25000000  0.00000000  0.87255000  1.0
  Mn  Mn4  1  0.75000000  0.25000000  0.12745000  1.0
  Mn  Mn5  1  0.75000000  0.50000000  0.04248000  1.0
  Mn  Mn6  1  0.75000000  0.25000000  0.95752000  1.0
  Mn  Mn7  1  0.75000000  0.00000000  0.87255000  1.0
  Mn  Mn8  1  0.25000000  0.75000000  0.12745000  1.0
  Mn  Mn9  1  0.25000000  0.00000000  0.04248000  1.0
  Mn  Mn10  1  0.25000000  0.75000000  0.95752000  1.0
  Mn  Mn11  1  0.25000000  0.50000000  0.87255000  1.0
  Mn  Mn12  1  0.75000000  0.75000000  0.12745000  1.0
  Mn  Mn13  1  0.75000000  0.00000000  0.04248000  1.0
  Mn  Mn14  1  0.75000000  0.75000000  0.95752000  1.0
  Mn  Mn15  1  0.75000000  0.50000000  0.87255000  1.0
  Au  Au16  1  0.00000000  0.00000000  0.12745000  1.0
  Au  Au17  1  0.00000000  0.25000000  0.04248000  1.0
  Au  Au18  1  0.00000000  0.00000000  0.95752000  1.0
  Au  Au19  1  0.00000000  0.25000000  0.87255000  1.0
  Au  Au20  1  0.50000000  0.00000000  0.12745000  1.0
  Au  Au21  1  0.50000000  0.25000000  0.04248000  1.0
  Au  Au22  1  0.50000000  0.00000000  0.95752000  1.0
  Au  Au23  1  0.50000000  0.25000000  0.87255000  1.0
  Au  Au24  1  0.00000000  0.50000000  0.12745000  1.0
  Au  Au25  1  0.00000000  0.75000000  0.04248000  1.0
  Au  Au26  1  0.00000000  0.50000000  0.95752000  1.0
  Au  Au27  1  0.00000000  0.75000000  0.87255000  1.0
  Au  Au28  1  0.50000000  0.50000000  0.12745000  1.0
  Au  Au29  1  0.50000000  0.75000000  0.04248000  1.0
  Au  Au30  1  0.50000000  0.50000000  0.95752000  1.0
  Au  Au31  1  0.50000000  0.75000000  0.87255000  1.0
  C  C32  1  0.00000000  0.00000000  0.84275000  1.0
