# generated using pymatgen
data_Li8Hf8Ge8Pd8C
_symmetry_space_group_name_H-M   P1
_cell_length_a   6.42607000
_cell_length_b   9.08784000
_cell_length_c   26.81590000
_cell_angle_alpha   90.00000000
_cell_angle_beta   90.00000000
_cell_angle_gamma   90.00000000
_symmetry_Int_Tables_number   1
_chemical_formula_structural   Li8Hf8Ge8Pd8C
_chemical_formula_sum   'Li8 Hf8 Ge8 Pd8 C1'
_cell_volume   1566.02431813
_cell_formula_units_Z   1
loop_
 _symmetry_equiv_pos_site_id
 _symmetry_equiv_pos_as_xyz
  1  'x, y, z'
loop_
 _atom_site_type_symbol
 _atom_site_label
 _atom_site_symmetry_multiplicity
 _atom_site_fract_x
 _atom_site_fract_y
 _atom_site_fract_z
 _atom_site_occupancy
  Li  Li0  1  0.20977000  0.51122000  0.15145000  1.0
  Li  Li1  1  0.23609000  0.00153000  0.15303000  1.0
  Li  Li2  1  0.25000000  0.00000000  0.95764000  1.0
  Li  Li3  1  0.25000000  0.50000000  0.95764000  1.0
  Li  Li4  1  0.74721000  0.74433000  0.03785000  1.0
  Li  Li5  1  0.75000000  0.25000000  0.87291000  1.0
  Li  Li6  1  0.75000000  0.75000000  0.87291000  1.0
  Li  Li7  1  0.75354000  0.25004000  0.04189000  1.0
  Hf  Hf8  1  0.25000000  0.25000000  0.87291000  1.0
  Hf  Hf9  1  0.25000000  0.75000000  0.87291000  1.0
  Hf  Hf10  1  0.25918000  0.22388000  0.06754000  1.0
  Hf  Hf11  1  0.26787000  0.74185000  0.05605000  1.0
  Hf  Hf12  1  0.66105000  0.51704000  0.11345000  1.0
  Hf  Hf13  1  0.70819000  0.01537000  0.12089000  1.0
  Hf  Hf14  1  0.75000000  0.00000000  0.95764000  1.0
  Hf  Hf15  1  0.75000000  0.50000000  0.95764000  1.0
  Ge  Ge16  1  0.00000000  0.00000000  0.87291000  1.0
  Ge  Ge17  1  0.00000000  0.50000000  0.87291000  1.0
  Ge  Ge18  1  0.00237000  0.98037000  0.03894000  1.0
  Ge  Ge19  1  0.02116000  0.48973000  0.05078000  1.0
  Ge  Ge20  1  0.48175000  0.76440000  0.14615000  1.0
  Ge  Ge21  1  0.50000000  0.25000000  0.95764000  1.0
  Ge  Ge22  1  0.50000000  0.75000000  0.95764000  1.0
  Ge  Ge23  1  0.50386000  0.26230000  0.15248000  1.0
  Pd  Pd24  1  0.00000000  0.25000000  0.95764000  1.0
  Pd  Pd25  1  0.00000000  0.75000000  0.95764000  1.0
  Pd  Pd26  1  0.45414000  0.48307000  0.03138000  1.0
  Pd  Pd27  1  0.49101000  0.99091000  0.03555000  1.0
  Pd  Pd28  1  0.50000000  0.00000000  0.87291000  1.0
  Pd  Pd29  1  0.50000000  0.50000000  0.87291000  1.0
  Pd  Pd30  1  0.91171000  0.30224000  0.13104000  1.0
  Pd  Pd31  1  0.92849000  0.74360000  0.12154000  1.0
  C  C32  1  0.01348000  0.09303000  0.10338000  1.0
