# generated using pymatgen
data_Zn8Ni16Ge8CO
_symmetry_space_group_name_H-M   'P 1'
_cell_length_a   5.89777000
_cell_length_b   8.34071000
_cell_length_c   26.25550000
_cell_angle_alpha   90.00000000
_cell_angle_beta   90.00000000
_cell_angle_gamma   90.00000000
_symmetry_Int_Tables_number   1
_chemical_formula_structural   Zn8Ni16Ge8CO
_chemical_formula_sum   'Zn8 Ni16 Ge8 C1 O1'
_cell_volume   1291.54977068
_cell_formula_units_Z   1
loop_
 _symmetry_equiv_pos_site_id
 _symmetry_equiv_pos_as_xyz
  1  'x, y, z'
loop_
 _atom_site_type_symbol
 _atom_site_label
 _atom_site_symmetry_multiplicity
 _atom_site_fract_x
 _atom_site_fract_y
 _atom_site_fract_z
 _atom_site_occupancy
  Zn  Zn0  1  0.00000000  0.00000000  0.88087000  1.0
  Zn  Zn1  1  0.50000000  0.25000000  0.96029000  1.0
  Zn  Zn2  1  0.50000000  0.75000000  0.96029000  1.0
  Zn  Zn3  1  0.00000000  0.50000000  0.88087000  1.0
  Zn  Zn4  1  0.99814000  0.49998000  0.03600000  1.0
  Zn  Zn5  1  0.50166000  0.74236000  0.12282000  1.0
  Zn  Zn6  1  0.50171000  0.25762000  0.12284000  1.0
  Zn  Zn7  1  0.01217000  0.99994000  0.03827000  1.0
  Ni  Ni8  1  0.25000000  0.00000000  0.96029000  1.0
  Ni  Ni9  1  0.75000000  0.50000000  0.96029000  1.0
  Ni  Ni10  1  0.75000000  0.00000000  0.96029000  1.0
  Ni  Ni11  1  0.25000000  0.50000000  0.96029000  1.0
  Ni  Ni12  1  0.75000000  0.75000000  0.88087000  1.0
  Ni  Ni13  1  0.25000000  0.25000000  0.88087000  1.0
  Ni  Ni14  1  0.25000000  0.75000000  0.88087000  1.0
  Ni  Ni15  1  0.75000000  0.25000000  0.88087000  1.0
  Ni  Ni16  1  0.23425000  0.49994000  0.11213000  1.0
  Ni  Ni17  1  0.76200000  0.00002000  0.10976000  1.0
  Ni  Ni18  1  0.75682000  0.50000000  0.11173000  1.0
  Ni  Ni19  1  0.24684000  0.00002000  0.12361000  1.0
  Ni  Ni20  1  0.74722000  0.24700000  0.03755000  1.0
  Ni  Ni21  1  0.25087000  0.75124000  0.04105000  1.0
  Ni  Ni22  1  0.25091000  0.24860000  0.04109000  1.0
  Ni  Ni23  1  0.74716000  0.75318000  0.03753000  1.0
  Ge  Ge24  1  0.00000000  0.75000000  0.96029000  1.0
  Ge  Ge25  1  0.50000000  0.00000000  0.88087000  1.0
  Ge  Ge26  1  0.00000000  0.25000000  0.96029000  1.0
  Ge  Ge27  1  0.50000000  0.50000000  0.88087000  1.0
  Ge  Ge28  1  0.98695000  0.25424000  0.11988000  1.0
  Ge  Ge29  1  0.49789000  0.50004000  0.03917000  1.0
  Ge  Ge30  1  0.98699000  0.74575000  0.11989000  1.0
  Ge  Ge31  1  0.49485000  0.99986000  0.03987000  1.0
  C  C32  1  0.29926000  0.00002000  0.19035000  1.0
  O  O33  1  0.32166000  0.00000000  0.23404000  1.0
