data_image0
_chemical_formula_structural       Zr12In4CO
_chemical_formula_sum              "Zr12 In4 C1 O1"
_cell_length_a       8.97917
_cell_length_b       6.34923
_cell_length_c       24.7619
_cell_angle_alpha    90
_cell_angle_beta     90
_cell_angle_gamma    90

_space_group_name_H-M_alt    "P 1"
_space_group_IT_number       1

loop_
  _space_group_symop_operation_xyz
  'x, y, z'

loop_
  _atom_site_type_symbol
  _atom_site_label
  _atom_site_symmetry_multiplicity
  _atom_site_fract_x
  _atom_site_fract_y
  _atom_site_fract_z
  _atom_site_occupancy
  Zr  Zr1       1.0  1.00000  0.50000  0.08988  1.0000
  Zr  Zr2       1.0  0.25125  0.73909  0.02784  1.0000
  Zr  Zr3       1.0  0.25125  0.26091  0.02784  1.0000
  Zr  Zr4       1.0  0.00000  0.00000  0.96795  1.0000
  Zr  Zr5       1.0  0.25000  0.25000  0.90385  1.0000
  Zr  Zr6       1.0  0.25000  0.75000  0.90385  1.0000
  Zr  Zr7       1.0  0.50000  0.50000  0.09039  1.0000
  Zr  Zr8       1.0  0.74875  0.73910  0.02784  1.0000
  Zr  Zr9       1.0  0.74875  0.26090  0.02784  1.0000
  Zr  Zr10      1.0  0.50000  0.00000  0.96795  1.0000
  Zr  Zr11      1.0  0.75000  0.25000  0.90385  1.0000
  Zr  Zr12      1.0  0.75000  0.75000  0.90385  1.0000
  In  In1       1.0  1.00000  0.00000  0.09174  1.0000
  In  In2       1.0  0.00000  0.50000  0.96795  1.0000
  In  In3       1.0  0.50002  1.00000  0.09477  1.0000
  In  In4       1.0  0.50000  0.50000  0.96795  1.0000
  C   C1        1.0  0.00000  1.00000  0.18427  1.0000
  O   O1        1.0  0.00000  1.00000  0.23084  1.0000
