# generated using pymatgen
data_Zr16Cu16C
_symmetry_space_group_name_H-M   'P 1'
_cell_length_a   9.37081000
_cell_length_b   6.62616000
_cell_length_c   27.02810000
_cell_angle_alpha   90.00000000
_cell_angle_beta   90.00000000
_cell_angle_gamma   90.00000000
_symmetry_Int_Tables_number   1
_chemical_formula_structural   Zr16Cu16C
_chemical_formula_sum   'Zr16 Cu16 C1'
_cell_volume   1678.24193139
_cell_formula_units_Z   1
loop_
 _symmetry_equiv_pos_site_id
 _symmetry_equiv_pos_as_xyz
  1  'x, y, z'
loop_
 _atom_site_type_symbol
 _atom_site_label
 _atom_site_symmetry_multiplicity
 _atom_site_fract_x
 _atom_site_fract_y
 _atom_site_fract_z
 _atom_site_occupancy
  Zr  Zr0  1  0.25000000  0.75000000  0.13001000  1.0
  Zr  Zr1  1  0.00000000  0.75000000  0.04334000  1.0
  Zr  Zr2  1  0.25044000  0.75287000  0.95880000  1.0
  Zr  Zr3  1  0.00000000  0.74177000  0.87211000  1.0
  Zr  Zr4  1  0.75000000  0.75000000  0.13001000  1.0
  Zr  Zr5  1  0.50000000  0.75000000  0.04334000  1.0
  Zr  Zr6  1  0.74957000  0.75287000  0.95880000  1.0
  Zr  Zr7  1  0.50001000  0.76730000  0.87809000  1.0
  Zr  Zr8  1  0.25000000  0.25000000  0.13001000  1.0
  Zr  Zr9  1  0.00000000  0.25000000  0.04334000  1.0
  Zr  Zr10  1  0.25044000  0.24713000  0.95880000  1.0
  Zr  Zr11  1  0.00000000  0.25823000  0.87211000  1.0
  Zr  Zr12  1  0.75000000  0.25000000  0.13001000  1.0
  Zr  Zr13  1  0.50000000  0.25000000  0.04334000  1.0
  Zr  Zr14  1  0.74957000  0.24713000  0.95880000  1.0
  Zr  Zr15  1  0.50001000  0.23270000  0.87809000  1.0
  Cu  Cu16  1  0.00000000  0.00000000  0.13001000  1.0
  Cu  Cu17  1  0.25000000  0.00000000  0.04334000  1.0
  Cu  Cu18  1  0.00000000  0.00000000  0.95733000  1.0
  Cu  Cu19  1  0.23939000  0.00000000  0.87058000  1.0
  Cu  Cu20  1  0.50000000  0.00000000  0.13001000  1.0
  Cu  Cu21  1  0.75000000  0.00000000  0.04334000  1.0
  Cu  Cu22  1  0.50000000  0.00000000  0.96381000  1.0
  Cu  Cu23  1  0.76064000  0.00000000  0.87057000  1.0
  Cu  Cu24  1  0.00000000  0.50000000  0.13001000  1.0
  Cu  Cu25  1  0.25000000  0.50000000  0.04334000  1.0
  Cu  Cu26  1  0.99999000  0.50000000  0.96263000  1.0
  Cu  Cu27  1  0.25690000  0.50000000  0.87810000  1.0
  Cu  Cu28  1  0.50000000  0.50000000  0.13001000  1.0
  Cu  Cu29  1  0.75000000  0.50000000  0.04334000  1.0
  Cu  Cu30  1  0.50000000  0.50000000  0.95615000  1.0
  Cu  Cu31  1  0.74311000  0.50000000  0.87811000  1.0
  C  C32  1  0.99994000  0.00000000  0.83322000  1.0
