# generated using pymatgen
data_Li8Mg8In8Pb8C
_symmetry_space_group_name_H-M   'P 1'
_cell_length_a   7.11424000
_cell_length_b   10.06110000
_cell_length_c   27.54580000
_cell_angle_alpha   90.00000000
_cell_angle_beta   90.00000000
_cell_angle_gamma   90.00000000
_symmetry_Int_Tables_number   1
_chemical_formula_structural   Li8Mg8In8Pb8C
_chemical_formula_sum   'Li8 Mg8 In8 Pb8 C1'
_cell_volume   1971.64793203
_cell_formula_units_Z   1
loop_
 _symmetry_equiv_pos_site_id
 _symmetry_equiv_pos_as_xyz
  1  'x, y, z'
loop_
 _atom_site_type_symbol
 _atom_site_label
 _atom_site_symmetry_multiplicity
 _atom_site_fract_x
 _atom_site_fract_y
 _atom_site_fract_z
 _atom_site_occupancy
  Li  Li0  1  0.75000000  0.00000000  0.95434000  1.0
  Li  Li1  1  0.75000000  0.50000000  0.95434000  1.0
  Li  Li2  1  0.25000000  0.25000000  0.86303000  1.0
  Li  Li3  1  0.25000000  0.75000000  0.86303000  1.0
  Li  Li4  1  0.74226000  0.46684000  0.14488000  1.0
  Li  Li5  1  0.74144000  0.03505000  0.14512000  1.0
  Li  Li6  1  0.23551000  0.74996000  0.05203000  1.0
  Li  Li7  1  0.25688000  0.24928000  0.04439000  1.0
  Mg  Mg8  1  0.25000000  0.00000000  0.95434000  1.0
  Mg  Mg9  1  0.25000000  0.50000000  0.95434000  1.0
  Mg  Mg10  1  0.75000000  0.25000000  0.86303000  1.0
  Mg  Mg11  1  0.75000000  0.75000000  0.86303000  1.0
  Mg  Mg12  1  0.26259000  0.52185000  0.14885000  1.0
  Mg  Mg13  1  0.26311000  0.98075000  0.14829000  1.0
  Mg  Mg14  1  0.75892000  0.74869000  0.04979000  1.0
  Mg  Mg15  1  0.71190000  0.25067000  0.06787000  1.0
  In  In16  1  0.00000000  0.00000000  0.86303000  1.0
  In  In17  1  0.00000000  0.50000000  0.86303000  1.0
  In  In18  1  0.50000000  0.75000000  0.95434000  1.0
  In  In19  1  0.50000000  0.25000000  0.95434000  1.0
  In  In20  1  0.00423000  0.49296000  0.05181000  1.0
  In  In21  1  0.00290000  0.00611000  0.05184000  1.0
  In  In22  1  0.50029000  0.25158000  0.19875000  1.0
  In  In23  1  0.53341000  0.75096000  0.15198000  1.0
  Pb  Pb24  1  0.00000000  0.25000000  0.95434000  1.0
  Pb  Pb25  1  0.00000000  0.75000000  0.95434000  1.0
  Pb  Pb26  1  0.50000000  0.50000000  0.86303000  1.0
  Pb  Pb27  1  0.50000000  0.00000000  0.86303000  1.0
  Pb  Pb28  1  0.97675000  0.75137000  0.15023000  1.0
  Pb  Pb29  1  0.05724000  0.25093000  0.14897000  1.0
  Pb  Pb30  1  0.49134000  0.99260000  0.05036000  1.0
  Pb  Pb31  1  0.48914000  0.50700000  0.05053000  1.0
  C  C32  1  0.73752000  0.25099000  0.14717000  1.0
