# generated using pymatgen
data_Li16Sb8Au8C
_symmetry_space_group_name_H-M   Pm
_cell_length_a   6.66546000
_cell_length_b   9.42638000
_cell_length_c   27.06980000
_cell_angle_alpha   90.00000000
_cell_angle_beta   90.00000000
_cell_angle_gamma   90.00000000
_symmetry_Int_Tables_number   6
_chemical_formula_structural   Li16Sb8Au8C
_chemical_formula_sum   'Li16 Sb8 Au8 C1'
_cell_volume   1700.82690343
_cell_formula_units_Z   1
loop_
 _symmetry_equiv_pos_site_id
 _symmetry_equiv_pos_as_xyz
  1  'x, y, z'
  2  'x, -y, z'
loop_
 _atom_site_type_symbol
 _atom_site_label
 _atom_site_symmetry_multiplicity
 _atom_site_fract_x
 _atom_site_fract_y
 _atom_site_fract_z
 _atom_site_occupancy
  Li  Li0  2  -0.00000000  0.25000000  0.95647000  1.0
  Li  Li1  2  0.00625000  0.22514000  0.13322000  1.0
  Li  Li2  2  0.25000000  0.25000000  0.86942000  1.0
  Li  Li3  2  0.27056000  0.24589000  0.05020000  1.0
  Li  Li4  1  0.50000000  0.00000000  0.86942000  1.0
  Li  Li5  1  0.50000000  0.50000000  0.86942000  1.0
  Li  Li6  1  0.50745000  0.50000000  0.04043000  1.0
  Li  Li7  1  0.52909000  0.00000000  0.05006000  1.0
  Li  Li8  1  0.72428000  0.00000000  0.15851000  1.0
  Li  Li9  1  0.75000000  0.00000000  0.95647000  1.0
  Li  Li10  1  0.75000000  0.50000000  0.95647000  1.0
  Li  Li11  1  0.75840000  0.50000000  0.12954000  1.0
  Sb  Sb12  2  0.50000000  0.25000000  0.95647000  1.0
  Sb  Sb13  2  0.52804000  0.25862000  0.13753000  1.0
  Sb  Sb14  1  -0.00000000  0.50000000  0.86942000  1.0
  Sb  Sb15  1  0.00000000  0.00000000  0.86942000  1.0
  Sb  Sb16  1  0.00455000  0.50000000  0.04299000  1.0
  Sb  Sb17  1  0.97278000  0.00000000  0.04438000  1.0
  Au  Au18  2  0.73882000  0.26000000  0.04476000  1.0
  Au  Au19  2  0.75000000  0.25000000  0.86942000  1.0
  Au  Au20  1  0.25000000  0.00000000  0.95647000  1.0
  Au  Au21  1  0.25000000  0.50000000  0.95647000  1.0
  Au  Au22  1  0.27930000  0.50000000  0.12058000  1.0
  Au  Au23  1  0.30791000  0.00000000  0.13332000  1.0
  C  C24  1  0.99895000  0.00000000  0.12429000  1.0
