# generated using pymatgen
data_Li4Y4Ge4Pb4C
_symmetry_space_group_name_H-M   Pm
_cell_length_a   6.52719000
_cell_length_b   8.65500000
_cell_length_c   24.84630000
_cell_angle_alpha   90.00000000
_cell_angle_beta   90.00000000
_cell_angle_gamma   90.00000000
_symmetry_Int_Tables_number   6
_chemical_formula_structural   Li4Y4Ge4Pb4C
_chemical_formula_sum   'Li4 Y4 Ge4 Pb4 C1'
_cell_volume   1403.63778836
_cell_formula_units_Z   1
loop_
 _symmetry_equiv_pos_site_id
 _symmetry_equiv_pos_as_xyz
  1  'x, y, z'
  2  'x, -y, z'
loop_
 _atom_site_type_symbol
 _atom_site_label
 _atom_site_symmetry_multiplicity
 _atom_site_fract_x
 _atom_site_fract_y
 _atom_site_fract_z
 _atom_site_occupancy
  Li  Li0  2  0.49750000  0.23838000  0.10622000  1.0
  Li  Li1  2  0.92937000  0.24999000  0.96749000  1.0
  Y  Y2  1  0.19045000  0.50000000  0.04001000  1.0
  Y  Y3  1  0.23360000  0.00000000  0.02788000  1.0
  Y  Y4  1  0.64406000  0.00000000  0.90247000  1.0
  Y  Y5  1  0.64406000  0.50000000  0.90247000  1.0
  Ge  Ge6  2  0.04266000  0.21592000  0.11383000  1.0
  Ge  Ge7  2  0.42937000  0.24999000  0.96749000  1.0
  Pb  Pb8  1  0.14406000  0.00000000  0.90247000  1.0
  Pb  Pb9  1  0.14406000  0.50000000  0.90247000  1.0
  Pb  Pb10  1  0.68005000  0.50000000  0.03845000  1.0
  Pb  Pb11  1  0.73494000  0.00000000  0.04234000  1.0
  C  C12  1  0.09331000  0.00000000  0.11631000  1.0
