# generated using pymatgen
data_V8Fe16Sn8C
_symmetry_space_group_name_H-M   'P 1'
_cell_length_a   8.62534000
_cell_length_b   6.09904000
_cell_length_c   26.46900000
_cell_angle_alpha   90.00000000
_cell_angle_beta   90.00000000
_cell_angle_gamma   90.00000000
_symmetry_Int_Tables_number   1
_chemical_formula_structural   V8Fe16Sn8C
_chemical_formula_sum   'V8 Fe16 Sn8 C1'
_cell_volume   1392.43598725
_cell_formula_units_Z   1
loop_
 _symmetry_equiv_pos_site_id
 _symmetry_equiv_pos_as_xyz
  1  'x, y, z'
loop_
 _atom_site_type_symbol
 _atom_site_label
 _atom_site_symmetry_multiplicity
 _atom_site_fract_x
 _atom_site_fract_y
 _atom_site_fract_z
 _atom_site_occupancy
  V  V0  1  0.75000000  0.00000000  0.12220000  1.0
  V  V1  1  0.00000000  0.50000000  0.04073000  1.0
  V  V2  1  0.50000000  0.50000000  0.04073000  1.0
  V  V3  1  0.25000000  0.00000000  0.12220000  1.0
  V  V4  1  0.25654000  0.99937000  0.96068000  1.0
  V  V5  1  0.50000000  0.50194000  0.88107000  1.0
  V  V6  1  0.00000000  0.55389000  0.88413000  1.0
  V  V7  1  0.74346000  0.99937000  0.96068000  1.0
  Fe  Fe8  1  0.75000000  0.25000000  0.04073000  1.0
  Fe  Fe9  1  0.25000000  0.75000000  0.04073000  1.0
  Fe  Fe10  1  0.75000000  0.75000000  0.04073000  1.0
  Fe  Fe11  1  0.25000000  0.25000000  0.04073000  1.0
  Fe  Fe12  1  0.50000000  0.75000000  0.12220000  1.0
  Fe  Fe13  1  0.00000000  0.25000000  0.12220000  1.0
  Fe  Fe14  1  0.50000000  0.25000000  0.12220000  1.0
  Fe  Fe15  1  0.00000000  0.75000000  0.12220000  1.0
  Fe  Fe16  1  0.22438000  0.21722000  0.87910000  1.0
  Fe  Fe17  1  0.75077000  0.77295000  0.88125000  1.0
  Fe  Fe18  1  0.24923000  0.77295000  0.88125000  1.0
  Fe  Fe19  1  0.77562000  0.21722000  0.87910000  1.0
  Fe  Fe20  1  0.00000000  0.78918000  0.95137000  1.0
  Fe  Fe21  1  0.50000000  0.24087000  0.95055000  1.0
  Fe  Fe22  1  0.00000000  0.17563000  0.93794000  1.0
  Fe  Fe23  1  0.50000000  0.75995000  0.95100000  1.0
  Sn  Sn24  1  0.50000000  0.00000000  0.04073000  1.0
  Sn  Sn25  1  0.75000000  0.50000000  0.12220000  1.0
  Sn  Sn26  1  0.00000000  1.00000000  0.04073000  1.0
  Sn  Sn27  1  0.25000000  0.50000000  0.12220000  1.0
  Sn  Sn28  1  0.00000000  0.93061000  0.82507000  1.0
  Sn  Sn29  1  0.24088000  0.49551000  0.95951000  1.0
  Sn  Sn30  1  0.50000000  0.01998000  0.85547000  1.0
  Sn  Sn31  1  0.75912000  0.49551000  0.95951000  1.0
  C  C32  1  0.00000000  0.24469000  0.86470000  1.0
