# generated using pymatgen
data_V8Fe16Sn8C
_symmetry_space_group_name_H-M   Pm
_cell_length_a   6.09904000
_cell_length_b   8.62534000
_cell_length_c   26.46900000
_cell_angle_alpha   90.00000000
_cell_angle_beta   90.00000000
_cell_angle_gamma   90.00000000
_symmetry_Int_Tables_number   6
_chemical_formula_structural   V8Fe16Sn8C
_chemical_formula_sum   'V8 Fe16 Sn8 C1'
_cell_volume   1392.43598725
_cell_formula_units_Z   1
loop_
 _symmetry_equiv_pos_site_id
 _symmetry_equiv_pos_as_xyz
  1  'x, y, z'
  2  'x, -y, z'
loop_
 _atom_site_type_symbol
 _atom_site_label
 _atom_site_symmetry_multiplicity
 _atom_site_fract_x
 _atom_site_fract_y
 _atom_site_fract_z
 _atom_site_occupancy
  V  V0  2  0.00000000  0.25000000  0.87780000  1.0
  V  V1  2  0.99937000  0.25654000  0.03932000  1.0
  V  V2  1  0.50000000  0.00000000  0.95927000  1.0
  V  V3  1  0.50000000  0.50000000  0.95927000  1.0
  V  V4  1  0.50194000  0.50000000  0.11893000  1.0
  V  V5  1  0.55389000  0.00000000  0.11587000  1.0
  Fe  Fe6  2  0.21722000  0.22438000  0.12090000  1.0
  Fe  Fe7  2  0.25000000  0.25000000  0.95927000  1.0
  Fe  Fe8  2  0.75000000  0.25000000  0.95927000  1.0
  Fe  Fe9  2  0.77295000  0.24923000  0.11875000  1.0
  Fe  Fe10  1  0.17563000  0.00000000  0.06206000  1.0
  Fe  Fe11  1  0.24087000  0.50000000  0.04945000  1.0
  Fe  Fe12  1  0.25000000  0.00000000  0.87780000  1.0
  Fe  Fe13  1  0.25000000  0.50000000  0.87780000  1.0
  Fe  Fe14  1  0.75000000  0.00000000  0.87780000  1.0
  Fe  Fe15  1  0.75000000  0.50000000  0.87780000  1.0
  Fe  Fe16  1  0.75995000  0.50000000  0.04900000  1.0
  Fe  Fe17  1  0.78918000  0.00000000  0.04863000  1.0
  Sn  Sn18  2  0.49551000  0.24088000  0.04049000  1.0
  Sn  Sn19  2  0.50000000  0.25000000  0.87780000  1.0
  Sn  Sn20  1  -0.00000000  0.00000000  0.95927000  1.0
  Sn  Sn21  1  0.00000000  0.50000000  0.95927000  1.0
  Sn  Sn22  1  0.01998000  0.50000000  0.14453000  1.0
  Sn  Sn23  1  0.93061000  0.00000000  0.17493000  1.0
  C  C24  1  0.24469000  0.00000000  0.13530000  1.0
