# generated using pymatgen
data_Li4Y4Sn4Pb4CO
_symmetry_space_group_name_H-M   Pm
_cell_length_a   6.45119000
_cell_length_b   9.64462000
_cell_length_c   24.83120000
_cell_angle_alpha   90.00000000
_cell_angle_beta   90.00000000
_cell_angle_gamma   90.00000000
_symmetry_Int_Tables_number   6
_chemical_formula_structural   Li4Y4Sn4Pb4CO
_chemical_formula_sum   'Li4 Y4 Sn4 Pb4 C1 O1'
_cell_volume   1544.97928864
_cell_formula_units_Z   1
loop_
 _symmetry_equiv_pos_site_id
 _symmetry_equiv_pos_as_xyz
  1  'x, y, z'
  2  'x, -y, z'
loop_
 _atom_site_type_symbol
 _atom_site_label
 _atom_site_symmetry_multiplicity
 _atom_site_fract_x
 _atom_site_fract_y
 _atom_site_fract_z
 _atom_site_occupancy
  Li  Li0  1  0.02382000  0.00000000  0.09724000  1.0
  Li  Li1  1  0.02449000  0.50000000  0.09546000  1.0
  Li  Li2  1  0.47279000  0.00000000  0.96757000  1.0
  Li  Li3  1  0.47279000  0.50000000  0.96757000  1.0
  Y  Y4  2  0.20919000  0.24999000  0.90272000  1.0
  Y  Y5  2  0.74031000  0.24949000  0.03110000  1.0
  Sn  Sn6  2  0.23997000  0.24960000  0.04389000  1.0
  Sn  Sn7  2  0.70919000  0.24999000  0.90272000  1.0
  Pb  Pb8  1  0.48948000  0.00000000  0.09983000  1.0
  Pb  Pb9  1  0.49003000  0.50000000  0.09917000  1.0
  Pb  Pb10  1  0.97279000  0.00000000  0.96757000  1.0
  Pb  Pb11  1  0.97279000  0.50000000  0.96757000  1.0
  C  C12  1  0.58590000  0.50000000  0.24877000  1.0
  O  O13  1  0.45813000  0.50000000  0.28031000  1.0
