# generated using pymatgen
data_LiAlCuGe
_symmetry_space_group_name_H-M   'P 1'
_cell_length_a   3.80816000
_cell_length_b   3.88706000
_cell_length_c   25.83930000
_cell_angle_alpha   90.00000000
_cell_angle_beta   90.00000000
_cell_angle_gamma   90.00000000
_symmetry_Int_Tables_number   1
_chemical_formula_structural   LiAlCuGe
_chemical_formula_sum   'Li2 Al2 Cu2 Ge2'
_cell_volume   382.48743744
_cell_formula_units_Z   2
loop_
 _symmetry_equiv_pos_site_id
 _symmetry_equiv_pos_as_xyz
  1  'x, y, z'
loop_
 _atom_site_type_symbol
 _atom_site_label
 _atom_site_symmetry_multiplicity
 _atom_site_fract_x
 _atom_site_fract_y
 _atom_site_fract_z
 _atom_site_occupancy
  Li  Li0  1  0.00000000  0.50000000  0.96234000  1.0
  Li  Li1  1  0.00000000  0.50000000  0.11299000  1.0
  Al  Al2  1  0.00000000  0.00000000  0.88701000  1.0
  Al  Al3  1  0.00000000  0.00000000  0.03766000  1.0
  Cu  Cu4  1  0.50000000  0.00000000  0.96234000  1.0
  Cu  Cu5  1  0.50000000  0.00000000  0.11299000  1.0
  Ge  Ge6  1  0.50000000  0.50000000  0.88701000  1.0
  Ge  Ge7  1  0.50000000  0.50000000  0.03766000  1.0
