data_image0
_chemical_formula_structural       Mn8Ni16Ge8C
_chemical_formula_sum              "Mn8 Ni16 Ge8 C1"
_cell_length_a       5.84248
_cell_length_b       8.26252
_cell_length_c       26.1969
_cell_angle_alpha    90
_cell_angle_beta     90
_cell_angle_gamma    90

_space_group_name_H-M_alt    "P 1"
_space_group_IT_number       1

loop_
  _space_group_symop_operation_xyz
  'x, y, z'

loop_
  _atom_site_type_symbol
  _atom_site_label
  _atom_site_symmetry_multiplicity
  _atom_site_fract_x
  _atom_site_fract_y
  _atom_site_fract_z
  _atom_site_occupancy
  Mn  Mn1       1.0  0.00000  0.00000  0.88172  1.0000
  Mn  Mn2       1.0  0.50000  0.25000  0.96057  1.0000
  Mn  Mn3       1.0  0.50000  0.75000  0.96057  1.0000
  Mn  Mn4       1.0  0.00000  0.50000  0.88172  1.0000
  Mn  Mn5       1.0  0.00000  0.50000  0.03801  1.0000
  Mn  Mn6       1.0  0.50000  0.76649  0.12758  1.0000
  Mn  Mn7       1.0  0.50000  0.23350  0.12758  1.0000
  Mn  Mn8       1.0  1.00000  0.00000  0.03754  1.0000
  Ni  Ni1       1.0  0.25000  0.00000  0.96057  1.0000
  Ni  Ni2       1.0  0.75000  0.50000  0.96057  1.0000
  Ni  Ni3       1.0  0.75000  0.00000  0.96057  1.0000
  Ni  Ni4       1.0  0.25000  0.50000  0.96057  1.0000
  Ni  Ni5       1.0  0.75000  0.75000  0.88172  1.0000
  Ni  Ni6       1.0  0.25000  0.25000  0.88172  1.0000
  Ni  Ni7       1.0  0.25000  0.75000  0.88172  1.0000
  Ni  Ni8       1.0  0.75000  0.25000  0.88172  1.0000
  Ni  Ni9       1.0  0.24937  0.49998  0.11378  1.0000
  Ni  Ni10      1.0  0.78947  0.00000  0.11780  1.0000
  Ni  Ni11      1.0  0.75063  0.49998  0.11378  1.0000
  Ni  Ni12      1.0  0.21053  0.00000  0.11780  1.0000
  Ni  Ni13      1.0  0.73898  0.24850  0.04149  1.0000
  Ni  Ni14      1.0  0.26096  0.75150  0.04148  1.0000
  Ni  Ni15      1.0  0.26102  0.24850  0.04149  1.0000
  Ni  Ni16      1.0  0.73904  0.75150  0.04148  1.0000
  Ge  Ge1       1.0  0.00000  0.75000  0.96057  1.0000
  Ge  Ge2       1.0  0.50000  0.00000  0.88172  1.0000
  Ge  Ge3       1.0  0.00000  0.25000  0.96057  1.0000
  Ge  Ge4       1.0  0.50000  0.50000  0.88172  1.0000
  Ge  Ge5       1.0  0.00000  0.25860  0.11920  1.0000
  Ge  Ge6       1.0  0.50000  0.50002  0.03972  1.0000
  Ge  Ge7       1.0  1.00000  0.74140  0.11919  1.0000
  Ge  Ge8       1.0  0.50000  0.00003  0.03840  1.0000
  C   C1        1.0  0.50000  1.00000  0.14517  1.0000
