# generated using pymatgen
data_Mn8Ni16Ge8C
_symmetry_space_group_name_H-M   'P 1'
_cell_length_a   5.84248000
_cell_length_b   8.26252000
_cell_length_c   26.19690000
_cell_angle_alpha   90.00000000
_cell_angle_beta   90.00000000
_cell_angle_gamma   90.00000000
_symmetry_Int_Tables_number   1
_chemical_formula_structural   Mn8Ni16Ge8C
_chemical_formula_sum   'Mn8 Ni16 Ge8 C1'
_cell_volume   1264.61887748
_cell_formula_units_Z   1
loop_
 _symmetry_equiv_pos_site_id
 _symmetry_equiv_pos_as_xyz
  1  'x, y, z'
loop_
 _atom_site_type_symbol
 _atom_site_label
 _atom_site_symmetry_multiplicity
 _atom_site_fract_x
 _atom_site_fract_y
 _atom_site_fract_z
 _atom_site_occupancy
  Mn  Mn0  1  0.00000000  0.00000000  0.88172000  1.0
  Mn  Mn1  1  0.50000000  0.25000000  0.96057000  1.0
  Mn  Mn2  1  0.50000000  0.75000000  0.96057000  1.0
  Mn  Mn3  1  0.00000000  0.50000000  0.88172000  1.0
  Mn  Mn4  1  0.00000000  0.50000000  0.03801000  1.0
  Mn  Mn5  1  0.50000000  0.76649000  0.12758000  1.0
  Mn  Mn6  1  0.50000000  0.23351000  0.12758000  1.0
  Mn  Mn7  1  0.00000000  0.00000000  0.03754000  1.0
  Ni  Ni8  1  0.25000000  0.00000000  0.96057000  1.0
  Ni  Ni9  1  0.75000000  0.50000000  0.96057000  1.0
  Ni  Ni10  1  0.75000000  0.00000000  0.96057000  1.0
  Ni  Ni11  1  0.25000000  0.50000000  0.96057000  1.0
  Ni  Ni12  1  0.75000000  0.75000000  0.88172000  1.0
  Ni  Ni13  1  0.25000000  0.25000000  0.88172000  1.0
  Ni  Ni14  1  0.25000000  0.75000000  0.88172000  1.0
  Ni  Ni15  1  0.75000000  0.25000000  0.88172000  1.0
  Ni  Ni16  1  0.24937000  0.50000000  0.11378000  1.0
  Ni  Ni17  1  0.78947000  0.00000000  0.11780000  1.0
  Ni  Ni18  1  0.75063000  0.50000000  0.11378000  1.0
  Ni  Ni19  1  0.21053000  0.00000000  0.11780000  1.0
  Ni  Ni20  1  0.73898000  0.24850000  0.04149000  1.0
  Ni  Ni21  1  0.26102000  0.75150000  0.04149000  1.0
  Ni  Ni22  1  0.26102000  0.24850000  0.04149000  1.0
  Ni  Ni23  1  0.73898000  0.75150000  0.04149000  1.0
  Ge  Ge24  1  0.00000000  0.75000000  0.96057000  1.0
  Ge  Ge25  1  0.50000000  0.00000000  0.88172000  1.0
  Ge  Ge26  1  0.00000000  0.25000000  0.96057000  1.0
  Ge  Ge27  1  0.50000000  0.50000000  0.88172000  1.0
  Ge  Ge28  1  0.00000000  0.25860000  0.11920000  1.0
  Ge  Ge29  1  0.50000000  0.50000000  0.03972000  1.0
  Ge  Ge30  1  0.00000000  0.74140000  0.11920000  1.0
  Ge  Ge31  1  0.50000000  0.00000000  0.03840000  1.0
  C  C32  1  0.50000000  0.00000000  0.14517000  1.0
