# generated using pymatgen
data_Li16Sn8Ge8C
_symmetry_space_group_name_H-M   'P 1'
_cell_length_a   6.92564000
_cell_length_b   9.79433000
_cell_length_c   27.34580000
_cell_angle_alpha   90.00000000
_cell_angle_beta   90.00000000
_cell_angle_gamma   90.00000000
_symmetry_Int_Tables_number   1
_chemical_formula_structural   Li16Sn8Ge8C
_chemical_formula_sum   'Li16 Sn8 Ge8 C1'
_cell_volume   1854.92040462
_cell_formula_units_Z   1
loop_
 _symmetry_equiv_pos_site_id
 _symmetry_equiv_pos_as_xyz
  1  'x, y, z'
loop_
 _atom_site_type_symbol
 _atom_site_label
 _atom_site_symmetry_multiplicity
 _atom_site_fract_x
 _atom_site_fract_y
 _atom_site_fract_z
 _atom_site_occupancy
  Li  Li0  1  0.00000000  0.75000000  0.95523000  1.0
  Li  Li1  1  0.50000000  0.00000000  0.86569000  1.0
  Li  Li2  1  0.00000000  0.25000000  0.95523000  1.0
  Li  Li3  1  0.50000000  0.50000000  0.86569000  1.0
  Li  Li4  1  0.25000000  0.00000000  0.95523000  1.0
  Li  Li5  1  0.25000000  0.50000000  0.95523000  1.0
  Li  Li6  1  0.75000000  0.75000000  0.86569000  1.0
  Li  Li7  1  0.75000000  0.25000000  0.86569000  1.0
  Li  Li8  1  0.96730000  0.21212000  0.13623000  1.0
  Li  Li9  1  0.55115000  0.50016000  0.04860000  1.0
  Li  Li10  1  0.96737000  0.78761000  0.13626000  1.0
  Li  Li11  1  0.50260000  0.00024000  0.03189000  1.0
  Li  Li12  1  0.23218000  0.49996000  0.13524000  1.0
  Li  Li13  1  0.28553000  0.99976000  0.12818000  1.0
  Li  Li14  1  0.74592000  0.24244000  0.04472000  1.0
  Li  Li15  1  0.74594000  0.75810000  0.04478000  1.0
  Sn  Sn16  1  0.00000000  0.00000000  0.86569000  1.0
  Sn  Sn17  1  0.50000000  0.25000000  0.95523000  1.0
  Sn  Sn18  1  0.50000000  0.75000000  0.95523000  1.0
  Sn  Sn19  1  0.00000000  0.50000000  0.86569000  1.0
  Sn  Sn20  1  0.02055000  0.50037000  0.03669000  1.0
  Sn  Sn21  1  0.54819000  0.69033000  0.14061000  1.0
  Sn  Sn22  1  0.54804000  0.30947000  0.14054000  1.0
  Sn  Sn23  1  0.05912000  0.00012000  0.04050000  1.0
  Ge  Ge24  1  0.25000000  0.25000000  0.86569000  1.0
  Ge  Ge25  1  0.25000000  0.75000000  0.86569000  1.0
  Ge  Ge26  1  0.75000000  0.50000000  0.95523000  1.0
  Ge  Ge27  1  0.75000000  0.00000000  0.95523000  1.0
  Ge  Ge28  1  0.31281000  0.73976000  0.05069000  1.0
  Ge  Ge29  1  0.31236000  0.26065000  0.05062000  1.0
  Ge  Ge30  1  0.69471000  0.99981000  0.12212000  1.0
  Ge  Ge31  1  0.85537000  0.49985000  0.12911000  1.0
  C  C32  1  0.97419000  0.99980000  0.11821000  1.0
