# generated using pymatgen
data_Ti8Al8Au16C
_symmetry_space_group_name_H-M   Pmm2
_cell_length_a   6.49880000
_cell_length_b   9.19068000
_cell_length_c   26.89300000
_cell_angle_alpha   90.00000000
_cell_angle_beta   90.00000000
_cell_angle_gamma   90.00000000
_symmetry_Int_Tables_number   25
_chemical_formula_structural   Ti8Al8Au16C
_chemical_formula_sum   'Ti8 Al8 Au16 C1'
_cell_volume   1606.27562411
_cell_formula_units_Z   1
loop_
 _symmetry_equiv_pos_site_id
 _symmetry_equiv_pos_as_xyz
  1  'x, y, z'
  2  '-x, -y, z'
  3  '-x, y, z'
  4  'x, -y, z'
loop_
 _atom_site_type_symbol
 _atom_site_label
 _atom_site_symmetry_multiplicity
 _atom_site_fract_x
 _atom_site_fract_y
 _atom_site_fract_z
 _atom_site_occupancy
  Ti  Ti0  2  0.50000000  0.21485000  0.13138000  1.0
  Ti  Ti1  2  0.50000000  0.25000000  0.95728000  1.0
  Ti  Ti2  1  0.00000000  0.00000000  0.04225000  1.0
  Ti  Ti3  1  0.00000000  0.00000000  0.87184000  1.0
  Ti  Ti4  1  0.00000000  0.50000000  0.04674000  1.0
  Ti  Ti5  1  0.00000000  0.50000000  0.87184000  1.0
  Al  Al6  2  0.00000000  0.25000000  0.95728000  1.0
  Al  Al7  2  0.00000000  0.26583000  0.12392000  1.0
  Al  Al8  1  0.50000000  0.00000000  0.03977000  1.0
  Al  Al9  1  0.50000000  0.00000000  0.87184000  1.0
  Al  Al10  1  0.50000000  0.50000000  0.04248000  1.0
  Al  Al11  1  0.50000000  0.50000000  0.87184000  1.0
  Au  Au12  4  0.25000000  0.25000000  0.87184000  1.0
  Au  Au13  4  0.25994000  0.25272000  0.04263000  1.0
  Au  Au14  2  0.19922000  0.00000000  0.13181000  1.0
  Au  Au15  2  0.25000000  0.00000000  0.95728000  1.0
  Au  Au16  2  0.25000000  0.50000000  0.95728000  1.0
  Au  Au17  2  0.27296000  0.50000000  0.13028000  1.0
  C  C18  1  0.50000000  0.00000000  0.15634000  1.0
