# generated using pymatgen
data_GaIr
_symmetry_space_group_name_H-M   Pmm2
_cell_length_a   3.06696500
_cell_length_b   4.33734500
_cell_length_c   26.50600000
_cell_angle_alpha   90.00000000
_cell_angle_beta   90.00000000
_cell_angle_gamma   90.00000000
_symmetry_Int_Tables_number   25
_chemical_formula_structural   GaIr
_chemical_formula_sum   'Ga4 Ir4'
_cell_volume   352.59567557
_cell_formula_units_Z   4
loop_
 _symmetry_equiv_pos_site_id
 _symmetry_equiv_pos_as_xyz
  1  'x, y, z'
  2  '-x, -y, z'
  3  '-x, y, z'
  4  'x, -y, z'
loop_
 _atom_site_type_symbol
 _atom_site_label
 _atom_site_symmetry_multiplicity
 _atom_site_fract_x
 _atom_site_fract_y
 _atom_site_fract_z
 _atom_site_occupancy
  Ga  Ga0  1  0.00000000  0.00000000  0.04100000  1.0
  Ga  Ga1  1  0.00000000  0.00000000  0.87727000  1.0
  Ga  Ga2  1  0.00000000  0.50000000  0.13087500  1.0
  Ga  Ga3  1  0.00000000  0.50000000  0.95909000  1.0
  Ir  Ir4  1  0.50000000  0.00000000  0.11740000  1.0
  Ir  Ir5  1  0.50000000  0.00000000  0.95909000  1.0
  Ir  Ir6  1  0.50000000  0.50000000  0.03752000  1.0
  Ir  Ir7  1  0.50000000  0.50000000  0.87727000  1.0
