# generated using pymatgen
data_Li8Cu8Ag8Ge8CO
_symmetry_space_group_name_H-M   'P 1'
_cell_length_a   6.23049000
_cell_length_b   8.81124000
_cell_length_c   26.60840000
_cell_angle_alpha   90.00000000
_cell_angle_beta   90.00000000
_cell_angle_gamma   90.00000000
_symmetry_Int_Tables_number   1
_chemical_formula_structural   Li8Cu8Ag8Ge8CO
_chemical_formula_sum   'Li8 Cu8 Ag8 Ge8 C1 O1'
_cell_volume   1460.75706210
_cell_formula_units_Z   1
loop_
 _symmetry_equiv_pos_site_id
 _symmetry_equiv_pos_as_xyz
  1  'x, y, z'
loop_
 _atom_site_type_symbol
 _atom_site_label
 _atom_site_symmetry_multiplicity
 _atom_site_fract_x
 _atom_site_fract_y
 _atom_site_fract_z
 _atom_site_occupancy
  Li  Li0  1  0.75000000  0.00000000  0.95861000  1.0
  Li  Li1  1  0.75000000  0.50000000  0.95861000  1.0
  Li  Li2  1  0.25000000  0.75000000  0.87582000  1.0
  Li  Li3  1  0.25000000  0.25000000  0.87582000  1.0
  Li  Li4  1  0.74352000  0.50003000  0.13675000  1.0
  Li  Li5  1  0.73217000  0.00001000  0.13082000  1.0
  Li  Li6  1  0.24891000  0.25430000  0.04019000  1.0
  Li  Li7  1  0.24892000  0.74571000  0.04019000  1.0
  Cu  Cu8  1  0.00000000  0.75000000  0.95861000  1.0
  Cu  Cu9  1  0.00000000  0.25000000  0.95861000  1.0
  Cu  Cu10  1  0.50000000  0.50000000  0.87582000  1.0
  Cu  Cu11  1  0.50000000  0.00000000  0.87582000  1.0
  Cu  Cu12  1  0.99921000  0.24797000  0.12105000  1.0
  Cu  Cu13  1  0.99923000  0.75207000  0.12104000  1.0
  Cu  Cu14  1  0.51372000  0.00000000  0.03724000  1.0
  Cu  Cu15  1  0.48472000  0.50000000  0.05461000  1.0
  Ag  Ag16  1  0.00000000  0.00000000  0.87582000  1.0
  Ag  Ag17  1  0.00000000  0.50000000  0.87582000  1.0
  Ag  Ag18  1  0.50000000  0.25000000  0.95861000  1.0
  Ag  Ag19  1  0.50000000  0.75000000  0.95861000  1.0
  Ag  Ag20  1  0.99299000  0.50001000  0.04384000  1.0
  Ag  Ag21  1  0.99027000  0.00000000  0.04206000  1.0
  Ag  Ag22  1  0.45265000  0.75535000  0.13278000  1.0
  Ag  Ag23  1  0.45266000  0.24468000  0.13278000  1.0
  Ge  Ge24  1  0.25000000  0.00000000  0.95861000  1.0
  Ge  Ge25  1  0.25000000  0.50000000  0.95861000  1.0
  Ge  Ge26  1  0.75000000  0.75000000  0.87582000  1.0
  Ge  Ge27  1  0.75000000  0.25000000  0.87582000  1.0
  Ge  Ge28  1  0.20685000  0.50003000  0.13199000  1.0
  Ge  Ge29  1  0.19256000  0.00001000  0.14816000  1.0
  Ge  Ge30  1  0.72104000  0.25341000  0.05262000  1.0
  Ge  Ge31  1  0.72104000  0.74660000  0.05262000  1.0
  C  C32  1  0.16560000  0.99997000  0.22294000  1.0
  O  O33  1  0.17441000  0.99993000  0.26633000  1.0
