# generated using pymatgen
data_Li8Cu8Ag8Ge8CO
_symmetry_space_group_name_H-M   P1
_cell_length_a   6.23049000
_cell_length_b   8.81124000
_cell_length_c   26.60840000
_cell_angle_alpha   90.00000000
_cell_angle_beta   90.00000000
_cell_angle_gamma   90.00000000
_symmetry_Int_Tables_number   1
_chemical_formula_structural   Li8Cu8Ag8Ge8CO
_chemical_formula_sum   'Li8 Cu8 Ag8 Ge8 C1 O1'
_cell_volume   1460.75706210
_cell_formula_units_Z   1
loop_
 _symmetry_equiv_pos_site_id
 _symmetry_equiv_pos_as_xyz
  1  'x, y, z'
loop_
 _atom_site_type_symbol
 _atom_site_label
 _atom_site_symmetry_multiplicity
 _atom_site_fract_x
 _atom_site_fract_y
 _atom_site_fract_z
 _atom_site_occupancy
  Li  Li0  1  0.25000000  0.00000000  0.95861000  1.0
  Li  Li1  1  0.25000000  0.50000000  0.95861000  1.0
  Li  Li2  1  0.25648000  0.49997000  0.13675000  1.0
  Li  Li3  1  0.26783000  0.99999000  0.13082000  1.0
  Li  Li4  1  0.75000000  0.25000000  0.87582000  1.0
  Li  Li5  1  0.75000000  0.75000000  0.87582000  1.0
  Li  Li6  1  0.75108000  0.25429000  0.04019000  1.0
  Li  Li7  1  0.75109000  0.74570000  0.04019000  1.0
  Cu  Cu8  1  0.00000000  0.25000000  0.95861000  1.0
  Cu  Cu9  1  0.00000000  0.75000000  0.95861000  1.0
  Cu  Cu10  1  0.00077000  0.24793000  0.12104000  1.0
  Cu  Cu11  1  0.00079000  0.75203000  0.12105000  1.0
  Cu  Cu12  1  0.48628000  0.00000000  0.03724000  1.0
  Cu  Cu13  1  0.50000000  0.00000000  0.87582000  1.0
  Cu  Cu14  1  0.50000000  0.50000000  0.87582000  1.0
  Cu  Cu15  1  0.51528000  0.50000000  0.05461000  1.0
  Ag  Ag16  1  0.00000000  0.00000000  0.87582000  1.0
  Ag  Ag17  1  0.00000000  0.50000000  0.87582000  1.0
  Ag  Ag18  1  0.00701000  0.49999000  0.04384000  1.0
  Ag  Ag19  1  0.00973000  0.00000000  0.04206000  1.0
  Ag  Ag20  1  0.50000000  0.25000000  0.95861000  1.0
  Ag  Ag21  1  0.50000000  0.75000000  0.95861000  1.0
  Ag  Ag22  1  0.54734000  0.75532000  0.13278000  1.0
  Ag  Ag23  1  0.54735000  0.24465000  0.13278000  1.0
  Ge  Ge24  1  0.25000000  0.25000000  0.87582000  1.0
  Ge  Ge25  1  0.25000000  0.75000000  0.87582000  1.0
  Ge  Ge26  1  0.27896000  0.25340000  0.05262000  1.0
  Ge  Ge27  1  0.27896000  0.74659000  0.05262000  1.0
  Ge  Ge28  1  0.75000000  0.00000000  0.95861000  1.0
  Ge  Ge29  1  0.75000000  0.50000000  0.95861000  1.0
  Ge  Ge30  1  0.79315000  0.49997000  0.13199000  1.0
  Ge  Ge31  1  0.80744000  0.99999000  0.14816000  1.0
  C  C32  1  0.83440000  0.00003000  0.22294000  1.0
  O  O33  1  0.82559000  0.00007000  0.26633000  1.0
