# generated using pymatgen
data_Li4Al4Ge4Pd4C
_symmetry_space_group_name_H-M   'P 1'
_cell_length_a   8.09626000
_cell_length_b   5.46300000
_cell_length_c   24.08560000
_cell_angle_alpha   90.00000000
_cell_angle_beta   90.00000000
_cell_angle_gamma   90.00000000
_symmetry_Int_Tables_number   1
_chemical_formula_structural   Li4Al4Ge4Pd4C
_chemical_formula_sum   'Li4 Al4 Ge4 Pd4 C1'
_cell_volume   1065.30291785
_cell_formula_units_Z   1
loop_
 _symmetry_equiv_pos_site_id
 _symmetry_equiv_pos_as_xyz
  1  'x, y, z'
loop_
 _atom_site_type_symbol
 _atom_site_label
 _atom_site_symmetry_multiplicity
 _atom_site_fract_x
 _atom_site_fract_y
 _atom_site_fract_z
 _atom_site_occupancy
  Li  Li0  1  0.00000000  0.65483000  0.97179000  1.0
  Li  Li1  1  0.00000000  0.19356000  0.08481000  1.0
  Li  Li2  1  0.50000000  0.63737000  0.96152000  1.0
  Li  Li3  1  0.50000000  0.19356000  0.08481000  1.0
  Al  Al4  1  0.76978000  0.84808000  0.91232000  1.0
  Al  Al5  1  0.75000000  0.46237000  0.02827000  1.0
  Al  Al6  1  0.23022000  0.84808000  0.91232000  1.0
  Al  Al7  1  0.25000000  0.46237000  0.02827000  1.0
  Ge  Ge8  1  0.00000000  0.15732000  0.97459000  1.0
  Ge  Ge9  1  0.00000000  0.69356000  0.08481000  1.0
  Ge  Ge10  1  0.50000000  0.11059000  0.94128000  1.0
  Ge  Ge11  1  0.50000000  0.69356000  0.08481000  1.0
  Pd  Pd12  1  0.75144000  0.38042000  0.92694000  1.0
  Pd  Pd13  1  0.75000000  0.96237000  0.02827000  1.0
  Pd  Pd14  1  0.24856000  0.38042000  0.92694000  1.0
  Pd  Pd15  1  0.25000000  0.96237000  0.02827000  1.0
  C  C16  1  0.00000000  0.94810000  0.90731000  1.0
