# generated using pymatgen
data_Nb8Al8Ni16C
_symmetry_space_group_name_H-M   'P 1'
_cell_length_a   6.01786000
_cell_length_b   8.51054000
_cell_length_c   26.38290000
_cell_angle_alpha   90.00000000
_cell_angle_beta   90.00000000
_cell_angle_gamma   90.00000000
_symmetry_Int_Tables_number   1
_chemical_formula_structural   Nb8Al8Ni16C
_chemical_formula_sum   'Nb8 Al8 Ni16 C1'
_cell_volume   1351.20650908
_cell_formula_units_Z   1
loop_
 _symmetry_equiv_pos_site_id
 _symmetry_equiv_pos_as_xyz
  1  'x, y, z'
loop_
 _atom_site_type_symbol
 _atom_site_label
 _atom_site_symmetry_multiplicity
 _atom_site_fract_x
 _atom_site_fract_y
 _atom_site_fract_z
 _atom_site_occupancy
  Nb  Nb0  1  0.00000000  0.00000000  0.87903000  1.0
  Nb  Nb1  1  0.50000000  0.25000000  0.95968000  1.0
  Nb  Nb2  1  0.50000000  0.75000000  0.95968000  1.0
  Nb  Nb3  1  0.00000000  0.50000000  0.87903000  1.0
  Nb  Nb4  1  0.00000000  0.50000000  0.04055000  1.0
  Nb  Nb5  1  0.50000000  0.74063000  0.11993000  1.0
  Nb  Nb6  1  0.50000000  0.25937000  0.11993000  1.0
  Nb  Nb7  1  0.00000000  0.00000000  0.04247000  1.0
  Al  Al8  1  0.00000000  0.75000000  0.95968000  1.0
  Al  Al9  1  0.50000000  0.00000000  0.87903000  1.0
  Al  Al10  1  0.00000000  0.25000000  0.95968000  1.0
  Al  Al11  1  0.50000000  0.50000000  0.87903000  1.0
  Al  Al12  1  0.00000000  0.24662000  0.12261000  1.0
  Al  Al13  1  0.50000000  0.50000000  0.04007000  1.0
  Al  Al14  1  0.00000000  0.75338000  0.12261000  1.0
  Al  Al15  1  0.50000000  0.00000000  0.04049000  1.0
  Ni  Ni16  1  0.25000000  0.00000000  0.95968000  1.0
  Ni  Ni17  1  0.75000000  0.50000000  0.95968000  1.0
  Ni  Ni18  1  0.75000000  0.00000000  0.95968000  1.0
  Ni  Ni19  1  0.25000000  0.50000000  0.95968000  1.0
  Ni  Ni20  1  0.75000000  0.75000000  0.87903000  1.0
  Ni  Ni21  1  0.25000000  0.25000000  0.87903000  1.0
  Ni  Ni22  1  0.25000000  0.75000000  0.87903000  1.0
  Ni  Ni23  1  0.75000000  0.25000000  0.87903000  1.0
  Ni  Ni24  1  0.23959000  0.50000000  0.11780000  1.0
  Ni  Ni25  1  0.70366000  0.00000000  0.12296000  1.0
  Ni  Ni26  1  0.76041000  0.50000000  0.11780000  1.0
  Ni  Ni27  1  0.29634000  0.00000000  0.12296000  1.0
  Ni  Ni28  1  0.74618000  0.25408000  0.04014000  1.0
  Ni  Ni29  1  0.25382000  0.74592000  0.04014000  1.0
  Ni  Ni30  1  0.25382000  0.25408000  0.04014000  1.0
  Ni  Ni31  1  0.74618000  0.74592000  0.04014000  1.0
  C  C32  1  0.00000000  0.00000000  0.12928000  1.0
