# generated using pymatgen
data_Li2AgSb
_symmetry_space_group_name_H-M   Cmm2
_cell_length_a   9.47493388
_cell_length_b   9.47493388
_cell_length_c   25.02480000
_cell_angle_alpha   90.00000000
_cell_angle_beta   90.00000000
_cell_angle_gamma   90.00000000
_symmetry_Int_Tables_number   35
_chemical_formula_structural   Li2AgSb
_chemical_formula_sum   'Li16 Ag8 Sb8'
_cell_volume   2246.58570663
_cell_formula_units_Z   8
loop_
 _symmetry_equiv_pos_site_id
 _symmetry_equiv_pos_as_xyz
  1  'x, y, z'
  2  '-x, -y, z'
  3  '-x, y, z'
  4  'x, -y, z'
  5  'x+1/2, y+1/2, z'
  6  '-x+1/2, -y+1/2, z'
  7  '-x+1/2, y+1/2, z'
  8  'x+1/2, -y+1/2, z'
loop_
 _atom_site_type_symbol
 _atom_site_label
 _atom_site_symmetry_multiplicity
 _atom_site_fract_x
 _atom_site_fract_y
 _atom_site_fract_z
 _atom_site_occupancy
  Li  Li0  4  0.00000000  0.25000500  0.96653000  1.0
  Li  Li1  4  0.24948500  0.50000000  0.10278000  1.0
  Li  Li2  4  0.25000000  0.25000000  0.89960000  1.0
  Li  Li3  2  0.00000000  0.00000000  0.02563000  1.0
  Li  Li4  2  0.00000000  0.50000000  0.02526000  1.0
  Ag  Ag5  4  0.00000000  0.25006000  0.09691000  1.0
  Ag  Ag6  4  0.24999500  0.50000000  0.96653000  1.0
  Sb  Sb7  4  0.25000000  0.25000000  0.04477000  1.0
  Sb  Sb8  2  0.00000000  0.00000000  0.89960000  1.0
  Sb  Sb9  2  0.00000000  0.50000000  0.89960000  1.0
