# generated using pymatgen
data_Y8Ag8C
_symmetry_space_group_name_H-M   'P 1'
_cell_length_a   7.32505000
_cell_length_b   7.32505000
_cell_length_c   25.49380000
_cell_angle_alpha   90.00000000
_cell_angle_beta   90.00000000
_cell_angle_gamma   90.00000000
_symmetry_Int_Tables_number   1
_chemical_formula_structural   Y8Ag8C
_chemical_formula_sum   'Y8 Ag8 C1'
_cell_volume   1367.90444690
_cell_formula_units_Z   1
loop_
 _symmetry_equiv_pos_site_id
 _symmetry_equiv_pos_as_xyz
  1  'x, y, z'
loop_
 _atom_site_type_symbol
 _atom_site_label
 _atom_site_symmetry_multiplicity
 _atom_site_fract_x
 _atom_site_fract_y
 _atom_site_fract_z
 _atom_site_occupancy
  Y  Y0  1  0.00000000  0.00000000  0.89571000  1.0
  Y  Y1  1  0.00000000  0.00000000  0.03938000  1.0
  Y  Y2  1  0.00000000  0.50000000  0.89571000  1.0
  Y  Y3  1  0.00000000  0.50000000  0.03938000  1.0
  Y  Y4  1  0.50000000  0.00000000  0.89571000  1.0
  Y  Y5  1  0.50000000  0.00000000  0.03938000  1.0
  Y  Y6  1  0.50000000  0.50000000  0.89571000  1.0
  Y  Y7  1  0.50000000  0.50000000  0.03938000  1.0
  Ag  Ag8  1  0.25000000  0.25000000  0.96755000  1.0
  Ag  Ag9  1  0.25000000  0.25000000  0.11121000  1.0
  Ag  Ag10  1  0.25000000  0.75000000  0.96755000  1.0
  Ag  Ag11  1  0.25000000  0.75000000  0.11121000  1.0
  Ag  Ag12  1  0.75000000  0.25000000  0.96755000  1.0
  Ag  Ag13  1  0.75000000  0.25000000  0.11121000  1.0
  Ag  Ag14  1  0.75000000  0.75000000  0.96755000  1.0
  Ag  Ag15  1  0.75000000  0.75000000  0.11121000  1.0
  C  C16  1  0.00000000  0.00000000  0.14259000  1.0
