# generated using pymatgen
data_Zn16Ni16CO
_symmetry_space_group_name_H-M   Pmm2
_cell_length_a   6.69622000
_cell_length_b   7.59591000
_cell_length_c   25.69690000
_cell_angle_alpha   90.00000000
_cell_angle_beta   90.00000000
_cell_angle_gamma   90.00000000
_symmetry_Int_Tables_number   25
_chemical_formula_structural   Zn16Ni16CO
_chemical_formula_sum   'Zn16 Ni16 C1 O1'
_cell_volume   1307.04415259
_cell_formula_units_Z   1
loop_
 _symmetry_equiv_pos_site_id
 _symmetry_equiv_pos_as_xyz
  1  'x, y, z'
  2  '-x, -y, z'
  3  '-x, y, z'
  4  'x, -y, z'
loop_
 _atom_site_type_symbol
 _atom_site_label
 _atom_site_symmetry_multiplicity
 _atom_site_fract_x
 _atom_site_fract_y
 _atom_site_fract_z
 _atom_site_occupancy
  Zn  Zn0  2  0.00000000  0.25000000  0.11085000  1.0
  Zn  Zn1  2  0.00000000  0.25000000  0.96305000  1.0
  Zn  Zn2  2  0.50000000  0.25000000  0.11085000  1.0
  Zn  Zn3  2  0.50000000  0.25000000  0.96305000  1.0
  Zn  Zn4  1  0.00000000  0.00000000  0.03695000  1.0
  Zn  Zn5  1  0.00000000  0.00000000  0.88915000  1.0
  Zn  Zn6  1  0.00000000  0.50000000  0.03695000  1.0
  Zn  Zn7  1  0.00000000  0.50000000  0.88915000  1.0
  Zn  Zn8  1  0.50000000  0.00000000  0.03695000  1.0
  Zn  Zn9  1  0.50000000  0.00000000  0.88915000  1.0
  Zn  Zn10  1  0.50000000  0.50000000  0.03695000  1.0
  Zn  Zn11  1  0.50000000  0.50000000  0.88915000  1.0
  Ni  Ni12  4  0.25000000  0.25000000  0.03695000  1.0
  Ni  Ni13  4  0.25000000  0.25000000  0.88915000  1.0
  Ni  Ni14  2  0.25000000  0.00000000  0.11085000  1.0
  Ni  Ni15  2  0.25000000  0.00000000  0.96305000  1.0
  Ni  Ni16  2  0.25000000  0.50000000  0.11085000  1.0
  Ni  Ni17  2  0.25000000  0.50000000  0.96305000  1.0
  C  C18  1  0.00000000  0.00000000  0.81521000  1.0
  O  O19  1  0.00000000  0.00000000  0.77046000  1.0
