# generated using pymatgen
data_Y4Sn12CO
_symmetry_space_group_name_H-M   Pm
_cell_length_a   6.71861000
_cell_length_b   9.50155000
_cell_length_c   25.03900000
_cell_angle_alpha   90.00000000
_cell_angle_beta   90.00000000
_cell_angle_gamma   90.00000000
_symmetry_Int_Tables_number   6
_chemical_formula_structural   Y4Sn12CO
_chemical_formula_sum   'Y4 Sn12 C1 O1'
_cell_volume   1598.41987228
_cell_formula_units_Z   1
loop_
 _symmetry_equiv_pos_site_id
 _symmetry_equiv_pos_as_xyz
  1  'x, y, z'
  2  'x, -y, z'
loop_
 _atom_site_type_symbol
 _atom_site_label
 _atom_site_symmetry_multiplicity
 _atom_site_fract_x
 _atom_site_fract_y
 _atom_site_fract_z
 _atom_site_occupancy
  Y  Y0  2  0.00000000  0.25001000  0.10062000  1.0
  Y  Y1  2  0.50038000  0.24166000  0.96921000  1.0
  Sn  Sn2  2  0.00070000  0.24392000  0.96467000  1.0
  Sn  Sn3  2  0.50000000  0.25001000  0.10062000  1.0
  Sn  Sn4  1  0.22587000  0.00000000  0.89971000  1.0
  Sn  Sn5  1  0.24050000  0.50000000  0.90566000  1.0
  Sn  Sn6  1  0.25000000  0.00000000  0.03354000  1.0
  Sn  Sn7  1  0.25000000  0.50000000  0.03354000  1.0
  Sn  Sn8  1  0.75000000  0.00000000  0.03354000  1.0
  Sn  Sn9  1  0.75000000  0.50000000  0.03354000  1.0
  Sn  Sn10  1  0.76153000  0.50000000  0.90638000  1.0
  Sn  Sn11  1  0.77545000  0.00000000  0.89973000  1.0
  C  C12  1  0.66501000  0.50000000  0.76384000  1.0
  O  O13  1  0.78226000  0.50000000  0.73117000  1.0
