# generated using pymatgen
data_AlCrFe2
_symmetry_space_group_name_H-M   Pmmn
_cell_length_a   4.60089500
_cell_length_b   6.50665000
_cell_length_c   26.90130000
_cell_angle_alpha   90.00000000
_cell_angle_beta   90.00000000
_cell_angle_gamma   90.00000000
_symmetry_Int_Tables_number   59
_chemical_formula_structural   AlCrFe2
_chemical_formula_sum   'Al4 Cr4 Fe8'
_cell_volume   805.32843919
_cell_formula_units_Z   4
loop_
 _symmetry_equiv_pos_site_id
 _symmetry_equiv_pos_as_xyz
  1  'x, y, z'
  2  '-x, -y, z'
  3  'x+1/2, -y+1/2, -z'
  4  '-x+1/2, y+1/2, -z'
  5  '-x+1/2, -y+1/2, -z'
  6  'x+1/2, y+1/2, -z'
  7  '-x, y, z'
  8  'x, -y, z'
loop_
 _atom_site_type_symbol
 _atom_site_label
 _atom_site_symmetry_multiplicity
 _atom_site_fract_x
 _atom_site_fract_y
 _atom_site_fract_z
 _atom_site_occupancy
  Al  Al0  2  0.00000000  0.00000000  0.12827000  1.0
  Al  Al1  2  0.00000000  0.00000000  0.95724000  1.0
  Cr  Cr2  2  0.00000000  0.50000000  0.12827000  1.0
  Cr  Cr3  2  0.00000000  0.50000000  0.95724000  1.0
  Fe  Fe4  4  0.00000000  0.25000000  0.04276000  1.0
  Fe  Fe5  4  0.00000000  0.25000000  0.87173000  1.0
