# generated using pymatgen
data_Mn8Co16Sn8CO
_symmetry_space_group_name_H-M   'P 1'
_cell_length_a   8.51164000
_cell_length_b   6.01864000
_cell_length_c   26.38370000
_cell_angle_alpha   90.00000000
_cell_angle_beta   90.00000000
_cell_angle_gamma   90.00000000
_symmetry_Int_Tables_number   1
_chemical_formula_structural   Mn8Co16Sn8CO
_chemical_formula_sum   'Mn8 Co16 Sn8 C1 O1'
_cell_volume   1351.59729550
_cell_formula_units_Z   1
loop_
 _symmetry_equiv_pos_site_id
 _symmetry_equiv_pos_as_xyz
  1  'x, y, z'
loop_
 _atom_site_type_symbol
 _atom_site_label
 _atom_site_symmetry_multiplicity
 _atom_site_fract_x
 _atom_site_fract_y
 _atom_site_fract_z
 _atom_site_occupancy
  Mn  Mn0  1  0.00000000  0.00000000  0.12098000  1.0
  Mn  Mn1  1  0.25000000  0.50000000  0.04033000  1.0
  Mn  Mn2  1  0.75000000  0.50000000  0.04033000  1.0
  Mn  Mn3  1  0.50000000  0.00000000  0.12098000  1.0
  Mn  Mn4  1  0.50000000  0.00004000  0.96004000  1.0
  Mn  Mn5  1  0.74087000  0.50253000  0.88089000  1.0
  Mn  Mn6  1  0.25913000  0.50253000  0.88089000  1.0
  Mn  Mn7  1  0.00000000  0.99913000  0.95839000  1.0
  Co  Co8  1  0.00000000  0.25000000  0.04033000  1.0
  Co  Co9  1  0.50000000  0.75000000  0.04033000  1.0
  Co  Co10  1  0.00000000  0.75000000  0.04033000  1.0
  Co  Co11  1  0.50000000  0.25000000  0.04033000  1.0
  Co  Co12  1  0.75000000  0.75000000  0.12098000  1.0
  Co  Co13  1  0.25000000  0.25000000  0.12098000  1.0
  Co  Co14  1  0.75000000  0.25000000  0.12098000  1.0
  Co  Co15  1  0.25000000  0.75000000  0.12098000  1.0
  Co  Co16  1  0.50000000  0.24089000  0.88283000  1.0
  Co  Co17  1  0.00000000  0.74329000  0.87986000  1.0
  Co  Co18  1  0.50000000  0.76222000  0.88214000  1.0
  Co  Co19  1  0.00000000  0.27051000  0.87894000  1.0
  Co  Co20  1  0.24970000  0.75647000  0.95815000  1.0
  Co  Co21  1  0.75037000  0.24456000  0.95812000  1.0
  Co  Co22  1  0.24963000  0.24456000  0.95812000  1.0
  Co  Co23  1  0.75030000  0.75647000  0.95815000  1.0
  Sn  Sn24  1  0.75000000  0.00000000  0.04033000  1.0
  Sn  Sn25  1  0.00000000  0.50000000  0.12098000  1.0
  Sn  Sn26  1  0.25000000  0.00000000  0.04033000  1.0
  Sn  Sn27  1  0.50000000  0.50000000  0.12098000  1.0
  Sn  Sn28  1  0.24431000  0.00418000  0.87171000  1.0
  Sn  Sn29  1  0.50000000  0.50106000  0.96055000  1.0
  Sn  Sn30  1  0.75569000  0.00418000  0.87171000  1.0
  Sn  Sn31  1  0.00000000  0.50061000  0.96131000  1.0
  C  C32  1  0.00000000  0.43692000  0.82411000  1.0
  O  O33  1  0.00000000  0.51565000  0.78310000  1.0
