# generated using pymatgen
data_Mn8Co16Sn8CO
_symmetry_space_group_name_H-M   Pm
_cell_length_a   6.01864000
_cell_length_b   8.51164000
_cell_length_c   26.38370000
_cell_angle_alpha   90.00000000
_cell_angle_beta   90.00000000
_cell_angle_gamma   90.00000000
_symmetry_Int_Tables_number   6
_chemical_formula_structural   Mn8Co16Sn8CO
_chemical_formula_sum   'Mn8 Co16 Sn8 C1 O1'
_cell_volume   1351.59729550
_cell_formula_units_Z   1
loop_
 _symmetry_equiv_pos_site_id
 _symmetry_equiv_pos_as_xyz
  1  'x, y, z'
  2  'x, -y, z'
loop_
 _atom_site_type_symbol
 _atom_site_label
 _atom_site_symmetry_multiplicity
 _atom_site_fract_x
 _atom_site_fract_y
 _atom_site_fract_z
 _atom_site_occupancy
  Mn  Mn0  2  0.50000000  0.25000000  0.95967000  1.0
  Mn  Mn1  2  0.50253000  0.25913000  0.11911000  1.0
  Mn  Mn2  1  0.00000000  0.00000000  0.87902000  1.0
  Mn  Mn3  1  0.00000000  0.50000000  0.87902000  1.0
  Mn  Mn4  1  0.00004000  0.50000000  0.03996000  1.0
  Mn  Mn5  1  0.99913000  0.00000000  0.04161000  1.0
  Co  Co6  2  0.24456000  0.24963000  0.04188000  1.0
  Co  Co7  2  0.25000000  0.25000000  0.87902000  1.0
  Co  Co8  2  0.75000000  0.25000000  0.87902000  1.0
  Co  Co9  2  0.75647000  0.24970000  0.04185000  1.0
  Co  Co10  1  0.24089000  0.50000000  0.11717000  1.0
  Co  Co11  1  0.25000000  0.00000000  0.95967000  1.0
  Co  Co12  1  0.25000000  0.50000000  0.95967000  1.0
  Co  Co13  1  0.27051000  0.00000000  0.12106000  1.0
  Co  Co14  1  0.74329000  0.00000000  0.12014000  1.0
  Co  Co15  1  0.75000000  0.00000000  0.95967000  1.0
  Co  Co16  1  0.75000000  0.50000000  0.95967000  1.0
  Co  Co17  1  0.76222000  0.50000000  0.11786000  1.0
  Sn  Sn18  2  0.00000000  0.25000000  0.95967000  1.0
  Sn  Sn19  2  0.00418000  0.24431000  0.12829000  1.0
  Sn  Sn20  1  0.50000000  0.00000000  0.87902000  1.0
  Sn  Sn21  1  0.50000000  0.50000000  0.87902000  1.0
  Sn  Sn22  1  0.50061000  0.00000000  0.03869000  1.0
  Sn  Sn23  1  0.50106000  0.50000000  0.03945000  1.0
  C  C24  1  0.43692000  0.00000000  0.17589000  1.0
  O  O25  1  0.51565000  0.00000000  0.21690000  1.0
