data_image0
_chemical_formula_structural       Li4Y4In4Pt4CO
_chemical_formula_sum              "Li4 Y4 In4 Pt4 C1 O1"
_cell_length_a       6.80323
_cell_length_b       6.80323
_cell_length_c       25.1024
_cell_angle_alpha    90
_cell_angle_beta     90
_cell_angle_gamma    90

_space_group_name_H-M_alt    "P 1"
_space_group_IT_number       1

loop_
  _space_group_symop_operation_xyz
  'x, y, z'

loop_
  _atom_site_type_symbol
  _atom_site_label
  _atom_site_symmetry_multiplicity
  _atom_site_fract_x
  _atom_site_fract_y
  _atom_site_fract_z
  _atom_site_occupancy
  Li  Li1       1.0  0.75000  0.25000  0.96612  1.0000
  Li  Li2       1.0  0.75199  0.74615  0.12439  1.0000
  Li  Li3       1.0  0.25385  0.24801  0.12439  1.0000
  Li  Li4       1.0  0.25000  0.75000  0.96612  1.0000
  Y   Y1        1.0  0.00000  0.50000  0.89837  1.0000
  Y   Y2        1.0  0.99916  0.00084  0.03422  1.0000
  Y   Y3        1.0  0.50041  0.49959  0.03403  1.0000
  Y   Y4        1.0  0.50000  0.00000  0.89837  1.0000
  In  In1       1.0  0.00000  0.00000  0.89837  1.0000
  In  In2       1.0  0.99414  0.49355  0.03568  1.0000
  In  In3       1.0  0.50646  0.00587  0.03568  1.0000
  In  In4       1.0  0.50000  0.50000  0.89837  1.0000
  Pt  Pt1       1.0  0.25000  0.25000  0.96612  1.0000
  Pt  Pt2       1.0  0.24980  0.75020  0.09069  1.0000
  Pt  Pt3       1.0  0.74873  0.25127  0.10078  1.0000
  Pt  Pt4       1.0  0.75000  0.75000  0.96612  1.0000
  C   C1        1.0  0.74735  0.25265  0.17708  1.0000
  O   O1        1.0  0.74814  0.25186  0.22354  1.0000
