# generated using pymatgen
data_Li4Y4In4Pt4CO
_symmetry_space_group_name_H-M   Cm
_cell_length_a   9.62122013
_cell_length_b   9.62122013
_cell_length_c   25.10240000
_cell_angle_alpha   90.00000000
_cell_angle_beta   90.00000000
_cell_angle_gamma   90.00000000
_symmetry_Int_Tables_number   8
_chemical_formula_structural   Li4Y4In4Pt4CO
_chemical_formula_sum   'Li8 Y8 In8 Pt8 C2 O2'
_cell_volume   2323.67587224
_cell_formula_units_Z   2
loop_
 _symmetry_equiv_pos_site_id
 _symmetry_equiv_pos_as_xyz
  1  'x, y, z'
  2  'x, -y, z'
  3  'x+1/2, y+1/2, z'
  4  'x+1/2, -y+1/2, z'
loop_
 _atom_site_type_symbol
 _atom_site_label
 _atom_site_symmetry_multiplicity
 _atom_site_fract_x
 _atom_site_fract_y
 _atom_site_fract_z
 _atom_site_occupancy
  Li  Li0  4  0.00292000  0.25093000  0.12439000  1.0
  Li  Li1  2  0.25000000  0.50000000  0.96612000  1.0
  Li  Li2  2  0.25000000  0.00000000  0.96612000  1.0
  Y  Y3  4  0.25000000  0.25000000  0.89837000  1.0
  Y  Y4  2  0.00041000  0.50000000  0.03403000  1.0
  Y  Y5  2  0.49916000  0.50000000  0.03422000  1.0
  In  In6  4  0.25029500  0.25615500  0.03568000  1.0
  In  In7  2  -0.00000000  0.00000000  0.89837000  1.0
  In  In8  2  -0.00000000  0.50000000  0.89837000  1.0
  Pt  Pt9  4  -0.00000000  0.25000000  0.96612000  1.0
  Pt  Pt10  2  0.24873000  0.50000000  0.10078000  1.0
  Pt  Pt11  2  0.24980000  0.00000000  0.09069000  1.0
  C  C12  2  0.24735000  0.50000000  0.17708000  1.0
  O  O13  2  0.24814000  0.50000000  0.22354000  1.0
