# generated using pymatgen
data_Sc8Cu8Ge8Pd8CO
_symmetry_space_group_name_H-M   'P 1'
_cell_length_a   8.95756000
_cell_length_b   6.33395000
_cell_length_c   26.71820000
_cell_angle_alpha   90.00000000
_cell_angle_beta   90.00000000
_cell_angle_gamma   90.00000000
_symmetry_Int_Tables_number   1
_chemical_formula_structural   Sc8Cu8Ge8Pd8CO
_chemical_formula_sum   'Sc8 Cu8 Ge8 Pd8 C1 O1'
_cell_volume   1515.90349084
_cell_formula_units_Z   1
loop_
 _symmetry_equiv_pos_site_id
 _symmetry_equiv_pos_as_xyz
  1  'x, y, z'
loop_
 _atom_site_type_symbol
 _atom_site_label
 _atom_site_symmetry_multiplicity
 _atom_site_fract_x
 _atom_site_fract_y
 _atom_site_fract_z
 _atom_site_occupancy
  Sc  Sc0  1  0.00000000  0.75000000  0.04191000  1.0
  Sc  Sc1  1  0.50000000  0.75000000  0.04191000  1.0
  Sc  Sc2  1  0.24999000  0.25000000  0.12572000  1.0
  Sc  Sc3  1  0.75001000  0.25000000  0.12572000  1.0
  Sc  Sc4  1  0.50000000  0.69094000  0.87031000  1.0
  Sc  Sc5  1  0.00000000  0.68701000  0.86607000  1.0
  Sc  Sc6  1  0.75252000  0.24394000  0.95441000  1.0
  Sc  Sc7  1  0.24748000  0.24394000  0.95441000  1.0
  Cu  Cu8  1  0.00000000  0.00000000  0.12572000  1.0
  Cu  Cu9  1  0.50000000  1.00000000  0.12572000  1.0
  Cu  Cu10  1  0.74999000  0.50000000  0.04191000  1.0
  Cu  Cu11  1  0.25001000  0.50000000  0.04191000  1.0
  Cu  Cu12  1  0.50000000  0.97723000  0.95120000  1.0
  Cu  Cu13  1  0.00000000  0.95856000  0.94874000  1.0
  Cu  Cu14  1  0.24999000  0.40491000  0.85549000  1.0
  Cu  Cu15  1  0.75001000  0.40491000  0.85549000  1.0
  Ge  Ge16  1  0.00000000  0.25000000  0.04191000  1.0
  Ge  Ge17  1  0.50000000  0.25000000  0.04191000  1.0
  Ge  Ge18  1  0.24999000  0.75000000  0.12572000  1.0
  Ge  Ge19  1  0.75001000  0.75000000  0.12572000  1.0
  Ge  Ge20  1  0.50000000  0.22958000  0.87464000  1.0
  Ge  Ge21  1  0.00000000  0.22366000  0.87646000  1.0
  Ge  Ge22  1  0.74819000  0.74177000  0.95859000  1.0
  Ge  Ge23  1  0.25181000  0.74177000  0.95859000  1.0
  Pd  Pd24  1  0.24999000  0.00000000  0.04191000  1.0
  Pd  Pd25  1  0.75001000  0.00000000  0.04191000  1.0
  Pd  Pd26  1  0.50000000  0.50000000  0.12572000  1.0
  Pd  Pd27  1  0.00000000  0.50000000  0.12572000  1.0
  Pd  Pd28  1  0.74726000  0.96146000  0.87571000  1.0
  Pd  Pd29  1  0.25274000  0.96146000  0.87571000  1.0
  Pd  Pd30  1  0.00000000  0.50070000  0.95950000  1.0
  Pd  Pd31  1  0.50000000  0.49427000  0.95986000  1.0
  C  C32  1  0.00000000  0.55477000  0.78658000  1.0
  O  O33  1  0.00000000  0.49147000  0.74616000  1.0
