# generated using pymatgen
data_Sc8Ga8Cu8Pd8C
_symmetry_space_group_name_H-M   Pm
_cell_length_a   6.33027000
_cell_length_b   8.95236000
_cell_length_c   26.71430000
_cell_angle_alpha   90.00000000
_cell_angle_beta   90.00000000
_cell_angle_gamma   90.00000000
_symmetry_Int_Tables_number   6
_chemical_formula_structural   Sc8Ga8Cu8Pd8C
_chemical_formula_sum   'Sc8 Ga8 Cu8 Pd8 C1'
_cell_volume   1513.92224676
_cell_formula_units_Z   1
loop_
 _symmetry_equiv_pos_site_id
 _symmetry_equiv_pos_as_xyz
  1  'x, y, z'
  2  'x, -y, z'
loop_
 _atom_site_type_symbol
 _atom_site_label
 _atom_site_symmetry_multiplicity
 _atom_site_fract_x
 _atom_site_fract_y
 _atom_site_fract_z
 _atom_site_occupancy
  Sc  Sc0  2  0.74161000  0.23844000  0.12721000  1.0
  Sc  Sc1  2  0.75000000  0.25000000  0.95811000  1.0
  Sc  Sc2  1  0.24551000  0.50000000  0.04116000  1.0
  Sc  Sc3  1  0.25000000  0.00000000  0.87433000  1.0
  Sc  Sc4  1  0.25000000  0.50000000  0.87433000  1.0
  Sc  Sc5  1  0.25465000  0.00000000  0.04810000  1.0
  Ga  Ga6  2  0.24572000  0.25789000  0.12566000  1.0
  Ga  Ga7  2  0.25000000  0.25000000  0.95811000  1.0
  Ga  Ga8  1  0.75000000  0.00000000  0.87433000  1.0
  Ga  Ga9  1  0.75000000  0.50000000  0.87433000  1.0
  Ga  Ga10  1  0.75095000  0.50000000  0.04307000  1.0
  Ga  Ga11  1  0.75122000  0.00000000  0.04449000  1.0
  Cu  Cu12  2  0.00000000  0.25000000  0.87433000  1.0
  Cu  Cu13  2  0.99284000  0.25181000  0.04206000  1.0
  Cu  Cu14  1  0.43664000  0.00000000  0.14524000  1.0
  Cu  Cu15  1  0.47933000  0.50000000  0.12430000  1.0
  Cu  Cu16  1  0.50000000  0.00000000  0.95811000  1.0
  Cu  Cu17  1  0.50000000  0.50000000  0.95811000  1.0
  Pd  Pd18  2  0.50000000  0.25000000  0.87433000  1.0
  Pd  Pd19  2  0.50229000  0.25641000  0.04030000  1.0
  Pd  Pd20  1  0.00000000  0.00000000  0.95811000  1.0
  Pd  Pd21  1  0.00000000  0.50000000  0.95811000  1.0
  Pd  Pd22  1  0.00350000  0.50000000  0.12187000  1.0
  Pd  Pd23  1  0.04903000  0.00000000  0.13505000  1.0
  C  C24  1  0.72269000  0.00000000  0.12438000  1.0
