# generated using pymatgen
data_LiGePdAu
_symmetry_space_group_name_H-M   'P 1'
_cell_length_a   6.30991000
_cell_length_b   6.30991000
_cell_length_c   24.73240000
_cell_angle_alpha   90.00000000
_cell_angle_beta   90.00000000
_cell_angle_gamma   90.00000000
_symmetry_Int_Tables_number   1
_chemical_formula_structural   LiGePdAu
_chemical_formula_sum   'Li4 Ge4 Pd4 Au4'
_cell_volume   984.71962078
_cell_formula_units_Z   4
loop_
 _symmetry_equiv_pos_site_id
 _symmetry_equiv_pos_as_xyz
  1  'x, y, z'
loop_
 _atom_site_type_symbol
 _atom_site_label
 _atom_site_symmetry_multiplicity
 _atom_site_fract_x
 _atom_site_fract_y
 _atom_site_fract_z
 _atom_site_occupancy
  Li  Li0  1  0.75000000  0.25000000  0.96811000  1
  Li  Li1  1  0.24903000  0.24903000  0.10087000  1
  Li  Li2  1  0.75097000  0.75097000  0.10087000  1
  Li  Li3  1  0.25000000  0.75000000  0.96811000  1
  Ge  Ge4  1  0.75000000  0.75000000  0.96811000  1
  Ge  Ge5  1  0.25009000  0.74991000  0.09584000  1
  Ge  Ge6  1  0.74991000  0.25009000  0.09584000  1
  Ge  Ge7  1  0.25000000  0.25000000  0.96811000  1
  Pd  Pd8  1  0.50000000  0.00000000  0.90433000  1
  Pd  Pd9  1  0.00000000  0.00000000  0.04121000  1
  Pd  Pd10  1  0.50000000  0.50000000  0.04181000  1
  Pd  Pd11  1  0.00000000  0.50000000  0.90433000  1
  Au  Au12  1  0.00000000  0.00000000  0.90433000  1
  Au  Au13  1  0.50000000  0.00000000  0.03554000  1
  Au  Au14  1  0.00000000  0.50000000  0.03554000  1
  Au  Au15  1  0.50000000  0.50000000  0.90433000  1
