# generated using pymatgen
data_Li8Al4Pd4C
_symmetry_space_group_name_H-M   'P 1'
_cell_length_a   6.13337000
_cell_length_b   6.13337000
_cell_length_c   24.60000000
_cell_angle_alpha   90.00000000
_cell_angle_beta   90.00000000
_cell_angle_gamma   90.00000000
_symmetry_Int_Tables_number   1
_chemical_formula_structural   Li8Al4Pd4C
_chemical_formula_sum   'Li8 Al4 Pd4 C1'
_cell_volume   925.40839790
_cell_formula_units_Z   1
loop_
 _symmetry_equiv_pos_site_id
 _symmetry_equiv_pos_as_xyz
  1  'x, y, z'
loop_
 _atom_site_type_symbol
 _atom_site_label
 _atom_site_symmetry_multiplicity
 _atom_site_fract_x
 _atom_site_fract_y
 _atom_site_fract_z
 _atom_site_occupancy
  Li  Li0  1  0.00000000  0.00000000  0.03117000  1
  Li  Li1  1  0.00476000  0.50559000  0.89445000  1
  Li  Li2  1  0.49441000  0.99524000  0.89445000  1
  Li  Li3  1  0.50000000  0.50000000  0.03117000  1
  Li  Li4  1  0.24928000  0.75072000  0.97687000  1
  Li  Li5  1  0.75000000  0.75000000  0.09350000  1
  Li  Li6  1  0.74969000  0.25031000  0.96141000  1
  Li  Li7  1  0.25000000  0.25000000  0.09350000  1
  Al  Al8  1  0.03266000  0.96734000  0.90575000  1
  Al  Al9  1  0.46665000  0.53335000  0.90580000  1
  Al  Al10  1  1.00000000  0.50000000  0.03117000  1
  Al  Al11  1  0.50000000  1.00000000  0.03117000  1
  Pd  Pd12  1  0.25000000  0.75000000  0.09350000  1
  Pd  Pd13  1  0.74996000  0.74993000  0.96988000  1
  Pd  Pd14  1  0.75000000  0.25000000  0.09350000  1
  Pd  Pd15  1  0.25007000  0.25004000  0.96988000  1
  C  C16  1  0.24963000  0.75037000  0.89189000  1
