# generated using pymatgen
data_Li8Al4Pd4C
_symmetry_space_group_name_H-M   Cm
_cell_length_a   8.67389504
_cell_length_b   8.67389504
_cell_length_c   24.60000000
_cell_angle_alpha   90.00000000
_cell_angle_beta   90.00000000
_cell_angle_gamma   90.00000000
_symmetry_Int_Tables_number   8
_chemical_formula_structural   Li8Al4Pd4C
_chemical_formula_sum   'Li16 Al8 Pd8 C2'
_cell_volume   1850.81679580
_cell_formula_units_Z   2
loop_
 _symmetry_equiv_pos_site_id
 _symmetry_equiv_pos_as_xyz
  1  'x, y, z'
  2  'x, -y, z'
  3  'x+1/2, y+1/2, z'
  4  'x+1/2, -y+1/2, z'
loop_
 _atom_site_type_symbol
 _atom_site_label
 _atom_site_symmetry_multiplicity
 _atom_site_fract_x
 _atom_site_fract_y
 _atom_site_fract_z
 _atom_site_occupancy
  Li  Li0  4  -0.00000000  0.25000000  0.90650000  1.0
  Li  Li1  4  0.24958500  0.24482500  0.10555000  1.0
  Li  Li2  2  0.00000000  0.00000000  0.96883000  1.0
  Li  Li3  2  0.00000000  0.50000000  0.96883000  1.0
  Li  Li4  2  0.24928000  0.00000000  0.02313000  1.0
  Li  Li5  2  0.24969000  0.50000000  0.03859000  1.0
  Al  Al6  4  0.25000000  0.25000000  0.96883000  1.0
  Al  Al7  2  0.03266000  0.00000000  0.09425000  1.0
  Al  Al8  2  0.46665000  0.00000000  0.09420000  1.0
  Pd  Pd9  4  0.00001500  0.25005500  0.03012000  1.0
  Pd  Pd10  2  0.25000000  0.00000000  0.90650000  1.0
  Pd  Pd11  2  0.25000000  0.50000000  0.90650000  1.0
  C  C12  2  0.24963000  0.00000000  0.10811000  1.0
