# generated using pymatgen
data_Li8Y8In8Ag8CO
_symmetry_space_group_name_H-M   Pm
_cell_length_a   6.90709000
_cell_length_b   9.76810000
_cell_length_c   27.32610000
_cell_angle_alpha   90.00000000
_cell_angle_beta   90.00000000
_cell_angle_gamma   90.00000000
_symmetry_Int_Tables_number   6
_chemical_formula_structural   Li8Y8In8Ag8CO
_chemical_formula_sum   'Li8 Y8 In8 Ag8 C1 O1'
_cell_volume   1843.66862584
_cell_formula_units_Z   1
loop_
 _symmetry_equiv_pos_site_id
 _symmetry_equiv_pos_as_xyz
  1  'x, y, z'
  2  'x, -y, z'
loop_
 _atom_site_type_symbol
 _atom_site_label
 _atom_site_symmetry_multiplicity
 _atom_site_fract_x
 _atom_site_fract_y
 _atom_site_fract_z
 _atom_site_occupancy
  Li  Li0  2  0.00000000  0.24999000  0.95532000  1.0
  Li  Li1  2  0.17004000  0.26250000  0.18695000  1.0
  Li  Li2  1  0.50000000  0.00000000  0.86595000  1.0
  Li  Li3  1  0.50000000  0.50000000  0.86595000  1.0
  Li  Li4  1  0.51273000  0.00000000  0.05013000  1.0
  Li  Li5  1  0.51464000  0.50000000  0.04568000  1.0
  Y  Y6  2  0.24707000  0.24791000  0.05293000  1.0
  Y  Y7  2  0.25000000  0.24999000  0.86595000  1.0
  Y  Y8  1  0.75000000  0.00000000  0.95532000  1.0
  Y  Y9  1  0.75000000  0.50000000  0.95532000  1.0
  Y  Y10  1  0.81273000  0.00000000  0.13576000  1.0
  Y  Y11  1  0.84198000  0.50000000  0.14136000  1.0
  In  In12  2  0.75000000  0.24999000  0.86595000  1.0
  In  In13  2  0.76060000  0.25199000  0.04589000  1.0
  In  In14  1  0.25000000  0.00000000  0.95532000  1.0
  In  In15  1  0.25000000  0.50000000  0.95532000  1.0
  In  In16  1  0.27841000  0.00000000  0.13926000  1.0
  In  In17  1  0.30139000  0.50000000  0.12864000  1.0
  Ag  Ag18  2  0.50000000  0.25001000  0.95532000  1.0
  Ag  Ag19  2  0.53855000  0.24778000  0.13708000  1.0
  Ag  Ag20  1  0.00000000  0.00000000  0.86595000  1.0
  Ag  Ag21  1  0.00000000  0.50000000  0.86595000  1.0
  Ag  Ag22  1  0.00883000  0.00000000  0.04137000  1.0
  Ag  Ag23  1  0.01065000  0.50000000  0.04148000  1.0
  C  C24  1  0.07052000  0.50000000  0.20493000  1.0
  O  O25  1  0.16676000  0.50000000  0.24201000  1.0
