# generated using pymatgen
data_Li8Ni8Ge8Pd8CO
_symmetry_space_group_name_H-M   'P 1'
_cell_length_a   8.39836000
_cell_length_b   5.93854000
_cell_length_c   26.29880000
_cell_angle_alpha   90.00000000
_cell_angle_beta   90.00000000
_cell_angle_gamma   90.00000000
_symmetry_Int_Tables_number   1
_chemical_formula_structural   Li8Ni8Ge8Pd8CO
_chemical_formula_sum   'Li8 Ni8 Ge8 Pd8 C1 O1'
_cell_volume   1311.62626690
_cell_formula_units_Z   1
loop_
 _symmetry_equiv_pos_site_id
 _symmetry_equiv_pos_as_xyz
  1  'x, y, z'
loop_
 _atom_site_type_symbol
 _atom_site_label
 _atom_site_symmetry_multiplicity
 _atom_site_fract_x
 _atom_site_fract_y
 _atom_site_fract_z
 _atom_site_occupancy
  Li  Li0  1  0.75001000  0.00000000  0.03992000  1.0
  Li  Li1  1  0.24999000  0.00000000  0.03992000  1.0
  Li  Li2  1  0.00000000  0.50000000  0.11975000  1.0
  Li  Li3  1  0.50000000  0.50000000  0.11975000  1.0
  Li  Li4  1  0.24570000  0.98819000  0.86618000  1.0
  Li  Li5  1  0.75430000  0.98819000  0.86618000  1.0
  Li  Li6  1  0.50000000  0.49932000  0.96151000  1.0
  Li  Li7  1  0.00000000  0.49615000  0.96406000  1.0
  Ni  Ni8  1  0.50000000  0.75000000  0.03992000  1.0
  Ni  Ni9  1  0.00000000  0.75000000  0.03992000  1.0
  Ni  Ni10  1  0.75001000  0.25000000  0.11975000  1.0
  Ni  Ni11  1  0.24999000  0.25000000  0.11975000  1.0
  Ni  Ni12  1  0.00000000  0.71958000  0.88946000  1.0
  Ni  Ni13  1  0.50000000  0.74238000  0.88052000  1.0
  Ni  Ni14  1  0.25102000  0.24577000  0.95945000  1.0
  Ni  Ni15  1  0.74898000  0.24577000  0.95945000  1.0
  Ge  Ge16  1  0.50000000  0.00000000  0.11975000  1.0
  Ge  Ge17  1  0.00000000  1.00000000  0.11975000  1.0
  Ge  Ge18  1  0.25001000  0.50000000  0.03992000  1.0
  Ge  Ge19  1  0.74999000  0.50000000  0.03992000  1.0
  Ge  Ge20  1  0.00000000  0.99607000  0.95910000  1.0
  Ge  Ge21  1  0.50000000  0.00432000  0.96004000  1.0
  Ge  Ge22  1  0.75384000  0.50056000  0.87972000  1.0
  Ge  Ge23  1  0.24616000  0.50056000  0.87972000  1.0
  Pd  Pd24  1  0.50000000  0.25000000  0.03992000  1.0
  Pd  Pd25  1  0.00000000  0.25000000  0.03992000  1.0
  Pd  Pd26  1  0.75001000  0.75000000  0.11975000  1.0
  Pd  Pd27  1  0.24999000  0.75000000  0.11975000  1.0
  Pd  Pd28  1  0.00000000  0.25768000  0.88482000  1.0
  Pd  Pd29  1  0.50000000  0.26724000  0.88398000  1.0
  Pd  Pd30  1  0.25490000  0.75190000  0.95924000  1.0
  Pd  Pd31  1  0.74510000  0.75190000  0.95924000  1.0
  C  C32  1  0.50000000  0.86051000  0.81896000  1.0
  O  O33  1  0.50000000  0.90136000  0.77560000  1.0
