# generated using pymatgen
data_Cu12Pt4CO
_symmetry_space_group_name_H-M   Pmm2
_cell_length_a   5.32133000
_cell_length_b   7.52549000
_cell_length_c   23.99100000
_cell_angle_alpha   90.00000000
_cell_angle_beta   90.00000000
_cell_angle_gamma   90.00000000
_symmetry_Int_Tables_number   25
_chemical_formula_structural   Cu12Pt4CO
_chemical_formula_sum   'Cu12 Pt4 C1 O1'
_cell_volume   960.73436630
_cell_formula_units_Z   1
loop_
 _symmetry_equiv_pos_site_id
 _symmetry_equiv_pos_as_xyz
  1  'x, y, z'
  2  '-x, -y, z'
  3  '-x, y, z'
  4  'x, -y, z'
loop_
 _atom_site_type_symbol
 _atom_site_label
 _atom_site_symmetry_multiplicity
 _atom_site_fract_x
 _atom_site_fract_y
 _atom_site_fract_z
 _atom_site_occupancy
  Cu  Cu0  4  0.24963000  0.25022000  0.97167000  1.0
  Cu  Cu1  4  0.25000000  0.25000000  0.08318000  1.0
  Cu  Cu2  1  0.00000000  0.00000000  0.02773000  1.0
  Cu  Cu3  1  0.00000000  0.50000000  0.02773000  1.0
  Cu  Cu4  1  0.50000000  0.00000000  0.91807000  1.0
  Cu  Cu5  1  0.50000000  0.50000000  0.91935000  1.0
  Pt  Pt6  1  0.00000000  0.00000000  0.91994000  1.0
  Pt  Pt7  1  0.00000000  0.50000000  0.91987000  1.0
  Pt  Pt8  1  0.50000000  0.00000000  0.02773000  1.0
  Pt  Pt9  1  0.50000000  0.50000000  0.02773000  1.0
  C  C10  1  0.50000000  0.00000000  0.84092000  1.0
  O  O11  1  0.50000000  0.00000000  0.79320000  1.0
