# generated using pymatgen
data_Y8In8Au16C
_symmetry_space_group_name_H-M   Pmm2
_cell_length_a   7.06522000
_cell_length_b   9.99173000
_cell_length_c   27.49380000
_cell_angle_alpha   90.00000000
_cell_angle_beta   90.00000000
_cell_angle_gamma   90.00000000
_symmetry_Int_Tables_number   25
_chemical_formula_structural   Y8In8Au16C
_chemical_formula_sum   'Y8 In8 Au16 C1'
_cell_volume   1940.89101096
_cell_formula_units_Z   1
loop_
 _symmetry_equiv_pos_site_id
 _symmetry_equiv_pos_as_xyz
  1  'x, y, z'
  2  '-x, -y, z'
  3  '-x, y, z'
  4  'x, -y, z'
loop_
 _atom_site_type_symbol
 _atom_site_label
 _atom_site_symmetry_multiplicity
 _atom_site_fract_x
 _atom_site_fract_y
 _atom_site_fract_z
 _atom_site_occupancy
  Y  Y0  2  0.50000000  0.23403000  0.13070000  1.0
  Y  Y1  2  0.50000000  0.25000000  0.95457000  1.0
  Y  Y2  1  0.00000000  0.00000000  0.04969000  1.0
  Y  Y3  1  0.00000000  0.00000000  0.86372000  1.0
  Y  Y4  1  0.00000000  0.50000000  0.04917000  1.0
  Y  Y5  1  0.00000000  0.50000000  0.86372000  1.0
  In  In6  2  0.00000000  0.25000000  0.95457000  1.0
  In  In7  2  0.00000000  0.26345000  0.14111000  1.0
  In  In8  1  0.50000000  0.00000000  0.04501000  1.0
  In  In9  1  0.50000000  0.00000000  0.86372000  1.0
  In  In10  1  0.50000000  0.50000000  0.04323000  1.0
  In  In11  1  0.50000000  0.50000000  0.86372000  1.0
  Au  Au12  4  0.24384000  0.25050000  0.04405000  1.0
  Au  Au13  4  0.25000000  0.25000000  0.86372000  1.0
  Au  Au14  2  0.19699000  0.00000000  0.14889000  1.0
  Au  Au15  2  0.25000000  0.00000000  0.95457000  1.0
  Au  Au16  2  0.25000000  0.50000000  0.95457000  1.0
  Au  Au17  2  0.26446000  0.50000000  0.13747000  1.0
  C  C18  1  0.50000000  0.00000000  0.13232000  1.0
