# generated using pymatgen
data_Cu8Ni16Sn8C
_symmetry_space_group_name_H-M   Pmm2
_cell_length_a   6.01864000
_cell_length_b   8.51164000
_cell_length_c   26.38370000
_cell_angle_alpha   90.00000000
_cell_angle_beta   90.00000000
_cell_angle_gamma   90.00000000
_symmetry_Int_Tables_number   25
_chemical_formula_structural   Cu8Ni16Sn8C
_chemical_formula_sum   'Cu8 Ni16 Sn8 C1'
_cell_volume   1351.59729550
_cell_formula_units_Z   1
loop_
 _symmetry_equiv_pos_site_id
 _symmetry_equiv_pos_as_xyz
  1  'x, y, z'
  2  '-x, -y, z'
  3  '-x, y, z'
  4  'x, -y, z'
loop_
 _atom_site_type_symbol
 _atom_site_label
 _atom_site_symmetry_multiplicity
 _atom_site_fract_x
 _atom_site_fract_y
 _atom_site_fract_z
 _atom_site_occupancy
  Cu  Cu0  2  0.50000000  0.23471000  0.12436000  1.0
  Cu  Cu1  2  0.50000000  0.24999000  0.95967000  1.0
  Cu  Cu2  1  0.00000000  0.00000000  0.03876000  1.0
  Cu  Cu3  1  0.00000000  0.00000000  0.87902000  1.0
  Cu  Cu4  1  0.00000000  0.50000000  0.04086000  1.0
  Cu  Cu5  1  0.00000000  0.50000000  0.87902000  1.0
  Ni  Ni6  4  0.23989000  0.24910000  0.04349000  1.0
  Ni  Ni7  4  0.25000000  0.25001000  0.87902000  1.0
  Ni  Ni8  2  0.21445000  0.00000000  0.12087000  1.0
  Ni  Ni9  2  0.25000000  0.00000000  0.95967000  1.0
  Ni  Ni10  2  0.25000000  0.50000000  0.95967000  1.0
  Ni  Ni11  2  0.26947000  0.50000000  0.11799000  1.0
  Sn  Sn12  2  0.00000000  0.25001000  0.95967000  1.0
  Sn  Sn13  2  0.00000000  0.26503000  0.13172000  1.0
  Sn  Sn14  1  0.50000000  0.00000000  0.03914000  1.0
  Sn  Sn15  1  0.50000000  0.00000000  0.87902000  1.0
  Sn  Sn16  1  0.50000000  0.50000000  0.03819000  1.0
  Sn  Sn17  1  0.50000000  0.50000000  0.87902000  1.0
  C  C18  1  0.50000000  0.00000000  0.13842000  1.0
