# generated using pymatgen
data_Li8Y8In8Cu8CO
_symmetry_space_group_name_H-M   'P 1'
_cell_length_a   9.45282000
_cell_length_b   6.68415000
_cell_length_c   27.08960000
_cell_angle_alpha   90.00000000
_cell_angle_beta   90.00000000
_cell_angle_gamma   90.00000000
_symmetry_Int_Tables_number   1
_chemical_formula_structural   Li8Y8In8Cu8CO
_chemical_formula_sum   'Li8 Y8 In8 Cu8 C1 O1'
_cell_volume   1711.63109607
_cell_formula_units_Z   1
loop_
 _symmetry_equiv_pos_site_id
 _symmetry_equiv_pos_as_xyz
  1  'x, y, z'
loop_
 _atom_site_type_symbol
 _atom_site_label
 _atom_site_symmetry_multiplicity
 _atom_site_fract_x
 _atom_site_fract_y
 _atom_site_fract_z
 _atom_site_occupancy
  Li  Li0  1  0.25000000  0.00000000  0.04362000  1.0
  Li  Li1  1  0.75000000  0.00000000  0.04362000  1.0
  Li  Li2  1  0.50000000  0.50000000  0.13085000  1.0
  Li  Li3  1  0.00000000  0.50000000  0.13085000  1.0
  Li  Li4  1  0.75082000  0.17829000  0.81659000  1.0
  Li  Li5  1  0.24918000  0.17829000  0.81659000  1.0
  Li  Li6  1  0.00000000  0.50594000  0.95301000  1.0
  Li  Li7  1  0.50000000  0.51053000  0.95273000  1.0
  Y  Y8  1  0.00000000  0.75000000  0.04362000  1.0
  Y  Y9  1  0.50000000  0.75000000  0.04362000  1.0
  Y  Y10  1  0.25000000  0.25000000  0.13085000  1.0
  Y  Y11  1  0.75000000  0.25000000  0.13085000  1.0
  Y  Y12  1  0.50000000  0.79612000  0.86773000  1.0
  Y  Y13  1  0.00000000  0.79770000  0.86888000  1.0
  Y  Y14  1  0.74848000  0.23906000  0.94968000  1.0
  Y  Y15  1  0.25152000  0.23906000  0.94968000  1.0
  In  In16  1  0.00000000  0.25000000  0.04362000  1.0
  In  In17  1  0.50000000  0.25000000  0.04362000  1.0
  In  In18  1  0.25000000  0.75000000  0.13085000  1.0
  In  In19  1  0.75000000  0.75000000  0.13085000  1.0
  In  In20  1  0.50000000  0.28113000  0.86484000  1.0
  In  In21  1  0.00000000  0.28087000  0.86526000  1.0
  In  In22  1  0.75018000  0.75315000  0.95680000  1.0
  In  In23  1  0.24982000  0.75315000  0.95680000  1.0
  Cu  Cu24  1  0.00000000  0.00000000  0.13085000  1.0
  Cu  Cu25  1  0.50000000  0.00000000  0.13085000  1.0
  Cu  Cu26  1  0.75000000  0.50000000  0.04362000  1.0
  Cu  Cu27  1  0.25000000  0.50000000  0.04362000  1.0
  Cu  Cu28  1  0.50000000  0.99854000  0.95858000  1.0
  Cu  Cu29  1  0.00000000  0.00659000  0.96046000  1.0
  Cu  Cu30  1  0.25094000  0.52184000  0.87259000  1.0
  Cu  Cu31  1  0.74906000  0.52184000  0.87259000  1.0
  C  C32  1  0.00000000  0.68845000  0.78199000  1.0
  O  O33  1  0.00000000  0.63812000  0.74113000  1.0
