# generated using pymatgen
data_Li8Y8In8Cu8CO
_symmetry_space_group_name_H-M   Pm
_cell_length_a   6.68415000
_cell_length_b   9.45282000
_cell_length_c   27.08960000
_cell_angle_alpha   90.00000000
_cell_angle_beta   90.00000000
_cell_angle_gamma   90.00000000
_symmetry_Int_Tables_number   6
_chemical_formula_structural   Li8Y8In8Cu8CO
_chemical_formula_sum   'Li8 Y8 In8 Cu8 C1 O1'
_cell_volume   1711.63109607
_cell_formula_units_Z   1
loop_
 _symmetry_equiv_pos_site_id
 _symmetry_equiv_pos_as_xyz
  1  'x, y, z'
  2  'x, -y, z'
loop_
 _atom_site_type_symbol
 _atom_site_label
 _atom_site_symmetry_multiplicity
 _atom_site_fract_x
 _atom_site_fract_y
 _atom_site_fract_z
 _atom_site_occupancy
  Li  Li0  2  0.00000000  0.25000000  0.95638000  1.0
  Li  Li1  2  0.17829000  0.24918000  0.18341000  1.0
  Li  Li2  1  0.50000000  0.00000000  0.86915000  1.0
  Li  Li3  1  0.50000000  0.50000000  0.86915000  1.0
  Li  Li4  1  0.50594000  0.00000000  0.04699000  1.0
  Li  Li5  1  0.51053000  0.50000000  0.04727000  1.0
  Y  Y6  2  0.23906000  0.25152000  0.05032000  1.0
  Y  Y7  2  0.25000000  0.25000000  0.86915000  1.0
  Y  Y8  1  0.75000000  0.00000000  0.95638000  1.0
  Y  Y9  1  0.75000000  0.50000000  0.95638000  1.0
  Y  Y10  1  0.79612000  0.50000000  0.13227000  1.0
  Y  Y11  1  0.79770000  0.00000000  0.13112000  1.0
  In  In12  2  0.75000000  0.25000000  0.86915000  1.0
  In  In13  2  0.75315000  0.24982000  0.04320000  1.0
  In  In14  1  0.25000000  0.00000000  0.95638000  1.0
  In  In15  1  0.25000000  0.50000000  0.95638000  1.0
  In  In16  1  0.28087000  0.00000000  0.13474000  1.0
  In  In17  1  0.28113000  0.50000000  0.13516000  1.0
  Cu  Cu18  2  0.50000000  0.25000000  0.95638000  1.0
  Cu  Cu19  2  0.52184000  0.25094000  0.12741000  1.0
  Cu  Cu20  1  0.00000000  0.00000000  0.86915000  1.0
  Cu  Cu21  1  0.00000000  0.50000000  0.86915000  1.0
  Cu  Cu22  1  0.00659000  0.00000000  0.03954000  1.0
  Cu  Cu23  1  0.99854000  0.50000000  0.04142000  1.0
  C  C24  1  0.68845000  0.00000000  0.21801000  1.0
  O  O25  1  0.63812000  0.00000000  0.25887000  1.0
