# generated using pymatgen
data_Li16Ag8Bi8C
_symmetry_space_group_name_H-M   Pm
_cell_length_a   6.92564000
_cell_length_b   9.79433000
_cell_length_c   27.34580000
_cell_angle_alpha   90.00000000
_cell_angle_beta   90.00000000
_cell_angle_gamma   90.00000000
_symmetry_Int_Tables_number   6
_chemical_formula_structural   Li16Ag8Bi8C
_chemical_formula_sum   'Li16 Ag8 Bi8 C1'
_cell_volume   1854.92040462
_cell_formula_units_Z   1
loop_
 _symmetry_equiv_pos_site_id
 _symmetry_equiv_pos_as_xyz
  1  'x, y, z'
  2  'x, -y, z'
loop_
 _atom_site_type_symbol
 _atom_site_label
 _atom_site_symmetry_multiplicity
 _atom_site_fract_x
 _atom_site_fract_y
 _atom_site_fract_z
 _atom_site_occupancy
  Li  Li0  2  0.25000000  0.24999000  0.95523000  1.0
  Li  Li1  2  0.28087000  0.21251000  0.13546000  1.0
  Li  Li2  2  0.48737000  0.26639000  0.03933000  1.0
  Li  Li3  2  0.50000000  0.24999000  0.86569000  1.0
  Li  Li4  1  -0.00000000  0.50000000  0.95523000  1.0
  Li  Li5  1  -0.00000000  0.00000000  0.95523000  1.0
  Li  Li6  1  0.01125000  0.50000000  0.12280000  1.0
  Li  Li7  1  0.72397000  0.00000000  0.05014000  1.0
  Li  Li8  1  0.74391000  0.50000000  0.04742000  1.0
  Li  Li9  1  0.75000000  0.00000000  0.86569000  1.0
  Li  Li10  1  0.75000000  0.50000000  0.86569000  1.0
  Li  Li11  1  0.98867000  0.00000000  0.13085000  1.0
  Ag  Ag12  2  0.71972000  0.25981000  0.12250000  1.0
  Ag  Ag13  2  0.75000000  0.25001000  0.95523000  1.0
  Ag  Ag14  1  0.24577000  0.50000000  0.04170000  1.0
  Ag  Ag15  1  0.25000000  0.00000000  0.86569000  1.0
  Ag  Ag16  1  0.25000000  0.50000000  0.86569000  1.0
  Ag  Ag17  1  0.29192000  0.00000000  0.05495000  1.0
  Bi  Bi18  2  0.00000000  0.24999000  0.86569000  1.0
  Bi  Bi19  2  0.00843000  0.24490000  0.04574000  1.0
  Bi  Bi20  1  0.47313000  0.50000000  0.13576000  1.0
  Bi  Bi21  1  0.50000000  0.00000000  0.95523000  1.0
  Bi  Bi22  1  0.50000000  0.50000000  0.95523000  1.0
  Bi  Bi23  1  0.57625000  0.00000000  0.16413000  1.0
  C  C24  1  0.27301000  0.00000000  0.13942000  1.0
