# generated using pymatgen
data_Ga16Rh16C
_symmetry_space_group_name_H-M   Pm
_cell_length_a   6.09666000
_cell_length_b   8.62198000
_cell_length_c   26.46650000
_cell_angle_alpha   90.00000000
_cell_angle_beta   90.00000000
_cell_angle_gamma   90.00000000
_symmetry_Int_Tables_number   6
_chemical_formula_structural   Ga16Rh16C
_chemical_formula_sum   'Ga16 Rh16 C1'
_cell_volume   1391.21899865
_cell_formula_units_Z   1
loop_
 _symmetry_equiv_pos_site_id
 _symmetry_equiv_pos_as_xyz
  1  'x, y, z'
  2  'x, -y, z'
loop_
 _atom_site_type_symbol
 _atom_site_label
 _atom_site_symmetry_multiplicity
 _atom_site_fract_x
 _atom_site_fract_y
 _atom_site_fract_z
 _atom_site_occupancy
  Ga  Ga0  2  0.00000000  0.25000000  0.87784000  1.0
  Ga  Ga1  2  0.50000000  0.25000000  0.87784000  1.0
  Ga  Ga2  2  0.50260000  0.24968000  0.04062000  1.0
  Ga  Ga3  2  0.99724000  0.24968000  0.04062000  1.0
  Ga  Ga4  1  0.00000000  0.00000000  0.95928000  1.0
  Ga  Ga5  1  0.00000000  0.50000000  0.95928000  1.0
  Ga  Ga6  1  0.00710000  0.50000000  0.12914000  1.0
  Ga  Ga7  1  0.49239000  0.50000000  0.12915000  1.0
  Ga  Ga8  1  0.50000000  0.00000000  0.95928000  1.0
  Ga  Ga9  1  0.50000000  0.50000000  0.95928000  1.0
  Ga  Ga10  1  0.55202000  0.00000000  0.13812000  1.0
  Ga  Ga11  1  0.94651000  0.00000000  0.13833000  1.0
  Rh  Rh12  2  0.24965000  0.25014000  0.11585000  1.0
  Rh  Rh13  2  0.25000000  0.25000000  0.95928000  1.0
  Rh  Rh14  2  0.74970000  0.26030000  0.11770000  1.0
  Rh  Rh15  2  0.75000000  0.25000000  0.95928000  1.0
  Rh  Rh16  1  0.24975000  0.00000000  0.03944000  1.0
  Rh  Rh17  1  0.24991000  0.50000000  0.03891000  1.0
  Rh  Rh18  1  0.25000000  0.00000000  0.87784000  1.0
  Rh  Rh19  1  0.25000000  0.50000000  0.87784000  1.0
  Rh  Rh20  1  0.74981000  0.00000000  0.03847000  1.0
  Rh  Rh21  1  0.74993000  0.50000000  0.03749000  1.0
  Rh  Rh22  1  0.75000000  0.00000000  0.87784000  1.0
  Rh  Rh23  1  0.75000000  0.50000000  0.87784000  1.0
  C  C24  1  0.24904000  0.00000000  0.12109000  1.0
