# generated using pymatgen
data_Li8Nb8Al8Pd8CO
_symmetry_space_group_name_H-M   Pm
_cell_length_a   6.26744000
_cell_length_b   8.86350000
_cell_length_c   26.64760000
_cell_angle_alpha   90.00000000
_cell_angle_beta   90.00000000
_cell_angle_gamma   90.00000000
_symmetry_Int_Tables_number   6
_chemical_formula_structural   Li8Nb8Al8Pd8CO
_chemical_formula_sum   'Li8 Nb8 Al8 Pd8 C1 O1'
_cell_volume   1480.31293734
_cell_formula_units_Z   1
loop_
 _symmetry_equiv_pos_site_id
 _symmetry_equiv_pos_as_xyz
  1  'x, y, z'
  2  'x, -y, z'
loop_
 _atom_site_type_symbol
 _atom_site_label
 _atom_site_symmetry_multiplicity
 _atom_site_fract_x
 _atom_site_fract_y
 _atom_site_fract_z
 _atom_site_occupancy
  Li  Li0  2  0.75000000  0.24998000  0.87527000  1.0
  Li  Li1  2  0.75059000  0.25007000  0.04178000  1.0
  Li  Li2  1  0.25000000  0.00000000  0.95842000  1.0
  Li  Li3  1  0.25000000  0.50000000  0.95842000  1.0
  Li  Li4  1  0.30961000  0.00000000  0.16548000  1.0
  Li  Li5  1  0.32759000  0.50000000  0.16943000  1.0
  Nb  Nb6  2  -0.00000000  0.24998000  0.95842000  1.0
  Nb  Nb7  2  0.02416000  0.25098000  0.11999000  1.0
  Nb  Nb8  1  0.49321000  0.50000000  0.04615000  1.0
  Nb  Nb9  1  0.49427000  0.00000000  0.04555000  1.0
  Nb  Nb10  1  0.50000000  0.00000000  0.87527000  1.0
  Nb  Nb11  1  0.50000000  0.50000000  0.87527000  1.0
  Al  Al12  2  0.50000000  0.25002000  0.95842000  1.0
  Al  Al13  2  0.50573000  0.24924000  0.12457000  1.0
  Al  Al14  1  -0.00000000  0.00000000  0.87527000  1.0
  Al  Al15  1  0.00000000  0.50000000  0.87527000  1.0
  Al  Al16  1  0.00781000  0.00000000  0.04229000  1.0
  Al  Al17  1  0.00835000  0.50000000  0.04218000  1.0
  Pd  Pd18  2  0.25000000  0.24998000  0.87527000  1.0
  Pd  Pd19  2  0.25283000  0.24916000  0.03862000  1.0
  Pd  Pd20  1  0.75000000  0.00000000  0.95842000  1.0
  Pd  Pd21  1  0.75000000  0.50000000  0.95842000  1.0
  Pd  Pd22  1  0.77079000  0.50000000  0.11876000  1.0
  Pd  Pd23  1  0.77171000  0.00000000  0.11885000  1.0
  C  C24  1  0.21614000  0.50000000  0.24372000  1.0
  O  O25  1  0.12650000  0.50000000  0.28096000  1.0
