# generated using pymatgen
data_Zn8Ni16Ge8CO
_symmetry_space_group_name_H-M   P1
_cell_length_a   5.88011000
_cell_length_b   8.31574000
_cell_length_c   26.23680000
_cell_angle_alpha   90.00000000
_cell_angle_beta   90.00000000
_cell_angle_gamma   90.00000000
_symmetry_Int_Tables_number   1
_chemical_formula_structural   Zn8Ni16Ge8CO
_chemical_formula_sum   'Zn8 Ni16 Ge8 C1 O1'
_cell_volume   1282.91303415
_cell_formula_units_Z   1
loop_
 _symmetry_equiv_pos_site_id
 _symmetry_equiv_pos_as_xyz
  1  'x, y, z'
loop_
 _atom_site_type_symbol
 _atom_site_label
 _atom_site_symmetry_multiplicity
 _atom_site_fract_x
 _atom_site_fract_y
 _atom_site_fract_z
 _atom_site_occupancy
  Zn  Zn0  1  0.00000000  0.00000000  0.88114000  1.0
  Zn  Zn1  1  0.00000000  0.50000000  0.88114000  1.0
  Zn  Zn2  1  0.00000000  0.99999000  0.03721000  1.0
  Zn  Zn3  1  0.00001000  0.50025000  0.03711000  1.0
  Zn  Zn4  1  0.50000000  0.25000000  0.96038000  1.0
  Zn  Zn5  1  0.50000000  0.75000000  0.96038000  1.0
  Zn  Zn6  1  0.50001000  0.24973000  0.12632000  1.0
  Zn  Zn7  1  0.50001000  0.75032000  0.12627000  1.0
  Ni  Ni8  1  0.23891000  0.99919000  0.11314000  1.0
  Ni  Ni9  1  0.23895000  0.50053000  0.11312000  1.0
  Ni  Ni10  1  0.25000000  0.00000000  0.96038000  1.0
  Ni  Ni11  1  0.25000000  0.25000000  0.88114000  1.0
  Ni  Ni12  1  0.25000000  0.50000000  0.96038000  1.0
  Ni  Ni13  1  0.25000000  0.75000000  0.88114000  1.0
  Ni  Ni14  1  0.25220000  0.75055000  0.03852000  1.0
  Ni  Ni15  1  0.25274000  0.24966000  0.03856000  1.0
  Ni  Ni16  1  0.74728000  0.24966000  0.03856000  1.0
  Ni  Ni17  1  0.74781000  0.75055000  0.03852000  1.0
  Ni  Ni18  1  0.75000000  0.00000000  0.96038000  1.0
  Ni  Ni19  1  0.75000000  0.25000000  0.88114000  1.0
  Ni  Ni20  1  0.75000000  0.50000000  0.96038000  1.0
  Ni  Ni21  1  0.75000000  0.75000000  0.88114000  1.0
  Ni  Ni22  1  0.76107000  0.50052000  0.11312000  1.0
  Ni  Ni23  1  0.76112000  0.99918000  0.11315000  1.0
  Ge  Ge24  1  0.00000000  0.25000000  0.96038000  1.0
  Ge  Ge25  1  0.00000000  0.74965000  0.12116000  1.0
  Ge  Ge26  1  0.00000000  0.75000000  0.96038000  1.0
  Ge  Ge27  1  0.00001000  0.25017000  0.12035000  1.0
  Ge  Ge28  1  0.50000000  0.00000000  0.88114000  1.0
  Ge  Ge29  1  0.50000000  0.50000000  0.88114000  1.0
  Ge  Ge30  1  0.50000000  0.99936000  0.04108000  1.0
  Ge  Ge31  1  0.50001000  0.50069000  0.04135000  1.0
  C  C32  1  0.99940000  0.24990000  0.27165000  1.0
  O  O33  1  0.00010000  0.24992000  0.31491000  1.0
