# generated using pymatgen
data_Li8Si8Ni16C
_symmetry_space_group_name_H-M   'P 1'
_cell_length_a   7.88925000
_cell_length_b   5.57854000
_cell_length_c   25.91690000
_cell_angle_alpha   90.00000000
_cell_angle_beta   90.00000000
_cell_angle_gamma   90.00000000
_symmetry_Int_Tables_number   1
_chemical_formula_structural   Li8Si8Ni16C
_chemical_formula_sum   'Li8 Si8 Ni16 C1'
_cell_volume   1140.61564179
_cell_formula_units_Z   1
loop_
 _symmetry_equiv_pos_site_id
 _symmetry_equiv_pos_as_xyz
  1  'x, y, z'
loop_
 _atom_site_type_symbol
 _atom_site_label
 _atom_site_symmetry_multiplicity
 _atom_site_fract_x
 _atom_site_fract_y
 _atom_site_fract_z
 _atom_site_occupancy
  Li  Li0  1  0.74999000  0.00000000  0.11415000  1.0
  Li  Li1  1  0.00000000  0.50000000  0.03805000  1.0
  Li  Li2  1  0.50000000  0.50000000  0.03805000  1.0
  Li  Li3  1  0.25001000  0.00000000  0.11415000  1.0
  Li  Li4  1  0.24992000  0.00299000  0.96356000  1.0
  Li  Li5  1  0.50000000  0.48948000  0.86115000  1.0
  Li  Li6  1  0.00000000  0.55291000  0.83390000  1.0
  Li  Li7  1  0.75008000  0.00299000  0.96356000  1.0
  Si  Si8  1  0.50000000  0.00000000  0.03805000  1.0
  Si  Si9  1  0.74999000  0.50000000  0.11415000  1.0
  Si  Si10  1  0.00000000  0.00000000  0.03805000  1.0
  Si  Si11  1  0.25001000  0.50000000  0.11415000  1.0
  Si  Si12  1  0.00000000  0.93586000  0.88736000  1.0
  Si  Si13  1  0.25123000  0.49989000  0.96309000  1.0
  Si  Si14  1  0.50000000  0.00321000  0.88891000  1.0
  Si  Si15  1  0.74877000  0.49989000  0.96309000  1.0
  Ni  Ni16  1  0.74999000  0.25000000  0.03805000  1.0
  Ni  Ni17  1  0.24999000  0.75000000  0.03805000  1.0
  Ni  Ni18  1  0.75001000  0.75000000  0.03805000  1.0
  Ni  Ni19  1  0.25001000  0.25000000  0.03805000  1.0
  Ni  Ni20  1  0.50000000  0.75000000  0.11415000  1.0
  Ni  Ni21  1  0.00000000  0.25000000  0.11415000  1.0
  Ni  Ni22  1  0.50000000  0.25000000  0.11415000  1.0
  Ni  Ni23  1  0.00000000  0.75000000  0.11415000  1.0
  Ni  Ni24  1  0.23806000  0.25575000  0.88911000  1.0
  Ni  Ni25  1  0.74119000  0.75221000  0.89143000  1.0
  Ni  Ni26  1  0.25881000  0.75221000  0.89143000  1.0
  Ni  Ni27  1  0.76194000  0.25575000  0.88911000  1.0
  Ni  Ni28  1  0.00000000  0.73965000  0.96454000  1.0
  Ni  Ni29  1  0.50000000  0.26067000  0.95942000  1.0
  Ni  Ni30  1  0.00000000  0.25525000  0.95985000  1.0
  Ni  Ni31  1  0.50000000  0.74593000  0.96211000  1.0
  C  C32  1  0.00000000  0.25810000  0.87735000  1.0
