# generated using pymatgen
data_Li8Si8Ni16C
_symmetry_space_group_name_H-M   Pm
_cell_length_a   5.57854000
_cell_length_b   7.88925000
_cell_length_c   25.91690000
_cell_angle_alpha   90.00000000
_cell_angle_beta   90.00000000
_cell_angle_gamma   90.00000000
_symmetry_Int_Tables_number   6
_chemical_formula_structural   Li8Si8Ni16C
_chemical_formula_sum   'Li8 Si8 Ni16 C1'
_cell_volume   1140.61564179
_cell_formula_units_Z   1
loop_
 _symmetry_equiv_pos_site_id
 _symmetry_equiv_pos_as_xyz
  1  'x, y, z'
  2  'x, -y, z'
loop_
 _atom_site_type_symbol
 _atom_site_label
 _atom_site_symmetry_multiplicity
 _atom_site_fract_x
 _atom_site_fract_y
 _atom_site_fract_z
 _atom_site_occupancy
  Li  Li0  2  0.00000000  0.25001000  0.88585000  1.0
  Li  Li1  2  0.00299000  0.24992000  0.03644000  1.0
  Li  Li2  1  0.48948000  0.50000000  0.13885000  1.0
  Li  Li3  1  0.50000000  0.00000000  0.96195000  1.0
  Li  Li4  1  0.50000000  0.50000000  0.96195000  1.0
  Li  Li5  1  0.55291000  0.00000000  0.16610000  1.0
  Si  Si6  2  0.49989000  0.25123000  0.03691000  1.0
  Si  Si7  2  0.50000000  0.25001000  0.88585000  1.0
  Si  Si8  1  0.00000000  0.00000000  0.96195000  1.0
  Si  Si9  1  0.00000000  0.50000000  0.96195000  1.0
  Si  Si10  1  0.00321000  0.50000000  0.11109000  1.0
  Si  Si11  1  0.93586000  0.00000000  0.11264000  1.0
  Ni  Ni12  2  0.25000000  0.25001000  0.96195000  1.0
  Ni  Ni13  2  0.25575000  0.23806000  0.11089000  1.0
  Ni  Ni14  2  0.75000000  0.24999000  0.96195000  1.0
  Ni  Ni15  2  0.75221000  0.25881000  0.10857000  1.0
  Ni  Ni16  1  0.25000000  0.00000000  0.88585000  1.0
  Ni  Ni17  1  0.25000000  0.50000000  0.88585000  1.0
  Ni  Ni18  1  0.25525000  0.00000000  0.04015000  1.0
  Ni  Ni19  1  0.26067000  0.50000000  0.04058000  1.0
  Ni  Ni20  1  0.73965000  0.00000000  0.03546000  1.0
  Ni  Ni21  1  0.74593000  0.50000000  0.03789000  1.0
  Ni  Ni22  1  0.75000000  0.00000000  0.88585000  1.0
  Ni  Ni23  1  0.75000000  0.50000000  0.88585000  1.0
  C  C24  1  0.25810000  0.00000000  0.12265000  1.0
