# generated using pymatgen
data_Li8In8Cu8Au8CO
_symmetry_space_group_name_H-M   'P 1'
_cell_length_a   9.06686000
_cell_length_b   6.41124000
_cell_length_c   26.80010000
_cell_angle_alpha   90.00000000
_cell_angle_beta   90.00000000
_cell_angle_gamma   90.00000000
_symmetry_Int_Tables_number   1
_chemical_formula_structural   Li8In8Cu8Au8CO
_chemical_formula_sum   'Li8 In8 Cu8 Au8 C1 O1'
_cell_volume   1557.88486855
_cell_formula_units_Z   1
loop_
 _symmetry_equiv_pos_site_id
 _symmetry_equiv_pos_as_xyz
  1  'x, y, z'
loop_
 _atom_site_type_symbol
 _atom_site_label
 _atom_site_symmetry_multiplicity
 _atom_site_fract_x
 _atom_site_fract_y
 _atom_site_fract_z
 _atom_site_occupancy
  Li  Li0  1  0.00000000  0.75000000  0.04229000  1.0
  Li  Li1  1  0.50000000  0.75000000  0.04229000  1.0
  Li  Li2  1  0.25000000  0.25000000  0.12687000  1.0
  Li  Li3  1  0.75000000  0.25000000  0.12687000  1.0
  Li  Li4  1  0.50000000  0.64676000  0.83405000  1.0
  Li  Li5  1  0.00000000  0.74629000  0.86822000  1.0
  Li  Li6  1  0.74288000  0.23767000  0.95490000  1.0
  Li  Li7  1  0.25712000  0.23767000  0.95490000  1.0
  In  In8  1  0.25000000  1.00000000  0.04229000  1.0
  In  In9  1  0.75000000  1.00000000  0.04229000  1.0
  In  In10  1  0.50000000  0.50000000  0.12687000  1.0
  In  In11  1  0.00000000  0.50000000  0.12687000  1.0
  In  In12  1  0.72204000  0.97844000  0.86373000  1.0
  In  In13  1  0.27796000  0.97844000  0.86373000  1.0
  In  In14  1  0.00000000  0.49503000  0.95625000  1.0
  In  In15  1  0.50000000  0.52431000  0.95534000  1.0
  Cu  Cu16  1  0.00000000  0.25000000  0.04229000  1.0
  Cu  Cu17  1  0.50000000  0.25000000  0.04229000  1.0
  Cu  Cu18  1  0.25000000  0.75000000  0.12687000  1.0
  Cu  Cu19  1  0.75000000  0.75000000  0.12687000  1.0
  Cu  Cu20  1  0.50000000  0.25043000  0.87771000  1.0
  Cu  Cu21  1  0.00000000  0.23671000  0.87130000  1.0
  Cu  Cu22  1  0.75997000  0.75997000  0.95961000  1.0
  Cu  Cu23  1  0.24003000  0.75997000  0.95961000  1.0
  Au  Au24  1  0.00000000  0.00000000  0.12687000  1.0
  Au  Au25  1  0.50000000  1.00000000  0.12687000  1.0
  Au  Au26  1  0.75000000  0.50000000  0.04229000  1.0
  Au  Au27  1  0.25000000  0.50000000  0.04229000  1.0
  Au  Au28  1  0.50000000  0.98824000  0.95879000  1.0
  Au  Au29  1  0.00000000  0.00833000  0.95318000  1.0
  Au  Au30  1  0.25538000  0.50259000  0.87787000  1.0
  Au  Au31  1  0.74462000  0.50259000  0.87787000  1.0
  C  C32  1  0.00000000  0.28116000  0.80285000  1.0
  O  O33  1  0.00000000  0.30720000  0.76030000  1.0
