# generated using pymatgen
data_Li8Ga16Ru8C
_symmetry_space_group_name_H-M   'P 1'
_cell_length_a   6.09317000
_cell_length_b   8.61704000
_cell_length_c   26.46280000
_cell_angle_alpha   90.00000000
_cell_angle_beta   90.00000000
_cell_angle_gamma   90.00000000
_symmetry_Int_Tables_number   1
_chemical_formula_structural   Li8Ga16Ru8C
_chemical_formula_sum   'Li8 Ga16 Ru8 C1'
_cell_volume   1389.43168551
_cell_formula_units_Z   1
loop_
 _symmetry_equiv_pos_site_id
 _symmetry_equiv_pos_as_xyz
  1  'x, y, z'
loop_
 _atom_site_type_symbol
 _atom_site_label
 _atom_site_symmetry_multiplicity
 _atom_site_fract_x
 _atom_site_fract_y
 _atom_site_fract_z
 _atom_site_occupancy
  Li  Li0  1  0.00000000  0.00000000  0.87789000  1.0
  Li  Li1  1  0.50000000  0.25000000  0.95930000  1.0
  Li  Li2  1  0.50000000  0.75000000  0.95930000  1.0
  Li  Li3  1  0.00000000  0.50000000  0.87789000  1.0
  Li  Li4  1  0.00000000  0.50000000  0.03698000  1.0
  Li  Li5  1  0.50000000  0.76021000  0.13385000  1.0
  Li  Li6  1  0.50000000  0.23979000  0.13385000  1.0
  Li  Li7  1  0.00000000  0.00000000  0.04059000  1.0
  Ga  Ga8  1  0.25000000  0.00000000  0.95930000  1.0
  Ga  Ga9  1  0.75000000  0.50000000  0.95930000  1.0
  Ga  Ga10  1  0.75000000  0.00000000  0.95930000  1.0
  Ga  Ga11  1  0.25000000  0.50000000  0.95930000  1.0
  Ga  Ga12  1  0.75000000  0.75000000  0.87789000  1.0
  Ga  Ga13  1  0.25000000  0.25000000  0.87789000  1.0
  Ga  Ga14  1  0.25000000  0.75000000  0.87789000  1.0
  Ga  Ga15  1  0.75000000  0.25000000  0.87789000  1.0
  Ga  Ga16  1  0.23015000  0.50000000  0.12444000  1.0
  Ga  Ga17  1  0.79244000  0.00000000  0.13120000  1.0
  Ga  Ga18  1  0.76985000  0.50000000  0.12444000  1.0
  Ga  Ga19  1  0.20756000  0.00000000  0.13120000  1.0
  Ga  Ga20  1  0.74073000  0.24828000  0.03883000  1.0
  Ga  Ga21  1  0.25927000  0.75172000  0.03883000  1.0
  Ga  Ga22  1  0.25927000  0.24828000  0.03883000  1.0
  Ga  Ga23  1  0.74073000  0.75172000  0.03883000  1.0
  Ru  Ru24  1  0.00000000  0.75000000  0.95930000  1.0
  Ru  Ru25  1  0.50000000  0.00000000  0.87789000  1.0
  Ru  Ru26  1  0.00000000  0.25000000  0.95930000  1.0
  Ru  Ru27  1  0.50000000  0.50000000  0.87789000  1.0
  Ru  Ru28  1  0.00000000  0.25836000  0.11102000  1.0
  Ru  Ru29  1  0.50000000  0.50000000  0.04518000  1.0
  Ru  Ru30  1  0.00000000  0.74164000  0.11102000  1.0
  Ru  Ru31  1  0.50000000  0.00000000  0.04452000  1.0
  C  C32  1  0.50000000  0.00000000  0.15192000  1.0
