# generated using pymatgen
data_Ti4Al4Au8CO
_symmetry_space_group_name_H-M   P1
_cell_length_a   6.49880000
_cell_length_b   6.49880000
_cell_length_c   24.87410000
_cell_angle_alpha   90.00000000
_cell_angle_beta   90.00000000
_cell_angle_gamma   90.00000000
_symmetry_Int_Tables_number   1
_chemical_formula_structural   Ti4Al4Au8CO
_chemical_formula_sum   'Ti4 Al4 Au8 C1 O1'
_cell_volume   1050.54272486
_cell_formula_units_Z   1
loop_
 _symmetry_equiv_pos_site_id
 _symmetry_equiv_pos_as_xyz
  1  'x, y, z'
loop_
 _atom_site_type_symbol
 _atom_site_label
 _atom_site_symmetry_multiplicity
 _atom_site_fract_x
 _atom_site_fract_y
 _atom_site_fract_z
 _atom_site_occupancy
  Ti  Ti0  1  0.00000000  0.00000000  0.90202000  1.0
  Ti  Ti1  1  0.00940000  0.49063000  0.03512000  1.0
  Ti  Ti2  1  0.49207000  0.00800000  0.03435000  1.0
  Ti  Ti3  1  0.50000000  0.50000000  0.90202000  1.0
  Al  Al4  1  0.00000000  0.50000000  0.90202000  1.0
  Al  Al5  1  0.00414000  0.00712000  0.03741000  1.0
  Al  Al6  1  0.49294000  0.49592000  0.03744000  1.0
  Al  Al7  1  0.50000000  0.00000000  0.90202000  1.0
  Au  Au8  1  0.24759000  0.75268000  0.09599000  1.0
  Au  Au9  1  0.25000000  0.25000000  0.96734000  1.0
  Au  Au10  1  0.25000000  0.75000000  0.96734000  1.0
  Au  Au11  1  0.27893000  0.22107000  0.10865000  1.0
  Au  Au12  1  0.74731000  0.25243000  0.09599000  1.0
  Au  Au13  1  0.75000000  0.25000000  0.96734000  1.0
  Au  Au14  1  0.75000000  0.75000000  0.96734000  1.0
  Au  Au15  1  0.75187000  0.74830000  0.09353000  1.0
  C  C16  1  0.22172000  0.27714000  0.19344000  1.0
  O  O17  1  0.25764000  0.24218000  0.23755000  1.0
