# generated using pymatgen
data_Y4Sc4In4Pd4CO
_symmetry_space_group_name_H-M   Pm
_cell_length_a   6.98742000
_cell_length_b   7.36232000
_cell_length_c   25.23460000
_cell_angle_alpha   90.00000000
_cell_angle_beta   90.00000000
_cell_angle_gamma   90.00000000
_symmetry_Int_Tables_number   6
_chemical_formula_structural   Y4Sc4In4Pd4CO
_chemical_formula_sum   'Y4 Sc4 In4 Pd4 C1 O1'
_cell_volume   1298.15922408
_cell_formula_units_Z   1
loop_
 _symmetry_equiv_pos_site_id
 _symmetry_equiv_pos_as_xyz
  1  'x, y, z'
  2  'x, -y, z'
loop_
 _atom_site_type_symbol
 _atom_site_label
 _atom_site_symmetry_multiplicity
 _atom_site_fract_x
 _atom_site_fract_y
 _atom_site_fract_z
 _atom_site_occupancy
  Y  Y0  1  0.26196000  0.00000000  0.03457000  1.0
  Y  Y1  1  0.26196000  0.50000000  0.03457000  1.0
  Y  Y2  1  0.79139000  0.00000000  0.89249000  1.0
  Y  Y3  1  0.79467000  0.50000000  0.89266000  1.0
  Sc  Sc4  1  0.24320000  0.50000000  0.90360000  1.0
  Sc  Sc5  1  0.24762000  0.00000000  0.90505000  1.0
  Sc  Sc6  1  0.76196000  0.00000000  0.03457000  1.0
  Sc  Sc7  1  0.76196000  0.50000000  0.03457000  1.0
  In  In8  2  0.00000000  0.24999000  0.10372000  1.0
  In  In9  2  0.52354000  0.25077000  0.95667000  1.0
  Pd  Pd10  2  0.00339000  0.24111000  0.96322000  1.0
  Pd  Pd11  2  0.50000000  0.24999000  0.10372000  1.0
  C  C12  1  0.79946000  0.50000000  0.79572000  1.0
  O  O13  1  0.80069000  0.50000000  0.74992000  1.0
