# generated using pymatgen
data_HfGaCo2
_symmetry_space_group_name_H-M   'P 1'
_cell_length_a   4.26253160
_cell_length_b   4.26253160
_cell_length_c   24.52110000
_cell_angle_alpha   90.00000000
_cell_angle_beta   90.00000000
_cell_angle_gamma   90.00000000
_symmetry_Int_Tables_number   1
_chemical_formula_structural   HfGaCo2
_chemical_formula_sum   'Hf2 Ga2 Co4'
_cell_volume   445.52817299
_cell_formula_units_Z   2
loop_
 _symmetry_equiv_pos_site_id
 _symmetry_equiv_pos_as_xyz
  1  'x, y, z'
loop_
 _atom_site_type_symbol
 _atom_site_label
 _atom_site_symmetry_multiplicity
 _atom_site_fract_x
 _atom_site_fract_y
 _atom_site_fract_z
 _atom_site_occupancy
  Hf  Hf0  1  0.00000000  0.00000000  0.09219000  1.0
  Hf  Hf1  1  0.50000000  0.50000000  0.96927000  1.0
  Ga  Ga2  1  0.00000000  0.00000000  0.96927000  1.0
  Ga  Ga3  1  0.50000000  0.50000000  0.09219000  1.0
  Co  Co4  1  0.50000000  0.00000000  0.03073000  1.0
  Co  Co5  1  0.50000000  0.00000000  0.90781000  1.0
  Co  Co6  1  0.00000000  0.50000000  0.03073000  1.0
  Co  Co7  1  0.00000000  0.50000000  0.90781000  1.0
