data_image0
_chemical_formula_structural       Li4Ge4Pd4Pt4CO
_chemical_formula_sum              "Li4 Ge4 Pd4 Pt4 C1 O1"
_cell_length_a       6.12898
_cell_length_b       6.12898
_cell_length_c       24.5967
_cell_angle_alpha    90
_cell_angle_beta     90
_cell_angle_gamma    90

_space_group_name_H-M_alt    "P 1"
_space_group_IT_number       1

loop_
  _space_group_symop_operation_xyz
  'x, y, z'

loop_
  _atom_site_type_symbol
  _atom_site_label
  _atom_site_symmetry_multiplicity
  _atom_site_fract_x
  _atom_site_fract_y
  _atom_site_fract_z
  _atom_site_occupancy
  Li  Li1       1.0  1.00000  0.50000  0.10377  1.0000
  Li  Li2       1.0  0.00000  0.00000  0.96885  1.0000
  Li  Li3       1.0  0.50000  0.50000  0.96885  1.0000
  Li  Li4       1.0  0.50000  1.00000  0.10179  1.0000
  Ge  Ge1       1.0  0.00001  0.00001  0.09342  1.0000
  Ge  Ge2       1.0  0.00000  0.50000  0.96885  1.0000
  Ge  Ge3       1.0  0.50000  0.00000  0.96885  1.0000
  Ge  Ge4       1.0  0.50000  0.50000  0.09344  1.0000
  Pd  Pd1       1.0  0.75112  0.25117  0.03281  1.0000
  Pd  Pd2       1.0  0.75000  0.75000  0.90656  1.0000
  Pd  Pd3       1.0  0.25000  0.25000  0.90656  1.0000
  Pd  Pd4       1.0  0.24888  0.74883  0.03281  1.0000
  Pt  Pt1       1.0  0.25160  0.24839  0.03672  1.0000
  Pt  Pt2       1.0  0.25000  0.75000  0.90656  1.0000
  Pt  Pt3       1.0  0.75000  0.25000  0.90656  1.0000
  Pt  Pt4       1.0  0.74840  0.75161  0.03672  1.0000
  C   C1        1.0  0.00000  0.50000  0.19033  1.0000
  O   O1        1.0  0.00000  0.50000  0.23661  1.0000
