# generated using pymatgen
data_Li8Mg8In8Ge8CO
_symmetry_space_group_name_H-M   Pmm2
_cell_length_a   8.40992000
_cell_length_b   8.41850000
_cell_length_c   26.56300000
_cell_angle_alpha   90.00000000
_cell_angle_beta   90.00000000
_cell_angle_gamma   90.00000000
_symmetry_Int_Tables_number   25
_chemical_formula_structural   Li8Mg8In8Ge8CO
_chemical_formula_sum   'Li8 Mg8 In8 Ge8 C1 O1'
_cell_volume   1880.63148671
_cell_formula_units_Z   1
loop_
 _symmetry_equiv_pos_site_id
 _symmetry_equiv_pos_as_xyz
  1  'x, y, z'
  2  '-x, -y, z'
  3  '-x, y, z'
  4  'x, -y, z'
loop_
 _atom_site_type_symbol
 _atom_site_label
 _atom_site_symmetry_multiplicity
 _atom_site_fract_x
 _atom_site_fract_y
 _atom_site_fract_z
 _atom_site_occupancy
  Li  Li0  4  0.24998000  0.25000000  0.04118000  1.0
  Li  Li1  4  0.25057000  0.25015000  0.87348000  1.0
  Mg  Mg2  2  0.24844000  0.00000000  0.95474000  1.0
  Mg  Mg3  2  0.24912000  0.50000000  0.95495000  1.0
  Mg  Mg4  2  0.24998000  0.00000000  0.12354000  1.0
  Mg  Mg5  2  0.24998000  0.50000000  0.12354000  1.0
  In  In6  1  0.00000000  0.00000000  0.04118000  1.0
  In  In7  1  0.00000000  0.00000000  0.86017000  1.0
  In  In8  1  0.00000000  0.50000000  0.04118000  1.0
  In  In9  1  0.00000000  0.50000000  0.86155000  1.0
  In  In10  1  0.50000000  0.00000000  0.04118000  1.0
  In  In11  1  0.50000000  0.00000000  0.86383000  1.0
  In  In12  1  0.50000000  0.50000000  0.04118000  1.0
  In  In13  1  0.50000000  0.50000000  0.86295000  1.0
  Ge  Ge14  2  0.00000000  0.24934000  0.94771000  1.0
  Ge  Ge15  2  0.00000000  0.25000000  0.12354000  1.0
  Ge  Ge16  2  0.50000000  0.24977000  0.94987000  1.0
  Ge  Ge17  2  0.50000000  0.25000000  0.12354000  1.0
  C  C18  1  0.50000000  0.00000000  0.70743000  1.0
  O  O19  1  0.50000000  0.00000000  0.66462000  1.0
