# generated using pymatgen
data_Co32C
_symmetry_space_group_name_H-M   'P 1'
_cell_length_a   7.08058000
_cell_length_b   7.08058000
_cell_length_c   25.31040000
_cell_angle_alpha   90.00000000
_cell_angle_beta   90.00000000
_cell_angle_gamma   90.00000000
_symmetry_Int_Tables_number   1
_chemical_formula_structural   Co32C
_chemical_formula_sum   'Co32 C1'
_cell_volume   1268.92711233
_cell_formula_units_Z   1
loop_
 _symmetry_equiv_pos_site_id
 _symmetry_equiv_pos_as_xyz
  1  'x, y, z'
loop_
 _atom_site_type_symbol
 _atom_site_label
 _atom_site_symmetry_multiplicity
 _atom_site_fract_x
 _atom_site_fract_y
 _atom_site_fract_z
 _atom_site_occupancy
  Co  Co0  1  0.00000000  0.00000000  0.89509000  1.0
  Co  Co1  1  0.25000000  0.25000000  0.89509000  1.0
  Co  Co2  1  0.25000000  0.00000000  0.96503000  1.0
  Co  Co3  1  0.00000000  0.25000000  0.96503000  1.0
  Co  Co4  1  0.00000000  0.00000000  0.03497000  1.0
  Co  Co5  1  0.25000000  0.25000000  0.03497000  1.0
  Co  Co6  1  0.25000000  0.00000000  0.10491000  1.0
  Co  Co7  1  0.00000000  0.25000000  0.10491000  1.0
  Co  Co8  1  0.00000000  0.50000000  0.89509000  1.0
  Co  Co9  1  0.25000000  0.75000000  0.89509000  1.0
  Co  Co10  1  0.25000000  0.50000000  0.96503000  1.0
  Co  Co11  1  0.00000000  0.75000000  0.96503000  1.0
  Co  Co12  1  0.00000000  0.50000000  0.03497000  1.0
  Co  Co13  1  0.25000000  0.75000000  0.03497000  1.0
  Co  Co14  1  0.25000000  0.50000000  0.10491000  1.0
  Co  Co15  1  0.00000000  0.75000000  0.10491000  1.0
  Co  Co16  1  0.50000000  0.00000000  0.89509000  1.0
  Co  Co17  1  0.75000000  0.25000000  0.89509000  1.0
  Co  Co18  1  0.75000000  0.00000000  0.96503000  1.0
  Co  Co19  1  0.50000000  0.25000000  0.96503000  1.0
  Co  Co20  1  0.50000000  0.00000000  0.03497000  1.0
  Co  Co21  1  0.75000000  0.25000000  0.03497000  1.0
  Co  Co22  1  0.75000000  0.00000000  0.10491000  1.0
  Co  Co23  1  0.50000000  0.25000000  0.10491000  1.0
  Co  Co24  1  0.50000000  0.50000000  0.89509000  1.0
  Co  Co25  1  0.75000000  0.75000000  0.89509000  1.0
  Co  Co26  1  0.75000000  0.50000000  0.96503000  1.0
  Co  Co27  1  0.50000000  0.75000000  0.96503000  1.0
  Co  Co28  1  0.50000000  0.50000000  0.03497000  1.0
  Co  Co29  1  0.75000000  0.75000000  0.03497000  1.0
  Co  Co30  1  0.75000000  0.50000000  0.10491000  1.0
  Co  Co31  1  0.50000000  0.75000000  0.10491000  1.0
  C  C32  1  0.00000000  0.00000000  0.13651000  1.0
