# generated using pymatgen
data_Li2GaPt
_symmetry_space_group_name_H-M   Cmm2
_cell_length_a   8.63876597
_cell_length_b   8.63876597
_cell_length_c   24.58140000
_cell_angle_alpha   90.00000000
_cell_angle_beta   90.00000000
_cell_angle_gamma   90.00000000
_symmetry_Int_Tables_number   35
_chemical_formula_structural   Li2GaPt
_chemical_formula_sum   'Li16 Ga8 Pt8'
_cell_volume   1834.46754107
_cell_formula_units_Z   8
loop_
 _symmetry_equiv_pos_site_id
 _symmetry_equiv_pos_as_xyz
  1  'x, y, z'
  2  '-x, -y, z'
  3  '-x, y, z'
  4  'x, -y, z'
  5  'x+1/2, y+1/2, z'
  6  '-x+1/2, -y+1/2, z'
  7  '-x+1/2, y+1/2, z'
  8  'x+1/2, -y+1/2, z'
loop_
 _atom_site_type_symbol
 _atom_site_label
 _atom_site_symmetry_multiplicity
 _atom_site_fract_x
 _atom_site_fract_y
 _atom_site_fract_z
 _atom_site_occupancy
  Li  Li0  4  0.00000000  0.25000000  0.90681000  1.0
  Li  Li1  4  0.24963000  0.00000000  0.03324000  1.0
  Li  Li2  4  0.25000000  0.25000000  0.10807000  1.0
  Li  Li3  2  0.00000000  0.00000000  0.96894000  1.0
  Li  Li4  2  0.00000000  0.50000000  0.96894000  1.0
  Ga  Ga5  4  0.00000000  0.25029000  0.03192000  1.0
  Ga  Ga6  4  0.25000000  0.00000000  0.90681000  1.0
  Pt  Pt7  4  0.25000000  0.25000000  0.96894000  1.0
  Pt  Pt8  2  0.00000000  0.00000000  0.08552000  1.0
  Pt  Pt9  2  0.00000000  0.50000000  0.08589000  1.0
