# generated using pymatgen
data_LiCuAgSn
_symmetry_space_group_name_H-M   Pmm2
_cell_length_a   4.55096046
_cell_length_b   4.55096046
_cell_length_c   24.82700000
_cell_angle_alpha   90.00000000
_cell_angle_beta   90.00000000
_cell_angle_gamma   90.00000000
_symmetry_Int_Tables_number   25
_chemical_formula_structural   LiCuAgSn
_chemical_formula_sum   'Li2 Cu2 Ag2 Sn2'
_cell_volume   514.19798230
_cell_formula_units_Z   2
loop_
 _symmetry_equiv_pos_site_id
 _symmetry_equiv_pos_as_xyz
  1  'x, y, z'
  2  '-x, -y, z'
  3  '-x, y, z'
  4  'x, -y, z'
loop_
 _atom_site_type_symbol
 _atom_site_label
 _atom_site_symmetry_multiplicity
 _atom_site_fract_x
 _atom_site_fract_y
 _atom_site_fract_z
 _atom_site_occupancy
  Li  Li0  1  0.00000000  0.50000000  0.90279000  1.0
  Li  Li1  1  0.50000000  0.00000000  0.03240000  1.0
  Cu  Cu2  1  0.00000000  0.50000000  0.03240000  1.0
  Cu  Cu3  1  0.50000000  0.00000000  0.90279000  1.0
  Ag  Ag4  1  0.00000000  0.00000000  0.09721000  1.0
  Ag  Ag5  1  0.50000000  0.50000000  0.96760000  1.0
  Sn  Sn6  1  0.00000000  0.00000000  0.96760000  1.0
  Sn  Sn7  1  0.50000000  0.50000000  0.09721000  1.0
