# generated using pymatgen
data_Ta8Al8Ni16C
_symmetry_space_group_name_H-M   'P 1'
_cell_length_a   5.99379000
_cell_length_b   8.47650000
_cell_length_c   26.35740000
_cell_angle_alpha   90.00000000
_cell_angle_beta   90.00000000
_cell_angle_gamma   90.00000000
_symmetry_Int_Tables_number   1
_chemical_formula_structural   Ta8Al8Ni16C
_chemical_formula_sum   'Ta8 Al8 Ni16 C1'
_cell_volume   1339.12357771
_cell_formula_units_Z   1
loop_
 _symmetry_equiv_pos_site_id
 _symmetry_equiv_pos_as_xyz
  1  'x, y, z'
loop_
 _atom_site_type_symbol
 _atom_site_label
 _atom_site_symmetry_multiplicity
 _atom_site_fract_x
 _atom_site_fract_y
 _atom_site_fract_z
 _atom_site_occupancy
  Ta  Ta0  1  0.00000000  0.00000000  0.87940000  1.0
  Ta  Ta1  1  0.50000000  0.25000000  0.95980000  1.0
  Ta  Ta2  1  0.50000000  0.75000000  0.95980000  1.0
  Ta  Ta3  1  0.00000000  0.50000000  0.87940000  1.0
  Ta  Ta4  1  0.00000000  0.50000000  0.04077000  1.0
  Ta  Ta5  1  0.50000000  0.74084000  0.11871000  1.0
  Ta  Ta6  1  0.50000000  0.25916000  0.11871000  1.0
  Ta  Ta7  1  0.00000000  0.00000000  0.04329000  1.0
  Al  Al8  1  0.00000000  0.75000000  0.95980000  1.0
  Al  Al9  1  0.50000000  0.00000000  0.87940000  1.0
  Al  Al10  1  0.00000000  0.25000000  0.95980000  1.0
  Al  Al11  1  0.50000000  0.50000000  0.87940000  1.0
  Al  Al12  1  0.00000000  0.24873000  0.12407000  1.0
  Al  Al13  1  0.50000000  0.50000000  0.03949000  1.0
  Al  Al14  1  0.00000000  0.75127000  0.12407000  1.0
  Al  Al15  1  0.50000000  0.00000000  0.04024000  1.0
  Ni  Ni16  1  0.25000000  0.00000000  0.95980000  1.0
  Ni  Ni17  1  0.75000000  0.50000000  0.95980000  1.0
  Ni  Ni18  1  0.75000000  0.00000000  0.95980000  1.0
  Ni  Ni19  1  0.25000000  0.50000000  0.95980000  1.0
  Ni  Ni20  1  0.75000000  0.75000000  0.87940000  1.0
  Ni  Ni21  1  0.25000000  0.25000000  0.87940000  1.0
  Ni  Ni22  1  0.25000000  0.75000000  0.87940000  1.0
  Ni  Ni23  1  0.75000000  0.25000000  0.87940000  1.0
  Ni  Ni24  1  0.24314000  0.50000000  0.11795000  1.0
  Ni  Ni25  1  0.70253000  0.00000000  0.12300000  1.0
  Ni  Ni26  1  0.75686000  0.50000000  0.11795000  1.0
  Ni  Ni27  1  0.29747000  0.00000000  0.12300000  1.0
  Ni  Ni28  1  0.74949000  0.25427000  0.04008000  1.0
  Ni  Ni29  1  0.25051000  0.74573000  0.04008000  1.0
  Ni  Ni30  1  0.25051000  0.25427000  0.04008000  1.0
  Ni  Ni31  1  0.74949000  0.74573000  0.04008000  1.0
  C  C32  1  0.00000000  0.00000000  0.12864000  1.0
