# generated using pymatgen
data_Mg16Ag16CO
_symmetry_space_group_name_H-M   Pm
_cell_length_a   6.75388000
_cell_length_b   9.55143000
_cell_length_c   27.16360000
_cell_angle_alpha   90.00000000
_cell_angle_beta   90.00000000
_cell_angle_gamma   90.00000000
_symmetry_Int_Tables_number   6
_chemical_formula_structural   Mg16Ag16CO
_chemical_formula_sum   'Mg16 Ag16 C1 O1'
_cell_volume   1752.30243240
_cell_formula_units_Z   1
loop_
 _symmetry_equiv_pos_site_id
 _symmetry_equiv_pos_as_xyz
  1  'x, y, z'
  2  'x, -y, z'
loop_
 _atom_site_type_symbol
 _atom_site_label
 _atom_site_symmetry_multiplicity
 _atom_site_fract_x
 _atom_site_fract_y
 _atom_site_fract_z
 _atom_site_occupancy
  Mg  Mg0  2  0.25000000  0.25000000  0.86814000  1.0
  Mg  Mg1  2  0.25049000  0.24913000  0.04361000  1.0
  Mg  Mg2  2  0.74947000  0.25092000  0.04212000  1.0
  Mg  Mg3  2  0.75000000  0.25000000  0.86814000  1.0
  Mg  Mg4  1  0.25000000  0.00000000  0.95605000  1.0
  Mg  Mg5  1  0.25000000  0.50000000  0.95605000  1.0
  Mg  Mg6  1  0.25068000  0.00000000  0.13237000  1.0
  Mg  Mg7  1  0.25084000  0.50000000  0.13328000  1.0
  Mg  Mg8  1  0.74933000  0.50000000  0.13412000  1.0
  Mg  Mg9  1  0.74939000  0.00000000  0.13285000  1.0
  Mg  Mg10  1  0.75000000  0.00000000  0.95605000  1.0
  Mg  Mg11  1  0.75000000  0.50000000  0.95605000  1.0
  Ag  Ag12  2  0.00000000  0.25000000  0.95605000  1.0
  Ag  Ag13  2  0.50000000  0.25000000  0.95605000  1.0
  Ag  Ag14  2  0.50584000  0.25214000  0.12872000  1.0
  Ag  Ag15  2  0.99420000  0.25214000  0.12852000  1.0
  Ag  Ag16  1  0.00000000  0.00000000  0.86814000  1.0
  Ag  Ag17  1  0.00000000  0.50000000  0.86814000  1.0
  Ag  Ag18  1  0.00041000  0.50000000  0.04368000  1.0
  Ag  Ag19  1  0.49945000  0.50000000  0.04352000  1.0
  Ag  Ag20  1  0.50000000  0.00000000  0.86814000  1.0
  Ag  Ag21  1  0.50000000  0.50000000  0.86814000  1.0
  Ag  Ag22  1  0.50039000  0.00000000  0.04426000  1.0
  Ag  Ag23  1  0.99956000  0.00000000  0.04437000  1.0
  C  C24  1  0.25278000  0.00000000  0.21507000  1.0
  O  O25  1  0.25399000  0.00000000  0.25723000  1.0
