# generated using pymatgen
data_Sc8Al8Ag16CO
_symmetry_space_group_name_H-M   Pm
_cell_length_a   6.65011000
_cell_length_b   9.40467000
_cell_length_c   27.05350000
_cell_angle_alpha   90.00000000
_cell_angle_beta   90.00000000
_cell_angle_gamma   90.00000000
_symmetry_Int_Tables_number   6
_chemical_formula_structural   Sc8Al8Ag16CO
_chemical_formula_sum   'Sc8 Al8 Ag16 C1 O1'
_cell_volume   1691.98243219
_cell_formula_units_Z   1
loop_
 _symmetry_equiv_pos_site_id
 _symmetry_equiv_pos_as_xyz
  1  'x, y, z'
  2  'x, -y, z'
loop_
 _atom_site_type_symbol
 _atom_site_label
 _atom_site_symmetry_multiplicity
 _atom_site_fract_x
 _atom_site_fract_y
 _atom_site_fract_z
 _atom_site_occupancy
  Sc  Sc0  2  0.50000000  0.24999000  0.95655000  1.0
  Sc  Sc1  2  0.50098000  0.24798000  0.13052000  1.0
  Sc  Sc2  1  0.00000000  0.00000000  0.86964000  1.0
  Sc  Sc3  1  0.00000000  0.50000000  0.86964000  1.0
  Sc  Sc4  1  0.01102000  0.00000000  0.04479000  1.0
  Sc  Sc5  1  0.99512000  0.50000000  0.04454000  1.0
  Al  Al6  2  0.00000000  0.25001000  0.95655000  1.0
  Al  Al7  2  0.99745000  0.25356000  0.12474000  1.0
  Al  Al8  1  0.49665000  0.00000000  0.04703000  1.0
  Al  Al9  1  0.50000000  0.00000000  0.86964000  1.0
  Al  Al10  1  0.50000000  0.50000000  0.86964000  1.0
  Al  Al11  1  0.50346000  0.50000000  0.04425000  1.0
  Ag  Ag12  2  0.25000000  0.24999000  0.86964000  1.0
  Ag  Ag13  2  0.25771000  0.25479000  0.04272000  1.0
  Ag  Ag14  2  0.74519000  0.24691000  0.04229000  1.0
  Ag  Ag15  2  0.75000000  0.25001000  0.86964000  1.0
  Ag  Ag16  1  0.21586000  0.00000000  0.13983000  1.0
  Ag  Ag17  1  0.24658000  0.50000000  0.13187000  1.0
  Ag  Ag18  1  0.25000000  0.00000000  0.95655000  1.0
  Ag  Ag19  1  0.25000000  0.50000000  0.95655000  1.0
  Ag  Ag20  1  0.75000000  0.00000000  0.95655000  1.0
  Ag  Ag21  1  0.75000000  0.50000000  0.95655000  1.0
  Ag  Ag22  1  0.75910000  0.50000000  0.13524000  1.0
  Ag  Ag23  1  0.76501000  0.00000000  0.13116000  1.0
  C  C24  1  0.28042000  0.00000000  0.21905000  1.0
  O  O25  1  0.26257000  0.00000000  0.26125000  1.0
