# generated using pymatgen
data_Li8Y8Ge8Pb8C
_symmetry_space_group_name_H-M   Pmm2
_cell_length_a   8.65500000
_cell_length_b   9.86128000
_cell_length_c   26.41550000
_cell_angle_alpha   90.00000000
_cell_angle_beta   90.00000000
_cell_angle_gamma   90.00000000
_symmetry_Int_Tables_number   25
_chemical_formula_structural   Li8Y8Ge8Pb8C
_chemical_formula_sum   'Li8 Y8 Ge8 Pb8 C1'
_cell_volume   2254.54650513
_cell_formula_units_Z   1
loop_
 _symmetry_equiv_pos_site_id
 _symmetry_equiv_pos_as_xyz
  1  'x, y, z'
  2  '-x, -y, z'
  3  '-x, y, z'
  4  'x, -y, z'
loop_
 _atom_site_type_symbol
 _atom_site_label
 _atom_site_symmetry_multiplicity
 _atom_site_fract_x
 _atom_site_fract_y
 _atom_site_fract_z
 _atom_site_occupancy
  Li  Li0  4  0.24926000  0.25300000  0.05754000  1.0
  Li  Li1  4  0.25000000  0.24999000  0.87856000  1.0
  Y  Y2  1  0.00000000  0.00000000  0.03235000  1.0
  Y  Y3  1  0.00000000  0.00000000  0.87856000  1.0
  Y  Y4  1  0.00000000  0.50000000  0.03615000  1.0
  Y  Y5  1  0.00000000  0.50000000  0.87856000  1.0
  Y  Y6  1  0.50000000  0.00000000  0.04429000  1.0
  Y  Y7  1  0.50000000  0.00000000  0.87856000  1.0
  Y  Y8  1  0.50000000  0.50000000  0.03553000  1.0
  Y  Y9  1  0.50000000  0.50000000  0.87856000  1.0
  Ge  Ge10  2  0.21994000  0.00000000  0.12165000  1.0
  Ge  Ge11  2  0.24697000  0.50000000  0.11291000  1.0
  Ge  Ge12  2  0.25000000  0.00000000  0.95952000  1.0
  Ge  Ge13  2  0.25000000  0.50000000  0.95952000  1.0
  Pb  Pb14  2  0.00000000  0.24999000  0.95952000  1.0
  Pb  Pb15  2  0.00000000  0.30145000  0.15068000  1.0
  Pb  Pb16  2  0.50000000  0.24999000  0.95952000  1.0
  Pb  Pb17  2  0.50000000  0.31002000  0.14912000  1.0
  C  C18  1  0.00000000  0.00000000  0.12254000  1.0
