# generated using pymatgen
data_Li16In8Ag8C
_symmetry_space_group_name_H-M   'P 1'
_cell_length_a   9.43981000
_cell_length_b   6.67495000
_cell_length_c   27.07990000
_cell_angle_alpha   90.00000000
_cell_angle_beta   90.00000000
_cell_angle_gamma   90.00000000
_symmetry_Int_Tables_number   1
_chemical_formula_structural   Li16In8Ag8C
_chemical_formula_sum   'Li16 In8 Ag8 C1'
_cell_volume   1706.31153326
_cell_formula_units_Z   1
loop_
 _symmetry_equiv_pos_site_id
 _symmetry_equiv_pos_as_xyz
  1  'x, y, z'
loop_
 _atom_site_type_symbol
 _atom_site_label
 _atom_site_symmetry_multiplicity
 _atom_site_fract_x
 _atom_site_fract_y
 _atom_site_fract_z
 _atom_site_occupancy
  Li  Li0  1  0.75000000  0.00000000  0.04357000  1.0
  Li  Li1  1  0.00000000  0.50000000  0.13072000  1.0
  Li  Li2  1  0.25000000  0.00000000  0.04357000  1.0
  Li  Li3  1  0.50000000  0.50000000  0.13072000  1.0
  Li  Li4  1  0.00000000  0.25000000  0.04357000  1.0
  Li  Li5  1  0.50000000  0.25000000  0.04357000  1.0
  Li  Li6  1  0.75000000  0.75000000  0.13072000  1.0
  Li  Li7  1  0.25000000  0.75000000  0.13072000  1.0
  Li  Li8  1  0.21839000  0.97984000  0.86507000  1.0
  Li  Li9  1  0.50000000  0.50979000  0.95835000  1.0
  Li  Li10  1  0.78161000  0.97984000  0.86507000  1.0
  Li  Li11  1  0.00000000  0.48723000  0.96104000  1.0
  Li  Li12  1  0.50000000  0.21491000  0.86920000  1.0
  Li  Li13  1  0.00000000  0.25889000  0.86283000  1.0
  Li  Li14  1  0.23907000  0.74347000  0.94994000  1.0
  Li  Li15  1  0.76093000  0.74347000  0.94994000  1.0
  In  In16  1  0.00000000  0.00000000  0.13072000  1.0
  In  In17  1  0.25000000  0.50000000  0.04357000  1.0
  In  In18  1  0.75000000  0.50000000  0.04357000  1.0
  In  In19  1  0.50000000  0.00000000  0.13072000  1.0
  In  In20  1  0.50000000  0.99440000  0.95767000  1.0
  In  In21  1  0.73023000  0.48738000  0.85734000  1.0
  In  In22  1  0.26977000  0.48738000  0.85734000  1.0
  In  In23  1  0.00000000  0.02394000  0.96211000  1.0
  Ag  Ag24  1  0.25000000  0.25000000  0.13072000  1.0
  Ag  Ag25  1  0.75000000  0.25000000  0.13072000  1.0
  Ag  Ag26  1  0.50000000  0.75000000  0.04357000  1.0
  Ag  Ag27  1  0.00000000  0.75000000  0.04357000  1.0
  Ag  Ag28  1  0.73912000  0.26651000  0.95278000  1.0
  Ag  Ag29  1  0.26088000  0.26651000  0.95278000  1.0
  Ag  Ag30  1  0.00000000  0.66223000  0.86951000  1.0
  Ag  Ag31  1  0.50000000  0.75782000  0.87146000  1.0
  C  C32  1  0.00000000  0.97035000  0.88325000  1.0
