# generated using pymatgen
data_Sc8Al8Ni16CO
_symmetry_space_group_name_H-M   P1
_cell_length_a   6.08368000
_cell_length_b   8.60362000
_cell_length_c   26.45270000
_cell_angle_alpha   90.00000000
_cell_angle_beta   90.00000000
_cell_angle_gamma   90.00000000
_symmetry_Int_Tables_number   1
_chemical_formula_structural   Sc8Al8Ni16CO
_chemical_formula_sum   'Sc8 Al8 Ni16 C1 O1'
_cell_volume   1384.57851839
_cell_formula_units_Z   1
loop_
 _symmetry_equiv_pos_site_id
 _symmetry_equiv_pos_as_xyz
  1  'x, y, z'
loop_
 _atom_site_type_symbol
 _atom_site_label
 _atom_site_symmetry_multiplicity
 _atom_site_fract_x
 _atom_site_fract_y
 _atom_site_fract_z
 _atom_site_occupancy
  Sc  Sc0  1  0.00000000  0.00000000  0.87803000  1.0
  Sc  Sc1  1  0.00000000  0.50000000  0.87803000  1.0
  Sc  Sc2  1  0.00100000  0.00007000  0.03917000  1.0
  Sc  Sc3  1  0.00124000  0.49994000  0.03863000  1.0
  Sc  Sc4  1  0.50000000  0.25000000  0.95934000  1.0
  Sc  Sc5  1  0.50000000  0.75000000  0.95934000  1.0
  Sc  Sc6  1  0.50465000  0.25504000  0.12786000  1.0
  Sc  Sc7  1  0.50465000  0.74498000  0.12780000  1.0
  Al  Al8  1  0.00000000  0.25000000  0.95934000  1.0
  Al  Al9  1  0.00000000  0.75000000  0.95934000  1.0
  Al  Al10  1  0.00004000  0.75140000  0.11845000  1.0
  Al  Al11  1  0.00008000  0.24860000  0.11847000  1.0
  Al  Al12  1  0.50000000  0.00000000  0.87803000  1.0
  Al  Al13  1  0.50000000  0.50000000  0.87803000  1.0
  Al  Al14  1  0.50005000  0.99997000  0.04320000  1.0
  Al  Al15  1  0.50116000  0.50001000  0.04386000  1.0
  Ni  Ni16  1  0.22451000  0.49996000  0.11659000  1.0
  Ni  Ni17  1  0.23861000  0.00002000  0.12505000  1.0
  Ni  Ni18  1  0.25000000  0.00000000  0.95934000  1.0
  Ni  Ni19  1  0.25000000  0.25000000  0.87803000  1.0
  Ni  Ni20  1  0.25000000  0.50000000  0.95934000  1.0
  Ni  Ni21  1  0.25000000  0.75000000  0.87803000  1.0
  Ni  Ni22  1  0.26569000  0.75247000  0.04438000  1.0
  Ni  Ni23  1  0.26584000  0.24752000  0.04443000  1.0
  Ni  Ni24  1  0.73665000  0.24974000  0.04281000  1.0
  Ni  Ni25  1  0.73688000  0.75026000  0.04276000  1.0
  Ni  Ni26  1  0.75000000  0.00000000  0.95934000  1.0
  Ni  Ni27  1  0.75000000  0.25000000  0.87803000  1.0
  Ni  Ni28  1  0.75000000  0.50000000  0.95934000  1.0
  Ni  Ni29  1  0.75000000  0.75000000  0.87803000  1.0
  Ni  Ni30  1  0.77321000  0.00002000  0.11459000  1.0
  Ni  Ni31  1  0.77974000  0.49997000  0.11670000  1.0
  C  C32  1  0.31876000  0.99990000  0.18924000  1.0
  O  O33  1  0.34608000  0.99990000  0.23310000  1.0
