# generated using pymatgen
data_Y8In8Cu8Sn8C
_symmetry_space_group_name_H-M   'P 1'
_cell_length_a   8.82850000
_cell_length_b   8.84740000
_cell_length_c   26.85960000
_cell_angle_alpha   90.00000000
_cell_angle_beta   90.00000000
_cell_angle_gamma   90.00000000
_symmetry_Int_Tables_number   1
_chemical_formula_structural   Y8In8Cu8Sn8C
_chemical_formula_sum   'Y8 In8 Cu8 Sn8 C1'
_cell_volume   2097.98377267
_cell_formula_units_Z   1
loop_
 _symmetry_equiv_pos_site_id
 _symmetry_equiv_pos_as_xyz
  1  'x, y, z'
loop_
 _atom_site_type_symbol
 _atom_site_label
 _atom_site_symmetry_multiplicity
 _atom_site_fract_x
 _atom_site_fract_y
 _atom_site_fract_z
 _atom_site_occupancy
  Y  Y0  1  0.74674000  0.74298000  0.04556000  1.0
  Y  Y1  1  0.75001000  0.75000000  0.87231000  1.0
  Y  Y2  1  0.74674000  0.25702000  0.04556000  1.0
  Y  Y3  1  0.75001000  0.25000000  0.87231000  1.0
  Y  Y4  1  0.25326000  0.74298000  0.04556000  1.0
  Y  Y5  1  0.24999000  0.75000000  0.87231000  1.0
  Y  Y6  1  0.25326000  0.25702000  0.04556000  1.0
  Y  Y7  1  0.24999000  0.25000000  0.87231000  1.0
  In  In8  1  0.77747000  0.00000000  0.14595000  1.0
  In  In9  1  0.75001000  0.00000000  0.95744000  1.0
  In  In10  1  0.81904000  0.50000000  0.14775000  1.0
  In  In11  1  0.75001000  0.50000000  0.95744000  1.0
  In  In12  1  0.22253000  0.00000000  0.14595000  1.0
  In  In13  1  0.24999000  0.00000000  0.95744000  1.0
  In  In14  1  0.18096000  0.50000000  0.14775000  1.0
  In  In15  1  0.24999000  0.50000000  0.95744000  1.0
  Cu  Cu16  1  0.50000000  0.78527000  0.12207000  1.0
  Cu  Cu17  1  0.50000000  0.75000000  0.95744000  1.0
  Cu  Cu18  1  0.50000000  0.21473000  0.12207000  1.0
  Cu  Cu19  1  0.50000000  0.25000000  0.95744000  1.0
  Cu  Cu20  1  0.00000000  0.76287000  0.12059000  1.0
  Cu  Cu21  1  0.00000000  0.75000000  0.95744000  1.0
  Cu  Cu22  1  0.00000000  0.23713000  0.12059000  1.0
  Cu  Cu23  1  0.00000000  0.25000000  0.95744000  1.0
  Sn  Sn24  1  0.50000000  0.00000000  0.03848000  1.0
  Sn  Sn25  1  0.50000000  0.00000000  0.87231000  1.0
  Sn  Sn26  1  0.50000000  0.50000000  0.08441000  1.0
  Sn  Sn27  1  0.50000000  0.50000000  0.87231000  1.0
  Sn  Sn28  1  0.00000000  0.00000000  0.04486000  1.0
  Sn  Sn29  1  0.00000000  0.00000000  0.87231000  1.0
  Sn  Sn30  1  0.00000000  0.50000000  0.04009000  1.0
  Sn  Sn31  1  0.00000000  0.50000000  0.87231000  1.0
  C  C32  1  0.50000000  0.00000000  0.13114000  1.0
