# generated using pymatgen
data_Hf8Ga8Ni16CO
_symmetry_space_group_name_H-M   Pm
_cell_length_a   6.09904000
_cell_length_b   8.62534000
_cell_length_c   26.46900000
_cell_angle_alpha   90.00000000
_cell_angle_beta   90.00000000
_cell_angle_gamma   90.00000000
_symmetry_Int_Tables_number   6
_chemical_formula_structural   Hf8Ga8Ni16CO
_chemical_formula_sum   'Hf8 Ga8 Ni16 C1 O1'
_cell_volume   1392.43598725
_cell_formula_units_Z   1
loop_
 _symmetry_equiv_pos_site_id
 _symmetry_equiv_pos_as_xyz
  1  'x, y, z'
  2  'x, -y, z'
loop_
 _atom_site_type_symbol
 _atom_site_label
 _atom_site_symmetry_multiplicity
 _atom_site_fract_x
 _atom_site_fract_y
 _atom_site_fract_z
 _atom_site_occupancy
  Hf  Hf0  2  0.49854000  0.24970000  0.12458000  1.0
  Hf  Hf1  2  0.50000000  0.25000000  0.95927000  1.0
  Hf  Hf2  1  0.00000000  0.00000000  0.87780000  1.0
  Hf  Hf3  1  0.00000000  0.50000000  0.87780000  1.0
  Hf  Hf4  1  0.00178000  0.00000000  0.04102000  1.0
  Hf  Hf5  1  0.99915000  0.50000000  0.03969000  1.0
  Ga  Ga6  2  0.00000000  0.25000000  0.95927000  1.0
  Ga  Ga7  2  0.99573000  0.25364000  0.12096000  1.0
  Ga  Ga8  1  0.49605000  0.00000000  0.04301000  1.0
  Ga  Ga9  1  0.50000000  0.00000000  0.87780000  1.0
  Ga  Ga10  1  0.50000000  0.50000000  0.87780000  1.0
  Ga  Ga11  1  0.50017000  0.50000000  0.04144000  1.0
  Ni  Ni12  2  0.25000000  0.25000000  0.87780000  1.0
  Ni  Ni13  2  0.26680000  0.25005000  0.04366000  1.0
  Ni  Ni14  2  0.73328000  0.24917000  0.04319000  1.0
  Ni  Ni15  2  0.75000000  0.25000000  0.87780000  1.0
  Ni  Ni16  1  0.23199000  0.00000000  0.13025000  1.0
  Ni  Ni17  1  0.24325000  0.50000000  0.11794000  1.0
  Ni  Ni18  1  0.25000000  0.00000000  0.95927000  1.0
  Ni  Ni19  1  0.25000000  0.50000000  0.95927000  1.0
  Ni  Ni20  1  0.75000000  0.00000000  0.95927000  1.0
  Ni  Ni21  1  0.75000000  0.50000000  0.95927000  1.0
  Ni  Ni22  1  0.75334000  0.50000000  0.11821000  1.0
  Ni  Ni23  1  0.76284000  0.00000000  0.11721000  1.0
  C  C24  1  0.31704000  0.00000000  0.19404000  1.0
  O  O25  1  0.35169000  0.00000000  0.23740000  1.0
