# generated using pymatgen
data_Nb4Ni8Sn4CO
_symmetry_space_group_name_H-M   P1
_cell_length_a   6.23466000
_cell_length_b   6.23466000
_cell_length_c   24.67600000
_cell_angle_alpha   90.00000000
_cell_angle_beta   90.00000000
_cell_angle_gamma   90.00000000
_symmetry_Int_Tables_number   1
_chemical_formula_structural   Nb4Ni8Sn4CO
_chemical_formula_sum   'Nb4 Ni8 Sn4 C1 O1'
_cell_volume   959.18043365
_cell_formula_units_Z   1
loop_
 _symmetry_equiv_pos_site_id
 _symmetry_equiv_pos_as_xyz
  1  'x, y, z'
loop_
 _atom_site_type_symbol
 _atom_site_label
 _atom_site_symmetry_multiplicity
 _atom_site_fract_x
 _atom_site_fract_y
 _atom_site_fract_z
 _atom_site_occupancy
  Nb  Nb0  1  0.00000000  0.50000000  0.96842000  1.0
  Nb  Nb1  1  0.00001000  0.99996000  0.08852000  1.0
  Nb  Nb2  1  0.49993000  0.49994000  0.08846000  1.0
  Nb  Nb3  1  0.50000000  0.00000000  0.96842000  1.0
  Ni  Ni4  1  0.25000000  0.25000000  0.90525000  1.0
  Ni  Ni5  1  0.25000000  0.75000000  0.90525000  1.0
  Ni  Ni6  1  0.25454000  0.75483000  0.03394000  1.0
  Ni  Ni7  1  0.25459000  0.24505000  0.03394000  1.0
  Ni  Ni8  1  0.74525000  0.24504000  0.03404000  1.0
  Ni  Ni9  1  0.74541000  0.75514000  0.03392000  1.0
  Ni  Ni10  1  0.75000000  0.25000000  0.90525000  1.0
  Ni  Ni11  1  0.75000000  0.75000000  0.90525000  1.0
  Sn  Sn12  1  0.00000000  0.00000000  0.96842000  1.0
  Sn  Sn13  1  0.49979000  0.99983000  0.10518000  1.0
  Sn  Sn14  1  0.50000000  0.50000000  0.96842000  1.0
  Sn  Sn15  1  0.99990000  0.50002000  0.10179000  1.0
  C  C16  1  0.00382000  0.50006000  0.27294000  1.0
  O  O17  1  0.99820000  0.50009000  0.31902000  1.0
