# generated using pymatgen
data_In8Sb8C
_symmetry_space_group_name_H-M   P4mm
_cell_length_a   7.67805000
_cell_length_b   7.67805000
_cell_length_c   25.75850000
_cell_angle_alpha   90.00000000
_cell_angle_beta   90.00000000
_cell_angle_gamma   90.00000000
_symmetry_Int_Tables_number   99
_chemical_formula_structural   In8Sb8C
_chemical_formula_sum   'In8 Sb8 C1'
_cell_volume   1518.52672975
_cell_formula_units_Z   1
loop_
 _symmetry_equiv_pos_site_id
 _symmetry_equiv_pos_as_xyz
  1  'x, y, z'
  2  '-y, x, z'
  3  '-x, -y, z'
  4  'y, -x, z'
  5  '-x, y, z'
  6  'y, x, z'
  7  'x, -y, z'
  8  '-y, -x, z'
loop_
 _atom_site_type_symbol
 _atom_site_label
 _atom_site_symmetry_multiplicity
 _atom_site_fract_x
 _atom_site_fract_y
 _atom_site_fract_z
 _atom_site_occupancy
  In  In0  4  0.25000000  0.25000000  0.11069000  1.0
  In  In1  4  0.25000000  0.25000000  0.96165000  1.0
  Sb  Sb2  2  0.00000000  0.50000000  0.03617000  1.0
  Sb  Sb3  2  0.00000000  0.50000000  0.88713000  1.0
  Sb  Sb4  1  0.00000000  0.00000000  0.03617000  1.0
  Sb  Sb5  1  0.00000000  0.00000000  0.88713000  1.0
  Sb  Sb6  1  0.50000000  0.50000000  0.03617000  1.0
  Sb  Sb7  1  0.50000000  0.50000000  0.88713000  1.0
  C  C8  1  0.00000000  0.00000000  0.14174000  1.0
