# generated using pymatgen
data_Li16Al8Pt8CO
_symmetry_space_group_name_H-M   'P 1'
_cell_length_a   8.59020000
_cell_length_b   6.07419000
_cell_length_c   26.44270000
_cell_angle_alpha   90.00000000
_cell_angle_beta   90.00000000
_cell_angle_gamma   90.00000000
_symmetry_Int_Tables_number   1
_chemical_formula_structural   Li16Al8Pt8CO
_chemical_formula_sum   'Li16 Al8 Pt8 C1 O1'
_cell_volume   1379.74060541
_cell_formula_units_Z   1
loop_
 _symmetry_equiv_pos_site_id
 _symmetry_equiv_pos_as_xyz
  1  'x, y, z'
loop_
 _atom_site_type_symbol
 _atom_site_label
 _atom_site_symmetry_multiplicity
 _atom_site_fract_x
 _atom_site_fract_y
 _atom_site_fract_z
 _atom_site_occupancy
  Li  Li0  1  0.50000000  0.00000000  0.04061000  1.0
  Li  Li1  1  0.75000000  0.50000000  0.12182000  1.0
  Li  Li2  1  0.00000000  0.00000000  0.04061000  1.0
  Li  Li3  1  0.25000000  0.50000000  0.12182000  1.0
  Li  Li4  1  0.75000000  0.25000000  0.04061000  1.0
  Li  Li5  1  0.25000000  0.25000000  0.04061000  1.0
  Li  Li6  1  0.50000000  0.75000000  0.12182000  1.0
  Li  Li7  1  0.00000000  0.75000000  0.12182000  1.0
  Li  Li8  1  0.00000000  0.98446000  0.87035000  1.0
  Li  Li9  1  0.24971000  0.49591000  0.96194000  1.0
  Li  Li10  1  0.50000000  0.98146000  0.87118000  1.0
  Li  Li11  1  0.75029000  0.49591000  0.96194000  1.0
  Li  Li12  1  0.24841000  0.25061000  0.87363000  1.0
  Li  Li13  1  0.75159000  0.25061000  0.87363000  1.0
  Li  Li14  1  0.00000000  0.76366000  0.96162000  1.0
  Li  Li15  1  0.50000000  0.75907000  0.96109000  1.0
  Al  Al16  1  0.75000000  0.00000000  0.12182000  1.0
  Al  Al17  1  0.00000000  0.50000000  0.04061000  1.0
  Al  Al18  1  0.50000000  0.50000000  0.04061000  1.0
  Al  Al19  1  0.25000000  0.00000000  0.12182000  1.0
  Al  Al20  1  0.24996000  0.00363000  0.95869000  1.0
  Al  Al21  1  0.50000000  0.51323000  0.88072000  1.0
  Al  Al22  1  0.00000000  0.51873000  0.88194000  1.0
  Al  Al23  1  0.75004000  0.00363000  0.95869000  1.0
  Pt  Pt24  1  0.00000000  0.25000000  0.12182000  1.0
  Pt  Pt25  1  0.50000000  0.25000000  0.12182000  1.0
  Pt  Pt26  1  0.25000000  0.75000000  0.04061000  1.0
  Pt  Pt27  1  0.75000000  0.75000000  0.04061000  1.0
  Pt  Pt28  1  0.50000000  0.24684000  0.95749000  1.0
  Pt  Pt29  1  0.00000000  0.24651000  0.95709000  1.0
  Pt  Pt30  1  0.74832000  0.73262000  0.88573000  1.0
  Pt  Pt31  1  0.25168000  0.73262000  0.88573000  1.0
  C  C32  1  0.00000000  0.02233000  0.79191000  1.0
  O  O33  1  0.00000000  0.01768000  0.74871000  1.0
