# generated using pymatgen
data_LiZnGePd
_symmetry_space_group_name_H-M   'P 1'
_cell_length_a   6.18512000
_cell_length_b   6.18512000
_cell_length_c   24.63880000
_cell_angle_alpha   90.00000000
_cell_angle_beta   90.00000000
_cell_angle_gamma   90.00000000
_symmetry_Int_Tables_number   1
_chemical_formula_structural   LiZnGePd
_chemical_formula_sum   'Li4 Zn4 Ge4 Pd4'
_cell_volume   942.57477312
_cell_formula_units_Z   4
loop_
 _symmetry_equiv_pos_site_id
 _symmetry_equiv_pos_as_xyz
  1  'x, y, z'
loop_
 _atom_site_type_symbol
 _atom_site_label
 _atom_site_symmetry_multiplicity
 _atom_site_fract_x
 _atom_site_fract_y
 _atom_site_fract_z
 _atom_site_occupancy
  Li  Li0  1  0.75000000  0.75000000  0.96862000  1
  Li  Li1  1  0.24850500  0.75149500  0.10351000  1
  Li  Li2  1  0.75149500  0.24850500  0.10351000  1
  Li  Li3  1  0.25000000  0.25000000  0.96862000  1
  Zn  Zn4  1  0.50000000  1.00000000  0.90586000  1
  Zn  Zn5  1  1.00000000  0.00000000  0.03012000  1
  Zn  Zn6  1  0.50000000  0.50000000  0.03030000  1
  Zn  Zn7  1  1.00000000  0.50000000  0.90586000  1
  Ge  Ge8  1  0.00000000  0.00000000  0.90586000  1
  Ge  Ge9  1  0.50000000  1.00000000  0.03493000  1
  Ge  Ge10  1  1.00000000  0.50000000  0.03493000  1
  Ge  Ge11  1  0.50000000  0.50000000  0.90586000  1
  Pd  Pd12  1  0.75000000  0.25000000  0.96862000  1
  Pd  Pd13  1  0.24998500  0.24998500  0.08612000  1
  Pd  Pd14  1  0.75001500  0.75001500  0.08612000  1
  Pd  Pd15  1  0.25000000  0.75000000  0.96862000  1
