# generated using pymatgen
data_Y8In8Sn8Pd8CO
_symmetry_space_group_name_H-M   Pm
_cell_length_a   9.16402000
_cell_length_b   9.06394000
_cell_length_c   26.55030000
_cell_angle_alpha   90.00000000
_cell_angle_beta   90.00000000
_cell_angle_gamma   90.00000000
_symmetry_Int_Tables_number   6
_chemical_formula_structural   Y8In8Sn8Pd8CO
_chemical_formula_sum   'Y8 In8 Sn8 Pd8 C1 O1'
_cell_volume   2205.32440214
_cell_formula_units_Z   1
loop_
 _symmetry_equiv_pos_site_id
 _symmetry_equiv_pos_as_xyz
  1  'x, y, z'
  2  'x, -y, z'
loop_
 _atom_site_type_symbol
 _atom_site_label
 _atom_site_symmetry_multiplicity
 _atom_site_fract_x
 _atom_site_fract_y
 _atom_site_fract_z
 _atom_site_occupancy
  Y  Y0  2  0.25000000  0.25001000  0.87664000  1.0
  Y  Y1  2  0.25000000  0.25604000  0.04450000  1.0
  Y  Y2  2  0.75000000  0.25001000  0.87664000  1.0
  Y  Y3  2  0.75000000  0.25533000  0.04343000  1.0
  In  In4  1  0.00000000  0.00000000  0.87664000  1.0
  In  In5  1  0.00000000  0.50000000  0.87664000  1.0
  In  In6  1  0.00099000  0.50000000  0.06018000  1.0
  In  In7  1  0.49901000  0.50000000  0.06015000  1.0
  In  In8  1  0.50000000  0.00000000  0.87664000  1.0
  In  In9  1  0.50000000  0.50000000  0.87664000  1.0
  In  In10  1  0.50034000  0.00000000  0.04168000  1.0
  In  In11  1  0.99965000  0.00000000  0.04168000  1.0
  Sn  Sn12  1  0.25000000  0.00000000  0.95888000  1.0
  Sn  Sn13  1  0.25000000  0.50000000  0.95888000  1.0
  Sn  Sn14  1  0.25002000  0.00000000  0.13118000  1.0
  Sn  Sn15  1  0.25006000  0.50000000  0.14107000  1.0
  Sn  Sn16  1  0.74993000  0.50000000  0.14029000  1.0
  Sn  Sn17  1  0.74998000  0.00000000  0.13268000  1.0
  Sn  Sn18  1  0.75000000  0.00000000  0.95888000  1.0
  Sn  Sn19  1  0.75000000  0.50000000  0.95888000  1.0
  Pd  Pd20  2  0.00000000  0.25001000  0.95888000  1.0
  Pd  Pd21  2  0.50000000  0.25001000  0.95888000  1.0
  Pd  Pd22  2  0.50592000  0.22676000  0.11651000  1.0
  Pd  Pd23  2  0.99408000  0.22671000  0.11650000  1.0
  C  C24  1  0.24998000  0.00000000  0.27784000  1.0
  O  O25  1  0.25002000  0.00000000  0.32061000  1.0
