# generated using pymatgen
data_Li16Al8Ag8C
_symmetry_space_group_name_H-M   'P 1'
_cell_length_a   8.97791000
_cell_length_b   6.34834000
_cell_length_c   26.73340000
_cell_angle_alpha   90.00000000
_cell_angle_beta   90.00000000
_cell_angle_gamma   90.00000000
_symmetry_Int_Tables_number   1
_chemical_formula_structural   Li16Al8Ag8C
_chemical_formula_sum   'Li16 Al8 Ag8 C1'
_cell_volume   1523.66545918
_cell_formula_units_Z   1
loop_
 _symmetry_equiv_pos_site_id
 _symmetry_equiv_pos_as_xyz
  1  'x, y, z'
loop_
 _atom_site_type_symbol
 _atom_site_label
 _atom_site_symmetry_multiplicity
 _atom_site_fract_x
 _atom_site_fract_y
 _atom_site_fract_z
 _atom_site_occupancy
  Li  Li0  1  0.50000000  1.00000000  0.04198000  1.0
  Li  Li1  1  0.75001000  0.50000000  0.12594000  1.0
  Li  Li2  1  0.00000000  1.00000000  0.04198000  1.0
  Li  Li3  1  0.24999000  0.50000000  0.12594000  1.0
  Li  Li4  1  0.75001000  0.25000000  0.04198000  1.0
  Li  Li5  1  0.24999000  0.25000000  0.04198000  1.0
  Li  Li6  1  0.50000000  0.75000000  0.12594000  1.0
  Li  Li7  1  0.00000000  0.75000000  0.12594000  1.0
  Li  Li8  1  0.00000000  0.00630000  0.87406000  1.0
  Li  Li9  1  0.24972000  0.48936000  0.95873000  1.0
  Li  Li10  1  0.50000000  0.01442000  0.87372000  1.0
  Li  Li11  1  0.75028000  0.48936000  0.95873000  1.0
  Li  Li12  1  0.22618000  0.28612000  0.86767000  1.0
  Li  Li13  1  0.77382000  0.28612000  0.86767000  1.0
  Li  Li14  1  0.00000000  0.73511000  0.95538000  1.0
  Li  Li15  1  0.50000000  0.74845000  0.95813000  1.0
  Al  Al16  1  0.75001000  0.00000000  0.12594000  1.0
  Al  Al17  1  0.00000000  0.50000000  0.04198000  1.0
  Al  Al18  1  0.50000000  0.50000000  0.04198000  1.0
  Al  Al19  1  0.24999000  0.00000000  0.12594000  1.0
  Al  Al20  1  0.25241000  0.00337000  0.95902000  1.0
  Al  Al21  1  0.50000000  0.49681000  0.87287000  1.0
  Al  Al22  1  0.00000000  0.59207000  0.85263000  1.0
  Al  Al23  1  0.74759000  0.00337000  0.95902000  1.0
  Ag  Ag24  1  0.00000000  0.25000000  0.12594000  1.0
  Ag  Ag25  1  0.50000000  0.25000000  0.12594000  1.0
  Ag  Ag26  1  0.25001000  0.75000000  0.04198000  1.0
  Ag  Ag27  1  0.74999000  0.75000000  0.04198000  1.0
  Ag  Ag28  1  0.50000000  0.25348000  0.95749000  1.0
  Ag  Ag29  1  0.00000000  0.24948000  0.96190000  1.0
  Ag  Ag30  1  0.73693000  0.74577000  0.87895000  1.0
  Ag  Ag31  1  0.26307000  0.74577000  0.87895000  1.0
  C  C32  1  0.00000000  0.32330000  0.88081000  1.0
