# generated using pymatgen
data_Ti4Pd12CO
_symmetry_space_group_name_H-M   Pm
_cell_length_a   5.59226000
_cell_length_b   7.90864000
_cell_length_c   24.19420000
_cell_angle_alpha   90.00000000
_cell_angle_beta   90.00000000
_cell_angle_gamma   90.00000000
_symmetry_Int_Tables_number   6
_chemical_formula_structural   Ti4Pd12CO
_chemical_formula_sum   'Ti4 Pd12 C1 O1'
_cell_volume   1070.04102367
_cell_formula_units_Z   1
loop_
 _symmetry_equiv_pos_site_id
 _symmetry_equiv_pos_as_xyz
  1  'x, y, z'
  2  'x, -y, z'
loop_
 _atom_site_type_symbol
 _atom_site_label
 _atom_site_symmetry_multiplicity
 _atom_site_fract_x
 _atom_site_fract_y
 _atom_site_fract_z
 _atom_site_occupancy
  Ti  Ti0  2  0.00000000  0.24999000  0.08668000  1.0
  Ti  Ti1  2  0.50180000  0.24660000  0.97256000  1.0
  Pd  Pd2  2  0.00142000  0.25032000  0.97597000  1.0
  Pd  Pd3  2  0.50000000  0.24999000  0.08668000  1.0
  Pd  Pd4  1  0.25000000  0.00000000  0.02889000  1.0
  Pd  Pd5  1  0.25000000  0.50000000  0.02889000  1.0
  Pd  Pd6  1  0.26088000  0.00000000  0.91609000  1.0
  Pd  Pd7  1  0.27836000  0.50000000  0.91643000  1.0
  Pd  Pd8  1  0.74529000  0.00000000  0.91581000  1.0
  Pd  Pd9  1  0.75000000  0.00000000  0.02889000  1.0
  Pd  Pd10  1  0.75000000  0.50000000  0.02889000  1.0
  Pd  Pd11  1  0.76716000  0.50000000  0.91318000  1.0
  C  C12  1  0.72599000  0.50000000  0.83386000  1.0
  O  O13  1  0.70755000  0.50000000  0.78653000  1.0
