# generated using pymatgen
data_Zr8Ga8Ni16CO
_symmetry_space_group_name_H-M   'P 1'
_cell_length_a   8.68219000
_cell_length_b   6.13924000
_cell_length_c   26.51160000
_cell_angle_alpha   90.00000000
_cell_angle_beta   90.00000000
_cell_angle_gamma   90.00000000
_symmetry_Int_Tables_number   1
_chemical_formula_structural   Zr8Ga8Ni16CO
_chemical_formula_sum   'Zr8 Ga8 Ni16 C1 O1'
_cell_volume   1413.12257935
_cell_formula_units_Z   1
loop_
 _symmetry_equiv_pos_site_id
 _symmetry_equiv_pos_as_xyz
  1  'x, y, z'
loop_
 _atom_site_type_symbol
 _atom_site_label
 _atom_site_symmetry_multiplicity
 _atom_site_fract_x
 _atom_site_fract_y
 _atom_site_fract_z
 _atom_site_occupancy
  Zr  Zr0  1  0.00000000  0.00000000  0.12281000  1.0
  Zr  Zr1  1  0.24999000  0.50000000  0.04094000  1.0
  Zr  Zr2  1  0.75001000  0.50000000  0.04094000  1.0
  Zr  Zr3  1  0.50000000  1.00000000  0.12281000  1.0
  Zr  Zr4  1  0.50000000  0.99941000  0.96070000  1.0
  Zr  Zr5  1  0.75213000  0.49964000  0.87339000  1.0
  Zr  Zr6  1  0.24787000  0.49964000  0.87339000  1.0
  Zr  Zr7  1  0.00000000  0.00383000  0.95925000  1.0
  Ga  Ga8  1  0.74999000  1.00000000  0.04094000  1.0
  Ga  Ga9  1  0.00000000  0.50000000  0.12281000  1.0
  Ga  Ga10  1  0.25001000  1.00000000  0.04094000  1.0
  Ga  Ga11  1  0.50000000  0.50000000  0.12281000  1.0
  Ga  Ga12  1  0.25428000  0.99712000  0.87986000  1.0
  Ga  Ga13  1  0.50000000  0.50060000  0.95837000  1.0
  Ga  Ga14  1  0.74572000  0.99712000  0.87986000  1.0
  Ga  Ga15  1  0.00000000  0.49754000  0.95607000  1.0
  Ni  Ni16  1  0.00000000  0.25000000  0.04094000  1.0
  Ni  Ni17  1  0.50000000  0.75000000  0.04094000  1.0
  Ni  Ni18  1  0.00000000  0.75000000  0.04094000  1.0
  Ni  Ni19  1  0.50000000  0.25000000  0.04094000  1.0
  Ni  Ni20  1  0.74999000  0.75000000  0.12281000  1.0
  Ni  Ni21  1  0.24999000  0.25000000  0.12281000  1.0
  Ni  Ni22  1  0.75001000  0.25000000  0.12281000  1.0
  Ni  Ni23  1  0.25001000  0.75000000  0.12281000  1.0
  Ni  Ni24  1  0.50000000  0.24535000  0.88299000  1.0
  Ni  Ni25  1  0.00000000  0.76958000  0.88260000  1.0
  Ni  Ni26  1  0.50000000  0.75384000  0.88240000  1.0
  Ni  Ni27  1  0.00000000  0.22342000  0.86831000  1.0
  Ni  Ni28  1  0.24861000  0.73044000  0.95604000  1.0
  Ni  Ni29  1  0.74998000  0.27225000  0.95515000  1.0
  Ni  Ni30  1  0.25002000  0.27225000  0.95515000  1.0
  Ni  Ni31  1  0.75139000  0.73044000  0.95604000  1.0
  C  C32  1  0.00000000  0.31643000  0.80544000  1.0
  O  O33  1  0.00000000  0.35387000  0.76220000  1.0
