# generated using pymatgen
data_Zr8Ga8Ni16CO
_symmetry_space_group_name_H-M   Pm
_cell_length_a   6.13924000
_cell_length_b   8.68219000
_cell_length_c   26.51160000
_cell_angle_alpha   90.00000000
_cell_angle_beta   90.00000000
_cell_angle_gamma   90.00000000
_symmetry_Int_Tables_number   6
_chemical_formula_structural   Zr8Ga8Ni16CO
_chemical_formula_sum   'Zr8 Ga8 Ni16 C1 O1'
_cell_volume   1413.12257935
_cell_formula_units_Z   1
loop_
 _symmetry_equiv_pos_site_id
 _symmetry_equiv_pos_as_xyz
  1  'x, y, z'
  2  'x, -y, z'
loop_
 _atom_site_type_symbol
 _atom_site_label
 _atom_site_symmetry_multiplicity
 _atom_site_fract_x
 _atom_site_fract_y
 _atom_site_fract_z
 _atom_site_occupancy
  Zr  Zr0  2  0.49964000  0.24787000  0.12661000  1.0
  Zr  Zr1  2  0.50000000  0.24999000  0.95906000  1.0
  Zr  Zr2  1  -0.00000000  0.50000000  0.87719000  1.0
  Zr  Zr3  1  0.00000000  0.00000000  0.87719000  1.0
  Zr  Zr4  1  0.00383000  0.00000000  0.04075000  1.0
  Zr  Zr5  1  0.99941000  0.50000000  0.03930000  1.0
  Ga  Ga6  2  -0.00000000  0.25001000  0.95906000  1.0
  Ga  Ga7  2  0.99712000  0.25428000  0.12014000  1.0
  Ga  Ga8  1  0.49754000  0.00000000  0.04393000  1.0
  Ga  Ga9  1  0.50000000  0.00000000  0.87719000  1.0
  Ga  Ga10  1  0.50000000  0.50000000  0.87719000  1.0
  Ga  Ga11  1  0.50060000  0.50000000  0.04163000  1.0
  Ni  Ni12  2  0.25000000  0.24999000  0.87719000  1.0
  Ni  Ni13  2  0.27225000  0.25002000  0.04485000  1.0
  Ni  Ni14  2  0.73044000  0.24861000  0.04396000  1.0
  Ni  Ni15  2  0.75000000  0.25001000  0.87719000  1.0
  Ni  Ni16  1  0.22342000  0.00000000  0.13169000  1.0
  Ni  Ni17  1  0.24535000  0.50000000  0.11701000  1.0
  Ni  Ni18  1  0.25000000  0.00000000  0.95906000  1.0
  Ni  Ni19  1  0.25000000  0.50000000  0.95906000  1.0
  Ni  Ni20  1  0.75000000  0.00000000  0.95906000  1.0
  Ni  Ni21  1  0.75000000  0.50000000  0.95906000  1.0
  Ni  Ni22  1  0.75384000  0.50000000  0.11760000  1.0
  Ni  Ni23  1  0.76958000  0.00000000  0.11740000  1.0
  C  C24  1  0.31643000  0.00000000  0.19456000  1.0
  O  O25  1  0.35387000  0.00000000  0.23780000  1.0
