# generated using pymatgen
data_Li8In8Cu8Ge8CO
_symmetry_space_group_name_H-M   Pm
_cell_length_a   6.49386000
_cell_length_b   9.18370000
_cell_length_c   26.88780000
_cell_angle_alpha   90.00000000
_cell_angle_beta   90.00000000
_cell_angle_gamma   90.00000000
_symmetry_Int_Tables_number   6
_chemical_formula_structural   Li8In8Cu8Ge8CO
_chemical_formula_sum   'Li8 In8 Cu8 Ge8 C1 O1'
_cell_volume   1603.52553053
_cell_formula_units_Z   1
loop_
 _symmetry_equiv_pos_site_id
 _symmetry_equiv_pos_as_xyz
  1  'x, y, z'
  2  'x, -y, z'
loop_
 _atom_site_type_symbol
 _atom_site_label
 _atom_site_symmetry_multiplicity
 _atom_site_fract_x
 _atom_site_fract_y
 _atom_site_fract_z
 _atom_site_occupancy
  Li  Li0  2  0.00000000  0.25000000  0.95731000  1.0
  Li  Li1  2  0.80326000  0.25412000  0.16113000  1.0
  Li  Li2  1  0.42152000  0.50000000  0.05410000  1.0
  Li  Li3  1  0.43484000  0.00000000  0.05442000  1.0
  Li  Li4  1  0.50000000  0.00000000  0.87192000  1.0
  Li  Li5  1  0.50000000  0.50000000  0.87192000  1.0
  In  In6  2  0.71580000  0.26097000  0.04652000  1.0
  In  In7  2  0.75000000  0.25000000  0.87192000  1.0
  In  In8  1  0.09944000  0.00000000  0.13978000  1.0
  In  In9  1  0.10759000  0.50000000  0.13954000  1.0
  In  In10  1  0.25000000  0.00000000  0.95731000  1.0
  In  In11  1  0.25000000  0.50000000  0.95731000  1.0
  Cu  Cu12  2  0.43301000  0.25637000  0.12315000  1.0
  Cu  Cu13  2  0.50000000  0.25000000  0.95731000  1.0
  Cu  Cu14  1  0.00000000  0.00000000  0.87192000  1.0
  Cu  Cu15  1  0.00000000  0.50000000  0.87192000  1.0
  Cu  Cu16  1  0.97822000  0.00000000  0.03436000  1.0
  Cu  Cu17  1  0.99174000  0.50000000  0.03350000  1.0
  Ge  Ge18  2  0.15613000  0.24779000  0.05751000  1.0
  Ge  Ge19  2  0.25000000  0.25000000  0.87192000  1.0
  Ge  Ge20  1  0.56190000  0.50000000  0.15240000  1.0
  Ge  Ge21  1  0.56827000  0.00000000  0.15406000  1.0
  Ge  Ge22  1  0.75000000  0.00000000  0.95731000  1.0
  Ge  Ge23  1  0.75000000  0.50000000  0.95731000  1.0
  C  C24  1  0.45173000  0.00000000  0.22095000  1.0
  O  O25  1  0.41365000  0.00000000  0.26326000  1.0
