# generated using pymatgen
data_Li8Mg8Ge8Pd8CO
_symmetry_space_group_name_H-M   Pm
_cell_length_a   6.25843000
_cell_length_b   8.85076000
_cell_length_c   26.63810000
_cell_angle_alpha   90.00000000
_cell_angle_beta   90.00000000
_cell_angle_gamma   90.00000000
_symmetry_Int_Tables_number   6
_chemical_formula_structural   Li8Mg8Ge8Pd8CO
_chemical_formula_sum   'Li8 Mg8 Ge8 Pd8 C1 O1'
_cell_volume   1475.53395666
_cell_formula_units_Z   1
loop_
 _symmetry_equiv_pos_site_id
 _symmetry_equiv_pos_as_xyz
  1  'x, y, z'
  2  'x, -y, z'
loop_
 _atom_site_type_symbol
 _atom_site_label
 _atom_site_symmetry_multiplicity
 _atom_site_fract_x
 _atom_site_fract_y
 _atom_site_fract_z
 _atom_site_occupancy
  Li  Li0  2  0.75000000  0.24999000  0.87540000  1.0
  Li  Li1  2  0.76464000  0.25265000  0.04633000  1.0
  Li  Li2  1  0.25000000  0.00000000  0.95847000  1.0
  Li  Li3  1  0.25000000  0.50000000  0.95847000  1.0
  Li  Li4  1  0.32776000  0.00000000  0.15672000  1.0
  Li  Li5  1  0.40639000  0.50000000  0.17861000  1.0
  Mg  Mg6  2  -0.00000000  0.24999000  0.95847000  1.0
  Mg  Mg7  2  0.04747000  0.27212000  0.12934000  1.0
  Mg  Mg8  1  0.47947000  0.50000000  0.04757000  1.0
  Mg  Mg9  1  0.50000000  0.00000000  0.87540000  1.0
  Mg  Mg10  1  0.50000000  0.50000000  0.87540000  1.0
  Mg  Mg11  1  0.50940000  0.00000000  0.05175000  1.0
  Ge  Ge12  2  0.50000000  0.25001000  0.95847000  1.0
  Ge  Ge13  2  0.51195000  0.25554000  0.12728000  1.0
  Ge  Ge14  1  -0.00000000  0.50000000  0.87540000  1.0
  Ge  Ge15  1  0.00000000  0.00000000  0.87540000  1.0
  Ge  Ge16  1  0.01316000  0.00000000  0.04687000  1.0
  Ge  Ge17  1  0.01404000  0.50000000  0.04280000  1.0
  Pd  Pd18  2  0.25000000  0.24999000  0.87540000  1.0
  Pd  Pd19  2  0.25530000  0.24357000  0.03866000  1.0
  Pd  Pd20  1  0.75000000  0.00000000  0.95847000  1.0
  Pd  Pd21  1  0.75000000  0.50000000  0.95847000  1.0
  Pd  Pd22  1  0.75950000  0.50000000  0.11920000  1.0
  Pd  Pd23  1  0.80096000  0.00000000  0.13312000  1.0
  C  C24  1  0.84127000  0.00000000  0.20536000  1.0
  O  O25  1  0.84103000  0.00000000  0.24888000  1.0
