# generated using pymatgen
data_Fe24Pd8CO
_symmetry_space_group_name_H-M   Pmm2
_cell_length_a   7.52786000
_cell_length_b   7.52786000
_cell_length_c   25.64590000
_cell_angle_alpha   90.00000000
_cell_angle_beta   90.00000000
_cell_angle_gamma   90.00000000
_symmetry_Int_Tables_number   25
_chemical_formula_structural   Fe24Pd8CO
_chemical_formula_sum   'Fe24 Pd8 C1 O1'
_cell_volume   1453.31920243
_cell_formula_units_Z   1
loop_
 _symmetry_equiv_pos_site_id
 _symmetry_equiv_pos_as_xyz
  1  'x, y, z'
  2  '-x, -y, z'
  3  '-x, y, z'
  4  'x, -y, z'
loop_
 _atom_site_type_symbol
 _atom_site_label
 _atom_site_symmetry_multiplicity
 _atom_site_fract_x
 _atom_site_fract_y
 _atom_site_fract_z
 _atom_site_occupancy
  Fe  Fe0  4  0.25000000  0.25000000  0.11007000  1.0
  Fe  Fe1  4  0.25000000  0.25000000  0.96331000  1.0
  Fe  Fe2  2  0.00000000  0.25000000  0.03669000  1.0
  Fe  Fe3  2  0.00000000  0.25000000  0.88993000  1.0
  Fe  Fe4  2  0.50000000  0.25000000  0.03669000  1.0
  Fe  Fe5  2  0.50000000  0.25000000  0.88993000  1.0
  Fe  Fe6  1  0.00000000  0.00000000  0.11007000  1.0
  Fe  Fe7  1  0.00000000  0.00000000  0.96331000  1.0
  Fe  Fe8  1  0.00000000  0.50000000  0.11007000  1.0
  Fe  Fe9  1  0.00000000  0.50000000  0.96331000  1.0
  Fe  Fe10  1  0.50000000  0.00000000  0.11007000  1.0
  Fe  Fe11  1  0.50000000  0.00000000  0.96331000  1.0
  Fe  Fe12  1  0.50000000  0.50000000  0.11007000  1.0
  Fe  Fe13  1  0.50000000  0.50000000  0.96331000  1.0
  Pd  Pd14  2  0.25000000  0.00000000  0.03669000  1.0
  Pd  Pd15  2  0.25000000  0.00000000  0.88993000  1.0
  Pd  Pd16  2  0.25000000  0.50000000  0.03669000  1.0
  Pd  Pd17  2  0.25000000  0.50000000  0.88993000  1.0
  C  C18  1  0.00000000  0.00000000  0.18416000  1.0
  O  O19  1  0.00000000  0.00000000  0.22900000  1.0
