# generated using pymatgen
data_Y4In4Cu4Sn4C
_symmetry_space_group_name_H-M   Pm
_cell_length_a   6.35598000
_cell_length_b   8.84740000
_cell_length_c   24.76400000
_cell_angle_alpha   90.00000000
_cell_angle_beta   90.00000000
_cell_angle_gamma   90.00000000
_symmetry_Int_Tables_number   6
_chemical_formula_structural   Y4In4Cu4Sn4C
_chemical_formula_sum   'Y4 In4 Cu4 Sn4 C1'
_cell_volume   1392.57623650
_cell_formula_units_Z   1
loop_
 _symmetry_equiv_pos_site_id
 _symmetry_equiv_pos_as_xyz
  1  'x, y, z'
  2  'x, -y, z'
loop_
 _atom_site_type_symbol
 _atom_site_label
 _atom_site_symmetry_multiplicity
 _atom_site_fract_x
 _atom_site_fract_y
 _atom_site_fract_z
 _atom_site_occupancy
  Y  Y0  2  0.50091000  0.21558000  0.09721000  1.0
  Y  Y1  2  0.98234000  0.25000000  0.96794000  1.0
  In  In2  1  0.29298000  0.00000000  0.01556000  1.0
  In  In3  1  0.33211000  0.50000000  0.02522000  1.0
  In  In4  1  0.72350000  0.00000000  0.90381000  1.0
  In  In5  1  0.72350000  0.50000000  0.90381000  1.0
  Cu  Cu6  2  0.04423000  0.15541000  0.09594000  1.0
  Cu  Cu7  2  0.48234000  0.25000000  0.96794000  1.0
  Sn  Sn8  1  0.22350000  0.00000000  0.90381000  1.0
  Sn  Sn9  1  0.22350000  0.50000000  0.90381000  1.0
  Sn  Sn10  1  0.76699000  0.00000000  0.03219000  1.0
  Sn  Sn11  1  0.84494000  0.50000000  0.06793000  1.0
  C  C12  1  0.27391000  0.00000000  0.11106000  1.0
