# generated using pymatgen
data_Fe24Ge8CO
_symmetry_space_group_name_H-M   Pm
_cell_length_a   5.77088000
_cell_length_b   8.16125000
_cell_length_c   26.12090000
_cell_angle_alpha   90.00000000
_cell_angle_beta   90.00000000
_cell_angle_gamma   90.00000000
_symmetry_Int_Tables_number   6
_chemical_formula_structural   Fe24Ge8CO
_chemical_formula_sum   'Fe24 Ge8 C1 O1'
_cell_volume   1230.23155356
_cell_formula_units_Z   1
loop_
 _symmetry_equiv_pos_site_id
 _symmetry_equiv_pos_as_xyz
  1  'x, y, z'
  2  'x, -y, z'
loop_
 _atom_site_type_symbol
 _atom_site_label
 _atom_site_symmetry_multiplicity
 _atom_site_fract_x
 _atom_site_fract_y
 _atom_site_fract_z
 _atom_site_occupancy
  Fe  Fe0  2  -0.00000000  0.25000000  0.96094000  1.0
  Fe  Fe1  2  0.00000000  0.25000000  0.11717000  1.0
  Fe  Fe2  2  0.25000000  0.25000000  0.03906000  1.0
  Fe  Fe3  2  0.25000000  0.25000000  0.88283000  1.0
  Fe  Fe4  2  0.75000000  0.25000000  0.03906000  1.0
  Fe  Fe5  2  0.75000000  0.25000000  0.88283000  1.0
  Fe  Fe6  1  0.25000000  0.00000000  0.11717000  1.0
  Fe  Fe7  1  0.25000000  0.00000000  0.96094000  1.0
  Fe  Fe8  1  0.25000000  0.50000000  0.11717000  1.0
  Fe  Fe9  1  0.25000000  0.50000000  0.96094000  1.0
  Fe  Fe10  1  0.50000000  0.00000000  0.03906000  1.0
  Fe  Fe11  1  0.50000000  0.00000000  0.88283000  1.0
  Fe  Fe12  1  0.50000000  0.50000000  0.03906000  1.0
  Fe  Fe13  1  0.50000000  0.50000000  0.88283000  1.0
  Fe  Fe14  1  0.75000000  0.00000000  0.11717000  1.0
  Fe  Fe15  1  0.75000000  0.00000000  0.96094000  1.0
  Fe  Fe16  1  0.75000000  0.50000000  0.11717000  1.0
  Fe  Fe17  1  0.75000000  0.50000000  0.96094000  1.0
  Ge  Ge18  2  0.50000000  0.25000000  0.11717000  1.0
  Ge  Ge19  2  0.50000000  0.25000000  0.96094000  1.0
  Ge  Ge20  1  -0.00000000  0.50000000  0.03906000  1.0
  Ge  Ge21  1  -0.00000000  0.50000000  0.88283000  1.0
  Ge  Ge22  1  0.00000000  0.00000000  0.03906000  1.0
  Ge  Ge23  1  0.00000000  0.00000000  0.88283000  1.0
  C  C24  1  0.25000000  0.00000000  0.18990000  1.0
  O  O25  1  0.25000000  0.00000000  0.23393000  1.0
