# generated using pymatgen
data_Y4In4Sn4Pd4CO
_symmetry_space_group_name_H-M   'P 1'
_cell_length_a   9.06394000
_cell_length_b   6.32964000
_cell_length_c   24.74170000
_cell_angle_alpha   90.00000000
_cell_angle_beta   90.00000000
_cell_angle_gamma   90.00000000
_symmetry_Int_Tables_number   1
_chemical_formula_structural   Y4In4Sn4Pd4CO
_chemical_formula_sum   'Y4 In4 Sn4 Pd4 C1 O1'
_cell_volume   1419.46787698
_cell_formula_units_Z   1
loop_
 _symmetry_equiv_pos_site_id
 _symmetry_equiv_pos_as_xyz
  1  'x, y, z'
loop_
 _atom_site_type_symbol
 _atom_site_label
 _atom_site_symmetry_multiplicity
 _atom_site_fract_x
 _atom_site_fract_y
 _atom_site_fract_z
 _atom_site_occupancy
  Y  Y0  1  0.25016000  0.73569000  0.97291000  1.0
  Y  Y1  1  0.24999000  0.21396000  0.09582000  1.0
  Y  Y2  1  0.74984000  0.73569000  0.97291000  1.0
  Y  Y3  1  0.75001000  0.21396000  0.09582000  1.0
  In  In4  1  0.00000000  0.01571000  0.90650000  1.0
  In  In5  1  0.00000000  0.47597000  0.03194000  1.0
  In  In6  1  0.50000000  0.00569000  0.90493000  1.0
  In  In7  1  0.50000000  0.47597000  0.03194000  1.0
  Sn  Sn8  1  0.00000000  0.47698000  0.90803000  1.0
  Sn  Sn9  1  0.00000000  0.97597000  0.03194000  1.0
  Sn  Sn10  1  0.50000000  0.46691000  0.90910000  1.0
  Sn  Sn11  1  0.50000000  0.97597000  0.03194000  1.0
  Pd  Pd12  1  0.25076000  0.23410000  0.97061000  1.0
  Pd  Pd13  1  0.24999000  0.71396000  0.09582000  1.0
  Pd  Pd14  1  0.74924000  0.23410000  0.97061000  1.0
  Pd  Pd15  1  0.75001000  0.71396000  0.09582000  1.0
  C  C16  1  0.00000000  0.99321000  0.75365000  1.0
  O  O17  1  0.00000000  0.00173000  0.70784000  1.0
