# generated using pymatgen
data_Ni24Sb8CO
_symmetry_space_group_name_H-M   'P 1'
_cell_length_a   5.97820000
_cell_length_b   8.45446000
_cell_length_c   26.34080000
_cell_angle_alpha   90.00000000
_cell_angle_beta   90.00000000
_cell_angle_gamma   90.00000000
_symmetry_Int_Tables_number   1
_chemical_formula_structural   Ni24Sb8CO
_chemical_formula_sum   'Ni24 Sb8 C1 O1'
_cell_volume   1331.32863998
_cell_formula_units_Z   1
loop_
 _symmetry_equiv_pos_site_id
 _symmetry_equiv_pos_as_xyz
  1  'x, y, z'
loop_
 _atom_site_type_symbol
 _atom_site_label
 _atom_site_symmetry_multiplicity
 _atom_site_fract_x
 _atom_site_fract_y
 _atom_site_fract_z
 _atom_site_occupancy
  Ni  Ni0  1  0.25000000  0.00000000  0.95988000  1.0
  Ni  Ni1  1  0.75000000  0.50000000  0.95988000  1.0
  Ni  Ni2  1  0.75000000  0.00000000  0.95988000  1.0
  Ni  Ni3  1  0.25000000  0.50000000  0.95988000  1.0
  Ni  Ni4  1  0.75000000  0.75000000  0.87964000  1.0
  Ni  Ni5  1  0.25000000  0.25000000  0.87964000  1.0
  Ni  Ni6  1  0.25000000  0.75000000  0.87964000  1.0
  Ni  Ni7  1  0.75000000  0.25000000  0.87964000  1.0
  Ni  Ni8  1  0.00000000  0.75000000  0.95988000  1.0
  Ni  Ni9  1  0.50000000  0.00000000  0.87964000  1.0
  Ni  Ni10  1  0.00000000  0.25000000  0.95988000  1.0
  Ni  Ni11  1  0.50000000  0.50000000  0.87964000  1.0
  Ni  Ni12  1  0.24369000  0.50009000  0.11525000  1.0
  Ni  Ni13  1  0.74676000  0.99998000  0.11426000  1.0
  Ni  Ni14  1  0.78393000  0.49996000  0.12175000  1.0
  Ni  Ni15  1  0.25914000  0.00008000  0.12778000  1.0
  Ni  Ni16  1  0.74260000  0.23671000  0.04002000  1.0
  Ni  Ni17  1  0.26462000  0.73998000  0.04108000  1.0
  Ni  Ni18  1  0.26415000  0.26015000  0.04113000  1.0
  Ni  Ni19  1  0.74225000  0.76337000  0.03997000  1.0
  Ni  Ni20  1  0.00352000  0.24622000  0.11630000  1.0
  Ni  Ni21  1  0.52060000  0.49992000  0.04179000  1.0
  Ni  Ni22  1  0.00341000  0.75379000  0.11614000  1.0
  Ni  Ni23  1  0.47743000  0.00015000  0.04276000  1.0
  Sb  Sb24  1  0.00000000  0.00000000  0.87964000  1.0
  Sb  Sb25  1  0.50000000  0.25000000  0.95988000  1.0
  Sb  Sb26  1  0.50000000  0.75000000  0.95988000  1.0
  Sb  Sb27  1  0.00000000  0.50000000  0.87964000  1.0
  Sb  Sb28  1  0.98923000  0.50019000  0.03848000  1.0
  Sb  Sb29  1  0.51262000  0.74175000  0.12527000  1.0
  Sb  Sb30  1  0.51261000  0.25827000  0.12526000  1.0
  Sb  Sb31  1  0.01994000  0.99995000  0.04058000  1.0
  C  C32  1  0.08693000  0.99996000  0.18310000  1.0
  O  O33  1  0.00348000  0.99980000  0.22285000  1.0
