# generated using pymatgen
data_Li8Ge8Pd8Pt8CO
_symmetry_space_group_name_H-M   'P 1'
_cell_length_a   8.66768000
_cell_length_b   6.12898000
_cell_length_c   26.50080000
_cell_angle_alpha   90.00000000
_cell_angle_beta   90.00000000
_cell_angle_gamma   90.00000000
_symmetry_Int_Tables_number   1
_chemical_formula_structural   Li8Ge8Pd8Pt8CO
_chemical_formula_sum   'Li8 Ge8 Pd8 Pt8 C1 O1'
_cell_volume   1407.82948944
_cell_formula_units_Z   1
loop_
 _symmetry_equiv_pos_site_id
 _symmetry_equiv_pos_as_xyz
  1  'x, y, z'
loop_
 _atom_site_type_symbol
 _atom_site_label
 _atom_site_symmetry_multiplicity
 _atom_site_fract_x
 _atom_site_fract_y
 _atom_site_fract_z
 _atom_site_occupancy
  Li  Li0  1  0.00000000  0.00000000  0.04088000  1.0
  Li  Li1  1  0.50000000  0.00000000  0.04088000  1.0
  Li  Li2  1  0.25000000  0.50000000  0.12265000  1.0
  Li  Li3  1  0.75000000  0.50000000  0.12265000  1.0
  Li  Li4  1  0.50000000  0.00671000  0.86559000  1.0
  Li  Li5  1  0.00000000  0.00666000  0.86237000  1.0
  Li  Li6  1  0.75004000  0.50200000  0.96216000  1.0
  Li  Li7  1  0.24996000  0.50200000  0.96216000  1.0
  Ge  Ge8  1  0.75000000  0.00000000  0.12265000  1.0
  Ge  Ge9  1  0.25000000  0.00000000  0.12265000  1.0
  Ge  Ge10  1  0.50000000  0.50000000  0.04088000  1.0
  Ge  Ge11  1  0.00000000  0.50000000  0.04088000  1.0
  Ge  Ge12  1  0.24979000  0.99608000  0.95736000  1.0
  Ge  Ge13  1  0.75021000  0.99608000  0.95736000  1.0
  Ge  Ge14  1  0.00000000  0.49413000  0.87606000  1.0
  Ge  Ge15  1  0.50000000  0.49345000  0.87503000  1.0
  Pd  Pd16  1  0.75000000  0.75000000  0.04088000  1.0
  Pd  Pd17  1  0.25000000  0.75000000  0.04088000  1.0
  Pd  Pd18  1  0.00000000  0.25000000  0.12265000  1.0
  Pd  Pd19  1  0.50000000  0.25000000  0.12265000  1.0
  Pd  Pd20  1  0.25151000  0.73391000  0.88171000  1.0
  Pd  Pd21  1  0.74849000  0.73391000  0.88171000  1.0
  Pd  Pd22  1  0.50000000  0.24803000  0.96048000  1.0
  Pd  Pd23  1  0.00000000  0.24740000  0.96032000  1.0
  Pt  Pt24  1  0.75000000  0.25000000  0.04088000  1.0
  Pt  Pt25  1  0.25000000  0.25000000  0.04088000  1.0
  Pt  Pt26  1  0.00000000  0.75000000  0.12265000  1.0
  Pt  Pt27  1  0.50000000  0.75000000  0.12265000  1.0
  Pt  Pt28  1  0.25080000  0.26731000  0.88510000  1.0
  Pt  Pt29  1  0.74920000  0.26731000  0.88510000  1.0
  Pt  Pt30  1  0.50000000  0.74967000  0.95857000  1.0
  Pt  Pt31  1  0.00000000  0.74937000  0.95787000  1.0
  C  C32  1  0.00000000  0.99307000  0.78124000  1.0
  O  O33  1  0.00000000  0.99106000  0.73836000  1.0
