# generated using pymatgen
data_Li8In8Ge8Pd8C
_symmetry_space_group_name_H-M   Pm
_cell_length_a   6.51863000
_cell_length_b   9.21874000
_cell_length_c   26.91410000
_cell_angle_alpha   90.00000000
_cell_angle_beta   90.00000000
_cell_angle_gamma   90.00000000
_symmetry_Int_Tables_number   6
_chemical_formula_structural   Li8In8Ge8Pd8C
_chemical_formula_sum   'Li8 In8 Ge8 Pd8 C1'
_cell_volume   1617.36395202
_cell_formula_units_Z   1
loop_
 _symmetry_equiv_pos_site_id
 _symmetry_equiv_pos_as_xyz
  1  'x, y, z'
  2  'x, -y, z'
loop_
 _atom_site_type_symbol
 _atom_site_label
 _atom_site_symmetry_multiplicity
 _atom_site_fract_x
 _atom_site_fract_y
 _atom_site_fract_z
 _atom_site_occupancy
  Li  Li0  2  0.21640000  0.24792000  0.05284000  1.0
  Li  Li1  2  0.25000000  0.24999000  0.87155000  1.0
  Li  Li2  1  0.66113000  0.00000000  0.14115000  1.0
  Li  Li3  1  0.75000000  0.00000000  0.95718000  1.0
  Li  Li4  1  0.75000000  0.50000000  0.95718000  1.0
  Li  Li5  1  0.81748000  0.50000000  0.13603000  1.0
  In  In6  2  0.00000000  0.24999000  0.95718000  1.0
  In  In7  2  0.01545000  0.23591000  0.15576000  1.0
  In  In8  1  0.49331000  0.00000000  0.04178000  1.0
  In  In9  1  0.50000000  0.00000000  0.87155000  1.0
  In  In10  1  0.50000000  0.50000000  0.87155000  1.0
  In  In11  1  0.50486000  0.50000000  0.04422000  1.0
  Ge  Ge12  2  0.50000000  0.25001000  0.95718000  1.0
  Ge  Ge13  2  0.53058000  0.29161000  0.13689000  1.0
  Ge  Ge14  1  0.00000000  0.00000000  0.87155000  1.0
  Ge  Ge15  1  0.00000000  0.50000000  0.87155000  1.0
  Ge  Ge16  1  0.95610000  0.00000000  0.05092000  1.0
  Ge  Ge17  1  0.97610000  0.50000000  0.04154000  1.0
  Pd  Pd18  2  0.75000000  0.24999000  0.87155000  1.0
  Pd  Pd19  2  0.75088000  0.25066000  0.04022000  1.0
  Pd  Pd20  1  0.20477000  0.50000000  0.11786000  1.0
  Pd  Pd21  1  0.22123000  0.00000000  0.11951000  1.0
  Pd  Pd22  1  0.25000000  0.00000000  0.95718000  1.0
  Pd  Pd23  1  0.25000000  0.50000000  0.95718000  1.0
  C  C24  1  0.50929000  0.50000000  0.14563000  1.0
