# generated using pymatgen
data_Sc8Ga8Cu16C
_symmetry_space_group_name_H-M   'P 1'
_cell_length_a   6.23499000
_cell_length_b   8.81761000
_cell_length_c   26.61320000
_cell_angle_alpha   90.00000000
_cell_angle_beta   90.00000000
_cell_angle_gamma   90.00000000
_symmetry_Int_Tables_number   1
_chemical_formula_structural   Sc8Ga8Cu16C
_chemical_formula_sum   'Sc8 Ga8 Cu16 C1'
_cell_volume   1463.13279640
_cell_formula_units_Z   1
loop_
 _symmetry_equiv_pos_site_id
 _symmetry_equiv_pos_as_xyz
  1  'x, y, z'
loop_
 _atom_site_type_symbol
 _atom_site_label
 _atom_site_symmetry_multiplicity
 _atom_site_fract_x
 _atom_site_fract_y
 _atom_site_fract_z
 _atom_site_occupancy
  Sc  Sc0  1  0.00000000  0.00000000  0.87575000  1.0
  Sc  Sc1  1  0.50000000  0.25000000  0.95858000  1.0
  Sc  Sc2  1  0.50000000  0.75000000  0.95858000  1.0
  Sc  Sc3  1  0.00000000  0.50000000  0.87575000  1.0
  Sc  Sc4  1  0.00000000  0.50000000  0.04010000  1.0
  Sc  Sc5  1  0.50000000  0.75877000  0.12996000  1.0
  Sc  Sc6  1  0.50000000  0.24123000  0.12996000  1.0
  Sc  Sc7  1  0.00000000  0.00000000  0.04226000  1.0
  Ga  Ga8  1  0.00000000  0.75000000  0.95858000  1.0
  Ga  Ga9  1  0.50000000  0.00000000  0.87575000  1.0
  Ga  Ga10  1  0.00000000  0.25000000  0.95858000  1.0
  Ga  Ga11  1  0.50000000  0.50000000  0.87575000  1.0
  Ga  Ga12  1  0.00000000  0.25452000  0.11928000  1.0
  Ga  Ga13  1  0.50000000  0.50000000  0.04111000  1.0
  Ga  Ga14  1  0.00000000  0.74548000  0.11928000  1.0
  Ga  Ga15  1  0.50000000  0.00000000  0.04582000  1.0
  Cu  Cu16  1  0.25000000  0.00000000  0.95858000  1.0
  Cu  Cu17  1  0.75000000  0.50000000  0.95858000  1.0
  Cu  Cu18  1  0.75000000  0.00000000  0.95858000  1.0
  Cu  Cu19  1  0.25000000  0.50000000  0.95858000  1.0
  Cu  Cu20  1  0.75000000  0.75000000  0.87575000  1.0
  Cu  Cu21  1  0.25000000  0.25000000  0.87575000  1.0
  Cu  Cu22  1  0.25000000  0.75000000  0.87575000  1.0
  Cu  Cu23  1  0.75000000  0.25000000  0.87575000  1.0
  Cu  Cu24  1  0.23612000  0.50000000  0.12311000  1.0
  Cu  Cu25  1  0.80608000  0.00000000  0.13348000  1.0
  Cu  Cu26  1  0.76388000  0.50000000  0.12311000  1.0
  Cu  Cu27  1  0.19392000  0.00000000  0.13348000  1.0
  Cu  Cu28  1  0.73541000  0.25295000  0.04253000  1.0
  Cu  Cu29  1  0.26459000  0.74705000  0.04253000  1.0
  Cu  Cu30  1  0.26459000  0.25295000  0.04253000  1.0
  Cu  Cu31  1  0.73541000  0.74705000  0.04253000  1.0
  C  C32  1  0.50000000  0.00000000  0.13940000  1.0
