# generated using pymatgen
data_Li8Cu8Sn8Ge8C
_symmetry_space_group_name_H-M   P1
_cell_length_a   6.57410000
_cell_length_b   9.29718000
_cell_length_c   26.97290000
_cell_angle_alpha   90.00000000
_cell_angle_beta   90.00000000
_cell_angle_gamma   90.00000000
_symmetry_Int_Tables_number   1
_chemical_formula_structural   Li8Cu8Sn8Ge8C
_chemical_formula_sum   'Li8 Cu8 Sn8 Ge8 C1'
_cell_volume   1648.59959001
_cell_formula_units_Z   1
loop_
 _symmetry_equiv_pos_site_id
 _symmetry_equiv_pos_as_xyz
  1  'x, y, z'
loop_
 _atom_site_type_symbol
 _atom_site_label
 _atom_site_symmetry_multiplicity
 _atom_site_fract_x
 _atom_site_fract_y
 _atom_site_fract_z
 _atom_site_occupancy
  Li  Li0  1  0.00000000  0.25000000  0.95691000  1.0
  Li  Li1  1  0.00000000  0.75000000  0.95691000  1.0
  Li  Li2  1  0.46147000  0.00005000  0.05288000  1.0
  Li  Li3  1  0.46476000  0.49996000  0.04156000  1.0
  Li  Li4  1  0.50000000  0.00000000  0.87074000  1.0
  Li  Li5  1  0.50000000  0.50000000  0.87074000  1.0
  Li  Li6  1  0.89029000  0.72684000  0.14190000  1.0
  Li  Li7  1  0.89060000  0.27290000  0.14193000  1.0
  Cu  Cu8  1  0.00000000  0.00000000  0.87074000  1.0
  Cu  Cu9  1  0.00000000  0.50000000  0.87074000  1.0
  Cu  Cu10  1  0.00971000  0.99999000  0.03346000  1.0
  Cu  Cu11  1  0.50000000  0.25000000  0.95691000  1.0
  Cu  Cu12  1  0.50000000  0.75000000  0.95691000  1.0
  Cu  Cu13  1  0.50847000  0.79819000  0.12136000  1.0
  Cu  Cu14  1  0.50911000  0.20253000  0.12130000  1.0
  Cu  Cu15  1  0.86412000  0.49996000  0.06268000  1.0
  Sn  Sn16  1  0.17222000  0.26936000  0.05503000  1.0
  Sn  Sn17  1  0.17232000  0.73054000  0.05504000  1.0
  Sn  Sn18  1  0.25000000  0.25000000  0.87074000  1.0
  Sn  Sn19  1  0.25000000  0.75000000  0.87074000  1.0
  Sn  Sn20  1  0.58143000  0.50006000  0.14591000  1.0
  Sn  Sn21  1  0.65121000  0.99985000  0.19090000  1.0
  Sn  Sn22  1  0.75000000  0.00000000  0.95691000  1.0
  Sn  Sn23  1  0.75000000  0.50000000  0.95691000  1.0
  Ge  Ge24  1  0.12244000  0.99994000  0.12583000  1.0
  Ge  Ge25  1  0.16265000  0.49992000  0.12988000  1.0
  Ge  Ge26  1  0.25000000  0.00000000  0.95691000  1.0
  Ge  Ge27  1  0.25000000  0.50000000  0.95691000  1.0
  Ge  Ge28  1  0.71077000  0.74983000  0.04264000  1.0
  Ge  Ge29  1  0.71096000  0.25010000  0.04252000  1.0
  Ge  Ge30  1  0.75000000  0.25000000  0.87074000  1.0
  Ge  Ge31  1  0.75000000  0.75000000  0.87074000  1.0
  C  C32  1  0.41555000  0.99997000  0.13584000  1.0
