# generated using pymatgen
data_Sc8Sn8Pd16C
_symmetry_space_group_name_H-M   'P 1'
_cell_length_a   6.62889000
_cell_length_b   9.37466000
_cell_length_c   27.03100000
_cell_angle_alpha   90.00000000
_cell_angle_beta   90.00000000
_cell_angle_gamma   90.00000000
_symmetry_Int_Tables_number   1
_chemical_formula_structural   Sc8Sn8Pd16C
_chemical_formula_sum   'Sc8 Sn8 Pd16 C1'
_cell_volume   1679.80337933
_cell_formula_units_Z   1
loop_
 _symmetry_equiv_pos_site_id
 _symmetry_equiv_pos_as_xyz
  1  'x, y, z'
loop_
 _atom_site_type_symbol
 _atom_site_label
 _atom_site_symmetry_multiplicity
 _atom_site_fract_x
 _atom_site_fract_y
 _atom_site_fract_z
 _atom_site_occupancy
  Sc  Sc0  1  0.00000000  0.00000000  0.86995000  1.0
  Sc  Sc1  1  0.50000000  0.25000000  0.95665000  1.0
  Sc  Sc2  1  0.50000000  0.75000000  0.95665000  1.0
  Sc  Sc3  1  0.00000000  0.50000000  0.86995000  1.0
  Sc  Sc4  1  0.00000000  0.50000000  0.04363000  1.0
  Sc  Sc5  1  0.50000000  0.76735000  0.13102000  1.0
  Sc  Sc6  1  0.50000000  0.23265000  0.13102000  1.0
  Sc  Sc7  1  0.00000000  0.00000000  0.04428000  1.0
  Sn  Sn8  1  0.00000000  0.75000000  0.95665000  1.0
  Sn  Sn9  1  0.50000000  0.00000000  0.86995000  1.0
  Sn  Sn10  1  0.00000000  0.25000000  0.95665000  1.0
  Sn  Sn11  1  0.50000000  0.50000000  0.86995000  1.0
  Sn  Sn12  1  0.00000000  0.25839000  0.13397000  1.0
  Sn  Sn13  1  0.50000000  0.50000000  0.04340000  1.0
  Sn  Sn14  1  0.00000000  0.74161000  0.13397000  1.0
  Sn  Sn15  1  0.50000000  0.00000000  0.04467000  1.0
  Pd  Pd16  1  0.25000000  0.00000000  0.95665000  1.0
  Pd  Pd17  1  0.75000000  0.50000000  0.95665000  1.0
  Pd  Pd18  1  0.75000000  0.00000000  0.95665000  1.0
  Pd  Pd19  1  0.25000000  0.50000000  0.95665000  1.0
  Pd  Pd20  1  0.75000000  0.75000000  0.86995000  1.0
  Pd  Pd21  1  0.25000000  0.25000000  0.86995000  1.0
  Pd  Pd22  1  0.25000000  0.75000000  0.86995000  1.0
  Pd  Pd23  1  0.75000000  0.25000000  0.86995000  1.0
  Pd  Pd24  1  0.24943000  0.50000000  0.12470000  1.0
  Pd  Pd25  1  0.80088000  0.00000000  0.13104000  1.0
  Pd  Pd26  1  0.75057000  0.50000000  0.12470000  1.0
  Pd  Pd27  1  0.19912000  0.00000000  0.13104000  1.0
  Pd  Pd28  1  0.74661000  0.25168000  0.04433000  1.0
  Pd  Pd29  1  0.25339000  0.74832000  0.04433000  1.0
  Pd  Pd30  1  0.25339000  0.25168000  0.04433000  1.0
  Pd  Pd31  1  0.74661000  0.74832000  0.04433000  1.0
  C  C32  1  0.50000000  0.00000000  0.13875000  1.0
