# generated using pymatgen
data_Sc8Sn8Pd16C
_symmetry_space_group_name_H-M   Pmm2
_cell_length_a   6.62889000
_cell_length_b   9.37466000
_cell_length_c   27.03100000
_cell_angle_alpha   90.00000000
_cell_angle_beta   90.00000000
_cell_angle_gamma   90.00000000
_symmetry_Int_Tables_number   25
_chemical_formula_structural   Sc8Sn8Pd16C
_chemical_formula_sum   'Sc8 Sn8 Pd16 C1'
_cell_volume   1679.80337933
_cell_formula_units_Z   1
loop_
 _symmetry_equiv_pos_site_id
 _symmetry_equiv_pos_as_xyz
  1  'x, y, z'
  2  '-x, -y, z'
  3  '-x, y, z'
  4  'x, -y, z'
loop_
 _atom_site_type_symbol
 _atom_site_label
 _atom_site_symmetry_multiplicity
 _atom_site_fract_x
 _atom_site_fract_y
 _atom_site_fract_z
 _atom_site_occupancy
  Sc  Sc0  2  0.50000000  0.23265000  0.13102000  1.0
  Sc  Sc1  2  0.50000000  0.25000000  0.95665000  1.0
  Sc  Sc2  1  0.00000000  0.00000000  0.04428000  1.0
  Sc  Sc3  1  0.00000000  0.00000000  0.86995000  1.0
  Sc  Sc4  1  0.00000000  0.50000000  0.04363000  1.0
  Sc  Sc5  1  0.00000000  0.50000000  0.86995000  1.0
  Sn  Sn6  2  0.00000000  0.25000000  0.95665000  1.0
  Sn  Sn7  2  0.00000000  0.25839000  0.13397000  1.0
  Sn  Sn8  1  0.50000000  0.00000000  0.04467000  1.0
  Sn  Sn9  1  0.50000000  0.00000000  0.86995000  1.0
  Sn  Sn10  1  0.50000000  0.50000000  0.04340000  1.0
  Sn  Sn11  1  0.50000000  0.50000000  0.86995000  1.0
  Pd  Pd12  4  0.25000000  0.25000000  0.86995000  1.0
  Pd  Pd13  4  0.25339000  0.25168000  0.04433000  1.0
  Pd  Pd14  2  0.19912000  0.00000000  0.13104000  1.0
  Pd  Pd15  2  0.24943000  0.50000000  0.12470000  1.0
  Pd  Pd16  2  0.25000000  0.00000000  0.95665000  1.0
  Pd  Pd17  2  0.25000000  0.50000000  0.95665000  1.0
  C  C18  1  0.50000000  0.00000000  0.13875000  1.0
