data_image0
_chemical_formula_structural       Li16Bi8Au8CO
_chemical_formula_sum              "Li16 Bi8 Au8 C1 O1"
_cell_length_a       6.87958
_cell_length_b       9.72919
_cell_length_c       27.2969
_cell_angle_alpha    90
_cell_angle_beta     90
_cell_angle_gamma    90

_space_group_name_H-M_alt    "P 1"
_space_group_IT_number       1

loop_
  _space_group_symop_operation_xyz
  'x, y, z'

loop_
  _atom_site_type_symbol
  _atom_site_label
  _atom_site_symmetry_multiplicity
  _atom_site_fract_x
  _atom_site_fract_y
  _atom_site_fract_z
  _atom_site_occupancy
  Li  Li1       1.0  0.00000  0.75000  0.95545  1.0000
  Li  Li2       1.0  0.50000  0.00000  0.86634  1.0000
  Li  Li3       1.0  0.00000  0.25000  0.95545  1.0000
  Li  Li4       1.0  0.50000  0.50000  0.86634  1.0000
  Li  Li5       1.0  0.25000  0.25000  0.86634  1.0000
  Li  Li6       1.0  0.25000  0.75000  0.86634  1.0000
  Li  Li7       1.0  0.75000  0.50000  0.95545  1.0000
  Li  Li8       1.0  0.75000  0.00000  0.95545  1.0000
  Li  Li9       1.0  0.03178  0.25000  0.12809  1.0000
  Li  Li10      1.0  0.50185  0.48285  0.03755  1.0000
  Li  Li11      1.0  0.03832  0.75000  0.12823  1.0000
  Li  Li12      1.0  0.50185  0.01714  0.03755  1.0000
  Li  Li13      1.0  0.29946  0.75000  0.05310  1.0000
  Li  Li14      1.0  0.24022  0.25000  0.04678  1.0000
  Li  Li15      1.0  0.68570  0.99310  0.12786  1.0000
  Li  Li16      1.0  0.68570  0.50691  0.12786  1.0000
  Bi  Bi1       1.0  0.00000  0.00000  0.86634  1.0000
  Bi  Bi2       1.0  0.50000  0.25000  0.95545  1.0000
  Bi  Bi3       1.0  0.50000  0.75000  0.95545  1.0000
  Bi  Bi4       1.0  0.00000  0.50000  0.86634  1.0000
  Bi  Bi5       1.0  0.97129  0.51734  0.04500  1.0000
  Bi  Bi6       1.0  0.44887  0.75000  0.16028  1.0000
  Bi  Bi7       1.0  0.48030  0.25000  0.14269  1.0000
  Bi  Bi8       1.0  0.97129  0.98265  0.04500  1.0000
  Au  Au1       1.0  0.25000  0.00000  0.95545  1.0000
  Au  Au2       1.0  0.25000  0.50000  0.95545  1.0000
  Au  Au3       1.0  0.75000  0.75000  0.86634  1.0000
  Au  Au4       1.0  0.75000  0.25000  0.86634  1.0000
  Au  Au5       1.0  0.27388  0.50259  0.11763  1.0000
  Au  Au6       1.0  0.27389  0.99741  0.11763  1.0000
  Au  Au7       1.0  0.75607  0.25000  0.05611  1.0000
  Au  Au8       1.0  0.70127  0.75000  0.07412  1.0000
  C   C1        1.0  0.37574  0.25000  0.27637  1.0000
  O   O1        1.0  0.52507  0.25000  0.29414  1.0000
