# generated using pymatgen
data_Li16Bi8Au8CO
_symmetry_space_group_name_H-M   'P 1'
_cell_length_a   6.87958000
_cell_length_b   9.72919000
_cell_length_c   27.29690000
_cell_angle_alpha   90.00000000
_cell_angle_beta   90.00000000
_cell_angle_gamma   90.00000000
_symmetry_Int_Tables_number   1
_chemical_formula_structural   Li16Bi8Au8CO
_chemical_formula_sum   'Li16 Bi8 Au8 C1 O1'
_cell_volume   1827.05633617
_cell_formula_units_Z   1
loop_
 _symmetry_equiv_pos_site_id
 _symmetry_equiv_pos_as_xyz
  1  'x, y, z'
loop_
 _atom_site_type_symbol
 _atom_site_label
 _atom_site_symmetry_multiplicity
 _atom_site_fract_x
 _atom_site_fract_y
 _atom_site_fract_z
 _atom_site_occupancy
  Li  Li0  1  0.00000000  0.75000000  0.95545000  1.0
  Li  Li1  1  0.50000000  0.00000000  0.86634000  1.0
  Li  Li2  1  0.00000000  0.25000000  0.95545000  1.0
  Li  Li3  1  0.50000000  0.50000000  0.86634000  1.0
  Li  Li4  1  0.25000000  0.25000000  0.86634000  1.0
  Li  Li5  1  0.25000000  0.75000000  0.86634000  1.0
  Li  Li6  1  0.75000000  0.50000000  0.95545000  1.0
  Li  Li7  1  0.75000000  0.00000000  0.95545000  1.0
  Li  Li8  1  0.01344000  0.25000000  0.12727000  1.0
  Li  Li9  1  0.48849000  0.49726000  0.03676000  1.0
  Li  Li10  1  0.01758000  0.74999000  0.12699000  1.0
  Li  Li11  1  0.48850000  0.00276000  0.03676000  1.0
  Li  Li12  1  0.27553000  0.75000000  0.05249000  1.0
  Li  Li13  1  0.26244000  0.25000000  0.05011000  1.0
  Li  Li14  1  0.66898000  0.99744000  0.12645000  1.0
  Li  Li15  1  0.66897000  0.50254000  0.12644000  1.0
  Bi  Bi16  1  0.00000000  0.00000000  0.86634000  1.0
  Bi  Bi17  1  0.50000000  0.25000000  0.95545000  1.0
  Bi  Bi18  1  0.50000000  0.75000000  0.95545000  1.0
  Bi  Bi19  1  0.00000000  0.50000000  0.86634000  1.0
  Bi  Bi20  1  0.96030000  0.50365000  0.04539000  1.0
  Bi  Bi21  1  0.44580000  0.74998000  0.15675000  1.0
  Bi  Bi22  1  0.45219000  0.24999000  0.15187000  1.0
  Bi  Bi23  1  0.96031000  0.99633000  0.04539000  1.0
  Au  Au24  1  0.25000000  0.00000000  0.95545000  1.0
  Au  Au25  1  0.25000000  0.50000000  0.95545000  1.0
  Au  Au26  1  0.75000000  0.75000000  0.86634000  1.0
  Au  Au27  1  0.75000000  0.25000000  0.86634000  1.0
  Au  Au28  1  0.25998000  0.50137000  0.11830000  1.0
  Au  Au29  1  0.25998000  0.99861000  0.11830000  1.0
  Au  Au30  1  0.70524000  0.25001000  0.06397000  1.0
  Au  Au31  1  0.69364000  0.74998000  0.06831000  1.0
  C  C32  1  0.34482000  0.25005000  0.28914000  1.0
  O  O33  1  0.49942000  0.25002000  0.30372000  1.0
