data_image0
_chemical_formula_structural       Li24Bi8CO
_chemical_formula_sum              "Li24 Bi8 C1 O1"
_cell_length_a       6.74
_cell_length_b       9.53179
_cell_length_c       27.1488
_cell_angle_alpha    90
_cell_angle_beta     90
_cell_angle_gamma    90

_space_group_name_H-M_alt    "P 1"
_space_group_IT_number       1

loop_
  _space_group_symop_operation_xyz
  'x, y, z'

loop_
  _atom_site_type_symbol
  _atom_site_label
  _atom_site_symmetry_multiplicity
  _atom_site_fract_x
  _atom_site_fract_y
  _atom_site_fract_z
  _atom_site_occupancy
  Li  Li1       1.0  0.25000  0.00000  0.95611  1.0000
  Li  Li2       1.0  0.75000  0.50000  0.95611  1.0000
  Li  Li3       1.0  0.75000  0.00000  0.95611  1.0000
  Li  Li4       1.0  0.25000  0.50000  0.95611  1.0000
  Li  Li5       1.0  0.75000  0.75000  0.86834  1.0000
  Li  Li6       1.0  0.25000  0.25000  0.86834  1.0000
  Li  Li7       1.0  0.25000  0.75000  0.86834  1.0000
  Li  Li8       1.0  0.75000  0.25000  0.86834  1.0000
  Li  Li9       1.0  0.00000  0.75000  0.95611  1.0000
  Li  Li10      1.0  0.50000  0.00000  0.86834  1.0000
  Li  Li11      1.0  0.00000  0.25000  0.95611  1.0000
  Li  Li12      1.0  0.50000  0.50000  0.86834  1.0000
  Li  Li13      1.0  0.28333  0.50000  0.13335  1.0000
  Li  Li14      1.0  0.72094  0.00000  0.13091  1.0000
  Li  Li15      1.0  0.72280  0.50000  0.13126  1.0000
  Li  Li16      1.0  0.27593  1.00000  0.13390  1.0000
  Li  Li17      1.0  0.74437  0.24999  0.04291  1.0000
  Li  Li18      1.0  0.25790  0.75009  0.04401  1.0000
  Li  Li19      1.0  0.25790  0.24991  0.04400  1.0000
  Li  Li20      1.0  0.74437  0.75001  0.04291  1.0000
  Li  Li21      1.0  0.99417  0.24999  0.12202  1.0000
  Li  Li22      1.0  0.49974  0.50000  0.04508  1.0000
  Li  Li23      1.0  0.99416  0.75001  0.12202  1.0000
  Li  Li24      1.0  0.49777  1.00000  0.04566  1.0000
  Bi  Bi1       1.0  0.00000  0.00000  0.86834  1.0000
  Bi  Bi2       1.0  0.50000  0.25000  0.95611  1.0000
  Bi  Bi3       1.0  0.50000  0.75000  0.95611  1.0000
  Bi  Bi4       1.0  0.00000  0.50000  0.86834  1.0000
  Bi  Bi5       1.0  0.00325  0.50000  0.04899  1.0000
  Bi  Bi6       1.0  0.50545  0.74884  0.13192  1.0000
  Bi  Bi7       1.0  0.50545  0.25116  0.13192  1.0000
  Bi  Bi8       1.0  0.00237  1.00000  0.04824  1.0000
  C   C1        1.0  0.22557  0.00000  0.21020  1.0000
  O   O1        1.0  0.23302  0.00000  0.25221  1.0000
