# generated using pymatgen
data_Li24Bi8CO
_symmetry_space_group_name_H-M   'P 1'
_cell_length_a   9.53179000
_cell_length_b   6.74000000
_cell_length_c   27.14880000
_cell_angle_alpha   90.00000000
_cell_angle_beta   90.00000000
_cell_angle_gamma   90.00000000
_symmetry_Int_Tables_number   1
_chemical_formula_structural   Li24Bi8CO
_chemical_formula_sum   'Li24 Bi8 C1 O1'
_cell_volume   1744.15469077
_cell_formula_units_Z   1
loop_
 _symmetry_equiv_pos_site_id
 _symmetry_equiv_pos_as_xyz
  1  'x, y, z'
loop_
 _atom_site_type_symbol
 _atom_site_label
 _atom_site_symmetry_multiplicity
 _atom_site_fract_x
 _atom_site_fract_y
 _atom_site_fract_z
 _atom_site_occupancy
  Li  Li0  1  0.00000000  0.25000000  0.04389000  1.0
  Li  Li1  1  0.50000000  0.75000000  0.04389000  1.0
  Li  Li2  1  0.00000000  0.75000000  0.04389000  1.0
  Li  Li3  1  0.50000000  0.25000000  0.04389000  1.0
  Li  Li4  1  0.75000000  0.75000000  0.13166000  1.0
  Li  Li5  1  0.25000000  0.25000000  0.13166000  1.0
  Li  Li6  1  0.75000000  0.25000000  0.13166000  1.0
  Li  Li7  1  0.25000000  0.75000000  0.13166000  1.0
  Li  Li8  1  0.75000000  0.00000000  0.04389000  1.0
  Li  Li9  1  0.00000000  0.50000000  0.13166000  1.0
  Li  Li10  1  0.25000000  0.00000000  0.04389000  1.0
  Li  Li11  1  0.50000000  0.50000000  0.13166000  1.0
  Li  Li12  1  0.50000000  0.28333000  0.86665000  1.0
  Li  Li13  1  0.00000000  0.72094000  0.86909000  1.0
  Li  Li14  1  0.50000000  0.72280000  0.86874000  1.0
  Li  Li15  1  0.00000000  0.27593000  0.86610000  1.0
  Li  Li16  1  0.24999000  0.74437000  0.95709000  1.0
  Li  Li17  1  0.75009000  0.25790000  0.95599000  1.0
  Li  Li18  1  0.24991000  0.25790000  0.95599000  1.0
  Li  Li19  1  0.75001000  0.74437000  0.95709000  1.0
  Li  Li20  1  0.24999000  0.99417000  0.87798000  1.0
  Li  Li21  1  0.50000000  0.49974000  0.95492000  1.0
  Li  Li22  1  0.75001000  0.99417000  0.87798000  1.0
  Li  Li23  1  0.00000000  0.49777000  0.95434000  1.0
  Bi  Bi24  1  0.00000000  0.00000000  0.13166000  1.0
  Bi  Bi25  1  0.25000000  0.50000000  0.04389000  1.0
  Bi  Bi26  1  0.75000000  0.50000000  0.04389000  1.0
  Bi  Bi27  1  0.50000000  0.00000000  0.13166000  1.0
  Bi  Bi28  1  0.50000000  0.00325000  0.95101000  1.0
  Bi  Bi29  1  0.74884000  0.50545000  0.86808000  1.0
  Bi  Bi30  1  0.25116000  0.50545000  0.86808000  1.0
  Bi  Bi31  1  0.00000000  0.00237000  0.95176000  1.0
  C  C32  1  0.00000000  0.22557000  0.78980000  1.0
  O  O33  1  0.00000000  0.23302000  0.74779000  1.0
