# generated using pymatgen
data_Li24Bi8CO
_symmetry_space_group_name_H-M   Pm
_cell_length_a   6.74000000
_cell_length_b   9.53179000
_cell_length_c   27.14880000
_cell_angle_alpha   90.00000000
_cell_angle_beta   90.00000000
_cell_angle_gamma   90.00000000
_symmetry_Int_Tables_number   6
_chemical_formula_structural   Li24Bi8CO
_chemical_formula_sum   'Li24 Bi8 C1 O1'
_cell_volume   1744.15469077
_cell_formula_units_Z   1
loop_
 _symmetry_equiv_pos_site_id
 _symmetry_equiv_pos_as_xyz
  1  'x, y, z'
  2  'x, -y, z'
loop_
 _atom_site_type_symbol
 _atom_site_label
 _atom_site_symmetry_multiplicity
 _atom_site_fract_x
 _atom_site_fract_y
 _atom_site_fract_z
 _atom_site_occupancy
  Li  Li0  2  0.00000000  0.25000000  0.95611000  1.0
  Li  Li1  2  0.25000000  0.25000000  0.86834000  1.0
  Li  Li2  2  0.25790000  0.24991000  0.04401000  1.0
  Li  Li3  2  0.74437000  0.24999000  0.04291000  1.0
  Li  Li4  2  0.75000000  0.25000000  0.86834000  1.0
  Li  Li5  2  0.99417000  0.24999000  0.12202000  1.0
  Li  Li6  1  0.25000000  0.00000000  0.95611000  1.0
  Li  Li7  1  0.25000000  0.50000000  0.95611000  1.0
  Li  Li8  1  0.27593000  0.00000000  0.13390000  1.0
  Li  Li9  1  0.28333000  0.50000000  0.13335000  1.0
  Li  Li10  1  0.49777000  0.00000000  0.04566000  1.0
  Li  Li11  1  0.49974000  0.50000000  0.04508000  1.0
  Li  Li12  1  0.50000000  0.00000000  0.86834000  1.0
  Li  Li13  1  0.50000000  0.50000000  0.86834000  1.0
  Li  Li14  1  0.72094000  0.00000000  0.13091000  1.0
  Li  Li15  1  0.72280000  0.50000000  0.13126000  1.0
  Li  Li16  1  0.75000000  0.00000000  0.95611000  1.0
  Li  Li17  1  0.75000000  0.50000000  0.95611000  1.0
  Bi  Bi18  2  0.50000000  0.25000000  0.95611000  1.0
  Bi  Bi19  2  0.50545000  0.25116000  0.13192000  1.0
  Bi  Bi20  1  0.00000000  0.00000000  0.86834000  1.0
  Bi  Bi21  1  0.00000000  0.50000000  0.86834000  1.0
  Bi  Bi22  1  0.00237000  0.00000000  0.04824000  1.0
  Bi  Bi23  1  0.00325000  0.50000000  0.04899000  1.0
  C  C24  1  0.22557000  0.00000000  0.21020000  1.0
  O  O25  1  0.23302000  0.00000000  0.25221000  1.0
