# generated using pymatgen
data_Sc8Al8Ni16CO
_symmetry_space_group_name_H-M   'P 1'
_cell_length_a   8.59020000
_cell_length_b   6.07419000
_cell_length_c   26.44270000
_cell_angle_alpha   90.00000000
_cell_angle_beta   90.00000000
_cell_angle_gamma   90.00000000
_symmetry_Int_Tables_number   1
_chemical_formula_structural   Sc8Al8Ni16CO
_chemical_formula_sum   'Sc8 Al8 Ni16 C1 O1'
_cell_volume   1379.74060541
_cell_formula_units_Z   1
loop_
 _symmetry_equiv_pos_site_id
 _symmetry_equiv_pos_as_xyz
  1  'x, y, z'
loop_
 _atom_site_type_symbol
 _atom_site_label
 _atom_site_symmetry_multiplicity
 _atom_site_fract_x
 _atom_site_fract_y
 _atom_site_fract_z
 _atom_site_occupancy
  Sc  Sc0  1  0.50000000  0.00000000  0.12182000  1.0
  Sc  Sc1  1  0.75001000  0.50000000  0.04061000  1.0
  Sc  Sc2  1  0.24999000  0.50000000  0.04061000  1.0
  Sc  Sc3  1  0.00000000  0.00000000  0.12182000  1.0
  Sc  Sc4  1  0.00000000  0.00094000  0.96195000  1.0
  Sc  Sc5  1  0.24583000  0.50273000  0.87276000  1.0
  Sc  Sc6  1  0.75417000  0.50273000  0.87276000  1.0
  Sc  Sc7  1  0.50000000  0.00080000  0.96151000  1.0
  Al  Al8  1  0.25001000  0.00000000  0.04061000  1.0
  Al  Al9  1  0.50000000  0.50000000  0.12182000  1.0
  Al  Al10  1  0.74999000  0.00000000  0.04061000  1.0
  Al  Al11  1  0.00000000  0.50000000  0.12182000  1.0
  Al  Al12  1  0.74880000  0.99765000  0.88198000  1.0
  Al  Al13  1  0.00000000  0.49963000  0.95612000  1.0
  Al  Al14  1  0.25120000  0.99765000  0.88198000  1.0
  Al  Al15  1  0.50000000  0.49825000  0.95699000  1.0
  Ni  Ni16  1  0.50000000  0.25000000  0.04061000  1.0
  Ni  Ni17  1  0.00000000  0.75000000  0.04061000  1.0
  Ni  Ni18  1  0.50000000  0.75000000  0.04061000  1.0
  Ni  Ni19  1  0.00000000  0.25000000  0.04061000  1.0
  Ni  Ni20  1  0.25001000  0.75000000  0.12182000  1.0
  Ni  Ni21  1  0.75001000  0.25000000  0.12182000  1.0
  Ni  Ni22  1  0.24999000  0.25000000  0.12182000  1.0
  Ni  Ni23  1  0.74999000  0.75000000  0.12182000  1.0
  Ni  Ni24  1  0.00000000  0.22368000  0.88366000  1.0
  Ni  Ni25  1  0.50000000  0.77143000  0.88592000  1.0
  Ni  Ni26  1  0.00000000  0.77709000  0.88364000  1.0
  Ni  Ni27  1  0.50000000  0.23589000  0.87595000  1.0
  Ni  Ni28  1  0.74996000  0.73532000  0.95743000  1.0
  Ni  Ni29  1  0.25305000  0.26479000  0.95559000  1.0
  Ni  Ni30  1  0.74695000  0.26479000  0.95559000  1.0
  Ni  Ni31  1  0.25004000  0.73532000  0.95743000  1.0
  C  C32  1  0.50000000  0.30736000  0.81138000  1.0
  O  O33  1  0.50000000  0.32889000  0.76729000  1.0
