# generated using pymatgen
data_Sc8Al8Ni16CO
_symmetry_space_group_name_H-M   Pm
_cell_length_a   6.07419000
_cell_length_b   8.59020000
_cell_length_c   26.44270000
_cell_angle_alpha   90.00000000
_cell_angle_beta   90.00000000
_cell_angle_gamma   90.00000000
_symmetry_Int_Tables_number   6
_chemical_formula_structural   Sc8Al8Ni16CO
_chemical_formula_sum   'Sc8 Al8 Ni16 C1 O1'
_cell_volume   1379.74060541
_cell_formula_units_Z   1
loop_
 _symmetry_equiv_pos_site_id
 _symmetry_equiv_pos_as_xyz
  1  'x, y, z'
  2  'x, -y, z'
loop_
 _atom_site_type_symbol
 _atom_site_label
 _atom_site_symmetry_multiplicity
 _atom_site_fract_x
 _atom_site_fract_y
 _atom_site_fract_z
 _atom_site_occupancy
  Sc  Sc0  2  0.50000000  0.24999000  0.95939000  1.0
  Sc  Sc1  2  0.50273000  0.24583000  0.12724000  1.0
  Sc  Sc2  1  0.00000000  0.00000000  0.87818000  1.0
  Sc  Sc3  1  0.00000000  0.50000000  0.87818000  1.0
  Sc  Sc4  1  0.00080000  0.50000000  0.03849000  1.0
  Sc  Sc5  1  0.00094000  0.00000000  0.03805000  1.0
  Al  Al6  2  0.00000000  0.25001000  0.95939000  1.0
  Al  Al7  2  0.99765000  0.25120000  0.11802000  1.0
  Al  Al8  1  0.49825000  0.50000000  0.04301000  1.0
  Al  Al9  1  0.49963000  0.00000000  0.04388000  1.0
  Al  Al10  1  0.50000000  0.00000000  0.87818000  1.0
  Al  Al11  1  0.50000000  0.50000000  0.87818000  1.0
  Ni  Ni12  2  0.25000000  0.24999000  0.87818000  1.0
  Ni  Ni13  2  0.26479000  0.25305000  0.04441000  1.0
  Ni  Ni14  2  0.73532000  0.25004000  0.04257000  1.0
  Ni  Ni15  2  0.75000000  0.25001000  0.87818000  1.0
  Ni  Ni16  1  0.22368000  0.00000000  0.11634000  1.0
  Ni  Ni17  1  0.23589000  0.50000000  0.12405000  1.0
  Ni  Ni18  1  0.25000000  0.00000000  0.95939000  1.0
  Ni  Ni19  1  0.25000000  0.50000000  0.95939000  1.0
  Ni  Ni20  1  0.75000000  0.00000000  0.95939000  1.0
  Ni  Ni21  1  0.75000000  0.50000000  0.95939000  1.0
  Ni  Ni22  1  0.77143000  0.50000000  0.11408000  1.0
  Ni  Ni23  1  0.77709000  0.00000000  0.11636000  1.0
  C  C24  1  0.30736000  0.50000000  0.18862000  1.0
  O  O25  1  0.32889000  0.50000000  0.23271000  1.0
