# generated using pymatgen
data_Li8Al8Pd8Pt8C
_symmetry_space_group_name_H-M   Pm
_cell_length_a   6.06122000
_cell_length_b   8.57186000
_cell_length_c   26.42890000
_cell_angle_alpha   90.00000000
_cell_angle_beta   90.00000000
_cell_angle_gamma   90.00000000
_symmetry_Int_Tables_number   6
_chemical_formula_structural   Li8Al8Pd8Pt8C
_chemical_formula_sum   'Li8 Al8 Pd8 Pt8 C1'
_cell_volume   1373.13805906
_cell_formula_units_Z   1
loop_
 _symmetry_equiv_pos_site_id
 _symmetry_equiv_pos_as_xyz
  1  'x, y, z'
  2  'x, -y, z'
loop_
 _atom_site_type_symbol
 _atom_site_label
 _atom_site_symmetry_multiplicity
 _atom_site_fract_x
 _atom_site_fract_y
 _atom_site_fract_z
 _atom_site_occupancy
  Li  Li0  2  0.00000000  0.25000000  0.95946000  1.0
  Li  Li1  2  0.00809000  0.26149000  0.14122000  1.0
  Li  Li2  1  0.50000000  0.00000000  0.87837000  1.0
  Li  Li3  1  0.50000000  0.50000000  0.87837000  1.0
  Li  Li4  1  0.50119000  0.50000000  0.03967000  1.0
  Li  Li5  1  0.50142000  0.00000000  0.04121000  1.0
  Al  Al6  2  0.49938000  0.24888000  0.12294000  1.0
  Al  Al7  2  0.50000000  0.25000000  0.95946000  1.0
  Al  Al8  1  0.00000000  0.00000000  0.87837000  1.0
  Al  Al9  1  0.00000000  0.50000000  0.87837000  1.0
  Al  Al10  1  0.00132000  0.50000000  0.04222000  1.0
  Al  Al11  1  0.99297000  0.00000000  0.03529000  1.0
  Pd  Pd12  2  0.24509000  0.24725000  0.04134000  1.0
  Pd  Pd13  2  0.25000000  0.25000000  0.87837000  1.0
  Pd  Pd14  1  0.74312000  0.50000000  0.11942000  1.0
  Pd  Pd15  1  0.75000000  0.00000000  0.95946000  1.0
  Pd  Pd16  1  0.75000000  0.50000000  0.95946000  1.0
  Pd  Pd17  1  0.78008000  0.00000000  0.12072000  1.0
  Pt  Pt18  2  0.75000000  0.25000000  0.87837000  1.0
  Pt  Pt19  2  0.75114000  0.24860000  0.04228000  1.0
  Pt  Pt20  1  0.22852000  0.00000000  0.11726000  1.0
  Pt  Pt21  1  0.25000000  0.00000000  0.95946000  1.0
  Pt  Pt22  1  0.25000000  0.50000000  0.95946000  1.0
  Pt  Pt23  1  0.26757000  0.50000000  0.11830000  1.0
  C  C24  1  0.49556000  0.00000000  0.15601000  1.0
