# generated using pymatgen
data_Li8Cu8Si8Pd8CO
_symmetry_space_group_name_H-M   'P 1'
_cell_length_a   5.89837000
_cell_length_b   8.34156000
_cell_length_c   26.25620000
_cell_angle_alpha   90.00000000
_cell_angle_beta   90.00000000
_cell_angle_gamma   90.00000000
_symmetry_Int_Tables_number   1
_chemical_formula_structural   Li8Cu8Si8Pd8CO
_chemical_formula_sum   'Li8 Cu8 Si8 Pd8 C1 O1'
_cell_volume   1291.84724047
_cell_formula_units_Z   1
loop_
 _symmetry_equiv_pos_site_id
 _symmetry_equiv_pos_as_xyz
  1  'x, y, z'
loop_
 _atom_site_type_symbol
 _atom_site_label
 _atom_site_symmetry_multiplicity
 _atom_site_fract_x
 _atom_site_fract_y
 _atom_site_fract_z
 _atom_site_occupancy
  Li  Li0  1  0.75000000  0.00000000  0.96029000  1.0
  Li  Li1  1  0.75000000  0.50000000  0.96029000  1.0
  Li  Li2  1  0.25000000  0.75000000  0.88086000  1.0
  Li  Li3  1  0.25000000  0.25000000  0.88086000  1.0
  Li  Li4  1  0.74949000  0.50000000  0.13566000  1.0
  Li  Li5  1  0.74933000  0.00000000  0.13579000  1.0
  Li  Li6  1  0.25136000  0.24880000  0.03525000  1.0
  Li  Li7  1  0.25137000  0.75120000  0.03524000  1.0
  Cu  Cu8  1  0.00000000  0.00000000  0.88086000  1.0
  Cu  Cu9  1  1.00000000  0.50000000  0.88086000  1.0
  Cu  Cu10  1  0.50000000  0.25000000  0.96029000  1.0
  Cu  Cu11  1  0.50000000  0.75000000  0.96029000  1.0
  Cu  Cu12  1  0.99716000  0.50005000  0.04203000  1.0
  Cu  Cu13  1  0.98579000  0.00000000  0.03975000  1.0
  Cu  Cu14  1  0.47868000  0.74370000  0.11239000  1.0
  Cu  Cu15  1  0.47877000  0.25625000  0.11239000  1.0
  Si  Si16  1  0.25000000  0.00000000  0.96029000  1.0
  Si  Si17  1  0.25000000  0.50000000  0.96029000  1.0
  Si  Si18  1  0.75000000  0.75000000  0.88086000  1.0
  Si  Si19  1  0.75000000  0.25000000  0.88086000  1.0
  Si  Si20  1  0.24667000  0.49999000  0.11989000  1.0
  Si  Si21  1  0.24930000  0.00000000  0.12117000  1.0
  Si  Si22  1  0.74982000  0.25361000  0.03962000  1.0
  Si  Si23  1  0.74977000  0.74640000  0.03961000  1.0
  Pd  Pd24  1  0.00000000  0.75000000  0.96029000  1.0
  Pd  Pd25  1  0.00000000  0.25000000  0.96029000  1.0
  Pd  Pd26  1  0.50000000  0.50000000  0.88086000  1.0
  Pd  Pd27  1  0.50000000  0.00000000  0.88086000  1.0
  Pd  Pd28  1  0.01451000  0.24990000  0.11250000  1.0
  Pd  Pd29  1  0.01451000  0.75012000  0.11249000  1.0
  Pd  Pd30  1  0.51009000  0.00000000  0.04486000  1.0
  Pd  Pd31  1  0.50226000  0.49999000  0.04098000  1.0
  C  C32  1  0.31492000  0.99999000  0.18907000  1.0
  O  O33  1  0.34158000  0.99999000  0.23314000  1.0
