# generated using pymatgen
data_CaPb3
_symmetry_space_group_name_H-M   'P 1'
_cell_length_a   5.02130000
_cell_length_b   5.02130000
_cell_length_c   27.53190000
_cell_angle_alpha   90.00000000
_cell_angle_beta   90.00000000
_cell_angle_gamma   90.00000000
_symmetry_Int_Tables_number   1
_chemical_formula_structural   CaPb3
_chemical_formula_sum   'Ca2 Pb6'
_cell_volume   694.17428565
_cell_formula_units_Z   2
loop_
 _symmetry_equiv_pos_site_id
 _symmetry_equiv_pos_as_xyz
  1  'x, y, z'
loop_
 _atom_site_type_symbol
 _atom_site_label
 _atom_site_symmetry_multiplicity
 _atom_site_fract_x
 _atom_site_fract_y
 _atom_site_fract_z
 _atom_site_occupancy
  Ca  Ca0  1  0.00000000  0.00000000  0.13679000  1.0
  Ca  Ca1  1  0.00000000  0.00000000  0.95440000  1.0
  Pb  Pb2  1  0.50000000  0.00000000  0.04560000  1.0
  Pb  Pb3  1  0.00000000  0.50000000  0.04560000  1.0
  Pb  Pb4  1  0.50000000  0.50000000  0.13679000  1.0
  Pb  Pb5  1  0.50000000  0.00000000  0.86321000  1.0
  Pb  Pb6  1  0.00000000  0.50000000  0.86321000  1.0
  Pb  Pb7  1  0.50000000  0.50000000  0.95440000  1.0
