# generated using pymatgen
data_V3Pt
_symmetry_space_group_name_H-M   'P 1'
_cell_length_a   3.82364000
_cell_length_b   5.40744000
_cell_length_c   24.05560000
_cell_angle_alpha   90.00000000
_cell_angle_beta   90.00000000
_cell_angle_gamma   90.00000000
_symmetry_Int_Tables_number   1
_chemical_formula_structural   V3Pt
_chemical_formula_sum   'V6 Pt2'
_cell_volume   497.37608453
_cell_formula_units_Z   2
loop_
 _symmetry_equiv_pos_site_id
 _symmetry_equiv_pos_as_xyz
  1  'x, y, z'
loop_
 _atom_site_type_symbol
 _atom_site_label
 _atom_site_symmetry_multiplicity
 _atom_site_fract_x
 _atom_site_fract_y
 _atom_site_fract_z
 _atom_site_occupancy
  V  V0  1  0.00000000  0.50000000  0.91570000  1.0
  V  V1  1  0.50000000  0.75000000  0.97190000  1.0
  V  V2  1  0.50000000  0.25000000  0.97190000  1.0
  V  V3  1  0.00000000  0.00000000  0.02317000  1.0
  V  V4  1  0.50000000  0.23497500  0.07168500  1.0
  V  V5  1  0.50000000  0.76502500  0.07168500  1.0
  Pt  Pt6  1  0.00000000  0.00000000  0.91570000  1.0
  Pt  Pt7  1  0.00000000  0.50000000  0.03155000  1.0
