data_image0
_chemical_formula_structural       V4Ir12C
_chemical_formula_sum              "V4 Ir12 C1"
_cell_length_a       7.70199
_cell_length_b       5.44613
_cell_length_c       24.0846
_cell_angle_alpha    90
_cell_angle_beta     90
_cell_angle_gamma    90

_space_group_name_H-M_alt    "P 1"
_space_group_IT_number       1

loop_
  _space_group_symop_operation_xyz
  'x, y, z'

loop_
  _atom_site_type_symbol
  _atom_site_label
  _atom_site_symmetry_multiplicity
  _atom_site_fract_x
  _atom_site_fract_y
  _atom_site_fract_z
  _atom_site_occupancy
  V   V1        1.0  0.02008  0.00427  0.07776  1.0000
  V   V2        1.0  0.00000  0.50000  0.97173  1.0000
  V   V3        1.0  0.47992  0.00427  0.07775  1.0000
  V   V4        1.0  0.50000  0.50000  0.97173  1.0000
  Ir  Ir1       1.0  0.01728  0.48717  0.08110  1.0000
  Ir  Ir2       1.0  0.25000  0.74557  0.02402  1.0000
  Ir  Ir3       1.0  0.25000  0.24614  0.02311  1.0000
  Ir  Ir4       1.0  0.00000  0.00000  0.97173  1.0000
  Ir  Ir5       1.0  0.25000  0.25000  0.91520  1.0000
  Ir  Ir6       1.0  0.25000  0.75000  0.91520  1.0000
  Ir  Ir7       1.0  0.48272  0.48717  0.08110  1.0000
  Ir  Ir8       1.0  0.75000  0.74827  0.03730  1.0000
  Ir  Ir9       1.0  0.75000  0.24240  0.03865  1.0000
  Ir  Ir10      1.0  0.50000  0.00000  0.97173  1.0000
  Ir  Ir11      1.0  0.75000  0.25000  0.91520  1.0000
  Ir  Ir12      1.0  0.75000  0.75000  0.91520  1.0000
  C   C1        1.0  0.25000  0.26460  0.10589  1.0000
