data_image0
_chemical_formula_structural       Li8Bi8CO
_chemical_formula_sum              "Li8 Bi8 C1 O1"
_cell_length_a       6.80372
_cell_length_b       6.80372
_cell_length_c       26.3808
_cell_angle_alpha    90
_cell_angle_beta     90
_cell_angle_gamma    90

_space_group_name_H-M_alt    "P 1"
_space_group_IT_number       1

loop_
  _space_group_symop_operation_xyz
  'x, y, z'

loop_
  _atom_site_type_symbol
  _atom_site_label
  _atom_site_symmetry_multiplicity
  _atom_site_fract_x
  _atom_site_fract_y
  _atom_site_fract_z
  _atom_site_occupancy
  Li  Li1       1.0  0.00000  0.00000  0.91678  1.0000
  Li  Li2       1.0  0.98877  0.98869  0.07542  1.0000
  Li  Li3       1.0  0.00000  0.50000  0.91678  1.0000
  Li  Li4       1.0  0.99536  0.50884  0.07538  1.0000
  Li  Li5       1.0  0.50000  0.00000  0.91678  1.0000
  Li  Li6       1.0  0.50869  0.99527  0.07538  1.0000
  Li  Li7       1.0  0.50000  0.50000  0.91678  1.0000
  Li  Li8       1.0  0.50218  0.50199  0.07575  1.0000
  Bi  Bi1       1.0  0.25000  0.25000  0.99741  1.0000
  Bi  Bi2       1.0  0.23355  0.23298  0.14960  1.0000
  Bi  Bi3       1.0  0.25000  0.75000  0.99741  1.0000
  Bi  Bi4       1.0  0.26583  0.76763  0.15450  1.0000
  Bi  Bi5       1.0  0.75000  0.25000  0.99741  1.0000
  Bi  Bi6       1.0  0.76736  0.26588  0.15457  1.0000
  Bi  Bi7       1.0  0.75000  0.75000  0.99741  1.0000
  Bi  Bi8       1.0  0.73171  0.73177  0.15716  1.0000
  C   C1        1.0  0.27258  0.27258  0.29159  1.0000
  O   O1        1.0  0.23805  0.23786  0.33279  1.0000
