# generated using pymatgen
data_Li16Ga8Ir8CO
_symmetry_space_group_name_H-M   'P 1'
_cell_length_a   8.51164000
_cell_length_b   6.01864000
_cell_length_c   26.38370000
_cell_angle_alpha   90.00000000
_cell_angle_beta   90.00000000
_cell_angle_gamma   90.00000000
_symmetry_Int_Tables_number   1
_chemical_formula_structural   Li16Ga8Ir8CO
_chemical_formula_sum   'Li16 Ga8 Ir8 C1 O1'
_cell_volume   1351.59729550
_cell_formula_units_Z   1
loop_
 _symmetry_equiv_pos_site_id
 _symmetry_equiv_pos_as_xyz
  1  'x, y, z'
loop_
 _atom_site_type_symbol
 _atom_site_label
 _atom_site_symmetry_multiplicity
 _atom_site_fract_x
 _atom_site_fract_y
 _atom_site_fract_z
 _atom_site_occupancy
  Li  Li0  1  0.75000000  0.00000000  0.04033000  1.0
  Li  Li1  1  0.00000000  0.50000000  0.12098000  1.0
  Li  Li2  1  0.25000000  0.00000000  0.04033000  1.0
  Li  Li3  1  0.50000000  0.50000000  0.12098000  1.0
  Li  Li4  1  0.00000000  0.25000000  0.04033000  1.0
  Li  Li5  1  0.50000000  0.25000000  0.04033000  1.0
  Li  Li6  1  0.75000000  0.75000000  0.12098000  1.0
  Li  Li7  1  0.25000000  0.75000000  0.12098000  1.0
  Li  Li8  1  0.24507000  0.00106000  0.87909000  1.0
  Li  Li9  1  0.50000000  0.49109000  0.96023000  1.0
  Li  Li10  1  0.75493000  0.00106000  0.87909000  1.0
  Li  Li11  1  0.00000000  0.48177000  0.96095000  1.0
  Li  Li12  1  0.50000000  0.27470000  0.85934000  1.0
  Li  Li13  1  0.00000000  0.28786000  0.85066000  1.0
  Li  Li14  1  0.24893000  0.75276000  0.96160000  1.0
  Li  Li15  1  0.75107000  0.75276000  0.96160000  1.0
  Ga  Ga16  1  0.25000000  0.25000000  0.12098000  1.0
  Ga  Ga17  1  0.75000000  0.25000000  0.12098000  1.0
  Ga  Ga18  1  0.50000000  0.75000000  0.04033000  1.0
  Ga  Ga19  1  0.00000000  0.75000000  0.04033000  1.0
  Ga  Ga20  1  0.74903000  0.24673000  0.96126000  1.0
  Ga  Ga21  1  0.25097000  0.24673000  0.96126000  1.0
  Ga  Ga22  1  0.00000000  0.72421000  0.88244000  1.0
  Ga  Ga23  1  0.50000000  0.72641000  0.87967000  1.0
  Ir  Ir24  1  0.00000000  0.00000000  0.12098000  1.0
  Ir  Ir25  1  0.25000000  0.50000000  0.04033000  1.0
  Ir  Ir26  1  0.75000000  0.50000000  0.04033000  1.0
  Ir  Ir27  1  0.50000000  0.00000000  0.12098000  1.0
  Ir  Ir28  1  0.50000000  0.00554000  0.95361000  1.0
  Ir  Ir29  1  0.74977000  0.50141000  0.88605000  1.0
  Ir  Ir30  1  0.25023000  0.50141000  0.88605000  1.0
  Ir  Ir31  1  0.00000000  0.00631000  0.95529000  1.0
  C  C32  1  0.00000000  0.08968000  0.78381000  1.0
  O  O33  1  0.00000000  0.99438000  0.74642000  1.0
