# generated using pymatgen
data_Li16Ga8Ir8CO
_symmetry_space_group_name_H-M   Pm
_cell_length_a   6.01864000
_cell_length_b   8.51164000
_cell_length_c   26.38370000
_cell_angle_alpha   90.00000000
_cell_angle_beta   90.00000000
_cell_angle_gamma   90.00000000
_symmetry_Int_Tables_number   6
_chemical_formula_structural   Li16Ga8Ir8CO
_chemical_formula_sum   'Li16 Ga8 Ir8 C1 O1'
_cell_volume   1351.59729550
_cell_formula_units_Z   1
loop_
 _symmetry_equiv_pos_site_id
 _symmetry_equiv_pos_as_xyz
  1  'x, y, z'
  2  'x, -y, z'
loop_
 _atom_site_type_symbol
 _atom_site_label
 _atom_site_symmetry_multiplicity
 _atom_site_fract_x
 _atom_site_fract_y
 _atom_site_fract_z
 _atom_site_occupancy
  Li  Li0  2  0.00000000  0.25000000  0.95967000  1.0
  Li  Li1  2  0.00106000  0.24507000  0.12091000  1.0
  Li  Li2  2  0.75000000  0.25000000  0.87902000  1.0
  Li  Li3  2  0.75276000  0.24893000  0.03840000  1.0
  Li  Li4  1  0.25000000  0.00000000  0.95967000  1.0
  Li  Li5  1  0.25000000  0.50000000  0.95967000  1.0
  Li  Li6  1  0.27470000  0.50000000  0.14066000  1.0
  Li  Li7  1  0.28786000  0.00000000  0.14934000  1.0
  Li  Li8  1  0.48177000  0.00000000  0.03905000  1.0
  Li  Li9  1  0.49109000  0.50000000  0.03977000  1.0
  Li  Li10  1  0.50000000  0.00000000  0.87902000  1.0
  Li  Li11  1  0.50000000  0.50000000  0.87902000  1.0
  Ga  Ga12  2  0.24673000  0.25097000  0.03874000  1.0
  Ga  Ga13  2  0.25000000  0.25000000  0.87902000  1.0
  Ga  Ga14  1  0.72421000  0.00000000  0.11756000  1.0
  Ga  Ga15  1  0.72641000  0.50000000  0.12033000  1.0
  Ga  Ga16  1  0.75000000  0.00000000  0.95967000  1.0
  Ga  Ga17  1  0.75000000  0.50000000  0.95967000  1.0
  Ir  Ir18  2  0.50000000  0.25000000  0.95967000  1.0
  Ir  Ir19  2  0.50141000  0.25023000  0.11395000  1.0
  Ir  Ir20  1  0.00000000  0.00000000  0.87902000  1.0
  Ir  Ir21  1  0.00000000  0.50000000  0.87902000  1.0
  Ir  Ir22  1  0.00554000  0.50000000  0.04639000  1.0
  Ir  Ir23  1  0.00631000  0.00000000  0.04471000  1.0
  C  C24  1  0.08968000  0.00000000  0.21619000  1.0
  O  O25  1  0.99438000  0.00000000  0.25358000  1.0
