# generated using pymatgen
data_Li16Sb8Pt8CO
_symmetry_space_group_name_H-M   'P 1'
_cell_length_a   9.05843000
_cell_length_b   6.40528000
_cell_length_c   26.79380000
_cell_angle_alpha   90.00000000
_cell_angle_beta   90.00000000
_cell_angle_gamma   90.00000000
_symmetry_Int_Tables_number   1
_chemical_formula_structural   Li16Sb8Pt8CO
_chemical_formula_sum   'Li16 Sb8 Pt8 C1 O1'
_cell_volume   1554.62398264
_cell_formula_units_Z   1
loop_
 _symmetry_equiv_pos_site_id
 _symmetry_equiv_pos_as_xyz
  1  'x, y, z'
loop_
 _atom_site_type_symbol
 _atom_site_label
 _atom_site_symmetry_multiplicity
 _atom_site_fract_x
 _atom_site_fract_y
 _atom_site_fract_z
 _atom_site_occupancy
  Li  Li0  1  0.50000000  0.00000000  0.04226000  1.0
  Li  Li1  1  0.75000000  0.50000000  0.12678000  1.0
  Li  Li2  1  0.00000000  0.00000000  0.04226000  1.0
  Li  Li3  1  0.25000000  0.50000000  0.12678000  1.0
  Li  Li4  1  0.00000000  0.25000000  0.12678000  1.0
  Li  Li5  1  0.50000000  0.25000000  0.12678000  1.0
  Li  Li6  1  0.25000000  0.75000000  0.04226000  1.0
  Li  Li7  1  0.75000000  0.75000000  0.04226000  1.0
  Li  Li8  1  0.00000000  0.03273000  0.87289000  1.0
  Li  Li9  1  0.24751000  0.51251000  0.96361000  1.0
  Li  Li10  1  0.50000000  0.03073000  0.87379000  1.0
  Li  Li11  1  0.75249000  0.51251000  0.96361000  1.0
  Li  Li12  1  0.50000000  0.27964000  0.95323000  1.0
  Li  Li13  1  0.00000000  0.26331000  0.95476000  1.0
  Li  Li14  1  0.74916000  0.72474000  0.87793000  1.0
  Li  Li15  1  0.25084000  0.72474000  0.87793000  1.0
  Sb  Sb16  1  0.75000000  0.00000000  0.12678000  1.0
  Sb  Sb17  1  0.00000000  0.50000000  0.04226000  1.0
  Sb  Sb18  1  0.50000000  0.50000000  0.04226000  1.0
  Sb  Sb19  1  0.25000000  0.00000000  0.12678000  1.0
  Sb  Sb20  1  0.25200000  0.99856000  0.95753000  1.0
  Sb  Sb21  1  0.50000000  0.49263000  0.86117000  1.0
  Sb  Sb22  1  0.00000000  0.49577000  0.86528000  1.0
  Sb  Sb23  1  0.74800000  0.99856000  0.95753000  1.0
  Pt  Pt24  1  0.75000000  0.25000000  0.04226000  1.0
  Pt  Pt25  1  0.25000000  0.25000000  0.04226000  1.0
  Pt  Pt26  1  0.50000000  0.75000000  0.12678000  1.0
  Pt  Pt27  1  0.00000000  0.75000000  0.12678000  1.0
  Pt  Pt28  1  0.25090000  0.28267000  0.88647000  1.0
  Pt  Pt29  1  0.74910000  0.28267000  0.88647000  1.0
  Pt  Pt30  1  0.00000000  0.74924000  0.95065000  1.0
  Pt  Pt31  1  0.50000000  0.73691000  0.94953000  1.0
  C  C32  1  0.00000000  0.37819000  0.72675000  1.0
  O  O33  1  0.00000000  0.53799000  0.70834000  1.0
