# generated using pymatgen
data_Li16Sb8Pt8CO
_symmetry_space_group_name_H-M   Pm
_cell_length_a   6.40528000
_cell_length_b   9.05843000
_cell_length_c   26.79380000
_cell_angle_alpha   90.00000000
_cell_angle_beta   90.00000000
_cell_angle_gamma   90.00000000
_symmetry_Int_Tables_number   6
_chemical_formula_structural   Li16Sb8Pt8CO
_chemical_formula_sum   'Li16 Sb8 Pt8 C1 O1'
_cell_volume   1554.62398264
_cell_formula_units_Z   1
loop_
 _symmetry_equiv_pos_site_id
 _symmetry_equiv_pos_as_xyz
  1  'x, y, z'
  2  'x, -y, z'
loop_
 _atom_site_type_symbol
 _atom_site_label
 _atom_site_symmetry_multiplicity
 _atom_site_fract_x
 _atom_site_fract_y
 _atom_site_fract_z
 _atom_site_occupancy
  Li  Li0  2  0.50000000  0.25000000  0.87322000  1.0
  Li  Li1  2  0.51251000  0.24751000  0.03639000  1.0
  Li  Li2  2  0.72474000  0.25084000  0.12207000  1.0
  Li  Li3  2  0.75000000  0.25000000  0.95774000  1.0
  Li  Li4  1  0.00000000  0.00000000  0.95774000  1.0
  Li  Li5  1  0.00000000  0.50000000  0.95774000  1.0
  Li  Li6  1  0.03073000  0.50000000  0.12621000  1.0
  Li  Li7  1  0.03273000  0.00000000  0.12711000  1.0
  Li  Li8  1  0.25000000  0.00000000  0.87322000  1.0
  Li  Li9  1  0.25000000  0.50000000  0.87322000  1.0
  Li  Li10  1  0.26331000  0.00000000  0.04524000  1.0
  Li  Li11  1  0.27964000  0.50000000  0.04677000  1.0
  Sb  Sb12  2  0.00000000  0.25000000  0.87322000  1.0
  Sb  Sb13  2  0.99856000  0.25200000  0.04247000  1.0
  Sb  Sb14  1  0.49263000  0.50000000  0.13883000  1.0
  Sb  Sb15  1  0.49577000  0.00000000  0.13472000  1.0
  Sb  Sb16  1  0.50000000  0.00000000  0.95774000  1.0
  Sb  Sb17  1  0.50000000  0.50000000  0.95774000  1.0
  Pt  Pt18  2  0.25000000  0.25000000  0.95774000  1.0
  Pt  Pt19  2  0.28267000  0.25090000  0.11353000  1.0
  Pt  Pt20  1  0.73691000  0.50000000  0.05047000  1.0
  Pt  Pt21  1  0.74924000  0.00000000  0.04935000  1.0
  Pt  Pt22  1  0.75000000  0.00000000  0.87322000  1.0
  Pt  Pt23  1  0.75000000  0.50000000  0.87322000  1.0
  C  C24  1  0.37819000  0.00000000  0.27325000  1.0
  O  O25  1  0.53799000  0.00000000  0.29166000  1.0
