# generated using pymatgen
data_Li8Mg8Ag8Ge8C
_symmetry_space_group_name_H-M   'P 1'
_cell_length_a   9.20048000
_cell_length_b   6.50572000
_cell_length_c   26.90040000
_cell_angle_alpha   90.00000000
_cell_angle_beta   90.00000000
_cell_angle_gamma   90.00000000
_symmetry_Int_Tables_number   1
_chemical_formula_structural   Li8Mg8Ag8Ge8C
_chemical_formula_sum   'Li8 Mg8 Ag8 Ge8 C1'
_cell_volume   1610.14352976
_cell_formula_units_Z   1
loop_
 _symmetry_equiv_pos_site_id
 _symmetry_equiv_pos_as_xyz
  1  'x, y, z'
loop_
 _atom_site_type_symbol
 _atom_site_label
 _atom_site_symmetry_multiplicity
 _atom_site_fract_x
 _atom_site_fract_y
 _atom_site_fract_z
 _atom_site_occupancy
  Li  Li0  1  0.75000000  0.75000000  0.04275000  1.0
  Li  Li1  1  0.25000000  0.75000000  0.04275000  1.0
  Li  Li2  1  0.00000000  0.25000000  0.12826000  1.0
  Li  Li3  1  0.50000000  0.25000000  0.12826000  1.0
  Li  Li4  1  0.27666000  0.75188000  0.86854000  1.0
  Li  Li5  1  0.72334000  0.75188000  0.86854000  1.0
  Li  Li6  1  0.50000000  0.24520000  0.95947000  1.0
  Li  Li7  1  0.00000000  0.25971000  0.94685000  1.0
  Mg  Mg8  1  0.75000000  0.25000000  0.04275000  1.0
  Mg  Mg9  1  0.25000000  0.25000000  0.04275000  1.0
  Mg  Mg10  1  0.00000000  0.75000000  0.12826000  1.0
  Mg  Mg11  1  0.50000000  0.75000000  0.12826000  1.0
  Mg  Mg12  1  0.23717000  0.24595000  0.86164000  1.0
  Mg  Mg13  1  0.76283000  0.24595000  0.86164000  1.0
  Mg  Mg14  1  0.50000000  0.75215000  0.95501000  1.0
  Mg  Mg15  1  0.00000000  0.74459000  0.95870000  1.0
  Ag  Ag16  1  0.75000000  0.00000000  0.12826000  1.0
  Ag  Ag17  1  0.25000000  0.00000000  0.12826000  1.0
  Ag  Ag18  1  0.50000000  0.50000000  0.04275000  1.0
  Ag  Ag19  1  0.00000000  0.50000000  0.04275000  1.0
  Ag  Ag20  1  0.25191000  0.00838000  0.95273000  1.0
  Ag  Ag21  1  0.74809000  0.00838000  0.95273000  1.0
  Ag  Ag22  1  0.00000000  0.55468000  0.86151000  1.0
  Ag  Ag23  1  0.50000000  0.46264000  0.87382000  1.0
  Ge  Ge24  1  0.00000000  0.00000000  0.04275000  1.0
  Ge  Ge25  1  0.50000000  0.00000000  0.04275000  1.0
  Ge  Ge26  1  0.25000000  0.50000000  0.12826000  1.0
  Ge  Ge27  1  0.75000000  0.50000000  0.12826000  1.0
  Ge  Ge28  1  0.50000000  0.01487000  0.86810000  1.0
  Ge  Ge29  1  0.00000000  0.95399000  0.86535000  1.0
  Ge  Ge30  1  0.74583000  0.49705000  0.95153000  1.0
  Ge  Ge31  1  0.25417000  0.49705000  0.95153000  1.0
  C  C32  1  0.00000000  0.22969000  0.84565000  1.0
