# generated using pymatgen
data_Li8Mg8Ag8Ge8C
_symmetry_space_group_name_H-M   Pm
_cell_length_a   6.50572000
_cell_length_b   9.20048000
_cell_length_c   26.90040000
_cell_angle_alpha   90.00000000
_cell_angle_beta   90.00000000
_cell_angle_gamma   90.00000000
_symmetry_Int_Tables_number   6
_chemical_formula_structural   Li8Mg8Ag8Ge8C
_chemical_formula_sum   'Li8 Mg8 Ag8 Ge8 C1'
_cell_volume   1610.14352976
_cell_formula_units_Z   1
loop_
 _symmetry_equiv_pos_site_id
 _symmetry_equiv_pos_as_xyz
  1  'x, y, z'
  2  'x, -y, z'
loop_
 _atom_site_type_symbol
 _atom_site_label
 _atom_site_symmetry_multiplicity
 _atom_site_fract_x
 _atom_site_fract_y
 _atom_site_fract_z
 _atom_site_occupancy
  Li  Li0  2  0.75000000  0.25000000  0.95725000  1.0
  Li  Li1  2  0.75188000  0.27666000  0.13146000  1.0
  Li  Li2  1  0.24520000  0.50000000  0.04053000  1.0
  Li  Li3  1  0.25000000  0.00000000  0.87174000  1.0
  Li  Li4  1  0.25000000  0.50000000  0.87174000  1.0
  Li  Li5  1  0.25971000  0.00000000  0.05315000  1.0
  Mg  Mg6  2  0.24595000  0.23717000  0.13836000  1.0
  Mg  Mg7  2  0.25000000  0.25000000  0.95725000  1.0
  Mg  Mg8  1  0.74459000  0.00000000  0.04130000  1.0
  Mg  Mg9  1  0.75000000  0.00000000  0.87174000  1.0
  Mg  Mg10  1  0.75000000  0.50000000  0.87174000  1.0
  Mg  Mg11  1  0.75215000  0.50000000  0.04499000  1.0
  Ag  Ag12  2  0.00000000  0.25000000  0.87174000  1.0
  Ag  Ag13  2  0.00838000  0.25191000  0.04727000  1.0
  Ag  Ag14  1  0.46264000  0.50000000  0.12618000  1.0
  Ag  Ag15  1  0.50000000  0.00000000  0.95725000  1.0
  Ag  Ag16  1  0.50000000  0.50000000  0.95725000  1.0
  Ag  Ag17  1  0.55468000  0.00000000  0.13849000  1.0
  Ge  Ge18  2  0.49705000  0.25417000  0.04847000  1.0
  Ge  Ge19  2  0.50000000  0.25000000  0.87174000  1.0
  Ge  Ge20  1  0.00000000  0.00000000  0.95725000  1.0
  Ge  Ge21  1  0.00000000  0.50000000  0.95725000  1.0
  Ge  Ge22  1  0.01487000  0.50000000  0.13190000  1.0
  Ge  Ge23  1  0.95399000  0.00000000  0.13465000  1.0
  C  C24  1  0.22969000  0.00000000  0.15435000  1.0
