data_image0
_chemical_formula_structural       Li4Al4Ge4Pd4CO
_chemical_formula_sum              "Li4 Al4 Ge4 Pd4 C1 O1"
_cell_length_a       7.42946
_cell_length_b       5.69495
_cell_length_c       24.271
_cell_angle_alpha    90
_cell_angle_beta     90
_cell_angle_gamma    90

_space_group_name_H-M_alt    "P 1"
_space_group_IT_number       1

loop_
  _space_group_symop_operation_xyz
  'x, y, z'

loop_
  _atom_site_type_symbol
  _atom_site_label
  _atom_site_symmetry_multiplicity
  _atom_site_fract_x
  _atom_site_fract_y
  _atom_site_fract_z
  _atom_site_occupancy
  Li  Li1       1.0  0.00003  0.51203  0.09702  1.0000
  Li  Li2       1.0  0.00000  0.99472  0.97067  1.0000
  Li  Li3       1.0  0.49997  0.51358  0.09517  1.0000
  Li  Li4       1.0  0.50000  0.99472  0.97067  1.0000
  Al  Al1       1.0  1.00000  0.03031  0.08121  1.0000
  Al  Al2       1.0  0.00000  0.49472  0.97067  1.0000
  Al  Al3       1.0  0.50000  0.02350  0.08368  1.0000
  Al  Al4       1.0  0.50000  0.49472  0.97067  1.0000
  Ge  Ge1       1.0  0.25042  0.74811  0.03491  1.0000
  Ge  Ge2       1.0  0.25000  0.24209  0.91201  1.0000
  Ge  Ge3       1.0  0.74958  0.74810  0.03492  1.0000
  Ge  Ge4       1.0  0.75000  0.24209  0.91201  1.0000
  Pd  Pd1       1.0  0.25303  0.26273  0.03198  1.0000
  Pd  Pd2       1.0  0.25000  0.74209  0.91201  1.0000
  Pd  Pd3       1.0  0.74697  0.26276  0.03198  1.0000
  Pd  Pd4       1.0  0.75000  0.74209  0.91201  1.0000
  C   C1        1.0  0.00001  0.50468  0.18327  1.0000
  O   O1        1.0  0.99999  0.50120  0.23029  1.0000
