# generated using pymatgen
data_Li4Al4Ge4Pd4CO
_symmetry_space_group_name_H-M   'P 1'
_cell_length_a   7.42946000
_cell_length_b   5.69495000
_cell_length_c   24.27100000
_cell_angle_alpha   90.00000000
_cell_angle_beta   90.00000000
_cell_angle_gamma   90.00000000
_symmetry_Int_Tables_number   1
_chemical_formula_structural   Li4Al4Ge4Pd4CO
_chemical_formula_sum   'Li4 Al4 Ge4 Pd4 C1 O1'
_cell_volume   1026.91579672
_cell_formula_units_Z   1
loop_
 _symmetry_equiv_pos_site_id
 _symmetry_equiv_pos_as_xyz
  1  'x, y, z'
loop_
 _atom_site_type_symbol
 _atom_site_label
 _atom_site_symmetry_multiplicity
 _atom_site_fract_x
 _atom_site_fract_y
 _atom_site_fract_z
 _atom_site_occupancy
  Li  Li0  1  0.50000000  0.48797000  0.09702000  1.0
  Li  Li1  1  0.50000000  0.00528000  0.97067000  1.0
  Li  Li2  1  0.00000000  0.48642000  0.09517000  1.0
  Li  Li3  1  0.00000000  0.00528000  0.97067000  1.0
  Al  Al4  1  0.50000000  0.96969000  0.08121000  1.0
  Al  Al5  1  0.50000000  0.50528000  0.97067000  1.0
  Al  Al6  1  0.00000000  0.97650000  0.08368000  1.0
  Al  Al7  1  0.00000000  0.50528000  0.97067000  1.0
  Ge  Ge8  1  0.24959000  0.25189000  0.03491000  1.0
  Ge  Ge9  1  0.25001000  0.75791000  0.91201000  1.0
  Ge  Ge10  1  0.75041000  0.25189000  0.03491000  1.0
  Ge  Ge11  1  0.74999000  0.75791000  0.91201000  1.0
  Pd  Pd12  1  0.24698000  0.73727000  0.03198000  1.0
  Pd  Pd13  1  0.25001000  0.25791000  0.91201000  1.0
  Pd  Pd14  1  0.75302000  0.73727000  0.03198000  1.0
  Pd  Pd15  1  0.74999000  0.25791000  0.91201000  1.0
  C  C16  1  0.50000000  0.49532000  0.18327000  1.0
  O  O17  1  0.50000000  0.49880000  0.23029000  1.0
