# generated using pymatgen
data_Li8Y8Sn8Ge8CO
_symmetry_space_group_name_H-M   'P 1'
_cell_length_a   8.52742000
_cell_length_b   9.43388000
_cell_length_c   26.45610000
_cell_angle_alpha   90.00000000
_cell_angle_beta   90.00000000
_cell_angle_gamma   90.00000000
_symmetry_Int_Tables_number   1
_chemical_formula_structural   Li8Y8Sn8Ge8CO
_chemical_formula_sum   'Li8 Y8 Sn8 Ge8 C1 O1'
_cell_volume   2128.30480198
_cell_formula_units_Z   1
loop_
 _symmetry_equiv_pos_site_id
 _symmetry_equiv_pos_as_xyz
  1  'x, y, z'
loop_
 _atom_site_type_symbol
 _atom_site_label
 _atom_site_symmetry_multiplicity
 _atom_site_fract_x
 _atom_site_fract_y
 _atom_site_fract_z
 _atom_site_occupancy
  Li  Li0  1  0.00000000  0.00000000  0.13284000  1.0
  Li  Li1  1  0.00000000  0.00000000  0.95933000  1.0
  Li  Li2  1  0.00000000  0.50000000  0.13270000  1.0
  Li  Li3  1  0.00000000  0.50000000  0.95933000  1.0
  Li  Li4  1  0.50000000  0.00000000  0.13271000  1.0
  Li  Li5  1  0.50000000  0.00000000  0.95933000  1.0
  Li  Li6  1  0.50000000  0.50000000  0.13273000  1.0
  Li  Li7  1  0.50000000  0.50000000  0.95933000  1.0
  Y  Y8  1  0.00000000  0.74961000  0.04097000  1.0
  Y  Y9  1  0.00000000  0.75000000  0.87798000  1.0
  Y  Y10  1  0.00000000  0.25039000  0.04097000  1.0
  Y  Y11  1  0.00000000  0.25000000  0.87798000  1.0
  Y  Y12  1  0.50000000  0.75063000  0.04095000  1.0
  Y  Y13  1  0.50000000  0.75000000  0.87798000  1.0
  Y  Y14  1  0.50000000  0.24937000  0.04095000  1.0
  Y  Y15  1  0.50000000  0.25000000  0.87798000  1.0
  Sn  Sn16  1  0.75043000  0.00000000  0.05119000  1.0
  Sn  Sn17  1  0.75000000  0.00000000  0.87798000  1.0
  Sn  Sn18  1  0.75026000  0.50000000  0.04940000  1.0
  Sn  Sn19  1  0.75000000  0.50000000  0.87798000  1.0
  Sn  Sn20  1  0.24957000  0.00000000  0.05119000  1.0
  Sn  Sn21  1  0.25000000  0.00000000  0.87798000  1.0
  Sn  Sn22  1  0.24974000  0.50000000  0.04940000  1.0
  Sn  Sn23  1  0.25000000  0.50000000  0.87798000  1.0
  Ge  Ge24  1  0.74997000  0.74563000  0.12249000  1.0
  Ge  Ge25  1  0.75000000  0.75000000  0.95933000  1.0
  Ge  Ge26  1  0.74997000  0.25437000  0.12249000  1.0
  Ge  Ge27  1  0.75000000  0.25000000  0.95933000  1.0
  Ge  Ge28  1  0.25003000  0.74563000  0.12249000  1.0
  Ge  Ge29  1  0.25000000  0.75000000  0.95933000  1.0
  Ge  Ge30  1  0.25003000  0.25437000  0.12249000  1.0
  Ge  Ge31  1  0.25000000  0.25000000  0.95933000  1.0
  C  C32  1  0.00000000  0.00000000  0.21221000  1.0
  O  O33  1  0.00000000  0.00000000  0.25525000  1.0
