data_image0
_chemical_formula_structural       YSn3YSn3YSn3YSn3C
_chemical_formula_sum              "Y4 Sn12 C1"
_cell_length_a       9.50155
_cell_length_b       6.71861
_cell_length_c       25.039
_cell_angle_alpha    90
_cell_angle_beta     90
_cell_angle_gamma    90

_space_group_name_H-M_alt    "P 1"
_space_group_IT_number       1

loop_
  _space_group_symop_operation_xyz
  'x, y, z'

loop_
  _atom_site_type_symbol
  _atom_site_label
  _atom_site_symmetry_multiplicity
  _atom_site_fract_x
  _atom_site_fract_y
  _atom_site_fract_z
  _atom_site_occupancy
  Y   Y1        1.0  0.00000  0.00000  0.89938  1.0000
  Sn  Sn1       1.0  0.00000  0.50000  0.89938  1.0000
  Sn  Sn2       1.0  0.25000  0.75000  0.96646  1.0000
  Sn  Sn3       1.0  0.25000  0.25000  0.96646  1.0000
  Y   Y2        1.0  0.00000  0.50000  0.03354  1.0000
  Sn  Sn4       1.0  0.00000  0.00000  0.03354  1.0000
  Sn  Sn5       1.0  0.25000  0.25000  0.10062  1.0000
  Sn  Sn6       1.0  0.25000  0.75000  0.10062  1.0000
  Y   Y3        1.0  0.50000  0.00000  0.89938  1.0000
  Sn  Sn7       1.0  0.50000  0.50000  0.89938  1.0000
  Sn  Sn8       1.0  0.75000  0.75000  0.96646  1.0000
  Sn  Sn9       1.0  0.75000  0.25000  0.96646  1.0000
  Y   Y4        1.0  0.50000  0.50000  0.03354  1.0000
  Sn  Sn10      1.0  0.50000  0.00000  0.03354  1.0000
  Sn  Sn11      1.0  0.75000  0.25000  0.10062  1.0000
  Sn  Sn12      1.0  0.75000  0.75000  0.10062  1.0000
  C   C1        1.0  0.00000  0.50000  0.13257  1.0000
