data_image0
_chemical_formula_structural       Cu8Ni16Sn8C
_chemical_formula_sum              "Cu8 Ni16 Sn8 C1"
_cell_length_a       6.01864
_cell_length_b       8.51164
_cell_length_c       26.3837
_cell_angle_alpha    90
_cell_angle_beta     90
_cell_angle_gamma    90

_space_group_name_H-M_alt    "P 1"
_space_group_IT_number       1

loop_
  _space_group_symop_operation_xyz
  'x, y, z'

loop_
  _atom_site_type_symbol
  _atom_site_label
  _atom_site_symmetry_multiplicity
  _atom_site_fract_x
  _atom_site_fract_y
  _atom_site_fract_z
  _atom_site_occupancy
  Cu  Cu1       1.0  0.00000  0.00000  0.87902  1.0000
  Cu  Cu2       1.0  0.50000  0.25000  0.95967  1.0000
  Cu  Cu3       1.0  0.50000  0.75000  0.95967  1.0000
  Cu  Cu4       1.0  0.00000  0.50000  0.87902  1.0000
  Cu  Cu5       1.0  0.00000  0.50010  0.03793  1.0000
  Cu  Cu6       1.0  0.50000  0.74295  0.11966  1.0000
  Cu  Cu7       1.0  0.50000  0.25703  0.11971  1.0000
  Cu  Cu8       1.0  0.00000  0.99997  0.04371  1.0000
  Ni  Ni1       1.0  0.25000  0.00000  0.95967  1.0000
  Ni  Ni2       1.0  0.75000  0.50000  0.95967  1.0000
  Ni  Ni3       1.0  0.75000  0.00000  0.95967  1.0000
  Ni  Ni4       1.0  0.25000  0.50000  0.95967  1.0000
  Ni  Ni5       1.0  0.75000  0.75000  0.87902  1.0000
  Ni  Ni6       1.0  0.25000  0.25000  0.87902  1.0000
  Ni  Ni7       1.0  0.25000  0.75000  0.87902  1.0000
  Ni  Ni8       1.0  0.75000  0.25000  0.87902  1.0000
  Ni  Ni9       1.0  0.25168  0.49999  0.11501  1.0000
  Ni  Ni10      1.0  0.71408  0.99997  0.11958  1.0000
  Ni  Ni11      1.0  0.74833  0.49999  0.11501  1.0000
  Ni  Ni12      1.0  0.28592  0.99997  0.11958  1.0000
  Ni  Ni13      1.0  0.76499  0.25207  0.04317  1.0000
  Ni  Ni14      1.0  0.23532  0.74804  0.04310  1.0000
  Ni  Ni15      1.0  0.23501  0.25207  0.04317  1.0000
  Ni  Ni16      1.0  0.76468  0.74804  0.04310  1.0000
  Sn  Sn1       1.0  0.00000  0.75000  0.95967  1.0000
  Sn  Sn2       1.0  0.50000  0.00000  0.87902  1.0000
  Sn  Sn3       1.0  0.00000  0.25000  0.95967  1.0000
  Sn  Sn4       1.0  0.50000  0.50000  0.87902  1.0000
  Sn  Sn5       1.0  0.00000  0.26221  0.13325  1.0000
  Sn  Sn6       1.0  0.50000  0.50000  0.03768  1.0000
  Sn  Sn7       1.0  0.00000  0.73779  0.13320  1.0000
  Sn  Sn8       1.0  0.50000  0.00011  0.03695  1.0000
  C   C1        1.0  1.00000  0.00000  0.13962  1.0000
