# generated using pymatgen
data_Cu8Ni16Sn8C
_symmetry_space_group_name_H-M   'P 1'
_cell_length_a   8.51164000
_cell_length_b   6.01864000
_cell_length_c   26.38370000
_cell_angle_alpha   90.00000000
_cell_angle_beta   90.00000000
_cell_angle_gamma   90.00000000
_symmetry_Int_Tables_number   1
_chemical_formula_structural   Cu8Ni16Sn8C
_chemical_formula_sum   'Cu8 Ni16 Sn8 C1'
_cell_volume   1351.59729550
_cell_formula_units_Z   1
loop_
 _symmetry_equiv_pos_site_id
 _symmetry_equiv_pos_as_xyz
  1  'x, y, z'
loop_
 _atom_site_type_symbol
 _atom_site_label
 _atom_site_symmetry_multiplicity
 _atom_site_fract_x
 _atom_site_fract_y
 _atom_site_fract_z
 _atom_site_occupancy
  Cu  Cu0  1  0.00000000  0.00000000  0.12098000  1.0
  Cu  Cu1  1  0.25000000  0.50000000  0.04033000  1.0
  Cu  Cu2  1  0.75000000  0.50000000  0.04033000  1.0
  Cu  Cu3  1  0.50000000  0.00000000  0.12098000  1.0
  Cu  Cu4  1  0.50010000  0.00000000  0.96207000  1.0
  Cu  Cu5  1  0.74295000  0.50000000  0.88034000  1.0
  Cu  Cu6  1  0.25703000  0.50000000  0.88029000  1.0
  Cu  Cu7  1  0.99997000  0.00000000  0.95629000  1.0
  Ni  Ni8  1  0.00000000  0.75000000  0.04033000  1.0
  Ni  Ni9  1  0.50000000  0.25000000  0.04033000  1.0
  Ni  Ni10  1  0.00000000  0.25000000  0.04033000  1.0
  Ni  Ni11  1  0.50000000  0.75000000  0.04033000  1.0
  Ni  Ni12  1  0.75000000  0.25000000  0.12098000  1.0
  Ni  Ni13  1  0.25000000  0.75000000  0.12098000  1.0
  Ni  Ni14  1  0.75000000  0.75000000  0.12098000  1.0
  Ni  Ni15  1  0.25000000  0.25000000  0.12098000  1.0
  Ni  Ni16  1  0.49999000  0.74832000  0.88499000  1.0
  Ni  Ni17  1  0.99997000  0.28592000  0.88042000  1.0
  Ni  Ni18  1  0.49999000  0.25168000  0.88499000  1.0
  Ni  Ni19  1  0.99997000  0.71408000  0.88042000  1.0
  Ni  Ni20  1  0.25207000  0.23501000  0.95683000  1.0
  Ni  Ni21  1  0.74804000  0.76468000  0.95690000  1.0
  Ni  Ni22  1  0.25207000  0.76499000  0.95683000  1.0
  Ni  Ni23  1  0.74804000  0.23532000  0.95690000  1.0
  Sn  Sn24  1  0.75000000  0.00000000  0.04033000  1.0
  Sn  Sn25  1  0.00000000  0.50000000  0.12098000  1.0
  Sn  Sn26  1  0.25000000  0.00000000  0.04033000  1.0
  Sn  Sn27  1  0.50000000  0.50000000  0.12098000  1.0
  Sn  Sn28  1  0.26221000  0.00000000  0.86675000  1.0
  Sn  Sn29  1  0.50000000  0.50000000  0.96232000  1.0
  Sn  Sn30  1  0.73779000  0.00000000  0.86680000  1.0
  Sn  Sn31  1  0.00011000  0.50000000  0.96305000  1.0
  C  C32  1  0.00000000  0.00000000  0.86038000  1.0
