# generated using pymatgen
data_Cu8Ni16Sb8CO
_symmetry_space_group_name_H-M   'P 1'
_cell_length_a   6.01864000
_cell_length_b   8.51164000
_cell_length_c   26.38370000
_cell_angle_alpha   90.00000000
_cell_angle_beta   90.00000000
_cell_angle_gamma   90.00000000
_symmetry_Int_Tables_number   1
_chemical_formula_structural   Cu8Ni16Sb8CO
_chemical_formula_sum   'Cu8 Ni16 Sb8 C1 O1'
_cell_volume   1351.59729550
_cell_formula_units_Z   1
loop_
 _symmetry_equiv_pos_site_id
 _symmetry_equiv_pos_as_xyz
  1  'x, y, z'
loop_
 _atom_site_type_symbol
 _atom_site_label
 _atom_site_symmetry_multiplicity
 _atom_site_fract_x
 _atom_site_fract_y
 _atom_site_fract_z
 _atom_site_occupancy
  Cu  Cu0  1  0.00000000  0.00000000  0.87902000  1.0
  Cu  Cu1  1  0.50000000  0.25000000  0.95967000  1.0
  Cu  Cu2  1  0.50000000  0.75000000  0.95967000  1.0
  Cu  Cu3  1  0.00000000  0.50000000  0.87902000  1.0
  Cu  Cu4  1  0.99946000  0.49925000  0.03479000  1.0
  Cu  Cu5  1  0.49844000  0.73275000  0.12125000  1.0
  Cu  Cu6  1  0.49876000  0.26753000  0.12152000  1.0
  Cu  Cu7  1  0.99963000  0.00037000  0.04649000  1.0
  Ni  Ni8  1  0.25000000  0.00000000  0.95967000  1.0
  Ni  Ni9  1  0.75000000  0.50000000  0.95967000  1.0
  Ni  Ni10  1  0.75000000  0.00000000  0.95967000  1.0
  Ni  Ni11  1  0.25000000  0.50000000  0.95967000  1.0
  Ni  Ni12  1  0.75000000  0.75000000  0.87902000  1.0
  Ni  Ni13  1  0.25000000  0.25000000  0.87902000  1.0
  Ni  Ni14  1  0.25000000  0.75000000  0.87902000  1.0
  Ni  Ni15  1  0.75000000  0.25000000  0.87902000  1.0
  Ni  Ni16  1  0.22240000  0.50001000  0.11218000  1.0
  Ni  Ni17  1  0.71572000  0.00010000  0.12179000  1.0
  Ni  Ni18  1  0.77474000  0.50007000  0.11203000  1.0
  Ni  Ni19  1  0.28355000  0.00016000  0.12205000  1.0
  Ni  Ni20  1  0.76113000  0.24831000  0.04400000  1.0
  Ni  Ni21  1  0.23471000  0.75134000  0.04416000  1.0
  Ni  Ni22  1  0.23791000  0.24820000  0.04393000  1.0
  Ni  Ni23  1  0.76298000  0.75146000  0.04413000  1.0
  Sb  Sb24  1  0.00000000  0.75000000  0.95967000  1.0
  Sb  Sb25  1  0.50000000  0.00000000  0.87902000  1.0
  Sb  Sb26  1  0.00000000  0.25000000  0.95967000  1.0
  Sb  Sb27  1  0.50000000  0.50000000  0.87902000  1.0
  Sb  Sb28  1  0.99920000  0.24520000  0.13173000  1.0
  Sb  Sb29  1  0.49932000  0.50032000  0.04009000  1.0
  Sb  Sb30  1  0.99899000  0.75473000  0.13216000  1.0
  Sb  Sb31  1  0.49930000  0.99925000  0.03751000  1.0
  C  C32  1  0.49992000  0.00010000  0.17477000  1.0
  O  O33  1  0.50182000  0.99995000  0.21944000  1.0
