# generated using pymatgen
data_Ca3Pb
_symmetry_space_group_name_H-M   'P 1'
_cell_length_a   7.22598000
_cell_length_b   10.21910000
_cell_length_c   25.41950000
_cell_angle_alpha   90.00000000
_cell_angle_beta   90.00000000
_cell_angle_gamma   90.00000000
_symmetry_Int_Tables_number   1
_chemical_formula_structural   Ca3Pb
_chemical_formula_sum   'Ca12 Pb4'
_cell_volume   1877.05244908
_cell_formula_units_Z   4
loop_
 _symmetry_equiv_pos_site_id
 _symmetry_equiv_pos_as_xyz
  1  'x, y, z'
loop_
 _atom_site_type_symbol
 _atom_site_label
 _atom_site_symmetry_multiplicity
 _atom_site_fract_x
 _atom_site_fract_y
 _atom_site_fract_z
 _atom_site_occupancy
  Ca  Ca0  1  0.49998000  1.00000000  0.87996000  1.0
  Ca  Ca1  1  0.24517000  0.75001000  0.95858000  1.0
  Ca  Ca2  1  0.75499000  0.75001000  0.95853000  1.0
  Ca  Ca3  1  0.00000000  0.00000000  0.03553000  1.0
  Ca  Ca4  1  0.75000000  0.75000000  0.10660000  1.0
  Ca  Ca5  1  0.25000000  0.75000000  0.10660000  1.0
  Ca  Ca6  1  0.49995000  0.49997000  0.87991000  1.0
  Ca  Ca7  1  0.24508000  0.24999000  0.95855000  1.0
  Ca  Ca8  1  0.75497000  0.24998000  0.95854000  1.0
  Ca  Ca9  1  0.00000000  0.50000000  0.03553000  1.0
  Ca  Ca10  1  0.75000000  0.25000000  0.10660000  1.0
  Ca  Ca11  1  0.25000000  0.25000000  0.10660000  1.0
  Pb  Pb12  1  0.00004000  0.99994000  0.90625000  1.0
  Pb  Pb13  1  0.50000000  1.00000000  0.03553000  1.0
  Pb  Pb14  1  0.00005000  0.50005000  0.90627000  1.0
  Pb  Pb15  1  0.50000000  0.50000000  0.03553000  1.0
