# generated using pymatgen
data_Li8Al8Ni8Pd8CO
_symmetry_space_group_name_H-M   'P 1'
_cell_length_a   8.36140000
_cell_length_b   5.91240000
_cell_length_c   26.27110000
_cell_angle_alpha   90.00000000
_cell_angle_beta   90.00000000
_cell_angle_gamma   90.00000000
_symmetry_Int_Tables_number   1
_chemical_formula_structural   Li8Al8Ni8Pd8CO
_chemical_formula_sum   'Li8 Al8 Ni8 Pd8 C1 O1'
_cell_volume   1298.73655906
_cell_formula_units_Z   1
loop_
 _symmetry_equiv_pos_site_id
 _symmetry_equiv_pos_as_xyz
  1  'x, y, z'
loop_
 _atom_site_type_symbol
 _atom_site_label
 _atom_site_symmetry_multiplicity
 _atom_site_fract_x
 _atom_site_fract_y
 _atom_site_fract_z
 _atom_site_occupancy
  Li  Li0  1  0.00000000  0.00000000  0.03978000  1.0
  Li  Li1  1  0.50000000  0.00000000  0.03978000  1.0
  Li  Li2  1  0.25000000  0.50000000  0.11935000  1.0
  Li  Li3  1  0.75000000  0.50000000  0.11935000  1.0
  Li  Li4  1  0.50000000  0.01140000  0.86415000  1.0
  Li  Li5  1  0.00000000  0.01099000  0.86296000  1.0
  Li  Li6  1  0.75021000  0.50409000  0.96223000  1.0
  Li  Li7  1  0.24979000  0.50409000  0.96223000  1.0
  Al  Al8  1  0.75000000  0.00000000  0.11935000  1.0
  Al  Al9  1  0.25000000  0.00000000  0.11935000  1.0
  Al  Al10  1  0.50000000  0.50000000  0.03978000  1.0
  Al  Al11  1  0.00000000  0.50000000  0.03978000  1.0
  Al  Al12  1  0.25023000  0.99886000  0.96024000  1.0
  Al  Al13  1  0.74977000  0.99886000  0.96024000  1.0
  Al  Al14  1  0.00000000  0.49889000  0.88177000  1.0
  Al  Al15  1  0.50000000  0.49754000  0.88092000  1.0
  Ni  Ni16  1  0.75000000  0.25000000  0.03978000  1.0
  Ni  Ni17  1  0.25000000  0.25000000  0.03978000  1.0
  Ni  Ni18  1  0.00000000  0.75000000  0.11935000  1.0
  Ni  Ni19  1  0.50000000  0.75000000  0.11935000  1.0
  Ni  Ni20  1  0.25088000  0.26940000  0.88747000  1.0
  Ni  Ni21  1  0.74912000  0.26940000  0.88747000  1.0
  Ni  Ni22  1  0.50000000  0.75531000  0.95917000  1.0
  Ni  Ni23  1  0.00000000  0.75655000  0.95925000  1.0
  Pd  Pd24  1  0.75000000  0.75000000  0.03978000  1.0
  Pd  Pd25  1  0.25000000  0.75000000  0.03978000  1.0
  Pd  Pd26  1  0.00000000  0.25000000  0.11935000  1.0
  Pd  Pd27  1  0.50000000  0.25000000  0.11935000  1.0
  Pd  Pd28  1  0.25129000  0.74251000  0.88350000  1.0
  Pd  Pd29  1  0.74871000  0.74251000  0.88350000  1.0
  Pd  Pd30  1  0.50000000  0.24513000  0.96002000  1.0
  Pd  Pd31  1  0.00000000  0.24381000  0.95989000  1.0
  C  C32  1  0.00000000  0.01028000  0.78233000  1.0
  O  O33  1  0.00000000  0.00996000  0.73898000  1.0
