# generated using pymatgen
data_LiMgInGe
_symmetry_space_group_name_H-M   'P 1'
_cell_length_a   8.41850000
_cell_length_b   6.06838000
_cell_length_c   24.54770000
_cell_angle_alpha   90.00000000
_cell_angle_beta   90.00000000
_cell_angle_gamma   90.00000000
_symmetry_Int_Tables_number   1
_chemical_formula_structural   LiMgInGe
_chemical_formula_sum   'Li4 Mg4 In4 Ge4'
_cell_volume   1254.05993078
_cell_formula_units_Z   4
loop_
 _symmetry_equiv_pos_site_id
 _symmetry_equiv_pos_as_xyz
  1  'x, y, z'
loop_
 _atom_site_type_symbol
 _atom_site_label
 _atom_site_symmetry_multiplicity
 _atom_site_fract_x
 _atom_site_fract_y
 _atom_site_fract_z
 _atom_site_occupancy
  Li  Li0  1  0.75000000  0.50000000  0.90737000  1.0
  Li  Li1  1  0.75001000  0.04432000  0.03152000  1.0
  Li  Li2  1  0.25000000  0.50000000  0.90737000  1.0
  Li  Li3  1  0.24999000  0.04432000  0.03152000  1.0
  Mg  Mg4  1  0.50000000  0.75992000  0.96912000  1.0
  Mg  Mg5  1  0.50000000  0.34012000  0.09466000  1.0
  Mg  Mg6  1  0.00000000  0.75992000  0.96912000  1.0
  Mg  Mg7  1  0.00000000  0.34031000  0.09466000  1.0
  In  In8  1  0.50000000  0.25992000  0.96912000  1.0
  In  In9  1  0.50000000  0.84199000  0.11172000  1.0
  In  In10  1  0.00000000  0.25992000  0.96912000  1.0
  In  In11  1  0.00000000  0.84199000  0.11174000  1.0
  Ge  Ge12  1  0.75000000  0.00000000  0.90737000  1.0
  Ge  Ge13  1  0.75003000  0.58972000  0.05149000  1.0
  Ge  Ge14  1  0.25000000  0.00000000  0.90737000  1.0
  Ge  Ge15  1  0.24997000  0.58972000  0.05149000  1.0
