# generated using pymatgen
data_LiMgInGe
_symmetry_space_group_name_H-M   Pm
_cell_length_a   6.06838000
_cell_length_b   8.41850000
_cell_length_c   24.54770000
_cell_angle_alpha   90.00000000
_cell_angle_beta   90.00000000
_cell_angle_gamma   90.00000000
_symmetry_Int_Tables_number   6
_chemical_formula_structural   LiMgInGe
_chemical_formula_sum   'Li4 Mg4 In4 Ge4'
_cell_volume   1254.05993078
_cell_formula_units_Z   4
loop_
 _symmetry_equiv_pos_site_id
 _symmetry_equiv_pos_as_xyz
  1  'x, y, z'
  2  'x, -y, z'
loop_
 _atom_site_type_symbol
 _atom_site_label
 _atom_site_symmetry_multiplicity
 _atom_site_fract_x
 _atom_site_fract_y
 _atom_site_fract_z
 _atom_site_occupancy
  Li  Li0  2  0.04432000  0.24999000  0.96848000  1.0
  Li  Li1  2  0.50000000  0.25000000  0.09263000  1.0
  Mg  Mg2  1  0.34012000  0.50000000  0.90534000  1.0
  Mg  Mg3  1  0.34031000  0.00000000  0.90534000  1.0
  Mg  Mg4  1  0.75992000  0.00000000  0.03088000  1.0
  Mg  Mg5  1  0.75992000  0.50000000  0.03088000  1.0
  In  In6  1  0.25992000  0.00000000  0.03088000  1.0
  In  In7  1  0.25992000  0.50000000  0.03088000  1.0
  In  In8  1  0.84199000  0.00000000  0.88826000  1.0
  In  In9  1  0.84199000  0.50000000  0.88828000  1.0
  Ge  Ge10  2  0.00000000  0.25000000  0.09263000  1.0
  Ge  Ge11  2  0.58972000  0.24997000  0.94851000  1.0
