# generated using pymatgen
data_Sc8Ga8Ge8Pd8CO
_symmetry_space_group_name_H-M   'P 1'
_cell_length_a   7.83718000
_cell_length_b   8.08666000
_cell_length_c   26.43810000
_cell_angle_alpha   90.00000000
_cell_angle_beta   90.00000000
_cell_angle_gamma   90.00000000
_symmetry_Int_Tables_number   1
_chemical_formula_structural   Sc8Ga8Ge8Pd8CO
_chemical_formula_sum   'Sc8 Ga8 Ge8 Pd8 C1 O1'
_cell_volume   1675.55715334
_cell_formula_units_Z   1
loop_
 _symmetry_equiv_pos_site_id
 _symmetry_equiv_pos_as_xyz
  1  'x, y, z'
loop_
 _atom_site_type_symbol
 _atom_site_label
 _atom_site_symmetry_multiplicity
 _atom_site_fract_x
 _atom_site_fract_y
 _atom_site_fract_z
 _atom_site_occupancy
  Sc  Sc0  1  0.00000000  0.00000000  0.95941000  1.0
  Sc  Sc1  1  0.00000000  0.00000000  0.12595000  1.0
  Sc  Sc2  1  0.00000000  0.50000000  0.95941000  1.0
  Sc  Sc3  1  0.00000000  0.50000000  0.12484000  1.0
  Sc  Sc4  1  0.50000000  0.00000000  0.95941000  1.0
  Sc  Sc5  1  0.50000000  0.00000000  0.12578000  1.0
  Sc  Sc6  1  0.50000000  0.50000000  0.95941000  1.0
  Sc  Sc7  1  0.50000000  0.50000000  0.12489000  1.0
  Ga  Ga8  1  0.00000000  0.75000000  0.87824000  1.0
  Ga  Ga9  1  0.00000000  0.75079000  0.04282000  1.0
  Ga  Ga10  1  0.00000000  0.25000000  0.87824000  1.0
  Ga  Ga11  1  0.00000000  0.24921000  0.04282000  1.0
  Ga  Ga12  1  0.50000000  0.75000000  0.87824000  1.0
  Ga  Ga13  1  0.50000000  0.75000000  0.04308000  1.0
  Ga  Ga14  1  0.50000000  0.25000000  0.87824000  1.0
  Ga  Ga15  1  0.50000000  0.25000000  0.04308000  1.0
  Ge  Ge16  1  0.25000000  0.75000000  0.95941000  1.0
  Ge  Ge17  1  0.24989000  0.74937000  0.12103000  1.0
  Ge  Ge18  1  0.25000000  0.25000000  0.95941000  1.0
  Ge  Ge19  1  0.24989000  0.25063000  0.12103000  1.0
  Ge  Ge20  1  0.75000000  0.75000000  0.95941000  1.0
  Ge  Ge21  1  0.75011000  0.74937000  0.12103000  1.0
  Ge  Ge22  1  0.75000000  0.25000000  0.95941000  1.0
  Ge  Ge23  1  0.75011000  0.25063000  0.12103000  1.0
  Pd  Pd24  1  0.25000000  0.00000000  0.87824000  1.0
  Pd  Pd25  1  0.25384000  0.00000000  0.04542000  1.0
  Pd  Pd26  1  0.25000000  0.50000000  0.87824000  1.0
  Pd  Pd27  1  0.25170000  0.50000000  0.04491000  1.0
  Pd  Pd28  1  0.75000000  0.00000000  0.87824000  1.0
  Pd  Pd29  1  0.74616000  0.00000000  0.04542000  1.0
  Pd  Pd30  1  0.75000000  0.50000000  0.87824000  1.0
  Pd  Pd31  1  0.74830000  0.50000000  0.04491000  1.0
  C  C32  1  0.00000000  0.00000000  0.21322000  1.0
  O  O33  1  0.00000000  0.00000000  0.25670000  1.0
