data_image0
_chemical_formula_structural       Zr8Ir8CO
_chemical_formula_sum              "Zr8 Ir8 C1 O1"
_cell_length_a       6.65024
_cell_length_b       6.65024
_cell_length_c       24.9877
_cell_angle_alpha    90
_cell_angle_beta     90
_cell_angle_gamma    90

_space_group_name_H-M_alt    "P 1"
_space_group_IT_number       1

loop_
  _space_group_symop_operation_xyz
  'x, y, z'

loop_
  _atom_site_type_symbol
  _atom_site_label
  _atom_site_symmetry_multiplicity
  _atom_site_fract_x
  _atom_site_fract_y
  _atom_site_fract_z
  _atom_site_occupancy
  Zr  Zr1       1.0  0.25000  0.25000  0.97859  1.0000
  Zr  Zr2       1.0  0.25690  0.25685  0.12104  1.0000
  Zr  Zr3       1.0  0.25000  0.75000  0.97859  1.0000
  Zr  Zr4       1.0  0.25284  0.74942  0.11163  1.0000
  Zr  Zr5       1.0  0.75000  0.25000  0.97859  1.0000
  Zr  Zr6       1.0  0.74935  0.25290  0.11163  1.0000
  Zr  Zr7       1.0  0.75000  0.75000  0.97859  1.0000
  Zr  Zr8       1.0  0.75000  0.74998  0.10185  1.0000
  Ir  Ir1       1.0  0.00000  0.00000  0.91205  1.0000
  Ir  Ir2       1.0  0.01918  0.01931  0.06288  1.0000
  Ir  Ir3       1.0  0.00000  0.50000  0.91205  1.0000
  Ir  Ir4       1.0  0.01799  0.48562  0.05490  1.0000
  Ir  Ir5       1.0  0.50000  0.00000  0.91205  1.0000
  Ir  Ir6       1.0  0.48543  0.01779  0.05488  1.0000
  Ir  Ir7       1.0  0.50000  0.50000  0.91205  1.0000
  Ir  Ir8       1.0  0.48924  0.48905  0.04731  1.0000
  C   C1        1.0  0.25270  0.25271  0.21153  1.0000
  O   O1        1.0  0.25228  0.25227  0.25797  1.0000
