# generated using pymatgen
data_Zr8Ir8CO
_symmetry_space_group_name_H-M   P1
_cell_length_a   6.65024000
_cell_length_b   6.65024000
_cell_length_c   24.98770000
_cell_angle_alpha   90.00000000
_cell_angle_beta   90.00000000
_cell_angle_gamma   90.00000000
_symmetry_Int_Tables_number   1
_chemical_formula_structural   Zr8Ir8CO
_chemical_formula_sum   'Zr8 Ir8 C1 O1'
_cell_volume   1105.09832543
_cell_formula_units_Z   1
loop_
 _symmetry_equiv_pos_site_id
 _symmetry_equiv_pos_as_xyz
  1  'x, y, z'
loop_
 _atom_site_type_symbol
 _atom_site_label
 _atom_site_symmetry_multiplicity
 _atom_site_fract_x
 _atom_site_fract_y
 _atom_site_fract_z
 _atom_site_occupancy
  Zr  Zr0  1  0.25000000  0.25000000  0.97859000  1.0
  Zr  Zr1  1  0.25000000  0.75000000  0.97859000  1.0
  Zr  Zr2  1  0.26530000  0.74891000  0.11137000  1.0
  Zr  Zr3  1  0.26990000  0.26890000  0.11622000  1.0
  Zr  Zr4  1  0.74756000  0.26415000  0.11119000  1.0
  Zr  Zr5  1  0.75000000  0.25000000  0.97859000  1.0
  Zr  Zr6  1  0.75000000  0.75000000  0.97859000  1.0
  Zr  Zr7  1  0.75311000  0.75410000  0.10891000  1.0
  Ir  Ir8  1  0.00000000  0.00000000  0.91205000  1.0
  Ir  Ir9  1  0.00000000  0.50000000  0.91205000  1.0
  Ir  Ir10  1  0.00118000  0.50613000  0.05626000  1.0
  Ir  Ir11  1  0.01630000  0.01610000  0.07349000  1.0
  Ir  Ir12  1  0.50000000  0.00000000  0.91205000  1.0
  Ir  Ir13  1  0.50000000  0.50000000  0.91205000  1.0
  Ir  Ir14  1  0.50238000  0.50231000  0.04040000  1.0
  Ir  Ir15  1  0.50618000  0.00005000  0.05379000  1.0
  C  C16  1  0.25672000  0.25608000  0.20688000  1.0
  O  O17  1  0.24962000  0.24966000  0.25326000  1.0
