# generated using pymatgen
data_Y4In4Ge4Pd4CO
_symmetry_space_group_name_H-M   'P 1'
_cell_length_a   6.48113000
_cell_length_b   7.93684000
_cell_length_c   24.85120000
_cell_angle_alpha   90.00000000
_cell_angle_beta   90.00000000
_cell_angle_gamma   90.00000000
_symmetry_Int_Tables_number   1
_chemical_formula_structural   Y4In4Ge4Pd4CO
_chemical_formula_sum   'Y4 In4 Ge4 Pd4 C1 O1'
_cell_volume   1278.33806959
_cell_formula_units_Z   1
loop_
 _symmetry_equiv_pos_site_id
 _symmetry_equiv_pos_as_xyz
  1  'x, y, z'
loop_
 _atom_site_type_symbol
 _atom_site_label
 _atom_site_symmetry_multiplicity
 _atom_site_fract_x
 _atom_site_fract_y
 _atom_site_fract_z
 _atom_site_occupancy
  Y  Y0  1  0.23424000  0.25000000  0.03253000  1.0
  Y  Y1  1  0.71274000  0.25006000  0.89354000  1.0
  Y  Y2  1  0.23424000  0.75000000  0.03253000  1.0
  Y  Y3  1  0.73056000  0.75001000  0.91082000  1.0
  In  In4  1  0.73424000  0.25000000  0.03253000  1.0
  In  In5  1  0.20702000  0.25006000  0.88825000  1.0
  In  In6  1  0.73424000  0.75000000  0.03253000  1.0
  In  In7  1  0.21028000  0.74984000  0.88409000  1.0
  Ge  Ge8  1  0.00000000  0.00000000  0.09760000  1.0
  Ge  Ge9  1  0.44212000  0.00350000  0.95410000  1.0
  Ge  Ge10  1  0.00000000  0.50000000  0.09760000  1.0
  Ge  Ge11  1  0.44223000  0.49646000  0.95412000  1.0
  Pd  Pd12  1  0.50000000  0.00000000  0.09760000  1.0
  Pd  Pd13  1  0.99932000  0.00071000  0.96700000  1.0
  Pd  Pd14  1  0.50000000  0.50000000  0.09760000  1.0
  Pd  Pd15  1  0.99930000  0.49932000  0.96698000  1.0
  C  C16  1  0.87315000  0.25043000  0.78664000  1.0
  O  O17  1  0.93022000  0.25025000  0.74310000  1.0
