# generated using pymatgen
data_Y4In4Ge4Pd4CO
_symmetry_space_group_name_H-M   P1
_cell_length_a   6.48113000
_cell_length_b   7.93684000
_cell_length_c   24.85120000
_cell_angle_alpha   90.00000000
_cell_angle_beta   90.00000000
_cell_angle_gamma   90.00000000
_symmetry_Int_Tables_number   1
_chemical_formula_structural   Y4In4Ge4Pd4CO
_chemical_formula_sum   'Y4 In4 Ge4 Pd4 C1 O1'
_cell_volume   1278.33806959
_cell_formula_units_Z   1
loop_
 _symmetry_equiv_pos_site_id
 _symmetry_equiv_pos_as_xyz
  1  'x, y, z'
loop_
 _atom_site_type_symbol
 _atom_site_label
 _atom_site_symmetry_multiplicity
 _atom_site_fract_x
 _atom_site_fract_y
 _atom_site_fract_z
 _atom_site_occupancy
  Y  Y0  1  0.26944000  0.24999000  0.91082000  1.0
  Y  Y1  1  0.28726000  0.74994000  0.89354000  1.0
  Y  Y2  1  0.76576000  0.25000000  0.03253000  1.0
  Y  Y3  1  0.76576000  0.75000000  0.03253000  1.0
  In  In4  1  0.26576000  0.25000000  0.03253000  1.0
  In  In5  1  0.26576000  0.75000000  0.03253000  1.0
  In  In6  1  0.78972000  0.25016000  0.88409000  1.0
  In  In7  1  0.79298000  0.74994000  0.88825000  1.0
  Ge  Ge8  1  0.00000000  0.00000000  0.09760000  1.0
  Ge  Ge9  1  0.00000000  0.50000000  0.09760000  1.0
  Ge  Ge10  1  0.55777000  0.50354000  0.95412000  1.0
  Ge  Ge11  1  0.55788000  0.99650000  0.95410000  1.0
  Pd  Pd12  1  0.00068000  0.99929000  0.96700000  1.0
  Pd  Pd13  1  0.00070000  0.50068000  0.96698000  1.0
  Pd  Pd14  1  0.50000000  0.00000000  0.09760000  1.0
  Pd  Pd15  1  0.50000000  0.50000000  0.09760000  1.0
  C  C16  1  0.12685000  0.74957000  0.78664000  1.0
  O  O17  1  0.06978000  0.74975000  0.74310000  1.0
