# generated using pymatgen
data_K24Sb8CO
_symmetry_space_group_name_H-M   'P 1'
_cell_length_a   8.65338000
_cell_length_b   12.23770000
_cell_length_c   29.17830000
_cell_angle_alpha   90.00000000
_cell_angle_beta   90.00000000
_cell_angle_gamma   90.00000000
_symmetry_Int_Tables_number   1
_chemical_formula_structural   K24Sb8CO
_chemical_formula_sum   'K24 Sb8 C1 O1'
_cell_volume   3089.90810297
_cell_formula_units_Z   1
loop_
 _symmetry_equiv_pos_site_id
 _symmetry_equiv_pos_as_xyz
  1  'x, y, z'
loop_
 _atom_site_type_symbol
 _atom_site_label
 _atom_site_symmetry_multiplicity
 _atom_site_fract_x
 _atom_site_fract_y
 _atom_site_fract_z
 _atom_site_occupancy
  K  K0  1  0.25000000  0.00000000  0.94757000  1.0
  K  K1  1  0.75000000  0.50000000  0.94757000  1.0
  K  K2  1  0.75000000  0.00000000  0.94757000  1.0
  K  K3  1  0.25000000  0.50000000  0.94757000  1.0
  K  K4  1  0.75000000  0.75000000  0.84272000  1.0
  K  K5  1  0.25000000  0.25000000  0.84272000  1.0
  K  K6  1  0.25000000  0.75000000  0.84272000  1.0
  K  K7  1  0.75000000  0.25000000  0.84272000  1.0
  K  K8  1  0.00000000  0.75000000  0.94757000  1.0
  K  K9  1  0.50000000  0.00000000  0.84272000  1.0
  K  K10  1  0.00000000  0.25000000  0.94757000  1.0
  K  K11  1  0.50000000  0.50000000  0.84272000  1.0
  K  K12  1  0.27866000  0.50000000  0.17836000  1.0
  K  K13  1  0.65293000  0.00001000  0.20857000  1.0
  K  K14  1  0.72207000  0.50001000  0.17092000  1.0
  K  K15  1  0.26009000  0.00007000  0.15566000  1.0
  K  K16  1  0.74323000  0.26912000  0.04750000  1.0
  K  K17  1  0.25833000  0.76510000  0.05226000  1.0
  K  K18  1  0.25832000  0.23490000  0.05225000  1.0
  K  K19  1  0.74349000  0.73086000  0.04746000  1.0
  K  K20  1  0.96286000  0.23498000  0.14609000  1.0
  K  K21  1  0.45704000  0.49996000  0.06479000  1.0
  K  K22  1  0.96284000  0.76501000  0.14608000  1.0
  K  K23  1  0.58368000  0.00001000  0.07501000  1.0
  Sb  Sb24  1  0.00000000  0.00000000  0.84272000  1.0
  Sb  Sb25  1  0.50000000  0.25000000  0.94757000  1.0
  Sb  Sb26  1  0.50000000  0.75000000  0.94757000  1.0
  Sb  Sb27  1  0.00000000  0.50000000  0.84272000  1.0
  Sb  Sb28  1  0.01046000  0.50000000  0.06202000  1.0
  Sb  Sb29  1  0.50836000  0.75325000  0.15209000  1.0
  Sb  Sb30  1  0.50856000  0.24674000  0.15206000  1.0
  Sb  Sb31  1  0.99516000  0.99998000  0.05412000  1.0
  C  C32  1  0.22004000  0.99999000  0.26211000  1.0
  O  O33  1  0.23144000  0.99998000  0.30121000  1.0
