# generated using pymatgen
data_Al16Fe16CO
_symmetry_space_group_name_H-M   'P 1'
_cell_length_a   5.75078000
_cell_length_b   8.13283000
_cell_length_c   26.09960000
_cell_angle_alpha   90.00000000
_cell_angle_beta   90.00000000
_cell_angle_gamma   90.00000000
_symmetry_Int_Tables_number   1
_chemical_formula_structural   Al16Fe16CO
_chemical_formula_sum   'Al16 Fe16 C1 O1'
_cell_volume   1220.68132236
_cell_formula_units_Z   1
loop_
 _symmetry_equiv_pos_site_id
 _symmetry_equiv_pos_as_xyz
  1  'x, y, z'
loop_
 _atom_site_type_symbol
 _atom_site_label
 _atom_site_symmetry_multiplicity
 _atom_site_fract_x
 _atom_site_fract_y
 _atom_site_fract_z
 _atom_site_occupancy
  Al  Al0  1  0.50000000  0.75000000  0.88315000  1.0
  Al  Al1  1  0.50000000  0.00000000  0.96105000  1.0
  Al  Al2  1  0.50000000  0.24496000  0.03496000  1.0
  Al  Al3  1  0.50000000  0.00000000  0.12328000  1.0
  Al  Al4  1  0.50000000  0.25000000  0.88315000  1.0
  Al  Al5  1  0.50000000  0.50000000  0.96105000  1.0
  Al  Al6  1  0.50000000  0.75504000  0.03496000  1.0
  Al  Al7  1  0.50000000  0.50000000  0.13577000  1.0
  Al  Al8  1  0.00000000  0.75000000  0.88315000  1.0
  Al  Al9  1  0.00000000  0.00000000  0.96105000  1.0
  Al  Al10  1  0.00000000  0.24103000  0.03475000  1.0
  Al  Al11  1  0.00000000  0.00000000  0.12291000  1.0
  Al  Al12  1  0.00000000  0.25000000  0.88315000  1.0
  Al  Al13  1  0.00000000  0.50000000  0.96105000  1.0
  Al  Al14  1  0.00000000  0.75897000  0.03475000  1.0
  Al  Al15  1  0.00000000  0.50000000  0.13845000  1.0
  Fe  Fe16  1  0.75002000  0.00000000  0.88315000  1.0
  Fe  Fe17  1  0.75002000  0.75000000  0.96105000  1.0
  Fe  Fe18  1  0.74558000  0.00000000  0.04403000  1.0
  Fe  Fe19  1  0.75163000  0.74155000  0.11332000  1.0
  Fe  Fe20  1  0.75002000  0.50000000  0.88315000  1.0
  Fe  Fe21  1  0.75002000  0.25000000  0.96105000  1.0
  Fe  Fe22  1  0.75528000  0.50000000  0.04901000  1.0
  Fe  Fe23  1  0.75163000  0.25845000  0.11332000  1.0
  Fe  Fe24  1  0.24998000  0.00000000  0.88315000  1.0
  Fe  Fe25  1  0.24998000  0.75000000  0.96105000  1.0
  Fe  Fe26  1  0.25442000  0.00000000  0.04403000  1.0
  Fe  Fe27  1  0.24837000  0.74155000  0.11332000  1.0
  Fe  Fe28  1  0.24998000  0.50000000  0.88315000  1.0
  Fe  Fe29  1  0.24998000  0.25000000  0.96105000  1.0
  Fe  Fe30  1  0.24472000  0.50000000  0.04901000  1.0
  Fe  Fe31  1  0.24837000  0.25845000  0.11332000  1.0
  C  C32  1  0.50000000  0.00000000  0.20188000  1.0
  O  O33  1  0.50000000  0.00000000  0.24588000  1.0
