# generated using pymatgen
data_Li8Sc8Ga8Pd8C
_symmetry_space_group_name_H-M   Pm
_cell_length_a   6.35289000
_cell_length_b   8.98434000
_cell_length_c   26.73830000
_cell_angle_alpha   90.00000000
_cell_angle_beta   90.00000000
_cell_angle_gamma   90.00000000
_symmetry_Int_Tables_number   6
_chemical_formula_structural   Li8Sc8Ga8Pd8C
_chemical_formula_sum   'Li8 Sc8 Ga8 Pd8 C1'
_cell_volume   1526.12921479
_cell_formula_units_Z   1
loop_
 _symmetry_equiv_pos_site_id
 _symmetry_equiv_pos_as_xyz
  1  'x, y, z'
  2  'x, -y, z'
loop_
 _atom_site_type_symbol
 _atom_site_label
 _atom_site_symmetry_multiplicity
 _atom_site_fract_x
 _atom_site_fract_y
 _atom_site_fract_z
 _atom_site_occupancy
  Li  Li0  2  0.58572000  0.28969000  0.18361000  1.0
  Li  Li1  2  0.75000000  0.24999000  0.95800000  1.0
  Li  Li2  1  0.22690000  0.00000000  0.05775000  1.0
  Li  Li3  1  0.24956000  0.50000000  0.04155000  1.0
  Li  Li4  1  0.25000000  0.00000000  0.87400000  1.0
  Li  Li5  1  0.25000000  0.50000000  0.87400000  1.0
  Sc  Sc6  2  0.50000000  0.25001000  0.87400000  1.0
  Sc  Sc7  2  0.51147000  0.25000000  0.04891000  1.0
  Sc  Sc8  1  0.00000000  0.00000000  0.95800000  1.0
  Sc  Sc9  1  0.00000000  0.50000000  0.95800000  1.0
  Sc  Sc10  1  0.88346000  0.00000000  0.12728000  1.0
  Sc  Sc11  1  0.96907000  0.50000000  0.12257000  1.0
  Ga  Ga12  2  0.00000000  0.24999000  0.87400000  1.0
  Ga  Ga13  2  0.99110000  0.25183000  0.04326000  1.0
  Ga  Ga14  1  0.46791000  0.50000000  0.12342000  1.0
  Ga  Ga15  1  0.48408000  0.00000000  0.16575000  1.0
  Ga  Ga16  1  0.50000000  0.00000000  0.95800000  1.0
  Ga  Ga17  1  0.50000000  0.50000000  0.95800000  1.0
  Pd  Pd18  2  0.24042000  0.23672000  0.12374000  1.0
  Pd  Pd19  2  0.25000000  0.24999000  0.95800000  1.0
  Pd  Pd20  1  0.74527000  0.50000000  0.03923000  1.0
  Pd  Pd21  1  0.74904000  0.00000000  0.03457000  1.0
  Pd  Pd22  1  0.75000000  0.00000000  0.87400000  1.0
  Pd  Pd23  1  0.75000000  0.50000000  0.87400000  1.0
  C  C24  1  0.19918000  0.00000000  0.14177000  1.0
