# generated using pymatgen
data_Li4Al4Cu4Ge4CO
_symmetry_space_group_name_H-M   'P 1'
_cell_length_a   7.61632000
_cell_length_b   5.50126000
_cell_length_c   24.12590000
_cell_angle_alpha   90.00000000
_cell_angle_beta   90.00000000
_cell_angle_gamma   90.00000000
_symmetry_Int_Tables_number   1
_chemical_formula_structural   Li4Al4Cu4Ge4CO
_chemical_formula_sum   'Li4 Al4 Cu4 Ge4 C1 O1'
_cell_volume   1010.85968651
_cell_formula_units_Z   1
loop_
 _symmetry_equiv_pos_site_id
 _symmetry_equiv_pos_as_xyz
  1  'x, y, z'
loop_
 _atom_site_type_symbol
 _atom_site_label
 _atom_site_symmetry_multiplicity
 _atom_site_fract_x
 _atom_site_fract_y
 _atom_site_fract_z
 _atom_site_occupancy
  Li  Li0  1  0.75001000  0.50000000  0.91449000  1.0
  Li  Li1  1  0.76457000  0.98302000  0.03606000  1.0
  Li  Li2  1  0.24999000  0.50000000  0.91449000  1.0
  Li  Li3  1  0.23543000  0.98302000  0.03606000  1.0
  Al  Al4  1  0.75001000  0.00000000  0.91449000  1.0
  Al  Al5  1  0.74919000  0.47389000  0.03424000  1.0
  Al  Al6  1  0.24999000  0.00000000  0.91449000  1.0
  Al  Al7  1  0.25081000  0.47389000  0.03424000  1.0
  Cu  Cu8  1  0.50000000  0.25038000  0.97150000  1.0
  Cu  Cu9  1  0.50000000  0.72776000  0.07770000  1.0
  Cu  Cu10  1  0.00000000  0.25038000  0.97150000  1.0
  Cu  Cu11  1  0.00000000  0.70960000  0.08259000  1.0
  Ge  Ge12  1  0.50000000  0.75038000  0.97150000  1.0
  Ge  Ge13  1  0.50000000  0.19337000  0.08884000  1.0
  Ge  Ge14  1  0.00000000  0.75038000  0.97150000  1.0
  Ge  Ge15  1  0.00000000  0.25532000  0.09404000  1.0
  C  C16  1  0.50000000  0.26885000  0.16891000  1.0
  O  O17  1  0.50000000  0.30505000  0.21605000  1.0
