# generated using pymatgen
data_Li4Al4Cu4Ge4CO
_symmetry_space_group_name_H-M   Pm
_cell_length_a   5.50126000
_cell_length_b   7.61632000
_cell_length_c   24.12590000
_cell_angle_alpha   90.00000000
_cell_angle_beta   90.00000000
_cell_angle_gamma   90.00000000
_symmetry_Int_Tables_number   6
_chemical_formula_structural   Li4Al4Cu4Ge4CO
_chemical_formula_sum   'Li4 Al4 Cu4 Ge4 C1 O1'
_cell_volume   1010.85968651
_cell_formula_units_Z   1
loop_
 _symmetry_equiv_pos_site_id
 _symmetry_equiv_pos_as_xyz
  1  'x, y, z'
  2  'x, -y, z'
loop_
 _atom_site_type_symbol
 _atom_site_label
 _atom_site_symmetry_multiplicity
 _atom_site_fract_x
 _atom_site_fract_y
 _atom_site_fract_z
 _atom_site_occupancy
  Li  Li0  2  0.50000000  0.24999000  0.08551000  1.0
  Li  Li1  2  0.98302000  0.23543000  0.96394000  1.0
  Al  Al2  2  0.00000000  0.24999000  0.08551000  1.0
  Al  Al3  2  0.47389000  0.25081000  0.96576000  1.0
  Cu  Cu4  1  0.25038000  0.00000000  0.02850000  1.0
  Cu  Cu5  1  0.25038000  0.50000000  0.02850000  1.0
  Cu  Cu6  1  0.70960000  0.00000000  0.91741000  1.0
  Cu  Cu7  1  0.72776000  0.50000000  0.92230000  1.0
  Ge  Ge8  1  0.19337000  0.50000000  0.91116000  1.0
  Ge  Ge9  1  0.25532000  0.00000000  0.90596000  1.0
  Ge  Ge10  1  0.75038000  0.00000000  0.02850000  1.0
  Ge  Ge11  1  0.75038000  0.50000000  0.02850000  1.0
  C  C12  1  0.26885000  0.50000000  0.83109000  1.0
  O  O13  1  0.30505000  0.50000000  0.78395000  1.0
