data_image0
_chemical_formula_structural       Li16Sb8Au8C
_chemical_formula_sum              "Li16 Sb8 Au8 C1"
_cell_length_a       6.66546
_cell_length_b       9.42638
_cell_length_c       27.0698
_cell_angle_alpha    90
_cell_angle_beta     90
_cell_angle_gamma    90

_space_group_name_H-M_alt    "P 1"
_space_group_IT_number       1

loop_
  _space_group_symop_operation_xyz
  'x, y, z'

loop_
  _atom_site_type_symbol
  _atom_site_label
  _atom_site_symmetry_multiplicity
  _atom_site_fract_x
  _atom_site_fract_y
  _atom_site_fract_z
  _atom_site_occupancy
  Li  Li1       1.0  0.00000  0.75000  0.95647  1.0000
  Li  Li2       1.0  0.50000  0.00000  0.86942  1.0000
  Li  Li3       1.0  0.00000  0.25000  0.95647  1.0000
  Li  Li4       1.0  0.50000  0.50000  0.86942  1.0000
  Li  Li5       1.0  0.25000  0.25000  0.86942  1.0000
  Li  Li6       1.0  0.25000  0.75000  0.86942  1.0000
  Li  Li7       1.0  0.75000  0.50000  0.95647  1.0000
  Li  Li8       1.0  0.75000  0.00000  0.95647  1.0000
  Li  Li9       1.0  0.03957  0.25000  0.13320  1.0000
  Li  Li10      1.0  0.51141  0.49637  0.03785  1.0000
  Li  Li11      1.0  0.03619  0.74999  0.12139  1.0000
  Li  Li12      1.0  0.51142  0.00365  0.03785  1.0000
  Li  Li13      1.0  0.27575  0.75002  0.04394  1.0000
  Li  Li14      1.0  0.26412  0.25000  0.05253  1.0000
  Li  Li15      1.0  0.71482  0.97442  0.13164  1.0000
  Li  Li16      1.0  0.71483  0.52554  0.13164  1.0000
  Sb  Sb1       1.0  0.00000  0.00000  0.86942  1.0000
  Sb  Sb2       1.0  0.50000  0.25000  0.95647  1.0000
  Sb  Sb3       1.0  0.50000  0.75000  0.95647  1.0000
  Sb  Sb4       1.0  0.00000  0.50000  0.86942  1.0000
  Sb  Sb5       1.0  0.97957  0.51184  0.04482  1.0000
  Sb  Sb6       1.0  0.44943  0.74999  0.14308  1.0000
  Sb  Sb7       1.0  0.65045  0.24998  0.15702  1.0000
  Sb  Sb8       1.0  0.97954  0.98818  0.04481  1.0000
  Au  Au1       1.0  0.25000  0.00000  0.95647  1.0000
  Au  Au2       1.0  0.25000  0.50000  0.95647  1.0000
  Au  Au3       1.0  0.75000  0.75000  0.86942  1.0000
  Au  Au4       1.0  0.75000  0.25000  0.86942  1.0000
  Au  Au5       1.0  0.28661  0.47852  0.12019  1.0000
  Au  Au6       1.0  0.28659  0.02146  0.12019  1.0000
  Au  Au7       1.0  0.77232  0.25001  0.04382  1.0000
  Au  Au8       1.0  0.71095  0.75000  0.05683  1.0000
  C   C1        1.0  0.35241  0.24999  0.13294  1.0000
