# generated using pymatgen
data_Li16Sb8Au8C
_symmetry_space_group_name_H-M   'P 1'
_cell_length_a   9.42638000
_cell_length_b   6.66546000
_cell_length_c   27.06980000
_cell_angle_alpha   90.00000000
_cell_angle_beta   90.00000000
_cell_angle_gamma   90.00000000
_symmetry_Int_Tables_number   1
_chemical_formula_structural   Li16Sb8Au8C
_chemical_formula_sum   'Li16 Sb8 Au8 C1'
_cell_volume   1700.82690343
_cell_formula_units_Z   1
loop_
 _symmetry_equiv_pos_site_id
 _symmetry_equiv_pos_as_xyz
  1  'x, y, z'
loop_
 _atom_site_type_symbol
 _atom_site_label
 _atom_site_symmetry_multiplicity
 _atom_site_fract_x
 _atom_site_fract_y
 _atom_site_fract_z
 _atom_site_occupancy
  Li  Li0  1  0.50000000  1.00000000  0.04353000  1.0
  Li  Li1  1  0.75001000  0.50000000  0.13058000  1.0
  Li  Li2  1  0.00000000  1.00000000  0.04353000  1.0
  Li  Li3  1  0.24999000  0.50000000  0.13058000  1.0
  Li  Li4  1  0.00000000  0.25000000  0.13058000  1.0
  Li  Li5  1  0.50000000  0.25000000  0.13058000  1.0
  Li  Li6  1  0.25001000  0.75000000  0.04353000  1.0
  Li  Li7  1  0.74999000  0.75000000  0.04353000  1.0
  Li  Li8  1  0.00000000  0.03957000  0.86680000  1.0
  Li  Li9  1  0.24638000  0.51141000  0.96215000  1.0
  Li  Li10  1  0.50000000  0.03619000  0.87861000  1.0
  Li  Li11  1  0.75362000  0.51141000  0.96215000  1.0
  Li  Li12  1  0.50000000  0.27575000  0.95606000  1.0
  Li  Li13  1  0.00000000  0.26412000  0.94747000  1.0
  Li  Li14  1  0.72443000  0.71482000  0.86836000  1.0
  Li  Li15  1  0.27557000  0.71482000  0.86836000  1.0
  Sb  Sb16  1  0.75001000  0.00000000  0.13058000  1.0
  Sb  Sb17  1  0.00000000  0.50000000  0.04353000  1.0
  Sb  Sb18  1  0.50000000  0.50000000  0.04353000  1.0
  Sb  Sb19  1  0.24999000  0.00000000  0.13058000  1.0
  Sb  Sb20  1  0.26185000  0.97957000  0.95518000  1.0
  Sb  Sb21  1  0.50000000  0.44943000  0.85692000  1.0
  Sb  Sb22  1  0.00000000  0.65045000  0.84298000  1.0
  Sb  Sb23  1  0.73815000  0.97957000  0.95518000  1.0
  Au  Au24  1  0.75001000  0.25000000  0.04353000  1.0
  Au  Au25  1  0.24999000  0.25000000  0.04353000  1.0
  Au  Au26  1  0.50000000  0.75000000  0.13058000  1.0
  Au  Au27  1  0.00000000  0.75000000  0.13058000  1.0
  Au  Au28  1  0.22853000  0.28661000  0.87981000  1.0
  Au  Au29  1  0.77147000  0.28661000  0.87981000  1.0
  Au  Au30  1  0.00000000  0.77232000  0.95618000  1.0
  Au  Au31  1  0.50000000  0.71095000  0.94317000  1.0
  C  C32  1  0.00000000  0.35241000  0.86706000  1.0
