data_image0
_chemical_formula_structural       YAuYAuYAuYAuYAuYAuYAuYAuYAuYAuYAuYAuYAuYAuYAuYAuCO
_chemical_formula_sum              "Y16 Au16 C1 O1"
_cell_length_a       7.24612
_cell_length_b       10.2476
_cell_length_c       27.6857
_cell_angle_alpha    90
_cell_angle_beta     90
_cell_angle_gamma    90

_space_group_name_H-M_alt    "P 1"
_space_group_IT_number       1

loop_
  _space_group_symop_operation_xyz
  'x, y, z'

loop_
  _atom_site_type_symbol
  _atom_site_label
  _atom_site_symmetry_multiplicity
  _atom_site_fract_x
  _atom_site_fract_y
  _atom_site_fract_z
  _atom_site_occupancy
  Y   Y1        1.0  0.25000  0.25000  0.86120  1.0000
  Au  Au1       1.0  0.00000  0.00000  0.86120  1.0000
  Y   Y2        1.0  0.25000  0.00000  0.95373  1.0000
  Au  Au2       1.0  0.00000  0.25000  0.95373  1.0000
  Y   Y3        1.0  0.25000  0.25000  0.04627  1.0000
  Au  Au3       1.0  0.00000  0.00000  0.04627  1.0000
  Y   Y4        1.0  0.25000  0.00000  0.13880  1.0000
  Au  Au4       1.0  0.00000  0.25000  0.13880  1.0000
  Y   Y5        1.0  0.25000  0.75000  0.86120  1.0000
  Au  Au5       1.0  0.00000  0.50000  0.86120  1.0000
  Y   Y6        1.0  0.25000  0.50000  0.95373  1.0000
  Au  Au6       1.0  0.00000  0.75000  0.95373  1.0000
  Y   Y7        1.0  0.25000  0.75000  0.04627  1.0000
  Au  Au7       1.0  0.00000  0.50000  0.04627  1.0000
  Y   Y8        1.0  0.25000  0.50000  0.13880  1.0000
  Au  Au8       1.0  0.00000  0.75000  0.13880  1.0000
  Y   Y9        1.0  0.75000  0.25000  0.86120  1.0000
  Au  Au9       1.0  0.50000  0.00000  0.86120  1.0000
  Y   Y10       1.0  0.75000  0.00000  0.95373  1.0000
  Au  Au10      1.0  0.50000  0.25000  0.95373  1.0000
  Y   Y11       1.0  0.75000  0.25000  0.04627  1.0000
  Au  Au11      1.0  0.50000  0.00000  0.04627  1.0000
  Y   Y12       1.0  0.75000  0.00000  0.13880  1.0000
  Au  Au12      1.0  0.50000  0.25000  0.13880  1.0000
  Y   Y13       1.0  0.75000  0.75000  0.86120  1.0000
  Au  Au13      1.0  0.50000  0.50000  0.86120  1.0000
  Y   Y14       1.0  0.75000  0.50000  0.95373  1.0000
  Au  Au14      1.0  0.50000  0.75000  0.95373  1.0000
  Y   Y15       1.0  0.75000  0.75000  0.04627  1.0000
  Au  Au15      1.0  0.50000  0.50000  0.04627  1.0000
  Y   Y16       1.0  0.75000  0.50000  0.13880  1.0000
  Au  Au16      1.0  0.50000  0.75000  0.13880  1.0000
  C   C1        1.0  0.25000  0.00000  0.20743  1.0000
  O   O1        1.0  0.25000  0.00000  0.24897  1.0000
