# generated using pymatgen
data_Y16Au16CO
_symmetry_space_group_name_H-M   Pmm2
_cell_length_a   7.24612000
_cell_length_b   10.24760000
_cell_length_c   27.68570000
_cell_angle_alpha   90.00000000
_cell_angle_beta   90.00000000
_cell_angle_gamma   90.00000000
_symmetry_Int_Tables_number   25
_chemical_formula_structural   Y16Au16CO
_chemical_formula_sum   'Y16 Au16 C1 O1'
_cell_volume   2055.81104759
_cell_formula_units_Z   1
loop_
 _symmetry_equiv_pos_site_id
 _symmetry_equiv_pos_as_xyz
  1  'x, y, z'
  2  '-x, -y, z'
  3  '-x, y, z'
  4  'x, -y, z'
loop_
 _atom_site_type_symbol
 _atom_site_label
 _atom_site_symmetry_multiplicity
 _atom_site_fract_x
 _atom_site_fract_y
 _atom_site_fract_z
 _atom_site_occupancy
  Y  Y0  2  0.00000000  0.24837000  0.04536000  1.0
  Y  Y1  2  0.00000000  0.25000000  0.86120000  1.0
  Y  Y2  2  0.50000000  0.25000000  0.86120000  1.0
  Y  Y3  2  0.50000000  0.25119000  0.04571000  1.0
  Y  Y4  1  0.00000000  0.00000000  0.13801000  1.0
  Y  Y5  1  0.00000000  0.00000000  0.95373000  1.0
  Y  Y6  1  0.00000000  0.50000000  0.13827000  1.0
  Y  Y7  1  0.00000000  0.50000000  0.95373000  1.0
  Y  Y8  1  0.50000000  0.00000000  0.14071000  1.0
  Y  Y9  1  0.50000000  0.00000000  0.95373000  1.0
  Y  Y10  1  0.50000000  0.50000000  0.13825000  1.0
  Y  Y11  1  0.50000000  0.50000000  0.95373000  1.0
  Au  Au12  4  0.25000000  0.25000000  0.95373000  1.0
  Au  Au13  4  0.25054000  0.25035000  0.13165000  1.0
  Au  Au14  2  0.24664000  0.50000000  0.04816000  1.0
  Au  Au15  2  0.25000000  0.00000000  0.86120000  1.0
  Au  Au16  2  0.25000000  0.50000000  0.86120000  1.0
  Au  Au17  2  0.26194000  0.00000000  0.04847000  1.0
  C  C18  1  0.00000000  0.00000000  0.22691000  1.0
  O  O19  1  0.00000000  0.00000000  0.26855000  1.0
