# generated using pymatgen
data_Li4Hf4Ge4Pd4C
_symmetry_space_group_name_H-M   Cmm2
_cell_length_a   9.08783535
_cell_length_b   9.08783535
_cell_length_c   24.81960000
_cell_angle_alpha   90.00000000
_cell_angle_beta   90.00000000
_cell_angle_gamma   90.00000000
_symmetry_Int_Tables_number   35
_chemical_formula_structural   Li4Hf4Ge4Pd4C
_chemical_formula_sum   'Li8 Hf8 Ge8 Pd8 C2'
_cell_volume   2049.81977151
_cell_formula_units_Z   2
loop_
 _symmetry_equiv_pos_site_id
 _symmetry_equiv_pos_as_xyz
  1  'x, y, z'
  2  '-x, -y, z'
  3  '-x, y, z'
  4  'x, -y, z'
  5  'x+1/2, y+1/2, z'
  6  '-x+1/2, -y+1/2, z'
  7  '-x+1/2, y+1/2, z'
  8  'x+1/2, -y+1/2, z'
loop_
 _atom_site_type_symbol
 _atom_site_label
 _atom_site_symmetry_multiplicity
 _atom_site_fract_x
 _atom_site_fract_y
 _atom_site_fract_z
 _atom_site_occupancy
  Li  Li0  4  0.25000000  0.25000000  0.90291000  1.0
  Li  Li1  2  0.00000000  0.00000000  0.04152000  1.0
  Li  Li2  2  0.00000000  0.50000000  0.02550000  1.0
  Hf  Hf3  4  0.25000000  0.25000000  0.03506000  1.0
  Hf  Hf4  2  0.00000000  0.00000000  0.90291000  1.0
  Hf  Hf5  2  0.00000000  0.50000000  0.90291000  1.0
  Ge  Ge6  4  0.00000000  0.27633000  0.10533000  1.0
  Ge  Ge7  4  0.25000000  0.00000000  0.96764000  1.0
  Pd  Pd8  4  0.00000000  0.25000000  0.96764000  1.0
  Pd  Pd9  4  0.22264000  0.50000000  0.09282000  1.0
  C  C10  2  0.00000000  0.50000000  0.11505000  1.0
