# generated using pymatgen
data_Ni24Sb8CO
_symmetry_space_group_name_H-M   'P 1'
_cell_length_a   8.43051000
_cell_length_b   5.96127000
_cell_length_c   26.32290000
_cell_angle_alpha   90.00000000
_cell_angle_beta   90.00000000
_cell_angle_gamma   90.00000000
_symmetry_Int_Tables_number   1
_chemical_formula_structural   Ni24Sb8CO
_chemical_formula_sum   'Ni24 Sb8 C1 O1'
_cell_volume   1322.89804386
_cell_formula_units_Z   1
loop_
 _symmetry_equiv_pos_site_id
 _symmetry_equiv_pos_as_xyz
  1  'x, y, z'
loop_
 _atom_site_type_symbol
 _atom_site_label
 _atom_site_symmetry_multiplicity
 _atom_site_fract_x
 _atom_site_fract_y
 _atom_site_fract_z
 _atom_site_occupancy
  Ni  Ni0  1  0.00000000  0.25005000  0.04003000  1.0
  Ni  Ni1  1  0.50000000  0.75005000  0.04003000  1.0
  Ni  Ni2  1  0.00000000  0.74995000  0.04003000  1.0
  Ni  Ni3  1  0.50000000  0.24995000  0.04003000  1.0
  Ni  Ni4  1  0.75000000  0.75005000  0.12010000  1.0
  Ni  Ni5  1  0.25000000  0.25005000  0.12010000  1.0
  Ni  Ni6  1  0.75000000  0.24995000  0.12010000  1.0
  Ni  Ni7  1  0.25000000  0.74995000  0.12010000  1.0
  Ni  Ni8  1  0.75000000  0.50000000  0.04003000  1.0
  Ni  Ni9  1  0.00000000  0.00000000  0.12010000  1.0
  Ni  Ni10  1  0.25000000  0.50000000  0.04003000  1.0
  Ni  Ni11  1  0.50000000  0.00000000  0.12010000  1.0
  Ni  Ni12  1  0.50068000  0.24971000  0.88454000  1.0
  Ni  Ni13  1  0.99939000  0.75078000  0.88456000  1.0
  Ni  Ni14  1  0.50068000  0.75029000  0.88454000  1.0
  Ni  Ni15  1  0.99939000  0.24922000  0.88456000  1.0
  Ni  Ni16  1  0.24995000  0.75303000  0.95978000  1.0
  Ni  Ni17  1  0.75005000  0.22439000  0.95653000  1.0
  Ni  Ni18  1  0.24995000  0.24697000  0.95978000  1.0
  Ni  Ni19  1  0.75005000  0.77561000  0.95653000  1.0
  Ni  Ni20  1  0.24990000  0.50000000  0.88472000  1.0
  Ni  Ni21  1  0.49554000  0.00000000  0.96182000  1.0
  Ni  Ni22  1  0.75024000  0.50000000  0.88522000  1.0
  Ni  Ni23  1  0.00445000  0.00000000  0.96183000  1.0
  Sb  Sb24  1  0.00000000  0.50000000  0.12010000  1.0
  Sb  Sb25  1  0.25000000  0.00000000  0.04003000  1.0
  Sb  Sb26  1  0.75000000  0.00000000  0.04003000  1.0
  Sb  Sb27  1  0.50000000  0.50000000  0.12010000  1.0
  Sb  Sb28  1  0.50637000  0.50000000  0.96168000  1.0
  Sb  Sb29  1  0.74997000  0.00000000  0.86837000  1.0
  Sb  Sb30  1  0.25012000  0.00000000  0.87588000  1.0
  Sb  Sb31  1  0.99359000  0.50000000  0.96164000  1.0
  C  C32  1  0.24994000  0.00000000  0.72825000  1.0
  O  O33  1  0.24998000  0.00000000  0.68503000  1.0
