# generated using pymatgen
data_Ni24Sb8CO
_symmetry_space_group_name_H-M   Pm
_cell_length_a   8.43051000
_cell_length_b   5.96127000
_cell_length_c   26.32290000
_cell_angle_alpha   90.00000000
_cell_angle_beta   90.00000000
_cell_angle_gamma   90.00000000
_symmetry_Int_Tables_number   6
_chemical_formula_structural   Ni24Sb8CO
_chemical_formula_sum   'Ni24 Sb8 C1 O1'
_cell_volume   1322.89804386
_cell_formula_units_Z   1
loop_
 _symmetry_equiv_pos_site_id
 _symmetry_equiv_pos_as_xyz
  1  'x, y, z'
  2  'x, -y, z'
loop_
 _atom_site_type_symbol
 _atom_site_label
 _atom_site_symmetry_multiplicity
 _atom_site_fract_x
 _atom_site_fract_y
 _atom_site_fract_z
 _atom_site_occupancy
  Ni  Ni0  2  0.00000000  0.25005000  0.95997000  1.0
  Ni  Ni1  2  0.24995000  0.24697000  0.04022000  1.0
  Ni  Ni2  2  0.25000000  0.25005000  0.87990000  1.0
  Ni  Ni3  2  0.50000000  0.24995000  0.95997000  1.0
  Ni  Ni4  2  0.50068000  0.24971000  0.11546000  1.0
  Ni  Ni5  2  0.75000000  0.24995000  0.87990000  1.0
  Ni  Ni6  2  0.75005000  0.22439000  0.04347000  1.0
  Ni  Ni7  2  0.99939000  0.24922000  0.11544000  1.0
  Ni  Ni8  1  0.00000000  0.00000000  0.87990000  1.0
  Ni  Ni9  1  0.00445000  0.00000000  0.03817000  1.0
  Ni  Ni10  1  0.24990000  0.50000000  0.11528000  1.0
  Ni  Ni11  1  0.25000000  0.50000000  0.95997000  1.0
  Ni  Ni12  1  0.49554000  0.00000000  0.03818000  1.0
  Ni  Ni13  1  0.50000000  0.00000000  0.87990000  1.0
  Ni  Ni14  1  0.75000000  0.50000000  0.95997000  1.0
  Ni  Ni15  1  0.75024000  0.50000000  0.11478000  1.0
  Sb  Sb16  1  0.00000000  0.50000000  0.87990000  1.0
  Sb  Sb17  1  0.25000000  0.00000000  0.95997000  1.0
  Sb  Sb18  1  0.25012000  0.00000000  0.12412000  1.0
  Sb  Sb19  1  0.50000000  0.50000000  0.87990000  1.0
  Sb  Sb20  1  0.50637000  0.50000000  0.03832000  1.0
  Sb  Sb21  1  0.74997000  0.00000000  0.13163000  1.0
  Sb  Sb22  1  0.75000000  0.00000000  0.95997000  1.0
  Sb  Sb23  1  0.99359000  0.50000000  0.03836000  1.0
  C  C24  1  0.24994000  0.00000000  0.27175000  1.0
  O  O25  1  0.24998000  0.00000000  0.31497000  1.0
