# generated using pymatgen
data_Al16Rh16C
_symmetry_space_group_name_H-M   Pm
_cell_length_a   6.00621000
_cell_length_b   8.49407000
_cell_length_c   26.37050000
_cell_angle_alpha   90.00000000
_cell_angle_beta   90.00000000
_cell_angle_gamma   90.00000000
_symmetry_Int_Tables_number   6
_chemical_formula_structural   Al16Rh16C
_chemical_formula_sum   'Al16 Rh16 C1'
_cell_volume   1345.34823335
_cell_formula_units_Z   1
loop_
 _symmetry_equiv_pos_site_id
 _symmetry_equiv_pos_as_xyz
  1  'x, y, z'
  2  'x, -y, z'
loop_
 _atom_site_type_symbol
 _atom_site_label
 _atom_site_symmetry_multiplicity
 _atom_site_fract_x
 _atom_site_fract_y
 _atom_site_fract_z
 _atom_site_occupancy
  Al  Al0  2  0.00000000  0.25000000  0.87921000  1.0
  Al  Al1  2  0.00188000  0.25000000  0.04122000  1.0
  Al  Al2  2  0.49812000  0.25000000  0.04122000  1.0
  Al  Al3  2  0.50000000  0.25000000  0.87921000  1.0
  Al  Al4  1  0.00000000  0.00000000  0.95974000  1.0
  Al  Al5  1  0.00000000  0.50000000  0.95974000  1.0
  Al  Al6  1  0.01218000  0.50000000  0.12356000  1.0
  Al  Al7  1  0.48782000  0.50000000  0.12356000  1.0
  Al  Al8  1  0.50000000  0.00000000  0.95974000  1.0
  Al  Al9  1  0.50000000  0.50000000  0.95974000  1.0
  Al  Al10  1  0.53856000  0.00000000  0.12365000  1.0
  Al  Al11  1  0.96133000  0.00000000  0.12364000  1.0
  Rh  Rh12  2  0.24996000  0.24124000  0.11895000  1.0
  Rh  Rh13  2  0.25000000  0.25000000  0.95974000  1.0
  Rh  Rh14  2  0.74999000  0.25838000  0.11725000  1.0
  Rh  Rh15  2  0.75000000  0.25000000  0.95974000  1.0
  Rh  Rh16  1  0.24999000  0.00000000  0.03876000  1.0
  Rh  Rh17  1  0.25000000  0.00000000  0.87921000  1.0
  Rh  Rh18  1  0.25000000  0.50000000  0.04016000  1.0
  Rh  Rh19  1  0.25000000  0.50000000  0.87921000  1.0
  Rh  Rh20  1  0.75000000  0.00000000  0.03850000  1.0
  Rh  Rh21  1  0.75000000  0.00000000  0.87921000  1.0
  Rh  Rh22  1  0.75000000  0.50000000  0.87921000  1.0
  Rh  Rh23  1  0.75002000  0.50000000  0.03855000  1.0
  C  C24  1  0.24992000  0.00000000  0.15108000  1.0
