# generated using pymatgen
data_V4Pd12C
_symmetry_space_group_name_H-M   Pm
_cell_length_a   5.54458000
_cell_length_b   7.84123000
_cell_length_c   24.15840000
_cell_angle_alpha   90.00000000
_cell_angle_beta   90.00000000
_cell_angle_gamma   90.00000000
_symmetry_Int_Tables_number   6
_chemical_formula_structural   V4Pd12C
_chemical_formula_sum   'V4 Pd12 C1'
_cell_volume   1050.31849900
_cell_formula_units_Z   1
loop_
 _symmetry_equiv_pos_site_id
 _symmetry_equiv_pos_as_xyz
  1  'x, y, z'
  2  'x, -y, z'
loop_
 _atom_site_type_symbol
 _atom_site_label
 _atom_site_symmetry_multiplicity
 _atom_site_fract_x
 _atom_site_fract_y
 _atom_site_fract_z
 _atom_site_occupancy
  V  V0  2  0.00281000  0.26128000  0.92182000  1.0
  V  V1  2  0.50000000  0.25000000  0.02869000  1.0
  Pd  Pd2  2  0.00000000  0.25000000  0.02869000  1.0
  Pd  Pd3  2  0.50078000  0.24894000  0.91662000  1.0
  Pd  Pd4  1  0.24930000  0.00000000  0.96773000  1.0
  Pd  Pd5  1  0.25000000  0.00000000  0.08607000  1.0
  Pd  Pd6  1  0.25000000  0.50000000  0.08607000  1.0
  Pd  Pd7  1  0.25716000  0.50000000  0.97195000  1.0
  Pd  Pd8  1  0.74202000  0.50000000  0.97201000  1.0
  Pd  Pd9  1  0.75000000  0.00000000  0.08607000  1.0
  Pd  Pd10  1  0.75000000  0.50000000  0.08607000  1.0
  Pd  Pd11  1  0.75604000  0.00000000  0.96700000  1.0
  C  C12  1  0.99662000  0.50000000  0.90420000  1.0
