# generated using pymatgen
data_Li16Al8Ag8CO
_symmetry_space_group_name_H-M   P1
_cell_length_a   6.34834000
_cell_length_b   8.97791000
_cell_length_c   26.73340000
_cell_angle_alpha   90.00000000
_cell_angle_beta   90.00000000
_cell_angle_gamma   90.00000000
_symmetry_Int_Tables_number   1
_chemical_formula_structural   Li16Al8Ag8CO
_chemical_formula_sum   'Li16 Al8 Ag8 C1 O1'
_cell_volume   1523.66545918
_cell_formula_units_Z   1
loop_
 _symmetry_equiv_pos_site_id
 _symmetry_equiv_pos_as_xyz
  1  'x, y, z'
loop_
 _atom_site_type_symbol
 _atom_site_label
 _atom_site_symmetry_multiplicity
 _atom_site_fract_x
 _atom_site_fract_y
 _atom_site_fract_z
 _atom_site_occupancy
  Li  Li0  1  0.00000000  0.25000000  0.95802000  1.0
  Li  Li1  1  0.00000000  0.75000000  0.95802000  1.0
  Li  Li2  1  0.25000000  0.00000000  0.95802000  1.0
  Li  Li3  1  0.25000000  0.50000000  0.95802000  1.0
  Li  Li4  1  0.26669000  0.50075000  0.12862000  1.0
  Li  Li5  1  0.26671000  0.99912000  0.12862000  1.0
  Li  Li6  1  0.48909000  0.00159000  0.03853000  1.0
  Li  Li7  1  0.48932000  0.49854000  0.03849000  1.0
  Li  Li8  1  0.50000000  0.00000000  0.87406000  1.0
  Li  Li9  1  0.50000000  0.50000000  0.87406000  1.0
  Li  Li10  1  0.74831000  0.75029000  0.03897000  1.0
  Li  Li11  1  0.75000000  0.25000000  0.87406000  1.0
  Li  Li12  1  0.75000000  0.75000000  0.87406000  1.0
  Li  Li13  1  0.76246000  0.24988000  0.04242000  1.0
  Li  Li14  1  0.98875000  0.74996000  0.12475000  1.0
  Li  Li15  1  0.98903000  0.24999000  0.13047000  1.0
  Al  Al16  1  0.00000000  0.00000000  0.87406000  1.0
  Al  Al17  1  0.00000000  0.50000000  0.87406000  1.0
  Al  Al18  1  0.00722000  0.50134000  0.04164000  1.0
  Al  Al19  1  0.00726000  0.99871000  0.04168000  1.0
  Al  Al20  1  0.50000000  0.25000000  0.95802000  1.0
  Al  Al21  1  0.50000000  0.75000000  0.95802000  1.0
  Al  Al22  1  0.51428000  0.75021000  0.12459000  1.0
  Al  Al23  1  0.52399000  0.24979000  0.12109000  1.0
  Ag  Ag24  1  0.23972000  0.25010000  0.04257000  1.0
  Ag  Ag25  1  0.25000000  0.25000000  0.87406000  1.0
  Ag  Ag26  1  0.25000000  0.75000000  0.87406000  1.0
  Ag  Ag27  1  0.25859000  0.75002000  0.04201000  1.0
  Ag  Ag28  1  0.73426000  0.50326000  0.11785000  1.0
  Ag  Ag29  1  0.73433000  0.99664000  0.11778000  1.0
  Ag  Ag30  1  0.75000000  0.00000000  0.95802000  1.0
  Ag  Ag31  1  0.75000000  0.50000000  0.95802000  1.0
  C  C32  1  0.32602000  0.25001000  0.17575000  1.0
  O  O33  1  0.20301000  0.25005000  0.20955000  1.0
