# generated using pymatgen
data_Li2SbPt
_symmetry_space_group_name_H-M   Pm
_cell_length_a   6.40528000
_cell_length_b   4.52921500
_cell_length_c   26.79380000
_cell_angle_alpha   90.00000000
_cell_angle_beta   90.00000000
_cell_angle_gamma   90.00000000
_symmetry_Int_Tables_number   6
_chemical_formula_structural   Li2SbPt
_chemical_formula_sum   'Li8 Sb4 Pt4'
_cell_volume   777.31199132
_cell_formula_units_Z   4
loop_
 _symmetry_equiv_pos_site_id
 _symmetry_equiv_pos_as_xyz
  1  'x, y, z'
  2  'x, -y, z'
loop_
 _atom_site_type_symbol
 _atom_site_label
 _atom_site_symmetry_multiplicity
 _atom_site_fract_x
 _atom_site_fract_y
 _atom_site_fract_z
 _atom_site_occupancy
  Li  Li0  1  0.00000000  0.50000000  0.04226000  1.0
  Li  Li1  1  0.25000000  0.00000000  0.04226000  1.0
  Li  Li2  1  0.27782000  0.00000000  0.87701000  1.0
  Li  Li3  1  0.48821000  0.00000000  0.96288000  1.0
  Li  Li4  1  0.50000000  0.00000000  0.12678000  1.0
  Li  Li5  1  0.72628500  0.50000000  0.95452000  1.0
  Li  Li6  1  0.75000000  0.50000000  0.12678000  1.0
  Li  Li7  1  0.97318500  0.50000000  0.87478000  1.0
  Sb  Sb8  1  0.00000000  0.00000000  0.12678000  1.0
  Sb  Sb9  1  0.00305500  0.00000000  0.95739000  1.0
  Sb  Sb10  1  0.50000000  0.50000000  0.04226000  1.0
  Sb  Sb11  1  0.50973000  0.50000000  0.86273000  1.0
  Pt  Pt12  1  0.25000000  0.50000000  0.12678000  1.0
  Pt  Pt13  1  0.26140500  0.50000000  0.95013000  1.0
  Pt  Pt14  1  0.72055000  0.00000000  0.88607000  1.0
  Pt  Pt15  1  0.75000000  0.00000000  0.04226000  1.0
