# generated using pymatgen
data_Y8Sc8Ga8Pd8CO
_symmetry_space_group_name_H-M   Pmm2
_cell_length_a   9.48206000
_cell_length_b   9.85606000
_cell_length_c   25.30050000
_cell_angle_alpha   90.00000000
_cell_angle_beta   90.00000000
_cell_angle_gamma   90.00000000
_symmetry_Int_Tables_number   25
_chemical_formula_structural   Y8Sc8Ga8Pd8CO
_chemical_formula_sum   'Y8 Sc8 Ga8 Pd8 C1 O1'
_cell_volume   2364.47726065
_cell_formula_units_Z   1
loop_
 _symmetry_equiv_pos_site_id
 _symmetry_equiv_pos_as_xyz
  1  'x, y, z'
  2  '-x, -y, z'
  3  '-x, y, z'
  4  'x, -y, z'
loop_
 _atom_site_type_symbol
 _atom_site_label
 _atom_site_symmetry_multiplicity
 _atom_site_fract_x
 _atom_site_fract_y
 _atom_site_fract_z
 _atom_site_occupancy
  Y  Y0  2  0.24978000  0.50000000  0.03758000  1.0
  Y  Y1  2  0.24994000  0.00000000  0.03732000  1.0
  Y  Y2  2  0.25000000  0.00000000  0.89525000  1.0
  Y  Y3  2  0.25000000  0.50000000  0.89525000  1.0
  Sc  Sc4  2  0.00000000  0.25000000  0.89525000  1.0
  Sc  Sc5  2  0.00000000  0.25086000  0.03600000  1.0
  Sc  Sc6  2  0.50000000  0.25000000  0.89525000  1.0
  Sc  Sc7  2  0.50000000  0.25043000  0.03754000  1.0
  Ga  Ga8  4  0.25000000  0.25000000  0.96508000  1.0
  Ga  Ga9  4  0.25003000  0.25092000  0.10687000  1.0
  Pd  Pd10  1  0.00000000  0.00000000  0.10049000  1.0
  Pd  Pd11  1  0.00000000  0.00000000  0.96508000  1.0
  Pd  Pd12  1  0.00000000  0.50000000  0.09714000  1.0
  Pd  Pd13  1  0.00000000  0.50000000  0.96508000  1.0
  Pd  Pd14  1  0.50000000  0.00000000  0.09742000  1.0
  Pd  Pd15  1  0.50000000  0.00000000  0.96508000  1.0
  Pd  Pd16  1  0.50000000  0.50000000  0.09679000  1.0
  Pd  Pd17  1  0.50000000  0.50000000  0.96508000  1.0
  C  C18  1  0.00000000  0.00000000  0.18100000  1.0
  O  O19  1  0.00000000  0.00000000  0.22636000  1.0
