# generated using pymatgen
data_Li4In4Pd4Au4CO
_symmetry_space_group_name_H-M   'P 1'
_cell_length_a   7.53916000
_cell_length_b   6.08394000
_cell_length_c   24.55190000
_cell_angle_alpha   90.00000000
_cell_angle_beta   90.00000000
_cell_angle_gamma   90.00000000
_symmetry_Int_Tables_number   1
_chemical_formula_structural   Li4In4Pd4Au4CO
_chemical_formula_sum   'Li4 In4 Pd4 Au4 C1 O1'
_cell_volume   1126.14156738
_cell_formula_units_Z   1
loop_
 _symmetry_equiv_pos_site_id
 _symmetry_equiv_pos_as_xyz
  1  'x, y, z'
loop_
 _atom_site_type_symbol
 _atom_site_label
 _atom_site_symmetry_multiplicity
 _atom_site_fract_x
 _atom_site_fract_y
 _atom_site_fract_z
 _atom_site_occupancy
  Li  Li0  1  0.75086000  0.76050000  0.03517000  1.0
  Li  Li1  1  0.74998000  0.30210000  0.90730000  1.0
  Li  Li2  1  0.24914000  0.76050000  0.03517000  1.0
  Li  Li3  1  0.25002000  0.30210000  0.90730000  1.0
  In  In4  1  0.74921000  0.25381000  0.03811000  1.0
  In  In5  1  0.74998000  0.80210000  0.90730000  1.0
  In  In6  1  0.25079000  0.25381000  0.03811000  1.0
  In  In7  1  0.25002000  0.80210000  0.90730000  1.0
  Pd  Pd8  1  0.00000000  0.50999000  0.08818000  1.0
  Pd  Pd9  1  0.00000000  0.03473000  0.96910000  1.0
  Pd  Pd10  1  0.50000000  0.50650000  0.08978000  1.0
  Pd  Pd11  1  0.50000000  0.03473000  0.96910000  1.0
  Au  Au12  1  0.00000000  0.97195000  0.09560000  1.0
  Au  Au13  1  0.00000000  0.53473000  0.96910000  1.0
  Au  Au14  1  0.50000000  0.96665000  0.09520000  1.0
  Au  Au15  1  0.50000000  0.53473000  0.96910000  1.0
  C  C16  1  0.00000000  0.03367000  0.20175000  1.0
  O  O17  1  0.00000000  0.89494000  0.23298000  1.0
