# generated using pymatgen
data_Ti8Co16Sn8CO
_symmetry_space_group_name_H-M   Pm
_cell_length_a   8.64705000
_cell_length_b   6.11439000
_cell_length_c   26.48530000
_cell_angle_alpha   90.00000000
_cell_angle_beta   90.00000000
_cell_angle_gamma   90.00000000
_symmetry_Int_Tables_number   6
_chemical_formula_structural   Ti8Co16Sn8CO
_chemical_formula_sum   'Ti8 Co16 Sn8 C1 O1'
_cell_volume   1400.31584520
_cell_formula_units_Z   1
loop_
 _symmetry_equiv_pos_site_id
 _symmetry_equiv_pos_as_xyz
  1  'x, y, z'
  2  'x, -y, z'
loop_
 _atom_site_type_symbol
 _atom_site_label
 _atom_site_symmetry_multiplicity
 _atom_site_fract_x
 _atom_site_fract_y
 _atom_site_fract_z
 _atom_site_occupancy
  Ti  Ti0  1  0.00000000  0.00000000  0.87757000  1.0
  Ti  Ti1  1  0.00002000  0.00000000  0.04282000  1.0
  Ti  Ti2  1  0.25000000  0.50000000  0.11935000  1.0
  Ti  Ti3  1  0.25000000  0.50000000  0.95919000  1.0
  Ti  Ti4  1  0.49998000  0.00000000  0.04282000  1.0
  Ti  Ti5  1  0.50000000  0.00000000  0.87757000  1.0
  Ti  Ti6  1  0.75000000  0.50000000  0.11904000  1.0
  Ti  Ti7  1  0.75000000  0.50000000  0.95919000  1.0
  Co  Co8  2  0.00000000  0.25000000  0.95919000  1.0
  Co  Co9  2  0.00020000  0.24021000  0.11579000  1.0
  Co  Co10  2  0.25000000  0.24686000  0.04344000  1.0
  Co  Co11  2  0.25000000  0.25000000  0.87757000  1.0
  Co  Co12  2  0.49980000  0.24022000  0.11579000  1.0
  Co  Co13  2  0.50000000  0.25000000  0.95919000  1.0
  Co  Co14  2  0.75000000  0.24839000  0.04319000  1.0
  Co  Co15  2  0.75000000  0.25000000  0.87757000  1.0
  Sn  Sn16  1  0.00000000  0.50000000  0.87757000  1.0
  Sn  Sn17  1  0.00050000  0.50000000  0.03945000  1.0
  Sn  Sn18  1  0.25000000  0.00000000  0.13345000  1.0
  Sn  Sn19  1  0.25000000  0.00000000  0.95919000  1.0
  Sn  Sn20  1  0.49950000  0.50000000  0.03945000  1.0
  Sn  Sn21  1  0.50000000  0.50000000  0.87757000  1.0
  Sn  Sn22  1  0.75000000  0.00000000  0.13287000  1.0
  Sn  Sn23  1  0.75000000  0.00000000  0.95919000  1.0
  C  C24  1  0.25006000  0.00000000  0.28383000  1.0
  O  O25  1  0.24998000  0.00000000  0.32669000  1.0
