# generated using pymatgen
data_Li8Ga16Pd8CO
_symmetry_space_group_name_H-M   Pm
_cell_length_a   6.24448000
_cell_length_b   8.83103000
_cell_length_c   26.62330000
_cell_angle_alpha   90.00000000
_cell_angle_beta   90.00000000
_cell_angle_gamma   90.00000000
_symmetry_Int_Tables_number   6
_chemical_formula_structural   Li8Ga16Pd8CO
_chemical_formula_sum   'Li8 Ga16 Pd8 C1 O1'
_cell_volume   1468.14694264
_cell_formula_units_Z   1
loop_
 _symmetry_equiv_pos_site_id
 _symmetry_equiv_pos_as_xyz
  1  'x, y, z'
  2  'x, -y, z'
loop_
 _atom_site_type_symbol
 _atom_site_label
 _atom_site_symmetry_multiplicity
 _atom_site_fract_x
 _atom_site_fract_y
 _atom_site_fract_z
 _atom_site_occupancy
  Li  Li0  2  0.50000000  0.24998000  0.95854000  1.0
  Li  Li1  2  0.50541000  0.25138000  0.13443000  1.0
  Li  Li2  1  0.00000000  0.00000000  0.87561000  1.0
  Li  Li3  1  0.00000000  0.50000000  0.87561000  1.0
  Li  Li4  1  0.98914000  0.00000000  0.04118000  1.0
  Li  Li5  1  0.99373000  0.50000000  0.04336000  1.0
  Ga  Ga6  2  0.25000000  0.24998000  0.87561000  1.0
  Ga  Ga7  2  0.25920000  0.25482000  0.04327000  1.0
  Ga  Ga8  2  0.73607000  0.25093000  0.04335000  1.0
  Ga  Ga9  2  0.75000000  0.25002000  0.87561000  1.0
  Ga  Ga10  1  0.22370000  0.00000000  0.12213000  1.0
  Ga  Ga11  1  0.24495000  0.50000000  0.13214000  1.0
  Ga  Ga12  1  0.25000000  0.00000000  0.95854000  1.0
  Ga  Ga13  1  0.25000000  0.50000000  0.95854000  1.0
  Ga  Ga14  1  0.75000000  0.00000000  0.95854000  1.0
  Ga  Ga15  1  0.75000000  0.50000000  0.95854000  1.0
  Ga  Ga16  1  0.75464000  0.50000000  0.13450000  1.0
  Ga  Ga17  1  0.76450000  0.00000000  0.13403000  1.0
  Pd  Pd18  2  0.00000000  0.25002000  0.95854000  1.0
  Pd  Pd19  2  0.99481000  0.25442000  0.11809000  1.0
  Pd  Pd20  1  0.49820000  0.00000000  0.04385000  1.0
  Pd  Pd21  1  0.49999000  0.50000000  0.03918000  1.0
  Pd  Pd22  1  0.50000000  0.00000000  0.87561000  1.0
  Pd  Pd23  1  0.50000000  0.50000000  0.87561000  1.0
  C  C24  1  0.38624000  0.00000000  0.18983000  1.0
  O  O25  1  0.38645000  0.00000000  0.23363000  1.0
