# generated using pymatgen
data_Li4V4Ge4Pd4C
_symmetry_space_group_name_H-M   'P 1'
_cell_length_a   6.38622000
_cell_length_b   5.68832000
_cell_length_c   24.77250000
_cell_angle_alpha   90.00000000
_cell_angle_beta   90.00000000
_cell_angle_gamma   90.00000000
_symmetry_Int_Tables_number   1
_chemical_formula_structural   Li4V4Ge4Pd4C
_chemical_formula_sum   'Li4 V4 Ge4 Pd4 C1'
_cell_volume   899.90721244
_cell_formula_units_Z   1
loop_
 _symmetry_equiv_pos_site_id
 _symmetry_equiv_pos_as_xyz
  1  'x, y, z'
loop_
 _atom_site_type_symbol
 _atom_site_label
 _atom_site_symmetry_multiplicity
 _atom_site_fract_x
 _atom_site_fract_y
 _atom_site_fract_z
 _atom_site_occupancy
  Li  Li0  1  0.72021000  0.50000000  0.96458000  1.0
  Li  Li1  1  0.18657000  0.50000000  0.09633000  1.0
  Li  Li2  1  0.72353000  0.00000000  0.96790000  1.0
  Li  Li3  1  0.18657000  0.00000000  0.09633000  1.0
  V  V4  1  0.22663000  0.50000000  0.96852000  1.0
  V  V5  1  0.68657000  0.50000000  0.09633000  1.0
  V  V6  1  0.23834000  0.00000000  0.96340000  1.0
  V  V7  1  0.68657000  0.00000000  0.09633000  1.0
  Ge  Ge8  1  0.98121000  0.75412000  0.89765000  1.0
  Ge  Ge9  1  0.45771000  0.75000000  0.03211000  1.0
  Ge  Ge10  1  0.98121000  0.24588000  0.89765000  1.0
  Ge  Ge11  1  0.45771000  0.25000000  0.03211000  1.0
  Pd  Pd12  1  0.48598000  0.75182000  0.89842000  1.0
  Pd  Pd13  1  0.95771000  0.75000000  0.03211000  1.0
  Pd  Pd14  1  0.48598000  0.24818000  0.89842000  1.0
  Pd  Pd15  1  0.95771000  0.25000000  0.03211000  1.0
  C  C16  1  0.23525000  0.50000000  0.89288000  1.0
