# generated using pymatgen
data_LiAgGePd
_symmetry_space_group_name_H-M   'P 1'
_cell_length_a   6.28256000
_cell_length_b   4.44244000
_cell_length_c   26.66370000
_cell_angle_alpha   90.00000000
_cell_angle_beta   90.00000000
_cell_angle_gamma   90.00000000
_symmetry_Int_Tables_number   1
_chemical_formula_structural   LiAgGePd
_chemical_formula_sum   'Li4 Ag4 Ge4 Pd4'
_cell_volume   744.18108988
_cell_formula_units_Z   4
loop_
 _symmetry_equiv_pos_site_id
 _symmetry_equiv_pos_as_xyz
  1  'x, y, z'
loop_
 _atom_site_type_symbol
 _atom_site_label
 _atom_site_symmetry_multiplicity
 _atom_site_fract_x
 _atom_site_fract_y
 _atom_site_fract_z
 _atom_site_occupancy
  Li  Li0  1  0.75000000  0.00000000  0.95835000  1.0
  Li  Li1  1  0.25000000  0.50000000  0.87504000  1.0
  Li  Li2  1  0.76598000  0.00000000  0.13296000  1.0
  Li  Li3  1  0.25676000  0.50000000  0.03863000  1.0
  Ag  Ag4  1  0.00000000  0.00000000  0.87504000  1.0
  Ag  Ag5  1  0.50000000  0.50000000  0.95835000  1.0
  Ag  Ag6  1  0.00121000  0.00000000  0.04198000  1.0
  Ag  Ag7  1  0.48090000  0.50000000  0.12657000  1.0
  Ge  Ge8  1  0.25000000  0.00000000  0.95835000  1.0
  Ge  Ge9  1  0.75000000  0.50000000  0.87504000  1.0
  Ge  Ge10  1  0.22841000  0.00000000  0.13016000  1.0
  Ge  Ge11  1  0.74338000  0.50000000  0.04310000  1.0
  Pd  Pd12  1  0.00000000  0.50000000  0.95835000  1.0
  Pd  Pd13  1  0.50000000  0.00000000  0.87504000  1.0
  Pd  Pd14  1  0.01445000  0.50000000  0.11629000  1.0
  Pd  Pd15  1  0.50446000  0.00000000  0.04950000  1.0
