data_image0
_chemical_formula_structural       Sc8Ga8Pd16CO
_chemical_formula_sum              "Sc8 Ga8 Pd16 C1 O1"
_cell_length_a       6.43013
_cell_length_b       9.09357
_cell_length_c       26.8202
_cell_angle_alpha    90
_cell_angle_beta     90
_cell_angle_gamma    90

_space_group_name_H-M_alt    "P 1"
_space_group_IT_number       1

loop_
  _space_group_symop_operation_xyz
  'x, y, z'

loop_
  _atom_site_type_symbol
  _atom_site_label
  _atom_site_symmetry_multiplicity
  _atom_site_fract_x
  _atom_site_fract_y
  _atom_site_fract_z
  _atom_site_occupancy
  Sc  Sc1       1.0  0.00000  0.00000  0.87285  1.0000
  Sc  Sc2       1.0  0.50000  0.25000  0.95762  1.0000
  Sc  Sc3       1.0  0.50000  0.75000  0.95762  1.0000
  Sc  Sc4       1.0  0.00000  0.50000  0.87285  1.0000
  Sc  Sc5       1.0  0.00283  0.49999  0.04164  1.0000
  Sc  Sc6       1.0  0.50259  0.75048  0.12801  1.0000
  Sc  Sc7       1.0  0.50256  0.24951  0.12801  1.0000
  Sc  Sc8       1.0  0.00429  1.00000  0.04247  1.0000
  Ga  Ga1       1.0  0.00000  0.75000  0.95762  1.0000
  Ga  Ga2       1.0  0.50000  0.00000  0.87285  1.0000
  Ga  Ga3       1.0  0.00000  0.25000  0.95762  1.0000
  Ga  Ga4       1.0  0.50000  0.50000  0.87285  1.0000
  Ga  Ga5       1.0  0.99696  0.25186  0.12542  1.0000
  Ga  Ga6       1.0  0.49964  0.50002  0.04527  1.0000
  Ga  Ga7       1.0  0.99698  0.74813  0.12542  1.0000
  Ga  Ga8       1.0  0.49805  1.00000  0.04555  1.0000
  Pd  Pd1       1.0  0.25000  0.00000  0.95762  1.0000
  Pd  Pd2       1.0  0.75000  0.50000  0.95762  1.0000
  Pd  Pd3       1.0  0.75000  0.00000  0.95762  1.0000
  Pd  Pd4       1.0  0.25000  0.50000  0.95762  1.0000
  Pd  Pd5       1.0  0.75000  0.75000  0.87285  1.0000
  Pd  Pd6       1.0  0.25000  0.25000  0.87285  1.0000
  Pd  Pd7       1.0  0.25000  0.75000  0.87285  1.0000
  Pd  Pd8       1.0  0.75000  0.25000  0.87285  1.0000
  Pd  Pd9       1.0  0.23649  0.50000  0.12347  1.0000
  Pd  Pd10      1.0  0.76542  0.99999  0.12172  1.0000
  Pd  Pd11      1.0  0.76354  0.50000  0.12304  1.0000
  Pd  Pd12      1.0  0.23681  1.00000  0.13505  1.0000
  Pd  Pd13      1.0  0.74330  0.25122  0.04232  1.0000
  Pd  Pd14      1.0  0.25967  0.75408  0.04423  1.0000
  Pd  Pd15      1.0  0.25967  0.24590  0.04423  1.0000
  Pd  Pd16      1.0  0.74329  0.74877  0.04232  1.0000
  C   C1        1.0  0.31934  1.00000  0.20533  1.0000
  O   O1        1.0  0.33014  0.99999  0.24845  1.0000
