# generated using pymatgen
data_Sc8Ga8Pd16CO
_symmetry_space_group_name_H-M   'P 1'
_cell_length_a   9.09357000
_cell_length_b   6.43013000
_cell_length_c   26.82020000
_cell_angle_alpha   90.00000000
_cell_angle_beta   90.00000000
_cell_angle_gamma   90.00000000
_symmetry_Int_Tables_number   1
_chemical_formula_structural   Sc8Ga8Pd16CO
_chemical_formula_sum   'Sc8 Ga8 Pd16 C1 O1'
_cell_volume   1568.25318999
_cell_formula_units_Z   1
loop_
 _symmetry_equiv_pos_site_id
 _symmetry_equiv_pos_as_xyz
  1  'x, y, z'
loop_
 _atom_site_type_symbol
 _atom_site_label
 _atom_site_symmetry_multiplicity
 _atom_site_fract_x
 _atom_site_fract_y
 _atom_site_fract_z
 _atom_site_occupancy
  Sc  Sc0  1  0.00000000  0.00000000  0.12715000  1.0
  Sc  Sc1  1  0.25000000  0.50000000  0.04238000  1.0
  Sc  Sc2  1  0.75000000  0.50000000  0.04238000  1.0
  Sc  Sc3  1  0.50000000  0.00000000  0.12715000  1.0
  Sc  Sc4  1  0.50000000  0.00283000  0.95836000  1.0
  Sc  Sc5  1  0.75048000  0.50259000  0.87199000  1.0
  Sc  Sc6  1  0.24952000  0.50259000  0.87199000  1.0
  Sc  Sc7  1  0.00000000  0.00429000  0.95753000  1.0
  Ga  Ga8  1  0.75000000  0.00000000  0.04238000  1.0
  Ga  Ga9  1  0.00000000  0.50000000  0.12715000  1.0
  Ga  Ga10  1  0.25000000  0.00000000  0.04238000  1.0
  Ga  Ga11  1  0.50000000  0.50000000  0.12715000  1.0
  Ga  Ga12  1  0.25186000  0.99696000  0.87458000  1.0
  Ga  Ga13  1  0.50000000  0.49964000  0.95473000  1.0
  Ga  Ga14  1  0.74814000  0.99696000  0.87458000  1.0
  Ga  Ga15  1  0.00000000  0.49805000  0.95445000  1.0
  Pd  Pd16  1  0.00000000  0.25000000  0.04238000  1.0
  Pd  Pd17  1  0.50000000  0.75000000  0.04238000  1.0
  Pd  Pd18  1  0.00000000  0.75000000  0.04238000  1.0
  Pd  Pd19  1  0.50000000  0.25000000  0.04238000  1.0
  Pd  Pd20  1  0.75000000  0.75000000  0.12715000  1.0
  Pd  Pd21  1  0.25000000  0.25000000  0.12715000  1.0
  Pd  Pd22  1  0.75000000  0.25000000  0.12715000  1.0
  Pd  Pd23  1  0.25000000  0.75000000  0.12715000  1.0
  Pd  Pd24  1  0.50000000  0.23649000  0.87653000  1.0
  Pd  Pd25  1  0.00000000  0.76542000  0.87828000  1.0
  Pd  Pd26  1  0.50000000  0.76354000  0.87696000  1.0
  Pd  Pd27  1  0.00000000  0.23681000  0.86495000  1.0
  Pd  Pd28  1  0.25122000  0.74330000  0.95768000  1.0
  Pd  Pd29  1  0.75408000  0.25967000  0.95577000  1.0
  Pd  Pd30  1  0.24592000  0.25967000  0.95577000  1.0
  Pd  Pd31  1  0.74878000  0.74330000  0.95768000  1.0
  C  C32  1  0.00000000  0.31934000  0.79467000  1.0
  O  O33  1  0.00000000  0.33014000  0.75155000  1.0
