# generated using pymatgen
data_Li8Zn8Ag8Ge8CO
_symmetry_space_group_name_H-M   'P 1'
_cell_length_a   8.98822000
_cell_length_b   6.35563000
_cell_length_c   26.74120000
_cell_angle_alpha   90.00000000
_cell_angle_beta   90.00000000
_cell_angle_gamma   90.00000000
_symmetry_Int_Tables_number   1
_chemical_formula_structural   Li8Zn8Ag8Ge8CO
_chemical_formula_sum   'Li8 Zn8 Ag8 Ge8 C1 O1'
_cell_volume   1527.61246111
_cell_formula_units_Z   1
loop_
 _symmetry_equiv_pos_site_id
 _symmetry_equiv_pos_as_xyz
  1  'x, y, z'
loop_
 _atom_site_type_symbol
 _atom_site_label
 _atom_site_symmetry_multiplicity
 _atom_site_fract_x
 _atom_site_fract_y
 _atom_site_fract_z
 _atom_site_occupancy
  Li  Li0  1  0.00000000  0.75000000  0.04201000  1.0
  Li  Li1  1  0.50000000  0.75000000  0.04201000  1.0
  Li  Li2  1  0.25000000  0.25000000  0.12604000  1.0
  Li  Li3  1  0.75000000  0.25000000  0.12604000  1.0
  Li  Li4  1  0.50000000  0.76075000  0.85872000  1.0
  Li  Li5  1  0.00000000  0.77201000  0.86163000  1.0
  Li  Li6  1  0.75511000  0.25240000  0.95703000  1.0
  Li  Li7  1  0.24489000  0.25240000  0.95703000  1.0
  Zn  Zn8  1  0.00000000  0.25000000  0.04201000  1.0
  Zn  Zn9  1  0.50000000  0.25000000  0.04201000  1.0
  Zn  Zn10  1  0.25000000  0.75000000  0.12604000  1.0
  Zn  Zn11  1  0.75000000  0.75000000  0.12604000  1.0
  Zn  Zn12  1  0.50000000  0.23971000  0.86458000  1.0
  Zn  Zn13  1  0.00000000  0.22516000  0.87138000  1.0
  Zn  Zn14  1  0.74363000  0.75052000  0.95599000  1.0
  Zn  Zn15  1  0.25637000  0.75052000  0.95599000  1.0
  Ag  Ag16  1  0.00000000  0.00000000  0.12604000  1.0
  Ag  Ag17  1  0.50000000  0.00000000  0.12604000  1.0
  Ag  Ag18  1  0.75000000  0.50000000  0.04201000  1.0
  Ag  Ag19  1  0.25000000  0.50000000  0.04201000  1.0
  Ag  Ag20  1  0.50000000  0.00625000  0.95179000  1.0
  Ag  Ag21  1  0.00000000  0.98179000  0.95602000  1.0
  Ag  Ag22  1  0.25389000  0.49796000  0.87105000  1.0
  Ag  Ag23  1  0.74611000  0.49796000  0.87105000  1.0
  Ge  Ge24  1  0.25000000  0.00000000  0.04201000  1.0
  Ge  Ge25  1  0.75000000  0.00000000  0.04201000  1.0
  Ge  Ge26  1  0.50000000  0.50000000  0.12604000  1.0
  Ge  Ge27  1  0.00000000  0.50000000  0.12604000  1.0
  Ge  Ge28  1  0.74395000  0.99879000  0.87020000  1.0
  Ge  Ge29  1  0.25605000  0.99879000  0.87020000  1.0
  Ge  Ge30  1  0.00000000  0.51244000  0.94836000  1.0
  Ge  Ge31  1  0.50000000  0.50232000  0.95167000  1.0
  C  C32  1  0.00000000  0.26910000  0.79141000  1.0
  O  O33  1  0.00000000  0.24760000  0.74884000  1.0
