# generated using pymatgen
data_Cr4Ga4Fe8CO
_symmetry_space_group_name_H-M   'P 1'
_cell_length_a   6.89656000
_cell_length_b   6.89656000
_cell_length_c   25.17240000
_cell_angle_alpha   90.00000000
_cell_angle_beta   90.00000000
_cell_angle_gamma   90.00000000
_symmetry_Int_Tables_number   1
_chemical_formula_structural   Cr4Ga4Fe8CO
_chemical_formula_sum   'Cr4 Ga4 Fe8 C1 O1'
_cell_volume   1197.26327771
_cell_formula_units_Z   1
loop_
 _symmetry_equiv_pos_site_id
 _symmetry_equiv_pos_as_xyz
  1  'x, y, z'
loop_
 _atom_site_type_symbol
 _atom_site_label
 _atom_site_symmetry_multiplicity
 _atom_site_fract_x
 _atom_site_fract_y
 _atom_site_fract_z
 _atom_site_occupancy
  Cr  Cr0  1  0.75000000  0.25000000  0.89726000  1
  Cr  Cr1  1  0.25000000  0.75000000  0.89726000  1
  Cr  Cr2  1  0.75000000  0.75000000  0.03425000  1
  Cr  Cr3  1  0.25000000  0.25000000  0.03425000  1
  Ga  Ga4  1  0.75000000  0.25000000  0.03425000  1
  Ga  Ga5  1  0.75000000  0.75000000  0.89726000  1
  Ga  Ga6  1  0.25000000  0.25000000  0.89726000  1
  Ga  Ga7  1  0.25000000  0.75000000  0.03425000  1
  Fe  Fe8  1  0.50000000  0.50000000  0.96575000  1
  Fe  Fe9  1  0.00000000  0.00000000  0.10274000  1
  Fe  Fe10  1  0.50000000  0.00000000  0.96575000  1
  Fe  Fe11  1  0.00000000  0.50000000  0.10274000  1
  Fe  Fe12  1  0.00000000  0.00000000  0.96575000  1
  Fe  Fe13  1  0.50000000  0.50000000  0.10274000  1
  Fe  Fe14  1  0.00000000  0.50000000  0.96575000  1
  Fe  Fe15  1  0.50000000  0.00000000  0.10274000  1
  C  C16  1  0.50000000  0.50000000  0.17822000  1
  O  O17  1  0.50000000  0.50000000  0.22390000  1
