# generated using pymatgen
data_Cr4Ga4Fe8CO
_symmetry_space_group_name_H-M   Cmm2
_cell_length_a   9.75320869
_cell_length_b   9.75320869
_cell_length_c   25.17240000
_cell_angle_alpha   90.00000000
_cell_angle_beta   90.00000000
_cell_angle_gamma   90.00000000
_symmetry_Int_Tables_number   35
_chemical_formula_structural   Cr4Ga4Fe8CO
_chemical_formula_sum   'Cr8 Ga8 Fe16 C2 O2'
_cell_volume   2394.52655541
_cell_formula_units_Z   2
loop_
 _symmetry_equiv_pos_site_id
 _symmetry_equiv_pos_as_xyz
  1  'x, y, z'
  2  '-x, -y, z'
  3  '-x, y, z'
  4  'x, -y, z'
  5  'x+1/2, y+1/2, z'
  6  '-x+1/2, -y+1/2, z'
  7  '-x+1/2, y+1/2, z'
  8  'x+1/2, -y+1/2, z'
loop_
 _atom_site_type_symbol
 _atom_site_label
 _atom_site_symmetry_multiplicity
 _atom_site_fract_x
 _atom_site_fract_y
 _atom_site_fract_z
 _atom_site_occupancy
  Cr  Cr0  4  0.00000000  0.25000000  0.89726000  1.0
  Cr  Cr1  4  0.25000000  0.00000000  0.03425000  1.0
  Ga  Ga2  4  0.00000000  0.25000000  0.03425000  1.0
  Ga  Ga3  4  0.25000000  0.00000000  0.89726000  1.0
  Fe  Fe4  4  0.25000000  0.25000000  0.10274000  1.0
  Fe  Fe5  4  0.25000000  0.25000000  0.96575000  1.0
  Fe  Fe6  2  0.00000000  0.00000000  0.10274000  1.0
  Fe  Fe7  2  0.00000000  0.00000000  0.96575000  1.0
  Fe  Fe8  2  0.00000000  0.50000000  0.10274000  1.0
  Fe  Fe9  2  0.00000000  0.50000000  0.96575000  1.0
  C  C10  2  0.00000000  0.50000000  0.17822000  1.0
  O  O11  2  0.00000000  0.50000000  0.22390000  1.0
