# generated using pymatgen
data_Ga8Ir8C
_symmetry_space_group_name_H-M   P4mm
_cell_length_a   6.13393000
_cell_length_b   6.13393000
_cell_length_c   24.60040000
_cell_angle_alpha   90.00000000
_cell_angle_beta   90.00000000
_cell_angle_gamma   90.00000000
_symmetry_Int_Tables_number   99
_chemical_formula_structural   Ga8Ir8C
_chemical_formula_sum   'Ga8 Ir8 C1'
_cell_volume   925.59244226
_cell_formula_units_Z   1
loop_
 _symmetry_equiv_pos_site_id
 _symmetry_equiv_pos_as_xyz
  1  'x, y, z'
  2  '-y, x, z'
  3  '-x, -y, z'
  4  'y, -x, z'
  5  '-x, y, z'
  6  'y, x, z'
  7  'x, -y, z'
  8  '-y, -x, z'
loop_
 _atom_site_type_symbol
 _atom_site_label
 _atom_site_symmetry_multiplicity
 _atom_site_fract_x
 _atom_site_fract_y
 _atom_site_fract_z
 _atom_site_occupancy
  Ga  Ga0  4  0.25000000  0.25000000  0.07893000  1.0
  Ga  Ga1  4  0.25000000  0.25000000  0.95426000  1.0
  Ir  Ir2  2  0.00000000  0.50000000  0.01659000  1.0
  Ir  Ir3  2  0.00000000  0.50000000  0.89192000  1.0
  Ir  Ir4  1  0.00000000  0.00000000  0.01659000  1.0
  Ir  Ir5  1  0.00000000  0.00000000  0.89192000  1.0
  Ir  Ir6  1  0.50000000  0.50000000  0.01659000  1.0
  Ir  Ir7  1  0.50000000  0.50000000  0.89192000  1.0
  C  C8  1  0.00000000  0.00000000  0.11145000  1.0
