# generated using pymatgen
data_Li4Mg4In4Ge4C
_symmetry_space_group_name_H-M   'P 1'
_cell_length_a   5.94975000
_cell_length_b   8.75068000
_cell_length_c   24.46230000
_cell_angle_alpha   90.00000000
_cell_angle_beta   90.00000000
_cell_angle_gamma   90.00000000
_symmetry_Int_Tables_number   1
_chemical_formula_structural   Li4Mg4In4Ge4C
_chemical_formula_sum   'Li4 Mg4 In4 Ge4 C1'
_cell_volume   1273.61395278
_cell_formula_units_Z   1
loop_
 _symmetry_equiv_pos_site_id
 _symmetry_equiv_pos_as_xyz
  1  'x, y, z'
loop_
 _atom_site_type_symbol
 _atom_site_label
 _atom_site_symmetry_multiplicity
 _atom_site_fract_x
 _atom_site_fract_y
 _atom_site_fract_z
 _atom_site_occupancy
  Li  Li0  1  0.75025000  0.25000000  0.96960000  1.0
  Li  Li1  1  0.22489000  0.21424000  0.11050000  1.0
  Li  Li2  1  0.75025000  0.75000000  0.96960000  1.0
  Li  Li3  1  0.22544000  0.78633000  0.11049000  1.0
  Mg  Mg4  1  0.50000000  0.00000000  0.90879000  1.0
  Mg  Mg5  1  0.03184000  0.00006000  0.03791000  1.0
  Mg  Mg6  1  0.50000000  0.50000000  0.90879000  1.0
  Mg  Mg7  1  0.97697000  0.50009000  0.03239000  1.0
  In  In8  1  0.25025000  0.25000000  0.96960000  1.0
  In  In9  1  0.70286000  0.21269000  0.11261000  1.0
  In  In10  1  0.25025000  0.75000000  0.96960000  1.0
  In  In11  1  0.70342000  0.78681000  0.11259000  1.0
  Ge  Ge12  1  0.00000000  0.00000000  0.90879000  1.0
  Ge  Ge13  1  0.56029000  0.99983000  0.02302000  1.0
  Ge  Ge14  1  0.00000000  0.50000000  0.90879000  1.0
  Ge  Ge15  1  0.47547000  0.50038000  0.05550000  1.0
  C  C16  1  0.36726000  0.00050000  0.08596000  1.0
