# generated using pymatgen
data_Li4Y4In4Ge4CO
_symmetry_space_group_name_H-M   Pm
_cell_length_a   6.33235000
_cell_length_b   8.49364000
_cell_length_c   24.73290000
_cell_angle_alpha   90.00000000
_cell_angle_beta   90.00000000
_cell_angle_gamma   90.00000000
_symmetry_Int_Tables_number   6
_chemical_formula_structural   Li4Y4In4Ge4CO
_chemical_formula_sum   'Li4 Y4 In4 Ge4 C1 O1'
_cell_volume   1330.25163765
_cell_formula_units_Z   1
loop_
 _symmetry_equiv_pos_site_id
 _symmetry_equiv_pos_as_xyz
  1  'x, y, z'
  2  'x, -y, z'
loop_
 _atom_site_type_symbol
 _atom_site_label
 _atom_site_symmetry_multiplicity
 _atom_site_fract_x
 _atom_site_fract_y
 _atom_site_fract_z
 _atom_site_occupancy
  Li  Li0  2  0.07327000  0.24828000  0.97251000  1.0
  Li  Li1  2  0.50000000  0.25000000  0.09568000  1.0
  Y  Y2  1  0.40011000  0.50000000  0.90262000  1.0
  Y  Y3  1  0.40849000  0.00000000  0.90145000  1.0
  Y  Y4  1  0.77071000  0.00000000  0.03189000  1.0
  Y  Y5  1  0.77071000  0.50000000  0.03189000  1.0
  In  In6  1  0.27071000  0.00000000  0.03189000  1.0
  In  In7  1  0.27071000  0.50000000  0.03189000  1.0
  In  In8  1  0.90562000  0.50000000  0.89486000  1.0
  In  In9  1  0.90773000  0.00000000  0.89189000  1.0
  Ge  Ge10  2  0.00000000  0.25000000  0.09568000  1.0
  Ge  Ge11  2  0.63274000  0.24905000  0.95220000  1.0
  C  C12  1  0.32141000  0.50000000  0.80378000  1.0
  O  O13  1  0.28810000  0.50000000  0.75810000  1.0
