# generated using pymatgen
data_Si8Ni24CO
_symmetry_space_group_name_H-M   Pmm2
_cell_length_a   7.08204000
_cell_length_b   7.08204000
_cell_length_c   25.31150000
_cell_angle_alpha   90.00000000
_cell_angle_beta   90.00000000
_cell_angle_gamma   90.00000000
_symmetry_Int_Tables_number   25
_chemical_formula_structural   Si8Ni24CO
_chemical_formula_sum   'Si8 Ni24 C1 O1'
_cell_volume   1269.50563705
_cell_formula_units_Z   1
loop_
 _symmetry_equiv_pos_site_id
 _symmetry_equiv_pos_as_xyz
  1  'x, y, z'
  2  '-x, -y, z'
  3  '-x, y, z'
  4  'x, -y, z'
loop_
 _atom_site_type_symbol
 _atom_site_label
 _atom_site_symmetry_multiplicity
 _atom_site_fract_x
 _atom_site_fract_y
 _atom_site_fract_z
 _atom_site_occupancy
  Si  Si0  2  0.25000000  0.00000000  0.03497000  1.0
  Si  Si1  2  0.25000000  0.00000000  0.89508000  1.0
  Si  Si2  2  0.25000000  0.50000000  0.03497000  1.0
  Si  Si3  2  0.25000000  0.50000000  0.89508000  1.0
  Ni  Ni4  4  0.25000000  0.25000000  0.10492000  1.0
  Ni  Ni5  4  0.25000000  0.25000000  0.96503000  1.0
  Ni  Ni6  2  0.00000000  0.25000000  0.03497000  1.0
  Ni  Ni7  2  0.00000000  0.25000000  0.89508000  1.0
  Ni  Ni8  2  0.50000000  0.25000000  0.03497000  1.0
  Ni  Ni9  2  0.50000000  0.25000000  0.89508000  1.0
  Ni  Ni10  1  0.00000000  0.00000000  0.10492000  1.0
  Ni  Ni11  1  0.00000000  0.00000000  0.96503000  1.0
  Ni  Ni12  1  0.00000000  0.50000000  0.10492000  1.0
  Ni  Ni13  1  0.00000000  0.50000000  0.96503000  1.0
  Ni  Ni14  1  0.50000000  0.00000000  0.10492000  1.0
  Ni  Ni15  1  0.50000000  0.00000000  0.96503000  1.0
  Ni  Ni16  1  0.50000000  0.50000000  0.10492000  1.0
  Ni  Ni17  1  0.50000000  0.50000000  0.96503000  1.0
  C  C18  1  0.00000000  0.00000000  0.17999000  1.0
  O  O19  1  0.00000000  0.00000000  0.22542000  1.0
