# generated using pymatgen
data_YMnInPd
_symmetry_space_group_name_H-M   Pmm2
_cell_length_a   4.84986156
_cell_length_b   4.84986156
_cell_length_c   25.14410000
_cell_angle_alpha   90.00000000
_cell_angle_beta   90.00000000
_cell_angle_gamma   90.00000000
_symmetry_Int_Tables_number   25
_chemical_formula_structural   YMnInPd
_chemical_formula_sum   'Y2 Mn2 In2 Pd2'
_cell_volume   591.41832860
_cell_formula_units_Z   2
loop_
 _symmetry_equiv_pos_site_id
 _symmetry_equiv_pos_as_xyz
  1  'x, y, z'
  2  '-x, -y, z'
  3  '-x, y, z'
  4  'x, -y, z'
loop_
 _atom_site_type_symbol
 _atom_site_label
 _atom_site_symmetry_multiplicity
 _atom_site_fract_x
 _atom_site_fract_y
 _atom_site_fract_z
 _atom_site_occupancy
  Y  Y0  1  0.00000000  0.00000000  0.96590000  1.0
  Y  Y1  1  0.50000000  0.50000000  0.10229000  1.0
  Mn  Mn2  1  0.00000000  0.50000000  0.03410000  1.0
  Mn  Mn3  1  0.50000000  0.00000000  0.89771000  1.0
  In  In4  1  0.00000000  0.00000000  0.10229000  1.0
  In  In5  1  0.50000000  0.50000000  0.96590000  1.0
  Pd  Pd6  1  0.00000000  0.50000000  0.89771000  1.0
  Pd  Pd7  1  0.50000000  0.00000000  0.03410000  1.0
