data_image0
_chemical_formula_structural       Li16Ga8Pd8CO
_chemical_formula_sum              "Li16 Ga8 Pd8 C1 O1"
_cell_length_a       6.14873
_cell_length_b       8.69561
_cell_length_c       26.5217
_cell_angle_alpha    90
_cell_angle_beta     90
_cell_angle_gamma    90

_space_group_name_H-M_alt    "P 1"
_space_group_IT_number       1

loop_
  _space_group_symop_operation_xyz
  'x, y, z'

loop_
  _atom_site_type_symbol
  _atom_site_label
  _atom_site_symmetry_multiplicity
  _atom_site_fract_x
  _atom_site_fract_y
  _atom_site_fract_z
  _atom_site_occupancy
  Li  Li1       1.0  0.00000  0.75000  0.95902  1.0000
  Li  Li2       1.0  0.50000  0.00000  0.87705  1.0000
  Li  Li3       1.0  0.00000  0.25000  0.95902  1.0000
  Li  Li4       1.0  0.50000  0.50000  0.87705  1.0000
  Li  Li5       1.0  0.25000  0.25000  0.87705  1.0000
  Li  Li6       1.0  0.25000  0.75000  0.87705  1.0000
  Li  Li7       1.0  0.75000  0.50000  0.95902  1.0000
  Li  Li8       1.0  0.75000  0.00000  0.95902  1.0000
  Li  Li9       1.0  0.00532  0.24800  0.12531  1.0000
  Li  Li10      1.0  0.50544  0.50000  0.03910  1.0000
  Li  Li11      1.0  0.00532  0.75200  0.12531  1.0000
  Li  Li12      1.0  0.50763  0.00000  0.03880  1.0000
  Li  Li13      1.0  0.24448  0.74942  0.03746  1.0000
  Li  Li14      1.0  0.24448  0.25058  0.03746  1.0000
  Li  Li15      1.0  0.72800  0.00000  0.12626  1.0000
  Li  Li16      1.0  0.72566  0.50000  0.12730  1.0000
  Ga  Ga1       1.0  0.25000  0.00000  0.95902  1.0000
  Ga  Ga2       1.0  0.25000  0.50000  0.95902  1.0000
  Ga  Ga3       1.0  0.75000  0.75000  0.87705  1.0000
  Ga  Ga4       1.0  0.75000  0.25000  0.87705  1.0000
  Ga  Ga5       1.0  0.25472  0.50000  0.12256  1.0000
  Ga  Ga6       1.0  0.26063  0.00000  0.12114  1.0000
  Ga  Ga7       1.0  0.75494  0.24977  0.04198  1.0000
  Ga  Ga8       1.0  0.75494  0.75023  0.04198  1.0000
  Pd  Pd1       1.0  0.00000  0.00000  0.87705  1.0000
  Pd  Pd2       1.0  0.50000  0.25000  0.95902  1.0000
  Pd  Pd3       1.0  0.50000  0.75000  0.95902  1.0000
  Pd  Pd4       1.0  0.00000  0.50000  0.87705  1.0000
  Pd  Pd5       1.0  0.99582  0.50000  0.04290  1.0000
  Pd  Pd6       1.0  0.47638  0.74786  0.11444  1.0000
  Pd  Pd7       1.0  0.47637  0.25214  0.11444  1.0000
  Pd  Pd8       1.0  0.99754  0.00000  0.04256  1.0000
  C   C1        1.0  0.76538  0.00001  0.20353  1.0000
  O   O1        1.0  0.76177  0.00001  0.24667  1.0000
