# generated using pymatgen
data_Li16Ga8Pd8CO
_symmetry_space_group_name_H-M   'P 1'
_cell_length_a   8.69561000
_cell_length_b   6.14873000
_cell_length_c   26.52170000
_cell_angle_alpha   90.00000000
_cell_angle_beta   90.00000000
_cell_angle_gamma   90.00000000
_symmetry_Int_Tables_number   1
_chemical_formula_structural   Li16Ga8Pd8CO
_chemical_formula_sum   'Li16 Ga8 Pd8 C1 O1'
_cell_volume   1418.03462199
_cell_formula_units_Z   1
loop_
 _symmetry_equiv_pos_site_id
 _symmetry_equiv_pos_as_xyz
  1  'x, y, z'
loop_
 _atom_site_type_symbol
 _atom_site_label
 _atom_site_symmetry_multiplicity
 _atom_site_fract_x
 _atom_site_fract_y
 _atom_site_fract_z
 _atom_site_occupancy
  Li  Li0  1  0.74999000  1.00000000  0.04098000  1.0
  Li  Li1  1  0.00000000  0.50000000  0.12295000  1.0
  Li  Li2  1  0.25001000  1.00000000  0.04098000  1.0
  Li  Li3  1  0.50000000  0.50000000  0.12295000  1.0
  Li  Li4  1  0.24999000  0.25000000  0.12295000  1.0
  Li  Li5  1  0.75001000  0.25000000  0.12295000  1.0
  Li  Li6  1  0.50000000  0.75000000  0.04098000  1.0
  Li  Li7  1  0.00000000  0.75000000  0.04098000  1.0
  Li  Li8  1  0.24799000  0.00532000  0.87469000  1.0
  Li  Li9  1  0.50000000  0.50544000  0.96090000  1.0
  Li  Li10  1  0.75201000  0.00532000  0.87469000  1.0
  Li  Li11  1  0.00000000  0.50763000  0.96120000  1.0
  Li  Li12  1  0.74941000  0.24448000  0.96254000  1.0
  Li  Li13  1  0.25059000  0.24448000  0.96254000  1.0
  Li  Li14  1  0.00000000  0.72800000  0.87374000  1.0
  Li  Li15  1  0.50000000  0.72566000  0.87270000  1.0
  Ga  Ga16  1  0.00000000  0.25000000  0.04098000  1.0
  Ga  Ga17  1  0.50000000  0.25000000  0.04098000  1.0
  Ga  Ga18  1  0.74999000  0.75000000  0.12295000  1.0
  Ga  Ga19  1  0.25001000  0.75000000  0.12295000  1.0
  Ga  Ga20  1  0.50000000  0.25472000  0.87744000  1.0
  Ga  Ga21  1  0.00000000  0.26063000  0.87886000  1.0
  Ga  Ga22  1  0.24976000  0.75494000  0.95802000  1.0
  Ga  Ga23  1  0.75024000  0.75494000  0.95802000  1.0
  Pd  Pd24  1  0.00000000  0.00000000  0.12295000  1.0
  Pd  Pd25  1  0.24999000  0.50000000  0.04098000  1.0
  Pd  Pd26  1  0.75001000  0.50000000  0.04098000  1.0
  Pd  Pd27  1  0.50000000  1.00000000  0.12295000  1.0
  Pd  Pd28  1  0.50000000  0.99582000  0.95710000  1.0
  Pd  Pd29  1  0.74785000  0.47638000  0.88556000  1.0
  Pd  Pd30  1  0.25215000  0.47638000  0.88556000  1.0
  Pd  Pd31  1  0.00000000  0.99754000  0.95744000  1.0
  C  C32  1  0.00000000  0.76538000  0.79647000  1.0
  O  O33  1  0.00000000  0.76177000  0.75333000  1.0
