# generated using pymatgen
data_Li16Ga8Pd8CO
_symmetry_space_group_name_H-M   Pm
_cell_length_a   6.14873000
_cell_length_b   8.69561000
_cell_length_c   26.52170000
_cell_angle_alpha   90.00000000
_cell_angle_beta   90.00000000
_cell_angle_gamma   90.00000000
_symmetry_Int_Tables_number   6
_chemical_formula_structural   Li16Ga8Pd8CO
_chemical_formula_sum   'Li16 Ga8 Pd8 C1 O1'
_cell_volume   1418.03462199
_cell_formula_units_Z   1
loop_
 _symmetry_equiv_pos_site_id
 _symmetry_equiv_pos_as_xyz
  1  'x, y, z'
  2  'x, -y, z'
loop_
 _atom_site_type_symbol
 _atom_site_label
 _atom_site_symmetry_multiplicity
 _atom_site_fract_x
 _atom_site_fract_y
 _atom_site_fract_z
 _atom_site_occupancy
  Li  Li0  2  -0.00000000  0.25001000  0.95902000  1.0
  Li  Li1  2  0.00532000  0.24799000  0.12531000  1.0
  Li  Li2  2  0.24448000  0.25059000  0.03746000  1.0
  Li  Li3  2  0.25000000  0.24999000  0.87705000  1.0
  Li  Li4  1  0.50000000  0.00000000  0.87705000  1.0
  Li  Li5  1  0.50000000  0.50000000  0.87705000  1.0
  Li  Li6  1  0.50544000  0.50000000  0.03910000  1.0
  Li  Li7  1  0.50763000  0.00000000  0.03880000  1.0
  Li  Li8  1  0.72566000  0.50000000  0.12730000  1.0
  Li  Li9  1  0.72800000  0.00000000  0.12626000  1.0
  Li  Li10  1  0.75000000  0.00000000  0.95902000  1.0
  Li  Li11  1  0.75000000  0.50000000  0.95902000  1.0
  Ga  Ga12  2  0.75000000  0.25001000  0.87705000  1.0
  Ga  Ga13  2  0.75494000  0.24976000  0.04198000  1.0
  Ga  Ga14  1  0.25000000  0.00000000  0.95902000  1.0
  Ga  Ga15  1  0.25000000  0.50000000  0.95902000  1.0
  Ga  Ga16  1  0.25472000  0.50000000  0.12256000  1.0
  Ga  Ga17  1  0.26063000  0.00000000  0.12114000  1.0
  Pd  Pd18  2  0.47638000  0.25215000  0.11444000  1.0
  Pd  Pd19  2  0.50000000  0.24999000  0.95902000  1.0
  Pd  Pd20  1  -0.00000000  0.50000000  0.87705000  1.0
  Pd  Pd21  1  0.00000000  0.00000000  0.87705000  1.0
  Pd  Pd22  1  0.99582000  0.50000000  0.04290000  1.0
  Pd  Pd23  1  0.99754000  0.00000000  0.04256000  1.0
  C  C24  1  0.76538000  0.00000000  0.20353000  1.0
  O  O25  1  0.76177000  0.00000000  0.24667000  1.0
