# generated using pymatgen
data_YInCuSn
_symmetry_space_group_name_H-M   'P 1'
_cell_length_a   6.35598000
_cell_length_b   4.42370000
_cell_length_c   24.76400000
_cell_angle_alpha   90.00000000
_cell_angle_beta   90.00000000
_cell_angle_gamma   90.00000000
_symmetry_Int_Tables_number   1
_chemical_formula_structural   YInCuSn
_chemical_formula_sum   'Y2 In2 Cu2 Sn2'
_cell_volume   696.28811825
_cell_formula_units_Z   2
loop_
 _symmetry_equiv_pos_site_id
 _symmetry_equiv_pos_as_xyz
  1  'x, y, z'
loop_
 _atom_site_type_symbol
 _atom_site_label
 _atom_site_symmetry_multiplicity
 _atom_site_fract_x
 _atom_site_fract_y
 _atom_site_fract_z
 _atom_site_occupancy
  Y  Y0  1  0.55565500  0.00000000  0.91168000  1.0
  Y  Y1  1  0.98234000  0.00000000  0.03206000  1.0
  In  In2  1  0.32287000  0.50000000  0.97671000  1.0
  In  In3  1  0.72350000  0.50000000  0.09619000  1.0
  Cu  Cu4  1  0.08240000  0.00000000  0.92219000  1.0
  Cu  Cu5  1  0.48234000  0.00000000  0.03206000  1.0
  Sn  Sn6  1  0.85077000  0.50000000  0.94166000  1.0
  Sn  Sn7  1  0.22350000  0.50000000  0.09619000  1.0
