# generated using pymatgen
data_Nb4Ru12C
_symmetry_space_group_name_H-M   'P 1'
_cell_length_a   5.52327000
_cell_length_b   7.81108000
_cell_length_c   24.14240000
_cell_angle_alpha   90.00000000
_cell_angle_beta   90.00000000
_cell_angle_gamma   90.00000000
_symmetry_Int_Tables_number   1
_chemical_formula_structural   Nb4Ru12C
_chemical_formula_sum   'Nb4 Ru12 C1'
_cell_volume   1041.56841298
_cell_formula_units_Z   1
loop_
 _symmetry_equiv_pos_site_id
 _symmetry_equiv_pos_as_xyz
  1  'x, y, z'
loop_
 _atom_site_type_symbol
 _atom_site_label
 _atom_site_symmetry_multiplicity
 _atom_site_fract_x
 _atom_site_fract_y
 _atom_site_fract_z
 _atom_site_occupancy
  Nb  Nb0  1  0.00000000  0.00000000  0.08579000  1.0
  Nb  Nb1  1  0.50000000  0.00000000  0.97881000  1.0
  Nb  Nb2  1  0.00000000  0.50000000  0.08579000  1.0
  Nb  Nb3  1  0.50000000  0.50000000  0.97592000  1.0
  Ru  Ru4  1  0.50000000  0.00000000  0.08579000  1.0
  Ru  Ru5  1  0.75000000  0.25000000  0.02860000  1.0
  Ru  Ru6  1  0.25000000  0.25000000  0.02860000  1.0
  Ru  Ru7  1  0.00000000  0.00000000  0.98189000  1.0
  Ru  Ru8  1  0.24588000  0.21310000  0.91845000  1.0
  Ru  Ru9  1  0.75412000  0.21310000  0.91845000  1.0
  Ru  Ru10  1  0.50000000  0.50000000  0.08579000  1.0
  Ru  Ru11  1  0.75000000  0.75000000  0.02860000  1.0
  Ru  Ru12  1  0.25000000  0.75000000  0.02860000  1.0
  Ru  Ru13  1  0.00000000  0.50000000  0.97005000  1.0
  Ru  Ru14  1  0.24588000  0.78690000  0.91845000  1.0
  Ru  Ru15  1  0.75412000  0.78690000  0.91845000  1.0
  C  C16  1  0.00000000  0.00000000  0.89831000  1.0
