# generated using pymatgen
data_Li8Sn4Ge4C
_symmetry_space_group_name_H-M   Cm
_cell_length_a   9.79433402
_cell_length_b   9.79433402
_cell_length_c   25.19420000
_cell_angle_alpha   90.00000000
_cell_angle_beta   90.00000000
_cell_angle_gamma   90.00000000
_symmetry_Int_Tables_number   8
_chemical_formula_structural   Li8Sn4Ge4C
_chemical_formula_sum   'Li16 Sn8 Ge8 C2'
_cell_volume   2416.85387817
_cell_formula_units_Z   2
loop_
 _symmetry_equiv_pos_site_id
 _symmetry_equiv_pos_as_xyz
  1  'x, y, z'
  2  'x, -y, z'
  3  'x+1/2, y+1/2, z'
  4  'x+1/2, -y+1/2, z'
loop_
 _atom_site_type_symbol
 _atom_site_label
 _atom_site_symmetry_multiplicity
 _atom_site_fract_x
 _atom_site_fract_y
 _atom_site_fract_z
 _atom_site_occupancy
  Li  Li0  4  0.25000000  0.25000000  0.89692000  1.0
  Li  Li1  4  0.49998000  0.28803000  0.09975000  1.0
  Li  Li2  2  -0.00000000  0.50000000  0.02497000  1.0
  Li  Li3  2  0.00000000  0.00000000  0.02173000  1.0
  Li  Li4  2  0.25000000  0.50000000  0.96564000  1.0
  Li  Li5  2  0.25000000  0.00000000  0.96564000  1.0
  Sn  Sn6  4  0.25001000  0.24997000  0.03231000  1.0
  Sn  Sn7  2  -0.00000000  0.50000000  0.89692000  1.0
  Sn  Sn8  2  0.00000000  0.00000000  0.89692000  1.0
  Ge  Ge9  4  -0.00000000  0.25000000  0.96564000  1.0
  Ge  Ge10  2  0.19428000  0.00000000  0.10845000  1.0
  Ge  Ge11  2  0.30557000  0.50000000  0.10839000  1.0
  C  C12  2  0.49994000  0.50000000  0.10596000  1.0
