data_image0
_chemical_formula_structural       Sc4In4Ge4Pd4CO
_chemical_formula_sum              "Sc4 In4 Ge4 Pd4 C1 O1"
_cell_length_a       6.05174
_cell_length_b       8.3806
_cell_length_c       24.4674
_cell_angle_alpha    90
_cell_angle_beta     90
_cell_angle_gamma    90

_space_group_name_H-M_alt    "P 1"
_space_group_IT_number       1

loop_
  _space_group_symop_operation_xyz
  'x, y, z'

loop_
  _atom_site_type_symbol
  _atom_site_label
  _atom_site_symmetry_multiplicity
  _atom_site_fract_x
  _atom_site_fract_y
  _atom_site_fract_z
  _atom_site_occupancy
  Sc  Sc1       1.0  0.20418  0.24997  0.02614  1.0000
  Sc  Sc2       1.0  0.61751  0.25000  0.90871  1.0000
  Sc  Sc3       1.0  0.20417  0.75003  0.02613  1.0000
  Sc  Sc4       1.0  0.61751  0.75000  0.90871  1.0000
  In  In1       1.0  0.48972  0.00001  0.09319  1.0000
  In  In2       1.0  0.91167  0.00000  0.96957  1.0000
  In  In3       1.0  0.49108  0.49998  0.09530  1.0000
  In  In4       1.0  0.91167  0.50000  0.96957  1.0000
  Ge  Ge1       1.0  0.96141  0.00003  0.08446  1.0000
  Ge  Ge2       1.0  0.41167  0.00000  0.96957  1.0000
  Ge  Ge3       1.0  0.96448  0.49999  0.08377  1.0000
  Ge  Ge4       1.0  0.41167  0.50000  0.96957  1.0000
  Pd  Pd1       1.0  0.70371  0.25112  0.03362  1.0000
  Pd  Pd2       1.0  0.11751  0.25000  0.90871  1.0000
  Pd  Pd3       1.0  0.70376  0.74887  0.03365  1.0000
  Pd  Pd4       1.0  0.11751  0.75000  0.90871  1.0000
  C   C1        1.0  0.50482  0.99999  0.23697  1.0000
  O   O1        1.0  0.49750  0.99994  0.28331  1.0000
