# generated using pymatgen
data_Li8Y8Ge8Pb8C
_symmetry_space_group_name_H-M   Pmm2
_cell_length_a   8.55406000
_cell_length_b   8.65500000
_cell_length_c   27.39600000
_cell_angle_alpha   90.00000000
_cell_angle_beta   90.00000000
_cell_angle_gamma   90.00000000
_symmetry_Int_Tables_number   25
_chemical_formula_structural   Li8Y8Ge8Pb8C
_chemical_formula_sum   'Li8 Y8 Ge8 Pb8 C1'
_cell_volume   2028.27352526
_cell_formula_units_Z   1
loop_
 _symmetry_equiv_pos_site_id
 _symmetry_equiv_pos_as_xyz
  1  'x, y, z'
  2  '-x, -y, z'
  3  '-x, y, z'
  4  'x, -y, z'
loop_
 _atom_site_type_symbol
 _atom_site_label
 _atom_site_symmetry_multiplicity
 _atom_site_fract_x
 _atom_site_fract_y
 _atom_site_fract_z
 _atom_site_occupancy
  Li  Li0  4  0.25000000  0.25000000  0.86502000  1.0
  Li  Li1  4  0.25001000  0.24620000  0.04872000  1.0
  Y  Y2  2  0.24794000  0.50000000  0.13421000  1.0
  Y  Y3  2  0.25000000  0.00000000  0.95501000  1.0
  Y  Y4  2  0.25000000  0.50000000  0.95501000  1.0
  Y  Y5  2  0.26654000  0.00000000  0.14024000  1.0
  Ge  Ge6  2  0.00000000  0.22461000  0.14403000  1.0
  Ge  Ge7  2  0.00000000  0.25000000  0.95501000  1.0
  Ge  Ge8  2  0.50000000  0.25000000  0.95501000  1.0
  Ge  Ge9  2  0.50000000  0.25991000  0.12901000  1.0
  Pb  Pb10  1  0.00000000  0.00000000  0.04801000  1.0
  Pb  Pb11  1  0.00000000  0.00000000  0.86502000  1.0
  Pb  Pb12  1  0.00000000  0.50000000  0.04582000  1.0
  Pb  Pb13  1  0.00000000  0.50000000  0.86502000  1.0
  Pb  Pb14  1  0.50000000  0.00000000  0.04587000  1.0
  Pb  Pb15  1  0.50000000  0.00000000  0.86502000  1.0
  Pb  Pb16  1  0.50000000  0.50000000  0.04530000  1.0
  Pb  Pb17  1  0.50000000  0.50000000  0.86502000  1.0
  C  C18  1  0.00000000  0.00000000  0.16426000  1.0
