# generated using pymatgen
data_Ca12Pb4CO
_symmetry_space_group_name_H-M   'P 1'
_cell_length_a   7.22598000
_cell_length_b   10.21910000
_cell_length_c   25.41950000
_cell_angle_alpha   90.00000000
_cell_angle_beta   90.00000000
_cell_angle_gamma   90.00000000
_symmetry_Int_Tables_number   1
_chemical_formula_structural   Ca12Pb4CO
_chemical_formula_sum   'Ca12 Pb4 C1 O1'
_cell_volume   1877.05244908
_cell_formula_units_Z   1
loop_
 _symmetry_equiv_pos_site_id
 _symmetry_equiv_pos_as_xyz
  1  'x, y, z'
loop_
 _atom_site_type_symbol
 _atom_site_label
 _atom_site_symmetry_multiplicity
 _atom_site_fract_x
 _atom_site_fract_y
 _atom_site_fract_z
 _atom_site_occupancy
  Ca  Ca0  1  0.49996000  0.00005000  0.88701000  1.0
  Ca  Ca1  1  0.24507000  0.74323000  0.95879000  1.0
  Ca  Ca2  1  0.75506000  0.74316000  0.95875000  1.0
  Ca  Ca3  1  0.00000000  0.00000000  0.03553000  1.0
  Ca  Ca4  1  0.75000000  0.75000000  0.10660000  1.0
  Ca  Ca5  1  0.25000000  0.75000000  0.10660000  1.0
  Ca  Ca6  1  0.49981000  0.50024000  0.87520000  1.0
  Ca  Ca7  1  0.24512000  0.25674000  0.95879000  1.0
  Ca  Ca8  1  0.75505000  0.25682000  0.95875000  1.0
  Ca  Ca9  1  0.00000000  0.50000000  0.03553000  1.0
  Ca  Ca10  1  0.75000000  0.25000000  0.10660000  1.0
  Ca  Ca11  1  0.25000000  0.25000000  0.10660000  1.0
  Pb  Pb12  1  0.99988000  0.99990000  0.90865000  1.0
  Pb  Pb13  1  0.50000000  1.00000000  0.03553000  1.0
  Pb  Pb14  1  0.00018000  0.49996000  0.90488000  1.0
  Pb  Pb15  1  0.50000000  0.50000000  0.03553000  1.0
  C  C16  1  0.50000000  0.99999000  0.78349000  1.0
  O  O17  1  0.49994000  0.00005000  0.73855000  1.0
