data_image0
_chemical_formula_structural       Zr8Zn8Cu16C
_chemical_formula_sum              "Zr8 Zn8 Cu16 C1"
_cell_length_a       6.25397
_cell_length_b       8.84445
_cell_length_c       26.6333
_cell_angle_alpha    90
_cell_angle_beta     90
_cell_angle_gamma    90

_space_group_name_H-M_alt    "P 1"
_space_group_IT_number       1

loop_
  _space_group_symop_operation_xyz
  'x, y, z'

loop_
  _atom_site_type_symbol
  _atom_site_label
  _atom_site_symmetry_multiplicity
  _atom_site_fract_x
  _atom_site_fract_y
  _atom_site_fract_z
  _atom_site_occupancy
  Zr  Zr1       1.0  0.00000  0.00000  0.87547  1.0000
  Zr  Zr2       1.0  0.50000  0.25000  0.95849  1.0000
  Zr  Zr3       1.0  0.50000  0.75000  0.95849  1.0000
  Zr  Zr4       1.0  0.00000  0.50000  0.87547  1.0000
  Zr  Zr5       1.0  1.00000  0.50000  0.04193  1.0000
  Zr  Zr6       1.0  0.50000  0.76324  0.12651  1.0000
  Zr  Zr7       1.0  0.50000  0.23676  0.12651  1.0000
  Zr  Zr8       1.0  1.00000  1.00000  0.04256  1.0000
  Zn  Zn1       1.0  0.00000  0.75000  0.95849  1.0000
  Zn  Zn2       1.0  0.50000  0.00000  0.87547  1.0000
  Zn  Zn3       1.0  0.00000  0.25000  0.95849  1.0000
  Zn  Zn4       1.0  0.50000  0.50000  0.87547  1.0000
  Zn  Zn5       1.0  0.00000  0.25590  0.11795  1.0000
  Zn  Zn6       1.0  0.50000  0.50000  0.03982  1.0000
  Zn  Zn7       1.0  1.00000  0.74410  0.11795  1.0000
  Zn  Zn8       1.0  0.50000  0.00000  0.04245  1.0000
  Cu  Cu1       1.0  0.25000  0.00000  0.95849  1.0000
  Cu  Cu2       1.0  0.75000  0.50000  0.95849  1.0000
  Cu  Cu3       1.0  0.75000  0.00000  0.95849  1.0000
  Cu  Cu4       1.0  0.25000  0.50000  0.95849  1.0000
  Cu  Cu5       1.0  0.75000  0.75000  0.87547  1.0000
  Cu  Cu6       1.0  0.25000  0.25000  0.87547  1.0000
  Cu  Cu7       1.0  0.25000  0.75000  0.87547  1.0000
  Cu  Cu8       1.0  0.75000  0.25000  0.87547  1.0000
  Cu  Cu9       1.0  0.25523  0.50000  0.12398  1.0000
  Cu  Cu10      1.0  0.80450  1.00000  0.13203  1.0000
  Cu  Cu11      1.0  0.74477  0.50000  0.12398  1.0000
  Cu  Cu12      1.0  0.19550  0.00000  0.13203  1.0000
  Cu  Cu13      1.0  0.73784  0.25154  0.04154  1.0000
  Cu  Cu14      1.0  0.26216  0.74846  0.04154  1.0000
  Cu  Cu15      1.0  0.26216  0.25154  0.04154  1.0000
  Cu  Cu16      1.0  0.73784  0.74846  0.04154  1.0000
  C   C1        1.0  0.50000  1.00000  0.14628  1.0000
