# generated using pymatgen
data_Zr8Zn8Cu16C
_symmetry_space_group_name_H-M   'P 1'
_cell_length_a   6.25397000
_cell_length_b   8.84445000
_cell_length_c   26.63330000
_cell_angle_alpha   90.00000000
_cell_angle_beta   90.00000000
_cell_angle_gamma   90.00000000
_symmetry_Int_Tables_number   1
_chemical_formula_structural   Zr8Zn8Cu16C
_chemical_formula_sum   'Zr8 Zn8 Cu16 C1'
_cell_volume   1473.16572451
_cell_formula_units_Z   1
loop_
 _symmetry_equiv_pos_site_id
 _symmetry_equiv_pos_as_xyz
  1  'x, y, z'
loop_
 _atom_site_type_symbol
 _atom_site_label
 _atom_site_symmetry_multiplicity
 _atom_site_fract_x
 _atom_site_fract_y
 _atom_site_fract_z
 _atom_site_occupancy
  Zr  Zr0  1  0.00000000  0.00000000  0.87547000  1.0
  Zr  Zr1  1  0.50000000  0.25000000  0.95849000  1.0
  Zr  Zr2  1  0.50000000  0.75000000  0.95849000  1.0
  Zr  Zr3  1  0.00000000  0.50000000  0.87547000  1.0
  Zr  Zr4  1  0.00000000  0.50000000  0.04193000  1.0
  Zr  Zr5  1  0.50000000  0.76324000  0.12651000  1.0
  Zr  Zr6  1  0.50000000  0.23676000  0.12651000  1.0
  Zr  Zr7  1  0.00000000  0.00000000  0.04256000  1.0
  Zn  Zn8  1  0.00000000  0.75000000  0.95849000  1.0
  Zn  Zn9  1  0.50000000  0.00000000  0.87547000  1.0
  Zn  Zn10  1  0.00000000  0.25000000  0.95849000  1.0
  Zn  Zn11  1  0.50000000  0.50000000  0.87547000  1.0
  Zn  Zn12  1  0.00000000  0.25590000  0.11795000  1.0
  Zn  Zn13  1  0.50000000  0.50000000  0.03982000  1.0
  Zn  Zn14  1  0.00000000  0.74410000  0.11795000  1.0
  Zn  Zn15  1  0.50000000  0.00000000  0.04245000  1.0
  Cu  Cu16  1  0.25000000  0.00000000  0.95849000  1.0
  Cu  Cu17  1  0.75000000  0.50000000  0.95849000  1.0
  Cu  Cu18  1  0.75000000  0.00000000  0.95849000  1.0
  Cu  Cu19  1  0.25000000  0.50000000  0.95849000  1.0
  Cu  Cu20  1  0.75000000  0.75000000  0.87547000  1.0
  Cu  Cu21  1  0.25000000  0.25000000  0.87547000  1.0
  Cu  Cu22  1  0.25000000  0.75000000  0.87547000  1.0
  Cu  Cu23  1  0.75000000  0.25000000  0.87547000  1.0
  Cu  Cu24  1  0.25523000  0.50000000  0.12398000  1.0
  Cu  Cu25  1  0.80450000  0.00000000  0.13203000  1.0
  Cu  Cu26  1  0.74477000  0.50000000  0.12398000  1.0
  Cu  Cu27  1  0.19550000  0.00000000  0.13203000  1.0
  Cu  Cu28  1  0.73784000  0.25154000  0.04154000  1.0
  Cu  Cu29  1  0.26216000  0.74846000  0.04154000  1.0
  Cu  Cu30  1  0.26216000  0.25154000  0.04154000  1.0
  Cu  Cu31  1  0.73784000  0.74846000  0.04154000  1.0
  C  C32  1  0.50000000  0.00000000  0.14628000  1.0
