# generated using pymatgen
data_Li8Ni16Sn8C
_symmetry_space_group_name_H-M   P1
_cell_length_a   6.04935000
_cell_length_b   8.55507000
_cell_length_c   26.41630000
_cell_angle_alpha   90.00000000
_cell_angle_beta   90.00000000
_cell_angle_gamma   90.00000000
_symmetry_Int_Tables_number   1
_chemical_formula_structural   Li8Ni16Sn8C
_chemical_formula_sum   'Li8 Ni16 Sn8 C1'
_cell_volume   1367.11254299
_cell_formula_units_Z   1
loop_
 _symmetry_equiv_pos_site_id
 _symmetry_equiv_pos_as_xyz
  1  'x, y, z'
loop_
 _atom_site_type_symbol
 _atom_site_label
 _atom_site_symmetry_multiplicity
 _atom_site_fract_x
 _atom_site_fract_y
 _atom_site_fract_z
 _atom_site_occupancy
  Li  Li0  1  0.00000000  0.00000000  0.87855000  1.0
  Li  Li1  1  0.00000000  0.50000000  0.87855000  1.0
  Li  Li2  1  0.47930000  0.75001000  0.12966000  1.0
  Li  Li3  1  0.48047000  0.25002000  0.12840000  1.0
  Li  Li4  1  0.50000000  0.25000000  0.95952000  1.0
  Li  Li5  1  0.50000000  0.75000000  0.95952000  1.0
  Li  Li6  1  0.99585000  0.50244000  0.03302000  1.0
  Li  Li7  1  0.99586000  0.99758000  0.03303000  1.0
  Ni  Ni8  1  0.18527000  0.03959000  0.10793000  1.0
  Ni  Ni9  1  0.18528000  0.46042000  0.10792000  1.0
  Ni  Ni10  1  0.24381000  0.74989000  0.04225000  1.0
  Ni  Ni11  1  0.25000000  0.00000000  0.95952000  1.0
  Ni  Ni12  1  0.25000000  0.25000000  0.87855000  1.0
  Ni  Ni13  1  0.25000000  0.50000000  0.95952000  1.0
  Ni  Ni14  1  0.25000000  0.75000000  0.87855000  1.0
  Ni  Ni15  1  0.26924000  0.25012000  0.03691000  1.0
  Ni  Ni16  1  0.75000000  0.00000000  0.95952000  1.0
  Ni  Ni17  1  0.75000000  0.25000000  0.87855000  1.0
  Ni  Ni18  1  0.75000000  0.50000000  0.95952000  1.0
  Ni  Ni19  1  0.75000000  0.75000000  0.87855000  1.0
  Ni  Ni20  1  0.77237000  0.74990000  0.04169000  1.0
  Ni  Ni21  1  0.77923000  0.50225000  0.11903000  1.0
  Ni  Ni22  1  0.77923000  0.99774000  0.11905000  1.0
  Ni  Ni23  1  0.81470000  0.25014000  0.05804000  1.0
  Sn  Sn24  1  0.00000000  0.25000000  0.95952000  1.0
  Sn  Sn25  1  0.00000000  0.75000000  0.95952000  1.0
  Sn  Sn26  1  0.00266000  0.74997000  0.12771000  1.0
  Sn  Sn27  1  0.50000000  0.00000000  0.87855000  1.0
  Sn  Sn28  1  0.50000000  0.50000000  0.87855000  1.0
  Sn  Sn29  1  0.51555000  0.99487000  0.04292000  1.0
  Sn  Sn30  1  0.51557000  0.50513000  0.04292000  1.0
  Sn  Sn31  1  0.90103000  0.25001000  0.16841000  1.0
  C  C32  1  0.11606000  0.25000000  0.09645000  1.0
