# generated using pymatgen
data_Li8Al8Ag8Pd8CO
_symmetry_space_group_name_H-M   Pm
_cell_length_a   6.21941000
_cell_length_b   8.79558000
_cell_length_c   26.59670000
_cell_angle_alpha   90.00000000
_cell_angle_beta   90.00000000
_cell_angle_gamma   90.00000000
_symmetry_Int_Tables_number   6
_chemical_formula_structural   Li8Al8Ag8Pd8CO
_chemical_formula_sum   'Li8 Al8 Ag8 Pd8 C1 O1'
_cell_volume   1454.92774338
_cell_formula_units_Z   1
loop_
 _symmetry_equiv_pos_site_id
 _symmetry_equiv_pos_as_xyz
  1  'x, y, z'
  2  'x, -y, z'
loop_
 _atom_site_type_symbol
 _atom_site_label
 _atom_site_symmetry_multiplicity
 _atom_site_fract_x
 _atom_site_fract_y
 _atom_site_fract_z
 _atom_site_occupancy
  Li  Li0  2  0.74850000  0.24980000  0.03918000  1.0
  Li  Li1  2  0.75000000  0.25000000  0.87599000  1.0
  Li  Li2  1  0.24027000  0.50000000  0.13259000  1.0
  Li  Li3  1  0.24545000  0.00000000  0.13440000  1.0
  Li  Li4  1  0.25000000  0.00000000  0.95866000  1.0
  Li  Li5  1  0.25000000  0.50000000  0.95866000  1.0
  Al  Al6  2  0.25000000  0.25000000  0.87599000  1.0
  Al  Al7  2  0.25398000  0.25035000  0.04256000  1.0
  Al  Al8  1  0.75000000  0.00000000  0.95866000  1.0
  Al  Al9  1  0.75000000  0.50000000  0.95866000  1.0
  Al  Al10  1  0.76112000  0.00000000  0.12121000  1.0
  Al  Al11  1  0.76278000  0.50000000  0.12235000  1.0
  Ag  Ag12  2  0.50000000  0.25000000  0.95866000  1.0
  Ag  Ag13  2  0.51210000  0.25172000  0.12379000  1.0
  Ag  Ag14  1  -0.00000000  0.50000000  0.87599000  1.0
  Ag  Ag15  1  0.00000000  0.00000000  0.87599000  1.0
  Ag  Ag16  1  0.00594000  0.50000000  0.03958000  1.0
  Ag  Ag17  1  0.00812000  0.00000000  0.03983000  1.0
  Pd  Pd18  2  0.00000000  0.25000000  0.95866000  1.0
  Pd  Pd19  2  0.98599000  0.25069000  0.11709000  1.0
  Pd  Pd20  1  0.49855000  0.00000000  0.04151000  1.0
  Pd  Pd21  1  0.49952000  0.50000000  0.04104000  1.0
  Pd  Pd22  1  0.50000000  0.00000000  0.87599000  1.0
  Pd  Pd23  1  0.50000000  0.50000000  0.87599000  1.0
  C  C24  1  0.24673000  0.00000000  0.21391000  1.0
  O  O25  1  0.24042000  0.00000000  0.25670000  1.0
