data_image0
_chemical_formula_structural       GaMnGaMnGaMnGaMnGaMnGaMnGaMnGaMnCO
_chemical_formula_sum              "Ga8 Mn8 C1 O1"
_cell_length_a       5.4457
_cell_length_b       5.4457
_cell_length_c       25.5178
_cell_angle_alpha    90
_cell_angle_beta     90
_cell_angle_gamma    90

_space_group_name_H-M_alt    "P 1"
_space_group_IT_number       1

loop_
  _space_group_symop_operation_xyz
  'x, y, z'

loop_
  _atom_site_type_symbol
  _atom_site_label
  _atom_site_symmetry_multiplicity
  _atom_site_fract_x
  _atom_site_fract_y
  _atom_site_fract_z
  _atom_site_occupancy
  Ga  Ga1       1.0  0.25000  0.25000  0.96824  1.0000
  Mn  Mn1       1.0  0.00000  0.00000  0.89616  1.0000
  Ga  Ga2       1.0  0.25000  0.25000  0.11239  1.0000
  Mn  Mn2       1.0  0.00000  0.00000  0.04031  1.0000
  Ga  Ga3       1.0  0.25000  0.75000  0.96824  1.0000
  Mn  Mn3       1.0  0.00000  0.50000  0.89616  1.0000
  Ga  Ga4       1.0  0.25000  0.75000  0.11239  1.0000
  Mn  Mn4       1.0  0.00000  0.50000  0.04031  1.0000
  Ga  Ga5       1.0  0.75000  0.25000  0.96824  1.0000
  Mn  Mn5       1.0  0.50000  0.00000  0.89616  1.0000
  Ga  Ga6       1.0  0.75000  0.25000  0.11239  1.0000
  Mn  Mn6       1.0  0.50000  0.00000  0.04031  1.0000
  Ga  Ga7       1.0  0.75000  0.75000  0.96824  1.0000
  Mn  Mn7       1.0  0.50000  0.50000  0.89616  1.0000
  Ga  Ga8       1.0  0.75000  0.75000  0.11239  1.0000
  Mn  Mn8       1.0  0.50000  0.50000  0.04031  1.0000
  C   C1        1.0  0.25000  0.25000  0.18685  1.0000
  O   O1        1.0  0.25000  0.25000  0.23192  1.0000
