# generated using pymatgen
data_Sc4In4Cu4Pd4C
_symmetry_space_group_name_H-M   Cmm2
_cell_length_a   9.24656668
_cell_length_b   9.24656668
_cell_length_c   24.90370000
_cell_angle_alpha   90.00000000
_cell_angle_beta   90.00000000
_cell_angle_gamma   90.00000000
_symmetry_Int_Tables_number   35
_chemical_formula_structural   Sc4In4Cu4Pd4C
_chemical_formula_sum   'Sc8 In8 Cu8 Pd8 C2'
_cell_volume   2129.24132956
_cell_formula_units_Z   2
loop_
 _symmetry_equiv_pos_site_id
 _symmetry_equiv_pos_as_xyz
  1  'x, y, z'
  2  '-x, -y, z'
  3  '-x, y, z'
  4  'x, -y, z'
  5  'x+1/2, y+1/2, z'
  6  '-x+1/2, -y+1/2, z'
  7  '-x+1/2, y+1/2, z'
  8  'x+1/2, -y+1/2, z'
loop_
 _atom_site_type_symbol
 _atom_site_label
 _atom_site_symmetry_multiplicity
 _atom_site_fract_x
 _atom_site_fract_y
 _atom_site_fract_z
 _atom_site_occupancy
  Sc  Sc0  4  0.25000000  0.25000000  0.03921000  1.0
  Sc  Sc1  2  0.00000000  0.00000000  0.90155000  1.0
  Sc  Sc2  2  0.00000000  0.50000000  0.90155000  1.0
  In  In3  4  0.25000000  0.25000000  0.90155000  1.0
  In  In4  2  0.00000000  0.00000000  0.05428000  1.0
  In  In5  2  0.00000000  0.50000000  0.02361000  1.0
  Cu  Cu6  4  0.00000000  0.29079500  0.10699000  1.0
  Cu  Cu7  4  0.25000000  0.00000000  0.96718000  1.0
  Pd  Pd8  4  0.00000000  0.25000000  0.96718000  1.0
  Pd  Pd9  4  0.21738000  0.50000000  0.10158000  1.0
  C  C10  2  0.00000000  0.50000000  0.12546000  1.0
