# generated using pymatgen
data_Li2MgPb
_symmetry_space_group_name_H-M   'P 1'
_cell_length_a   6.88544000
_cell_length_b   9.73748000
_cell_length_c   27.30310000
_cell_angle_alpha   90.00000000
_cell_angle_beta   90.00000000
_cell_angle_gamma   90.00000000
_symmetry_Int_Tables_number   1
_chemical_formula_structural   Li2MgPb
_chemical_formula_sum   'Li16 Mg8 Pb8'
_cell_volume   1830.58642134
_cell_formula_units_Z   8
loop_
 _symmetry_equiv_pos_site_id
 _symmetry_equiv_pos_as_xyz
  1  'x, y, z'
loop_
 _atom_site_type_symbol
 _atom_site_label
 _atom_site_symmetry_multiplicity
 _atom_site_fract_x
 _atom_site_fract_y
 _atom_site_fract_z
 _atom_site_occupancy
  Li  Li0  1  0.25000000  0.00000000  0.95542000  1.0
  Li  Li1  1  0.75000000  0.50000000  0.95542000  1.0
  Li  Li2  1  0.75000000  0.00000000  0.95542000  1.0
  Li  Li3  1  0.25000000  0.50000000  0.95542000  1.0
  Li  Li4  1  0.75000000  0.75000000  0.86626000  1.0
  Li  Li5  1  0.25000000  0.25000000  0.86626000  1.0
  Li  Li6  1  0.25000000  0.75000000  0.86626000  1.0
  Li  Li7  1  0.75000000  0.25000000  0.86626000  1.0
  Li  Li8  1  0.23266000  0.49997000  0.13938000  1.0
  Li  Li9  1  0.76746000  0.99998000  0.13941000  1.0
  Li  Li10  1  0.76730000  0.49998000  0.13938000  1.0
  Li  Li11  1  0.23250000  0.99999000  0.13941000  1.0
  Li  Li12  1  0.75428000  0.24996000  0.04219000  1.0
  Li  Li13  1  0.24575000  0.75002000  0.04217000  1.0
  Li  Li14  1  0.24575000  0.24996000  0.04217000  1.0
  Li  Li15  1  0.75430000  0.75002000  0.04219000  1.0
  Mg  Mg16  1  0.00000000  0.00000000  0.86626000  1.0
  Mg  Mg17  1  0.50000000  0.25000000  0.95542000  1.0
  Mg  Mg18  1  0.50000000  0.75000000  0.95542000  1.0
  Mg  Mg19  1  0.00000000  0.50000000  0.86626000  1.0
  Mg  Mg20  1  0.00001000  0.49998000  0.04865000  1.0
  Mg  Mg21  1  0.49996000  0.75002000  0.13051000  1.0
  Mg  Mg22  1  0.49996000  0.25016000  0.13054000  1.0
  Mg  Mg23  1  0.00001000  0.00000000  0.04867000  1.0
  Pb  Pb24  1  0.00000000  0.75000000  0.95542000  1.0
  Pb  Pb25  1  0.50000000  0.00000000  0.86626000  1.0
  Pb  Pb26  1  0.00000000  0.25000000  0.95542000  1.0
  Pb  Pb27  1  0.50000000  0.50000000  0.86626000  1.0
  Pb  Pb28  1  0.99990000  0.25052000  0.13265000  1.0
  Pb  Pb29  1  0.50000000  0.50000000  0.04878000  1.0
  Pb  Pb30  1  0.99990000  0.74975000  0.13265000  1.0
  Pb  Pb31  1  0.49999000  0.99999000  0.04887000  1.0
