# generated using pymatgen
data_Li8Mg8Ag8Pb8C
_symmetry_space_group_name_H-M   Pm
_cell_length_a   6.87998000
_cell_length_b   9.72976000
_cell_length_c   27.29730000
_cell_angle_alpha   90.00000000
_cell_angle_beta   90.00000000
_cell_angle_gamma   90.00000000
_symmetry_Int_Tables_number   6
_chemical_formula_structural   Li8Mg8Ag8Pb8C
_chemical_formula_sum   'Li8 Mg8 Ag8 Pb8 C1'
_cell_volume   1827.29639029
_cell_formula_units_Z   1
loop_
 _symmetry_equiv_pos_site_id
 _symmetry_equiv_pos_as_xyz
  1  'x, y, z'
  2  'x, -y, z'
loop_
 _atom_site_type_symbol
 _atom_site_label
 _atom_site_symmetry_multiplicity
 _atom_site_fract_x
 _atom_site_fract_y
 _atom_site_fract_z
 _atom_site_occupancy
  Li  Li0  2  0.75000000  0.25000000  0.95545000  1.0
  Li  Li1  2  0.75865000  0.21925000  0.13893000  1.0
  Li  Li2  1  0.24241000  0.00000000  0.04864000  1.0
  Li  Li3  1  0.24494000  0.50000000  0.04983000  1.0
  Li  Li4  1  0.25000000  0.00000000  0.86634000  1.0
  Li  Li5  1  0.25000000  0.50000000  0.86634000  1.0
  Mg  Mg6  2  0.23622000  0.25273000  0.13630000  1.0
  Mg  Mg7  2  0.25000000  0.25000000  0.95545000  1.0
  Mg  Mg8  1  0.75000000  0.00000000  0.86634000  1.0
  Mg  Mg9  1  0.75000000  0.50000000  0.86634000  1.0
  Mg  Mg10  1  0.75634000  0.50000000  0.04979000  1.0
  Mg  Mg11  1  0.79034000  0.00000000  0.05959000  1.0
  Ag  Ag12  2  0.00000000  0.25000000  0.86634000  1.0
  Ag  Ag13  2  0.00558000  0.26070000  0.04393000  1.0
  Ag  Ag14  1  0.45648000  0.00000000  0.14000000  1.0
  Ag  Ag15  1  0.49502000  0.50000000  0.13155000  1.0
  Ag  Ag16  1  0.50000000  0.00000000  0.95545000  1.0
  Ag  Ag17  1  0.50000000  0.50000000  0.95545000  1.0
  Pb  Pb18  2  0.50000000  0.25000000  0.86634000  1.0
  Pb  Pb19  2  0.50330000  0.24396000  0.04727000  1.0
  Pb  Pb20  1  -0.00000000  0.00000000  0.95545000  1.0
  Pb  Pb21  1  0.00000000  0.50000000  0.95545000  1.0
  Pb  Pb22  1  0.03246000  0.00000000  0.19179000  1.0
  Pb  Pb23  1  0.97117000  0.50000000  0.14976000  1.0
  C  C24  1  0.77879000  0.00000000  0.13912000  1.0
