# generated using pymatgen
data_Ni4Sn4Rh8CO
_symmetry_space_group_name_H-M   P4mm
_cell_length_a   6.23499000
_cell_length_b   6.23499000
_cell_length_c   24.67620000
_cell_angle_alpha   90.00000000
_cell_angle_beta   90.00000000
_cell_angle_gamma   90.00000000
_symmetry_Int_Tables_number   99
_chemical_formula_structural   Ni4Sn4Rh8CO
_chemical_formula_sum   'Ni4 Sn4 Rh8 C1 O1'
_cell_volume   959.28975003
_cell_formula_units_Z   1
loop_
 _symmetry_equiv_pos_site_id
 _symmetry_equiv_pos_as_xyz
  1  'x, y, z'
  2  '-y, x, z'
  3  '-x, -y, z'
  4  'y, -x, z'
  5  '-x, y, z'
  6  'y, x, z'
  7  'x, -y, z'
  8  '-y, -x, z'
loop_
 _atom_site_type_symbol
 _atom_site_label
 _atom_site_symmetry_multiplicity
 _atom_site_fract_x
 _atom_site_fract_y
 _atom_site_fract_z
 _atom_site_occupancy
  Ni  Ni0  2  0.00000000  0.50000000  0.09475000  1.0
  Ni  Ni1  1  0.00000000  0.00000000  0.96842000  1.0
  Ni  Ni2  1  0.50000000  0.50000000  0.96842000  1.0
  Sn  Sn3  2  0.00000000  0.50000000  0.96842000  1.0
  Sn  Sn4  1  0.00000000  0.00000000  0.09475000  1.0
  Sn  Sn5  1  0.50000000  0.50000000  0.09475000  1.0
  Rh  Rh6  4  0.25000000  0.25000000  0.03158000  1.0
  Rh  Rh7  4  0.25000000  0.25000000  0.90525000  1.0
  C  C8  1  0.00000000  0.00000000  0.17175000  1.0
  O  O9  1  0.00000000  0.00000000  0.21835000  1.0
