# generated using pymatgen
data_Li4In4Pd4Au4CO
_symmetry_space_group_name_H-M   'P 1'
_cell_length_a   8.89782000
_cell_length_b   5.60636000
_cell_length_c   24.18540000
_cell_angle_alpha   90.00000000
_cell_angle_beta   90.00000000
_cell_angle_gamma   90.00000000
_symmetry_Int_Tables_number   1
_chemical_formula_structural   Li4In4Pd4Au4CO
_chemical_formula_sum   'Li4 In4 Pd4 Au4 C1 O1'
_cell_volume   1206.47373569
_cell_formula_units_Z   1
loop_
 _symmetry_equiv_pos_site_id
 _symmetry_equiv_pos_as_xyz
  1  'x, y, z'
loop_
 _atom_site_type_symbol
 _atom_site_label
 _atom_site_symmetry_multiplicity
 _atom_site_fract_x
 _atom_site_fract_y
 _atom_site_fract_z
 _atom_site_occupancy
  Li  Li0  1  0.75005000  0.50000000  0.08653000  1.0
  Li  Li1  1  0.74989000  0.93270000  0.97168000  1.0
  Li  Li2  1  0.24995000  0.50000000  0.08653000  1.0
  Li  Li3  1  0.25011000  0.93270000  0.97168000  1.0
  In  In4  1  0.00000000  0.22604000  0.02884000  1.0
  In  In5  1  0.00000000  0.65467000  0.90666000  1.0
  In  In6  1  0.50000000  0.22604000  0.02884000  1.0
  In  In7  1  0.50000000  0.65305000  0.90565000  1.0
  Pd  Pd8  1  0.00000000  0.72604000  0.02884000  1.0
  Pd  Pd9  1  0.00000000  0.13926000  0.92009000  1.0
  Pd  Pd10  1  0.50000000  0.72604000  0.02884000  1.0
  Pd  Pd11  1  0.50000000  0.13768000  0.92025000  1.0
  Au  Au12  1  0.75005000  0.00000000  0.08653000  1.0
  Au  Au13  1  0.74990000  0.43973000  0.96339000  1.0
  Au  Au14  1  0.24995000  0.00000000  0.08653000  1.0
  Au  Au15  1  0.25010000  0.43973000  0.96339000  1.0
  C  C16  1  0.00000000  0.54692000  0.75188000  1.0
  O  O17  1  0.00000000  0.70877000  0.72364000  1.0
