# generated using pymatgen
data_Hf8Ir24C
_symmetry_space_group_name_H-M   'P 1'
_cell_length_a   7.94591000
_cell_length_b   7.94591000
_cell_length_c   25.95940000
_cell_angle_alpha   90.00000000
_cell_angle_beta   90.00000000
_cell_angle_gamma   90.00000000
_symmetry_Int_Tables_number   1
_chemical_formula_structural   Hf8Ir24C
_chemical_formula_sum   'Hf8 Ir24 C1'
_cell_volume   1639.01124701
_cell_formula_units_Z   1
loop_
 _symmetry_equiv_pos_site_id
 _symmetry_equiv_pos_as_xyz
  1  'x, y, z'
loop_
 _atom_site_type_symbol
 _atom_site_label
 _atom_site_symmetry_multiplicity
 _atom_site_fract_x
 _atom_site_fract_y
 _atom_site_fract_z
 _atom_site_occupancy
  Hf  Hf0  1  0.00000000  0.00000000  0.88522000  1.0
  Hf  Hf1  1  0.00000000  0.00000000  0.03826000  1.0
  Hf  Hf2  1  0.00000000  0.50000000  0.88522000  1.0
  Hf  Hf3  1  0.00000000  0.50000000  0.03826000  1.0
  Hf  Hf4  1  0.50000000  0.00000000  0.88522000  1.0
  Hf  Hf5  1  0.50000000  0.00000000  0.03826000  1.0
  Hf  Hf6  1  0.50000000  0.50000000  0.88522000  1.0
  Hf  Hf7  1  0.50000000  0.50000000  0.03826000  1.0
  Ir  Ir8  1  0.00000000  0.25000000  0.96174000  1.0
  Ir  Ir9  1  0.25000000  0.00000000  0.96174000  1.0
  Ir  Ir10  1  0.25000000  0.25000000  0.88522000  1.0
  Ir  Ir11  1  0.00000000  0.25000000  0.11478000  1.0
  Ir  Ir12  1  0.25000000  0.00000000  0.11478000  1.0
  Ir  Ir13  1  0.25000000  0.25000000  0.03826000  1.0
  Ir  Ir14  1  0.00000000  0.75000000  0.96174000  1.0
  Ir  Ir15  1  0.25000000  0.50000000  0.96174000  1.0
  Ir  Ir16  1  0.25000000  0.75000000  0.88522000  1.0
  Ir  Ir17  1  0.00000000  0.75000000  0.11478000  1.0
  Ir  Ir18  1  0.25000000  0.50000000  0.11478000  1.0
  Ir  Ir19  1  0.25000000  0.75000000  0.03826000  1.0
  Ir  Ir20  1  0.50000000  0.25000000  0.96174000  1.0
  Ir  Ir21  1  0.75000000  0.00000000  0.96174000  1.0
  Ir  Ir22  1  0.75000000  0.25000000  0.88522000  1.0
  Ir  Ir23  1  0.50000000  0.25000000  0.11478000  1.0
  Ir  Ir24  1  0.75000000  0.00000000  0.11478000  1.0
  Ir  Ir25  1  0.75000000  0.25000000  0.03826000  1.0
  Ir  Ir26  1  0.50000000  0.75000000  0.96174000  1.0
  Ir  Ir27  1  0.75000000  0.50000000  0.96174000  1.0
  Ir  Ir28  1  0.75000000  0.75000000  0.88522000  1.0
  Ir  Ir29  1  0.50000000  0.75000000  0.11478000  1.0
  Ir  Ir30  1  0.75000000  0.50000000  0.11478000  1.0
  Ir  Ir31  1  0.75000000  0.75000000  0.03826000  1.0
  C  C32  1  0.00000000  0.00000000  0.14560000  1.0
