# generated using pymatgen
data_Mg8Sc8Ga8Pd8CO
_symmetry_space_group_name_H-M   Pm
_cell_length_a   6.56469000
_cell_length_b   9.28388000
_cell_length_c   26.96290000
_cell_angle_alpha   90.00000000
_cell_angle_beta   90.00000000
_cell_angle_gamma   90.00000000
_symmetry_Int_Tables_number   6
_chemical_formula_structural   Mg8Sc8Ga8Pd8CO
_chemical_formula_sum   'Mg8 Sc8 Ga8 Pd8 C1 O1'
_cell_volume   1643.27535436
_cell_formula_units_Z   1
loop_
 _symmetry_equiv_pos_site_id
 _symmetry_equiv_pos_as_xyz
  1  'x, y, z'
  2  'x, -y, z'
loop_
 _atom_site_type_symbol
 _atom_site_label
 _atom_site_symmetry_multiplicity
 _atom_site_fract_x
 _atom_site_fract_y
 _atom_site_fract_z
 _atom_site_occupancy
  Mg  Mg0  2  0.74541000  0.25048000  0.04335000  1.0
  Mg  Mg1  2  0.75000000  0.25000000  0.87088000  1.0
  Mg  Mg2  1  0.25000000  0.00000000  0.95696000  1.0
  Mg  Mg3  1  0.25000000  0.50000000  0.95696000  1.0
  Mg  Mg4  1  0.25289000  0.50000000  0.13345000  1.0
  Mg  Mg5  1  0.25305000  0.00000000  0.13336000  1.0
  Sc  Sc6  2  0.25000000  0.25000000  0.87088000  1.0
  Sc  Sc7  2  0.25252000  0.25001000  0.04437000  1.0
  Sc  Sc8  1  0.75000000  0.00000000  0.95696000  1.0
  Sc  Sc9  1  0.75000000  0.50000000  0.95696000  1.0
  Sc  Sc10  1  0.75119000  0.50000000  0.13303000  1.0
  Sc  Sc11  1  0.75361000  0.00000000  0.13265000  1.0
  Ga  Ga12  2  0.50000000  0.25000000  0.95696000  1.0
  Ga  Ga13  2  0.50590000  0.25035000  0.13468000  1.0
  Ga  Ga14  1  0.00000000  0.00000000  0.87088000  1.0
  Ga  Ga15  1  0.00000000  0.50000000  0.87088000  1.0
  Ga  Ga16  1  0.99571000  0.50000000  0.04616000  1.0
  Ga  Ga17  1  0.99653000  0.00000000  0.04651000  1.0
  Pd  Pd18  2  0.00000000  0.25000000  0.95696000  1.0
  Pd  Pd19  2  0.99904000  0.25228000  0.12243000  1.0
  Pd  Pd20  1  0.50000000  0.00000000  0.87088000  1.0
  Pd  Pd21  1  0.50000000  0.50000000  0.87088000  1.0
  Pd  Pd22  1  0.50595000  0.00000000  0.04683000  1.0
  Pd  Pd23  1  0.50650000  0.50000000  0.04611000  1.0
  C  C24  1  0.24296000  0.00000000  0.21653000  1.0
  O  O25  1  0.24286000  0.00000000  0.25908000  1.0
