# generated using pymatgen
data_YSnGePd
_symmetry_space_group_name_H-M   'P 1'
_cell_length_a   6.46257000
_cell_length_b   4.05728000
_cell_length_c   24.82060000
_cell_angle_alpha   90.00000000
_cell_angle_beta   90.00000000
_cell_angle_gamma   90.00000000
_symmetry_Int_Tables_number   1
_chemical_formula_structural   YSnGePd
_chemical_formula_sum   'Y2 Sn2 Ge2 Pd2'
_cell_volume   650.80745043
_cell_formula_units_Z   2
loop_
 _symmetry_equiv_pos_site_id
 _symmetry_equiv_pos_as_xyz
  1  'x, y, z'
loop_
 _atom_site_type_symbol
 _atom_site_label
 _atom_site_symmetry_multiplicity
 _atom_site_fract_x
 _atom_site_fract_y
 _atom_site_fract_z
 _atom_site_occupancy
  Y  Y0  1  0.22399000  0.50000000  0.03237000  1.0
  Y  Y1  1  0.67198000  0.50000000  0.90289000  1.0
  Sn  Sn2  1  0.72399000  0.50000000  0.03237000  1.0
  Sn  Sn3  1  0.17198000  0.50000000  0.90289000  1.0
  Ge  Ge4  1  0.00000000  0.00000000  0.09711000  1.0
  Ge  Ge5  1  0.44799000  0.00000000  0.96763000  1.0
  Pd  Pd6  1  0.50000000  0.00000000  0.09711000  1.0
  Pd  Pd7  1  0.94799000  0.00000000  0.96763000  1.0
