data_image0
_chemical_formula_structural       Li16Ge8Pd8C
_chemical_formula_sum              "Li16 Ge8 Pd8 C1"
_cell_length_a       6.09904
_cell_length_b       8.62534
_cell_length_c       26.469
_cell_angle_alpha    90
_cell_angle_beta     90
_cell_angle_gamma    90

_space_group_name_H-M_alt    "P 1"
_space_group_IT_number       1

loop_
  _space_group_symop_operation_xyz
  'x, y, z'

loop_
  _atom_site_type_symbol
  _atom_site_label
  _atom_site_symmetry_multiplicity
  _atom_site_fract_x
  _atom_site_fract_y
  _atom_site_fract_z
  _atom_site_occupancy
  Li  Li1       1.0  0.25000  0.00000  0.95927  1.0000
  Li  Li2       1.0  0.75000  0.50000  0.95927  1.0000
  Li  Li3       1.0  0.75000  0.00000  0.95927  1.0000
  Li  Li4       1.0  0.25000  0.50000  0.95927  1.0000
  Li  Li5       1.0  0.75000  0.75000  0.87780  1.0000
  Li  Li6       1.0  0.25000  0.25000  0.87780  1.0000
  Li  Li7       1.0  0.25000  0.75000  0.87780  1.0000
  Li  Li8       1.0  0.75000  0.25000  0.87780  1.0000
  Li  Li9       1.0  0.24682  0.52506  0.14405  1.0000
  Li  Li10      1.0  0.71609  0.02503  0.14257  1.0000
  Li  Li11      1.0  0.75224  0.47511  0.14437  1.0000
  Li  Li12      1.0  0.28089  0.97467  0.14219  1.0000
  Li  Li13      1.0  0.75166  0.24858  0.04336  1.0000
  Li  Li14      1.0  0.24902  0.74829  0.04299  1.0000
  Li  Li15      1.0  0.24868  0.25599  0.03523  1.0000
  Li  Li16      1.0  0.75110  0.74693  0.03528  1.0000
  Ge  Ge1       1.0  0.00000  0.00000  0.87780  1.0000
  Ge  Ge2       1.0  0.50000  0.25000  0.95927  1.0000
  Ge  Ge3       1.0  0.50000  0.75000  0.95927  1.0000
  Ge  Ge4       1.0  0.00000  0.50000  0.87780  1.0000
  Ge  Ge5       1.0  0.99782  0.49998  0.06081  1.0000
  Ge  Ge6       1.0  0.53789  0.74001  0.11878  1.0000
  Ge  Ge7       1.0  0.46125  0.25994  0.11888  1.0000
  Ge  Ge8       1.0  0.00484  0.99971  0.03219  1.0000
  Pd  Pd1       1.0  0.00000  0.75000  0.95927  1.0000
  Pd  Pd2       1.0  0.50000  0.00000  0.87780  1.0000
  Pd  Pd3       1.0  0.00000  0.25000  0.95927  1.0000
  Pd  Pd4       1.0  0.50000  0.50000  0.87780  1.0000
  Pd  Pd5       1.0  0.04513  0.24029  0.11817  1.0000
  Pd  Pd6       1.0  0.50206  0.49964  0.05276  1.0000
  Pd  Pd7       1.0  0.95328  0.76000  0.11793  1.0000
  Pd  Pd8       1.0  0.49651  0.00005  0.04324  1.0000
  C   C1        1.0  0.99750  0.00067  0.10407  1.0000
