# generated using pymatgen
data_Li16Ge8Pd8C
_symmetry_space_group_name_H-M   'P 1'
_cell_length_a   6.09904000
_cell_length_b   8.62534000
_cell_length_c   26.46900000
_cell_angle_alpha   90.00000000
_cell_angle_beta   90.00000000
_cell_angle_gamma   90.00000000
_symmetry_Int_Tables_number   1
_chemical_formula_structural   Li16Ge8Pd8C
_chemical_formula_sum   'Li16 Ge8 Pd8 C1'
_cell_volume   1392.43598725
_cell_formula_units_Z   1
loop_
 _symmetry_equiv_pos_site_id
 _symmetry_equiv_pos_as_xyz
  1  'x, y, z'
loop_
 _atom_site_type_symbol
 _atom_site_label
 _atom_site_symmetry_multiplicity
 _atom_site_fract_x
 _atom_site_fract_y
 _atom_site_fract_z
 _atom_site_occupancy
  Li  Li0  1  0.25000000  0.00000000  0.95927000  1.0
  Li  Li1  1  0.75000000  0.50000000  0.95927000  1.0
  Li  Li2  1  0.75000000  0.00000000  0.95927000  1.0
  Li  Li3  1  0.25000000  0.50000000  0.95927000  1.0
  Li  Li4  1  0.75000000  0.75000000  0.87780000  1.0
  Li  Li5  1  0.25000000  0.25000000  0.87780000  1.0
  Li  Li6  1  0.25000000  0.75000000  0.87780000  1.0
  Li  Li7  1  0.75000000  0.25000000  0.87780000  1.0
  Li  Li8  1  0.24682000  0.52506000  0.14405000  1.0
  Li  Li9  1  0.71609000  0.02503000  0.14257000  1.0
  Li  Li10  1  0.75224000  0.47511000  0.14437000  1.0
  Li  Li11  1  0.28089000  0.97467000  0.14219000  1.0
  Li  Li12  1  0.75166000  0.24858000  0.04336000  1.0
  Li  Li13  1  0.24902000  0.74829000  0.04299000  1.0
  Li  Li14  1  0.24868000  0.25599000  0.03523000  1.0
  Li  Li15  1  0.75110000  0.74693000  0.03528000  1.0
  Ge  Ge16  1  0.00000000  0.00000000  0.87780000  1.0
  Ge  Ge17  1  0.50000000  0.25000000  0.95927000  1.0
  Ge  Ge18  1  0.50000000  0.75000000  0.95927000  1.0
  Ge  Ge19  1  1.00000000  0.50000000  0.87780000  1.0
  Ge  Ge20  1  0.99782000  0.49998000  0.06081000  1.0
  Ge  Ge21  1  0.53789000  0.74001000  0.11878000  1.0
  Ge  Ge22  1  0.46125000  0.25994000  0.11888000  1.0
  Ge  Ge23  1  0.00484000  0.99971000  0.03219000  1.0
  Pd  Pd24  1  1.00000000  0.75000000  0.95927000  1.0
  Pd  Pd25  1  0.50000000  0.00000000  0.87780000  1.0
  Pd  Pd26  1  1.00000000  0.25000000  0.95927000  1.0
  Pd  Pd27  1  0.50000000  0.50000000  0.87780000  1.0
  Pd  Pd28  1  0.04513000  0.24029000  0.11817000  1.0
  Pd  Pd29  1  0.50206000  0.49964000  0.05276000  1.0
  Pd  Pd30  1  0.95328000  0.76000000  0.11793000  1.0
  Pd  Pd31  1  0.49651000  0.00005000  0.04324000  1.0
  C  C32  1  0.99750000  0.00067000  0.10407000  1.0
