# generated using pymatgen
data_Li4Y4Ge4Pb4CO
_symmetry_space_group_name_H-M   'P 1'
_cell_length_a   8.65500000
_cell_length_b   6.52719000
_cell_length_c   24.84630000
_cell_angle_alpha   90.00000000
_cell_angle_beta   90.00000000
_cell_angle_gamma   90.00000000
_symmetry_Int_Tables_number   1
_chemical_formula_structural   Li4Y4Ge4Pb4CO
_chemical_formula_sum   'Li4 Y4 Ge4 Pb4 C1 O1'
_cell_volume   1403.63778836
_cell_formula_units_Z   1
loop_
 _symmetry_equiv_pos_site_id
 _symmetry_equiv_pos_as_xyz
  1  'x, y, z'
loop_
 _atom_site_type_symbol
 _atom_site_label
 _atom_site_symmetry_multiplicity
 _atom_site_fract_x
 _atom_site_fract_y
 _atom_site_fract_z
 _atom_site_occupancy
  Li  Li0  1  0.00000000  0.52943000  0.89121000  1.0
  Li  Li1  1  0.00000000  0.92937000  0.03251000  1.0
  Li  Li2  1  0.50000000  0.54026000  0.88895000  1.0
  Li  Li3  1  0.50000000  0.92937000  0.03251000  1.0
  Y  Y4  1  0.25075000  0.23144000  0.96767000  1.0
  Y  Y5  1  0.25000000  0.64406000  0.09753000  1.0
  Y  Y6  1  0.74925000  0.23144000  0.96767000  1.0
  Y  Y7  1  0.75000000  0.64406000  0.09753000  1.0
  Ge  Ge8  1  0.00000000  0.98897000  0.91569000  1.0
  Ge  Ge9  1  0.00000000  0.42937000  0.03251000  1.0
  Ge  Ge10  1  0.50000000  0.98745000  0.91471000  1.0
  Ge  Ge11  1  0.50000000  0.42937000  0.03251000  1.0
  Pb  Pb12  1  0.24930000  0.72599000  0.95100000  1.0
  Pb  Pb13  1  0.25000000  0.14406000  0.09753000  1.0
  Pb  Pb14  1  0.75070000  0.72599000  0.95100000  1.0
  Pb  Pb15  1  0.75000000  0.14406000  0.09753000  1.0
  C  C16  1  0.00000000  0.50819000  0.80756000  1.0
  O  O17  1  0.00000000  0.50265000  0.76174000  1.0
