data_image0
_chemical_formula_structural       Hf8In8Cu16CO
_chemical_formula_sum              "Hf8 In8 Cu16 C1 O1"
_cell_length_a       6.35005
_cell_length_b       8.98033
_cell_length_c       26.7352
_cell_angle_alpha    90
_cell_angle_beta     90
_cell_angle_gamma    90

_space_group_name_H-M_alt    "P 1"
_space_group_IT_number       1

loop_
  _space_group_symop_operation_xyz
  'x, y, z'

loop_
  _atom_site_type_symbol
  _atom_site_label
  _atom_site_symmetry_multiplicity
  _atom_site_fract_x
  _atom_site_fract_y
  _atom_site_fract_z
  _atom_site_occupancy
  Hf  Hf1       1.0  0.00000  0.00000  0.87404  1.0000
  Hf  Hf2       1.0  0.50000  0.25000  0.95801  1.0000
  Hf  Hf3       1.0  0.50000  0.75000  0.95801  1.0000
  Hf  Hf4       1.0  0.00000  0.50000  0.87404  1.0000
  Hf  Hf5       1.0  0.00062  0.50324  0.04570  1.0000
  Hf  Hf6       1.0  0.50127  0.78492  0.13750  1.0000
  Hf  Hf7       1.0  0.50143  0.23250  0.13260  1.0000
  Hf  Hf8       1.0  0.00008  0.99292  0.04276  1.0000
  In  In1       1.0  0.00000  0.75000  0.95801  1.0000
  In  In2       1.0  0.50000  0.00000  0.87404  1.0000
  In  In3       1.0  0.00000  0.25000  0.95801  1.0000
  In  In4       1.0  0.50000  0.50000  0.87404  1.0000
  In  In5       1.0  0.00123  0.28597  0.14257  1.0000
  In  In6       1.0  0.50022  0.49299  0.04261  1.0000
  In  In7       1.0  0.00113  0.74287  0.13268  1.0000
  In  In8       1.0  0.50041  0.00282  0.04299  1.0000
  Cu  Cu1       1.0  0.25000  0.00000  0.95801  1.0000
  Cu  Cu2       1.0  0.75000  0.50000  0.95801  1.0000
  Cu  Cu3       1.0  0.75000  0.00000  0.95801  1.0000
  Cu  Cu4       1.0  0.25000  0.50000  0.95801  1.0000
  Cu  Cu5       1.0  0.75000  0.75000  0.87404  1.0000
  Cu  Cu6       1.0  0.25000  0.25000  0.87404  1.0000
  Cu  Cu7       1.0  0.25000  0.75000  0.87404  1.0000
  Cu  Cu8       1.0  0.75000  0.25000  0.87404  1.0000
  Cu  Cu9       1.0  0.29324  0.51224  0.13185  1.0000
  Cu  Cu10      1.0  0.79897  0.02000  0.13013  1.0000
  Cu  Cu11      1.0  0.70902  0.51217  0.13176  1.0000
  Cu  Cu12      1.0  0.20412  0.01995  0.12966  1.0000
  Cu  Cu13      1.0  0.76359  0.24806  0.04746  1.0000
  Cu  Cu14      1.0  0.26418  0.74705  0.04677  1.0000
  Cu  Cu15      1.0  0.23723  0.24792  0.04754  1.0000
  Cu  Cu16      1.0  0.73669  0.74692  0.04668  1.0000
  C   C1        1.0  0.50135  0.02772  0.17165  1.0000
  O   O1        1.0  0.50111  0.90649  0.20082  1.0000
