# generated using pymatgen
data_Hf8In8Cu16CO
_symmetry_space_group_name_H-M   'P 1'
_cell_length_a   6.35005000
_cell_length_b   8.98033000
_cell_length_c   26.73520000
_cell_angle_alpha   90.00000000
_cell_angle_beta   90.00000000
_cell_angle_gamma   90.00000000
_symmetry_Int_Tables_number   1
_chemical_formula_structural   Hf8In8Cu16CO
_chemical_formula_sum   'Hf8 In8 Cu16 C1 O1'
_cell_volume   1524.58933776
_cell_formula_units_Z   1
loop_
 _symmetry_equiv_pos_site_id
 _symmetry_equiv_pos_as_xyz
  1  'x, y, z'
loop_
 _atom_site_type_symbol
 _atom_site_label
 _atom_site_symmetry_multiplicity
 _atom_site_fract_x
 _atom_site_fract_y
 _atom_site_fract_z
 _atom_site_occupancy
  Hf  Hf0  1  0.00000000  0.00000000  0.87404000  1.0
  Hf  Hf1  1  0.50000000  0.25000000  0.95801000  1.0
  Hf  Hf2  1  0.50000000  0.75000000  0.95801000  1.0
  Hf  Hf3  1  0.00000000  0.50000000  0.87404000  1.0
  Hf  Hf4  1  0.00062000  0.50324000  0.04570000  1.0
  Hf  Hf5  1  0.50127000  0.78492000  0.13750000  1.0
  Hf  Hf6  1  0.50143000  0.23250000  0.13260000  1.0
  Hf  Hf7  1  0.00008000  0.99292000  0.04276000  1.0
  In  In8  1  0.00000000  0.75000000  0.95801000  1.0
  In  In9  1  0.50000000  0.00000000  0.87404000  1.0
  In  In10  1  0.00000000  0.25000000  0.95801000  1.0
  In  In11  1  0.50000000  0.50000000  0.87404000  1.0
  In  In12  1  0.00123000  0.28597000  0.14257000  1.0
  In  In13  1  0.50022000  0.49299000  0.04261000  1.0
  In  In14  1  0.00113000  0.74287000  0.13268000  1.0
  In  In15  1  0.50041000  0.00282000  0.04299000  1.0
  Cu  Cu16  1  0.25000000  0.00000000  0.95801000  1.0
  Cu  Cu17  1  0.75000000  0.50000000  0.95801000  1.0
  Cu  Cu18  1  0.75000000  0.00000000  0.95801000  1.0
  Cu  Cu19  1  0.25000000  0.50000000  0.95801000  1.0
  Cu  Cu20  1  0.75000000  0.75000000  0.87404000  1.0
  Cu  Cu21  1  0.25000000  0.25000000  0.87404000  1.0
  Cu  Cu22  1  0.25000000  0.75000000  0.87404000  1.0
  Cu  Cu23  1  0.75000000  0.25000000  0.87404000  1.0
  Cu  Cu24  1  0.29324000  0.51224000  0.13185000  1.0
  Cu  Cu25  1  0.79897000  0.02000000  0.13013000  1.0
  Cu  Cu26  1  0.70902000  0.51217000  0.13176000  1.0
  Cu  Cu27  1  0.20412000  0.01995000  0.12966000  1.0
  Cu  Cu28  1  0.76359000  0.24806000  0.04746000  1.0
  Cu  Cu29  1  0.26418000  0.74705000  0.04677000  1.0
  Cu  Cu30  1  0.23723000  0.24792000  0.04754000  1.0
  Cu  Cu31  1  0.73669000  0.74692000  0.04668000  1.0
  C  C32  1  0.50135000  0.02772000  0.17165000  1.0
  O  O33  1  0.50111000  0.90649000  0.20082000  1.0
