# generated using pymatgen
data_Li8Mg8Ga8Pd8C
_symmetry_space_group_name_H-M   'P 1'
_cell_length_a   8.87710000
_cell_length_b   6.27706000
_cell_length_c   26.65780000
_cell_angle_alpha   90.00000000
_cell_angle_beta   90.00000000
_cell_angle_gamma   90.00000000
_symmetry_Int_Tables_number   1
_chemical_formula_structural   Li8Mg8Ga8Pd8C
_chemical_formula_sum   'Li8 Mg8 Ga8 Pd8 C1'
_cell_volume   1485.42831283
_cell_formula_units_Z   1
loop_
 _symmetry_equiv_pos_site_id
 _symmetry_equiv_pos_as_xyz
  1  'x, y, z'
loop_
 _atom_site_type_symbol
 _atom_site_label
 _atom_site_symmetry_multiplicity
 _atom_site_fract_x
 _atom_site_fract_y
 _atom_site_fract_z
 _atom_site_occupancy
  Li  Li0  1  0.75000000  0.25000000  0.04163000  1.0
  Li  Li1  1  0.25000000  0.25000000  0.04163000  1.0
  Li  Li2  1  0.00000000  0.75000000  0.12488000  1.0
  Li  Li3  1  0.50000000  0.75000000  0.12488000  1.0
  Li  Li4  1  0.23209000  0.27915000  0.85911000  1.0
  Li  Li5  1  0.76791000  0.27915000  0.85911000  1.0
  Li  Li6  1  0.50000000  0.75287000  0.95708000  1.0
  Li  Li7  1  0.00000000  0.76082000  0.95813000  1.0
  Mg  Mg8  1  0.00000000  0.00000000  0.04163000  1.0
  Mg  Mg9  1  0.50000000  0.00000000  0.04163000  1.0
  Mg  Mg10  1  0.25000000  0.50000000  0.12488000  1.0
  Mg  Mg11  1  0.75000000  0.50000000  0.12488000  1.0
  Mg  Mg12  1  0.50000000  0.00538000  0.86936000  1.0
  Mg  Mg13  1  0.00000000  0.95417000  0.86258000  1.0
  Mg  Mg14  1  0.75241000  0.48768000  0.95897000  1.0
  Mg  Mg15  1  0.24759000  0.48768000  0.95897000  1.0
  Ga  Ga16  1  0.75000000  0.00000000  0.12488000  1.0
  Ga  Ga17  1  0.25000000  0.00000000  0.12488000  1.0
  Ga  Ga18  1  0.50000000  0.50000000  0.04163000  1.0
  Ga  Ga19  1  0.00000000  0.50000000  0.04163000  1.0
  Ga  Ga20  1  0.24916000  0.00606000  0.95722000  1.0
  Ga  Ga21  1  0.75084000  0.00606000  0.95722000  1.0
  Ga  Ga22  1  0.00000000  0.54887000  0.87312000  1.0
  Ga  Ga23  1  0.50000000  0.50035000  0.87227000  1.0
  Pd  Pd24  1  0.75000000  0.75000000  0.04163000  1.0
  Pd  Pd25  1  0.25000000  0.75000000  0.04163000  1.0
  Pd  Pd26  1  0.00000000  0.25000000  0.12488000  1.0
  Pd  Pd27  1  0.50000000  0.25000000  0.12488000  1.0
  Pd  Pd28  1  0.26469000  0.74315000  0.88230000  1.0
  Pd  Pd29  1  0.73531000  0.74315000  0.88230000  1.0
  Pd  Pd30  1  0.50000000  0.24542000  0.95718000  1.0
  Pd  Pd31  1  0.00000000  0.23985000  0.95350000  1.0
  C  C32  1  0.00000000  0.26870000  0.85347000  1.0
