# generated using pymatgen
data_In8Pd8C
_symmetry_space_group_name_H-M   'P 1'
_cell_length_a   6.68646000
_cell_length_b   6.68646000
_cell_length_c   25.01480000
_cell_angle_alpha   90.00000000
_cell_angle_beta   90.00000000
_cell_angle_gamma   90.00000000
_symmetry_Int_Tables_number   1
_chemical_formula_structural   In8Pd8C
_chemical_formula_sum   'In8 Pd8 C1'
_cell_volume   1118.38037275
_cell_formula_units_Z   1
loop_
 _symmetry_equiv_pos_site_id
 _symmetry_equiv_pos_as_xyz
  1  'x, y, z'
loop_
 _atom_site_type_symbol
 _atom_site_label
 _atom_site_symmetry_multiplicity
 _atom_site_fract_x
 _atom_site_fract_y
 _atom_site_fract_z
 _atom_site_occupancy
  In  In0  1  0.25000000  0.25000000  0.96786000  1.0
  In  In1  1  0.25000000  0.25000000  0.10151000  1.0
  In  In2  1  0.25000000  0.75000000  0.96786000  1.0
  In  In3  1  0.25000000  0.75000000  0.10151000  1.0
  In  In4  1  0.75000000  0.25000000  0.96786000  1.0
  In  In5  1  0.75000000  0.25000000  0.10151000  1.0
  In  In6  1  0.75000000  0.75000000  0.96786000  1.0
  In  In7  1  0.75000000  0.75000000  0.10151000  1.0
  Pd  Pd8  1  0.00000000  0.00000000  0.90103000  1.0
  Pd  Pd9  1  0.00000000  0.00000000  0.03468000  1.0
  Pd  Pd10  1  0.00000000  0.50000000  0.90103000  1.0
  Pd  Pd11  1  0.00000000  0.50000000  0.03468000  1.0
  Pd  Pd12  1  0.50000000  0.00000000  0.90103000  1.0
  Pd  Pd13  1  0.50000000  0.00000000  0.03468000  1.0
  Pd  Pd14  1  0.50000000  0.50000000  0.90103000  1.0
  Pd  Pd15  1  0.50000000  0.50000000  0.03468000  1.0
  C  C16  1  0.00000000  0.00000000  0.13349000  1.0
