# generated using pymatgen
data_Li4Sc4In4Ga4C
_symmetry_space_group_name_H-M   'P 1'
_cell_length_a   8.23116000
_cell_length_b   6.09788000
_cell_length_c   24.56590000
_cell_angle_alpha   90.00000000
_cell_angle_beta   90.00000000
_cell_angle_gamma   90.00000000
_symmetry_Int_Tables_number   1
_chemical_formula_structural   Li4Sc4In4Ga4C
_chemical_formula_sum   'Li4 Sc4 In4 Ga4 C1'
_cell_volume   1233.02702960
_cell_formula_units_Z   1
loop_
 _symmetry_equiv_pos_site_id
 _symmetry_equiv_pos_as_xyz
  1  'x, y, z'
loop_
 _atom_site_type_symbol
 _atom_site_label
 _atom_site_symmetry_multiplicity
 _atom_site_fract_x
 _atom_site_fract_y
 _atom_site_fract_z
 _atom_site_occupancy
  Li  Li0  1  0.00000000  0.50000000  0.90707000  1.0
  Li  Li1  1  0.00000000  0.05815000  0.02365000  1.0
  Li  Li2  1  0.50000000  0.50000000  0.90707000  1.0
  Li  Li3  1  0.50000000  0.04844000  0.04137000  1.0
  Sc  Sc4  1  0.74999000  0.76431000  0.96902000  1.0
  Sc  Sc5  1  0.78471000  0.35455000  0.09678000  1.0
  Sc  Sc6  1  0.25001000  0.76431000  0.96902000  1.0
  Sc  Sc7  1  0.21529000  0.35455000  0.09678000  1.0
  In  In8  1  0.74999000  0.26431000  0.96902000  1.0
  In  In9  1  0.79668000  0.84674000  0.10546000  1.0
  In  In10  1  0.25001000  0.26431000  0.96902000  1.0
  In  In11  1  0.20332000  0.84674000  0.10546000  1.0
  Ga  Ga12  1  0.00000000  0.00000000  0.90707000  1.0
  Ga  Ga13  1  0.00000000  0.57895000  0.02595000  1.0
  Ga  Ga14  1  0.50000000  0.00000000  0.90707000  1.0
  Ga  Ga15  1  0.50000000  0.56034000  0.04106000  1.0
  C  C16  1  0.00000000  0.53056000  0.11206000  1.0
