# generated using pymatgen
data_LiCuSiPd
_symmetry_space_group_name_H-M   Pm
_cell_length_a   5.89837000
_cell_length_b   4.17078000
_cell_length_c   26.25620000
_cell_angle_alpha   90.00000000
_cell_angle_beta   90.00000000
_cell_angle_gamma   90.00000000
_symmetry_Int_Tables_number   6
_chemical_formula_structural   LiCuSiPd
_chemical_formula_sum   'Li4 Cu4 Si4 Pd4'
_cell_volume   645.92362023
_cell_formula_units_Z   4
loop_
 _symmetry_equiv_pos_site_id
 _symmetry_equiv_pos_as_xyz
  1  'x, y, z'
  2  'x, -y, z'
loop_
 _atom_site_type_symbol
 _atom_site_label
 _atom_site_symmetry_multiplicity
 _atom_site_fract_x
 _atom_site_fract_y
 _atom_site_fract_z
 _atom_site_occupancy
  Li  Li0  1  0.25000000  0.50000000  0.11914000  1.0
  Li  Li1  1  0.25058000  0.50000000  0.96452000  1.0
  Li  Li2  1  0.74783000  0.00000000  0.86665000  1.0
  Li  Li3  1  0.75000000  0.00000000  0.03971000  1.0
  Cu  Cu4  1  -0.00000000  0.00000000  0.11914000  1.0
  Si  Si5  1  0.24878000  0.00000000  0.88207000  1.0
  Si  Si6  1  0.25000000  0.00000000  0.03971000  1.0
  Cu  Cu7  1  0.47746000  0.50000000  0.88669000  1.0
  Cu  Cu8  1  0.50000000  0.50000000  0.03971000  1.0
  Si  Si9  1  0.75000000  0.50000000  0.11914000  1.0
  Si  Si10  1  0.75233000  0.50000000  0.95901000  1.0
  Cu  Cu11  1  0.99505000  0.00000000  0.95882000  1.0
  Pd  Pd12  1  -0.00000000  0.50000000  0.03971000  1.0
  Pd  Pd13  1  0.01855000  0.50000000  0.88604000  1.0
  Pd  Pd14  1  0.50000000  0.00000000  0.11914000  1.0
  Pd  Pd15  1  0.50819000  0.00000000  0.95865000  1.0
