# generated using pymatgen
data_Li4Y4In4Sn4C
_symmetry_space_group_name_H-M   Pm
_cell_length_a   6.44949000
_cell_length_b   9.04200000
_cell_length_c   24.82990000
_cell_angle_alpha   90.00000000
_cell_angle_beta   90.00000000
_cell_angle_gamma   90.00000000
_symmetry_Int_Tables_number   6
_chemical_formula_structural   Li4Y4In4Sn4C
_chemical_formula_sum   'Li4 Y4 In4 Sn4 C1'
_cell_volume   1447.98761381
_cell_formula_units_Z   1
loop_
 _symmetry_equiv_pos_site_id
 _symmetry_equiv_pos_as_xyz
  1  'x, y, z'
  2  'x, -y, z'
loop_
 _atom_site_type_symbol
 _atom_site_label
 _atom_site_symmetry_multiplicity
 _atom_site_fract_x
 _atom_site_fract_y
 _atom_site_fract_z
 _atom_site_occupancy
  Li  Li0  1  0.25701000  0.00000000  0.01995000  1.0
  Li  Li1  1  0.28845000  0.50000000  0.02629000  1.0
  Li  Li2  1  0.70907000  0.00000000  0.90274000  1.0
  Li  Li3  1  0.70907000  0.50000000  0.90274000  1.0
  Y  Y4  2  0.53087000  0.21299000  0.10409000  1.0
  Y  Y5  2  0.97271000  0.25000000  0.96758000  1.0
  In  In6  2  0.02904000  0.19774000  0.11185000  1.0
  In  In7  2  0.47271000  0.25000000  0.96758000  1.0
  Sn  Sn8  1  0.20907000  0.00000000  0.90274000  1.0
  Sn  Sn9  1  0.20907000  0.50000000  0.90274000  1.0
  Sn  Sn10  1  0.77439000  0.00000000  0.02991000  1.0
  Sn  Sn11  1  0.77699000  0.50000000  0.05576000  1.0
  C  C12  1  0.70376000  0.00000000  0.12170000  1.0
