# generated using pymatgen
data_Sn16Sb16CO
_symmetry_space_group_name_H-M   'P 1'
_cell_length_a   10.81190000
_cell_length_b   7.64519000
_cell_length_c   28.10890000
_cell_angle_alpha   90.00000000
_cell_angle_beta   90.00000000
_cell_angle_gamma   90.00000000
_symmetry_Int_Tables_number   1
_chemical_formula_structural   Sn16Sb16CO
_chemical_formula_sum   'Sn16 Sb16 C1 O1'
_cell_volume   2323.45440165
_cell_formula_units_Z   1
loop_
 _symmetry_equiv_pos_site_id
 _symmetry_equiv_pos_as_xyz
  1  'x, y, z'
loop_
 _atom_site_type_symbol
 _atom_site_label
 _atom_site_symmetry_multiplicity
 _atom_site_fract_x
 _atom_site_fract_y
 _atom_site_fract_z
 _atom_site_occupancy
  Sn  Sn0  1  0.25000000  0.75000000  0.14424000  1.0
  Sn  Sn1  1  0.00000000  0.75000000  0.04808000  1.0
  Sn  Sn2  1  0.22843000  0.73779000  0.94301000  1.0
  Sn  Sn3  1  0.01814000  0.76769000  0.83714000  1.0
  Sn  Sn4  1  0.75000000  0.75000000  0.14424000  1.0
  Sn  Sn5  1  0.50000000  0.75000000  0.04808000  1.0
  Sn  Sn6  1  0.71658000  0.75837000  0.94934000  1.0
  Sn  Sn7  1  0.53815000  0.73193000  0.84008000  1.0
  Sn  Sn8  1  0.25000000  0.25000000  0.14424000  1.0
  Sn  Sn9  1  0.00000000  0.25000000  0.04808000  1.0
  Sn  Sn10  1  0.22843000  0.26221000  0.94301000  1.0
  Sn  Sn11  1  0.01814000  0.23231000  0.83714000  1.0
  Sn  Sn12  1  0.75000000  0.25000000  0.14424000  1.0
  Sn  Sn13  1  0.50000000  0.25000000  0.04808000  1.0
  Sn  Sn14  1  0.71658000  0.24163000  0.94934000  1.0
  Sn  Sn15  1  0.53815000  0.26807000  0.84008000  1.0
  Sb  Sb16  1  0.00000000  0.00000000  0.14424000  1.0
  Sb  Sb17  1  0.25000000  0.00000000  0.04808000  1.0
  Sb  Sb18  1  0.01573000  0.00000000  0.93148000  1.0
  Sb  Sb19  1  0.31979000  0.00000000  0.85404000  1.0
  Sb  Sb20  1  0.50000000  0.00000000  0.14424000  1.0
  Sb  Sb21  1  0.75000000  0.00000000  0.04808000  1.0
  Sb  Sb22  1  0.44514000  0.00000000  0.94578000  1.0
  Sb  Sb23  1  0.74109000  0.00000000  0.86222000  1.0
  Sb  Sb24  1  0.00000000  0.50000000  0.14424000  1.0
  Sb  Sb25  1  0.25000000  0.50000000  0.04808000  1.0
  Sb  Sb26  1  0.91765000  0.50000000  0.91396000  1.0
  Sb  Sb27  1  0.23548000  0.50000000  0.85465000  1.0
  Sb  Sb28  1  0.50000000  0.50000000  0.14424000  1.0
  Sb  Sb29  1  0.75000000  0.50000000  0.04808000  1.0
  Sb  Sb30  1  0.50586000  0.50000000  0.92753000  1.0
  Sb  Sb31  1  0.80984000  0.50000000  0.81951000  1.0
  C  C32  1  0.24880000  0.00000000  0.71004000  1.0
  O  O33  1  0.25790000  0.00000000  0.66981000  1.0
