# generated using pymatgen
data_Sn16Sb16CO
_symmetry_space_group_name_H-M   Pm
_cell_length_a   10.81190000
_cell_length_b   7.64519000
_cell_length_c   28.10890000
_cell_angle_alpha   90.00000000
_cell_angle_beta   90.00000000
_cell_angle_gamma   90.00000000
_symmetry_Int_Tables_number   6
_chemical_formula_structural   Sn16Sb16CO
_chemical_formula_sum   'Sn16 Sb16 C1 O1'
_cell_volume   2323.45440165
_cell_formula_units_Z   1
loop_
 _symmetry_equiv_pos_site_id
 _symmetry_equiv_pos_as_xyz
  1  'x, y, z'
  2  'x, -y, z'
loop_
 _atom_site_type_symbol
 _atom_site_label
 _atom_site_symmetry_multiplicity
 _atom_site_fract_x
 _atom_site_fract_y
 _atom_site_fract_z
 _atom_site_occupancy
  Sn  Sn0  2  0.00000000  0.25000000  0.95192000  1.0
  Sn  Sn1  2  0.01814000  0.23231000  0.16286000  1.0
  Sn  Sn2  2  0.22843000  0.26221000  0.05699000  1.0
  Sn  Sn3  2  0.25000000  0.25000000  0.85576000  1.0
  Sn  Sn4  2  0.50000000  0.25000000  0.95192000  1.0
  Sn  Sn5  2  0.53815000  0.26807000  0.15992000  1.0
  Sn  Sn6  2  0.71658000  0.24163000  0.05066000  1.0
  Sn  Sn7  2  0.75000000  0.25000000  0.85576000  1.0
  Sb  Sb8  1  0.00000000  0.00000000  0.85576000  1.0
  Sb  Sb9  1  0.00000000  0.50000000  0.85576000  1.0
  Sb  Sb10  1  0.01573000  0.00000000  0.06852000  1.0
  Sb  Sb11  1  0.23548000  0.50000000  0.14535000  1.0
  Sb  Sb12  1  0.25000000  0.00000000  0.95192000  1.0
  Sb  Sb13  1  0.25000000  0.50000000  0.95192000  1.0
  Sb  Sb14  1  0.31979000  0.00000000  0.14596000  1.0
  Sb  Sb15  1  0.44514000  0.00000000  0.05422000  1.0
  Sb  Sb16  1  0.50000000  0.00000000  0.85576000  1.0
  Sb  Sb17  1  0.50000000  0.50000000  0.85576000  1.0
  Sb  Sb18  1  0.50586000  0.50000000  0.07247000  1.0
  Sb  Sb19  1  0.74109000  0.00000000  0.13778000  1.0
  Sb  Sb20  1  0.75000000  0.00000000  0.95192000  1.0
  Sb  Sb21  1  0.75000000  0.50000000  0.95192000  1.0
  Sb  Sb22  1  0.80984000  0.50000000  0.18049000  1.0
  Sb  Sb23  1  0.91765000  0.50000000  0.08604000  1.0
  C  C24  1  0.24880000  0.00000000  0.28996000  1.0
  O  O25  1  0.25790000  0.00000000  0.33019000  1.0
