# generated using pymatgen
data_ZrNi2Sb
_symmetry_space_group_name_H-M   Pm
_cell_length_a   6.34847000
_cell_length_b   8.97809000
_cell_length_c   26.73360000
_cell_angle_alpha   90.00000000
_cell_angle_beta   90.00000000
_cell_angle_gamma   90.00000000
_symmetry_Int_Tables_number   6
_chemical_formula_structural   ZrNi2Sb
_chemical_formula_sum   'Zr8 Ni16 Sb8'
_cell_volume   1523.73860883
_cell_formula_units_Z   8
loop_
 _symmetry_equiv_pos_site_id
 _symmetry_equiv_pos_as_xyz
  1  'x, y, z'
  2  'x, -y, z'
loop_
 _atom_site_type_symbol
 _atom_site_label
 _atom_site_symmetry_multiplicity
 _atom_site_fract_x
 _atom_site_fract_y
 _atom_site_fract_z
 _atom_site_occupancy
  Zr  Zr0  2  0.50000000  0.24998000  0.12532000  1.0
  Zr  Zr1  2  0.50000000  0.25000000  0.95802000  1.0
  Zr  Zr2  1  0.00000000  0.00000000  0.87406000  1.0
  Zr  Zr3  1  0.00000000  0.50000000  0.87406000  1.0
  Zr  Zr4  1  0.99998000  0.50000000  0.04221000  1.0
  Zr  Zr5  1  0.99999000  0.00000000  0.04220000  1.0
  Ni  Ni6  2  0.23975000  0.25001000  0.04639000  1.0
  Ni  Ni7  2  0.25000000  0.25000000  0.87406000  1.0
  Ni  Ni8  2  0.75000000  0.25000000  0.87406000  1.0
  Ni  Ni9  2  0.76022000  0.24999000  0.04640000  1.0
  Ni  Ni10  1  0.25000000  0.00000000  0.95802000  1.0
  Ni  Ni11  1  0.25000000  0.50000000  0.95802000  1.0
  Ni  Ni12  1  0.27297000  0.00000000  0.11823000  1.0
  Ni  Ni13  1  0.27309000  0.50000000  0.11826000  1.0
  Ni  Ni14  1  0.72689000  0.50000000  0.11828000  1.0
  Ni  Ni15  1  0.72704000  0.00000000  0.11827000  1.0
  Ni  Ni16  1  0.75000000  0.00000000  0.95802000  1.0
  Ni  Ni17  1  0.75000000  0.50000000  0.95802000  1.0
  Sb  Sb18  2  0.00000000  0.25000000  0.95802000  1.0
  Sb  Sb19  2  0.00002000  0.25001000  0.13371000  1.0
  Sb  Sb20  1  0.50000000  0.00000000  0.87406000  1.0
  Sb  Sb21  1  0.50000000  0.50000000  0.87406000  1.0
  Sb  Sb22  1  0.50002000  0.50000000  0.03890000  1.0
  Sb  Sb23  1  0.50003000  0.00000000  0.03891000  1.0
