# generated using pymatgen
data_Y4Sc4In4Pd4CO
_symmetry_space_group_name_H-M   'P 1'
_cell_length_a   6.06590000
_cell_length_b   10.11530000
_cell_length_c   24.38870000
_cell_angle_alpha   90.00000000
_cell_angle_beta   90.00000000
_cell_angle_gamma   90.00000000
_symmetry_Int_Tables_number   1
_chemical_formula_structural   Y4Sc4In4Pd4CO
_chemical_formula_sum   'Y4 Sc4 In4 Pd4 C1 O1'
_cell_volume   1496.45156789
_cell_formula_units_Z   1
loop_
 _symmetry_equiv_pos_site_id
 _symmetry_equiv_pos_as_xyz
  1  'x, y, z'
loop_
 _atom_site_type_symbol
 _atom_site_label
 _atom_site_symmetry_multiplicity
 _atom_site_fract_x
 _atom_site_fract_y
 _atom_site_fract_z
 _atom_site_occupancy
  Y  Y0  1  0.18414000  0.25000000  0.97001000  1.0
  Y  Y1  1  0.53325000  0.25007000  0.08919000  1.0
  Y  Y2  1  0.18414000  0.75000000  0.97001000  1.0
  Y  Y3  1  0.52694000  0.75004000  0.08584000  1.0
  Sc  Sc4  1  0.50000000  0.00000000  0.91003000  1.0
  Sc  Sc5  1  0.78233000  0.99949000  0.02112000  1.0
  Sc  Sc6  1  0.50000000  0.50000000  0.91003000  1.0
  Sc  Sc7  1  0.78244000  0.50051000  0.02111000  1.0
  In  In8  1  0.00000000  0.00000000  0.91003000  1.0
  In  In9  1  0.26315000  0.00258000  0.05395000  1.0
  In  In10  1  0.00000000  0.50000000  0.91003000  1.0
  In  In11  1  0.26336000  0.49748000  0.05385000  1.0
  Pd  Pd12  1  0.68414000  0.25000000  0.97001000  1.0
  Pd  Pd13  1  0.99534000  0.25016000  0.07520000  1.0
  Pd  Pd14  1  0.68414000  0.75000000  0.97001000  1.0
  Pd  Pd15  1  0.99731000  0.75000000  0.06887000  1.0
  C  C16  1  0.95683000  0.25137000  0.15644000  1.0
  O  O17  1  0.03254000  0.25185000  0.20052000  1.0
