# generated using pymatgen
data_YIr
_symmetry_space_group_name_H-M   'P 1'
_cell_length_a   3.44080000
_cell_length_b   4.86602500
_cell_length_c   27.29900000
_cell_angle_alpha   90.00000000
_cell_angle_beta   90.00000000
_cell_angle_gamma   90.00000000
_symmetry_Int_Tables_number   1
_chemical_formula_structural   YIr
_chemical_formula_sum   'Y4 Ir4'
_cell_volume   457.06767077
_cell_formula_units_Z   4
loop_
 _symmetry_equiv_pos_site_id
 _symmetry_equiv_pos_as_xyz
  1  'x, y, z'
loop_
 _atom_site_type_symbol
 _atom_site_label
 _atom_site_symmetry_multiplicity
 _atom_site_fract_x
 _atom_site_fract_y
 _atom_site_fract_z
 _atom_site_occupancy
  Y  Y0  1  0.50000000  0.50000000  0.86631000  1.0
  Y  Y1  1  0.50000000  0.00000000  0.95544000  1.0
  Y  Y2  1  0.50000000  0.50000000  0.04625250  1.0
  Y  Y3  1  0.50000000  0.00000000  0.13726000  1.0
  Ir  Ir4  1  0.00000000  0.00000000  0.86631000  1.0
  Ir  Ir5  1  0.00000000  0.50000000  0.95544000  1.0
  Ir  Ir6  1  0.00000000  0.00000000  0.04835000  1.0
  Ir  Ir7  1  0.00000000  0.50000000  0.12972000  1.0
