# generated using pymatgen
data_Ti16Be16C
_symmetry_space_group_name_H-M   'P 1'
_cell_length_a   5.87849000
_cell_length_b   8.31345000
_cell_length_c   26.23510000
_cell_angle_alpha   90.00000000
_cell_angle_beta   90.00000000
_cell_angle_gamma   90.00000000
_symmetry_Int_Tables_number   1
_chemical_formula_structural   Ti16Be16C
_chemical_formula_sum   'Ti16 Be16 C1'
_cell_volume   1282.12331219
_cell_formula_units_Z   1
loop_
 _symmetry_equiv_pos_site_id
 _symmetry_equiv_pos_as_xyz
  1  'x, y, z'
loop_
 _atom_site_type_symbol
 _atom_site_label
 _atom_site_symmetry_multiplicity
 _atom_site_fract_x
 _atom_site_fract_y
 _atom_site_fract_z
 _atom_site_occupancy
  Ti  Ti0  1  0.25000000  0.25000000  0.88117000  1.0
  Ti  Ti1  1  0.25000000  0.00000000  0.96039000  1.0
  Ti  Ti2  1  0.24544000  0.25109000  0.04006000  1.0
  Ti  Ti3  1  0.29471000  0.00000000  0.11956000  1.0
  Ti  Ti4  1  0.25000000  0.75000000  0.88117000  1.0
  Ti  Ti5  1  0.25000000  0.50000000  0.96039000  1.0
  Ti  Ti6  1  0.24544000  0.74891000  0.04006000  1.0
  Ti  Ti7  1  0.21300000  0.50000000  0.11778000  1.0
  Ti  Ti8  1  0.75000000  0.25000000  0.88117000  1.0
  Ti  Ti9  1  0.75000000  0.00000000  0.96039000  1.0
  Ti  Ti10  1  0.75456000  0.25109000  0.04006000  1.0
  Ti  Ti11  1  0.70529000  0.00000000  0.11956000  1.0
  Ti  Ti12  1  0.75000000  0.75000000  0.88117000  1.0
  Ti  Ti13  1  0.75000000  0.50000000  0.96039000  1.0
  Ti  Ti14  1  0.75456000  0.74891000  0.04006000  1.0
  Ti  Ti15  1  0.78700000  0.50000000  0.11778000  1.0
  Be  Be16  1  0.00000000  0.00000000  0.88117000  1.0
  Be  Be17  1  0.00000000  0.25000000  0.96039000  1.0
  Be  Be18  1  0.00000000  0.00000000  0.04513000  1.0
  Be  Be19  1  0.00000000  0.20385000  0.12554000  1.0
  Be  Be20  1  0.00000000  0.50000000  0.88117000  1.0
  Be  Be21  1  0.00000000  0.75000000  0.96039000  1.0
  Be  Be22  1  0.00000000  0.50000000  0.03623000  1.0
  Be  Be23  1  0.00000000  0.79615000  0.12554000  1.0
  Be  Be24  1  0.50000000  0.00000000  0.88117000  1.0
  Be  Be25  1  0.50000000  0.25000000  0.96039000  1.0
  Be  Be26  1  0.50000000  0.00000000  0.03574000  1.0
  Be  Be27  1  0.50000000  0.27053000  0.11376000  1.0
  Be  Be28  1  0.50000000  0.50000000  0.88117000  1.0
  Be  Be29  1  0.50000000  0.75000000  0.96039000  1.0
  Be  Be30  1  0.50000000  0.50000000  0.04623000  1.0
  Be  Be31  1  0.50000000  0.72947000  0.11376000  1.0
  C  C32  1  0.00000000  0.00000000  0.15113000  1.0
