# generated using pymatgen
data_CaSn3
_symmetry_space_group_name_H-M   Pmm2
_cell_length_a   4.81463500
_cell_length_b   6.80892000
_cell_length_c   25.10670000
_cell_angle_alpha   90.00000000
_cell_angle_beta   90.00000000
_cell_angle_gamma   90.00000000
_symmetry_Int_Tables_number   25
_chemical_formula_structural   CaSn3
_chemical_formula_sum   'Ca2 Sn6'
_cell_volume   823.05950257
_cell_formula_units_Z   2
loop_
 _symmetry_equiv_pos_site_id
 _symmetry_equiv_pos_as_xyz
  1  'x, y, z'
  2  '-x, -y, z'
  3  '-x, y, z'
  4  'x, -y, z'
loop_
 _atom_site_type_symbol
 _atom_site_label
 _atom_site_symmetry_multiplicity
 _atom_site_fract_x
 _atom_site_fract_y
 _atom_site_fract_z
 _atom_site_occupancy
  Ca  Ca0  1  0.00000000  0.00000000  0.90623500  1.0
  Ca  Ca1  1  0.00000000  0.50000000  0.03390000  1.0
  Sn  Sn2  2  0.50000000  0.25000500  0.10170000  1.0
  Sn  Sn3  2  0.50000000  0.26254000  0.96469000  1.0
  Sn  Sn4  1  0.00000000  0.00000000  0.03390000  1.0
  Sn  Sn5  1  0.00000000  0.50000000  0.90270000  1.0
