data_image0
_chemical_formula_structural       Zr16Ti8Al8C
_chemical_formula_sum              "Zr16 Ti8 Al8 C1"
_cell_length_a       6.81091
_cell_length_b       9.63207
_cell_length_c       27.2241
_cell_angle_alpha    90
_cell_angle_beta     90
_cell_angle_gamma    90

_space_group_name_H-M_alt    "P 1"
_space_group_IT_number       1

loop_
  _space_group_symop_operation_xyz
  'x, y, z'

loop_
  _atom_site_type_symbol
  _atom_site_label
  _atom_site_symmetry_multiplicity
  _atom_site_fract_x
  _atom_site_fract_y
  _atom_site_fract_z
  _atom_site_occupancy
  Zr  Zr1       1.0  0.25000  0.00000  0.95577  1.0000
  Zr  Zr2       1.0  0.75000  0.50000  0.95577  1.0000
  Zr  Zr3       1.0  0.75000  0.00000  0.95577  1.0000
  Zr  Zr4       1.0  0.25000  0.50000  0.95577  1.0000
  Zr  Zr5       1.0  0.75000  0.75000  0.86732  1.0000
  Zr  Zr6       1.0  0.25000  0.25000  0.86732  1.0000
  Zr  Zr7       1.0  0.25000  0.75000  0.86732  1.0000
  Zr  Zr8       1.0  0.75000  0.25000  0.86732  1.0000
  Zr  Zr9       1.0  0.25580  0.47780  0.13739  1.0000
  Zr  Zr10      1.0  0.74483  0.96845  0.13601  1.0000
  Zr  Zr11      1.0  0.74483  0.53158  0.13601  1.0000
  Zr  Zr12      1.0  0.25582  0.02223  0.13740  1.0000
  Zr  Zr13      1.0  0.74616  0.24998  0.03666  1.0000
  Zr  Zr14      1.0  0.25738  0.74997  0.03911  1.0000
  Zr  Zr15      1.0  0.24931  0.25001  0.04747  1.0000
  Zr  Zr16      1.0  0.74807  0.75000  0.04696  1.0000
  Ti  Ti1       1.0  0.00000  0.00000  0.86732  1.0000
  Ti  Ti2       1.0  0.50000  0.25000  0.95577  1.0000
  Ti  Ti3       1.0  0.50000  0.75000  0.95577  1.0000
  Ti  Ti4       1.0  0.00000  0.50000  0.86732  1.0000
  Ti  Ti5       1.0  0.99078  0.49661  0.05539  1.0000
  Ti  Ti6       1.0  0.45841  0.75002  0.12754  1.0000
  Ti  Ti7       1.0  0.55534  0.25003  0.12833  1.0000
  Ti  Ti8       1.0  0.99086  0.00336  0.05540  1.0000
  Al  Al1       1.0  0.00000  0.75000  0.95577  1.0000
  Al  Al2       1.0  0.50000  0.00000  0.86732  1.0000
  Al  Al3       1.0  0.00000  0.25000  0.95577  1.0000
  Al  Al4       1.0  0.50000  0.50000  0.86732  1.0000
  Al  Al5       1.0  0.96552  0.25000  0.12930  1.0000
  Al  Al6       1.0  0.50280  0.49835  0.04848  1.0000
  Al  Al7       1.0  0.03419  0.75001  0.12697  1.0000
  Al  Al8       1.0  0.50274  0.00162  0.04848  1.0000
  C   C1        1.0  0.26254  0.25001  0.13939  1.0000
