# generated using pymatgen
data_Zr16Ti8Al8C
_symmetry_space_group_name_H-M   'P 1'
_cell_length_a   9.63207000
_cell_length_b   6.81091000
_cell_length_c   27.22410000
_cell_angle_alpha   90.00000000
_cell_angle_beta   90.00000000
_cell_angle_gamma   90.00000000
_symmetry_Int_Tables_number   1
_chemical_formula_structural   Zr16Ti8Al8C
_chemical_formula_sum   'Zr16 Ti8 Al8 C1'
_cell_volume   1785.98703944
_cell_formula_units_Z   1
loop_
 _symmetry_equiv_pos_site_id
 _symmetry_equiv_pos_as_xyz
  1  'x, y, z'
loop_
 _atom_site_type_symbol
 _atom_site_label
 _atom_site_symmetry_multiplicity
 _atom_site_fract_x
 _atom_site_fract_y
 _atom_site_fract_z
 _atom_site_occupancy
  Zr  Zr0  1  0.74999000  0.25000000  0.04423000  1.0
  Zr  Zr1  1  0.24999000  0.75000000  0.04423000  1.0
  Zr  Zr2  1  0.75001000  0.75000000  0.04423000  1.0
  Zr  Zr3  1  0.25001000  0.25000000  0.04423000  1.0
  Zr  Zr4  1  0.50000000  0.75000000  0.13268000  1.0
  Zr  Zr5  1  0.00000000  0.25000000  0.13268000  1.0
  Zr  Zr6  1  0.50000000  0.25000000  0.13268000  1.0
  Zr  Zr7  1  0.00000000  0.75000000  0.13268000  1.0
  Zr  Zr8  1  0.22779000  0.25580000  0.86261000  1.0
  Zr  Zr9  1  0.71844000  0.74483000  0.86399000  1.0
  Zr  Zr10  1  0.28156000  0.74483000  0.86399000  1.0
  Zr  Zr11  1  0.77221000  0.25580000  0.86261000  1.0
  Zr  Zr12  1  0.00000000  0.74616000  0.96334000  1.0
  Zr  Zr13  1  0.50000000  0.25738000  0.96089000  1.0
  Zr  Zr14  1  0.00000000  0.24931000  0.95253000  1.0
  Zr  Zr15  1  0.50000000  0.74807000  0.95304000  1.0
  Ti  Ti16  1  0.74999000  0.00000000  0.13268000  1.0
  Ti  Ti17  1  0.00000000  0.50000000  0.04423000  1.0
  Ti  Ti18  1  0.50000000  0.50000000  0.04423000  1.0
  Ti  Ti19  1  0.25001000  0.00000000  0.13268000  1.0
  Ti  Ti20  1  0.24660000  0.99078000  0.94461000  1.0
  Ti  Ti21  1  0.50000000  0.45841000  0.87246000  1.0
  Ti  Ti22  1  0.00000000  0.55534000  0.87167000  1.0
  Ti  Ti23  1  0.75340000  0.99078000  0.94461000  1.0
  Al  Al24  1  0.50000000  0.00000000  0.04423000  1.0
  Al  Al25  1  0.74999000  0.50000000  0.13268000  1.0
  Al  Al26  1  0.00000000  0.00000000  0.04423000  1.0
  Al  Al27  1  0.25001000  0.50000000  0.13268000  1.0
  Al  Al28  1  0.00000000  0.96552000  0.87070000  1.0
  Al  Al29  1  0.24834000  0.50280000  0.95152000  1.0
  Al  Al30  1  0.50000000  0.03419000  0.87303000  1.0
  Al  Al31  1  0.75166000  0.50280000  0.95152000  1.0
  C  C32  1  0.00000000  0.26254000  0.86061000  1.0
