# generated using pymatgen
data_LiMgPdPb
_symmetry_space_group_name_H-M   'P 1'
_cell_length_a   6.68280000
_cell_length_b   6.68280000
_cell_length_c   25.01210000
_cell_angle_alpha   90.00000000
_cell_angle_beta   90.00000000
_cell_angle_gamma   90.00000000
_symmetry_Int_Tables_number   1
_chemical_formula_structural   LiMgPdPb
_chemical_formula_sum   'Li4 Mg4 Pd4 Pb4'
_cell_volume   1117.03577977
_cell_formula_units_Z   4
loop_
 _symmetry_equiv_pos_site_id
 _symmetry_equiv_pos_as_xyz
  1  'x, y, z'
loop_
 _atom_site_type_symbol
 _atom_site_label
 _atom_site_symmetry_multiplicity
 _atom_site_fract_x
 _atom_site_fract_y
 _atom_site_fract_z
 _atom_site_occupancy
  Li  Li0  1  0.00000000  0.00000000  0.89981000  1
  Li  Li1  1  0.50000000  0.00000000  0.03398000  1
  Li  Li2  1  0.00000000  0.50000000  0.03398000  1
  Li  Li3  1  0.50000000  0.50000000  0.89981000  1
  Mg  Mg4  1  0.75000000  0.75000000  0.96660000  1
  Mg  Mg5  1  0.25115000  0.74885000  0.09566000  1
  Mg  Mg6  1  0.74885000  0.25115000  0.09566000  1
  Mg  Mg7  1  0.25000000  0.25000000  0.96660000  1
  Pd  Pd8  1  0.50000000  0.00000000  0.89981000  1
  Pd  Pd9  1  0.00000000  0.00000000  0.03524000  1
  Pd  Pd10  1  0.50000000  0.50000000  0.03500000  1
  Pd  Pd11  1  0.00000000  0.50000000  0.89981000  1
  Pb  Pb12  1  0.75000000  0.25000000  0.96660000  1
  Pb  Pb13  1  0.24955500  0.24955500  0.11145000  1
  Pb  Pb14  1  0.75044500  0.75044500  0.11145000  1
  Pb  Pb15  1  0.25000000  0.75000000  0.96660000  1
