# generated using pymatgen
data_Be16Cu16C
_symmetry_space_group_name_H-M   'P 1'
_cell_length_a   5.39777000
_cell_length_b   7.63360000
_cell_length_c   25.72520000
_cell_angle_alpha   90.00000000
_cell_angle_beta   90.00000000
_cell_angle_gamma   90.00000000
_symmetry_Int_Tables_number   1
_chemical_formula_structural   Be16Cu16C
_chemical_formula_sum   'Be16 Cu16 C1'
_cell_volume   1059.99187006
_cell_formula_units_Z   1
loop_
 _symmetry_equiv_pos_site_id
 _symmetry_equiv_pos_as_xyz
  1  'x, y, z'
loop_
 _atom_site_type_symbol
 _atom_site_label
 _atom_site_symmetry_multiplicity
 _atom_site_fract_x
 _atom_site_fract_y
 _atom_site_fract_z
 _atom_site_occupancy
  Be  Be0  1  0.00000000  0.00000000  0.88872000  1.0
  Be  Be1  1  0.00000000  0.25000000  0.96291000  1.0
  Be  Be2  1  0.00000000  0.00000000  0.03607000  1.0
  Be  Be3  1  0.00000000  0.21844000  0.12198000  1.0
  Be  Be4  1  0.00000000  0.50000000  0.88872000  1.0
  Be  Be5  1  0.00000000  0.75000000  0.96291000  1.0
  Be  Be6  1  0.00000000  0.50000000  0.03462000  1.0
  Be  Be7  1  0.00000000  0.78156000  0.12198000  1.0
  Be  Be8  1  0.50000000  0.00000000  0.88872000  1.0
  Be  Be9  1  0.50000000  0.25000000  0.96291000  1.0
  Be  Be10  1  0.50000000  0.00000000  0.03186000  1.0
  Be  Be11  1  0.50000000  0.26601000  0.10784000  1.0
  Be  Be12  1  0.50000000  0.50000000  0.88872000  1.0
  Be  Be13  1  0.50000000  0.75000000  0.96291000  1.0
  Be  Be14  1  0.50000000  0.50000000  0.03853000  1.0
  Be  Be15  1  0.50000000  0.73399000  0.10784000  1.0
  Cu  Cu16  1  0.25000000  0.25000000  0.88872000  1.0
  Cu  Cu17  1  0.25000000  0.00000000  0.96291000  1.0
  Cu  Cu18  1  0.24412000  0.25304000  0.03676000  1.0
  Cu  Cu19  1  0.29042000  0.00000000  0.10601000  1.0
  Cu  Cu20  1  0.25000000  0.75000000  0.88872000  1.0
  Cu  Cu21  1  0.25000000  0.50000000  0.96291000  1.0
  Cu  Cu22  1  0.24412000  0.74696000  0.03676000  1.0
  Cu  Cu23  1  0.23496000  0.50000000  0.11067000  1.0
  Cu  Cu24  1  0.75000000  0.25000000  0.88872000  1.0
  Cu  Cu25  1  0.75000000  0.00000000  0.96291000  1.0
  Cu  Cu26  1  0.75588000  0.25304000  0.03676000  1.0
  Cu  Cu27  1  0.70958000  0.00000000  0.10601000  1.0
  Cu  Cu28  1  0.75000000  0.75000000  0.88872000  1.0
  Cu  Cu29  1  0.75000000  0.50000000  0.96291000  1.0
  Cu  Cu30  1  0.75588000  0.74696000  0.03676000  1.0
  Cu  Cu31  1  0.76504000  0.50000000  0.11067000  1.0
  C  C32  1  0.00000000  0.00000000  0.14321000  1.0
