# generated using pymatgen
data_Be16Cu16C
_symmetry_space_group_name_H-M   Pmm2
_cell_length_a   5.39777000
_cell_length_b   7.63360000
_cell_length_c   25.72520000
_cell_angle_alpha   90.00000000
_cell_angle_beta   90.00000000
_cell_angle_gamma   90.00000000
_symmetry_Int_Tables_number   25
_chemical_formula_structural   Be16Cu16C
_chemical_formula_sum   'Be16 Cu16 C1'
_cell_volume   1059.99187006
_cell_formula_units_Z   1
loop_
 _symmetry_equiv_pos_site_id
 _symmetry_equiv_pos_as_xyz
  1  'x, y, z'
  2  '-x, -y, z'
  3  '-x, y, z'
  4  'x, -y, z'
loop_
 _atom_site_type_symbol
 _atom_site_label
 _atom_site_symmetry_multiplicity
 _atom_site_fract_x
 _atom_site_fract_y
 _atom_site_fract_z
 _atom_site_occupancy
  Be  Be0  2  0.00000000  0.21844000  0.12198000  1.0
  Be  Be1  2  0.00000000  0.25000000  0.96291000  1.0
  Be  Be2  2  0.50000000  0.25000000  0.96291000  1.0
  Be  Be3  2  0.50000000  0.26601000  0.10784000  1.0
  Be  Be4  1  0.00000000  0.00000000  0.03607000  1.0
  Be  Be5  1  0.00000000  0.00000000  0.88872000  1.0
  Be  Be6  1  0.00000000  0.50000000  0.03462000  1.0
  Be  Be7  1  0.00000000  0.50000000  0.88872000  1.0
  Be  Be8  1  0.50000000  0.00000000  0.03186000  1.0
  Be  Be9  1  0.50000000  0.00000000  0.88872000  1.0
  Be  Be10  1  0.50000000  0.50000000  0.03853000  1.0
  Be  Be11  1  0.50000000  0.50000000  0.88872000  1.0
  Cu  Cu12  4  0.24412000  0.25304000  0.03676000  1.0
  Cu  Cu13  4  0.25000000  0.25000000  0.88872000  1.0
  Cu  Cu14  2  0.23496000  0.50000000  0.11067000  1.0
  Cu  Cu15  2  0.25000000  0.00000000  0.96291000  1.0
  Cu  Cu16  2  0.25000000  0.50000000  0.96291000  1.0
  Cu  Cu17  2  0.29042000  0.00000000  0.10601000  1.0
  C  C18  1  0.00000000  0.00000000  0.14321000  1.0
