# generated using pymatgen
data_Ti12Sn4C
_symmetry_space_group_name_H-M   'P 1'
_cell_length_a   8.35210000
_cell_length_b   5.90582000
_cell_length_c   24.42940000
_cell_angle_alpha   90.00000000
_cell_angle_beta   90.00000000
_cell_angle_gamma   90.00000000
_symmetry_Int_Tables_number   1
_chemical_formula_structural   Ti12Sn4C
_chemical_formula_sum   'Ti12 Sn4 C1'
_cell_volume   1205.00456539
_cell_formula_units_Z   1
loop_
 _symmetry_equiv_pos_site_id
 _symmetry_equiv_pos_as_xyz
  1  'x, y, z'
loop_
 _atom_site_type_symbol
 _atom_site_label
 _atom_site_symmetry_multiplicity
 _atom_site_fract_x
 _atom_site_fract_y
 _atom_site_fract_z
 _atom_site_occupancy
  Ti  Ti0  1  0.73870000  0.50052000  0.09037000  1.0
  Ti  Ti1  1  0.50000000  0.23679000  0.02900000  1.0
  Ti  Ti2  1  0.50000000  0.76376000  0.02910000  1.0
  Ti  Ti3  1  0.75000000  0.00000000  0.96978000  1.0
  Ti  Ti4  1  0.50000000  0.75000000  0.90934000  1.0
  Ti  Ti5  1  0.50000000  0.25000000  0.90934000  1.0
  Ti  Ti6  1  0.26130000  0.50052000  0.09037000  1.0
  Ti  Ti7  1  0.00000000  0.25368000  0.02417000  1.0
  Ti  Ti8  1  0.00000000  0.74651000  0.02412000  1.0
  Ti  Ti9  1  0.25000000  0.00000000  0.96978000  1.0
  Ti  Ti10  1  0.00000000  0.75000000  0.90934000  1.0
  Ti  Ti11  1  0.00000000  0.25000000  0.90934000  1.0
  Sn  Sn12  1  0.76316000  0.00034000  0.09352000  1.0
  Sn  Sn13  1  0.75000000  0.50000000  0.96978000  1.0
  Sn  Sn14  1  0.23684000  0.00034000  0.09352000  1.0
  Sn  Sn15  1  0.25000000  0.50000000  0.96978000  1.0
  C  C16  1  0.50000000  0.49994000  0.08482000  1.0
