# generated using pymatgen
data_Ti12Sn4C
_symmetry_space_group_name_H-M   Pm
_cell_length_a   5.90582000
_cell_length_b   8.35210000
_cell_length_c   24.42940000
_cell_angle_alpha   90.00000000
_cell_angle_beta   90.00000000
_cell_angle_gamma   90.00000000
_symmetry_Int_Tables_number   6
_chemical_formula_structural   Ti12Sn4C
_chemical_formula_sum   'Ti12 Sn4 C1'
_cell_volume   1205.00456539
_cell_formula_units_Z   1
loop_
 _symmetry_equiv_pos_site_id
 _symmetry_equiv_pos_as_xyz
  1  'x, y, z'
  2  'x, -y, z'
loop_
 _atom_site_type_symbol
 _atom_site_label
 _atom_site_symmetry_multiplicity
 _atom_site_fract_x
 _atom_site_fract_y
 _atom_site_fract_z
 _atom_site_occupancy
  Ti  Ti0  2  0.00000000  0.25000000  0.03022000  1.0
  Ti  Ti1  2  0.50052000  0.26130000  0.90963000  1.0
  Ti  Ti2  1  0.23679000  0.50000000  0.97100000  1.0
  Ti  Ti3  1  0.25000000  0.00000000  0.09066000  1.0
  Ti  Ti4  1  0.25000000  0.50000000  0.09066000  1.0
  Ti  Ti5  1  0.25368000  0.00000000  0.97583000  1.0
  Ti  Ti6  1  0.74651000  0.00000000  0.97588000  1.0
  Ti  Ti7  1  0.75000000  0.00000000  0.09066000  1.0
  Ti  Ti8  1  0.75000000  0.50000000  0.09066000  1.0
  Ti  Ti9  1  0.76376000  0.50000000  0.97090000  1.0
  Sn  Sn10  2  0.00034000  0.23684000  0.90648000  1.0
  Sn  Sn11  2  0.50000000  0.25000000  0.03022000  1.0
  C  C12  1  0.49994000  0.50000000  0.91518000  1.0
