# generated using pymatgen
data_Li8Ag4Bi4CO
_symmetry_space_group_name_H-M   'P 1'
_cell_length_a   6.92564000
_cell_length_b   6.92564000
_cell_length_c   25.19420000
_cell_angle_alpha   90.00000000
_cell_angle_beta   90.00000000
_cell_angle_gamma   90.00000000
_symmetry_Int_Tables_number   1
_chemical_formula_structural   Li8Ag4Bi4CO
_chemical_formula_sum   'Li8 Ag4 Bi4 C1 O1'
_cell_volume   1208.42693908
_cell_formula_units_Z   1
loop_
 _symmetry_equiv_pos_site_id
 _symmetry_equiv_pos_as_xyz
  1  'x, y, z'
loop_
 _atom_site_type_symbol
 _atom_site_label
 _atom_site_symmetry_multiplicity
 _atom_site_fract_x
 _atom_site_fract_y
 _atom_site_fract_z
 _atom_site_occupancy
  Li  Li0  1  0.00459000  0.99541000  0.97465000  1
  Li  Li1  1  0.00000000  0.50001000  0.10308000  1
  Li  Li2  1  0.49999000  1.00000000  0.10308000  1
  Li  Li3  1  0.49537000  0.50463000  0.97467000  1
  Li  Li4  1  0.24999500  0.75000500  0.03436000  1
  Li  Li5  1  0.75000000  0.74997000  0.89720000  1
  Li  Li6  1  0.74999500  0.25000500  0.03436000  1
  Li  Li7  1  0.25003000  0.25000000  0.89720000  1
  Ag  Ag8  1  0.25002500  0.74997500  0.89170000  1
  Ag  Ag9  1  0.75000000  0.75001000  0.03436000  1
  Ag  Ag10  1  0.74978000  0.25022000  0.90676000  1
  Ag  Ag11  1  0.24999000  0.25000000  0.03436000  1
  Bi  Bi12  1  0.99999500  0.00000500  0.10308000  1
  Bi  Bi13  1  0.49999500  0.50000500  0.10308000  1
  Bi  Bi14  1  0.00833000  0.50830000  0.95730000  1
  Bi  Bi15  1  0.49170000  0.99167000  0.95730000  1
  C  C16  1  0.25001000  0.74999000  0.80596000  1
  O  O17  1  0.24994000  0.75006000  0.76036000  1
