# generated using pymatgen
data_Li8Ag4Bi4CO
_symmetry_space_group_name_H-M   Cm
_cell_length_a   9.79433402
_cell_length_b   9.79433402
_cell_length_c   25.19420000
_cell_angle_alpha   90.00000000
_cell_angle_beta   90.00000000
_cell_angle_gamma   90.00000000
_symmetry_Int_Tables_number   8
_chemical_formula_structural   Li8Ag4Bi4CO
_chemical_formula_sum   'Li16 Ag8 Bi8 C2 O2'
_cell_volume   2416.85387817
_cell_formula_units_Z   2
loop_
 _symmetry_equiv_pos_site_id
 _symmetry_equiv_pos_as_xyz
  1  'x, y, z'
  2  'x, -y, z'
  3  'x+1/2, y+1/2, z'
  4  'x+1/2, -y+1/2, z'
loop_
 _atom_site_type_symbol
 _atom_site_label
 _atom_site_symmetry_multiplicity
 _atom_site_fract_x
 _atom_site_fract_y
 _atom_site_fract_z
 _atom_site_occupancy
  Li  Li0  4  0.00001500  0.25001500  0.10280000  1.0
  Li  Li1  4  0.24999500  0.24999500  0.89692000  1.0
  Li  Li2  2  0.00459000  0.00000000  0.02535000  1.0
  Li  Li3  2  0.24999500  0.50000000  0.96564000  1.0
  Li  Li4  2  0.24999500  0.00000000  0.96564000  1.0
  Li  Li5  2  0.49537000  0.00000000  0.02533000  1.0
  Ag  Ag6  4  0.49999500  0.25000500  0.96564000  1.0
  Ag  Ag7  2  0.24978000  0.50000000  0.09324000  1.0
  Ag  Ag8  2  0.25002500  0.00000000  0.10830000  1.0
  Bi  Bi9  4  0.25001500  0.24168500  0.04270000  1.0
  Bi  Bi10  2  0.49999500  0.00000000  0.89692000  1.0
  Bi  Bi11  2  0.49999500  0.50000000  0.89692000  1.0
  C  C12  2  0.25001000  0.00000000  0.19404000  1.0
  O  O13  2  0.24994000  0.00000000  0.23964000  1.0
