# generated using pymatgen
data_MgPd
_symmetry_space_group_name_H-M   'P 1'
_cell_length_a   3.21551500
_cell_length_b   4.54742500
_cell_length_c   26.82110000
_cell_angle_alpha   90.00000000
_cell_angle_beta   90.00000000
_cell_angle_gamma   90.00000000
_symmetry_Int_Tables_number   1
_chemical_formula_structural   MgPd
_chemical_formula_sum   'Mg4 Pd4'
_cell_volume   392.18652722
_cell_formula_units_Z   4
loop_
 _symmetry_equiv_pos_site_id
 _symmetry_equiv_pos_as_xyz
  1  'x, y, z'
loop_
 _atom_site_type_symbol
 _atom_site_label
 _atom_site_symmetry_multiplicity
 _atom_site_fract_x
 _atom_site_fract_y
 _atom_site_fract_z
 _atom_site_occupancy
  Mg  Mg0  1  0.00000000  0.00000000  0.87284000  1.0
  Mg  Mg1  1  0.00000000  0.50000000  0.95761000  1.0
  Mg  Mg2  1  0.00000000  0.00000000  0.04138000  1.0
  Mg  Mg3  1  0.00000000  0.50000000  0.13067000  1.0
  Pd  Pd4  1  0.50000000  0.50000000  0.87284000  1.0
  Pd  Pd5  1  0.50000000  0.00000000  0.95761000  1.0
  Pd  Pd6  1  0.50000000  0.50000000  0.04294000  1.0
  Pd  Pd7  1  0.50000000  0.00000000  0.12234000  1.0
