# generated using pymatgen
data_Li8Sc8Ga8Pd8C
_symmetry_space_group_name_H-M   'P 1'
_cell_length_a   8.98434000
_cell_length_b   6.35289000
_cell_length_c   26.73830000
_cell_angle_alpha   90.00000000
_cell_angle_beta   90.00000000
_cell_angle_gamma   90.00000000
_symmetry_Int_Tables_number   1
_chemical_formula_structural   Li8Sc8Ga8Pd8C
_chemical_formula_sum   'Li8 Sc8 Ga8 Pd8 C1'
_cell_volume   1526.12921479
_cell_formula_units_Z   1
loop_
 _symmetry_equiv_pos_site_id
 _symmetry_equiv_pos_as_xyz
  1  'x, y, z'
loop_
 _atom_site_type_symbol
 _atom_site_label
 _atom_site_symmetry_multiplicity
 _atom_site_fract_x
 _atom_site_fract_y
 _atom_site_fract_z
 _atom_site_occupancy
  Li  Li0  1  0.00000000  0.75000000  0.04200000  1.0
  Li  Li1  1  0.50000000  0.75000000  0.04200000  1.0
  Li  Li2  1  0.25000000  0.25000000  0.12600000  1.0
  Li  Li3  1  0.75000000  0.25000000  0.12600000  1.0
  Li  Li4  1  0.50000000  0.57313000  0.81904000  1.0
  Li  Li5  1  0.00000000  0.72059000  0.82608000  1.0
  Li  Li6  1  0.74986000  0.25067000  0.95588000  1.0
  Li  Li7  1  0.25014000  0.25067000  0.95588000  1.0
  Sc  Sc8  1  0.25000000  0.00000000  0.04200000  1.0
  Sc  Sc9  1  0.75000000  0.00000000  0.04200000  1.0
  Sc  Sc10  1  0.50000000  0.50000000  0.12600000  1.0
  Sc  Sc11  1  0.00000000  0.50000000  0.12600000  1.0
  Sc  Sc12  1  0.72804000  0.94585000  0.87633000  1.0
  Sc  Sc13  1  0.27196000  0.94585000  0.87633000  1.0
  Sc  Sc14  1  0.00000000  0.51997000  0.94933000  1.0
  Sc  Sc15  1  0.50000000  0.51642000  0.94890000  1.0
  Ga  Ga16  1  0.00000000  0.00000000  0.12600000  1.0
  Ga  Ga17  1  0.50000000  0.00000000  0.12600000  1.0
  Ga  Ga18  1  0.75000000  0.50000000  0.04200000  1.0
  Ga  Ga19  1  0.25000000  0.50000000  0.04200000  1.0
  Ga  Ga20  1  0.50000000  0.00098000  0.95971000  1.0
  Ga  Ga21  1  0.00000000  0.99014000  0.96053000  1.0
  Ga  Ga22  1  0.23496000  0.48740000  0.86846000  1.0
  Ga  Ga23  1  0.76504000  0.48740000  0.86846000  1.0
  Pd  Pd24  1  0.00000000  0.25000000  0.04200000  1.0
  Pd  Pd25  1  0.50000000  0.25000000  0.04200000  1.0
  Pd  Pd26  1  0.25000000  0.75000000  0.12600000  1.0
  Pd  Pd27  1  0.75000000  0.75000000  0.12600000  1.0
  Pd  Pd28  1  0.50000000  0.23782000  0.87646000  1.0
  Pd  Pd29  1  0.00000000  0.13773000  0.87256000  1.0
  Pd  Pd30  1  0.74743000  0.74731000  0.96188000  1.0
  Pd  Pd31  1  0.25257000  0.74731000  0.96188000  1.0
  C  C32  1  0.00000000  0.45078000  0.86847000  1.0
