# generated using pymatgen
data_Li8Ga16Pd8C
_symmetry_space_group_name_H-M   Pmm2
_cell_length_a   6.24448000
_cell_length_b   8.83103000
_cell_length_c   26.62330000
_cell_angle_alpha   90.00000000
_cell_angle_beta   90.00000000
_cell_angle_gamma   90.00000000
_symmetry_Int_Tables_number   25
_chemical_formula_structural   Li8Ga16Pd8C
_chemical_formula_sum   'Li8 Ga16 Pd8 C1'
_cell_volume   1468.14694264
_cell_formula_units_Z   1
loop_
 _symmetry_equiv_pos_site_id
 _symmetry_equiv_pos_as_xyz
  1  'x, y, z'
  2  '-x, -y, z'
  3  '-x, y, z'
  4  'x, -y, z'
loop_
 _atom_site_type_symbol
 _atom_site_label
 _atom_site_symmetry_multiplicity
 _atom_site_fract_x
 _atom_site_fract_y
 _atom_site_fract_z
 _atom_site_occupancy
  Li  Li0  2  0.50000000  0.25000000  0.95854000  1.0
  Li  Li1  2  0.50000000  0.28583000  0.13335000  1.0
  Li  Li2  1  0.00000000  0.00000000  0.05010000  1.0
  Li  Li3  1  0.00000000  0.00000000  0.87561000  1.0
  Li  Li4  1  0.00000000  0.50000000  0.04153000  1.0
  Li  Li5  1  0.00000000  0.50000000  0.87561000  1.0
  Ga  Ga6  4  0.25000000  0.25000000  0.87561000  1.0
  Ga  Ga7  4  0.25904000  0.25421000  0.04290000  1.0
  Ga  Ga8  2  0.21558000  0.50000000  0.13167000  1.0
  Ga  Ga9  2  0.25000000  0.00000000  0.95854000  1.0
  Ga  Ga10  2  0.25000000  0.50000000  0.95854000  1.0
  Ga  Ga11  2  0.30082000  0.00000000  0.13003000  1.0
  Pd  Pd12  2  0.00000000  0.23966000  0.11912000  1.0
  Pd  Pd13  2  0.00000000  0.25000000  0.95854000  1.0
  Pd  Pd14  1  0.50000000  0.00000000  0.03716000  1.0
  Pd  Pd15  1  0.50000000  0.00000000  0.87561000  1.0
  Pd  Pd16  1  0.50000000  0.50000000  0.03987000  1.0
  Pd  Pd17  1  0.50000000  0.50000000  0.87561000  1.0
  C  C18  1  0.00000000  0.00000000  0.14373000  1.0
