# generated using pymatgen
data_Sc4Pt12CO
_symmetry_space_group_name_H-M   'P 1'
_cell_length_a   8.06651000
_cell_length_b   5.70388000
_cell_length_c   24.27790000
_cell_angle_alpha   90.00000000
_cell_angle_beta   90.00000000
_cell_angle_gamma   90.00000000
_symmetry_Int_Tables_number   1
_chemical_formula_structural   Sc4Pt12CO
_chemical_formula_sum   'Sc4 Pt12 C1 O1'
_cell_volume   1117.03601298
_cell_formula_units_Z   1
loop_
 _symmetry_equiv_pos_site_id
 _symmetry_equiv_pos_as_xyz
  1  'x, y, z'
loop_
 _atom_site_type_symbol
 _atom_site_label
 _atom_site_symmetry_multiplicity
 _atom_site_fract_x
 _atom_site_fract_y
 _atom_site_fract_z
 _atom_site_occupancy
  Sc  Sc0  1  0.75001000  0.00000000  0.91190000  1.0
  Sc  Sc1  1  0.75232000  0.49842000  0.03149000  1.0
  Sc  Sc2  1  0.24999000  0.00000000  0.91190000  1.0
  Sc  Sc3  1  0.24768000  0.49842000  0.03149000  1.0
  Pt  Pt4  1  0.75001000  0.50000000  0.91190000  1.0
  Pt  Pt5  1  0.50000000  0.25000000  0.97063000  1.0
  Pt  Pt6  1  0.50000000  0.75000000  0.97063000  1.0
  Pt  Pt7  1  0.75012000  0.99785000  0.02570000  1.0
  Pt  Pt8  1  0.50000000  0.77211000  0.08782000  1.0
  Pt  Pt9  1  0.50000000  0.27200000  0.08530000  1.0
  Pt  Pt10  1  0.24999000  0.50000000  0.91190000  1.0
  Pt  Pt11  1  0.00000000  0.25000000  0.97063000  1.0
  Pt  Pt12  1  0.00000000  0.75000000  0.97063000  1.0
  Pt  Pt13  1  0.24988000  0.99785000  0.02570000  1.0
  Pt  Pt14  1  0.00000000  0.73832000  0.08558000  1.0
  Pt  Pt15  1  0.00000000  0.24859000  0.08477000  1.0
  C  C16  1  0.50000000  0.70934000  0.16364000  1.0
  O  O17  1  0.50000000  0.67952000  0.21069000  1.0
