# generated using pymatgen
data_Sc4Pt12CO
_symmetry_space_group_name_H-M   Pm
_cell_length_a   5.70388000
_cell_length_b   8.06651000
_cell_length_c   24.27790000
_cell_angle_alpha   90.00000000
_cell_angle_beta   90.00000000
_cell_angle_gamma   90.00000000
_symmetry_Int_Tables_number   6
_chemical_formula_structural   Sc4Pt12CO
_chemical_formula_sum   'Sc4 Pt12 C1 O1'
_cell_volume   1117.03601298
_cell_formula_units_Z   1
loop_
 _symmetry_equiv_pos_site_id
 _symmetry_equiv_pos_as_xyz
  1  'x, y, z'
  2  'x, -y, z'
loop_
 _atom_site_type_symbol
 _atom_site_label
 _atom_site_symmetry_multiplicity
 _atom_site_fract_x
 _atom_site_fract_y
 _atom_site_fract_z
 _atom_site_occupancy
  Sc  Sc0  2  0.00000000  0.24999000  0.08810000  1.0
  Sc  Sc1  2  0.49842000  0.24768000  0.96851000  1.0
  Pt  Pt2  2  0.50000000  0.24999000  0.08810000  1.0
  Pt  Pt3  2  0.99785000  0.24988000  0.97430000  1.0
  Pt  Pt4  1  0.24859000  0.00000000  0.91523000  1.0
  Pt  Pt5  1  0.25000000  0.00000000  0.02937000  1.0
  Pt  Pt6  1  0.25000000  0.50000000  0.02937000  1.0
  Pt  Pt7  1  0.27200000  0.50000000  0.91470000  1.0
  Pt  Pt8  1  0.73832000  0.00000000  0.91442000  1.0
  Pt  Pt9  1  0.75000000  0.00000000  0.02937000  1.0
  Pt  Pt10  1  0.75000000  0.50000000  0.02937000  1.0
  Pt  Pt11  1  0.77211000  0.50000000  0.91218000  1.0
  C  C12  1  0.70934000  0.50000000  0.83636000  1.0
  O  O13  1  0.67952000  0.50000000  0.78931000  1.0
