# generated using pymatgen
data_Li8Zr8Ge8Pd8C
_symmetry_space_group_name_H-M   'P 1'
_cell_length_a   9.16240000
_cell_length_b   6.47880000
_cell_length_c   26.87180000
_cell_angle_alpha   90.00000000
_cell_angle_beta   90.00000000
_cell_angle_gamma   90.00000000
_symmetry_Int_Tables_number   1
_chemical_formula_structural   Li8Zr8Ge8Pd8C
_chemical_formula_sum   'Li8 Zr8 Ge8 Pd8 C1'
_cell_volume   1595.14651626
_cell_formula_units_Z   1
loop_
 _symmetry_equiv_pos_site_id
 _symmetry_equiv_pos_as_xyz
  1  'x, y, z'
loop_
 _atom_site_type_symbol
 _atom_site_label
 _atom_site_symmetry_multiplicity
 _atom_site_fract_x
 _atom_site_fract_y
 _atom_site_fract_z
 _atom_site_occupancy
  Li  Li0  1  0.75000000  0.25000000  0.04262000  1.0
  Li  Li1  1  0.25000000  0.25000000  0.04262000  1.0
  Li  Li2  1  0.00000000  0.75000000  0.12786000  1.0
  Li  Li3  1  0.50000000  0.75000000  0.12786000  1.0
  Li  Li4  1  0.26807000  0.24701000  0.86734000  1.0
  Li  Li5  1  0.73193000  0.24701000  0.86734000  1.0
  Li  Li6  1  0.50000000  0.74522000  0.95913000  1.0
  Li  Li7  1  0.00000000  0.75130000  0.95538000  1.0
  Zr  Zr8  1  0.75000000  0.75000000  0.04262000  1.0
  Zr  Zr9  1  0.25000000  0.75000000  0.04262000  1.0
  Zr  Zr10  1  0.00000000  0.25000000  0.12786000  1.0
  Zr  Zr11  1  0.50000000  0.25000000  0.12786000  1.0
  Zr  Zr12  1  0.23110000  0.74545000  0.86713000  1.0
  Zr  Zr13  1  0.76890000  0.74545000  0.86713000  1.0
  Zr  Zr14  1  0.50000000  0.25717000  0.95525000  1.0
  Zr  Zr15  1  0.00000000  0.24188000  0.95974000  1.0
  Ge  Ge16  1  0.75000000  0.00000000  0.12786000  1.0
  Ge  Ge17  1  0.25000000  0.00000000  0.12786000  1.0
  Ge  Ge18  1  0.50000000  0.50000000  0.04262000  1.0
  Ge  Ge19  1  0.00000000  0.50000000  0.04262000  1.0
  Ge  Ge20  1  0.25653000  0.99471000  0.95155000  1.0
  Ge  Ge21  1  0.74347000  0.99471000  0.95155000  1.0
  Ge  Ge22  1  0.00000000  0.45268000  0.87239000  1.0
  Ge  Ge23  1  0.50000000  0.52053000  0.87059000  1.0
  Pd  Pd24  1  0.00000000  0.00000000  0.04262000  1.0
  Pd  Pd25  1  0.50000000  0.00000000  0.04262000  1.0
  Pd  Pd26  1  0.25000000  0.50000000  0.12786000  1.0
  Pd  Pd27  1  0.75000000  0.50000000  0.12786000  1.0
  Pd  Pd28  1  0.50000000  0.97157000  0.87924000  1.0
  Pd  Pd29  1  0.00000000  0.04794000  0.87180000  1.0
  Pd  Pd30  1  0.75772000  0.51075000  0.95095000  1.0
  Pd  Pd31  1  0.24228000  0.51075000  0.95095000  1.0
  C  C32  1  0.00000000  0.73219000  0.84429000  1.0
