# generated using pymatgen
data_Li8Zr8Ge8Pd8C
_symmetry_space_group_name_H-M   Pm
_cell_length_a   6.47880000
_cell_length_b   9.16240000
_cell_length_c   26.87180000
_cell_angle_alpha   90.00000000
_cell_angle_beta   90.00000000
_cell_angle_gamma   90.00000000
_symmetry_Int_Tables_number   6
_chemical_formula_structural   Li8Zr8Ge8Pd8C
_chemical_formula_sum   'Li8 Zr8 Ge8 Pd8 C1'
_cell_volume   1595.14651626
_cell_formula_units_Z   1
loop_
 _symmetry_equiv_pos_site_id
 _symmetry_equiv_pos_as_xyz
  1  'x, y, z'
  2  'x, -y, z'
loop_
 _atom_site_type_symbol
 _atom_site_label
 _atom_site_symmetry_multiplicity
 _atom_site_fract_x
 _atom_site_fract_y
 _atom_site_fract_z
 _atom_site_occupancy
  Li  Li0  2  0.24701000  0.26807000  0.13266000  1.0
  Li  Li1  2  0.25000000  0.25000000  0.95738000  1.0
  Li  Li2  1  0.74522000  0.50000000  0.04087000  1.0
  Li  Li3  1  0.75000000  0.00000000  0.87214000  1.0
  Li  Li4  1  0.75000000  0.50000000  0.87214000  1.0
  Li  Li5  1  0.75130000  0.00000000  0.04462000  1.0
  Zr  Zr6  2  0.74545000  0.23110000  0.13287000  1.0
  Zr  Zr7  2  0.75000000  0.25000000  0.95738000  1.0
  Zr  Zr8  1  0.24188000  0.00000000  0.04026000  1.0
  Zr  Zr9  1  0.25000000  0.00000000  0.87214000  1.0
  Zr  Zr10  1  0.25000000  0.50000000  0.87214000  1.0
  Zr  Zr11  1  0.25717000  0.50000000  0.04475000  1.0
  Ge  Ge12  2  0.00000000  0.25000000  0.87214000  1.0
  Ge  Ge13  2  0.99471000  0.25653000  0.04845000  1.0
  Ge  Ge14  1  0.45268000  0.00000000  0.12761000  1.0
  Ge  Ge15  1  0.50000000  0.00000000  0.95738000  1.0
  Ge  Ge16  1  0.50000000  0.50000000  0.95738000  1.0
  Ge  Ge17  1  0.52053000  0.50000000  0.12941000  1.0
  Pd  Pd18  2  0.50000000  0.25000000  0.87214000  1.0
  Pd  Pd19  2  0.51075000  0.24228000  0.04905000  1.0
  Pd  Pd20  1  0.00000000  0.00000000  0.95738000  1.0
  Pd  Pd21  1  0.00000000  0.50000000  0.95738000  1.0
  Pd  Pd22  1  0.04794000  0.00000000  0.12820000  1.0
  Pd  Pd23  1  0.97157000  0.50000000  0.12076000  1.0
  C  C24  1  0.73219000  0.00000000  0.15571000  1.0
