# generated using pymatgen
data_Sn4Pt12C
_symmetry_space_group_name_H-M   Pmm2
_cell_length_a   5.78605000
_cell_length_b   8.18271000
_cell_length_c   24.33950000
_cell_angle_alpha   90.00000000
_cell_angle_beta   90.00000000
_cell_angle_gamma   90.00000000
_symmetry_Int_Tables_number   25
_chemical_formula_structural   Sn4Pt12C
_chemical_formula_sum   'Sn4 Pt12 C1'
_cell_volume   1152.36748143
_cell_formula_units_Z   1
loop_
 _symmetry_equiv_pos_site_id
 _symmetry_equiv_pos_as_xyz
  1  'x, y, z'
  2  '-x, -y, z'
  3  '-x, y, z'
  4  'x, -y, z'
loop_
 _atom_site_type_symbol
 _atom_site_label
 _atom_site_symmetry_multiplicity
 _atom_site_fract_x
 _atom_site_fract_y
 _atom_site_fract_z
 _atom_site_occupancy
  Sn  Sn0  1  0.00000000  0.00000000  0.08915000  1.0
  Sn  Sn1  1  0.00000000  0.50000000  0.08915000  1.0
  Sn  Sn2  1  0.50000000  0.00000000  0.98271000  1.0
  Sn  Sn3  1  0.50000000  0.50000000  0.93419000  1.0
  Pt  Pt4  4  0.25001000  0.24999000  0.02972000  1.0
  Pt  Pt5  4  0.26071000  0.18567000  0.90386000  1.0
  Pt  Pt6  1  0.00000000  0.00000000  0.97471000  1.0
  Pt  Pt7  1  0.00000000  0.50000000  0.96528000  1.0
  Pt  Pt8  1  0.50000000  0.00000000  0.08915000  1.0
  Pt  Pt9  1  0.50000000  0.50000000  0.08915000  1.0
  C  C10  1  0.50000000  0.00000000  0.88116000  1.0
