# generated using pymatgen
data_Sc8Al8In8Pd8CO
_symmetry_space_group_name_H-M   P1
_cell_length_a   8.30234000
_cell_length_b   8.33700000
_cell_length_c   26.45550000
_cell_angle_alpha   90.00000000
_cell_angle_beta   90.00000000
_cell_angle_gamma   90.00000000
_symmetry_Int_Tables_number   1
_chemical_formula_structural   Sc8Al8In8Pd8CO
_chemical_formula_sum   'Sc8 Al8 In8 Pd8 C1 O1'
_cell_volume   1831.15998829
_cell_formula_units_Z   1
loop_
 _symmetry_equiv_pos_site_id
 _symmetry_equiv_pos_as_xyz
  1  'x, y, z'
loop_
 _atom_site_type_symbol
 _atom_site_label
 _atom_site_symmetry_multiplicity
 _atom_site_fract_x
 _atom_site_fract_y
 _atom_site_fract_z
 _atom_site_occupancy
  Sc  Sc0  1  0.23362000  0.49043000  0.04354000  1.0
  Sc  Sc1  1  0.23390000  0.01007000  0.04348000  1.0
  Sc  Sc2  1  0.25000000  0.00000000  0.87799000  1.0
  Sc  Sc3  1  0.25000000  0.50000000  0.87799000  1.0
  Sc  Sc4  1  0.75000000  0.00000000  0.87799000  1.0
  Sc  Sc5  1  0.75000000  0.50000000  0.87799000  1.0
  Sc  Sc6  1  0.76481000  0.49007000  0.04360000  1.0
  Sc  Sc7  1  0.76503000  0.01021000  0.04364000  1.0
  Al  Al8  1  0.00000000  0.00000000  0.95933000  1.0
  Al  Al9  1  0.00000000  0.50000000  0.95933000  1.0
  Al  Al10  1  0.00008000  0.54793000  0.12301000  1.0
  Al  Al11  1  0.00062000  0.95131000  0.12332000  1.0
  Al  Al12  1  0.49992000  0.96339000  0.11267000  1.0
  Al  Al13  1  0.50000000  0.00000000  0.95933000  1.0
  Al  Al14  1  0.50000000  0.50000000  0.95933000  1.0
  Al  Al15  1  0.50053000  0.53733000  0.11277000  1.0
  In  In16  1  0.25000000  0.25000000  0.95933000  1.0
  In  In17  1  0.25000000  0.75000000  0.95933000  1.0
  In  In18  1  0.25784000  0.74848000  0.14506000  1.0
  In  In19  1  0.31114000  0.25020000  0.13444000  1.0
  In  In20  1  0.68989000  0.25044000  0.13454000  1.0
  In  In21  1  0.74264000  0.74988000  0.14344000  1.0
  In  In22  1  0.75000000  0.25000000  0.95933000  1.0
  In  In23  1  0.75000000  0.75000000  0.95933000  1.0
  Pd  Pd24  1  0.00000000  0.25000000  0.87799000  1.0
  Pd  Pd25  1  0.00000000  0.75000000  0.87799000  1.0
  Pd  Pd26  1  0.00076000  0.74958000  0.04010000  1.0
  Pd  Pd27  1  0.00092000  0.24891000  0.09201000  1.0
  Pd  Pd28  1  0.49868000  0.75052000  0.03751000  1.0
  Pd  Pd29  1  0.50000000  0.25000000  0.87799000  1.0
  Pd  Pd30  1  0.50000000  0.75000000  0.87799000  1.0
  Pd  Pd31  1  0.50162000  0.25016000  0.03345000  1.0
  C  C32  1  0.18454000  0.25029000  0.26158000  1.0
  O  O33  1  0.25913000  0.24985000  0.29759000  1.0
