# generated using pymatgen
data_LiInPdAu
_symmetry_space_group_name_H-M   'P 1'
_cell_length_a   5.83117000
_cell_length_b   4.14988000
_cell_length_c   24.31400000
_cell_angle_alpha   90.00000000
_cell_angle_beta   90.00000000
_cell_angle_gamma   90.00000000
_symmetry_Int_Tables_number   1
_chemical_formula_structural   LiInPdAu
_chemical_formula_sum   'Li2 In2 Pd2 Au2'
_cell_volume   588.36611614
_cell_formula_units_Z   2
loop_
 _symmetry_equiv_pos_site_id
 _symmetry_equiv_pos_as_xyz
  1  'x, y, z'
loop_
 _atom_site_type_symbol
 _atom_site_label
 _atom_site_symmetry_multiplicity
 _atom_site_fract_x
 _atom_site_fract_y
 _atom_site_fract_z
 _atom_site_occupancy
  Li  Li0  1  0.79105000  0.50000000  0.02957000  1.0
  Li  Li1  1  0.37315000  0.50000000  0.91129000  1.0
  In  In2  1  0.50000000  0.00000000  0.08871000  1.0
  In  In3  1  0.08210000  0.00000000  0.97043000  1.0
  Pd  Pd4  1  0.29105000  0.50000000  0.02957000  1.0
  Pd  Pd5  1  0.87315000  0.50000000  0.91129000  1.0
  Au  Au6  1  0.00000000  0.00000000  0.08871000  1.0
  Au  Au7  1  0.58210000  0.00000000  0.97043000  1.0
