# generated using pymatgen
data_Y8Sn8Ge8Pd8C
_symmetry_space_group_name_H-M   Pmm2
_cell_length_a   8.11456000
_cell_length_b   8.65102000
_cell_length_c   27.20230000
_cell_angle_alpha   90.00000000
_cell_angle_beta   90.00000000
_cell_angle_gamma   90.00000000
_symmetry_Int_Tables_number   25
_chemical_formula_structural   Y8Sn8Ge8Pd8C
_chemical_formula_sum   'Y8 Sn8 Ge8 Pd8 C1'
_cell_volume   1909.58026536
_cell_formula_units_Z   1
loop_
 _symmetry_equiv_pos_site_id
 _symmetry_equiv_pos_as_xyz
  1  'x, y, z'
  2  '-x, -y, z'
  3  '-x, y, z'
  4  'x, -y, z'
loop_
 _atom_site_type_symbol
 _atom_site_label
 _atom_site_symmetry_multiplicity
 _atom_site_fract_x
 _atom_site_fract_y
 _atom_site_fract_z
 _atom_site_occupancy
  Y  Y0  4  0.25000000  0.25000000  0.04413000  1.0
  Y  Y1  4  0.25000000  0.25000000  0.86762000  1.0
  Sn  Sn2  2  0.25000000  0.00000000  0.13238000  1.0
  Sn  Sn3  2  0.25000000  0.00000000  0.95587000  1.0
  Sn  Sn4  2  0.25000000  0.50000000  0.13238000  1.0
  Sn  Sn5  2  0.25000000  0.50000000  0.95587000  1.0
  Ge  Ge6  1  0.00000000  0.00000000  0.04413000  1.0
  Ge  Ge7  1  0.00000000  0.00000000  0.86762000  1.0
  Ge  Ge8  1  0.00000000  0.50000000  0.04413000  1.0
  Ge  Ge9  1  0.00000000  0.50000000  0.86762000  1.0
  Ge  Ge10  1  0.50000000  0.00000000  0.04413000  1.0
  Ge  Ge11  1  0.50000000  0.00000000  0.86762000  1.0
  Ge  Ge12  1  0.50000000  0.50000000  0.04413000  1.0
  Ge  Ge13  1  0.50000000  0.50000000  0.86762000  1.0
  Pd  Pd14  2  0.00000000  0.25000000  0.13238000  1.0
  Pd  Pd15  2  0.00000000  0.25000000  0.95587000  1.0
  Pd  Pd16  2  0.50000000  0.25000000  0.13238000  1.0
  Pd  Pd17  2  0.50000000  0.25000000  0.95587000  1.0
  C  C18  1  0.00000000  0.00000000  0.16179000  1.0
