# generated using pymatgen
data_Li8Cu8Sn8Pd8CO
_symmetry_space_group_name_H-M   Pm
_cell_length_a   6.33545000
_cell_length_b   8.95968000
_cell_length_c   26.71980000
_cell_angle_alpha   90.00000000
_cell_angle_beta   90.00000000
_cell_angle_gamma   90.00000000
_symmetry_Int_Tables_number   6
_chemical_formula_structural   Li8Cu8Sn8Pd8CO
_chemical_formula_sum   'Li8 Cu8 Sn8 Pd8 C1 O1'
_cell_volume   1516.71216369
_cell_formula_units_Z   1
loop_
 _symmetry_equiv_pos_site_id
 _symmetry_equiv_pos_as_xyz
  1  'x, y, z'
  2  'x, -y, z'
loop_
 _atom_site_type_symbol
 _atom_site_label
 _atom_site_symmetry_multiplicity
 _atom_site_fract_x
 _atom_site_fract_y
 _atom_site_fract_z
 _atom_site_occupancy
  Li  Li0  2  0.75000000  0.25000000  0.87425000  1.0
  Li  Li1  2  0.75047000  0.24710000  0.03519000  1.0
  Li  Li2  1  0.24302000  0.00000000  0.13287000  1.0
  Li  Li3  1  0.24311000  0.50000000  0.13029000  1.0
  Li  Li4  1  0.25000000  0.00000000  0.95808000  1.0
  Li  Li5  1  0.25000000  0.50000000  0.95808000  1.0
  Cu  Cu6  2  0.50000000  0.25000000  0.95808000  1.0
  Cu  Cu7  2  0.53715000  0.25186000  0.11522000  1.0
  Cu  Cu8  1  -0.00000000  0.50000000  0.87425000  1.0
  Cu  Cu9  1  0.00000000  0.00000000  0.87425000  1.0
  Cu  Cu10  1  0.97605000  0.50000000  0.04974000  1.0
  Cu  Cu11  1  0.98952000  0.00000000  0.04920000  1.0
  Sn  Sn12  2  0.25000000  0.25000000  0.87425000  1.0
  Sn  Sn13  2  0.25043000  0.25153000  0.04161000  1.0
  Sn  Sn14  1  0.74220000  0.50000000  0.14387000  1.0
  Sn  Sn15  1  0.74820000  0.00000000  0.13880000  1.0
  Sn  Sn16  1  0.75000000  0.00000000  0.95808000  1.0
  Sn  Sn17  1  0.75000000  0.50000000  0.95808000  1.0
  Pd  Pd18  2  -0.00000000  0.25000000  0.95808000  1.0
  Pd  Pd19  2  0.96628000  0.25405000  0.11636000  1.0
  Pd  Pd20  1  0.50000000  0.00000000  0.87425000  1.0
  Pd  Pd21  1  0.50000000  0.50000000  0.87425000  1.0
  Pd  Pd22  1  0.50510000  0.00000000  0.04938000  1.0
  Pd  Pd23  1  0.51581000  0.50000000  0.04927000  1.0
  C  C24  1  0.25539000  0.00000000  0.21257000  1.0
  O  O25  1  0.25670000  0.00000000  0.25519000  1.0
