# generated using pymatgen
data_Li8Al8Cu8Pd8CO
_symmetry_space_group_name_H-M   'P 1'
_cell_length_a   8.49706000
_cell_length_b   6.00833000
_cell_length_c   26.37280000
_cell_angle_alpha   90.00000000
_cell_angle_beta   90.00000000
_cell_angle_gamma   90.00000000
_symmetry_Int_Tables_number   1
_chemical_formula_structural   Li8Al8Cu8Pd8CO
_chemical_formula_sum   'Li8 Al8 Cu8 Pd8 C1 O1'
_cell_volume   1346.41426404
_cell_formula_units_Z   1
loop_
 _symmetry_equiv_pos_site_id
 _symmetry_equiv_pos_as_xyz
  1  'x, y, z'
loop_
 _atom_site_type_symbol
 _atom_site_label
 _atom_site_symmetry_multiplicity
 _atom_site_fract_x
 _atom_site_fract_y
 _atom_site_fract_z
 _atom_site_occupancy
  Li  Li0  1  0.75001000  0.00000000  0.04027000  1.0
  Li  Li1  1  0.24999000  0.00000000  0.04027000  1.0
  Li  Li2  1  0.00000000  0.50000000  0.12082000  1.0
  Li  Li3  1  0.50000000  0.50000000  0.12082000  1.0
  Li  Li4  1  0.24658000  0.00383000  0.86871000  1.0
  Li  Li5  1  0.75342000  0.00383000  0.86871000  1.0
  Li  Li6  1  0.50000000  0.49983000  0.96182000  1.0
  Li  Li7  1  0.00000000  0.50129000  0.96319000  1.0
  Al  Al8  1  0.50000000  0.00000000  0.12082000  1.0
  Al  Al9  1  0.00000000  0.00000000  0.12082000  1.0
  Al  Al10  1  0.25001000  0.50000000  0.04027000  1.0
  Al  Al11  1  0.74999000  0.50000000  0.04027000  1.0
  Al  Al12  1  0.00000000  0.00377000  0.95996000  1.0
  Al  Al13  1  0.50000000  0.00134000  0.96025000  1.0
  Al  Al14  1  0.75140000  0.50904000  0.88154000  1.0
  Al  Al15  1  0.24860000  0.50904000  0.88154000  1.0
  Cu  Cu16  1  0.50000000  0.25000000  0.04027000  1.0
  Cu  Cu17  1  0.00000000  0.25000000  0.04027000  1.0
  Cu  Cu18  1  0.75001000  0.75000000  0.12082000  1.0
  Cu  Cu19  1  0.24999000  0.75000000  0.12082000  1.0
  Cu  Cu20  1  0.00000000  0.27288000  0.88497000  1.0
  Cu  Cu21  1  0.50000000  0.26477000  0.88124000  1.0
  Cu  Cu22  1  0.24998000  0.75872000  0.96057000  1.0
  Cu  Cu23  1  0.75002000  0.75872000  0.96057000  1.0
  Pd  Pd24  1  0.50000000  0.75000000  0.04027000  1.0
  Pd  Pd25  1  0.00000000  0.75000000  0.04027000  1.0
  Pd  Pd26  1  0.75001000  0.25000000  0.12082000  1.0
  Pd  Pd27  1  0.24999000  0.25000000  0.12082000  1.0
  Pd  Pd28  1  0.00000000  0.74004000  0.88481000  1.0
  Pd  Pd29  1  0.50000000  0.73785000  0.88453000  1.0
  Pd  Pd30  1  0.25293000  0.24663000  0.95845000  1.0
  Pd  Pd31  1  0.74707000  0.24663000  0.95845000  1.0
  C  C32  1  0.50000000  0.15262000  0.81529000  1.0
  O  O33  1  0.50000000  0.11660000  0.77211000  1.0
