# generated using pymatgen
data_Li8Al8Cu8Pd8CO
_symmetry_space_group_name_H-M   Pm
_cell_length_a   6.00833000
_cell_length_b   8.49706000
_cell_length_c   26.37280000
_cell_angle_alpha   90.00000000
_cell_angle_beta   90.00000000
_cell_angle_gamma   90.00000000
_symmetry_Int_Tables_number   6
_chemical_formula_structural   Li8Al8Cu8Pd8CO
_chemical_formula_sum   'Li8 Al8 Cu8 Pd8 C1 O1'
_cell_volume   1346.41426404
_cell_formula_units_Z   1
loop_
 _symmetry_equiv_pos_site_id
 _symmetry_equiv_pos_as_xyz
  1  'x, y, z'
  2  'x, -y, z'
loop_
 _atom_site_type_symbol
 _atom_site_label
 _atom_site_symmetry_multiplicity
 _atom_site_fract_x
 _atom_site_fract_y
 _atom_site_fract_z
 _atom_site_occupancy
  Li  Li0  2  0.00000000  0.24999000  0.95973000  1.0
  Li  Li1  2  0.00383000  0.24658000  0.13129000  1.0
  Li  Li2  1  0.49983000  0.50000000  0.03818000  1.0
  Li  Li3  1  0.50000000  0.00000000  0.87918000  1.0
  Li  Li4  1  0.50000000  0.50000000  0.87918000  1.0
  Li  Li5  1  0.50129000  0.00000000  0.03681000  1.0
  Al  Al6  2  0.50000000  0.25001000  0.95973000  1.0
  Al  Al7  2  0.50904000  0.24860000  0.11846000  1.0
  Al  Al8  1  0.00000000  0.00000000  0.87918000  1.0
  Al  Al9  1  0.00000000  0.50000000  0.87918000  1.0
  Al  Al10  1  0.00134000  0.50000000  0.03975000  1.0
  Al  Al11  1  0.00377000  0.00000000  0.04004000  1.0
  Cu  Cu12  2  0.75000000  0.24999000  0.87918000  1.0
  Cu  Cu13  2  0.75872000  0.24998000  0.03943000  1.0
  Cu  Cu14  1  0.25000000  0.00000000  0.95973000  1.0
  Cu  Cu15  1  0.25000000  0.50000000  0.95973000  1.0
  Cu  Cu16  1  0.26477000  0.50000000  0.11876000  1.0
  Cu  Cu17  1  0.27288000  0.00000000  0.11503000  1.0
  Pd  Pd18  2  0.24663000  0.25293000  0.04155000  1.0
  Pd  Pd19  2  0.25000000  0.24999000  0.87918000  1.0
  Pd  Pd20  1  0.73785000  0.50000000  0.11547000  1.0
  Pd  Pd21  1  0.74004000  0.00000000  0.11519000  1.0
  Pd  Pd22  1  0.75000000  0.00000000  0.95973000  1.0
  Pd  Pd23  1  0.75000000  0.50000000  0.95973000  1.0
  C  C24  1  0.15262000  0.50000000  0.18471000  1.0
  O  O25  1  0.11660000  0.50000000  0.22789000  1.0
