# generated using pymatgen
data_Li8Mn8Ge8Pd8C
_symmetry_space_group_name_H-M   'P 1'
_cell_length_a   8.69336000
_cell_length_b   6.14713000
_cell_length_c   26.52000000
_cell_angle_alpha   90.00000000
_cell_angle_beta   90.00000000
_cell_angle_gamma   90.00000000
_symmetry_Int_Tables_number   1
_chemical_formula_structural   Li8Mn8Ge8Pd8C
_chemical_formula_sum   'Li8 Mn8 Ge8 Pd8 C1'
_cell_volume   1417.20795679
_cell_formula_units_Z   1
loop_
 _symmetry_equiv_pos_site_id
 _symmetry_equiv_pos_as_xyz
  1  'x, y, z'
loop_
 _atom_site_type_symbol
 _atom_site_label
 _atom_site_symmetry_multiplicity
 _atom_site_fract_x
 _atom_site_fract_y
 _atom_site_fract_z
 _atom_site_occupancy
  Li  Li0  1  0.25000000  0.00000000  0.04098000  1.0
  Li  Li1  1  0.75000000  0.00000000  0.04098000  1.0
  Li  Li2  1  0.50000000  0.50000000  0.12293000  1.0
  Li  Li3  1  0.00000000  0.50000000  0.12293000  1.0
  Li  Li4  1  0.75680000  0.99537000  0.85257000  1.0
  Li  Li5  1  0.24320000  0.99537000  0.85257000  1.0
  Li  Li6  1  0.00000000  0.49901000  0.96139000  1.0
  Li  Li7  1  0.50000000  0.50315000  0.96452000  1.0
  Mn  Mn8  1  0.00000000  0.25000000  0.04098000  1.0
  Mn  Mn9  1  0.50000000  0.25000000  0.04098000  1.0
  Mn  Mn10  1  0.25000000  0.75000000  0.12293000  1.0
  Mn  Mn11  1  0.75000000  0.75000000  0.12293000  1.0
  Mn  Mn12  1  0.50000000  0.27574000  0.88167000  1.0
  Mn  Mn13  1  0.00000000  0.25133000  0.88205000  1.0
  Mn  Mn14  1  0.75288000  0.76125000  0.95305000  1.0
  Mn  Mn15  1  0.24712000  0.76125000  0.95305000  1.0
  Ge  Ge16  1  0.00000000  0.00000000  0.12293000  1.0
  Ge  Ge17  1  0.50000000  0.00000000  0.12293000  1.0
  Ge  Ge18  1  0.75000000  0.50000000  0.04098000  1.0
  Ge  Ge19  1  0.25000000  0.50000000  0.04098000  1.0
  Ge  Ge20  1  0.50000000  0.00259000  0.95915000  1.0
  Ge  Ge21  1  0.00000000  0.01430000  0.96190000  1.0
  Ge  Ge22  1  0.24230000  0.48701000  0.87572000  1.0
  Ge  Ge23  1  0.75770000  0.48701000  0.87572000  1.0
  Pd  Pd24  1  0.00000000  0.75000000  0.04098000  1.0
  Pd  Pd25  1  0.50000000  0.75000000  0.04098000  1.0
  Pd  Pd26  1  0.25000000  0.25000000  0.12293000  1.0
  Pd  Pd27  1  0.75000000  0.25000000  0.12293000  1.0
  Pd  Pd28  1  0.50000000  0.73122000  0.88574000  1.0
  Pd  Pd29  1  0.00000000  0.74766000  0.88094000  1.0
  Pd  Pd30  1  0.74856000  0.24459000  0.95810000  1.0
  Pd  Pd31  1  0.25144000  0.24459000  0.95810000  1.0
  C  C32  1  0.00000000  0.05208000  0.84106000  1.0
