# generated using pymatgen
data_Ti16Ru16C
_symmetry_space_group_name_H-M   'P 1'
_cell_length_a   6.18271000
_cell_length_b   8.74368000
_cell_length_c   26.55780000
_cell_angle_alpha   90.00000000
_cell_angle_beta   90.00000000
_cell_angle_gamma   90.00000000
_symmetry_Int_Tables_number   1
_chemical_formula_structural   Ti16Ru16C
_chemical_formula_sum   'Ti16 Ru16 C1'
_cell_volume   1435.70504804
_cell_formula_units_Z   1
loop_
 _symmetry_equiv_pos_site_id
 _symmetry_equiv_pos_as_xyz
  1  'x, y, z'
loop_
 _atom_site_type_symbol
 _atom_site_label
 _atom_site_symmetry_multiplicity
 _atom_site_fract_x
 _atom_site_fract_y
 _atom_site_fract_z
 _atom_site_occupancy
  Ti  Ti0  1  0.00000000  0.00000000  0.87654000  1.0
  Ti  Ti1  1  0.00000000  0.25000000  0.95885000  1.0
  Ti  Ti2  1  0.00000000  0.00000000  0.04082000  1.0
  Ti  Ti3  1  0.00000000  0.25350000  0.12801000  1.0
  Ti  Ti4  1  0.00000000  0.50000000  0.87654000  1.0
  Ti  Ti5  1  0.00000000  0.75000000  0.95885000  1.0
  Ti  Ti6  1  0.00000000  0.50000000  0.04352000  1.0
  Ti  Ti7  1  0.00000000  0.74650000  0.12801000  1.0
  Ti  Ti8  1  0.50000000  0.00000000  0.87654000  1.0
  Ti  Ti9  1  0.50000000  0.25000000  0.95885000  1.0
  Ti  Ti10  1  0.50000000  0.00000000  0.03940000  1.0
  Ti  Ti11  1  0.50000000  0.25185000  0.12387000  1.0
  Ti  Ti12  1  0.50000000  0.50000000  0.87654000  1.0
  Ti  Ti13  1  0.50000000  0.75000000  0.95885000  1.0
  Ti  Ti14  1  0.50000000  0.50000000  0.04225000  1.0
  Ti  Ti15  1  0.50000000  0.74815000  0.12387000  1.0
  Ru  Ru16  1  0.25000000  0.25000000  0.87654000  1.0
  Ru  Ru17  1  0.25000000  0.00000000  0.95885000  1.0
  Ru  Ru18  1  0.25071000  0.24787000  0.04165000  1.0
  Ru  Ru19  1  0.24511000  0.00000000  0.12045000  1.0
  Ru  Ru20  1  0.25000000  0.75000000  0.87654000  1.0
  Ru  Ru21  1  0.25000000  0.50000000  0.95885000  1.0
  Ru  Ru22  1  0.25071000  0.75213000  0.04165000  1.0
  Ru  Ru23  1  0.25052000  0.50000000  0.11850000  1.0
  Ru  Ru24  1  0.75000000  0.25000000  0.87654000  1.0
  Ru  Ru25  1  0.75000000  0.00000000  0.95885000  1.0
  Ru  Ru26  1  0.74929000  0.24787000  0.04165000  1.0
  Ru  Ru27  1  0.75489000  0.00000000  0.12045000  1.0
  Ru  Ru28  1  0.75000000  0.75000000  0.87654000  1.0
  Ru  Ru29  1  0.75000000  0.50000000  0.95885000  1.0
  Ru  Ru30  1  0.74929000  0.75213000  0.04165000  1.0
  Ru  Ru31  1  0.74948000  0.50000000  0.11850000  1.0
  C  C32  1  0.00000000  0.00000000  0.16392000  1.0
