# generated using pymatgen
data_YAu
_symmetry_space_group_name_H-M   'P 1'
_cell_length_a   3.62306000
_cell_length_b   5.12380000
_cell_length_c   27.68570000
_cell_angle_alpha   90.00000000
_cell_angle_beta   90.00000000
_cell_angle_gamma   90.00000000
_symmetry_Int_Tables_number   1
_chemical_formula_structural   YAu
_chemical_formula_sum   'Y4 Au4'
_cell_volume   513.95276190
_cell_formula_units_Z   4
loop_
 _symmetry_equiv_pos_site_id
 _symmetry_equiv_pos_as_xyz
  1  'x, y, z'
loop_
 _atom_site_type_symbol
 _atom_site_label
 _atom_site_symmetry_multiplicity
 _atom_site_fract_x
 _atom_site_fract_y
 _atom_site_fract_z
 _atom_site_occupancy
  Y  Y0  1  0.50000000  0.50000000  0.86120000  1.0
  Y  Y1  1  0.50000000  0.00000000  0.95373000  1.0
  Y  Y2  1  0.50000000  0.50000000  0.04608000  1.0
  Y  Y3  1  0.50000000  0.00000000  0.13915000  1.0
  Au  Au4  1  0.00000000  0.00000000  0.86120000  1.0
  Au  Au5  1  0.00000000  0.50000000  0.95373000  1.0
  Au  Au6  1  0.00000000  0.00000000  0.04852000  1.0
  Au  Au7  1  0.00000000  0.50000000  0.13298000  1.0
