# generated using pymatgen
data_Sc8In8Pd16C
_symmetry_space_group_name_H-M   Pm
_cell_length_a   6.63475000
_cell_length_b   9.38295000
_cell_length_c   27.03720000
_cell_angle_alpha   90.00000000
_cell_angle_beta   90.00000000
_cell_angle_gamma   90.00000000
_symmetry_Int_Tables_number   6
_chemical_formula_structural   Sc8In8Pd16C
_chemical_formula_sum   'Sc8 In8 Pd16 C1'
_cell_volume   1683.16107406
_cell_formula_units_Z   1
loop_
 _symmetry_equiv_pos_site_id
 _symmetry_equiv_pos_as_xyz
  1  'x, y, z'
  2  'x, -y, z'
loop_
 _atom_site_type_symbol
 _atom_site_label
 _atom_site_symmetry_multiplicity
 _atom_site_fract_x
 _atom_site_fract_y
 _atom_site_fract_z
 _atom_site_occupancy
  Sc  Sc0  2  0.00000000  0.25000000  0.86986000  1.0
  Sc  Sc1  2  0.99479000  0.25311000  0.04354000  1.0
  Sc  Sc2  1  0.49942000  0.50000000  0.12624000  1.0
  Sc  Sc3  1  0.50000000  0.00000000  0.95662000  1.0
  Sc  Sc4  1  0.50000000  0.50000000  0.95662000  1.0
  Sc  Sc5  1  0.54648000  0.00000000  0.12859000  1.0
  In  In6  2  0.49716000  0.24556000  0.04423000  1.0
  In  In7  2  0.50000000  0.25000000  0.86986000  1.0
  In  In8  1  -0.00000000  0.50000000  0.95662000  1.0
  In  In9  1  -0.00000000  0.00000000  0.95662000  1.0
  In  In10  1  0.01819000  0.50000000  0.13535000  1.0
  In  In11  1  0.95003000  0.00000000  0.16689000  1.0
  Pd  Pd12  2  0.22675000  0.23767000  0.12443000  1.0
  Pd  Pd13  2  0.25000000  0.25000000  0.95662000  1.0
  Pd  Pd14  2  0.75000000  0.25000000  0.95662000  1.0
  Pd  Pd15  2  0.76307000  0.26115000  0.12637000  1.0
  Pd  Pd16  1  0.21832000  0.00000000  0.04959000  1.0
  Pd  Pd17  1  0.25000000  0.00000000  0.86986000  1.0
  Pd  Pd18  1  0.25000000  0.50000000  0.86986000  1.0
  Pd  Pd19  1  0.25696000  0.50000000  0.04361000  1.0
  Pd  Pd20  1  0.74928000  0.50000000  0.04451000  1.0
  Pd  Pd21  1  0.75000000  0.00000000  0.86986000  1.0
  Pd  Pd22  1  0.75000000  0.50000000  0.86986000  1.0
  Pd  Pd23  1  0.75355000  0.00000000  0.04089000  1.0
  C  C24  1  0.24074000  0.00000000  0.13030000  1.0
