# generated using pymatgen
data_LiAlFePd
_symmetry_space_group_name_H-M   Pm
_cell_length_a   6.16988000
_cell_length_b   2.83848000
_cell_length_c   24.62570000
_cell_angle_alpha   90.00000000
_cell_angle_beta   90.00000000
_cell_angle_gamma   90.00000000
_symmetry_Int_Tables_number   6
_chemical_formula_structural   LiAlFePd
_chemical_formula_sum   'Li2 Al2 Fe2 Pd2'
_cell_volume   431.27187835
_cell_formula_units_Z   2
loop_
 _symmetry_equiv_pos_site_id
 _symmetry_equiv_pos_as_xyz
  1  'x, y, z'
  2  'x, -y, z'
loop_
 _atom_site_type_symbol
 _atom_site_label
 _atom_site_symmetry_multiplicity
 _atom_site_fract_x
 _atom_site_fract_y
 _atom_site_fract_z
 _atom_site_occupancy
  Li  Li0  1  0.50000000  0.00000000  0.90608000  1.0
  Li  Li1  1  0.98652000  0.00000000  0.03131000  1.0
  Al  Al2  1  0.00000000  0.00000000  0.90608000  1.0
  Al  Al3  1  0.48652000  0.00000000  0.03131000  1.0
  Fe  Fe4  1  0.24326000  0.50000000  0.96869000  1.0
  Fe  Fe5  1  0.72978000  0.50000000  0.09392000  1.0
  Pd  Pd6  1  0.22978000  0.50000000  0.09392000  1.0
  Pd  Pd7  1  0.74326000  0.50000000  0.96869000  1.0
