# generated using pymatgen
data_Li16In8Pt8C
_symmetry_space_group_name_H-M   'P 1'
_cell_length_a   9.09870000
_cell_length_b   6.43375000
_cell_length_c   26.82400000
_cell_angle_alpha   90.00000000
_cell_angle_beta   90.00000000
_cell_angle_gamma   90.00000000
_symmetry_Int_Tables_number   1
_chemical_formula_structural   Li16In8Pt8C
_chemical_formula_sum   'Li16 In8 Pt8 C1'
_cell_volume   1570.24372842
_cell_formula_units_Z   1
loop_
 _symmetry_equiv_pos_site_id
 _symmetry_equiv_pos_as_xyz
  1  'x, y, z'
loop_
 _atom_site_type_symbol
 _atom_site_label
 _atom_site_symmetry_multiplicity
 _atom_site_fract_x
 _atom_site_fract_y
 _atom_site_fract_z
 _atom_site_occupancy
  Li  Li0  1  0.50000000  1.00000000  0.04240000  1.0
  Li  Li1  1  0.75000000  0.50000000  0.12720000  1.0
  Li  Li2  1  0.00000000  0.00000000  0.04240000  1.0
  Li  Li3  1  0.25000000  0.50000000  0.12720000  1.0
  Li  Li4  1  0.00000000  0.25000000  0.12720000  1.0
  Li  Li5  1  0.50000000  0.25000000  0.12720000  1.0
  Li  Li6  1  0.25000000  0.75000000  0.04240000  1.0
  Li  Li7  1  0.75000000  0.75000000  0.04240000  1.0
  Li  Li8  1  0.00000000  0.93091000  0.85476000  1.0
  Li  Li9  1  0.23882000  0.48670000  0.95487000  1.0
  Li  Li10  1  0.50000000  0.01928000  0.88247000  1.0
  Li  Li11  1  0.76118000  0.48670000  0.95487000  1.0
  Li  Li12  1  0.50000000  0.25247000  0.96381000  1.0
  Li  Li13  1  0.00000000  0.22709000  0.95192000  1.0
  Li  Li14  1  0.73352000  0.70825000  0.87145000  1.0
  Li  Li15  1  0.26648000  0.70825000  0.87145000  1.0
  In  In16  1  0.75000000  0.25000000  0.04240000  1.0
  In  In17  1  0.25000000  0.25000000  0.04240000  1.0
  In  In18  1  0.50000000  0.75000000  0.12720000  1.0
  In  In19  1  0.00000000  0.75000000  0.12720000  1.0
  In  In20  1  0.24563000  0.22158000  0.86315000  1.0
  In  In21  1  0.75437000  0.22158000  0.86315000  1.0
  In  In22  1  0.00000000  0.77386000  0.96070000  1.0
  In  In23  1  0.50000000  0.73356000  0.95708000  1.0
  Pt  Pt24  1  0.75000000  0.00000000  0.12720000  1.0
  Pt  Pt25  1  0.00000000  0.50000000  0.04240000  1.0
  Pt  Pt26  1  0.50000000  0.50000000  0.04240000  1.0
  Pt  Pt27  1  0.25000000  0.00000000  0.12720000  1.0
  Pt  Pt28  1  0.26103000  0.99895000  0.95737000  1.0
  Pt  Pt29  1  0.50000000  0.44681000  0.88245000  1.0
  Pt  Pt30  1  0.00000000  0.52791000  0.88079000  1.0
  Pt  Pt31  1  0.73897000  0.99895000  0.95737000  1.0
  C  C32  1  0.00000000  0.24963000  0.85346000  1.0
