# generated using pymatgen
data_Li16In8Pt8C
_symmetry_space_group_name_H-M   Pm
_cell_length_a   6.43375000
_cell_length_b   9.09870000
_cell_length_c   26.82400000
_cell_angle_alpha   90.00000000
_cell_angle_beta   90.00000000
_cell_angle_gamma   90.00000000
_symmetry_Int_Tables_number   6
_chemical_formula_structural   Li16In8Pt8C
_chemical_formula_sum   'Li16 In8 Pt8 C1'
_cell_volume   1570.24372842
_cell_formula_units_Z   1
loop_
 _symmetry_equiv_pos_site_id
 _symmetry_equiv_pos_as_xyz
  1  'x, y, z'
  2  'x, -y, z'
loop_
 _atom_site_type_symbol
 _atom_site_label
 _atom_site_symmetry_multiplicity
 _atom_site_fract_x
 _atom_site_fract_y
 _atom_site_fract_z
 _atom_site_occupancy
  Li  Li0  2  0.48670000  0.23882000  0.04513000  1.0
  Li  Li1  2  0.50000000  0.25000000  0.87280000  1.0
  Li  Li2  2  0.70825000  0.26648000  0.12855000  1.0
  Li  Li3  2  0.75000000  0.25000000  0.95760000  1.0
  Li  Li4  1  -0.00000000  0.50000000  0.95760000  1.0
  Li  Li5  1  0.00000000  0.00000000  0.95760000  1.0
  Li  Li6  1  0.01928000  0.50000000  0.11753000  1.0
  Li  Li7  1  0.22709000  0.00000000  0.04808000  1.0
  Li  Li8  1  0.25000000  0.00000000  0.87280000  1.0
  Li  Li9  1  0.25000000  0.50000000  0.87280000  1.0
  Li  Li10  1  0.25247000  0.50000000  0.03619000  1.0
  Li  Li11  1  0.93091000  0.00000000  0.14524000  1.0
  In  In12  2  0.22158000  0.24563000  0.13685000  1.0
  In  In13  2  0.25000000  0.25000000  0.95760000  1.0
  In  In14  1  0.73356000  0.50000000  0.04292000  1.0
  In  In15  1  0.75000000  0.00000000  0.87280000  1.0
  In  In16  1  0.75000000  0.50000000  0.87280000  1.0
  In  In17  1  0.77386000  0.00000000  0.03930000  1.0
  Pt  Pt18  2  0.00000000  0.25000000  0.87280000  1.0
  Pt  Pt19  2  0.99895000  0.26103000  0.04263000  1.0
  Pt  Pt20  1  0.44681000  0.50000000  0.11755000  1.0
  Pt  Pt21  1  0.50000000  0.00000000  0.95760000  1.0
  Pt  Pt22  1  0.50000000  0.50000000  0.95760000  1.0
  Pt  Pt23  1  0.52791000  0.00000000  0.11921000  1.0
  C  C24  1  0.24963000  0.00000000  0.14654000  1.0
