# generated using pymatgen
data_Li8Y8Sn8Ge8CO
_symmetry_space_group_name_H-M   'P 1'
_cell_length_a   8.52742000
_cell_length_b   8.60818000
_cell_length_c   27.07540000
_cell_angle_alpha   90.00000000
_cell_angle_beta   90.00000000
_cell_angle_gamma   90.00000000
_symmetry_Int_Tables_number   1
_chemical_formula_structural   Li8Y8Sn8Ge8CO
_chemical_formula_sum   'Li8 Y8 Sn8 Ge8 C1 O1'
_cell_volume   1987.48506968
_cell_formula_units_Z   1
loop_
 _symmetry_equiv_pos_site_id
 _symmetry_equiv_pos_as_xyz
  1  'x, y, z'
loop_
 _atom_site_type_symbol
 _atom_site_label
 _atom_site_symmetry_multiplicity
 _atom_site_fract_x
 _atom_site_fract_y
 _atom_site_fract_z
 _atom_site_occupancy
  Li  Li0  1  0.00000000  0.75063000  0.95531000  1.0
  Li  Li1  1  0.00000000  0.75000000  0.13066000  1.0
  Li  Li2  1  0.50000000  0.74971000  0.95547000  1.0
  Li  Li3  1  0.50000000  0.75000000  0.13066000  1.0
  Li  Li4  1  0.00000000  0.24937000  0.95531000  1.0
  Li  Li5  1  0.00000000  0.25000000  0.13066000  1.0
  Li  Li6  1  0.50000000  0.25029000  0.95547000  1.0
  Li  Li7  1  0.50000000  0.25000000  0.13066000  1.0
  Y  Y8  1  0.00000000  0.00000000  0.86837000  1.0
  Y  Y9  1  0.00000000  0.00000000  0.04355000  1.0
  Y  Y10  1  0.50000000  0.00000000  0.87014000  1.0
  Y  Y11  1  0.50000000  0.00000000  0.04355000  1.0
  Y  Y12  1  0.00000000  0.50000000  0.86987000  1.0
  Y  Y13  1  0.00000000  0.50000000  0.04355000  1.0
  Y  Y14  1  0.50000000  0.50000000  0.86973000  1.0
  Y  Y15  1  0.50000000  0.50000000  0.04355000  1.0
  Sn  Sn16  1  0.75074000  0.00000000  0.95558000  1.0
  Sn  Sn17  1  0.75000000  0.00000000  0.13066000  1.0
  Sn  Sn18  1  0.24926000  0.00000000  0.95558000  1.0
  Sn  Sn19  1  0.25000000  0.00000000  0.13066000  1.0
  Sn  Sn20  1  0.75038000  0.50000000  0.95552000  1.0
  Sn  Sn21  1  0.75000000  0.50000000  0.13066000  1.0
  Sn  Sn22  1  0.24962000  0.50000000  0.95552000  1.0
  Sn  Sn23  1  0.25000000  0.50000000  0.13066000  1.0
  Ge  Ge24  1  0.74943000  0.74899000  0.87460000  1.0
  Ge  Ge25  1  0.75000000  0.75000000  0.04355000  1.0
  Ge  Ge26  1  0.25057000  0.74899000  0.87460000  1.0
  Ge  Ge27  1  0.25000000  0.75000000  0.04355000  1.0
  Ge  Ge28  1  0.74943000  0.25101000  0.87460000  1.0
  Ge  Ge29  1  0.75000000  0.25000000  0.04355000  1.0
  Ge  Ge30  1  0.25057000  0.25101000  0.87460000  1.0
  Ge  Ge31  1  0.25000000  0.25000000  0.04355000  1.0
  C  C32  1  0.00000000  0.00000000  0.77641000  1.0
  O  O33  1  0.00000000  0.00000000  0.73392000  1.0
