# generated using pymatgen
data_Li8Y8Sn8Ge8C
_symmetry_space_group_name_H-M   Pmm2
_cell_length_a   8.52742000
_cell_length_b   9.43388000
_cell_length_c   26.45610000
_cell_angle_alpha   90.00000000
_cell_angle_beta   90.00000000
_cell_angle_gamma   90.00000000
_symmetry_Int_Tables_number   25
_chemical_formula_structural   Li8Y8Sn8Ge8C
_chemical_formula_sum   'Li8 Y8 Sn8 Ge8 C1'
_cell_volume   2128.30480198
_cell_formula_units_Z   1
loop_
 _symmetry_equiv_pos_site_id
 _symmetry_equiv_pos_as_xyz
  1  'x, y, z'
  2  '-x, -y, z'
  3  '-x, y, z'
  4  'x, -y, z'
loop_
 _atom_site_type_symbol
 _atom_site_label
 _atom_site_symmetry_multiplicity
 _atom_site_fract_x
 _atom_site_fract_y
 _atom_site_fract_z
 _atom_site_occupancy
  Li  Li0  1  0.00000000  0.00000000  0.04225000  1.0
  Li  Li1  1  0.00000000  0.00000000  0.87798000  1.0
  Li  Li2  1  0.00000000  0.50000000  0.04118000  1.0
  Li  Li3  1  0.00000000  0.50000000  0.87798000  1.0
  Li  Li4  1  0.50000000  0.00000000  0.04073000  1.0
  Li  Li5  1  0.50000000  0.00000000  0.87798000  1.0
  Li  Li6  1  0.50000000  0.50000000  0.04010000  1.0
  Li  Li7  1  0.50000000  0.50000000  0.87798000  1.0
  Y  Y8  2  0.00000000  0.24655000  0.12051000  1.0
  Y  Y9  2  0.00000000  0.25000000  0.95933000  1.0
  Y  Y10  2  0.50000000  0.25000000  0.95933000  1.0
  Y  Y11  2  0.50000000  0.25226000  0.12095000  1.0
  Sn  Sn12  2  0.25000000  0.00000000  0.95933000  1.0
  Sn  Sn13  2  0.25000000  0.50000000  0.95933000  1.0
  Sn  Sn14  2  0.25195000  0.50000000  0.12221000  1.0
  Sn  Sn15  2  0.25619000  0.00000000  0.13954000  1.0
  Ge  Ge16  4  0.25000000  0.25000000  0.87798000  1.0
  Ge  Ge17  4  0.25353000  0.26779000  0.04289000  1.0
  C  C18  1  0.00000000  0.00000000  0.12237000  1.0
