data_image0
_chemical_formula_structural       Li8In4Pd4CO
_chemical_formula_sum              "Li8 In4 Pd4 C1 O1"
_cell_length_a       6.46446
_cell_length_b       6.46446
_cell_length_c       24.8483
_cell_angle_alpha    90
_cell_angle_beta     90
_cell_angle_gamma    90

_space_group_name_H-M_alt    "P 1"
_space_group_IT_number       1

loop_
  _space_group_symop_operation_xyz
  'x, y, z'

loop_
  _atom_site_type_symbol
  _atom_site_label
  _atom_site_symmetry_multiplicity
  _atom_site_fract_x
  _atom_site_fract_y
  _atom_site_fract_z
  _atom_site_occupancy
  Li  Li1       1.0  0.00056  0.00067  0.02841  1.0000
  Li  Li2       1.0  0.50000  0.00000  0.90244  1.0000
  Li  Li3       1.0  0.00000  0.50000  0.90244  1.0000
  Li  Li4       1.0  0.49937  0.49931  0.02840  1.0000
  Li  Li5       1.0  0.25000  0.25001  0.10176  1.0000
  Li  Li6       1.0  0.25000  0.75000  0.96748  1.0000
  Li  Li7       1.0  0.75000  0.75002  0.09860  1.0000
  Li  Li8       1.0  0.75000  0.25000  0.96748  1.0000
  In  In1       1.0  0.25000  0.25000  0.96748  1.0000
  In  In2       1.0  0.25015  0.75014  0.09606  1.0000
  In  In3       1.0  0.75000  0.75000  0.96748  1.0000
  In  In4       1.0  0.74997  0.25014  0.09608  1.0000
  Pd  Pd1       1.0  0.00000  0.00000  0.90244  1.0000
  Pd  Pd2       1.0  0.50000  0.50000  0.90244  1.0000
  Pd  Pd3       1.0  0.50086  0.99945  0.03290  1.0000
  Pd  Pd4       1.0  0.99937  0.50081  0.03290  1.0000
  C   C1        1.0  0.25000  0.24994  0.18551  1.0000
  O   O1        1.0  0.25000  0.24995  0.23153  1.0000
