# generated using pymatgen
data_Li8In4Pd4CO
_symmetry_space_group_name_H-M   P1
_cell_length_a   6.46446000
_cell_length_b   6.46446000
_cell_length_c   24.84830000
_cell_angle_alpha   90.00000000
_cell_angle_beta   90.00000000
_cell_angle_gamma   90.00000000
_symmetry_Int_Tables_number   1
_chemical_formula_structural   Li8In4Pd4CO
_chemical_formula_sum   'Li8 In4 Pd4 C1 O1'
_cell_volume   1038.39164911
_cell_formula_units_Z   1
loop_
 _symmetry_equiv_pos_site_id
 _symmetry_equiv_pos_as_xyz
  1  'x, y, z'
loop_
 _atom_site_type_symbol
 _atom_site_label
 _atom_site_symmetry_multiplicity
 _atom_site_fract_x
 _atom_site_fract_y
 _atom_site_fract_z
 _atom_site_occupancy
  Li  Li0  1  0.00000000  0.50000000  0.90244000  1.0
  Li  Li1  1  0.00056000  0.00067000  0.02841000  1.0
  Li  Li2  1  0.25000000  0.25001000  0.10176000  1.0
  Li  Li3  1  0.25000000  0.75000000  0.96748000  1.0
  Li  Li4  1  0.49937000  0.49931000  0.02840000  1.0
  Li  Li5  1  0.50000000  0.00000000  0.90244000  1.0
  Li  Li6  1  0.75000000  0.25000000  0.96748000  1.0
  Li  Li7  1  0.75000000  0.75002000  0.09860000  1.0
  In  In8  1  0.25000000  0.25000000  0.96748000  1.0
  In  In9  1  0.25015000  0.75014000  0.09606000  1.0
  In  In10  1  0.74997000  0.25014000  0.09608000  1.0
  In  In11  1  0.75000000  0.75000000  0.96748000  1.0
  Pd  Pd12  1  0.00000000  0.00000000  0.90244000  1.0
  Pd  Pd13  1  0.50000000  0.50000000  0.90244000  1.0
  Pd  Pd14  1  0.50086000  0.99945000  0.03290000  1.0
  Pd  Pd15  1  0.99937000  0.50081000  0.03290000  1.0
  C  C16  1  0.25000000  0.24994000  0.18551000  1.0
  O  O17  1  0.25000000  0.24995000  0.23153000  1.0
