# generated using pymatgen
data_FeIr3
_symmetry_space_group_name_H-M   P4mm
_cell_length_a   3.87776000
_cell_length_b   3.87776000
_cell_length_c   25.81660000
_cell_angle_alpha   90.00000000
_cell_angle_beta   90.00000000
_cell_angle_gamma   90.00000000
_symmetry_Int_Tables_number   99
_chemical_formula_structural   FeIr3
_chemical_formula_sum   'Fe2 Ir6'
_cell_volume   388.20479811
_cell_formula_units_Z   2
loop_
 _symmetry_equiv_pos_site_id
 _symmetry_equiv_pos_as_xyz
  1  'x, y, z'
  2  '-y, x, z'
  3  '-x, -y, z'
  4  'y, -x, z'
  5  '-x, y, z'
  6  'y, x, z'
  7  'x, -y, z'
  8  '-y, -x, z'
loop_
 _atom_site_type_symbol
 _atom_site_label
 _atom_site_symmetry_multiplicity
 _atom_site_fract_x
 _atom_site_fract_y
 _atom_site_fract_z
 _atom_site_occupancy
  Fe  Fe0  1  0.00000000  0.00000000  0.11265000  1.0
  Fe  Fe1  1  0.00000000  0.00000000  0.96245000  1.0
  Ir  Ir2  2  0.00000000  0.50000000  0.03755000  1.0
  Ir  Ir3  2  0.00000000  0.50000000  0.88735000  1.0
  Ir  Ir4  1  0.50000000  0.50000000  0.11265000  1.0
  Ir  Ir5  1  0.50000000  0.50000000  0.96245000  1.0
