# generated using pymatgen
data_Li8Ti8Al8Pd8CO
_symmetry_space_group_name_H-M   Pm
_cell_length_a   6.17553000
_cell_length_b   8.73352000
_cell_length_c   26.55010000
_cell_angle_alpha   90.00000000
_cell_angle_beta   90.00000000
_cell_angle_gamma   90.00000000
_symmetry_Int_Tables_number   6
_chemical_formula_structural   Li8Ti8Al8Pd8CO
_chemical_formula_sum   'Li8 Ti8 Al8 Pd8 C1 O1'
_cell_volume   1431.95614044
_cell_formula_units_Z   1
loop_
 _symmetry_equiv_pos_site_id
 _symmetry_equiv_pos_as_xyz
  1  'x, y, z'
  2  'x, -y, z'
loop_
 _atom_site_type_symbol
 _atom_site_label
 _atom_site_symmetry_multiplicity
 _atom_site_fract_x
 _atom_site_fract_y
 _atom_site_fract_z
 _atom_site_occupancy
  Li  Li0  2  0.70616000  0.23353000  0.16999000  1.0
  Li  Li1  2  0.75000000  0.25000000  0.95888000  1.0
  Li  Li2  1  0.24799000  0.00000000  0.03933000  1.0
  Li  Li3  1  0.24939000  0.50000000  0.04205000  1.0
  Li  Li4  1  0.25000000  0.00000000  0.87665000  1.0
  Li  Li5  1  0.25000000  0.50000000  0.87665000  1.0
  Ti  Ti6  2  0.50000000  0.25000000  0.87665000  1.0
  Ti  Ti7  2  0.51062000  0.25048000  0.04659000  1.0
  Ti  Ti8  1  0.00000000  0.00000000  0.95888000  1.0
  Ti  Ti9  1  0.00000000  0.50000000  0.95888000  1.0
  Ti  Ti10  1  0.96753000  0.50000000  0.11961000  1.0
  Ti  Ti11  1  0.97953000  0.00000000  0.12140000  1.0
  Al  Al12  2  0.00000000  0.25000000  0.87665000  1.0
  Al  Al13  2  0.99395000  0.25025000  0.04238000  1.0
  Al  Al14  1  0.48521000  0.00000000  0.12003000  1.0
  Al  Al15  1  0.49952000  0.50000000  0.12444000  1.0
  Al  Al16  1  0.50000000  0.00000000  0.95888000  1.0
  Al  Al17  1  0.50000000  0.50000000  0.95888000  1.0
  Pd  Pd18  2  0.24111000  0.25310000  0.12009000  1.0
  Pd  Pd19  2  0.25000000  0.25000000  0.95888000  1.0
  Pd  Pd20  1  0.74785000  0.00000000  0.03762000  1.0
  Pd  Pd21  1  0.74882000  0.50000000  0.03853000  1.0
  Pd  Pd22  1  0.75000000  0.00000000  0.87665000  1.0
  Pd  Pd23  1  0.75000000  0.50000000  0.87665000  1.0
  C  C24  1  0.89978000  0.00000000  0.19623000  1.0
  O  O25  1  0.86735000  0.00000000  0.24041000  1.0
