data_image0
_chemical_formula_structural       Mn4Ni8Sb4CO
_chemical_formula_sum              "Mn4 Ni8 Sb4 C1 O1"
_cell_length_a       6.10266
_cell_length_b       6.10266
_cell_length_c       24.577
_cell_angle_alpha    90
_cell_angle_beta     90
_cell_angle_gamma    90

_space_group_name_H-M_alt    "P 1"
_space_group_IT_number       1

loop_
  _space_group_symop_operation_xyz
  'x, y, z'

loop_
  _atom_site_type_symbol
  _atom_site_label
  _atom_site_symmetry_multiplicity
  _atom_site_fract_x
  _atom_site_fract_y
  _atom_site_fract_z
  _atom_site_occupancy
  Mn  Mn1       1.0  0.00000  0.99999  0.09633  1.0000
  Mn  Mn2       1.0  0.49999  0.50001  0.08967  1.0000
  Mn  Mn3       1.0  0.50000  0.00000  0.96896  1.0000
  Mn  Mn4       1.0  0.00000  0.50000  0.96896  1.0000
  Ni  Ni1       1.0  0.24698  0.24699  0.03292  1.0000
  Ni  Ni2       1.0  0.75000  0.75000  0.90688  1.0000
  Ni  Ni3       1.0  0.75302  0.24700  0.03293  1.0000
  Ni  Ni4       1.0  0.25000  0.75000  0.90688  1.0000
  Ni  Ni5       1.0  0.75303  0.75300  0.03292  1.0000
  Ni  Ni6       1.0  0.25000  0.25000  0.90688  1.0000
  Ni  Ni7       1.0  0.24697  0.75301  0.03292  1.0000
  Ni  Ni8       1.0  0.75000  0.25000  0.90688  1.0000
  Sb  Sb1       1.0  0.00000  0.00000  0.96896  1.0000
  Sb  Sb2       1.0  0.50000  1.00000  0.09689  1.0000
  Sb  Sb3       1.0  0.00001  0.49999  0.09689  1.0000
  Sb  Sb4       1.0  0.50000  0.50000  0.96896  1.0000
  C   C1        1.0  0.00001  0.99999  0.17767  1.0000
  O   O1        1.0  0.00000  1.00000  0.22453  1.0000
