# generated using pymatgen
data_Ti4Pt12C
_symmetry_space_group_name_H-M   'P 1'
_cell_length_a   5.61861000
_cell_length_b   7.94591000
_cell_length_c   24.21400000
_cell_angle_alpha   90.00000000
_cell_angle_beta   90.00000000
_cell_angle_gamma   90.00000000
_symmetry_Int_Tables_number   1
_chemical_formula_structural   Ti4Pt12C
_chemical_formula_sum   'Ti4 Pt12 C1'
_cell_volume   1081.03328869
_cell_formula_units_Z   1
loop_
 _symmetry_equiv_pos_site_id
 _symmetry_equiv_pos_as_xyz
  1  'x, y, z'
loop_
 _atom_site_type_symbol
 _atom_site_label
 _atom_site_symmetry_multiplicity
 _atom_site_fract_x
 _atom_site_fract_y
 _atom_site_fract_z
 _atom_site_occupancy
  Ti  Ti0  1  0.50000000  0.00000000  0.08702000  1.0
  Ti  Ti1  1  0.00000000  0.00000000  0.97586000  1.0
  Ti  Ti2  1  0.50000000  0.50000000  0.08702000  1.0
  Ti  Ti3  1  0.00000000  0.50000000  0.97216000  1.0
  Pt  Pt4  1  0.00000000  0.00000000  0.08702000  1.0
  Pt  Pt5  1  0.25001000  0.24999000  0.02901000  1.0
  Pt  Pt6  1  0.74999000  0.24999000  0.02901000  1.0
  Pt  Pt7  1  0.50000000  0.00000000  0.98289000  1.0
  Pt  Pt8  1  0.75667000  0.19624000  0.90951000  1.0
  Pt  Pt9  1  0.24333000  0.19624000  0.90951000  1.0
  Pt  Pt10  1  0.00000000  0.50000000  0.08702000  1.0
  Pt  Pt11  1  0.25001000  0.75001000  0.02901000  1.0
  Pt  Pt12  1  0.74999000  0.75001000  0.02901000  1.0
  Pt  Pt13  1  0.50000000  0.50000000  0.96919000  1.0
  Pt  Pt14  1  0.75667000  0.80376000  0.90951000  1.0
  Pt  Pt15  1  0.24333000  0.80376000  0.90951000  1.0
  C  C16  1  0.50000000  0.00000000  0.89233000  1.0
