# generated using pymatgen
data_Y8In24CO
_symmetry_space_group_name_H-M   'P 1'
_cell_length_a   9.34369000
_cell_length_b   9.34369000
_cell_length_c   27.00780000
_cell_angle_alpha   90.00000000
_cell_angle_beta   90.00000000
_cell_angle_gamma   90.00000000
_symmetry_Int_Tables_number   1
_chemical_formula_structural   Y8In24CO
_chemical_formula_sum   'Y8 In24 C1 O1'
_cell_volume   2357.90363147
_cell_formula_units_Z   1
loop_
 _symmetry_equiv_pos_site_id
 _symmetry_equiv_pos_as_xyz
  1  'x, y, z'
loop_
 _atom_site_type_symbol
 _atom_site_label
 _atom_site_symmetry_multiplicity
 _atom_site_fract_x
 _atom_site_fract_y
 _atom_site_fract_z
 _atom_site_occupancy
  Y  Y0  1  0.00000000  0.00000000  0.12974000  1.0
  Y  Y1  1  0.00000000  0.00000000  0.95675000  1.0
  Y  Y2  1  0.00000000  0.50000000  0.12974000  1.0
  Y  Y3  1  0.00000000  0.50000000  0.95675000  1.0
  Y  Y4  1  0.50000000  0.00000000  0.12974000  1.0
  Y  Y5  1  0.50000000  0.00000000  0.95675000  1.0
  Y  Y6  1  0.50000000  0.50000000  0.12974000  1.0
  Y  Y7  1  0.50000000  0.50000000  0.95675000  1.0
  In  In8  1  0.00000000  0.25000000  0.04325000  1.0
  In  In9  1  0.25000000  0.00000000  0.04325000  1.0
  In  In10  1  0.25000000  0.25000000  0.12974000  1.0
  In  In11  1  0.00000000  0.25000000  0.87026000  1.0
  In  In12  1  0.25000000  0.00000000  0.87026000  1.0
  In  In13  1  0.25000000  0.25000000  0.95675000  1.0
  In  In14  1  0.00000000  0.75000000  0.04325000  1.0
  In  In15  1  0.25000000  0.50000000  0.04325000  1.0
  In  In16  1  0.25000000  0.75000000  0.12974000  1.0
  In  In17  1  0.00000000  0.75000000  0.87026000  1.0
  In  In18  1  0.25000000  0.50000000  0.87026000  1.0
  In  In19  1  0.25000000  0.75000000  0.95675000  1.0
  In  In20  1  0.50000000  0.25000000  0.04325000  1.0
  In  In21  1  0.75000000  0.00000000  0.04325000  1.0
  In  In22  1  0.75000000  0.25000000  0.12974000  1.0
  In  In23  1  0.50000000  0.25000000  0.87026000  1.0
  In  In24  1  0.75000000  0.00000000  0.87026000  1.0
  In  In25  1  0.75000000  0.25000000  0.95675000  1.0
  In  In26  1  0.50000000  0.75000000  0.04325000  1.0
  In  In27  1  0.75000000  0.50000000  0.04325000  1.0
  In  In28  1  0.75000000  0.75000000  0.12974000  1.0
  In  In29  1  0.50000000  0.75000000  0.87026000  1.0
  In  In30  1  0.75000000  0.50000000  0.87026000  1.0
  In  In31  1  0.75000000  0.75000000  0.95675000  1.0
  C  C32  1  0.00000000  0.00000000  0.20009000  1.0
  O  O33  1  0.00000000  0.00000000  0.24267000  1.0
