# generated using pymatgen
data_Cr4Pt12C
_symmetry_space_group_name_H-M   'P 1'
_cell_length_a   7.90097000
_cell_length_b   5.58683000
_cell_length_c   24.19010000
_cell_angle_alpha   90.00000000
_cell_angle_beta   90.00000000
_cell_angle_gamma   90.00000000
_symmetry_Int_Tables_number   1
_chemical_formula_structural   Cr4Pt12C
_chemical_formula_sum   'Cr4 Pt12 C1'
_cell_volume   1067.78430502
_cell_formula_units_Z   1
loop_
 _symmetry_equiv_pos_site_id
 _symmetry_equiv_pos_as_xyz
  1  'x, y, z'
loop_
 _atom_site_type_symbol
 _atom_site_label
 _atom_site_symmetry_multiplicity
 _atom_site_fract_x
 _atom_site_fract_y
 _atom_site_fract_z
 _atom_site_occupancy
  Cr  Cr0  1  0.75000000  0.00000000  0.08661000  1.0
  Cr  Cr1  1  0.75000000  0.50000000  0.97113000  1.0
  Cr  Cr2  1  0.25000000  0.00000000  0.08661000  1.0
  Cr  Cr3  1  0.25000000  0.50000000  0.97113000  1.0
  Pt  Pt4  1  0.75000000  0.50000000  0.08661000  1.0
  Pt  Pt5  1  0.50000000  0.25000000  0.02887000  1.0
  Pt  Pt6  1  0.50000000  0.75000000  0.02887000  1.0
  Pt  Pt7  1  0.75000000  0.00000000  0.97113000  1.0
  Pt  Pt8  1  0.50000000  0.75000000  0.91339000  1.0
  Pt  Pt9  1  0.50000000  0.25000000  0.91339000  1.0
  Pt  Pt10  1  0.25000000  0.50000000  0.08661000  1.0
  Pt  Pt11  1  0.00000000  0.25000000  0.02887000  1.0
  Pt  Pt12  1  0.00000000  0.75000000  0.02887000  1.0
  Pt  Pt13  1  0.25000000  0.00000000  0.97113000  1.0
  Pt  Pt14  1  0.00000000  0.75000000  0.91339000  1.0
  Pt  Pt15  1  0.00000000  0.25000000  0.91339000  1.0
  C  C16  1  0.50000000  0.75000000  0.11968000  1.0
