data_image0
_chemical_formula_structural       Li4Al4Co4Pd4CO
_chemical_formula_sum              "Li4 Al4 Co4 Pd4 C1 O1"
_cell_length_a       5.87254
_cell_length_b       5.87254
_cell_length_c       24.4044
_cell_angle_alpha    90
_cell_angle_beta     90
_cell_angle_gamma    90

_space_group_name_H-M_alt    "P 1"
_space_group_IT_number       1

loop_
  _space_group_symop_operation_xyz
  'x, y, z'

loop_
  _atom_site_type_symbol
  _atom_site_label
  _atom_site_symmetry_multiplicity
  _atom_site_fract_x
  _atom_site_fract_y
  _atom_site_fract_z
  _atom_site_occupancy
  Li  Li1       1.0  0.00000  0.50000  0.90976  1.0000
  Li  Li2       1.0  0.99802  0.99804  0.03194  1.0000
  Li  Li3       1.0  0.50197  0.50197  0.03194  1.0000
  Li  Li4       1.0  0.50000  0.00000  0.90976  1.0000
  Al  Al1       1.0  0.00000  0.00000  0.90976  1.0000
  Al  Al2       1.0  0.99927  0.50070  0.03100  1.0000
  Al  Al3       1.0  0.50073  0.99930  0.03100  1.0000
  Al  Al4       1.0  0.50000  0.50000  0.90976  1.0000
  Co  Co1       1.0  0.75000  0.25000  0.96992  1.0000
  Co  Co2       1.0  0.75000  0.75000  0.09066  1.0000
  Co  Co3       1.0  0.25000  0.25000  0.08674  1.0000
  Co  Co4       1.0  0.25000  0.75000  0.96992  1.0000
  Pd  Pd1       1.0  0.25000  0.25000  0.96992  1.0000
  Pd  Pd2       1.0  0.25000  0.75000  0.09117  1.0000
  Pd  Pd3       1.0  0.75000  0.25000  0.09118  1.0000
  Pd  Pd4       1.0  0.75000  0.75000  0.96992  1.0000
  C   C1        1.0  0.25000  0.25000  0.15795  1.0000
  O   O1        1.0  0.25000  0.25000  0.20552  1.0000
