# generated using pymatgen
data_Zr8Al8Co16C
_symmetry_space_group_name_H-M   'P 1'
_cell_length_a   8.60362000
_cell_length_b   6.08368000
_cell_length_c   26.45270000
_cell_angle_alpha   90.00000000
_cell_angle_beta   90.00000000
_cell_angle_gamma   90.00000000
_symmetry_Int_Tables_number   1
_chemical_formula_structural   Zr8Al8Co16C
_chemical_formula_sum   'Zr8 Al8 Co16 C1'
_cell_volume   1384.57851839
_cell_formula_units_Z   1
loop_
 _symmetry_equiv_pos_site_id
 _symmetry_equiv_pos_as_xyz
  1  'x, y, z'
loop_
 _atom_site_type_symbol
 _atom_site_label
 _atom_site_symmetry_multiplicity
 _atom_site_fract_x
 _atom_site_fract_y
 _atom_site_fract_z
 _atom_site_occupancy
  Zr  Zr0  1  0.75000000  0.00000000  0.12197000  1.0
  Zr  Zr1  1  0.00000000  0.50000000  0.04066000  1.0
  Zr  Zr2  1  0.50000000  0.50000000  0.04066000  1.0
  Zr  Zr3  1  0.25000000  0.00000000  0.12197000  1.0
  Zr  Zr4  1  0.25260000  0.99682000  0.96226000  1.0
  Zr  Zr5  1  0.50000000  0.49948000  0.87435000  1.0
  Zr  Zr6  1  0.00000000  0.58243000  0.85134000  1.0
  Zr  Zr7  1  0.74740000  0.99682000  0.96226000  1.0
  Al  Al8  1  0.50000000  1.00000000  0.04066000  1.0
  Al  Al9  1  0.75000000  0.50000000  0.12197000  1.0
  Al  Al10  1  0.00000000  1.00000000  0.04066000  1.0
  Al  Al11  1  0.25000000  0.50000000  0.12197000  1.0
  Al  Al12  1  0.00000000  0.96426000  0.89034000  1.0
  Al  Al13  1  0.24927000  0.49448000  0.95538000  1.0
  Al  Al14  1  0.50000000  0.00096000  0.87895000  1.0
  Al  Al15  1  0.75073000  0.49448000  0.95538000  1.0
  Co  Co16  1  0.75000000  0.25000000  0.04066000  1.0
  Co  Co17  1  0.25000000  0.75000000  0.04066000  1.0
  Co  Co18  1  0.75000000  0.75000000  0.04066000  1.0
  Co  Co19  1  0.25000000  0.25000000  0.04066000  1.0
  Co  Co20  1  0.50000000  0.75000000  0.12197000  1.0
  Co  Co21  1  0.00000000  0.25000000  0.12197000  1.0
  Co  Co22  1  0.50000000  0.25000000  0.12197000  1.0
  Co  Co23  1  0.00000000  0.75000000  0.12197000  1.0
  Co  Co24  1  0.22849000  0.23033000  0.88332000  1.0
  Co  Co25  1  0.74393000  0.76791000  0.88408000  1.0
  Co  Co26  1  0.25607000  0.76791000  0.88408000  1.0
  Co  Co27  1  0.77151000  0.23033000  0.88332000  1.0
  Co  Co28  1  0.00000000  0.72784000  0.95898000  1.0
  Co  Co29  1  0.50000000  0.26049000  0.95565000  1.0
  Co  Co30  1  0.00000000  0.26607000  0.95111000  1.0
  Co  Co31  1  0.50000000  0.73318000  0.95744000  1.0
  C  C32  1  0.00000000  0.26251000  0.86924000  1.0
