# generated using pymatgen
data_Ti8Ga8Co16C
_symmetry_space_group_name_H-M   Pm
_cell_length_a   5.88011000
_cell_length_b   8.31574000
_cell_length_c   26.23680000
_cell_angle_alpha   90.00000000
_cell_angle_beta   90.00000000
_cell_angle_gamma   90.00000000
_symmetry_Int_Tables_number   6
_chemical_formula_structural   Ti8Ga8Co16C
_chemical_formula_sum   'Ti8 Ga8 Co16 C1'
_cell_volume   1282.91303415
_cell_formula_units_Z   1
loop_
 _symmetry_equiv_pos_site_id
 _symmetry_equiv_pos_as_xyz
  1  'x, y, z'
  2  'x, -y, z'
loop_
 _atom_site_type_symbol
 _atom_site_label
 _atom_site_symmetry_multiplicity
 _atom_site_fract_x
 _atom_site_fract_y
 _atom_site_fract_z
 _atom_site_occupancy
  Ti  Ti0  2  0.00000000  0.25001000  0.88114000  1.0
  Ti  Ti1  2  0.00130000  0.25227000  0.04003000  1.0
  Ti  Ti2  1  0.49822000  0.50000000  0.11782000  1.0
  Ti  Ti3  1  0.50000000  0.00000000  0.96038000  1.0
  Ti  Ti4  1  0.50000000  0.50000000  0.96038000  1.0
  Ti  Ti5  1  0.54109000  0.00000000  0.11439000  1.0
  Ga  Ga6  2  0.49523000  0.24817000  0.03991000  1.0
  Ga  Ga7  2  0.50000000  0.25001000  0.88114000  1.0
  Ga  Ga8  1  -0.00000000  0.50000000  0.96038000  1.0
  Ga  Ga9  1  -0.00000000  0.00000000  0.96038000  1.0
  Ga  Ga10  1  0.00981000  0.50000000  0.12391000  1.0
  Ga  Ga11  1  0.95554000  0.00000000  0.12311000  1.0
  Co  Co12  2  0.23632000  0.22102000  0.11854000  1.0
  Co  Co13  2  0.25000000  0.25001000  0.96038000  1.0
  Co  Co14  2  0.75000000  0.24999000  0.96038000  1.0
  Co  Co15  2  0.75964000  0.26147000  0.11164000  1.0
  Co  Co16  1  0.24883000  0.00000000  0.03961000  1.0
  Co  Co17  1  0.25000000  0.00000000  0.88114000  1.0
  Co  Co18  1  0.25000000  0.50000000  0.88114000  1.0
  Co  Co19  1  0.25441000  0.50000000  0.04126000  1.0
  Co  Co20  1  0.74482000  0.50000000  0.04049000  1.0
  Co  Co21  1  0.75000000  0.00000000  0.88114000  1.0
  Co  Co22  1  0.75000000  0.50000000  0.88114000  1.0
  Co  Co23  1  0.75460000  0.00000000  0.03517000  1.0
  C  C24  1  0.25585000  0.00000000  0.14936000  1.0
