# generated using pymatgen
data_Li8Ga4Pd4CO
_symmetry_space_group_name_H-M   Cm
_cell_length_a   8.69561736
_cell_length_b   8.69561736
_cell_length_c   24.61150000
_cell_angle_alpha   90.00000000
_cell_angle_beta   90.00000000
_cell_angle_gamma   90.00000000
_symmetry_Int_Tables_number   8
_chemical_formula_structural   Li8Ga4Pd4CO
_chemical_formula_sum   'Li16 Ga8 Pd8 C2 O2'
_cell_volume   1860.96808441
_cell_formula_units_Z   2
loop_
 _symmetry_equiv_pos_site_id
 _symmetry_equiv_pos_as_xyz
  1  'x, y, z'
  2  'x, -y, z'
  3  'x+1/2, y+1/2, z'
  4  'x+1/2, -y+1/2, z'
loop_
 _atom_site_type_symbol
 _atom_site_label
 _atom_site_symmetry_multiplicity
 _atom_site_fract_x
 _atom_site_fract_y
 _atom_site_fract_z
 _atom_site_occupancy
  Li  Li0  4  0.25000000  0.25000000  0.90631000  1.0
  Li  Li1  4  0.49998500  0.24947500  0.10205000  1.0
  Li  Li2  2  0.00577000  0.50000000  0.02852000  1.0
  Li  Li3  2  0.25000000  0.00000000  0.96877000  1.0
  Li  Li4  2  0.25000000  0.50000000  0.96877000  1.0
  Li  Li5  2  0.49462500  0.50000000  0.02861000  1.0
  Ga  Ga6  4  0.00000000  0.25000000  0.96877000  1.0
  Ga  Ga7  2  0.24959500  0.50000000  0.09051000  1.0
  Ga  Ga8  2  0.25004000  0.00000000  0.08650000  1.0
  Pd  Pd9  4  0.24999500  0.24943500  0.03243000  1.0
  Pd  Pd10  2  0.00000000  0.00000000  0.90631000  1.0
  Pd  Pd11  2  0.00000000  0.50000000  0.90631000  1.0
  C  C12  2  0.25085000  0.50000000  0.17165000  1.0
  O  O13  2  0.25023500  0.50000000  0.21898000  1.0
