data_image0
_chemical_formula_structural       Al4Pt12
_chemical_formula_sum              "Al4 Pt12"
_cell_length_a       7.89001
_cell_length_b       5.57908
_cell_length_c       24.1843
_cell_angle_alpha    90
_cell_angle_beta     90
_cell_angle_gamma    90

_space_group_name_H-M_alt    "P 1"
_space_group_IT_number       1

loop_
  _space_group_symop_operation_xyz
  'x, y, z'

loop_
  _atom_site_type_symbol
  _atom_site_label
  _atom_site_symmetry_multiplicity
  _atom_site_fract_x
  _atom_site_fract_y
  _atom_site_fract_z
  _atom_site_occupancy
  Al  Al1       1.0  0.00000  0.00000  0.91349  1.0000
  Al  Al2       1.0  0.00000  0.50000  0.02884  1.0000
  Al  Al3       1.0  0.50000  0.00000  0.91349  1.0000
  Al  Al4       1.0  0.50000  0.50000  0.02884  1.0000
  Pt  Pt1       1.0  0.00000  0.50000  0.91349  1.0000
  Pt  Pt2       1.0  0.25000  0.75000  0.97116  1.0000
  Pt  Pt3       1.0  0.25000  0.25000  0.97116  1.0000
  Pt  Pt4       1.0  0.00000  0.00000  0.02884  1.0000
  Pt  Pt5       1.0  0.25000  0.25000  0.08651  1.0000
  Pt  Pt6       1.0  0.25000  0.75000  0.08651  1.0000
  Pt  Pt7       1.0  0.50000  0.50000  0.91349  1.0000
  Pt  Pt8       1.0  0.75000  0.75000  0.97116  1.0000
  Pt  Pt9       1.0  0.75000  0.25000  0.97116  1.0000
  Pt  Pt10      1.0  0.50000  0.00000  0.02884  1.0000
  Pt  Pt11      1.0  0.75000  0.25000  0.08651  1.0000
  Pt  Pt12      1.0  0.75000  0.75000  0.08651  1.0000
