# generated using pymatgen
data_TiRh
_symmetry_space_group_name_H-M   P4mm
_cell_length_a   3.12150500
_cell_length_b   3.12150500
_cell_length_c   24.68230000
_cell_angle_alpha   90.00000000
_cell_angle_beta   90.00000000
_cell_angle_gamma   90.00000000
_symmetry_Int_Tables_number   99
_chemical_formula_structural   TiRh
_chemical_formula_sum   'Ti2 Rh2'
_cell_volume   240.49923344
_cell_formula_units_Z   2
loop_
 _symmetry_equiv_pos_site_id
 _symmetry_equiv_pos_as_xyz
  1  'x, y, z'
  2  '-y, x, z'
  3  '-x, -y, z'
  4  'y, -x, z'
  5  '-x, y, z'
  6  'y, x, z'
  7  'x, -y, z'
  8  '-y, -x, z'
loop_
 _atom_site_type_symbol
 _atom_site_label
 _atom_site_symmetry_multiplicity
 _atom_site_fract_x
 _atom_site_fract_y
 _atom_site_fract_z
 _atom_site_occupancy
  Ti  Ti0  1  0.00000000  0.00000000  0.08331000  1.0
  Ti  Ti1  1  0.00000000  0.00000000  0.95684000  1.0
  Rh  Rh2  1  0.50000000  0.50000000  0.02008000  1.0
  Rh  Rh3  1  0.50000000  0.50000000  0.89361000  1.0
