# generated using pymatgen
data_Y4In4Ge4Pd4CO
_symmetry_space_group_name_H-M   Pm
_cell_length_a   5.95203000
_cell_length_b   9.45024000
_cell_length_c   24.43650000
_cell_angle_alpha   90.00000000
_cell_angle_beta   90.00000000
_cell_angle_gamma   90.00000000
_symmetry_Int_Tables_number   6
_chemical_formula_structural   Y4In4Ge4Pd4CO
_chemical_formula_sum   'Y4 In4 Ge4 Pd4 C1 O1'
_cell_volume   1374.50698858
_cell_formula_units_Z   1
loop_
 _symmetry_equiv_pos_site_id
 _symmetry_equiv_pos_as_xyz
  1  'x, y, z'
  2  'x, -y, z'
loop_
 _atom_site_type_symbol
 _atom_site_label
 _atom_site_symmetry_multiplicity
 _atom_site_fract_x
 _atom_site_fract_y
 _atom_site_fract_z
 _atom_site_occupancy
  Y  Y0  2  0.50000000  0.25001000  0.90922000  1.0
  Y  Y1  2  0.91602000  0.25143000  0.03283000  1.0
  In  In2  1  0.22227000  0.00000000  0.96974000  1.0
  In  In3  1  0.22227000  0.50000000  0.96974000  1.0
  In  In4  1  0.59787000  0.00000000  0.08722000  1.0
  In  In5  1  0.64827000  0.50000000  0.09708000  1.0
  Ge  Ge6  2  0.00000000  0.25001000  0.90922000  1.0
  Ge  Ge7  2  0.41659000  0.26560000  0.04601000  1.0
  Pd  Pd8  1  0.11598000  0.00000000  0.07952000  1.0
  Pd  Pd9  1  0.14740000  0.50000000  0.08127000  1.0
  Pd  Pd10  1  0.72227000  0.00000000  0.96974000  1.0
  Pd  Pd11  1  0.72227000  0.50000000  0.96974000  1.0
  C  C12  1  0.56850000  0.00000000  0.23869000  1.0
  O  O13  1  0.70860000  0.00000000  0.27023000  1.0
