# generated using pymatgen
data_Li8In8Ge8Au8CO
_symmetry_space_group_name_H-M   Pm
_cell_length_a   8.39470000
_cell_length_b   8.46544000
_cell_length_c   26.43350000
_cell_angle_alpha   90.00000000
_cell_angle_beta   90.00000000
_cell_angle_gamma   90.00000000
_symmetry_Int_Tables_number   6
_chemical_formula_structural   Li8In8Ge8Au8CO
_chemical_formula_sum   'Li8 In8 Ge8 Au8 C1 O1'
_cell_volume   1878.49216181
_cell_formula_units_Z   1
loop_
 _symmetry_equiv_pos_site_id
 _symmetry_equiv_pos_as_xyz
  1  'x, y, z'
  2  'x, -y, z'
loop_
 _atom_site_type_symbol
 _atom_site_label
 _atom_site_symmetry_multiplicity
 _atom_site_fract_x
 _atom_site_fract_y
 _atom_site_fract_z
 _atom_site_occupancy
  Li  Li0  2  0.24999000  0.25647000  0.03858000  1.0
  Li  Li1  2  0.25000000  0.24999000  0.87831000  1.0
  Li  Li2  2  0.75000000  0.24999000  0.87831000  1.0
  Li  Li3  2  0.75000000  0.25231000  0.03953000  1.0
  In  In4  1  0.25000000  0.00000000  0.95944000  1.0
  In  In5  1  0.25000000  0.50000000  0.14147000  1.0
  In  In6  1  0.25000000  0.50000000  0.95944000  1.0
  In  In7  1  0.25001000  0.00000000  0.13364000  1.0
  In  In8  1  0.75000000  0.00000000  0.14035000  1.0
  In  In9  1  0.75000000  0.00000000  0.95944000  1.0
  In  In10  1  0.75000000  0.50000000  0.14351000  1.0
  In  In11  1  0.75000000  0.50000000  0.95944000  1.0
  Ge  Ge12  2  0.00000000  0.24999000  0.95944000  1.0
  Ge  Ge13  2  0.00028000  0.23828000  0.10726000  1.0
  Ge  Ge14  2  0.49972000  0.23828000  0.10726000  1.0
  Ge  Ge15  2  0.50000000  0.24999000  0.95944000  1.0
  Au  Au16  1  -0.00000000  0.50000000  0.87831000  1.0
  Au  Au17  1  0.00000000  0.00000000  0.87831000  1.0
  Au  Au18  1  0.50000000  0.00000000  0.87831000  1.0
  Au  Au19  1  0.50000000  0.50000000  0.87831000  1.0
  Au  Au20  1  0.50100000  0.50000000  0.04145000  1.0
  Au  Au21  1  0.50277000  0.00000000  0.03709000  1.0
  Au  Au22  1  0.99723000  0.00000000  0.03709000  1.0
  Au  Au23  1  0.99900000  0.50000000  0.04145000  1.0
  C  C24  1  0.24994000  0.00000000  0.28967000  1.0
  O  O25  1  0.25003000  0.00000000  0.33259000  1.0
