# generated using pymatgen
data_Li8In16Pt8C
_symmetry_space_group_name_H-M   'P 1'
_cell_length_a   9.46152000
_cell_length_b   6.69031000
_cell_length_c   27.09610000
_cell_angle_alpha   90.00000000
_cell_angle_beta   90.00000000
_cell_angle_gamma   90.00000000
_symmetry_Int_Tables_number   1
_chemical_formula_structural   Li8In16Pt8C
_chemical_formula_sum   'Li8 In16 Pt8 C1'
_cell_volume   1715.19672875
_cell_formula_units_Z   1
loop_
 _symmetry_equiv_pos_site_id
 _symmetry_equiv_pos_as_xyz
  1  'x, y, z'
loop_
 _atom_site_type_symbol
 _atom_site_label
 _atom_site_symmetry_multiplicity
 _atom_site_fract_x
 _atom_site_fract_y
 _atom_site_fract_z
 _atom_site_occupancy
  Li  Li0  1  0.75000000  0.00000000  0.13094000  1.0
  Li  Li1  1  0.00000000  0.50000000  0.04365000  1.0
  Li  Li2  1  0.50000000  0.50000000  0.04365000  1.0
  Li  Li3  1  0.25000000  0.00000000  0.13094000  1.0
  Li  Li4  1  0.24917000  0.99750000  0.94710000  1.0
  Li  Li5  1  0.50000000  0.47761000  0.86118000  1.0
  Li  Li6  1  0.00000000  0.54434000  0.84948000  1.0
  Li  Li7  1  0.75083000  0.99750000  0.94710000  1.0
  In  In8  1  0.75000000  0.25000000  0.04365000  1.0
  In  In9  1  0.25000000  0.75000000  0.04365000  1.0
  In  In10  1  0.75000000  0.75000000  0.04365000  1.0
  In  In11  1  0.25000000  0.25000000  0.04365000  1.0
  In  In12  1  0.50000000  0.75000000  0.13094000  1.0
  In  In13  1  0.00000000  0.25000000  0.13094000  1.0
  In  In14  1  0.50000000  0.25000000  0.13094000  1.0
  In  In15  1  0.00000000  0.75000000  0.13094000  1.0
  In  In16  1  0.24706000  0.26689000  0.85405000  1.0
  In  In17  1  0.73680000  0.76436000  0.85156000  1.0
  In  In18  1  0.26320000  0.76436000  0.85156000  1.0
  In  In19  1  0.75294000  0.26689000  0.85405000  1.0
  In  In20  1  0.00000000  0.73123000  0.95611000  1.0
  In  In21  1  0.50000000  0.25465000  0.95739000  1.0
  In  In22  1  0.00000000  0.26645000  0.95147000  1.0
  In  In23  1  0.50000000  0.74181000  0.95334000  1.0
  Pt  Pt24  1  0.50000000  0.00000000  0.04365000  1.0
  Pt  Pt25  1  0.75000000  0.50000000  0.13094000  1.0
  Pt  Pt26  1  0.00000000  0.00000000  0.04365000  1.0
  Pt  Pt27  1  0.25000000  0.50000000  0.13094000  1.0
  Pt  Pt28  1  0.00000000  0.94897000  0.87223000  1.0
  Pt  Pt29  1  0.25445000  0.49893000  0.96048000  1.0
  Pt  Pt30  1  0.50000000  0.01120000  0.87672000  1.0
  Pt  Pt31  1  0.74555000  0.49893000  0.96048000  1.0
  C  C32  1  0.00000000  0.24173000  0.86123000  1.0
