# generated using pymatgen
data_Li8In16Pt8C
_symmetry_space_group_name_H-M   Pm
_cell_length_a   6.69031000
_cell_length_b   9.46152000
_cell_length_c   27.09610000
_cell_angle_alpha   90.00000000
_cell_angle_beta   90.00000000
_cell_angle_gamma   90.00000000
_symmetry_Int_Tables_number   6
_chemical_formula_structural   Li8In16Pt8C
_chemical_formula_sum   'Li8 In16 Pt8 C1'
_cell_volume   1715.19672875
_cell_formula_units_Z   1
loop_
 _symmetry_equiv_pos_site_id
 _symmetry_equiv_pos_as_xyz
  1  'x, y, z'
  2  'x, -y, z'
loop_
 _atom_site_type_symbol
 _atom_site_label
 _atom_site_symmetry_multiplicity
 _atom_site_fract_x
 _atom_site_fract_y
 _atom_site_fract_z
 _atom_site_occupancy
  Li  Li0  2  0.00000000  0.25000000  0.86906000  1.0
  Li  Li1  2  0.99750000  0.24917000  0.05290000  1.0
  Li  Li2  1  0.47761000  0.50000000  0.13882000  1.0
  Li  Li3  1  0.50000000  0.00000000  0.95635000  1.0
  Li  Li4  1  0.50000000  0.50000000  0.95635000  1.0
  Li  Li5  1  0.54434000  0.00000000  0.15052000  1.0
  In  In6  2  0.25000000  0.25000000  0.95635000  1.0
  In  In7  2  0.26689000  0.24706000  0.14595000  1.0
  In  In8  2  0.75000000  0.25000000  0.95635000  1.0
  In  In9  2  0.76436000  0.26320000  0.14844000  1.0
  In  In10  1  0.25000000  0.00000000  0.86906000  1.0
  In  In11  1  0.25000000  0.50000000  0.86906000  1.0
  In  In12  1  0.25465000  0.50000000  0.04261000  1.0
  In  In13  1  0.26645000  0.00000000  0.04853000  1.0
  In  In14  1  0.73123000  0.00000000  0.04389000  1.0
  In  In15  1  0.74181000  0.50000000  0.04666000  1.0
  In  In16  1  0.75000000  0.00000000  0.86906000  1.0
  In  In17  1  0.75000000  0.50000000  0.86906000  1.0
  Pt  Pt18  2  0.49893000  0.25445000  0.03952000  1.0
  Pt  Pt19  2  0.50000000  0.25000000  0.86906000  1.0
  Pt  Pt20  1  0.00000000  0.00000000  0.95635000  1.0
  Pt  Pt21  1  0.00000000  0.50000000  0.95635000  1.0
  Pt  Pt22  1  0.01120000  0.50000000  0.12328000  1.0
  Pt  Pt23  1  0.94897000  0.00000000  0.12777000  1.0
  C  C24  1  0.24173000  0.00000000  0.13877000  1.0
