# generated using pymatgen
data_Li4Sc4In4Ag4CO
_symmetry_space_group_name_H-M   'P 1'
_cell_length_a   6.68683000
_cell_length_b   6.68683000
_cell_length_c   25.01510000
_cell_angle_alpha   90.00000000
_cell_angle_beta   90.00000000
_cell_angle_gamma   90.00000000
_symmetry_Int_Tables_number   1
_chemical_formula_structural   Li4Sc4In4Ag4CO
_chemical_formula_sum   'Li4 Sc4 In4 Ag4 C1 O1'
_cell_volume   1118.51756302
_cell_formula_units_Z   1
loop_
 _symmetry_equiv_pos_site_id
 _symmetry_equiv_pos_as_xyz
  1  'x, y, z'
loop_
 _atom_site_type_symbol
 _atom_site_label
 _atom_site_symmetry_multiplicity
 _atom_site_fract_x
 _atom_site_fract_y
 _atom_site_fract_z
 _atom_site_occupancy
  Li  Li0  1  0.00000000  0.50000000  0.10024000  1
  Li  Li1  1  0.01490000  0.01490000  0.96134000  1
  Li  Li2  1  0.48591000  0.48591000  0.96124000  1
  Li  Li3  1  0.50000000  0.00000000  0.10024000  1
  Sc  Sc4  1  0.75000000  0.75000000  0.03341000  1
  Sc  Sc5  1  0.75034000  0.24963000  0.89448000  1
  Sc  Sc6  1  0.24963000  0.75034000  0.89448000  1
  Sc  Sc7  1  0.25000000  0.25000000  0.03341000  1
  In  In8  1  0.25000000  0.75000000  0.03341000  1
  In  In9  1  0.25035000  0.25035000  0.88411000  1
  In  In10  1  0.75078500  0.75078500  0.90470000  1
  In  In11  1  0.75000000  0.25000000  0.03341000  1
  Ag  Ag12  1  0.00000000  0.00000000  0.10024000  1
  Ag  Ag13  1  0.01272000  0.48710000  0.96355000  1
  Ag  Ag14  1  0.48710000  0.01272000  0.96355000  1
  Ag  Ag15  1  0.50000000  0.50000000  0.10024000  1
  C  C16  1  0.74844000  0.74844000  0.81432000  1
  O  O17  1  0.74914500  0.74914500  0.76802000  1
