# generated using pymatgen
data_Li8Ga16Rh8CO
_symmetry_space_group_name_H-M   'P 1'
_cell_length_a   6.12388000
_cell_length_b   8.66047000
_cell_length_c   26.49540000
_cell_angle_alpha   90.00000000
_cell_angle_beta   90.00000000
_cell_angle_gamma   90.00000000
_symmetry_Int_Tables_number   1
_chemical_formula_structural   Li8Ga16Rh8CO
_chemical_formula_sum   'Li8 Ga16 Rh8 C1 O1'
_cell_volume   1405.20153000
_cell_formula_units_Z   1
loop_
 _symmetry_equiv_pos_site_id
 _symmetry_equiv_pos_as_xyz
  1  'x, y, z'
loop_
 _atom_site_type_symbol
 _atom_site_label
 _atom_site_symmetry_multiplicity
 _atom_site_fract_x
 _atom_site_fract_y
 _atom_site_fract_z
 _atom_site_occupancy
  Li  Li0  1  0.00000000  0.75000000  0.87742000  1.0
  Li  Li1  1  0.50000000  0.00000000  0.95914000  1.0
  Li  Li2  1  0.50000000  0.50000000  0.95914000  1.0
  Li  Li3  1  0.00000000  0.25000000  0.87742000  1.0
  Li  Li4  1  0.00000000  0.25219000  0.03927000  1.0
  Li  Li5  1  0.50000000  0.50000000  0.14100000  1.0
  Li  Li6  1  0.50000000  0.00000000  0.13531000  1.0
  Li  Li7  1  0.00000000  0.74781000  0.03927000  1.0
  Ga  Ga8  1  0.25000000  0.75000000  0.95914000  1.0
  Ga  Ga9  1  0.75000000  0.25000000  0.95914000  1.0
  Ga  Ga10  1  0.75000000  0.75000000  0.95914000  1.0
  Ga  Ga11  1  0.25000000  0.25000000  0.95914000  1.0
  Ga  Ga12  1  0.75000000  0.50000000  0.87742000  1.0
  Ga  Ga13  1  0.25000000  0.00000000  0.87742000  1.0
  Ga  Ga14  1  0.25000000  0.50000000  0.87742000  1.0
  Ga  Ga15  1  0.75000000  0.00000000  0.87742000  1.0
  Ga  Ga16  1  0.24132000  0.25560000  0.12425000  1.0
  Ga  Ga17  1  0.75868000  0.74440000  0.12425000  1.0
  Ga  Ga18  1  0.75868000  0.25560000  0.12425000  1.0
  Ga  Ga19  1  0.24132000  0.74440000  0.12425000  1.0
  Ga  Ga20  1  0.74850000  0.00000000  0.04528000  1.0
  Ga  Ga21  1  0.26295000  0.50000000  0.04165000  1.0
  Ga  Ga22  1  0.25150000  0.00000000  0.04528000  1.0
  Ga  Ga23  1  0.73705000  0.50000000  0.04165000  1.0
  Rh  Rh24  1  0.00000000  0.50000000  0.95914000  1.0
  Rh  Rh25  1  0.50000000  0.75000000  0.87742000  1.0
  Rh  Rh26  1  0.00000000  0.00000000  0.95914000  1.0
  Rh  Rh27  1  0.50000000  0.25000000  0.87742000  1.0
  Rh  Rh28  1  0.00000000  0.00000000  0.12950000  1.0
  Rh  Rh29  1  0.50000000  0.24633000  0.03718000  1.0
  Rh  Rh30  1  0.00000000  0.50000000  0.11487000  1.0
  Rh  Rh31  1  0.50000000  0.75367000  0.03718000  1.0
  C  C32  1  0.00000000  0.00000000  0.20073000  1.0
  O  O33  1  0.00000000  0.00000000  0.24446000  1.0
