data_image0
_chemical_formula_structural       YPt3YPt3YPt3YPt3YPt3YPt3YPt3YPt3C
_chemical_formula_sum              "Y8 Pt24 C1"
_cell_length_a       8.32195
_cell_length_b       8.32195
_cell_length_c       26.2415
_cell_angle_alpha    90
_cell_angle_beta     90
_cell_angle_gamma    90

_space_group_name_H-M_alt    "P 1"
_space_group_IT_number       1

loop_
  _space_group_symop_operation_xyz
  'x, y, z'

loop_
  _atom_site_type_symbol
  _atom_site_label
  _atom_site_symmetry_multiplicity
  _atom_site_fract_x
  _atom_site_fract_y
  _atom_site_fract_z
  _atom_site_occupancy
  Y   Y1        1.0  0.00000  0.00000  0.11892  1.0000
  Pt  Pt1       1.0  0.00000  0.25000  0.03964  1.0000
  Pt  Pt2       1.0  0.25000  0.00000  0.03964  1.0000
  Pt  Pt3       1.0  0.25000  0.25000  0.11892  1.0000
  Y   Y2        1.0  0.00000  0.00000  0.96036  1.0000
  Pt  Pt4       1.0  0.00000  0.25000  0.88108  1.0000
  Pt  Pt5       1.0  0.25000  0.00000  0.88108  1.0000
  Pt  Pt6       1.0  0.25000  0.25000  0.96036  1.0000
  Y   Y3        1.0  0.00000  0.50000  0.11892  1.0000
  Pt  Pt7       1.0  0.00000  0.75000  0.03964  1.0000
  Pt  Pt8       1.0  0.25000  0.50000  0.03964  1.0000
  Pt  Pt9       1.0  0.25000  0.75000  0.11892  1.0000
  Y   Y4        1.0  0.00000  0.50000  0.96036  1.0000
  Pt  Pt10      1.0  0.00000  0.75000  0.88108  1.0000
  Pt  Pt11      1.0  0.25000  0.50000  0.88108  1.0000
  Pt  Pt12      1.0  0.25000  0.75000  0.96036  1.0000
  Y   Y5        1.0  0.50000  0.00000  0.11892  1.0000
  Pt  Pt13      1.0  0.50000  0.25000  0.03964  1.0000
  Pt  Pt14      1.0  0.75000  0.00000  0.03964  1.0000
  Pt  Pt15      1.0  0.75000  0.25000  0.11892  1.0000
  Y   Y6        1.0  0.50000  0.00000  0.96036  1.0000
  Pt  Pt16      1.0  0.50000  0.25000  0.88108  1.0000
  Pt  Pt17      1.0  0.75000  0.00000  0.88108  1.0000
  Pt  Pt18      1.0  0.75000  0.25000  0.96036  1.0000
  Y   Y7        1.0  0.50000  0.50000  0.11892  1.0000
  Pt  Pt19      1.0  0.50000  0.75000  0.03964  1.0000
  Pt  Pt20      1.0  0.75000  0.50000  0.03964  1.0000
  Pt  Pt21      1.0  0.75000  0.75000  0.11892  1.0000
  Y   Y8        1.0  0.50000  0.50000  0.96036  1.0000
  Pt  Pt22      1.0  0.50000  0.75000  0.88108  1.0000
  Pt  Pt23      1.0  0.75000  0.50000  0.88108  1.0000
  Pt  Pt24      1.0  0.75000  0.75000  0.96036  1.0000
  C   C1        1.0  0.25000  0.00000  0.14941  1.0000
