# generated using pymatgen
data_Li3Pd
_symmetry_space_group_name_H-M   'P 1'
_cell_length_a   4.39794500
_cell_length_b   6.21964000
_cell_length_c   26.59690000
_cell_angle_alpha   90.00000000
_cell_angle_beta   90.00000000
_cell_angle_gamma   90.00000000
_symmetry_Int_Tables_number   1
_chemical_formula_structural   Li3Pd
_chemical_formula_sum   'Li12 Pd4'
_cell_volume   727.52188515
_cell_formula_units_Z   4
loop_
 _symmetry_equiv_pos_site_id
 _symmetry_equiv_pos_as_xyz
  1  'x, y, z'
loop_
 _atom_site_type_symbol
 _atom_site_label
 _atom_site_symmetry_multiplicity
 _atom_site_fract_x
 _atom_site_fract_y
 _atom_site_fract_z
 _atom_site_occupancy
  Li  Li0  1  0.00000000  0.75000000  0.04134000  1.0
  Li  Li1  1  0.00000000  0.25000000  0.04134000  1.0
  Li  Li2  1  0.50000000  0.25000000  0.12402000  1.0
  Li  Li3  1  0.50000000  0.75000000  0.12402000  1.0
  Li  Li4  1  0.50000000  0.00000000  0.04134000  1.0
  Li  Li5  1  0.00000000  0.50000000  0.12402000  1.0
  Li  Li6  1  0.00000000  0.72845500  0.86781500  1.0
  Li  Li7  1  0.00000000  0.27154500  0.86781500  1.0
  Li  Li8  1  0.50000000  0.25027000  0.96080000  1.0
  Li  Li9  1  0.50000000  0.74973000  0.96080000  1.0
  Li  Li10  1  0.50000000  0.00000000  0.88286000  1.0
  Li  Li11  1  0.00000000  0.50000000  0.95554000  1.0
  Pd  Pd12  1  0.00000000  0.00000000  0.12402000  1.0
  Pd  Pd13  1  0.50000000  0.50000000  0.04134000  1.0
  Pd  Pd14  1  0.00000000  0.00000000  0.94995000  1.0
  Pd  Pd15  1  0.50000000  0.50000000  0.88519500  1.0
