# generated using pymatgen
data_Be16Rh16C
_symmetry_space_group_name_H-M   Pmm2
_cell_length_a   5.57428000
_cell_length_b   7.88322000
_cell_length_c   25.91240000
_cell_angle_alpha   90.00000000
_cell_angle_beta   90.00000000
_cell_angle_gamma   90.00000000
_symmetry_Int_Tables_number   25
_chemical_formula_structural   Be16Rh16C
_chemical_formula_sum   'Be16 Rh16 C1'
_cell_volume   1138.67573418
_cell_formula_units_Z   1
loop_
 _symmetry_equiv_pos_site_id
 _symmetry_equiv_pos_as_xyz
  1  'x, y, z'
  2  '-x, -y, z'
  3  '-x, y, z'
  4  'x, -y, z'
loop_
 _atom_site_type_symbol
 _atom_site_label
 _atom_site_symmetry_multiplicity
 _atom_site_fract_x
 _atom_site_fract_y
 _atom_site_fract_z
 _atom_site_occupancy
  Be  Be0  2  0.00000000  0.25000000  0.96197000  1.0
  Be  Be1  2  0.00000000  0.25067000  0.11073000  1.0
  Be  Be2  2  0.50000000  0.25000000  0.96197000  1.0
  Be  Be3  2  0.50000000  0.25635000  0.10865000  1.0
  Be  Be4  1  0.00000000  0.00000000  0.03694000  1.0
  Be  Be5  1  0.00000000  0.00000000  0.88592000  1.0
  Be  Be6  1  0.00000000  0.50000000  0.03979000  1.0
  Be  Be7  1  0.00000000  0.50000000  0.88592000  1.0
  Be  Be8  1  0.50000000  0.00000000  0.03325000  1.0
  Be  Be9  1  0.50000000  0.00000000  0.88592000  1.0
  Be  Be10  1  0.50000000  0.50000000  0.03940000  1.0
  Be  Be11  1  0.50000000  0.50000000  0.88592000  1.0
  Rh  Rh12  4  0.24861000  0.24829000  0.03814000  1.0
  Rh  Rh13  4  0.25000000  0.25000000  0.88592000  1.0
  Rh  Rh14  2  0.25000000  0.00000000  0.96197000  1.0
  Rh  Rh15  2  0.25000000  0.50000000  0.96197000  1.0
  Rh  Rh16  2  0.25030000  0.50000000  0.11446000  1.0
  Rh  Rh17  2  0.25536000  0.00000000  0.11693000  1.0
  C  C18  1  0.00000000  0.00000000  0.16140000  1.0
