# generated using pymatgen
data_VOs
_symmetry_space_group_name_H-M   'P 1'
_cell_length_a   3.02394000
_cell_length_b   3.02394000
_cell_length_c   24.53590000
_cell_angle_alpha   90.00000000
_cell_angle_beta   90.00000000
_cell_angle_gamma   90.00000000
_symmetry_Int_Tables_number   1
_chemical_formula_structural   VOs
_chemical_formula_sum   'V2 Os2'
_cell_volume   224.36149878
_cell_formula_units_Z   2
loop_
 _symmetry_equiv_pos_site_id
 _symmetry_equiv_pos_as_xyz
  1  'x, y, z'
loop_
 _atom_site_type_symbol
 _atom_site_label
 _atom_site_symmetry_multiplicity
 _atom_site_fract_x
 _atom_site_fract_y
 _atom_site_fract_z
 _atom_site_occupancy
  V  V0  1  0.00000000  0.00000000  0.11023000  1.0
  V  V1  1  0.00000000  0.00000000  0.98698000  1.0
  Os  Os2  1  0.50000000  0.50000000  0.04861000  1.0
  Os  Os3  1  0.50000000  0.50000000  0.92536000  1.0
