# generated using pymatgen
data_Zr16Ti8Al8C
_symmetry_space_group_name_H-M   'P 1'
_cell_length_a   6.81091000
_cell_length_b   9.63207000
_cell_length_c   27.22410000
_cell_angle_alpha   90.00000000
_cell_angle_beta   90.00000000
_cell_angle_gamma   90.00000000
_symmetry_Int_Tables_number   1
_chemical_formula_structural   Zr16Ti8Al8C
_chemical_formula_sum   'Zr16 Ti8 Al8 C1'
_cell_volume   1785.98703944
_cell_formula_units_Z   1
loop_
 _symmetry_equiv_pos_site_id
 _symmetry_equiv_pos_as_xyz
  1  'x, y, z'
loop_
 _atom_site_type_symbol
 _atom_site_label
 _atom_site_symmetry_multiplicity
 _atom_site_fract_x
 _atom_site_fract_y
 _atom_site_fract_z
 _atom_site_occupancy
  Zr  Zr0  1  0.25000000  0.00000000  0.95577000  1.0
  Zr  Zr1  1  0.75000000  0.50000000  0.95577000  1.0
  Zr  Zr2  1  0.75000000  0.00000000  0.95577000  1.0
  Zr  Zr3  1  0.25000000  0.50000000  0.95577000  1.0
  Zr  Zr4  1  0.75000000  0.75000000  0.86732000  1.0
  Zr  Zr5  1  0.25000000  0.25000000  0.86732000  1.0
  Zr  Zr6  1  0.25000000  0.75000000  0.86732000  1.0
  Zr  Zr7  1  0.75000000  0.25000000  0.86732000  1.0
  Zr  Zr8  1  0.27536000  0.50000000  0.13018000  1.0
  Zr  Zr9  1  0.79393000  0.00000000  0.13122000  1.0
  Zr  Zr10  1  0.72464000  0.50000000  0.13018000  1.0
  Zr  Zr11  1  0.20607000  0.00000000  0.13122000  1.0
  Zr  Zr12  1  0.74605000  0.25047000  0.04667000  1.0
  Zr  Zr13  1  0.25395000  0.74953000  0.04667000  1.0
  Zr  Zr14  1  0.25395000  0.25047000  0.04667000  1.0
  Zr  Zr15  1  0.74605000  0.74953000  0.04667000  1.0
  Ti  Ti16  1  0.00000000  0.00000000  0.86732000  1.0
  Ti  Ti17  1  0.50000000  0.25000000  0.95577000  1.0
  Ti  Ti18  1  0.50000000  0.75000000  0.95577000  1.0
  Ti  Ti19  1  0.00000000  0.50000000  0.86732000  1.0
  Ti  Ti20  1  0.00000000  0.50000000  0.05752000  1.0
  Ti  Ti21  1  0.50000000  0.78738000  0.13715000  1.0
  Ti  Ti22  1  0.50000000  0.21262000  0.13715000  1.0
  Ti  Ti23  1  0.00000000  0.00000000  0.03519000  1.0
  Al  Al24  1  0.00000000  0.75000000  0.95577000  1.0
  Al  Al25  1  0.50000000  0.00000000  0.86732000  1.0
  Al  Al26  1  0.00000000  0.25000000  0.95577000  1.0
  Al  Al27  1  0.50000000  0.50000000  0.86732000  1.0
  Al  Al28  1  0.00000000  0.26681000  0.13266000  1.0
  Al  Al29  1  0.50000000  0.50000000  0.04022000  1.0
  Al  Al30  1  0.00000000  0.73319000  0.13266000  1.0
  Al  Al31  1  0.50000000  0.00000000  0.04825000  1.0
  C  C32  1  0.50000000  0.00000000  0.15711000  1.0
