# generated using pymatgen
data_Li8Mg8Ge8Pd8C
_symmetry_space_group_name_H-M   'P 1'
_cell_length_a   8.85076000
_cell_length_b   6.25843000
_cell_length_c   26.63810000
_cell_angle_alpha   90.00000000
_cell_angle_beta   90.00000000
_cell_angle_gamma   90.00000000
_symmetry_Int_Tables_number   1
_chemical_formula_structural   Li8Mg8Ge8Pd8C
_chemical_formula_sum   'Li8 Mg8 Ge8 Pd8 C1'
_cell_volume   1475.53395666
_cell_formula_units_Z   1
loop_
 _symmetry_equiv_pos_site_id
 _symmetry_equiv_pos_as_xyz
  1  'x, y, z'
loop_
 _atom_site_type_symbol
 _atom_site_label
 _atom_site_symmetry_multiplicity
 _atom_site_fract_x
 _atom_site_fract_y
 _atom_site_fract_z
 _atom_site_occupancy
  Li  Li0  1  0.00000000  0.25000000  0.04153000  1.0
  Li  Li1  1  0.50000000  0.25000000  0.04153000  1.0
  Li  Li2  1  0.25000000  0.75000000  0.12460000  1.0
  Li  Li3  1  0.75000000  0.75000000  0.12460000  1.0
  Li  Li4  1  0.50000000  0.32059000  0.85921000  1.0
  Li  Li5  1  0.00000000  0.20803000  0.87024000  1.0
  Li  Li6  1  0.75033000  0.75427000  0.95207000  1.0
  Li  Li7  1  0.24967000  0.75427000  0.95207000  1.0
  Mg  Mg8  1  0.25000000  1.00000000  0.04153000  1.0
  Mg  Mg9  1  0.75000000  1.00000000  0.04153000  1.0
  Mg  Mg10  1  0.50000000  0.50000000  0.12460000  1.0
  Mg  Mg11  1  0.00000000  0.50000000  0.12460000  1.0
  Mg  Mg12  1  0.72674000  0.99467000  0.86263000  1.0
  Mg  Mg13  1  0.27326000  0.99467000  0.86263000  1.0
  Mg  Mg14  1  0.00000000  0.48923000  0.95376000  1.0
  Mg  Mg15  1  0.50000000  0.49220000  0.96019000  1.0
  Ge  Ge16  1  0.00000000  0.00000000  0.12460000  1.0
  Ge  Ge17  1  0.50000000  1.00000000  0.12460000  1.0
  Ge  Ge18  1  0.75000000  0.50000000  0.04153000  1.0
  Ge  Ge19  1  0.25000000  0.50000000  0.04153000  1.0
  Ge  Ge20  1  0.50000000  0.99871000  0.95397000  1.0
  Ge  Ge21  1  0.00000000  0.01634000  0.96386000  1.0
  Ge  Ge22  1  0.22199000  0.48403000  0.86166000  1.0
  Ge  Ge23  1  0.77801000  0.48403000  0.86166000  1.0
  Pd  Pd24  1  0.00000000  0.75000000  0.04153000  1.0
  Pd  Pd25  1  0.50000000  0.75000000  0.04153000  1.0
  Pd  Pd26  1  0.25000000  0.25000000  0.12460000  1.0
  Pd  Pd27  1  0.75000000  0.25000000  0.12460000  1.0
  Pd  Pd28  1  0.50000000  0.73337000  0.87815000  1.0
  Pd  Pd29  1  0.00000000  0.81690000  0.88353000  1.0
  Pd  Pd30  1  0.74698000  0.24016000  0.95367000  1.0
  Pd  Pd31  1  0.25302000  0.24016000  0.95367000  1.0
  C  C32  1  0.00000000  0.51664000  0.85592000  1.0
