# generated using pymatgen
data_Li8Mg8Ge8Pd8C
_symmetry_space_group_name_H-M   Pm
_cell_length_a   6.25843000
_cell_length_b   8.85076000
_cell_length_c   26.63810000
_cell_angle_alpha   90.00000000
_cell_angle_beta   90.00000000
_cell_angle_gamma   90.00000000
_symmetry_Int_Tables_number   6
_chemical_formula_structural   Li8Mg8Ge8Pd8C
_chemical_formula_sum   'Li8 Mg8 Ge8 Pd8 C1'
_cell_volume   1475.53395666
_cell_formula_units_Z   1
loop_
 _symmetry_equiv_pos_site_id
 _symmetry_equiv_pos_as_xyz
  1  'x, y, z'
  2  'x, -y, z'
loop_
 _atom_site_type_symbol
 _atom_site_label
 _atom_site_symmetry_multiplicity
 _atom_site_fract_x
 _atom_site_fract_y
 _atom_site_fract_z
 _atom_site_occupancy
  Li  Li0  2  0.75000000  0.25000000  0.87540000  1.0
  Li  Li1  2  0.75427000  0.24967000  0.04793000  1.0
  Li  Li2  1  0.20803000  0.00000000  0.12976000  1.0
  Li  Li3  1  0.25000000  0.00000000  0.95847000  1.0
  Li  Li4  1  0.25000000  0.50000000  0.95847000  1.0
  Li  Li5  1  0.32059000  0.50000000  0.14079000  1.0
  Mg  Mg6  2  -0.00000000  0.25000000  0.95847000  1.0
  Mg  Mg7  2  0.99467000  0.27326000  0.13737000  1.0
  Mg  Mg8  1  0.48923000  0.00000000  0.04624000  1.0
  Mg  Mg9  1  0.49220000  0.50000000  0.03981000  1.0
  Mg  Mg10  1  0.50000000  0.00000000  0.87540000  1.0
  Mg  Mg11  1  0.50000000  0.50000000  0.87540000  1.0
  Ge  Ge12  2  0.48403000  0.22199000  0.13834000  1.0
  Ge  Ge13  2  0.50000000  0.25000000  0.95847000  1.0
  Ge  Ge14  1  -0.00000000  0.50000000  0.87540000  1.0
  Ge  Ge15  1  0.00000000  0.00000000  0.87540000  1.0
  Ge  Ge16  1  0.01634000  0.00000000  0.03614000  1.0
  Ge  Ge17  1  0.99871000  0.50000000  0.04603000  1.0
  Pd  Pd18  2  0.24016000  0.25302000  0.04633000  1.0
  Pd  Pd19  2  0.25000000  0.25000000  0.87540000  1.0
  Pd  Pd20  1  0.73337000  0.50000000  0.12185000  1.0
  Pd  Pd21  1  0.75000000  0.00000000  0.95847000  1.0
  Pd  Pd22  1  0.75000000  0.50000000  0.95847000  1.0
  Pd  Pd23  1  0.81690000  0.00000000  0.11647000  1.0
  C  C24  1  0.51664000  0.00000000  0.14408000  1.0
