# generated using pymatgen
data_Li8Mg8In8Ag8C
_symmetry_space_group_name_H-M   'P 1'
_cell_length_a   9.46136000
_cell_length_b   6.69019000
_cell_length_c   27.09600000
_cell_angle_alpha   90.00000000
_cell_angle_beta   90.00000000
_cell_angle_gamma   90.00000000
_symmetry_Int_Tables_number   1
_chemical_formula_structural   Li8Mg8In8Ag8C
_chemical_formula_sum   'Li8 Mg8 In8 Ag8 C1'
_cell_volume   1715.13063000
_cell_formula_units_Z   1
loop_
 _symmetry_equiv_pos_site_id
 _symmetry_equiv_pos_as_xyz
  1  'x, y, z'
loop_
 _atom_site_type_symbol
 _atom_site_label
 _atom_site_symmetry_multiplicity
 _atom_site_fract_x
 _atom_site_fract_y
 _atom_site_fract_z
 _atom_site_occupancy
  Li  Li0  1  0.24999000  0.00000000  0.04365000  1.0
  Li  Li1  1  0.75001000  0.00000000  0.04365000  1.0
  Li  Li2  1  0.50000000  0.50000000  0.13094000  1.0
  Li  Li3  1  0.00000000  0.50000000  0.13094000  1.0
  Li  Li4  1  0.77699000  0.01665000  0.85611000  1.0
  Li  Li5  1  0.22301000  0.01665000  0.85611000  1.0
  Li  Li6  1  0.00000000  0.48479000  0.95482000  1.0
  Li  Li7  1  0.50000000  0.50115000  0.94987000  1.0
  Mg  Mg8  1  0.00000000  0.75000000  0.04365000  1.0
  Mg  Mg9  1  0.50000000  0.75000000  0.04365000  1.0
  Mg  Mg10  1  0.24999000  0.25000000  0.13094000  1.0
  Mg  Mg11  1  0.75001000  0.25000000  0.13094000  1.0
  Mg  Mg12  1  0.50000000  0.76269000  0.86286000  1.0
  Mg  Mg13  1  0.00000000  0.71471000  0.86403000  1.0
  Mg  Mg14  1  0.74147000  0.24169000  0.95490000  1.0
  Mg  Mg15  1  0.25853000  0.24169000  0.95490000  1.0
  In  In16  1  0.00000000  0.25000000  0.04365000  1.0
  In  In17  1  0.50000000  0.25000000  0.04365000  1.0
  In  In18  1  0.24999000  0.75000000  0.13094000  1.0
  In  In19  1  0.75001000  0.75000000  0.13094000  1.0
  In  In20  1  0.50000000  0.21788000  0.85440000  1.0
  In  In21  1  0.00000000  0.31489000  0.83405000  1.0
  In  In22  1  0.75697000  0.75035000  0.95361000  1.0
  In  In23  1  0.24303000  0.75035000  0.95361000  1.0
  Ag  Ag24  1  0.00000000  0.00000000  0.13094000  1.0
  Ag  Ag25  1  0.50000000  1.00000000  0.13094000  1.0
  Ag  Ag26  1  0.74999000  0.50000000  0.04365000  1.0
  Ag  Ag27  1  0.25001000  0.50000000  0.04365000  1.0
  Ag  Ag28  1  0.50000000  0.99103000  0.95608000  1.0
  Ag  Ag29  1  0.00000000  0.02620000  0.94690000  1.0
  Ag  Ag30  1  0.26808000  0.48938000  0.86922000  1.0
  Ag  Ag31  1  0.73192000  0.48938000  0.86922000  1.0
  C  C32  1  0.00000000  0.01984000  0.85947000  1.0
