# generated using pymatgen
data_V8Os8C
_symmetry_space_group_name_H-M   'P 1'
_cell_length_a   6.04788000
_cell_length_b   6.04788000
_cell_length_c   24.53590000
_cell_angle_alpha   90.00000000
_cell_angle_beta   90.00000000
_cell_angle_gamma   90.00000000
_symmetry_Int_Tables_number   1
_chemical_formula_structural   V8Os8C
_chemical_formula_sum   'V8 Os8 C1'
_cell_volume   897.44599512
_cell_formula_units_Z   1
loop_
 _symmetry_equiv_pos_site_id
 _symmetry_equiv_pos_as_xyz
  1  'x, y, z'
loop_
 _atom_site_type_symbol
 _atom_site_label
 _atom_site_symmetry_multiplicity
 _atom_site_fract_x
 _atom_site_fract_y
 _atom_site_fract_z
 _atom_site_occupancy
  V  V0  1  0.25000000  0.25000000  0.95139000  1.0
  V  V1  1  0.25000000  0.25000000  0.07464000  1.0
  V  V2  1  0.25000000  0.75000000  0.95139000  1.0
  V  V3  1  0.25000000  0.75000000  0.07464000  1.0
  V  V4  1  0.75000000  0.25000000  0.95139000  1.0
  V  V5  1  0.75000000  0.25000000  0.07464000  1.0
  V  V6  1  0.75000000  0.75000000  0.95139000  1.0
  V  V7  1  0.75000000  0.75000000  0.07464000  1.0
  Os  Os8  1  0.00000000  0.00000000  0.88977000  1.0
  Os  Os9  1  0.00000000  0.00000000  0.01302000  1.0
  Os  Os10  1  0.00000000  0.50000000  0.88977000  1.0
  Os  Os11  1  0.00000000  0.50000000  0.01302000  1.0
  Os  Os12  1  0.50000000  0.00000000  0.88977000  1.0
  Os  Os13  1  0.50000000  0.00000000  0.01302000  1.0
  Os  Os14  1  0.50000000  0.50000000  0.88977000  1.0
  Os  Os15  1  0.50000000  0.50000000  0.01302000  1.0
  C  C16  1  0.00000000  0.00000000  0.10724000  1.0
