# generated using pymatgen
data_LiYGePb
_symmetry_space_group_name_H-M   'P 1'
_cell_length_a   4.32750000
_cell_length_b   4.93064000
_cell_length_c   26.41550000
_cell_angle_alpha   90.00000000
_cell_angle_beta   90.00000000
_cell_angle_gamma   90.00000000
_symmetry_Int_Tables_number   1
_chemical_formula_structural   LiYGePb
_chemical_formula_sum   'Li2 Y2 Ge2 Pb2'
_cell_volume   563.63662628
_cell_formula_units_Z   2
loop_
 _symmetry_equiv_pos_site_id
 _symmetry_equiv_pos_as_xyz
  1  'x, y, z'
loop_
 _atom_site_type_symbol
 _atom_site_label
 _atom_site_symmetry_multiplicity
 _atom_site_fract_x
 _atom_site_fract_y
 _atom_site_fract_z
 _atom_site_occupancy
  Li  Li0  1  0.00000000  0.50000000  0.95952000  1.0
  Li  Li1  1  0.00000000  0.50000000  0.11645000  1.0
  Y  Y2  1  0.50000000  0.00000000  0.95952000  1.0
  Y  Y3  1  0.50000000  0.00000000  0.11789000  1.0
  Ge  Ge4  1  0.00000000  0.00000000  0.87856000  1.0
  Ge  Ge5  1  0.00000000  0.00000000  0.04201500  1.0
  Pb  Pb6  1  0.50000000  0.50000000  0.87856000  1.0
  Pb  Pb7  1  0.50000000  0.50000000  0.04039000  1.0
