# generated using pymatgen
data_Y4In4Ge4Pd4C
_symmetry_space_group_name_H-M   'P 1'
_cell_length_a   9.45024000
_cell_length_b   5.95203000
_cell_length_c   24.43650000
_cell_angle_alpha   90.00000000
_cell_angle_beta   90.00000000
_cell_angle_gamma   90.00000000
_symmetry_Int_Tables_number   1
_chemical_formula_structural   Y4In4Ge4Pd4C
_chemical_formula_sum   'Y4 In4 Ge4 Pd4 C1'
_cell_volume   1374.50698858
_cell_formula_units_Z   1
loop_
 _symmetry_equiv_pos_site_id
 _symmetry_equiv_pos_as_xyz
  1  'x, y, z'
loop_
 _atom_site_type_symbol
 _atom_site_label
 _atom_site_symmetry_multiplicity
 _atom_site_fract_x
 _atom_site_fract_y
 _atom_site_fract_z
 _atom_site_occupancy
  Y  Y0  1  0.00000000  0.50000000  0.09078000  1.0
  Y  Y1  1  0.00000000  0.09262000  0.93781000  1.0
  Y  Y2  1  0.50000000  0.50000000  0.09078000  1.0
  Y  Y3  1  0.50000000  0.93227000  0.96775000  1.0
  In  In4  1  0.25000000  0.22227000  0.03026000  1.0
  In  In5  1  0.24322000  0.71362000  0.89869000  1.0
  In  In6  1  0.75000000  0.22227000  0.03026000  1.0
  In  In7  1  0.75678000  0.71362000  0.89869000  1.0
  Ge  Ge8  1  0.00000000  0.00000000  0.09078000  1.0
  Ge  Ge9  1  0.00000000  0.59996000  0.98359000  1.0
  Ge  Ge10  1  0.50000000  0.00000000  0.09078000  1.0
  Ge  Ge11  1  0.50000000  0.44971000  0.96118000  1.0
  Pd  Pd12  1  0.25000000  0.72227000  0.03026000  1.0
  Pd  Pd13  1  0.29259000  0.20776000  0.91477000  1.0
  Pd  Pd14  1  0.75000000  0.72227000  0.03026000  1.0
  Pd  Pd15  1  0.70741000  0.20776000  0.91477000  1.0
  C  C16  1  0.00000000  0.71324000  0.91112000  1.0
