# generated using pymatgen
data_Li8Ge4Au4CO
_symmetry_space_group_name_H-M   'P 1'
_cell_length_a   6.30953000
_cell_length_b   6.30953000
_cell_length_c   24.73210000
_cell_angle_alpha   90.00000000
_cell_angle_beta   90.00000000
_cell_angle_gamma   90.00000000
_symmetry_Int_Tables_number   1
_chemical_formula_structural   Li8Ge4Au4CO
_chemical_formula_sum   'Li8 Ge4 Au4 C1 O1'
_cell_volume   984.58907630
_cell_formula_units_Z   1
loop_
 _symmetry_equiv_pos_site_id
 _symmetry_equiv_pos_as_xyz
  1  'x, y, z'
loop_
 _atom_site_type_symbol
 _atom_site_label
 _atom_site_symmetry_multiplicity
 _atom_site_fract_x
 _atom_site_fract_y
 _atom_site_fract_z
 _atom_site_occupancy
  Li  Li0  1  0.99233000  0.99233000  0.96982000  1
  Li  Li1  1  0.50000000  1.00000000  0.09567000  1
  Li  Li2  1  0.00000000  0.50000000  0.09567000  1
  Li  Li3  1  0.50948000  0.50948000  0.96891000  1
  Li  Li4  1  0.24854000  0.75183000  0.89327000  1
  Li  Li5  1  0.25000000  0.25000000  0.03189000  1
  Li  Li6  1  0.75183000  0.24854000  0.89327000  1
  Li  Li7  1  0.75000000  0.75000000  0.03189000  1
  Ge  Ge8  1  0.00000000  0.00000000  0.09567000  1
  Ge  Ge9  1  0.50000000  0.50000000  0.09567000  1
  Ge  Ge10  1  0.51128000  0.98858000  0.96379000  1
  Ge  Ge11  1  0.98858000  0.51128000  0.96379000  1
  Au  Au12  1  0.25000000  0.75000000  0.03189000  1
  Au  Au13  1  0.24997500  0.24997500  0.91273000  1
  Au  Au14  1  0.75000000  0.25000000  0.03189000  1
  Au  Au15  1  0.75023000  0.75023000  0.89964000  1
  C  C16  1  0.75196000  0.75196000  0.81651000  1
  O  O17  1  0.74958000  0.74958000  0.76979000  1
