# generated using pymatgen
data_Li8Ge4Au4CO
_symmetry_space_group_name_H-M   Cm
_cell_length_a   8.92302290
_cell_length_b   8.92302290
_cell_length_c   24.73210000
_cell_angle_alpha   90.00000000
_cell_angle_beta   90.00000000
_cell_angle_gamma   90.00000000
_symmetry_Int_Tables_number   8
_chemical_formula_structural   Li8Ge4Au4CO
_chemical_formula_sum   'Li16 Ge8 Au8 C2 O2'
_cell_volume   1969.17815259
_cell_formula_units_Z   2
loop_
 _symmetry_equiv_pos_site_id
 _symmetry_equiv_pos_as_xyz
  1  'x, y, z'
  2  'x, -y, z'
  3  'x+1/2, y+1/2, z'
  4  'x+1/2, -y+1/2, z'
loop_
 _atom_site_type_symbol
 _atom_site_label
 _atom_site_symmetry_multiplicity
 _atom_site_fract_x
 _atom_site_fract_y
 _atom_site_fract_z
 _atom_site_occupancy
  Li  Li0  4  0.00018500  0.24835500  0.10673000  1.0
  Li  Li1  4  0.25000000  0.25000000  0.90433000  1.0
  Li  Li2  2  0.00948000  0.50000000  0.03109000  1.0
  Li  Li3  2  0.25000000  0.50000000  0.96811000  1.0
  Li  Li4  2  0.25000000  0.00000000  0.96811000  1.0
  Li  Li5  2  0.49233000  0.50000000  0.03018000  1.0
  Ge  Ge6  4  0.24993000  0.26135000  0.03621000  1.0
  Ge  Ge7  2  0.00000000  0.00000000  0.90433000  1.0
  Ge  Ge8  2  0.00000000  0.50000000  0.90433000  1.0
  Au  Au9  4  0.00000000  0.25000000  0.96811000  1.0
  Au  Au10  2  0.24997500  0.00000000  0.08727000  1.0
  Au  Au11  2  0.25023000  0.50000000  0.10036000  1.0
  C  C12  2  0.25196000  0.50000000  0.18349000  1.0
  O  O13  2  0.24958000  0.50000000  0.23021000  1.0
