# generated using pymatgen
data_Li8Ge8Pd8Pt8C
_symmetry_space_group_name_H-M   Pm
_cell_length_a   6.12898000
_cell_length_b   8.66768000
_cell_length_c   26.50080000
_cell_angle_alpha   90.00000000
_cell_angle_beta   90.00000000
_cell_angle_gamma   90.00000000
_symmetry_Int_Tables_number   6
_chemical_formula_structural   Li8Ge8Pd8Pt8C
_chemical_formula_sum   'Li8 Ge8 Pd8 Pt8 C1'
_cell_volume   1407.82948944
_cell_formula_units_Z   1
loop_
 _symmetry_equiv_pos_site_id
 _symmetry_equiv_pos_as_xyz
  1  'x, y, z'
  2  'x, -y, z'
loop_
 _atom_site_type_symbol
 _atom_site_label
 _atom_site_symmetry_multiplicity
 _atom_site_fract_x
 _atom_site_fract_y
 _atom_site_fract_z
 _atom_site_occupancy
  Li  Li0  2  0.50000000  0.25000000  0.87735000  1.0
  Li  Li1  2  0.50217000  0.25134000  0.03965000  1.0
  Li  Li2  1  0.00000000  0.00000000  0.95912000  1.0
  Li  Li3  1  0.00000000  0.50000000  0.95912000  1.0
  Li  Li4  1  0.00414000  0.00000000  0.16061000  1.0
  Li  Li5  1  0.01755000  0.50000000  0.13900000  1.0
  Ge  Ge6  2  0.00000000  0.25000000  0.87735000  1.0
  Ge  Ge7  2  0.99554000  0.24890000  0.04113000  1.0
  Ge  Ge8  1  0.47598000  0.50000000  0.12218000  1.0
  Ge  Ge9  1  0.50000000  0.00000000  0.95912000  1.0
  Ge  Ge10  1  0.50000000  0.50000000  0.95912000  1.0
  Ge  Ge11  1  0.60901000  0.00000000  0.13418000  1.0
  Pd  Pd12  2  0.74153000  0.26798000  0.11891000  1.0
  Pd  Pd13  2  0.75000000  0.25000000  0.95912000  1.0
  Pd  Pd14  1  0.24089000  0.50000000  0.04127000  1.0
  Pd  Pd15  1  0.25000000  0.00000000  0.87735000  1.0
  Pd  Pd16  1  0.25000000  0.50000000  0.87735000  1.0
  Pd  Pd17  1  0.26268000  0.00000000  0.04042000  1.0
  Pt  Pt18  2  0.25000000  0.25000000  0.95912000  1.0
  Pt  Pt19  2  0.25163000  0.23985000  0.11627000  1.0
  Pt  Pt20  1  0.74911000  0.50000000  0.04010000  1.0
  Pt  Pt21  1  0.75000000  0.00000000  0.87735000  1.0
  Pt  Pt22  1  0.75000000  0.50000000  0.87735000  1.0
  Pt  Pt23  1  0.75257000  0.00000000  0.03913000  1.0
  C  C24  1  0.30027000  0.00000000  0.12503000  1.0
