# generated using pymatgen
data_Li16Cu8Sn8C
_symmetry_space_group_name_H-M   'P 1'
_cell_length_a   8.97987000
_cell_length_b   6.34973000
_cell_length_c   26.73490000
_cell_angle_alpha   90.00000000
_cell_angle_beta   90.00000000
_cell_angle_gamma   90.00000000
_symmetry_Int_Tables_number   1
_chemical_formula_structural   Li16Cu8Sn8C
_chemical_formula_sum   'Li16 Cu8 Sn8 C1'
_cell_volume   1524.41731254
_cell_formula_units_Z   1
loop_
 _symmetry_equiv_pos_site_id
 _symmetry_equiv_pos_as_xyz
  1  'x, y, z'
loop_
 _atom_site_type_symbol
 _atom_site_label
 _atom_site_symmetry_multiplicity
 _atom_site_fract_x
 _atom_site_fract_y
 _atom_site_fract_z
 _atom_site_occupancy
  Li  Li0  1  0.50000000  0.00000000  0.04199000  1.0
  Li  Li1  1  0.75000000  0.50000000  0.12596000  1.0
  Li  Li2  1  0.00000000  0.00000000  0.04199000  1.0
  Li  Li3  1  0.25000000  0.50000000  0.12596000  1.0
  Li  Li4  1  0.75000000  0.25000000  0.04199000  1.0
  Li  Li5  1  0.25000000  0.25000000  0.04199000  1.0
  Li  Li6  1  0.50000000  0.75000000  0.12596000  1.0
  Li  Li7  1  0.00000000  0.75000000  0.12596000  1.0
  Li  Li8  1  0.00000000  0.02989000  0.87912000  1.0
  Li  Li9  1  0.25723000  0.49308000  0.96038000  1.0
  Li  Li10  1  0.50000000  0.97068000  0.87559000  1.0
  Li  Li11  1  0.74277000  0.49308000  0.96038000  1.0
  Li  Li12  1  0.27557000  0.25917000  0.86807000  1.0
  Li  Li13  1  0.72443000  0.25917000  0.86807000  1.0
  Li  Li14  1  0.00000000  0.73508000  0.95198000  1.0
  Li  Li15  1  0.50000000  0.74738000  0.95942000  1.0
  Cu  Cu16  1  0.00000000  0.25000000  0.12596000  1.0
  Cu  Cu17  1  0.50000000  0.25000000  0.12596000  1.0
  Cu  Cu18  1  0.25000000  0.75000000  0.04199000  1.0
  Cu  Cu19  1  0.75000000  0.75000000  0.04199000  1.0
  Cu  Cu20  1  0.50000000  0.25707000  0.95104000  1.0
  Cu  Cu21  1  0.00000000  0.24228000  0.96319000  1.0
  Cu  Cu22  1  0.78189000  0.72073000  0.87896000  1.0
  Cu  Cu23  1  0.21811000  0.72073000  0.87896000  1.0
  Sn  Sn24  1  0.75000000  0.00000000  0.12596000  1.0
  Sn  Sn25  1  0.00000000  0.50000000  0.04199000  1.0
  Sn  Sn26  1  0.50000000  0.50000000  0.04199000  1.0
  Sn  Sn27  1  0.25000000  0.00000000  0.12596000  1.0
  Sn  Sn28  1  0.24950000  0.00627000  0.95521000  1.0
  Sn  Sn29  1  0.50000000  0.53551000  0.86692000  1.0
  Sn  Sn30  1  0.00000000  0.42485000  0.84199000  1.0
  Sn  Sn31  1  0.75050000  0.00627000  0.95521000  1.0
  C  C32  1  0.00000000  0.72589000  0.87179000  1.0
