# generated using pymatgen
data_Mg4In4Ni8CO
_symmetry_space_group_name_H-M   Pmm2
_cell_length_a   6.23499000
_cell_length_b   6.23499000
_cell_length_c   24.67620000
_cell_angle_alpha   90.00000000
_cell_angle_beta   90.00000000
_cell_angle_gamma   90.00000000
_symmetry_Int_Tables_number   25
_chemical_formula_structural   Mg4In4Ni8CO
_chemical_formula_sum   'Mg4 In4 Ni8 C1 O1'
_cell_volume   959.28975003
_cell_formula_units_Z   1
loop_
 _symmetry_equiv_pos_site_id
 _symmetry_equiv_pos_as_xyz
  1  'x, y, z'
  2  '-x, -y, z'
  3  '-x, y, z'
  4  'x, -y, z'
loop_
 _atom_site_type_symbol
 _atom_site_label
 _atom_site_symmetry_multiplicity
 _atom_site_fract_x
 _atom_site_fract_y
 _atom_site_fract_z
 _atom_site_occupancy
  Mg  Mg0  1  0.00000000  0.00000000  0.09529000  1.0
  Mg  Mg1  1  0.00000000  0.50000000  0.96842000  1.0
  Mg  Mg2  1  0.50000000  0.00000000  0.96842000  1.0
  Mg  Mg3  1  0.50000000  0.50000000  0.09513000  1.0
  In  In4  1  0.00000000  0.00000000  0.96842000  1.0
  In  In5  1  0.00000000  0.50000000  0.09478000  1.0
  In  In6  1  0.50000000  0.00000000  0.09841000  1.0
  In  In7  1  0.50000000  0.50000000  0.96842000  1.0
  Ni  Ni8  4  0.25000000  0.25000000  0.90525000  1.0
  Ni  Ni9  4  0.25227000  0.24742000  0.03513000  1.0
  C  C10  1  0.00000000  0.50000000  0.25988000  1.0
  O  O11  1  0.00000000  0.50000000  0.30590000  1.0
