# generated using pymatgen
data_V8Ni16Sn8C
_symmetry_space_group_name_H-M   'P 1'
_cell_length_a   6.08368000
_cell_length_b   8.60362000
_cell_length_c   26.45270000
_cell_angle_alpha   90.00000000
_cell_angle_beta   90.00000000
_cell_angle_gamma   90.00000000
_symmetry_Int_Tables_number   1
_chemical_formula_structural   V8Ni16Sn8C
_chemical_formula_sum   'V8 Ni16 Sn8 C1'
_cell_volume   1384.57851839
_cell_formula_units_Z   1
loop_
 _symmetry_equiv_pos_site_id
 _symmetry_equiv_pos_as_xyz
  1  'x, y, z'
loop_
 _atom_site_type_symbol
 _atom_site_label
 _atom_site_symmetry_multiplicity
 _atom_site_fract_x
 _atom_site_fract_y
 _atom_site_fract_z
 _atom_site_occupancy
  V  V0  1  0.00000000  0.50000000  0.87803000  1.0
  V  V1  1  0.50000000  0.75001000  0.95934000  1.0
  V  V2  1  0.50000000  0.24999000  0.95934000  1.0
  V  V3  1  0.00000000  0.00000000  0.87803000  1.0
  V  V4  1  0.00000000  0.00000000  0.04224000  1.0
  V  V5  1  0.50000000  0.27354000  0.11992000  1.0
  V  V6  1  0.50000000  0.72646000  0.11992000  1.0
  V  V7  1  0.00000000  0.50000000  0.03853000  1.0
  Ni  Ni8  1  0.25000000  0.50000000  0.95934000  1.0
  Ni  Ni9  1  0.75000000  0.00000000  0.95934000  1.0
  Ni  Ni10  1  0.75000000  0.50000000  0.95934000  1.0
  Ni  Ni11  1  0.25000000  0.00000000  0.95934000  1.0
  Ni  Ni12  1  0.75000000  0.25001000  0.87803000  1.0
  Ni  Ni13  1  0.25000000  0.74999000  0.87803000  1.0
  Ni  Ni14  1  0.25000000  0.25001000  0.87803000  1.0
  Ni  Ni15  1  0.75000000  0.74999000  0.87803000  1.0
  Ni  Ni16  1  0.27802000  0.00000000  0.11856000  1.0
  Ni  Ni17  1  0.79235000  0.50000000  0.11563000  1.0
  Ni  Ni18  1  0.72198000  0.00000000  0.11856000  1.0
  Ni  Ni19  1  0.20765000  0.50000000  0.11563000  1.0
  Ni  Ni20  1  0.76395000  0.75118000  0.04634000  1.0
  Ni  Ni21  1  0.23605000  0.24882000  0.04634000  1.0
  Ni  Ni22  1  0.23605000  0.75118000  0.04634000  1.0
  Ni  Ni23  1  0.76395000  0.24882000  0.04634000  1.0
  Sn  Sn24  1  0.00000000  0.25001000  0.95934000  1.0
  Sn  Sn25  1  0.50000000  0.50000000  0.87803000  1.0
  Sn  Sn26  1  0.00000000  0.74999000  0.95934000  1.0
  Sn  Sn27  1  0.50000000  0.00000000  0.87803000  1.0
  Sn  Sn28  1  0.00000000  0.76610000  0.13526000  1.0
  Sn  Sn29  1  0.50000000  0.00000000  0.03797000  1.0
  Sn  Sn30  1  0.00000000  0.23390000  0.13526000  1.0
  Sn  Sn31  1  0.50000000  0.50000000  0.03747000  1.0
  C  C32  1  0.50000000  0.50000000  0.13948000  1.0
