# generated using pymatgen
data_Li4Cu4Sn4Ge4CO
_symmetry_space_group_name_H-M   P1
_cell_length_a   6.57410000
_cell_length_b   6.57410000
_cell_length_c   24.93060000
_cell_angle_alpha   90.00000000
_cell_angle_beta   90.00000000
_cell_angle_gamma   90.00000000
_symmetry_Int_Tables_number   1
_chemical_formula_structural   Li4Cu4Sn4Ge4CO
_chemical_formula_sum   'Li4 Cu4 Sn4 Ge4 C1 O1'
_cell_volume   1077.47038617
_cell_formula_units_Z   1
loop_
 _symmetry_equiv_pos_site_id
 _symmetry_equiv_pos_as_xyz
  1  'x, y, z'
loop_
 _atom_site_type_symbol
 _atom_site_label
 _atom_site_symmetry_multiplicity
 _atom_site_fract_x
 _atom_site_fract_y
 _atom_site_fract_z
 _atom_site_occupancy
  Li  Li0  1  0.00000000  0.50000000  0.90111000  1.0
  Li  Li1  1  0.50000000  0.00000000  0.90111000  1.0
  Li  Li2  1  0.50267000  0.49721000  0.03589000  1.0
  Li  Li3  1  0.99732000  0.00276000  0.03589000  1.0
  Cu  Cu4  1  0.00000000  0.00000000  0.90111000  1.0
  Cu  Cu5  1  0.00788000  0.50781000  0.03080000  1.0
  Cu  Cu6  1  0.49202000  0.99216000  0.03080000  1.0
  Cu  Cu7  1  0.50000000  0.50000000  0.90111000  1.0
  Sn  Sn8  1  0.24989000  0.25006000  0.10939000  1.0
  Sn  Sn9  1  0.25000000  0.75000000  0.96704000  1.0
  Sn  Sn10  1  0.75000000  0.25000000  0.96704000  1.0
  Sn  Sn11  1  0.75004000  0.74995000  0.10936000  1.0
  Ge  Ge12  1  0.24998000  0.74995000  0.09305000  1.0
  Ge  Ge13  1  0.25000000  0.25000000  0.96704000  1.0
  Ge  Ge14  1  0.75000000  0.75000000  0.96704000  1.0
  Ge  Ge15  1  0.75008000  0.25005000  0.09866000  1.0
  C  C16  1  0.75029000  0.25023000  0.18024000  1.0
  O  O17  1  0.74994000  0.24995000  0.22661000  1.0
