# generated using pymatgen
data_Sc16Rh16C
_symmetry_space_group_name_H-M   'P 1'
_cell_length_a   6.47981000
_cell_length_b   9.16384000
_cell_length_c   26.87290000
_cell_angle_alpha   90.00000000
_cell_angle_beta   90.00000000
_cell_angle_gamma   90.00000000
_symmetry_Int_Tables_number   1
_chemical_formula_structural   Sc16Rh16C
_chemical_formula_sum   'Sc16 Rh16 C1'
_cell_volume   1595.71124526
_cell_formula_units_Z   1
loop_
 _symmetry_equiv_pos_site_id
 _symmetry_equiv_pos_as_xyz
  1  'x, y, z'
loop_
 _atom_site_type_symbol
 _atom_site_label
 _atom_site_symmetry_multiplicity
 _atom_site_fract_x
 _atom_site_fract_y
 _atom_site_fract_z
 _atom_site_occupancy
  Sc  Sc0  1  0.75001000  0.25000000  0.87212000  1.0
  Sc  Sc1  1  0.75001000  0.00000000  0.95737000  1.0
  Sc  Sc2  1  0.75293000  0.24759000  0.04404000  1.0
  Sc  Sc3  1  0.78958000  0.00000000  0.14220000  1.0
  Sc  Sc4  1  0.75001000  0.75000000  0.87212000  1.0
  Sc  Sc5  1  0.75001000  0.50000000  0.95737000  1.0
  Sc  Sc6  1  0.75293000  0.75241000  0.04404000  1.0
  Sc  Sc7  1  0.74736000  0.50000000  0.13030000  1.0
  Sc  Sc8  1  0.24999000  0.25000000  0.87212000  1.0
  Sc  Sc9  1  0.24999000  0.00000000  0.95737000  1.0
  Sc  Sc10  1  0.24707000  0.24759000  0.04404000  1.0
  Sc  Sc11  1  0.21042000  0.00000000  0.14220000  1.0
  Sc  Sc12  1  0.24999000  0.75000000  0.87212000  1.0
  Sc  Sc13  1  0.24999000  0.50000000  0.95737000  1.0
  Sc  Sc14  1  0.24707000  0.75241000  0.04404000  1.0
  Sc  Sc15  1  0.25264000  0.50000000  0.13030000  1.0
  Rh  Rh16  1  0.50000000  0.00000000  0.87212000  1.0
  Rh  Rh17  1  0.50000000  0.25000000  0.95737000  1.0
  Rh  Rh18  1  0.50000000  0.00000000  0.04026000  1.0
  Rh  Rh19  1  0.50000000  0.24355000  0.11962000  1.0
  Rh  Rh20  1  0.50000000  0.50000000  0.87212000  1.0
  Rh  Rh21  1  0.50000000  0.75000000  0.95737000  1.0
  Rh  Rh22  1  0.50000000  0.50000000  0.04493000  1.0
  Rh  Rh23  1  0.50000000  0.75645000  0.11962000  1.0
  Rh  Rh24  1  0.00000000  0.00000000  0.87212000  1.0
  Rh  Rh25  1  0.00000000  0.25000000  0.95737000  1.0
  Rh  Rh26  1  0.00000000  0.00000000  0.04554000  1.0
  Rh  Rh27  1  0.00000000  0.25977000  0.12357000  1.0
  Rh  Rh28  1  0.00000000  0.50000000  0.87212000  1.0
  Rh  Rh29  1  0.00000000  0.75000000  0.95737000  1.0
  Rh  Rh30  1  0.00000000  0.50000000  0.04326000  1.0
  Rh  Rh31  1  0.00000000  0.74023000  0.12357000  1.0
  C  C32  1  0.50000000  0.00000000  0.11513000  1.0
