# generated using pymatgen
data_Li8Pb4Au4CO
_symmetry_space_group_name_H-M   'P 1'
_cell_length_a   6.82040000
_cell_length_b   6.82040000
_cell_length_c   25.11530000
_cell_angle_alpha   90.00000000
_cell_angle_beta   90.00000000
_cell_angle_gamma   90.00000000
_symmetry_Int_Tables_number   1
_chemical_formula_structural   Li8Pb4Au4CO
_chemical_formula_sum   'Li8 Pb4 Au4 C1 O1'
_cell_volume   1168.30991282
_cell_formula_units_Z   1
loop_
 _symmetry_equiv_pos_site_id
 _symmetry_equiv_pos_as_xyz
  1  'x, y, z'
loop_
 _atom_site_type_symbol
 _atom_site_label
 _atom_site_symmetry_multiplicity
 _atom_site_fract_x
 _atom_site_fract_y
 _atom_site_fract_z
 _atom_site_occupancy
  Li  Li0  1  0.50000000  0.00000000  0.03395000  1.0
  Li  Li1  1  0.00000000  0.00000000  0.90349000  1.0
  Li  Li2  1  0.50000000  0.50000000  0.89942000  1.0
  Li  Li3  1  0.00000000  0.50000000  0.03395000  1.0
  Li  Li4  1  0.74634000  0.25370000  0.96355000  1.0
  Li  Li5  1  0.75001000  0.75000000  0.10184000  1.0
  Li  Li6  1  0.25366000  0.74630000  0.96355000  1.0
  Li  Li7  1  0.24999000  0.25000000  0.10184000  1.0
  Pb  Pb8  1  0.50000000  0.00000000  0.89296000  1.0
  Pb  Pb9  1  0.00000000  0.50000000  0.89289000  1.0
  Pb  Pb10  1  0.00000000  0.00000000  0.03395000  1.0
  Pb  Pb11  1  0.50000000  0.50000000  0.03395000  1.0
  Au  Au12  1  0.75001000  0.25000000  0.10184000  1.0
  Au  Au13  1  0.74894000  0.74883000  0.96332000  1.0
  Au  Au14  1  0.24999000  0.75000000  0.10184000  1.0
  Au  Au15  1  0.25106000  0.25117000  0.96332000  1.0
  C  C16  1  0.50000000  0.50000000  0.81575000  1.0
  O  O17  1  0.50000000  0.50000000  0.77028000  1.0
