# generated using pymatgen
data_Cr8Pt24C
_symmetry_space_group_name_H-M   Pmm2
_cell_length_a   7.90097000
_cell_length_b   7.90097000
_cell_length_c   25.92570000
_cell_angle_alpha   90.00000000
_cell_angle_beta   90.00000000
_cell_angle_gamma   90.00000000
_symmetry_Int_Tables_number   25
_chemical_formula_structural   Cr8Pt24C
_chemical_formula_sum   'Cr8 Pt24 C1'
_cell_volume   1618.42029867
_cell_formula_units_Z   1
loop_
 _symmetry_equiv_pos_site_id
 _symmetry_equiv_pos_as_xyz
  1  'x, y, z'
  2  '-x, -y, z'
  3  '-x, y, z'
  4  'x, -y, z'
loop_
 _atom_site_type_symbol
 _atom_site_label
 _atom_site_symmetry_multiplicity
 _atom_site_fract_x
 _atom_site_fract_y
 _atom_site_fract_z
 _atom_site_occupancy
  Cr  Cr0  2  0.25000000  0.00000000  0.11428000  1.0
  Cr  Cr1  2  0.25000000  0.00000000  0.96191000  1.0
  Cr  Cr2  2  0.25000000  0.50000000  0.11428000  1.0
  Cr  Cr3  2  0.25000000  0.50000000  0.96191000  1.0
  Pt  Pt4  4  0.25000000  0.25000000  0.03809000  1.0
  Pt  Pt5  4  0.25000000  0.25000000  0.88572000  1.0
  Pt  Pt6  2  0.00000000  0.25000000  0.11428000  1.0
  Pt  Pt7  2  0.00000000  0.25000000  0.96191000  1.0
  Pt  Pt8  2  0.50000000  0.25000000  0.11428000  1.0
  Pt  Pt9  2  0.50000000  0.25000000  0.96191000  1.0
  Pt  Pt10  1  0.00000000  0.00000000  0.03809000  1.0
  Pt  Pt11  1  0.00000000  0.00000000  0.88572000  1.0
  Pt  Pt12  1  0.00000000  0.50000000  0.03809000  1.0
  Pt  Pt13  1  0.00000000  0.50000000  0.88572000  1.0
  Pt  Pt14  1  0.50000000  0.00000000  0.03809000  1.0
  Pt  Pt15  1  0.50000000  0.00000000  0.88572000  1.0
  Pt  Pt16  1  0.50000000  0.50000000  0.03809000  1.0
  Pt  Pt17  1  0.50000000  0.50000000  0.88572000  1.0
  C  C18  1  0.00000000  0.00000000  0.14514000  1.0
