# generated using pymatgen
data_Ti8Al8Ni16C
_symmetry_space_group_name_H-M   'P 1'
_cell_length_a   5.91339000
_cell_length_b   8.36280000
_cell_length_c   26.27210000
_cell_angle_alpha   90.00000000
_cell_angle_beta   90.00000000
_cell_angle_gamma   90.00000000
_symmetry_Int_Tables_number   1
_chemical_formula_structural   Ti8Al8Ni16C
_chemical_formula_sum   'Ti8 Al8 Ni16 C1'
_cell_volume   1299.22096987
_cell_formula_units_Z   1
loop_
 _symmetry_equiv_pos_site_id
 _symmetry_equiv_pos_as_xyz
  1  'x, y, z'
loop_
 _atom_site_type_symbol
 _atom_site_label
 _atom_site_symmetry_multiplicity
 _atom_site_fract_x
 _atom_site_fract_y
 _atom_site_fract_z
 _atom_site_occupancy
  Ti  Ti0  1  0.00000000  0.00000000  0.88063000  1.0
  Ti  Ti1  1  0.50000000  0.25000000  0.96021000  1.0
  Ti  Ti2  1  0.50000000  0.75000000  0.96021000  1.0
  Ti  Ti3  1  0.00000000  0.50000000  0.88063000  1.0
  Ti  Ti4  1  0.00000000  0.50000000  0.03934000  1.0
  Ti  Ti5  1  0.50000000  0.74281000  0.12001000  1.0
  Ti  Ti6  1  0.50000000  0.25719000  0.12001000  1.0
  Ti  Ti7  1  0.00000000  0.00000000  0.04234000  1.0
  Al  Al8  1  0.00000000  0.75000000  0.96021000  1.0
  Al  Al9  1  0.50000000  0.00000000  0.88063000  1.0
  Al  Al10  1  0.00000000  0.25000000  0.96021000  1.0
  Al  Al11  1  0.50000000  0.50000000  0.88063000  1.0
  Al  Al12  1  0.00000000  0.24652000  0.12062000  1.0
  Al  Al13  1  0.50000000  0.50000000  0.03987000  1.0
  Al  Al14  1  0.00000000  0.75348000  0.12062000  1.0
  Al  Al15  1  0.50000000  0.00000000  0.03909000  1.0
  Ni  Ni16  1  0.25000000  0.00000000  0.96021000  1.0
  Ni  Ni17  1  0.75000000  0.50000000  0.96021000  1.0
  Ni  Ni18  1  0.75000000  0.00000000  0.96021000  1.0
  Ni  Ni19  1  0.25000000  0.50000000  0.96021000  1.0
  Ni  Ni20  1  0.75000000  0.75000000  0.88063000  1.0
  Ni  Ni21  1  0.25000000  0.25000000  0.88063000  1.0
  Ni  Ni22  1  0.25000000  0.75000000  0.88063000  1.0
  Ni  Ni23  1  0.75000000  0.25000000  0.88063000  1.0
  Ni  Ni24  1  0.23591000  0.50000000  0.11518000  1.0
  Ni  Ni25  1  0.70461000  0.00000000  0.12058000  1.0
  Ni  Ni26  1  0.76409000  0.50000000  0.11518000  1.0
  Ni  Ni27  1  0.29539000  0.00000000  0.12058000  1.0
  Ni  Ni28  1  0.74187000  0.25226000  0.04013000  1.0
  Ni  Ni29  1  0.25813000  0.74774000  0.04013000  1.0
  Ni  Ni30  1  0.25813000  0.25226000  0.04013000  1.0
  Ni  Ni31  1  0.74187000  0.74774000  0.04013000  1.0
  C  C32  1  0.00000000  0.00000000  0.13231000  1.0
