# generated using pymatgen
data_Y4Mg4Sn4Pd4CO
_symmetry_space_group_name_H-M   Cmm2
_cell_length_a   9.90846105
_cell_length_b   9.90846105
_cell_length_c   25.25480000
_cell_angle_alpha   90.00000000
_cell_angle_beta   90.00000000
_cell_angle_gamma   90.00000000
_symmetry_Int_Tables_number   35
_chemical_formula_structural   Y4Mg4Sn4Pd4CO
_chemical_formula_sum   'Y8 Mg8 Sn8 Pd8 C2 O2'
_cell_volume   2479.45566236
_cell_formula_units_Z   2
loop_
 _symmetry_equiv_pos_site_id
 _symmetry_equiv_pos_as_xyz
  1  'x, y, z'
  2  '-x, -y, z'
  3  '-x, y, z'
  4  'x, -y, z'
  5  'x+1/2, y+1/2, z'
  6  '-x+1/2, -y+1/2, z'
  7  '-x+1/2, y+1/2, z'
  8  'x+1/2, -y+1/2, z'
loop_
 _atom_site_type_symbol
 _atom_site_label
 _atom_site_symmetry_multiplicity
 _atom_site_fract_x
 _atom_site_fract_y
 _atom_site_fract_z
 _atom_site_occupancy
  Y  Y0  4  0.00000000  0.25000000  0.03468000  1.0
  Y  Y1  4  0.25000000  0.00000000  0.89597000  1.0
  Mg  Mg2  4  0.00000000  0.25000000  0.89597000  1.0
  Mg  Mg3  4  0.25000000  0.00000000  0.03468000  1.0
  Sn  Sn4  4  0.25000000  0.25000000  0.10403000  1.0
  Sn  Sn5  2  0.00000000  0.00000000  0.96532000  1.0
  Sn  Sn6  2  0.00000000  0.50000000  0.96532000  1.0
  Pd  Pd7  4  0.25000000  0.25000000  0.96532000  1.0
  Pd  Pd8  2  0.00000000  0.00000000  0.10403000  1.0
  Pd  Pd9  2  0.00000000  0.50000000  0.10403000  1.0
  C  C10  2  0.00000000  0.50000000  0.17927000  1.0
  O  O11  2  0.00000000  0.50000000  0.22480000  1.0
