# generated using pymatgen
data_V8Rh24CO
_symmetry_space_group_name_H-M   P4mm
_cell_length_a   7.63897000
_cell_length_b   7.63897000
_cell_length_c   25.72920000
_cell_angle_alpha   90.00000000
_cell_angle_beta   90.00000000
_cell_angle_gamma   90.00000000
_symmetry_Int_Tables_number   99
_chemical_formula_structural   V8Rh24CO
_chemical_formula_sum   'V8 Rh24 C1 O1'
_cell_volume   1501.39820317
_cell_formula_units_Z   1
loop_
 _symmetry_equiv_pos_site_id
 _symmetry_equiv_pos_as_xyz
  1  'x, y, z'
  2  '-y, x, z'
  3  '-x, -y, z'
  4  'y, -x, z'
  5  '-x, y, z'
  6  'y, x, z'
  7  'x, -y, z'
  8  '-y, -x, z'
loop_
 _atom_site_type_symbol
 _atom_site_label
 _atom_site_symmetry_multiplicity
 _atom_site_fract_x
 _atom_site_fract_y
 _atom_site_fract_z
 _atom_site_occupancy
  V  V0  2  0.00000000  0.50000000  0.11134000  1.0
  V  V1  2  0.00000000  0.50000000  0.96289000  1.0
  V  V2  1  0.00000000  0.00000000  0.11134000  1.0
  V  V3  1  0.00000000  0.00000000  0.96289000  1.0
  V  V4  1  0.50000000  0.50000000  0.11134000  1.0
  V  V5  1  0.50000000  0.50000000  0.96289000  1.0
  Rh  Rh6  4  0.00000000  0.25000000  0.03711000  1.0
  Rh  Rh7  4  0.00000000  0.25000000  0.88866000  1.0
  Rh  Rh8  4  0.25000000  0.25000000  0.11134000  1.0
  Rh  Rh9  4  0.25000000  0.25000000  0.96289000  1.0
  Rh  Rh10  4  0.25000000  0.50000000  0.03711000  1.0
  Rh  Rh11  4  0.25000000  0.50000000  0.88866000  1.0
  C  C12  1  0.00000000  0.00000000  0.18518000  1.0
  O  O13  1  0.00000000  0.00000000  0.22988000  1.0
