# generated using pymatgen
data_Hf4Ir12CO
_symmetry_space_group_name_H-M   Pm
_cell_length_a   7.94591000
_cell_length_b   5.61861000
_cell_length_c   24.21400000
_cell_angle_alpha   90.00000000
_cell_angle_beta   90.00000000
_cell_angle_gamma   90.00000000
_symmetry_Int_Tables_number   6
_chemical_formula_structural   Hf4Ir12CO
_chemical_formula_sum   'Hf4 Ir12 C1 O1'
_cell_volume   1081.03328869
_cell_formula_units_Z   1
loop_
 _symmetry_equiv_pos_site_id
 _symmetry_equiv_pos_as_xyz
  1  'x, y, z'
  2  'x, -y, z'
loop_
 _atom_site_type_symbol
 _atom_site_label
 _atom_site_symmetry_multiplicity
 _atom_site_fract_x
 _atom_site_fract_y
 _atom_site_fract_z
 _atom_site_occupancy
  Hf  Hf0  1  0.00000000  0.00000000  0.07967000  1.0
  Hf  Hf1  1  0.00000000  0.50000000  0.97099000  1.0
  Hf  Hf2  1  0.50000000  0.00000000  0.07765000  1.0
  Hf  Hf3  1  0.50000000  0.50000000  0.97099000  1.0
  Ir  Ir4  2  0.24635000  0.25293000  0.02899000  1.0
  Ir  Ir5  2  0.25000000  0.25000000  0.91298000  1.0
  Ir  Ir6  2  0.75000000  0.25000000  0.91298000  1.0
  Ir  Ir7  2  0.75366000  0.25293000  0.02896000  1.0
  Ir  Ir8  1  0.00000000  0.00000000  0.97099000  1.0
  Ir  Ir9  1  0.50000000  0.00000000  0.97099000  1.0
  Ir  Ir10  1  0.50002000  0.50000000  0.07969000  1.0
  Ir  Ir11  1  0.99987000  0.50000000  0.09052000  1.0
  C  C12  1  0.00009000  0.50000000  0.16789000  1.0
  O  O13  1  0.00000000  0.50000000  0.21618000  1.0
