# generated using pymatgen
data_Li8V8Ge8Pd8C
_symmetry_space_group_name_H-M   Pmm2
_cell_length_a   8.64114000
_cell_length_b   9.40562000
_cell_length_c   24.26620000
_cell_angle_alpha   90.00000000
_cell_angle_beta   90.00000000
_cell_angle_gamma   90.00000000
_symmetry_Int_Tables_number   25
_chemical_formula_structural   Li8V8Ge8Pd8C
_chemical_formula_sum   'Li8 V8 Ge8 Pd8 C1'
_cell_volume   1972.24218029
_cell_formula_units_Z   1
loop_
 _symmetry_equiv_pos_site_id
 _symmetry_equiv_pos_as_xyz
  1  'x, y, z'
  2  '-x, -y, z'
  3  '-x, y, z'
  4  'x, -y, z'
loop_
 _atom_site_type_symbol
 _atom_site_label
 _atom_site_symmetry_multiplicity
 _atom_site_fract_x
 _atom_site_fract_y
 _atom_site_fract_z
 _atom_site_occupancy
  Li  Li0  4  0.24936000  0.24545000  0.03076000  1.0
  Li  Li1  4  0.25000000  0.25000000  0.91210000  1.0
  V  V2  1  0.00000000  0.00000000  0.01517000  1.0
  V  V3  1  0.00000000  0.00000000  0.91210000  1.0
  V  V4  1  0.00000000  0.50000000  0.01942000  1.0
  V  V5  1  0.00000000  0.50000000  0.91210000  1.0
  V  V6  1  0.50000000  0.00000000  0.01650000  1.0
  V  V7  1  0.50000000  0.00000000  0.91210000  1.0
  V  V8  1  0.50000000  0.50000000  0.02592000  1.0
  V  V9  1  0.50000000  0.50000000  0.91210000  1.0
  Ge  Ge10  2  0.23169000  0.00000000  0.09930000  1.0
  Ge  Ge11  2  0.24317000  0.50000000  0.08026000  1.0
  Ge  Ge12  2  0.25000000  0.00000000  0.97070000  1.0
  Ge  Ge13  2  0.25000000  0.50000000  0.97070000  1.0
  Pd  Pd14  2  0.00000000  0.24271000  0.08650000  1.0
  Pd  Pd15  2  0.00000000  0.25000000  0.97070000  1.0
  Pd  Pd16  2  0.50000000  0.24461000  0.08390000  1.0
  Pd  Pd17  2  0.50000000  0.25000000  0.97070000  1.0
  C  C18  1  0.00000000  0.00000000  0.09702000  1.0
