# generated using pymatgen
data_Li8In4Ir4CO
_symmetry_space_group_name_H-M   'P 1'
_cell_length_a   6.34973000
_cell_length_b   6.34973000
_cell_length_c   24.76230000
_cell_angle_alpha   90.00000000
_cell_angle_beta   90.00000000
_cell_angle_gamma   90.00000000
_symmetry_Int_Tables_number   1
_chemical_formula_structural   Li8In4Ir4CO
_chemical_formula_sum   'Li8 In4 Ir4 C1 O1'
_cell_volume   998.39293363
_cell_formula_units_Z   1
loop_
 _symmetry_equiv_pos_site_id
 _symmetry_equiv_pos_as_xyz
  1  'x, y, z'
loop_
 _atom_site_type_symbol
 _atom_site_label
 _atom_site_symmetry_multiplicity
 _atom_site_fract_x
 _atom_site_fract_y
 _atom_site_fract_z
 _atom_site_occupancy
  Li  Li0  1  0.99730000  0.50277000  0.97563000  1
  Li  Li1  1  0.50003000  0.50003000  0.09616000  1
  Li  Li2  1  0.00003000  0.00003000  0.09616000  1
  Li  Li3  1  0.50277000  0.99730000  0.97563000  1
  Li  Li4  1  0.25003000  0.25003000  0.03205000  1
  Li  Li5  1  0.25000000  0.75006000  0.90223000  1
  Li  Li6  1  0.75003000  0.75003000  0.03205000  1
  Li  Li7  1  0.75006000  0.25000000  0.90223000  1
  In  In8  1  0.25003000  0.25003000  0.90520000  1
  In  In9  1  0.25000000  0.75006000  0.03205000  1
  In  In10  1  0.75002500  0.75002500  0.90263000  1
  In  In11  1  0.75006000  0.25000000  0.03205000  1
  Ir  Ir12  1  0.00000000  0.50006000  0.09616000  1
  Ir  Ir13  1  0.50006000  0.00000000  0.09616000  1
  Ir  Ir14  1  0.50165500  0.50165500  0.96236000  1
  Ir  Ir15  1  0.99840000  0.99840000  0.96236000  1
  C  C16  1  0.25012000  0.25012000  0.73982000  1
  O  O17  1  0.25000500  0.25000500  0.69397000  1
