# generated using pymatgen
data_Li8In8Ge8Au8C
_symmetry_space_group_name_H-M   'P 1'
_cell_length_a   8.39470000
_cell_length_b   8.46544000
_cell_length_c   26.43350000
_cell_angle_alpha   90.00000000
_cell_angle_beta   90.00000000
_cell_angle_gamma   90.00000000
_symmetry_Int_Tables_number   1
_chemical_formula_structural   Li8In8Ge8Au8C
_chemical_formula_sum   'Li8 In8 Ge8 Au8 C1'
_cell_volume   1878.49216181
_cell_formula_units_Z   1
loop_
 _symmetry_equiv_pos_site_id
 _symmetry_equiv_pos_as_xyz
  1  'x, y, z'
loop_
 _atom_site_type_symbol
 _atom_site_label
 _atom_site_symmetry_multiplicity
 _atom_site_fract_x
 _atom_site_fract_y
 _atom_site_fract_z
 _atom_site_occupancy
  Li  Li0  1  0.25636000  0.00000000  0.12980000  1.0
  Li  Li1  1  0.24999000  0.00000000  0.95944000  1.0
  Li  Li2  1  0.29400000  0.50000000  0.13277000  1.0
  Li  Li3  1  0.24999000  0.50000000  0.95944000  1.0
  Li  Li4  1  0.74364000  0.00000000  0.12980000  1.0
  Li  Li5  1  0.75001000  0.00000000  0.95944000  1.0
  Li  Li6  1  0.70600000  0.50000000  0.13277000  1.0
  Li  Li7  1  0.75001000  0.50000000  0.95944000  1.0
  In  In8  1  0.24288000  0.73831000  0.04148000  1.0
  In  In9  1  0.24999000  0.75000000  0.87831000  1.0
  In  In10  1  0.24288000  0.26169000  0.04148000  1.0
  In  In11  1  0.24999000  0.25000000  0.87831000  1.0
  In  In12  1  0.75712000  0.73831000  0.04148000  1.0
  In  In13  1  0.75001000  0.75000000  0.87831000  1.0
  In  In14  1  0.75712000  0.26169000  0.04148000  1.0
  In  In15  1  0.75001000  0.25000000  0.87831000  1.0
  Ge  Ge16  1  0.00000000  0.00000000  0.03284000  1.0
  Ge  Ge17  1  0.00000000  0.00000000  0.87831000  1.0
  Ge  Ge18  1  0.00000000  0.50000000  0.07707000  1.0
  Ge  Ge19  1  0.00000000  0.50000000  0.87831000  1.0
  Ge  Ge20  1  0.50000000  0.00000000  0.03795000  1.0
  Ge  Ge21  1  0.50000000  0.00000000  0.87831000  1.0
  Ge  Ge22  1  0.50000000  0.50000000  0.03112000  1.0
  Ge  Ge23  1  0.50000000  0.50000000  0.87831000  1.0
  Au  Au24  1  0.00000000  0.75870000  0.12870000  1.0
  Au  Au25  1  0.00000000  0.75000000  0.95944000  1.0
  Au  Au26  1  0.00000000  0.24130000  0.12870000  1.0
  Au  Au27  1  0.00000000  0.25000000  0.95944000  1.0
  Au  Au28  1  0.50000000  0.76278000  0.11906000  1.0
  Au  Au29  1  0.50000000  0.75000000  0.95944000  1.0
  Au  Au30  1  0.50000000  0.23722000  0.11906000  1.0
  Au  Au31  1  0.50000000  0.25000000  0.95944000  1.0
  C  C32  1  0.00000000  0.00000000  0.10771000  1.0
