# generated using pymatgen
data_Li16Al8Pd8CO
_symmetry_space_group_name_H-M   'P 1'
_cell_length_a   8.67390000
_cell_length_b   6.13337000
_cell_length_c   26.50540000
_cell_angle_alpha   90.00000000
_cell_angle_beta   90.00000000
_cell_angle_gamma   90.00000000
_symmetry_Int_Tables_number   1
_chemical_formula_structural   Li16Al8Pd8CO
_chemical_formula_sum   'Li16 Al8 Pd8 C1 O1'
_cell_volume   1410.09358942
_cell_formula_units_Z   1
loop_
 _symmetry_equiv_pos_site_id
 _symmetry_equiv_pos_as_xyz
  1  'x, y, z'
loop_
 _atom_site_type_symbol
 _atom_site_label
 _atom_site_symmetry_multiplicity
 _atom_site_fract_x
 _atom_site_fract_y
 _atom_site_fract_z
 _atom_site_occupancy
  Li  Li0  1  0.75000000  0.00000000  0.04091000  1.0
  Li  Li1  1  0.00000000  0.50000000  0.12272000  1.0
  Li  Li2  1  0.25000000  0.00000000  0.04091000  1.0
  Li  Li3  1  0.50000000  0.50000000  0.12272000  1.0
  Li  Li4  1  0.00000000  0.25000000  0.04091000  1.0
  Li  Li5  1  0.50000000  0.25000000  0.04091000  1.0
  Li  Li6  1  0.75000000  0.75000000  0.12272000  1.0
  Li  Li7  1  0.25000000  0.75000000  0.12272000  1.0
  Li  Li8  1  0.24289000  0.98790000  0.87019000  1.0
  Li  Li9  1  0.50000000  0.49863000  0.96179000  1.0
  Li  Li10  1  0.75711000  0.98790000  0.87019000  1.0
  Li  Li11  1  0.00000000  0.49799000  0.96275000  1.0
  Li  Li12  1  0.50000000  0.25520000  0.87342000  1.0
  Li  Li13  1  0.00000000  0.26521000  0.87654000  1.0
  Li  Li14  1  0.25013000  0.76502000  0.96182000  1.0
  Li  Li15  1  0.74987000  0.76502000  0.96182000  1.0
  Al  Al16  1  0.00000000  0.00000000  0.12272000  1.0
  Al  Al17  1  0.25000000  0.50000000  0.04091000  1.0
  Al  Al18  1  0.75000000  0.50000000  0.04091000  1.0
  Al  Al19  1  0.50000000  0.00000000  0.12272000  1.0
  Al  Al20  1  0.50000000  0.00775000  0.95867000  1.0
  Al  Al21  1  0.74770000  0.52158000  0.88114000  1.0
  Al  Al22  1  0.25230000  0.52158000  0.88114000  1.0
  Al  Al23  1  0.00000000  0.00735000  0.95954000  1.0
  Pd  Pd24  1  0.25000000  0.25000000  0.12272000  1.0
  Pd  Pd25  1  0.75000000  0.25000000  0.12272000  1.0
  Pd  Pd26  1  0.50000000  0.75000000  0.04091000  1.0
  Pd  Pd27  1  0.00000000  0.75000000  0.04091000  1.0
  Pd  Pd28  1  0.75033000  0.24887000  0.95654000  1.0
  Pd  Pd29  1  0.24967000  0.24887000  0.95654000  1.0
  Pd  Pd30  1  0.00000000  0.73413000  0.88711000  1.0
  Pd  Pd31  1  0.50000000  0.74119000  0.88489000  1.0
  C  C32  1  0.00000000  0.21791000  0.80089000  1.0
  O  O33  1  0.00000000  0.21359000  0.75761000  1.0
