# generated using pymatgen
data_Li4Y4Sn4Pb4CO
_symmetry_space_group_name_H-M   Pm
_cell_length_a   6.55220000
_cell_length_b   9.36828000
_cell_length_c   24.89710000
_cell_angle_alpha   90.00000000
_cell_angle_beta   90.00000000
_cell_angle_gamma   90.00000000
_symmetry_Int_Tables_number   6
_chemical_formula_structural   Li4Y4Sn4Pb4CO
_chemical_formula_sum   'Li4 Y4 Sn4 Pb4 C1 O1'
_cell_volume   1528.25481073
_cell_formula_units_Z   1
loop_
 _symmetry_equiv_pos_site_id
 _symmetry_equiv_pos_as_xyz
  1  'x, y, z'
  2  'x, -y, z'
loop_
 _atom_site_type_symbol
 _atom_site_label
 _atom_site_symmetry_multiplicity
 _atom_site_fract_x
 _atom_site_fract_y
 _atom_site_fract_z
 _atom_site_occupancy
  Li  Li0  2  0.00000000  0.25001000  0.90165000  1.0
  Li  Li1  2  0.44323000  0.25146000  0.03009000  1.0
  Y  Y2  1  0.14374000  0.00000000  0.09778000  1.0
  Y  Y3  1  0.14539000  0.50000000  0.09740000  1.0
  Y  Y4  1  0.72916000  0.00000000  0.96722000  1.0
  Y  Y5  1  0.72916000  0.50000000  0.96722000  1.0
  Sn  Sn6  2  0.50000000  0.25001000  0.90165000  1.0
  Sn  Sn7  2  0.90421000  0.25117000  0.04377000  1.0
  Pb  Pb8  1  0.22916000  0.00000000  0.96722000  1.0
  Pb  Pb9  1  0.22916000  0.50000000  0.96722000  1.0
  Pb  Pb10  1  0.65045000  0.00000000  0.11311000  1.0
  Pb  Pb11  1  0.65346000  0.50000000  0.11208000  1.0
  C  C12  1  0.18942000  0.00000000  0.19656000  1.0
  O  O13  1  0.20543000  0.00000000  0.24266000  1.0
