# generated using pymatgen
data_ScAlGaPd
_symmetry_space_group_name_H-M   'P 1'
_cell_length_a   9.12370000
_cell_length_b   6.45143000
_cell_length_c   26.84280000
_cell_angle_alpha   90.00000000
_cell_angle_beta   90.00000000
_cell_angle_gamma   90.00000000
_symmetry_Int_Tables_number   1
_chemical_formula_structural   ScAlGaPd
_chemical_formula_sum   'Sc8 Al8 Ga8 Pd8'
_cell_volume   1579.99168571
_cell_formula_units_Z   8
loop_
 _symmetry_equiv_pos_site_id
 _symmetry_equiv_pos_as_xyz
  1  'x, y, z'
loop_
 _atom_site_type_symbol
 _atom_site_label
 _atom_site_symmetry_multiplicity
 _atom_site_fract_x
 _atom_site_fract_y
 _atom_site_fract_z
 _atom_site_occupancy
  Sc  Sc0  1  0.25000000  0.00000000  0.04249000  1.0
  Sc  Sc1  1  0.75000000  0.00000000  0.04249000  1.0
  Sc  Sc2  1  0.50000000  0.50000000  0.12746000  1.0
  Sc  Sc3  1  0.00000000  0.50000000  0.12746000  1.0
  Sc  Sc4  1  0.75002000  0.97561000  0.87010000  1.0
  Sc  Sc5  1  0.24998000  0.97561000  0.87010000  1.0
  Sc  Sc6  1  0.00000000  0.50472000  0.95679000  1.0
  Sc  Sc7  1  0.50000000  0.50512000  0.95663000  1.0
  Al  Al8  1  0.00000000  0.00000000  0.12746000  1.0
  Al  Al9  1  0.50000000  0.00000000  0.12746000  1.0
  Al  Al10  1  0.75000000  0.50000000  0.04249000  1.0
  Al  Al11  1  0.25000000  0.50000000  0.04249000  1.0
  Al  Al12  1  0.50000000  0.98948000  0.95400000  1.0
  Al  Al13  1  0.00000000  0.98937000  0.95401000  1.0
  Al  Al14  1  0.24995000  0.49715000  0.87484000  1.0
  Al  Al15  1  0.75005000  0.49715000  0.87484000  1.0
  Ga  Ga16  1  0.00000000  0.75000000  0.04249000  1.0
  Ga  Ga17  1  0.50000000  0.75000000  0.04249000  1.0
  Ga  Ga18  1  0.25000000  0.25000000  0.12746000  1.0
  Ga  Ga19  1  0.75000000  0.25000000  0.12746000  1.0
  Ga  Ga20  1  0.50000000  0.70808000  0.85195000  1.0
  Ga  Ga21  1  0.00000000  0.70797000  0.85203000  1.0
  Ga  Ga22  1  0.74990000  0.23937000  0.95560000  1.0
  Ga  Ga23  1  0.25010000  0.23937000  0.95560000  1.0
  Pd  Pd24  1  0.00000000  0.25000000  0.04249000  1.0
  Pd  Pd25  1  0.50000000  0.25000000  0.04249000  1.0
  Pd  Pd26  1  0.25000000  0.75000000  0.12746000  1.0
  Pd  Pd27  1  0.75000000  0.75000000  0.12746000  1.0
  Pd  Pd28  1  0.50000000  0.25743000  0.87919000  1.0
  Pd  Pd29  1  0.00000000  0.25746000  0.87925000  1.0
  Pd  Pd30  1  0.75002000  0.75757000  0.95838000  1.0
  Pd  Pd31  1  0.24998000  0.75757000  0.95838000  1.0
