data_image0
_chemical_formula_structural       Li8Mn8Ge8Pd8C
_chemical_formula_sum              "Li8 Mn8 Ge8 Pd8 C1"
_cell_length_a       6.14713
_cell_length_b       8.69336
_cell_length_c       26.52
_cell_angle_alpha    90
_cell_angle_beta     90
_cell_angle_gamma    90

_space_group_name_H-M_alt    "P 1"
_space_group_IT_number       1

loop_
  _space_group_symop_operation_xyz
  'x, y, z'

loop_
  _atom_site_type_symbol
  _atom_site_label
  _atom_site_symmetry_multiplicity
  _atom_site_fract_x
  _atom_site_fract_y
  _atom_site_fract_z
  _atom_site_occupancy
  Li  Li1       1.0  0.00000  0.25000  0.95902  1.0000
  Li  Li2       1.0  0.00000  0.75000  0.95902  1.0000
  Li  Li3       1.0  0.50000  0.50000  0.87707  1.0000
  Li  Li4       1.0  0.50000  0.00000  0.87707  1.0000
  Li  Li5       1.0  0.98130  0.73454  0.14075  1.0000
  Li  Li6       1.0  0.98130  0.26546  0.14074  1.0000
  Li  Li7       1.0  0.49743  1.00000  0.04038  1.0000
  Li  Li8       1.0  0.50001  0.50000  0.03438  1.0000
  Mn  Mn1       1.0  0.25000  0.00000  0.95902  1.0000
  Mn  Mn2       1.0  0.25000  0.50000  0.95902  1.0000
  Mn  Mn3       1.0  0.75000  0.25000  0.87707  1.0000
  Mn  Mn4       1.0  0.75000  0.75000  0.87707  1.0000
  Mn  Mn5       1.0  0.28644  0.50000  0.11902  1.0000
  Mn  Mn6       1.0  0.21744  1.00000  0.11718  1.0000
  Mn  Mn7       1.0  0.75297  0.74748  0.04571  1.0000
  Mn  Mn8       1.0  0.75297  0.25252  0.04571  1.0000
  Ge  Ge1       1.0  0.00000  0.00000  0.87707  1.0000
  Ge  Ge2       1.0  0.00000  0.50000  0.87707  1.0000
  Ge  Ge3       1.0  0.50000  0.75000  0.95902  1.0000
  Ge  Ge4       1.0  0.50000  0.25000  0.95902  1.0000
  Ge  Ge5       1.0  0.00533  0.50000  0.04103  1.0000
  Ge  Ge6       1.0  0.00796  1.00000  0.03493  1.0000
  Ge  Ge7       1.0  0.49255  0.23775  0.13227  1.0000
  Ge  Ge8       1.0  0.49255  0.76225  0.13227  1.0000
  Pd  Pd1       1.0  0.75000  0.00000  0.95902  1.0000
  Pd  Pd2       1.0  0.75000  0.50000  0.95902  1.0000
  Pd  Pd3       1.0  0.25000  0.25000  0.87707  1.0000
  Pd  Pd4       1.0  0.25000  0.75000  0.87707  1.0000
  Pd  Pd5       1.0  0.73092  0.50000  0.11443  1.0000
  Pd  Pd6       1.0  0.77952  1.00000  0.11410  1.0000
  Pd  Pd7       1.0  0.25298  0.74631  0.04602  1.0000
  Pd  Pd8       1.0  0.25298  0.25369  0.04602  1.0000
  C   C1        1.0  0.48315  0.00000  0.14989  1.0000
