# generated using pymatgen
data_Li8Mn8Ge8Pd8C
_symmetry_space_group_name_H-M   Pm
_cell_length_a   6.14713000
_cell_length_b   8.69336000
_cell_length_c   26.52000000
_cell_angle_alpha   90.00000000
_cell_angle_beta   90.00000000
_cell_angle_gamma   90.00000000
_symmetry_Int_Tables_number   6
_chemical_formula_structural   Li8Mn8Ge8Pd8C
_chemical_formula_sum   'Li8 Mn8 Ge8 Pd8 C1'
_cell_volume   1417.20795679
_cell_formula_units_Z   1
loop_
 _symmetry_equiv_pos_site_id
 _symmetry_equiv_pos_as_xyz
  1  'x, y, z'
  2  'x, -y, z'
loop_
 _atom_site_type_symbol
 _atom_site_label
 _atom_site_symmetry_multiplicity
 _atom_site_fract_x
 _atom_site_fract_y
 _atom_site_fract_z
 _atom_site_occupancy
  Li  Li0  2  0.00000000  0.25000000  0.95902000  1.0
  Li  Li1  2  0.98130000  0.26546000  0.14075000  1.0
  Li  Li2  1  0.49743000  0.00000000  0.04038000  1.0
  Li  Li3  1  0.50000000  0.00000000  0.87707000  1.0
  Li  Li4  1  0.50000000  0.50000000  0.87707000  1.0
  Li  Li5  1  0.50001000  0.50000000  0.03438000  1.0
  Mn  Mn6  2  0.75000000  0.25000000  0.87707000  1.0
  Mn  Mn7  2  0.75297000  0.25252000  0.04571000  1.0
  Mn  Mn8  1  0.21744000  0.00000000  0.11718000  1.0
  Mn  Mn9  1  0.25000000  0.00000000  0.95902000  1.0
  Mn  Mn10  1  0.25000000  0.50000000  0.95902000  1.0
  Mn  Mn11  1  0.28644000  0.50000000  0.11902000  1.0
  Ge  Ge12  2  0.49255000  0.23775000  0.13227000  1.0
  Ge  Ge13  2  0.50000000  0.25000000  0.95902000  1.0
  Ge  Ge14  1  0.00000000  0.00000000  0.87707000  1.0
  Ge  Ge15  1  0.00000000  0.50000000  0.87707000  1.0
  Ge  Ge16  1  0.00533000  0.50000000  0.04103000  1.0
  Ge  Ge17  1  0.00796000  0.00000000  0.03493000  1.0
  Pd  Pd18  2  0.25000000  0.25000000  0.87707000  1.0
  Pd  Pd19  2  0.25298000  0.25369000  0.04602000  1.0
  Pd  Pd20  1  0.73092000  0.50000000  0.11443000  1.0
  Pd  Pd21  1  0.75000000  0.00000000  0.95902000  1.0
  Pd  Pd22  1  0.75000000  0.50000000  0.95902000  1.0
  Pd  Pd23  1  0.77952000  0.00000000  0.11410000  1.0
  C  C24  1  0.48315000  0.00000000  0.14989000  1.0
