data_image0
_chemical_formula_structural       Li8Cu16Si8C
_chemical_formula_sum              "Li8 Cu16 Si8 C1"
_cell_length_a       5.78917
_cell_length_b       8.18712
_cell_length_c       26.1403
_cell_angle_alpha    90
_cell_angle_beta     90
_cell_angle_gamma    90

_space_group_name_H-M_alt    "P 1"
_space_group_IT_number       1

loop_
  _space_group_symop_operation_xyz
  'x, y, z'

loop_
  _atom_site_type_symbol
  _atom_site_label
  _atom_site_symmetry_multiplicity
  _atom_site_fract_x
  _atom_site_fract_y
  _atom_site_fract_z
  _atom_site_occupancy
  Li  Li1       1.0  0.00000  0.00000  0.88255  1.0000
  Li  Li2       1.0  0.50000  0.25000  0.96085  1.0000
  Li  Li3       1.0  0.50000  0.75000  0.96085  1.0000
  Li  Li4       1.0  0.00000  0.50000  0.88255  1.0000
  Li  Li5       1.0  0.00000  0.50000  0.03319  1.0000
  Li  Li6       1.0  0.50000  0.73487  0.13444  1.0000
  Li  Li7       1.0  0.50000  0.26513  0.13444  1.0000
  Li  Li8       1.0  0.00000  0.00000  0.03906  1.0000
  Cu  Cu1       1.0  0.25000  0.00000  0.96085  1.0000
  Cu  Cu2       1.0  0.75000  0.50000  0.96085  1.0000
  Cu  Cu3       1.0  0.75000  0.00000  0.96085  1.0000
  Cu  Cu4       1.0  0.25000  0.50000  0.96085  1.0000
  Cu  Cu5       1.0  0.75000  0.75000  0.88255  1.0000
  Cu  Cu6       1.0  0.25000  0.25000  0.88255  1.0000
  Cu  Cu7       1.0  0.25000  0.75000  0.88255  1.0000
  Cu  Cu8       1.0  0.75000  0.25000  0.88255  1.0000
  Cu  Cu9       1.0  0.21577  0.50000  0.11568  1.0000
  Cu  Cu10      1.0  0.70877  0.00000  0.10923  1.0000
  Cu  Cu11      1.0  0.78423  0.50000  0.11568  1.0000
  Cu  Cu12      1.0  0.29123  1.00000  0.10923  1.0000
  Cu  Cu13      1.0  0.74570  0.25307  0.04231  1.0000
  Cu  Cu14      1.0  0.25430  0.74693  0.04231  1.0000
  Cu  Cu15      1.0  0.25430  0.25307  0.04231  1.0000
  Cu  Cu16      1.0  0.74570  0.74693  0.04231  1.0000
  Si  Si1       1.0  0.00000  0.75000  0.96085  1.0000
  Si  Si2       1.0  0.50000  0.00000  0.88255  1.0000
  Si  Si3       1.0  0.00000  0.25000  0.96085  1.0000
  Si  Si4       1.0  0.50000  0.50000  0.88255  1.0000
  Si  Si5       1.0  0.00000  0.22367  0.12063  1.0000
  Si  Si6       1.0  0.50000  0.50000  0.04577  1.0000
  Si  Si7       1.0  1.00000  0.77633  0.12063  1.0000
  Si  Si8       1.0  0.50000  0.00000  0.03377  1.0000
  C   C1        1.0  0.00000  0.00000  0.14499  1.0000
