# generated using pymatgen
data_Mg8In8Ag16C
_symmetry_space_group_name_H-M   Pm
_cell_length_a   6.85111000
_cell_length_b   9.68893000
_cell_length_c   27.26670000
_cell_angle_alpha   90.00000000
_cell_angle_beta   90.00000000
_cell_angle_gamma   90.00000000
_symmetry_Int_Tables_number   6
_chemical_formula_structural   Mg8In8Ag16C
_chemical_formula_sum   'Mg8 In8 Ag16 C1'
_cell_volume   1809.96150679
_cell_formula_units_Z   1
loop_
 _symmetry_equiv_pos_site_id
 _symmetry_equiv_pos_as_xyz
  1  'x, y, z'
  2  'x, -y, z'
loop_
 _atom_site_type_symbol
 _atom_site_label
 _atom_site_symmetry_multiplicity
 _atom_site_fract_x
 _atom_site_fract_y
 _atom_site_fract_z
 _atom_site_occupancy
  Mg  Mg0  2  0.00000000  0.25000000  0.86675000  1.0
  Mg  Mg1  2  0.00066000  0.25306000  0.04463000  1.0
  Mg  Mg2  1  0.48356000  0.50000000  0.13369000  1.0
  Mg  Mg3  1  0.50000000  0.00000000  0.95558000  1.0
  Mg  Mg4  1  0.50000000  0.50000000  0.95558000  1.0
  Mg  Mg5  1  0.54213000  0.00000000  0.13867000  1.0
  In  In6  2  0.49990000  0.24633000  0.04570000  1.0
  In  In7  2  0.50000000  0.25000000  0.86675000  1.0
  In  In8  1  0.00000000  0.00000000  0.95558000  1.0
  In  In9  1  0.00000000  0.50000000  0.95558000  1.0
  In  In10  1  0.02182000  0.50000000  0.14998000  1.0
  In  In11  1  0.94348000  0.00000000  0.16334000  1.0
  Ag  Ag12  2  0.24082000  0.24086000  0.13461000  1.0
  Ag  Ag13  2  0.25000000  0.25000000  0.95558000  1.0
  Ag  Ag14  2  0.75000000  0.25000000  0.95558000  1.0
  Ag  Ag15  2  0.75825000  0.26809000  0.13254000  1.0
  Ag  Ag16  1  0.22607000  0.00000000  0.05350000  1.0
  Ag  Ag17  1  0.24103000  0.50000000  0.04634000  1.0
  Ag  Ag18  1  0.25000000  0.00000000  0.86675000  1.0
  Ag  Ag19  1  0.25000000  0.50000000  0.86675000  1.0
  Ag  Ag20  1  0.75000000  0.00000000  0.86675000  1.0
  Ag  Ag21  1  0.75000000  0.50000000  0.86675000  1.0
  Ag  Ag22  1  0.75891000  0.50000000  0.04882000  1.0
  Ag  Ag23  1  0.76097000  0.00000000  0.04575000  1.0
  C  C24  1  0.24093000  0.00000000  0.14063000  1.0
