# generated using pymatgen
data_NbAlNi2
_symmetry_space_group_name_H-M   'P 1'
_cell_length_a   6.00915000
_cell_length_b   6.00915000
_cell_length_c   24.50690000
_cell_angle_alpha   90.00000000
_cell_angle_beta   90.00000000
_cell_angle_gamma   90.00000000
_symmetry_Int_Tables_number   1
_chemical_formula_structural   NbAlNi2
_chemical_formula_sum   'Nb4 Al4 Ni8'
_cell_volume   884.94130940
_cell_formula_units_Z   4
loop_
 _symmetry_equiv_pos_site_id
 _symmetry_equiv_pos_as_xyz
  1  'x, y, z'
loop_
 _atom_site_type_symbol
 _atom_site_label
 _atom_site_symmetry_multiplicity
 _atom_site_fract_x
 _atom_site_fract_y
 _atom_site_fract_z
 _atom_site_occupancy
  Nb  Nb0  1  0.99926000  0.99973000  0.09016000  1.0
  Nb  Nb1  1  0.50010000  0.49973000  0.09015000  1.0
  Nb  Nb2  1  0.50000000  0.00000000  0.96935000  1.0
  Nb  Nb3  1  0.00000000  0.50000000  0.96935000  1.0
  Al  Al4  1  0.00000000  0.00000000  0.96935000  1.0
  Al  Al5  1  0.49989000  0.99984000  0.09327000  1.0
  Al  Al6  1  0.99978000  0.49996000  0.09353000  1.0
  Al  Al7  1  0.50000000  0.50000000  0.96935000  1.0
  Ni  Ni8  1  0.24978000  0.25039000  0.03273000  1.0
  Ni  Ni9  1  0.75000000  0.75000000  0.90805000  1.0
  Ni  Ni10  1  0.75007000  0.25090000  0.03240000  1.0
  Ni  Ni11  1  0.25000000  0.75000000  0.90805000  1.0
  Ni  Ni12  1  0.74972000  0.74910000  0.03246000  1.0
  Ni  Ni13  1  0.25000000  0.25000000  0.90805000  1.0
  Ni  Ni14  1  0.24999000  0.74939000  0.03258000  1.0
  Ni  Ni15  1  0.75000000  0.25000000  0.90805000  1.0
