# generated using pymatgen
data_Ca16Ni16C
_symmetry_space_group_name_H-M   Pmm2
_cell_length_a   6.91175000
_cell_length_b   9.77469000
_cell_length_c   27.33100000
_cell_angle_alpha   90.00000000
_cell_angle_beta   90.00000000
_cell_angle_gamma   90.00000000
_symmetry_Int_Tables_number   25
_chemical_formula_structural   Ca16Ni16C
_chemical_formula_sum   'Ca16 Ni16 C1'
_cell_volume   1846.48819811
_cell_formula_units_Z   1
loop_
 _symmetry_equiv_pos_site_id
 _symmetry_equiv_pos_as_xyz
  1  'x, y, z'
  2  '-x, -y, z'
  3  '-x, y, z'
  4  'x, -y, z'
loop_
 _atom_site_type_symbol
 _atom_site_label
 _atom_site_symmetry_multiplicity
 _atom_site_fract_x
 _atom_site_fract_y
 _atom_site_fract_z
 _atom_site_occupancy
  Ca  Ca0  2  0.00000000  0.25000000  0.95529000  1.0
  Ca  Ca1  2  0.00000000  0.27006000  0.13929000  1.0
  Ca  Ca2  2  0.50000000  0.25000000  0.95529000  1.0
  Ca  Ca3  2  0.50000000  0.26010000  0.13893000  1.0
  Ca  Ca4  1  0.00000000  0.00000000  0.04764000  1.0
  Ca  Ca5  1  0.00000000  0.00000000  0.86588000  1.0
  Ca  Ca6  1  0.00000000  0.50000000  0.04541000  1.0
  Ca  Ca7  1  0.00000000  0.50000000  0.86588000  1.0
  Ca  Ca8  1  0.50000000  0.00000000  0.04177000  1.0
  Ca  Ca9  1  0.50000000  0.00000000  0.86588000  1.0
  Ca  Ca10  1  0.50000000  0.50000000  0.04536000  1.0
  Ca  Ca11  1  0.50000000  0.50000000  0.86588000  1.0
  Ni  Ni12  4  0.25000000  0.25000000  0.86588000  1.0
  Ni  Ni13  4  0.25263000  0.24827000  0.04855000  1.0
  Ni  Ni14  2  0.25000000  0.00000000  0.95529000  1.0
  Ni  Ni15  2  0.25000000  0.50000000  0.95529000  1.0
  Ni  Ni16  2  0.25046000  0.00000000  0.13470000  1.0
  Ni  Ni17  2  0.25413000  0.50000000  0.12557000  1.0
  C  C18  1  0.00000000  0.00000000  0.14266000  1.0
