# generated using pymatgen
data_Li4Y4Ge4Pb4C
_symmetry_space_group_name_H-M   Pm
_cell_length_a   6.56037000
_cell_length_b   8.55406000
_cell_length_c   24.87870000
_cell_angle_alpha   90.00000000
_cell_angle_beta   90.00000000
_cell_angle_gamma   90.00000000
_symmetry_Int_Tables_number   6
_chemical_formula_structural   Li4Y4Ge4Pb4C
_chemical_formula_sum   'Li4 Y4 Ge4 Pb4 C1'
_cell_volume   1396.13787608
_cell_formula_units_Z   1
loop_
 _symmetry_equiv_pos_site_id
 _symmetry_equiv_pos_as_xyz
  1  'x, y, z'
  2  'x, -y, z'
loop_
 _atom_site_type_symbol
 _atom_site_label
 _atom_site_symmetry_multiplicity
 _atom_site_fract_x
 _atom_site_fract_y
 _atom_site_fract_z
 _atom_site_occupancy
  Li  Li0  2  0.28244000  0.25000000  0.03268000  1.0
  Li  Li1  2  0.80920000  0.16072000  0.89802000  1.0
  Y  Y2  2  0.35511000  0.22513000  0.91036000  1.0
  Y  Y3  2  0.78244000  0.25000000  0.03268000  1.0
  Ge  Ge4  1  0.00000000  0.00000000  0.09805000  1.0
  Ge  Ge5  1  0.00000000  0.50000000  0.09805000  1.0
  Ge  Ge6  1  0.51022000  0.50000000  0.97618000  1.0
  Ge  Ge7  1  0.58662000  0.00000000  0.97401000  1.0
  Pb  Pb8  1  0.08288000  0.00000000  0.98016000  1.0
  Pb  Pb9  1  0.50000000  0.00000000  0.09805000  1.0
  Pb  Pb10  1  0.50000000  0.50000000  0.09805000  1.0
  Pb  Pb11  1  0.97631000  0.50000000  0.93981000  1.0
  C  C12  1  0.53604000  0.00000000  0.89172000  1.0
