data_image0
_chemical_formula_structural       Li4Ag8Sn4CO
_chemical_formula_sum              "Li4 Ag8 Sn4 C1 O1"
_cell_length_a       6.77071
_cell_length_b       6.77071
_cell_length_c       25.078
_cell_angle_alpha    90
_cell_angle_beta     90
_cell_angle_gamma    90

_space_group_name_H-M_alt    "P 1"
_space_group_IT_number       1

loop_
  _space_group_symop_operation_xyz
  'x, y, z'

loop_
  _atom_site_type_symbol
  _atom_site_label
  _atom_site_symmetry_multiplicity
  _atom_site_fract_x
  _atom_site_fract_y
  _atom_site_fract_z
  _atom_site_occupancy
  Li  Li1       1.0  0.99843  0.99934  0.09622  1.0000
  Li  Li2       1.0  0.49987  0.50005  0.09767  1.0000
  Li  Li3       1.0  0.50000  0.00000  0.96625  1.0000
  Li  Li4       1.0  0.00000  0.50000  0.96625  1.0000
  Ag  Ag1       1.0  0.24926  0.25365  0.03866  1.0000
  Ag  Ag2       1.0  0.75000  0.75000  0.89876  1.0000
  Ag  Ag3       1.0  0.74961  0.25291  0.03822  1.0000
  Ag  Ag4       1.0  0.25000  0.75000  0.89876  1.0000
  Ag  Ag5       1.0  0.74956  0.74700  0.03823  1.0000
  Ag  Ag6       1.0  0.25000  0.25000  0.89876  1.0000
  Ag  Ag7       1.0  0.24926  0.74626  0.03867  1.0000
  Ag  Ag8       1.0  0.75000  0.25000  0.89876  1.0000
  Sn  Sn1       1.0  0.00000  0.00000  0.96625  1.0000
  Sn  Sn2       1.0  0.49973  0.00000  0.10459  1.0000
  Sn  Sn3       1.0  0.99868  0.49994  0.10569  1.0000
  Sn  Sn4       1.0  0.50000  0.50000  0.96625  1.0000
  C   C1        1.0  0.05003  0.49989  0.26953  1.0000
  O   O1        1.0  0.95904  0.50185  0.30764  1.0000
