data_image0
_chemical_formula_structural       Y16Rh16CO
_chemical_formula_sum              "Y16 Rh16 C1 O1"
_cell_length_a       6.8816
_cell_length_b       9.73205
_cell_length_c       27.299
_cell_angle_alpha    90
_cell_angle_beta     90
_cell_angle_gamma    90

_space_group_name_H-M_alt    "P 1"
_space_group_IT_number       1

loop_
  _space_group_symop_operation_xyz
  'x, y, z'

loop_
  _atom_site_type_symbol
  _atom_site_label
  _atom_site_symmetry_multiplicity
  _atom_site_fract_x
  _atom_site_fract_y
  _atom_site_fract_z
  _atom_site_occupancy
  Y   Y1        1.0  0.25000  0.25000  0.86631  1.0000
  Y   Y2        1.0  0.25000  0.00000  0.95544  1.0000
  Y   Y3        1.0  0.25371  0.24999  0.04493  1.0000
  Y   Y4        1.0  0.25170  0.50281  0.13773  1.0000
  Y   Y5        1.0  0.25000  0.75000  0.86631  1.0000
  Y   Y6        1.0  0.25000  0.50000  0.95544  1.0000
  Y   Y7        1.0  0.24966  0.75000  0.04590  1.0000
  Y   Y8        1.0  0.25167  0.99720  0.13774  1.0000
  Y   Y9        1.0  0.75000  0.25000  0.86631  1.0000
  Y   Y10       1.0  0.75000  0.00000  0.95544  1.0000
  Y   Y11       1.0  0.74629  0.24999  0.04493  1.0000
  Y   Y12       1.0  0.74830  0.50282  0.13773  1.0000
  Y   Y13       1.0  0.75000  0.75000  0.86631  1.0000
  Y   Y14       1.0  0.75000  0.50000  0.95544  1.0000
  Y   Y15       1.0  0.75034  0.75000  0.04590  1.0000
  Y   Y16       1.0  0.74833  0.99720  0.13774  1.0000
  Rh  Rh1       1.0  0.00000  0.00000  0.86631  1.0000
  Rh  Rh2       1.0  0.00000  0.25000  0.95544  1.0000
  Rh  Rh3       1.0  0.00001  0.00609  0.05000  1.0000
  Rh  Rh4       1.0  0.00001  0.24998  0.13555  1.0000
  Rh  Rh5       1.0  0.00000  0.50000  0.86631  1.0000
  Rh  Rh6       1.0  0.00000  0.75000  0.95544  1.0000
  Rh  Rh7       1.0  0.00000  0.49393  0.04999  1.0000
  Rh  Rh8       1.0  0.99999  0.74999  0.12815  1.0000
  Rh  Rh9       1.0  0.50000  0.00000  0.86631  1.0000
  Rh  Rh10      1.0  0.50000  0.25000  0.95544  1.0000
  Rh  Rh11      1.0  0.49999  0.99937  0.04877  1.0000
  Rh  Rh12      1.0  0.49999  0.24999  0.12713  1.0000
  Rh  Rh13      1.0  0.50000  0.50000  0.86631  1.0000
  Rh  Rh14      1.0  0.50000  0.75000  0.95544  1.0000
  Rh  Rh15      1.0  0.50000  0.50065  0.04878  1.0000
  Rh  Rh16      1.0  0.50000  0.74999  0.12853  1.0000
  C   C1        1.0  0.00000  0.25000  0.20348  1.0000
  O   O1        1.0  1.00000  0.25000  0.24646  1.0000
