# generated using pymatgen
data_Y8Sn8Pd16CO
_symmetry_space_group_name_H-M   Pm
_cell_length_a   6.84524000
_cell_length_b   9.68063000
_cell_length_c   27.26050000
_cell_angle_alpha   90.00000000
_cell_angle_beta   90.00000000
_cell_angle_gamma   90.00000000
_symmetry_Int_Tables_number   6
_chemical_formula_structural   Y8Sn8Pd16CO
_chemical_formula_sum   'Y8 Sn8 Pd16 C1 O1'
_cell_volume   1806.45071833
_cell_formula_units_Z   1
loop_
 _symmetry_equiv_pos_site_id
 _symmetry_equiv_pos_as_xyz
  1  'x, y, z'
  2  'x, -y, z'
loop_
 _atom_site_type_symbol
 _atom_site_label
 _atom_site_symmetry_multiplicity
 _atom_site_fract_x
 _atom_site_fract_y
 _atom_site_fract_z
 _atom_site_occupancy
  Y  Y0  2  0.50000000  0.25000000  0.95561000  1.0
  Y  Y1  2  0.50239000  0.24766000  0.13695000  1.0
  Y  Y2  1  -0.00000000  0.50000000  0.86683000  1.0
  Y  Y3  1  0.00000000  0.00000000  0.86683000  1.0
  Y  Y4  1  0.00217000  0.50000000  0.04345000  1.0
  Y  Y5  1  0.00604000  0.00000000  0.04434000  1.0
  Sn  Sn6  2  -0.00000000  0.25000000  0.95561000  1.0
  Sn  Sn7  2  0.00027000  0.25289000  0.13196000  1.0
  Sn  Sn8  1  0.49911000  0.00000000  0.04755000  1.0
  Sn  Sn9  1  0.50000000  0.00000000  0.86683000  1.0
  Sn  Sn10  1  0.50000000  0.50000000  0.86683000  1.0
  Sn  Sn11  1  0.50222000  0.50000000  0.04621000  1.0
  Pd  Pd12  2  0.25000000  0.25000000  0.86683000  1.0
  Pd  Pd13  2  0.26982000  0.24870000  0.04974000  1.0
  Pd  Pd14  2  0.73647000  0.24983000  0.04770000  1.0
  Pd  Pd15  2  0.75000000  0.25000000  0.86683000  1.0
  Pd  Pd16  1  0.23113000  0.00000000  0.14547000  1.0
  Pd  Pd17  1  0.24550000  0.50000000  0.12771000  1.0
  Pd  Pd18  1  0.25000000  0.00000000  0.95561000  1.0
  Pd  Pd19  1  0.25000000  0.50000000  0.95561000  1.0
  Pd  Pd20  1  0.75000000  0.00000000  0.95561000  1.0
  Pd  Pd21  1  0.75000000  0.50000000  0.95561000  1.0
  Pd  Pd22  1  0.75571000  0.50000000  0.12816000  1.0
  Pd  Pd23  1  0.76896000  0.00000000  0.12737000  1.0
  C  C24  1  0.31756000  0.00000000  0.21327000  1.0
  O  O25  1  0.32878000  0.00000000  0.25573000  1.0
