# generated using pymatgen
data_Sc8Al8Ga8Pd8CO
_symmetry_space_group_name_H-M   'P 1'
_cell_length_a   9.12370000
_cell_length_b   6.45143000
_cell_length_c   26.84280000
_cell_angle_alpha   90.00000000
_cell_angle_beta   90.00000000
_cell_angle_gamma   90.00000000
_symmetry_Int_Tables_number   1
_chemical_formula_structural   Sc8Al8Ga8Pd8CO
_chemical_formula_sum   'Sc8 Al8 Ga8 Pd8 C1 O1'
_cell_volume   1579.99168571
_cell_formula_units_Z   1
loop_
 _symmetry_equiv_pos_site_id
 _symmetry_equiv_pos_as_xyz
  1  'x, y, z'
loop_
 _atom_site_type_symbol
 _atom_site_label
 _atom_site_symmetry_multiplicity
 _atom_site_fract_x
 _atom_site_fract_y
 _atom_site_fract_z
 _atom_site_occupancy
  Sc  Sc0  1  0.24999000  0.00000000  0.04249000  1.0
  Sc  Sc1  1  0.75001000  0.00000000  0.04249000  1.0
  Sc  Sc2  1  0.50000000  0.50000000  0.12746000  1.0
  Sc  Sc3  1  0.00000000  0.50000000  0.12746000  1.0
  Sc  Sc4  1  0.75366000  0.96977000  0.86892000  1.0
  Sc  Sc5  1  0.24634000  0.96977000  0.86892000  1.0
  Sc  Sc6  1  0.00000000  0.49912000  0.95681000  1.0
  Sc  Sc7  1  0.50000000  0.50171000  0.95706000  1.0
  Al  Al8  1  0.00000000  0.00000000  0.12746000  1.0
  Al  Al9  1  0.50000000  0.00000000  0.12746000  1.0
  Al  Al10  1  0.74999000  0.50000000  0.04249000  1.0
  Al  Al11  1  0.25001000  0.50000000  0.04249000  1.0
  Al  Al12  1  0.50000000  0.98437000  0.95384000  1.0
  Al  Al13  1  0.00000000  0.99221000  0.95234000  1.0
  Al  Al14  1  0.25312000  0.49724000  0.87685000  1.0
  Al  Al15  1  0.74688000  0.49724000  0.87685000  1.0
  Ga  Ga16  1  0.00000000  0.75000000  0.04249000  1.0
  Ga  Ga17  1  0.50000000  0.75000000  0.04249000  1.0
  Ga  Ga18  1  0.24999000  0.25000000  0.12746000  1.0
  Ga  Ga19  1  0.75001000  0.25000000  0.12746000  1.0
  Ga  Ga20  1  0.50000000  0.70755000  0.85141000  1.0
  Ga  Ga21  1  0.00000000  0.69743000  0.85492000  1.0
  Ga  Ga22  1  0.75016000  0.23483000  0.95517000  1.0
  Ga  Ga23  1  0.24984000  0.23483000  0.95517000  1.0
  Pd  Pd24  1  0.00000000  0.25000000  0.04249000  1.0
  Pd  Pd25  1  0.50000000  0.25000000  0.04249000  1.0
  Pd  Pd26  1  0.24999000  0.75000000  0.12746000  1.0
  Pd  Pd27  1  0.75001000  0.75000000  0.12746000  1.0
  Pd  Pd28  1  0.50000000  0.24836000  0.87968000  1.0
  Pd  Pd29  1  0.00000000  0.26432000  0.86885000  1.0
  Pd  Pd30  1  0.75147000  0.75838000  0.95859000  1.0
  Pd  Pd31  1  0.24853000  0.75838000  0.95859000  1.0
  C  C32  1  0.00000000  0.20034000  0.79656000  1.0
  O  O33  1  0.00000000  0.20911000  0.75352000  1.0
