# generated using pymatgen
data_Sc8Al8Ga8Pd8CO
_symmetry_space_group_name_H-M   Pm
_cell_length_a   6.45143000
_cell_length_b   9.12370000
_cell_length_c   26.84280000
_cell_angle_alpha   90.00000000
_cell_angle_beta   90.00000000
_cell_angle_gamma   90.00000000
_symmetry_Int_Tables_number   6
_chemical_formula_structural   Sc8Al8Ga8Pd8CO
_chemical_formula_sum   'Sc8 Al8 Ga8 Pd8 C1 O1'
_cell_volume   1579.99168571
_cell_formula_units_Z   1
loop_
 _symmetry_equiv_pos_site_id
 _symmetry_equiv_pos_as_xyz
  1  'x, y, z'
  2  'x, -y, z'
loop_
 _atom_site_type_symbol
 _atom_site_label
 _atom_site_symmetry_multiplicity
 _atom_site_fract_x
 _atom_site_fract_y
 _atom_site_fract_z
 _atom_site_occupancy
  Sc  Sc0  2  0.00000000  0.24999000  0.95751000  1.0
  Sc  Sc1  2  0.96977000  0.24634000  0.13108000  1.0
  Sc  Sc2  1  0.49912000  0.00000000  0.04319000  1.0
  Sc  Sc3  1  0.50000000  0.00000000  0.87254000  1.0
  Sc  Sc4  1  0.50000000  0.50000000  0.87254000  1.0
  Sc  Sc5  1  0.50171000  0.50000000  0.04294000  1.0
  Al  Al6  2  0.49724000  0.25312000  0.12315000  1.0
  Al  Al7  2  0.50000000  0.25001000  0.95751000  1.0
  Al  Al8  1  0.00000000  0.00000000  0.87254000  1.0
  Al  Al9  1  0.00000000  0.50000000  0.87254000  1.0
  Al  Al10  1  0.98437000  0.50000000  0.04616000  1.0
  Al  Al11  1  0.99221000  0.00000000  0.04766000  1.0
  Ga  Ga12  2  0.23483000  0.24984000  0.04483000  1.0
  Ga  Ga13  2  0.25000000  0.24999000  0.87254000  1.0
  Ga  Ga14  1  0.69743000  0.00000000  0.14508000  1.0
  Ga  Ga15  1  0.70755000  0.50000000  0.14859000  1.0
  Ga  Ga16  1  0.75000000  0.00000000  0.95751000  1.0
  Ga  Ga17  1  0.75000000  0.50000000  0.95751000  1.0
  Pd  Pd18  2  0.75000000  0.24999000  0.87254000  1.0
  Pd  Pd19  2  0.75838000  0.24853000  0.04141000  1.0
  Pd  Pd20  1  0.24836000  0.50000000  0.12032000  1.0
  Pd  Pd21  1  0.25000000  0.00000000  0.95751000  1.0
  Pd  Pd22  1  0.25000000  0.50000000  0.95751000  1.0
  Pd  Pd23  1  0.26432000  0.00000000  0.13115000  1.0
  C  C24  1  0.20034000  0.00000000  0.20344000  1.0
  O  O25  1  0.20911000  0.00000000  0.24648000  1.0
