# generated using pymatgen
data_Li8Al8Ag8Sn8C
_symmetry_space_group_name_H-M   Pmm2
_cell_length_a   8.16098000
_cell_length_b   8.56020000
_cell_length_c   26.50010000
_cell_angle_alpha   90.00000000
_cell_angle_beta   90.00000000
_cell_angle_gamma   90.00000000
_symmetry_Int_Tables_number   25
_chemical_formula_structural   Li8Al8Ag8Sn8C
_chemical_formula_sum   'Li8 Al8 Ag8 Sn8 C1'
_cell_volume   1851.28694236
_cell_formula_units_Z   1
loop_
 _symmetry_equiv_pos_site_id
 _symmetry_equiv_pos_as_xyz
  1  'x, y, z'
  2  '-x, -y, z'
  3  '-x, y, z'
  4  'x, -y, z'
loop_
 _atom_site_type_symbol
 _atom_site_label
 _atom_site_symmetry_multiplicity
 _atom_site_fract_x
 _atom_site_fract_y
 _atom_site_fract_z
 _atom_site_occupancy
  Li  Li0  2  0.25000000  0.00000000  0.95912000  1.0
  Li  Li1  2  0.25000000  0.50000000  0.95912000  1.0
  Li  Li2  2  0.25329000  0.00000000  0.13011000  1.0
  Li  Li3  2  0.25547000  0.50000000  0.12170000  1.0
  Al  Al4  4  0.25000000  0.25000000  0.87736000  1.0
  Al  Al5  4  0.25074000  0.25351000  0.03871000  1.0
  Ag  Ag6  2  0.00000000  0.25000000  0.95912000  1.0
  Ag  Ag7  2  0.00000000  0.25792000  0.12182000  1.0
  Ag  Ag8  2  0.50000000  0.25000000  0.95912000  1.0
  Ag  Ag9  2  0.50000000  0.25232000  0.11578000  1.0
  Sn  Sn10  1  0.00000000  0.00000000  0.03881000  1.0
  Sn  Sn11  1  0.00000000  0.00000000  0.87736000  1.0
  Sn  Sn12  1  0.00000000  0.50000000  0.04357000  1.0
  Sn  Sn13  1  0.00000000  0.50000000  0.87736000  1.0
  Sn  Sn14  1  0.50000000  0.00000000  0.04196000  1.0
  Sn  Sn15  1  0.50000000  0.00000000  0.87736000  1.0
  Sn  Sn16  1  0.50000000  0.50000000  0.03787000  1.0
  Sn  Sn17  1  0.50000000  0.50000000  0.87736000  1.0
  C  C18  1  0.00000000  0.00000000  0.12343000  1.0
