# generated using pymatgen
data_Li8In8Cu8Pd8C
_symmetry_space_group_name_H-M   'P 1'
_cell_length_a   8.95884000
_cell_length_b   6.33486000
_cell_length_c   26.71910000
_cell_angle_alpha   90.00000000
_cell_angle_beta   90.00000000
_cell_angle_gamma   90.00000000
_symmetry_Int_Tables_number   1
_chemical_formula_structural   Li8In8Cu8Pd8C
_chemical_formula_sum   'Li8 In8 Cu8 Pd8 C1'
_cell_volume   1516.38900648
_cell_formula_units_Z   1
loop_
 _symmetry_equiv_pos_site_id
 _symmetry_equiv_pos_as_xyz
  1  'x, y, z'
loop_
 _atom_site_type_symbol
 _atom_site_label
 _atom_site_symmetry_multiplicity
 _atom_site_fract_x
 _atom_site_fract_y
 _atom_site_fract_z
 _atom_site_occupancy
  Li  Li0  1  0.00000000  0.25000000  0.04191000  1.0
  Li  Li1  1  0.50000000  0.25000000  0.04191000  1.0
  Li  Li2  1  0.25000000  0.75000000  0.12574000  1.0
  Li  Li3  1  0.75000000  0.75000000  0.12574000  1.0
  Li  Li4  1  0.50000000  0.24186000  0.87172000  1.0
  Li  Li5  1  0.00000000  0.27408000  0.87122000  1.0
  Li  Li6  1  0.74178000  0.75301000  0.96413000  1.0
  Li  Li7  1  0.25822000  0.75301000  0.96413000  1.0
  In  In8  1  0.00000000  0.75000000  0.04191000  1.0
  In  In9  1  0.50000000  0.75000000  0.04191000  1.0
  In  In10  1  0.25000000  0.25000000  0.12574000  1.0
  In  In11  1  0.75000000  0.25000000  0.12574000  1.0
  In  In12  1  0.50000000  0.76480000  0.86802000  1.0
  In  In13  1  0.00000000  0.66292000  0.83326000  1.0
  In  In14  1  0.75847000  0.25454000  0.95818000  1.0
  In  In15  1  0.24153000  0.25454000  0.95818000  1.0
  Cu  Cu16  1  0.00000000  0.00000000  0.12574000  1.0
  Cu  Cu17  1  0.50000000  1.00000000  0.12574000  1.0
  Cu  Cu18  1  0.75000000  0.50000000  0.04191000  1.0
  Cu  Cu19  1  0.25000000  0.50000000  0.04191000  1.0
  Cu  Cu20  1  0.50000000  0.00887000  0.95577000  1.0
  Cu  Cu21  1  0.00000000  0.97042000  0.95227000  1.0
  Cu  Cu22  1  0.25211000  0.53441000  0.88375000  1.0
  Cu  Cu23  1  0.74789000  0.53441000  0.88375000  1.0
  Pd  Pd24  1  0.25000000  1.00000000  0.04191000  1.0
  Pd  Pd25  1  0.75000000  1.00000000  0.04191000  1.0
  Pd  Pd26  1  0.50000000  0.50000000  0.12574000  1.0
  Pd  Pd27  1  0.00000000  0.50000000  0.12574000  1.0
  Pd  Pd28  1  0.77320000  0.95846000  0.88228000  1.0
  Pd  Pd29  1  0.22680000  0.95846000  0.88228000  1.0
  Pd  Pd30  1  0.00000000  0.53973000  0.94903000  1.0
  Pd  Pd31  1  0.50000000  0.49869000  0.95417000  1.0
  C  C32  1  0.00000000  0.96402000  0.87885000  1.0
