# generated using pymatgen
data_Mg8In8Cu8Pd8C
_symmetry_space_group_name_H-M   'P 1'
_cell_length_a   9.13520000
_cell_length_b   6.45956000
_cell_length_c   26.85140000
_cell_angle_alpha   90.00000000
_cell_angle_beta   90.00000000
_cell_angle_gamma   90.00000000
_symmetry_Int_Tables_number   1
_chemical_formula_structural   Mg8In8Cu8Pd8C
_chemical_formula_sum   'Mg8 In8 Cu8 Pd8 C1'
_cell_volume   1584.48426507
_cell_formula_units_Z   1
loop_
 _symmetry_equiv_pos_site_id
 _symmetry_equiv_pos_as_xyz
  1  'x, y, z'
loop_
 _atom_site_type_symbol
 _atom_site_label
 _atom_site_symmetry_multiplicity
 _atom_site_fract_x
 _atom_site_fract_y
 _atom_site_fract_z
 _atom_site_occupancy
  Mg  Mg0  1  0.75000000  0.25000000  0.04253000  1.0
  Mg  Mg1  1  0.25000000  0.25000000  0.04253000  1.0
  Mg  Mg2  1  0.00000000  0.75000000  0.12758000  1.0
  Mg  Mg3  1  0.50000000  0.75000000  0.12758000  1.0
  Mg  Mg4  1  0.24330000  0.24678000  0.86499000  1.0
  Mg  Mg5  1  0.75670000  0.24678000  0.86499000  1.0
  Mg  Mg6  1  0.50000000  0.75023000  0.95595000  1.0
  Mg  Mg7  1  0.00000000  0.75181000  0.95824000  1.0
  In  In8  1  0.75000000  0.75000000  0.04253000  1.0
  In  In9  1  0.25000000  0.75000000  0.04253000  1.0
  In  In10  1  0.00000000  0.25000000  0.12758000  1.0
  In  In11  1  0.50000000  0.25000000  0.12758000  1.0
  In  In12  1  0.26619000  0.74373000  0.86145000  1.0
  In  In13  1  0.73381000  0.74373000  0.86145000  1.0
  In  In14  1  0.50000000  0.25397000  0.95850000  1.0
  In  In15  1  0.00000000  0.24734000  0.95511000  1.0
  Cu  Cu16  1  0.75000000  0.00000000  0.12758000  1.0
  Cu  Cu17  1  0.25000000  0.00000000  0.12758000  1.0
  Cu  Cu18  1  0.50000000  0.50000000  0.04253000  1.0
  Cu  Cu19  1  0.00000000  0.50000000  0.04253000  1.0
  Cu  Cu20  1  0.25378000  0.99561000  0.95405000  1.0
  Cu  Cu21  1  0.74622000  0.99561000  0.95405000  1.0
  Cu  Cu22  1  0.00000000  0.54296000  0.87072000  1.0
  Cu  Cu23  1  0.50000000  0.47879000  0.87279000  1.0
  Pd  Pd24  1  0.00000000  1.00000000  0.04253000  1.0
  Pd  Pd25  1  0.50000000  0.00000000  0.04253000  1.0
  Pd  Pd26  1  0.25000000  0.50000000  0.12758000  1.0
  Pd  Pd27  1  0.75000000  0.50000000  0.12758000  1.0
  Pd  Pd28  1  0.50000000  0.01700000  0.87606000  1.0
  Pd  Pd29  1  0.00000000  0.94923000  0.87018000  1.0
  Pd  Pd30  1  0.74926000  0.50536000  0.95517000  1.0
  Pd  Pd31  1  0.25074000  0.50536000  0.95517000  1.0
  C  C32  1  0.00000000  0.25735000  0.86283000  1.0
