# generated using pymatgen
data_Fe8Co16Ge8CO
_symmetry_space_group_name_H-M   'P 1'
_cell_length_a   8.15711000
_cell_length_b   5.76795000
_cell_length_c   26.11780000
_cell_angle_alpha   90.00000000
_cell_angle_beta   90.00000000
_cell_angle_gamma   90.00000000
_symmetry_Int_Tables_number   1
_chemical_formula_structural   Fe8Co16Ge8CO
_chemical_formula_sum   'Fe8 Co16 Ge8 C1 O1'
_cell_volume   1228.83733499
_cell_formula_units_Z   1
loop_
 _symmetry_equiv_pos_site_id
 _symmetry_equiv_pos_as_xyz
  1  'x, y, z'
loop_
 _atom_site_type_symbol
 _atom_site_label
 _atom_site_symmetry_multiplicity
 _atom_site_fract_x
 _atom_site_fract_y
 _atom_site_fract_z
 _atom_site_occupancy
  Fe  Fe0  1  0.00000000  0.00000000  0.11712000  1.0
  Fe  Fe1  1  0.25000000  0.50000000  0.03904000  1.0
  Fe  Fe2  1  0.75000000  0.50000000  0.03904000  1.0
  Fe  Fe3  1  0.50000000  0.00000000  0.11712000  1.0
  Fe  Fe4  1  0.50157000  0.00000000  0.96068000  1.0
  Fe  Fe5  1  0.74997000  0.50000000  0.88418000  1.0
  Fe  Fe6  1  0.25003000  0.50000000  0.88223000  1.0
  Fe  Fe7  1  0.99843000  0.00000000  0.96069000  1.0
  Co  Co8  1  0.00000000  0.75000000  0.03904000  1.0
  Co  Co9  1  0.50000000  0.25000000  0.03904000  1.0
  Co  Co10  1  0.00000000  0.25000000  0.03904000  1.0
  Co  Co11  1  0.50000000  0.75000000  0.03904000  1.0
  Co  Co12  1  0.75000000  0.25000000  0.11712000  1.0
  Co  Co13  1  0.25000000  0.75000000  0.11712000  1.0
  Co  Co14  1  0.75000000  0.75000000  0.11712000  1.0
  Co  Co15  1  0.25000000  0.25000000  0.11712000  1.0
  Co  Co16  1  0.50062000  0.75360000  0.88671000  1.0
  Co  Co17  1  0.99938000  0.24636000  0.88671000  1.0
  Co  Co18  1  0.50062000  0.24640000  0.88671000  1.0
  Co  Co19  1  0.99938000  0.75364000  0.88671000  1.0
  Co  Co20  1  0.25004000  0.24942000  0.96232000  1.0
  Co  Co21  1  0.74996000  0.75130000  0.96076000  1.0
  Co  Co22  1  0.25004000  0.75058000  0.96232000  1.0
  Co  Co23  1  0.74996000  0.24870000  0.96076000  1.0
  Ge  Ge24  1  0.75000000  0.00000000  0.03904000  1.0
  Ge  Ge25  1  0.00000000  0.50000000  0.11712000  1.0
  Ge  Ge26  1  0.25000000  0.00000000  0.03904000  1.0
  Ge  Ge27  1  0.50000000  0.50000000  0.11712000  1.0
  Ge  Ge28  1  0.25008000  0.00000000  0.88195000  1.0
  Ge  Ge29  1  0.49722000  0.50000000  0.96060000  1.0
  Ge  Ge30  1  0.74990000  0.00000000  0.87583000  1.0
  Ge  Ge31  1  0.00279000  0.50000000  0.96062000  1.0
  C  C32  1  0.25002000  0.50000000  0.81316000  1.0
  O  O33  1  0.25000000  0.50000000  0.76875000  1.0
