# generated using pymatgen
data_Fe8Co16Ge8CO
_symmetry_space_group_name_H-M   Pm
_cell_length_a   8.15711000
_cell_length_b   5.76795000
_cell_length_c   26.11780000
_cell_angle_alpha   90.00000000
_cell_angle_beta   90.00000000
_cell_angle_gamma   90.00000000
_symmetry_Int_Tables_number   6
_chemical_formula_structural   Fe8Co16Ge8CO
_chemical_formula_sum   'Fe8 Co16 Ge8 C1 O1'
_cell_volume   1228.83733499
_cell_formula_units_Z   1
loop_
 _symmetry_equiv_pos_site_id
 _symmetry_equiv_pos_as_xyz
  1  'x, y, z'
  2  'x, -y, z'
loop_
 _atom_site_type_symbol
 _atom_site_label
 _atom_site_symmetry_multiplicity
 _atom_site_fract_x
 _atom_site_fract_y
 _atom_site_fract_z
 _atom_site_occupancy
  Fe  Fe0  1  0.00000000  0.00000000  0.88288000  1.0
  Fe  Fe1  1  0.25000000  0.50000000  0.96096000  1.0
  Fe  Fe2  1  0.25003000  0.50000000  0.11777000  1.0
  Fe  Fe3  1  0.50000000  0.00000000  0.88288000  1.0
  Fe  Fe4  1  0.50157000  0.00000000  0.03932000  1.0
  Fe  Fe5  1  0.74997000  0.50000000  0.11582000  1.0
  Fe  Fe6  1  0.75000000  0.50000000  0.96096000  1.0
  Fe  Fe7  1  0.99843000  0.00000000  0.03931000  1.0
  Co  Co8  2  0.00000000  0.25000000  0.96096000  1.0
  Co  Co9  2  0.25000000  0.25000000  0.88288000  1.0
  Co  Co10  2  0.25004000  0.24942000  0.03768000  1.0
  Co  Co11  2  0.50000000  0.25000000  0.96096000  1.0
  Co  Co12  2  0.50062000  0.24640000  0.11329000  1.0
  Co  Co13  2  0.74996000  0.24870000  0.03924000  1.0
  Co  Co14  2  0.75000000  0.25000000  0.88288000  1.0
  Co  Co15  2  0.99938000  0.24636000  0.11329000  1.0
  Ge  Ge16  1  0.00000000  0.50000000  0.88288000  1.0
  Ge  Ge17  1  0.00279000  0.50000000  0.03938000  1.0
  Ge  Ge18  1  0.25000000  0.00000000  0.96096000  1.0
  Ge  Ge19  1  0.25008000  0.00000000  0.11805000  1.0
  Ge  Ge20  1  0.49722000  0.50000000  0.03940000  1.0
  Ge  Ge21  1  0.50000000  0.50000000  0.88288000  1.0
  Ge  Ge22  1  0.74990000  0.00000000  0.12417000  1.0
  Ge  Ge23  1  0.75000000  0.00000000  0.96096000  1.0
  C  C24  1  0.25002000  0.50000000  0.18684000  1.0
  O  O25  1  0.25000000  0.50000000  0.23125000  1.0
