# generated using pymatgen
data_Li4In8Rh4CO
_symmetry_space_group_name_H-M   'P 1'
_cell_length_a   6.57920000
_cell_length_b   6.57920000
_cell_length_c   24.93440000
_cell_angle_alpha   90.00000000
_cell_angle_beta   90.00000000
_cell_angle_gamma   90.00000000
_symmetry_Int_Tables_number   1
_chemical_formula_structural   Li4In8Rh4CO
_chemical_formula_sum   'Li4 In8 Rh4 C1 O1'
_cell_volume   1079.30726275
_cell_formula_units_Z   1
loop_
 _symmetry_equiv_pos_site_id
 _symmetry_equiv_pos_as_xyz
  1  'x, y, z'
loop_
 _atom_site_type_symbol
 _atom_site_label
 _atom_site_symmetry_multiplicity
 _atom_site_fract_x
 _atom_site_fract_y
 _atom_site_fract_z
 _atom_site_occupancy
  Li  Li0  1  0.00000000  0.00000000  0.90105000  1.0
  Li  Li1  1  0.50000000  0.50000000  0.90105000  1.0
  Li  Li2  1  0.50910000  0.99082000  0.03140000  1.0
  Li  Li3  1  0.99092000  0.50916000  0.03141000  1.0
  In  In4  1  0.25000000  0.25000000  0.96702000  1.0
  In  In5  1  0.75002000  0.74996000  0.11039000  1.0
  In  In6  1  0.75000000  0.25000000  0.96702000  1.0
  In  In7  1  0.25001000  0.74996000  0.10228000  1.0
  In  In8  1  0.75000000  0.75000000  0.96702000  1.0
  In  In9  1  0.25005000  0.24998000  0.09483000  1.0
  In  In10  1  0.25000000  0.75000000  0.96702000  1.0
  In  In11  1  0.75001000  0.25000000  0.10226000  1.0
  Rh  Rh12  1  0.00043000  0.00037000  0.03310000  1.0
  Rh  Rh13  1  0.50000000  0.00000000  0.90105000  1.0
  Rh  Rh14  1  1.00000000  0.50000000  0.90105000  1.0
  Rh  Rh15  1  0.49962000  0.49959000  0.03309000  1.0
  C  C16  1  0.24980000  0.25023000  0.23058000  1.0
  O  O17  1  0.25006000  0.24995000  0.27607000  1.0
