# generated using pymatgen
data_Mn8Ga8CO
_symmetry_space_group_name_H-M   'P 1'
_cell_length_a   5.44570000
_cell_length_b   5.44570000
_cell_length_c   25.51780000
_cell_angle_alpha   90.00000000
_cell_angle_beta   90.00000000
_cell_angle_gamma   90.00000000
_symmetry_Int_Tables_number   1
_chemical_formula_structural   Mn8Ga8CO
_chemical_formula_sum   'Mn8 Ga8 C1 O1'
_cell_volume   756.74690704
_cell_formula_units_Z   1
loop_
 _symmetry_equiv_pos_site_id
 _symmetry_equiv_pos_as_xyz
  1  'x, y, z'
loop_
 _atom_site_type_symbol
 _atom_site_label
 _atom_site_symmetry_multiplicity
 _atom_site_fract_x
 _atom_site_fract_y
 _atom_site_fract_z
 _atom_site_occupancy
  Mn  Mn0  1  0.00000000  0.00000000  0.96824000  1.0
  Mn  Mn1  1  0.00000000  0.00000000  0.11239000  1.0
  Mn  Mn2  1  0.00000000  0.50000000  0.96824000  1.0
  Mn  Mn3  1  0.00000000  0.50000000  0.11239000  1.0
  Mn  Mn4  1  0.50000000  0.00000000  0.96824000  1.0
  Mn  Mn5  1  0.50000000  0.00000000  0.11239000  1.0
  Mn  Mn6  1  0.50000000  0.50000000  0.96824000  1.0
  Mn  Mn7  1  0.50000000  0.50000000  0.11239000  1.0
  Ga  Ga8  1  0.75000000  0.75000000  0.89616000  1.0
  Ga  Ga9  1  0.75000000  0.75000000  0.04031000  1.0
  Ga  Ga10  1  0.75000000  0.25000000  0.89616000  1.0
  Ga  Ga11  1  0.75000000  0.25000000  0.04031000  1.0
  Ga  Ga12  1  0.25000000  0.75000000  0.89616000  1.0
  Ga  Ga13  1  0.25000000  0.75000000  0.04031000  1.0
  Ga  Ga14  1  0.25000000  0.25000000  0.89616000  1.0
  Ga  Ga15  1  0.25000000  0.25000000  0.04031000  1.0
  C  C16  1  0.00000000  0.00000000  0.18685000  1.0
  O  O17  1  0.00000000  0.00000000  0.23192000  1.0
