# generated using pymatgen
data_Ti16Fe16CO
_symmetry_space_group_name_H-M   'P 1'
_cell_length_a   5.92728000
_cell_length_b   8.38244000
_cell_length_c   26.28680000
_cell_angle_alpha   90.00000000
_cell_angle_beta   90.00000000
_cell_angle_gamma   90.00000000
_symmetry_Int_Tables_number   1
_chemical_formula_structural   Ti16Fe16CO
_chemical_formula_sum   'Ti16 Fe16 C1 O1'
_cell_volume   1306.06147082
_cell_formula_units_Z   1
loop_
 _symmetry_equiv_pos_site_id
 _symmetry_equiv_pos_as_xyz
  1  'x, y, z'
loop_
 _atom_site_type_symbol
 _atom_site_label
 _atom_site_symmetry_multiplicity
 _atom_site_fract_x
 _atom_site_fract_y
 _atom_site_fract_z
 _atom_site_occupancy
  Ti  Ti0  1  0.00000000  0.75000000  0.88042000  1.0
  Ti  Ti1  1  0.00000000  0.00000000  0.96014000  1.0
  Ti  Ti2  1  0.00000000  0.25051000  0.04056000  1.0
  Ti  Ti3  1  0.00000000  0.00000000  0.12072000  1.0
  Ti  Ti4  1  0.00000000  0.25000000  0.88042000  1.0
  Ti  Ti5  1  0.00000000  0.50000000  0.96014000  1.0
  Ti  Ti6  1  0.00000000  0.74949000  0.04056000  1.0
  Ti  Ti7  1  0.00000000  0.50000000  0.12290000  1.0
  Ti  Ti8  1  0.50000000  0.75000000  0.88042000  1.0
  Ti  Ti9  1  0.50000000  0.00000000  0.96014000  1.0
  Ti  Ti10  1  0.50000000  0.25065000  0.04060000  1.0
  Ti  Ti11  1  0.50000000  0.00000000  0.12155000  1.0
  Ti  Ti12  1  0.50000000  0.25000000  0.88042000  1.0
  Ti  Ti13  1  0.50000000  0.50000000  0.96014000  1.0
  Ti  Ti14  1  0.50000000  0.74935000  0.04060000  1.0
  Ti  Ti15  1  0.50000000  0.50000000  0.12327000  1.0
  Fe  Fe16  1  0.25000000  0.00000000  0.88042000  1.0
  Fe  Fe17  1  0.25000000  0.75000000  0.96014000  1.0
  Fe  Fe18  1  0.25087000  0.00000000  0.04045000  1.0
  Fe  Fe19  1  0.25015000  0.74715000  0.11667000  1.0
  Fe  Fe20  1  0.25000000  0.50000000  0.88042000  1.0
  Fe  Fe21  1  0.25000000  0.25000000  0.96014000  1.0
  Fe  Fe22  1  0.25019000  0.50000000  0.04107000  1.0
  Fe  Fe23  1  0.25015000  0.25285000  0.11667000  1.0
  Fe  Fe24  1  0.75000000  0.00000000  0.88042000  1.0
  Fe  Fe25  1  0.75000000  0.75000000  0.96014000  1.0
  Fe  Fe26  1  0.74913000  0.00000000  0.04045000  1.0
  Fe  Fe27  1  0.74985000  0.74715000  0.11667000  1.0
  Fe  Fe28  1  0.75000000  0.50000000  0.88042000  1.0
  Fe  Fe29  1  0.75000000  0.25000000  0.96014000  1.0
  Fe  Fe30  1  0.74981000  0.50000000  0.04107000  1.0
  Fe  Fe31  1  0.74985000  0.25285000  0.11667000  1.0
  C  C32  1  0.00000000  0.00000000  0.20080000  1.0
  O  O33  1  0.00000000  0.00000000  0.24475000  1.0
