data_image0
_chemical_formula_structural       Hf16Ru16C
_chemical_formula_sum              "Hf16 Ru16 C1"
_cell_length_a       6.47981
_cell_length_b       9.16384
_cell_length_c       26.8729
_cell_angle_alpha    90
_cell_angle_beta     90
_cell_angle_gamma    90

_space_group_name_H-M_alt    "P 1"
_space_group_IT_number       1

loop_
  _space_group_symop_operation_xyz
  'x, y, z'

loop_
  _atom_site_type_symbol
  _atom_site_label
  _atom_site_symmetry_multiplicity
  _atom_site_fract_x
  _atom_site_fract_y
  _atom_site_fract_z
  _atom_site_occupancy
  Hf  Hf1       1.0  0.00000  0.00000  0.87212  1.0000
  Hf  Hf2       1.0  0.00000  0.25000  0.95737  1.0000
  Hf  Hf3       1.0  0.00009  0.00002  0.04432  1.0000
  Hf  Hf4       1.0  0.97643  0.25000  0.12899  1.0000
  Hf  Hf5       1.0  0.00000  0.50000  0.87212  1.0000
  Hf  Hf6       1.0  0.00000  0.75000  0.95737  1.0000
  Hf  Hf7       1.0  0.00009  0.49998  0.04432  1.0000
  Hf  Hf8       1.0  0.00117  0.75000  0.12897  1.0000
  Hf  Hf9       1.0  0.50000  0.00000  0.87212  1.0000
  Hf  Hf10      1.0  0.50000  0.25000  0.95737  1.0000
  Hf  Hf11      1.0  0.49991  0.00002  0.04432  1.0000
  Hf  Hf12      1.0  0.52357  0.25000  0.12899  1.0000
  Hf  Hf13      1.0  0.50000  0.50000  0.87212  1.0000
  Hf  Hf14      1.0  0.50000  0.75000  0.95737  1.0000
  Hf  Hf15      1.0  0.49991  0.49998  0.04432  1.0000
  Hf  Hf16      1.0  0.49883  0.75000  0.12897  1.0000
  Ru  Ru1       1.0  0.25000  0.25000  0.87212  1.0000
  Ru  Ru2       1.0  0.25000  0.00000  0.95737  1.0000
  Ru  Ru3       1.0  0.25000  0.25000  0.04083  1.0000
  Ru  Ru4       1.0  0.25000  0.00875  0.12413  1.0000
  Ru  Ru5       1.0  0.25000  0.75000  0.87212  1.0000
  Ru  Ru6       1.0  0.25000  0.50000  0.95737  1.0000
  Ru  Ru7       1.0  0.25000  0.75000  0.04464  1.0000
  Ru  Ru8       1.0  0.25000  0.49125  0.12413  1.0000
  Ru  Ru9       1.0  0.75000  0.25000  0.87212  1.0000
  Ru  Ru10      1.0  0.75000  0.00000  0.95737  1.0000
  Ru  Ru11      1.0  0.75000  0.25000  0.03953  1.0000
  Ru  Ru12      1.0  0.75000  0.98881  0.12233  1.0000
  Ru  Ru13      1.0  0.75000  0.75000  0.87212  1.0000
  Ru  Ru14      1.0  0.75000  0.50000  0.95737  1.0000
  Ru  Ru15      1.0  0.75000  0.75000  0.04219  1.0000
  Ru  Ru16      1.0  0.75000  0.51119  0.12233  1.0000
  C   C1        1.0  0.25000  0.25000  0.16610  1.0000
