# generated using pymatgen
data_Hf16Ru16C
_symmetry_space_group_name_H-M   Pmm2
_cell_length_a   6.47981000
_cell_length_b   9.16384000
_cell_length_c   26.87290000
_cell_angle_alpha   90.00000000
_cell_angle_beta   90.00000000
_cell_angle_gamma   90.00000000
_symmetry_Int_Tables_number   25
_chemical_formula_structural   Hf16Ru16C
_chemical_formula_sum   'Hf16 Ru16 C1'
_cell_volume   1595.71124526
_cell_formula_units_Z   1
loop_
 _symmetry_equiv_pos_site_id
 _symmetry_equiv_pos_as_xyz
  1  'x, y, z'
  2  '-x, -y, z'
  3  '-x, y, z'
  4  'x, -y, z'
loop_
 _atom_site_type_symbol
 _atom_site_label
 _atom_site_symmetry_multiplicity
 _atom_site_fract_x
 _atom_site_fract_y
 _atom_site_fract_z
 _atom_site_occupancy
  Hf  Hf0  4  0.24991000  0.24998000  0.04432000  1.0
  Hf  Hf1  4  0.25000000  0.25000000  0.87212000  1.0
  Hf  Hf2  2  0.24883000  0.50000000  0.12897000  1.0
  Hf  Hf3  2  0.25000000  0.00000000  0.95737000  1.0
  Hf  Hf4  2  0.25000000  0.50000000  0.95737000  1.0
  Hf  Hf5  2  0.27357000  0.00000000  0.12899000  1.0
  Ru  Ru6  2  0.00000000  0.24125000  0.12413000  1.0
  Ru  Ru7  2  0.00000000  0.25000000  0.95737000  1.0
  Ru  Ru8  2  0.50000000  0.25000000  0.95737000  1.0
  Ru  Ru9  2  0.50000000  0.26119000  0.12233000  1.0
  Ru  Ru10  1  0.00000000  0.00000000  0.04083000  1.0
  Ru  Ru11  1  0.00000000  0.00000000  0.87212000  1.0
  Ru  Ru12  1  0.00000000  0.50000000  0.04464000  1.0
  Ru  Ru13  1  0.00000000  0.50000000  0.87212000  1.0
  Ru  Ru14  1  0.50000000  0.00000000  0.03953000  1.0
  Ru  Ru15  1  0.50000000  0.00000000  0.87212000  1.0
  Ru  Ru16  1  0.50000000  0.50000000  0.04219000  1.0
  Ru  Ru17  1  0.50000000  0.50000000  0.87212000  1.0
  C  C18  1  0.00000000  0.00000000  0.16610000  1.0
