# generated using pymatgen
data_Y4Sn4Ge4Pd4C
_symmetry_space_group_name_H-M   Pm
_cell_length_a   5.93056000
_cell_length_b   9.60308000
_cell_length_c   24.43880000
_cell_angle_alpha   90.00000000
_cell_angle_beta   90.00000000
_cell_angle_gamma   90.00000000
_symmetry_Int_Tables_number   6
_chemical_formula_structural   Y4Sn4Ge4Pd4C
_chemical_formula_sum   'Y4 Sn4 Ge4 Pd4 C1'
_cell_volume   1391.82979156
_cell_formula_units_Z   1
loop_
 _symmetry_equiv_pos_site_id
 _symmetry_equiv_pos_as_xyz
  1  'x, y, z'
  2  'x, -y, z'
loop_
 _atom_site_type_symbol
 _atom_site_label
 _atom_site_symmetry_multiplicity
 _atom_site_fract_x
 _atom_site_fract_y
 _atom_site_fract_z
 _atom_site_occupancy
  Y  Y0  2  0.47520000  0.23781000  0.09383000  1.0
  Y  Y1  2  0.96804000  0.25000000  0.96973000  1.0
  Sn  Sn2  1  0.14717000  0.00000000  0.04319000  1.0
  Sn  Sn3  1  0.24146000  0.50000000  0.02969000  1.0
  Sn  Sn4  1  0.70205000  0.00000000  0.90919000  1.0
  Sn  Sn5  1  0.70205000  0.50000000  0.90919000  1.0
  Ge  Ge6  2  0.46804000  0.25000000  0.96973000  1.0
  Ge  Ge7  2  0.97491000  0.31089000  0.09496000  1.0
  Pd  Pd8  1  0.20205000  0.00000000  0.90919000  1.0
  Pd  Pd9  1  0.20205000  0.50000000  0.90919000  1.0
  Pd  Pd10  1  0.69968000  0.00000000  0.02824000  1.0
  Pd  Pd11  1  0.73689000  0.50000000  0.03445000  1.0
  C  C12  1  0.44881000  0.00000000  0.09244000  1.0
