# generated using pymatgen
data_Li8In8Pd8Au8CO
_symmetry_space_group_name_H-M   Pmm2
_cell_length_a   8.29976000
_cell_length_b   8.89782000
_cell_length_c   25.65440000
_cell_angle_alpha   90.00000000
_cell_angle_beta   90.00000000
_cell_angle_gamma   90.00000000
_symmetry_Int_Tables_number   25
_chemical_formula_structural   Li8In8Pd8Au8CO
_chemical_formula_sum   'Li8 In8 Pd8 Au8 C1 O1'
_cell_volume   1894.57155291
_cell_formula_units_Z   1
loop_
 _symmetry_equiv_pos_site_id
 _symmetry_equiv_pos_as_xyz
  1  'x, y, z'
  2  '-x, -y, z'
  3  '-x, y, z'
  4  'x, -y, z'
loop_
 _atom_site_type_symbol
 _atom_site_label
 _atom_site_symmetry_multiplicity
 _atom_site_fract_x
 _atom_site_fract_y
 _atom_site_fract_z
 _atom_site_occupancy
  Li  Li0  2  0.00000000  0.25000000  0.03673000  1.0
  Li  Li1  2  0.00000000  0.25000000  0.88980000  1.0
  Li  Li2  2  0.50000000  0.25000000  0.03673000  1.0
  Li  Li3  2  0.50000000  0.25000000  0.88980000  1.0
  In  In4  2  0.25000000  0.00000000  0.03673000  1.0
  In  In5  2  0.25000000  0.00000000  0.88980000  1.0
  In  In6  2  0.25000000  0.50000000  0.03673000  1.0
  In  In7  2  0.25000000  0.50000000  0.88980000  1.0
  Pd  Pd8  1  0.00000000  0.00000000  0.11020000  1.0
  Pd  Pd9  1  0.00000000  0.00000000  0.96327000  1.0
  Pd  Pd10  1  0.00000000  0.50000000  0.11020000  1.0
  Pd  Pd11  1  0.00000000  0.50000000  0.96327000  1.0
  Pd  Pd12  1  0.50000000  0.00000000  0.11020000  1.0
  Pd  Pd13  1  0.50000000  0.00000000  0.96327000  1.0
  Pd  Pd14  1  0.50000000  0.50000000  0.11020000  1.0
  Pd  Pd15  1  0.50000000  0.50000000  0.96327000  1.0
  Au  Au16  4  0.25000000  0.25000000  0.11020000  1.0
  Au  Au17  4  0.25000000  0.25000000  0.96327000  1.0
  C  C18  1  0.00000000  0.00000000  0.18426000  1.0
  O  O19  1  0.00000000  0.00000000  0.22909000  1.0
