# generated using pymatgen
data_Mg8In8Ni16CO
_symmetry_space_group_name_H-M   Pm
_cell_length_a   8.83103000
_cell_length_b   6.24448000
_cell_length_c   26.62330000
_cell_angle_alpha   90.00000000
_cell_angle_beta   90.00000000
_cell_angle_gamma   90.00000000
_symmetry_Int_Tables_number   6
_chemical_formula_structural   Mg8In8Ni16CO
_chemical_formula_sum   'Mg8 In8 Ni16 C1 O1'
_cell_volume   1468.14694264
_cell_formula_units_Z   1
loop_
 _symmetry_equiv_pos_site_id
 _symmetry_equiv_pos_as_xyz
  1  'x, y, z'
  2  'x, -y, z'
loop_
 _atom_site_type_symbol
 _atom_site_label
 _atom_site_symmetry_multiplicity
 _atom_site_fract_x
 _atom_site_fract_y
 _atom_site_fract_z
 _atom_site_occupancy
  Mg  Mg0  1  0.00000000  0.00000000  0.87561000  1.0
  Mg  Mg1  1  0.00108000  0.00000000  0.03798000  1.0
  Mg  Mg2  1  0.24995000  0.50000000  0.12944000  1.0
  Mg  Mg3  1  0.25000000  0.50000000  0.95854000  1.0
  Mg  Mg4  1  0.49891000  0.00000000  0.03796000  1.0
  Mg  Mg5  1  0.50000000  0.00000000  0.87561000  1.0
  Mg  Mg6  1  0.75000000  0.50000000  0.95854000  1.0
  Mg  Mg7  1  0.75015000  0.50000000  0.12803000  1.0
  In  In8  1  0.00000000  0.50000000  0.87561000  1.0
  In  In9  1  0.25000000  0.00000000  0.95854000  1.0
  In  In10  1  0.25004000  0.00000000  0.13160000  1.0
  In  In11  1  0.50000000  0.50000000  0.87561000  1.0
  In  In12  1  0.50060000  0.50000000  0.04165000  1.0
  In  In13  1  0.74998000  0.00000000  0.13354000  1.0
  In  In14  1  0.75000000  0.00000000  0.95854000  1.0
  In  In15  1  0.99942000  0.50000000  0.04166000  1.0
  Ni  Ni16  2  0.00000000  0.25000000  0.95854000  1.0
  Ni  Ni17  2  0.25000000  0.25000000  0.87561000  1.0
  Ni  Ni18  2  0.25001000  0.24946000  0.04375000  1.0
  Ni  Ni19  2  0.50000000  0.25000000  0.95854000  1.0
  Ni  Ni20  2  0.50149000  0.22586000  0.11701000  1.0
  Ni  Ni21  2  0.74999000  0.24558000  0.04326000  1.0
  Ni  Ni22  2  0.75000000  0.25000000  0.87561000  1.0
  Ni  Ni23  2  0.99856000  0.22577000  0.11710000  1.0
  C  C24  1  0.25001000  0.50000000  0.21522000  1.0
  O  O25  1  0.25001000  0.50000000  0.25808000  1.0
