# generated using pymatgen
data_Y8In8Sn8Pd8C
_symmetry_space_group_name_H-M   Pmm2
_cell_length_a   8.73372000
_cell_length_b   9.06394000
_cell_length_c   26.87300000
_cell_angle_alpha   90.00000000
_cell_angle_beta   90.00000000
_cell_angle_gamma   90.00000000
_symmetry_Int_Tables_number   25
_chemical_formula_structural   Y8In8Sn8Pd8C
_chemical_formula_sum   'Y8 In8 Sn8 Pd8 C1'
_cell_volume   2127.31811645
_cell_formula_units_Z   1
loop_
 _symmetry_equiv_pos_site_id
 _symmetry_equiv_pos_as_xyz
  1  'x, y, z'
  2  '-x, -y, z'
  3  '-x, y, z'
  4  'x, -y, z'
loop_
 _atom_site_type_symbol
 _atom_site_label
 _atom_site_symmetry_multiplicity
 _atom_site_fract_x
 _atom_site_fract_y
 _atom_site_fract_z
 _atom_site_occupancy
  Y  Y0  2  0.24409000  0.50000000  0.12755000  1.0
  Y  Y1  2  0.25000000  0.00000000  0.95737000  1.0
  Y  Y2  2  0.25000000  0.50000000  0.95737000  1.0
  Y  Y3  2  0.26445000  0.00000000  0.13043000  1.0
  In  In4  4  0.24255000  0.24887000  0.04518000  1.0
  In  In5  4  0.25000000  0.25000000  0.87212000  1.0
  Sn  Sn6  2  0.00000000  0.24639000  0.14058000  1.0
  Sn  Sn7  2  0.00000000  0.25000000  0.95737000  1.0
  Sn  Sn8  2  0.50000000  0.25000000  0.95737000  1.0
  Sn  Sn9  2  0.50000000  0.26076000  0.12669000  1.0
  Pd  Pd10  1  0.00000000  0.00000000  0.05449000  1.0
  Pd  Pd11  1  0.00000000  0.00000000  0.87212000  1.0
  Pd  Pd12  1  0.00000000  0.50000000  0.04365000  1.0
  Pd  Pd13  1  0.00000000  0.50000000  0.87212000  1.0
  Pd  Pd14  1  0.50000000  0.00000000  0.04377000  1.0
  Pd  Pd15  1  0.50000000  0.00000000  0.87212000  1.0
  Pd  Pd16  1  0.50000000  0.50000000  0.04865000  1.0
  Pd  Pd17  1  0.50000000  0.50000000  0.87212000  1.0
  C  C18  1  0.00000000  0.00000000  0.14097000  1.0
