# generated using pymatgen
data_Li8Pb4Au4CO
_symmetry_space_group_name_H-M   'P 1'
_cell_length_a   6.82040000
_cell_length_b   6.82040000
_cell_length_c   25.11530000
_cell_angle_alpha   90.00000000
_cell_angle_beta   90.00000000
_cell_angle_gamma   90.00000000
_symmetry_Int_Tables_number   1
_chemical_formula_structural   Li8Pb4Au4CO
_chemical_formula_sum   'Li8 Pb4 Au4 C1 O1'
_cell_volume   1168.30991282
_cell_formula_units_Z   1
loop_
 _symmetry_equiv_pos_site_id
 _symmetry_equiv_pos_as_xyz
  1  'x, y, z'
loop_
 _atom_site_type_symbol
 _atom_site_label
 _atom_site_symmetry_multiplicity
 _atom_site_fract_x
 _atom_site_fract_y
 _atom_site_fract_z
 _atom_site_occupancy
  Li  Li0  1  0.74981000  0.74981000  0.03393000  1
  Li  Li1  1  0.75000000  0.25000000  0.89816000  1
  Li  Li2  1  0.25000000  0.75000000  0.89816000  1
  Li  Li3  1  0.25019000  0.25019000  0.03393000  1
  Li  Li4  1  0.50000000  0.00000000  0.96605000  1
  Li  Li5  1  1.00000000  0.00000000  0.11452000  1
  Li  Li6  1  1.00000000  0.50000000  0.96605000  1
  Li  Li7  1  0.50000000  0.50000000  0.11509000  1
  Pb  Pb8  1  0.75000000  0.75000000  0.89816000  1
  Pb  Pb9  1  0.25000000  0.25000000  0.89816000  1
  Pb  Pb10  1  0.75011500  0.24988500  0.03860000  1
  Pb  Pb11  1  0.24988500  0.75011500  0.03860000  1
  Au  Au12  1  0.50000000  0.00000000  0.09944000  1
  Au  Au13  1  1.00000000  0.00000000  0.96605000  1
  Au  Au14  1  1.00000000  0.50000000  0.09944000  1
  Au  Au15  1  0.50000000  0.50000000  0.96605000  1
  C  C16  1  0.50000000  0.50000000  0.19901000  1
  O  O17  1  0.50000000  0.50000000  0.24437000  1
