# generated using pymatgen
data_Mg4Ni12C
_symmetry_space_group_name_H-M   Pm
_cell_length_a   5.20259000
_cell_length_b   7.35757000
_cell_length_c   23.90190000
_cell_angle_alpha   90.00000000
_cell_angle_beta   90.00000000
_cell_angle_gamma   90.00000000
_symmetry_Int_Tables_number   6
_chemical_formula_structural   Mg4Ni12C
_chemical_formula_sum   'Mg4 Ni12 C1'
_cell_volume   914.92696954
_cell_formula_units_Z   1
loop_
 _symmetry_equiv_pos_site_id
 _symmetry_equiv_pos_as_xyz
  1  'x, y, z'
  2  'x, -y, z'
loop_
 _atom_site_type_symbol
 _atom_site_label
 _atom_site_symmetry_multiplicity
 _atom_site_fract_x
 _atom_site_fract_y
 _atom_site_fract_z
 _atom_site_occupancy
  Mg  Mg0  2  0.00418000  0.23600000  0.91463000  1.0
  Mg  Mg1  2  0.50000000  0.25000000  0.02721000  1.0
  Ni  Ni2  2  0.00000000  0.25000000  0.02721000  1.0
  Ni  Ni3  2  0.50411000  0.25133000  0.92206000  1.0
  Ni  Ni4  1  0.23884000  0.50000000  0.97340000  1.0
  Ni  Ni5  1  0.25000000  0.00000000  0.08162000  1.0
  Ni  Ni6  1  0.25000000  0.50000000  0.08162000  1.0
  Ni  Ni7  1  0.25160000  0.00000000  0.97472000  1.0
  Ni  Ni8  1  0.75000000  0.00000000  0.08162000  1.0
  Ni  Ni9  1  0.75000000  0.50000000  0.08162000  1.0
  Ni  Ni10  1  0.75260000  0.00000000  0.97508000  1.0
  Ni  Ni11  1  0.76660000  0.50000000  0.97396000  1.0
  C  C12  1  0.50431000  0.50000000  0.92150000  1.0
