# generated using pymatgen
data_MnCo2Sn
_symmetry_space_group_name_H-M   Pmm2
_cell_length_a   4.25582000
_cell_length_b   6.01864000
_cell_length_c   26.38370000
_cell_angle_alpha   90.00000000
_cell_angle_beta   90.00000000
_cell_angle_gamma   90.00000000
_symmetry_Int_Tables_number   25
_chemical_formula_structural   MnCo2Sn
_chemical_formula_sum   'Mn4 Co8 Sn4'
_cell_volume   675.79864775
_cell_formula_units_Z   4
loop_
 _symmetry_equiv_pos_site_id
 _symmetry_equiv_pos_as_xyz
  1  'x, y, z'
  2  '-x, -y, z'
  3  '-x, y, z'
  4  'x, -y, z'
loop_
 _atom_site_type_symbol
 _atom_site_label
 _atom_site_symmetry_multiplicity
 _atom_site_fract_x
 _atom_site_fract_y
 _atom_site_fract_z
 _atom_site_occupancy
  Mn  Mn0  1  0.00000000  0.00000000  0.12098000  1.0
  Mn  Mn1  1  0.00000000  0.00000000  0.95911500  1.0
  Mn  Mn2  1  0.50000000  0.50000000  0.04033000  1.0
  Mn  Mn3  1  0.50000000  0.50000000  0.88179000  1.0
  Co  Co4  2  0.00000000  0.24788500  0.88185000  1.0
  Co  Co5  2  0.00000000  0.25000000  0.04033000  1.0
  Co  Co6  2  0.50000000  0.24366500  0.95847000  1.0
  Co  Co7  2  0.50000000  0.25000000  0.12098000  1.0
  Sn  Sn8  1  0.00000000  0.50000000  0.12098000  1.0
  Sn  Sn9  1  0.00000000  0.50000000  0.96073000  1.0
  Sn  Sn10  1  0.50000000  0.00000000  0.04033000  1.0
  Sn  Sn11  1  0.50000000  0.00000000  0.87133000  1.0
