# generated using pymatgen
data_In16Ni16CO
_symmetry_space_group_name_H-M   Pmm2
_cell_length_a   6.35210000
_cell_length_b   8.98322000
_cell_length_c   26.73740000
_cell_angle_alpha   90.00000000
_cell_angle_beta   90.00000000
_cell_angle_gamma   90.00000000
_symmetry_Int_Tables_number   25
_chemical_formula_structural   In16Ni16CO
_chemical_formula_sum   'In16 Ni16 C1 O1'
_cell_volume   1525.69785451
_cell_formula_units_Z   1
loop_
 _symmetry_equiv_pos_site_id
 _symmetry_equiv_pos_as_xyz
  1  'x, y, z'
  2  '-x, -y, z'
  3  '-x, y, z'
  4  'x, -y, z'
loop_
 _atom_site_type_symbol
 _atom_site_label
 _atom_site_symmetry_multiplicity
 _atom_site_fract_x
 _atom_site_fract_y
 _atom_site_fract_z
 _atom_site_occupancy
  In  In0  2  0.00000000  0.25001000  0.87401000  1.0
  In  In1  2  0.00000000  0.25072000  0.03993000  1.0
  In  In2  2  0.50000000  0.25001000  0.87401000  1.0
  In  In3  2  0.50000000  0.25005000  0.03851000  1.0
  In  In4  1  0.00000000  0.00000000  0.12548000  1.0
  In  In5  1  0.00000000  0.00000000  0.95800000  1.0
  In  In6  1  0.00000000  0.50000000  0.13812000  1.0
  In  In7  1  0.00000000  0.50000000  0.95800000  1.0
  In  In8  1  0.50000000  0.00000000  0.13549000  1.0
  In  In9  1  0.50000000  0.00000000  0.95800000  1.0
  In  In10  1  0.50000000  0.50000000  0.13550000  1.0
  In  In11  1  0.50000000  0.50000000  0.95800000  1.0
  Ni  Ni12  4  0.25000000  0.25001000  0.95800000  1.0
  Ni  Ni13  4  0.25320000  0.25271000  0.11821000  1.0
  Ni  Ni14  2  0.25000000  0.00000000  0.87401000  1.0
  Ni  Ni15  2  0.25000000  0.50000000  0.87401000  1.0
  Ni  Ni16  2  0.25361000  0.00000000  0.04171000  1.0
  Ni  Ni17  2  0.25702000  0.50000000  0.04331000  1.0
  C  C18  1  0.00000000  0.00000000  0.22660000  1.0
  O  O19  1  0.00000000  0.00000000  0.26911000  1.0
