data_image0
_chemical_formula_structural       Be16Co16C
_chemical_formula_sum              "Be16 Co16 C1"
_cell_length_a       5.19112
_cell_length_b       7.34136
_cell_length_c       25.506
_cell_angle_alpha    90
_cell_angle_beta     90
_cell_angle_gamma    90

_space_group_name_H-M_alt    "P 1"
_space_group_IT_number       1

loop_
  _space_group_symop_operation_xyz
  'x, y, z'

loop_
  _atom_site_type_symbol
  _atom_site_label
  _atom_site_symmetry_multiplicity
  _atom_site_fract_x
  _atom_site_fract_y
  _atom_site_fract_z
  _atom_site_occupancy
  Be  Be1       1.0  0.00000  0.00000  0.89206  1.0000
  Be  Be2       1.0  0.00000  0.25000  0.96402  1.0000
  Be  Be3       1.0  0.00842  0.49735  0.03483  1.0000
  Be  Be4       1.0  0.95428  0.25000  0.10592  1.0000
  Be  Be5       1.0  0.00000  0.50000  0.89206  1.0000
  Be  Be6       1.0  0.00000  0.75000  0.96402  1.0000
  Be  Be7       1.0  0.00842  0.00266  0.03483  1.0000
  Be  Be8       1.0  0.03493  0.75000  0.11053  1.0000
  Be  Be9       1.0  0.50000  0.00000  0.89206  1.0000
  Be  Be10      1.0  0.50000  0.25000  0.96402  1.0000
  Be  Be11      1.0  0.49158  0.49735  0.03483  1.0000
  Be  Be12      1.0  0.54572  0.25000  0.10592  1.0000
  Be  Be13      1.0  0.50000  0.50000  0.89206  1.0000
  Be  Be14      1.0  0.50000  0.75000  0.96402  1.0000
  Be  Be15      1.0  0.49158  0.00266  0.03483  1.0000
  Be  Be16      1.0  0.46507  0.75000  0.11053  1.0000
  Co  Co1       1.0  0.25000  0.25000  0.89206  1.0000
  Co  Co2       1.0  0.25000  0.00000  0.96402  1.0000
  Co  Co3       1.0  0.25000  0.25000  0.03634  1.0000
  Co  Co4       1.0  0.25000  0.01988  0.11031  1.0000
  Co  Co5       1.0  0.25000  0.75000  0.89206  1.0000
  Co  Co6       1.0  0.25000  0.50000  0.96402  1.0000
  Co  Co7       1.0  0.25000  0.75000  0.03721  1.0000
  Co  Co8       1.0  0.25000  0.48011  0.11031  1.0000
  Co  Co9       1.0  0.75000  0.25000  0.89206  1.0000
  Co  Co10      1.0  0.75000  0.00000  0.96402  1.0000
  Co  Co11      1.0  0.75000  0.25001  0.03436  1.0000
  Co  Co12      1.0  0.75000  0.97329  0.10503  1.0000
  Co  Co13      1.0  0.75000  0.75000  0.89206  1.0000
  Co  Co14      1.0  0.75000  0.50000  0.96402  1.0000
  Co  Co15      1.0  0.75000  0.74999  0.03889  1.0000
  Co  Co16      1.0  0.75000  0.52669  0.10503  1.0000
  C   C1        1.0  0.25000  0.25000  0.13395  1.0000
