# generated using pymatgen
data_Be16Co16C
_symmetry_space_group_name_H-M   Pmm2
_cell_length_a   5.19112000
_cell_length_b   7.34136000
_cell_length_c   25.50600000
_cell_angle_alpha   90.00000000
_cell_angle_beta   90.00000000
_cell_angle_gamma   90.00000000
_symmetry_Int_Tables_number   25
_chemical_formula_structural   Be16Co16C
_chemical_formula_sum   'Be16 Co16 C1'
_cell_volume   972.03061773
_cell_formula_units_Z   1
loop_
 _symmetry_equiv_pos_site_id
 _symmetry_equiv_pos_as_xyz
  1  'x, y, z'
  2  '-x, -y, z'
  3  '-x, y, z'
  4  'x, -y, z'
loop_
 _atom_site_type_symbol
 _atom_site_label
 _atom_site_symmetry_multiplicity
 _atom_site_fract_x
 _atom_site_fract_y
 _atom_site_fract_z
 _atom_site_occupancy
  Be  Be0  4  0.24158000  0.24735000  0.03483000  1.0
  Be  Be1  4  0.25000000  0.25000000  0.89206000  1.0
  Be  Be2  2  0.21507000  0.50000000  0.11053000  1.0
  Be  Be3  2  0.25000000  0.00000000  0.96402000  1.0
  Be  Be4  2  0.25000000  0.50000000  0.96402000  1.0
  Be  Be5  2  0.29572000  0.00000000  0.10592000  1.0
  Co  Co6  2  0.00000000  0.23012000  0.11031000  1.0
  Co  Co7  2  0.00000000  0.25000000  0.96402000  1.0
  Co  Co8  2  0.50000000  0.25000000  0.96402000  1.0
  Co  Co9  2  0.50000000  0.27671000  0.10503000  1.0
  Co  Co10  1  0.00000000  0.00000000  0.03634000  1.0
  Co  Co11  1  0.00000000  0.00000000  0.89206000  1.0
  Co  Co12  1  0.00000000  0.50000000  0.03721000  1.0
  Co  Co13  1  0.00000000  0.50000000  0.89206000  1.0
  Co  Co14  1  0.50000000  0.00000000  0.03436000  1.0
  Co  Co15  1  0.50000000  0.00000000  0.89206000  1.0
  Co  Co16  1  0.50000000  0.50000000  0.03889000  1.0
  Co  Co17  1  0.50000000  0.50000000  0.89206000  1.0
  C  C18  1  0.00000000  0.00000000  0.13395000  1.0
