data_image0
_chemical_formula_structural       Li4Cu4Sn4Ge4CO
_chemical_formula_sum              "Li4 Cu4 Sn4 Ge4 C1 O1"
_cell_length_a       6.5741
_cell_length_b       6.5741
_cell_length_c       24.9306
_cell_angle_alpha    90
_cell_angle_beta     90
_cell_angle_gamma    90

_space_group_name_H-M_alt    "P 1"
_space_group_IT_number       1

loop_
  _space_group_symop_operation_xyz
  'x, y, z'

loop_
  _atom_site_type_symbol
  _atom_site_label
  _atom_site_symmetry_multiplicity
  _atom_site_fract_x
  _atom_site_fract_y
  _atom_site_fract_z
  _atom_site_occupancy
  Li  Li1       1.0  0.00000  0.50000  0.90111  1.0000
  Li  Li2       1.0  0.99612  0.97146  0.03726  1.0000
  Li  Li3       1.0  0.54338  0.51233  0.03926  1.0000
  Li  Li4       1.0  0.50000  0.00000  0.90111  1.0000
  Cu  Cu1       1.0  0.00000  0.00000  0.90111  1.0000
  Cu  Cu2       1.0  0.98794  0.51136  0.02267  1.0000
  Cu  Cu3       1.0  0.60292  0.91162  0.05646  1.0000
  Cu  Cu4       1.0  0.50000  0.50000  0.90111  1.0000
  Sn  Sn1       1.0  0.75000  0.25000  0.96704  1.0000
  Sn  Sn2       1.0  0.85121  0.66451  0.12303  1.0000
  Sn  Sn3       1.0  0.22908  0.28396  0.09852  1.0000
  Sn  Sn4       1.0  0.25000  0.75000  0.96704  1.0000
  Ge  Ge1       1.0  0.25000  0.25000  0.96704  1.0000
  Ge  Ge2       1.0  0.26271  0.73014  0.08768  1.0000
  Ge  Ge3       1.0  0.78464  0.24632  0.09090  1.0000
  Ge  Ge4       1.0  0.75000  0.75000  0.96704  1.0000
  C   C1        1.0  0.30710  0.20356  0.25640  1.0000
  O   O1        1.0  0.22818  0.28567  0.29071  1.0000
