# generated using pymatgen
data_Li4Cu4Sn4Ge4CO
_symmetry_space_group_name_H-M   P1
_cell_length_a   6.57410000
_cell_length_b   6.57410000
_cell_length_c   24.93060000
_cell_angle_alpha   90.00000000
_cell_angle_beta   90.00000000
_cell_angle_gamma   90.00000000
_symmetry_Int_Tables_number   1
_chemical_formula_structural   Li4Cu4Sn4Ge4CO
_chemical_formula_sum   'Li4 Cu4 Sn4 Ge4 C1 O1'
_cell_volume   1077.47038617
_cell_formula_units_Z   1
loop_
 _symmetry_equiv_pos_site_id
 _symmetry_equiv_pos_as_xyz
  1  'x, y, z'
loop_
 _atom_site_type_symbol
 _atom_site_label
 _atom_site_symmetry_multiplicity
 _atom_site_fract_x
 _atom_site_fract_y
 _atom_site_fract_z
 _atom_site_occupancy
  Li  Li0  1  0.00000000  0.50000000  0.90111000  1.0
  Li  Li1  1  0.50000000  0.00000000  0.90111000  1.0
  Li  Li2  1  0.54338000  0.51233000  0.03926000  1.0
  Li  Li3  1  0.99612000  0.97146000  0.03726000  1.0
  Cu  Cu4  1  0.00000000  0.00000000  0.90111000  1.0
  Cu  Cu5  1  0.50000000  0.50000000  0.90111000  1.0
  Cu  Cu6  1  0.60292000  0.91162000  0.05646000  1.0
  Cu  Cu7  1  0.98794000  0.51136000  0.02267000  1.0
  Sn  Sn8  1  0.22908000  0.28396000  0.09852000  1.0
  Sn  Sn9  1  0.25000000  0.75000000  0.96704000  1.0
  Sn  Sn10  1  0.75000000  0.25000000  0.96704000  1.0
  Sn  Sn11  1  0.85121000  0.66451000  0.12303000  1.0
  Ge  Ge12  1  0.25000000  0.25000000  0.96704000  1.0
  Ge  Ge13  1  0.26271000  0.73014000  0.08768000  1.0
  Ge  Ge14  1  0.75000000  0.75000000  0.96704000  1.0
  Ge  Ge15  1  0.78464000  0.24632000  0.09090000  1.0
  C  C16  1  0.30710000  0.20356000  0.25640000  1.0
  O  O17  1  0.22818000  0.28567000  0.29071000  1.0
