# generated using pymatgen
data_Li8Mg16Ga8C
_symmetry_space_group_name_H-M   'P 1'
_cell_length_a   9.46152000
_cell_length_b   6.69031000
_cell_length_c   27.09610000
_cell_angle_alpha   90.00000000
_cell_angle_beta   90.00000000
_cell_angle_gamma   90.00000000
_symmetry_Int_Tables_number   1
_chemical_formula_structural   Li8Mg16Ga8C
_chemical_formula_sum   'Li8 Mg16 Ga8 C1'
_cell_volume   1715.19672875
_cell_formula_units_Z   1
loop_
 _symmetry_equiv_pos_site_id
 _symmetry_equiv_pos_as_xyz
  1  'x, y, z'
loop_
 _atom_site_type_symbol
 _atom_site_label
 _atom_site_symmetry_multiplicity
 _atom_site_fract_x
 _atom_site_fract_y
 _atom_site_fract_z
 _atom_site_occupancy
  Li  Li0  1  0.75000000  0.00000000  0.13094000  1.0
  Li  Li1  1  0.00000000  0.50000000  0.04365000  1.0
  Li  Li2  1  0.50000000  0.50000000  0.04365000  1.0
  Li  Li3  1  0.25000000  0.00000000  0.13094000  1.0
  Li  Li4  1  0.25187000  0.00103000  0.95353000  1.0
  Li  Li5  1  0.50000000  0.45181000  0.86108000  1.0
  Li  Li6  1  0.00000000  0.53803000  0.84969000  1.0
  Li  Li7  1  0.74813000  0.00103000  0.95353000  1.0
  Mg  Mg8  1  0.75000000  0.25000000  0.04365000  1.0
  Mg  Mg9  1  0.25000000  0.75000000  0.04365000  1.0
  Mg  Mg10  1  0.75000000  0.75000000  0.04365000  1.0
  Mg  Mg11  1  0.25000000  0.25000000  0.04365000  1.0
  Mg  Mg12  1  0.50000000  0.75000000  0.13094000  1.0
  Mg  Mg13  1  0.00000000  0.25000000  0.13094000  1.0
  Mg  Mg14  1  0.50000000  0.25000000  0.13094000  1.0
  Mg  Mg15  1  0.00000000  0.75000000  0.13094000  1.0
  Mg  Mg16  1  0.22950000  0.25806000  0.86111000  1.0
  Mg  Mg17  1  0.72421000  0.74699000  0.86437000  1.0
  Mg  Mg18  1  0.27579000  0.74699000  0.86437000  1.0
  Mg  Mg19  1  0.77050000  0.25806000  0.86111000  1.0
  Mg  Mg20  1  0.00000000  0.74153000  0.95600000  1.0
  Mg  Mg21  1  0.50000000  0.25277000  0.95752000  1.0
  Mg  Mg22  1  0.00000000  0.26633000  0.94661000  1.0
  Mg  Mg23  1  0.50000000  0.75204000  0.95388000  1.0
  Ga  Ga24  1  0.50000000  0.00000000  0.04365000  1.0
  Ga  Ga25  1  0.75000000  0.50000000  0.13094000  1.0
  Ga  Ga26  1  0.00000000  0.00000000  0.04365000  1.0
  Ga  Ga27  1  0.25000000  0.50000000  0.13094000  1.0
  Ga  Ga28  1  0.00000000  0.94619000  0.86388000  1.0
  Ga  Ga29  1  0.25667000  0.50191000  0.95546000  1.0
  Ga  Ga30  1  0.50000000  0.02466000  0.86906000  1.0
  Ga  Ga31  1  0.74333000  0.50191000  0.95546000  1.0
  C  C32  1  0.00000000  0.23915000  0.86344000  1.0
