# generated using pymatgen
data_Li8Mg16Ga8C
_symmetry_space_group_name_H-M   Pm
_cell_length_a   6.69031000
_cell_length_b   9.46152000
_cell_length_c   27.09610000
_cell_angle_alpha   90.00000000
_cell_angle_beta   90.00000000
_cell_angle_gamma   90.00000000
_symmetry_Int_Tables_number   6
_chemical_formula_structural   Li8Mg16Ga8C
_chemical_formula_sum   'Li8 Mg16 Ga8 C1'
_cell_volume   1715.19672875
_cell_formula_units_Z   1
loop_
 _symmetry_equiv_pos_site_id
 _symmetry_equiv_pos_as_xyz
  1  'x, y, z'
  2  'x, -y, z'
loop_
 _atom_site_type_symbol
 _atom_site_label
 _atom_site_symmetry_multiplicity
 _atom_site_fract_x
 _atom_site_fract_y
 _atom_site_fract_z
 _atom_site_occupancy
  Li  Li0  2  0.00000000  0.25000000  0.86906000  1.0
  Li  Li1  2  0.00103000  0.25187000  0.04647000  1.0
  Li  Li2  1  0.45181000  0.50000000  0.13892000  1.0
  Li  Li3  1  0.50000000  0.00000000  0.95635000  1.0
  Li  Li4  1  0.50000000  0.50000000  0.95635000  1.0
  Li  Li5  1  0.53803000  0.00000000  0.15031000  1.0
  Mg  Mg6  2  0.25000000  0.25000000  0.95635000  1.0
  Mg  Mg7  2  0.25806000  0.22950000  0.13889000  1.0
  Mg  Mg8  2  0.74699000  0.27579000  0.13563000  1.0
  Mg  Mg9  2  0.75000000  0.25000000  0.95635000  1.0
  Mg  Mg10  1  0.25000000  0.00000000  0.86906000  1.0
  Mg  Mg11  1  0.25000000  0.50000000  0.86906000  1.0
  Mg  Mg12  1  0.25277000  0.50000000  0.04248000  1.0
  Mg  Mg13  1  0.26633000  0.00000000  0.05339000  1.0
  Mg  Mg14  1  0.74153000  0.00000000  0.04400000  1.0
  Mg  Mg15  1  0.75000000  0.00000000  0.86906000  1.0
  Mg  Mg16  1  0.75000000  0.50000000  0.86906000  1.0
  Mg  Mg17  1  0.75204000  0.50000000  0.04612000  1.0
  Ga  Ga18  2  0.50000000  0.25000000  0.86906000  1.0
  Ga  Ga19  2  0.50191000  0.25667000  0.04454000  1.0
  Ga  Ga20  1  0.00000000  0.00000000  0.95635000  1.0
  Ga  Ga21  1  0.00000000  0.50000000  0.95635000  1.0
  Ga  Ga22  1  0.02466000  0.50000000  0.13094000  1.0
  Ga  Ga23  1  0.94619000  0.00000000  0.13612000  1.0
  C  C24  1  0.23915000  0.00000000  0.13656000  1.0
