# generated using pymatgen
data_Ta16Ru16CO
_symmetry_space_group_name_H-M   'P 1'
_cell_length_a   6.35210000
_cell_length_b   8.98322000
_cell_length_c   26.73740000
_cell_angle_alpha   90.00000000
_cell_angle_beta   90.00000000
_cell_angle_gamma   90.00000000
_symmetry_Int_Tables_number   1
_chemical_formula_structural   Ta16Ru16CO
_chemical_formula_sum   'Ta16 Ru16 C1 O1'
_cell_volume   1525.69785451
_cell_formula_units_Z   1
loop_
 _symmetry_equiv_pos_site_id
 _symmetry_equiv_pos_as_xyz
  1  'x, y, z'
loop_
 _atom_site_type_symbol
 _atom_site_label
 _atom_site_symmetry_multiplicity
 _atom_site_fract_x
 _atom_site_fract_y
 _atom_site_fract_z
 _atom_site_occupancy
  Ta  Ta0  1  0.00000000  0.25000000  0.87401000  1.0
  Ta  Ta1  1  0.00000000  0.00000000  0.95800000  1.0
  Ta  Ta2  1  0.00000000  0.24861000  0.04383000  1.0
  Ta  Ta3  1  0.00000000  0.00000000  0.13090000  1.0
  Ta  Ta4  1  0.00000000  0.75000000  0.87401000  1.0
  Ta  Ta5  1  0.00000000  0.50000000  0.95800000  1.0
  Ta  Ta6  1  0.00000000  0.75139000  0.04383000  1.0
  Ta  Ta7  1  0.00000000  0.50000000  0.12774000  1.0
  Ta  Ta8  1  0.50000000  0.25000000  0.87401000  1.0
  Ta  Ta9  1  0.50000000  0.00000000  0.95800000  1.0
  Ta  Ta10  1  0.50000000  0.25057000  0.04378000  1.0
  Ta  Ta11  1  0.50000000  0.00000000  0.12613000  1.0
  Ta  Ta12  1  0.50000000  0.75000000  0.87401000  1.0
  Ta  Ta13  1  0.50000000  0.50000000  0.95800000  1.0
  Ta  Ta14  1  0.50000000  0.74943000  0.04378000  1.0
  Ta  Ta15  1  0.50000000  0.50000000  0.12777000  1.0
  Ru  Ru16  1  0.75000000  0.00000000  0.87401000  1.0
  Ru  Ru17  1  0.75000000  0.25000000  0.95800000  1.0
  Ru  Ru18  1  0.74839000  0.00000000  0.04209000  1.0
  Ru  Ru19  1  0.75065000  0.25258000  0.12000000  1.0
  Ru  Ru20  1  0.75000000  0.50000000  0.87401000  1.0
  Ru  Ru21  1  0.75000000  0.75000000  0.95800000  1.0
  Ru  Ru22  1  0.75087000  0.50000000  0.04291000  1.0
  Ru  Ru23  1  0.75065000  0.74742000  0.12000000  1.0
  Ru  Ru24  1  0.25000000  0.00000000  0.87401000  1.0
  Ru  Ru25  1  0.25000000  0.25000000  0.95800000  1.0
  Ru  Ru26  1  0.25161000  0.00000000  0.04209000  1.0
  Ru  Ru27  1  0.24935000  0.25258000  0.12000000  1.0
  Ru  Ru28  1  0.25000000  0.50000000  0.87401000  1.0
  Ru  Ru29  1  0.25000000  0.75000000  0.95800000  1.0
  Ru  Ru30  1  0.24913000  0.50000000  0.04291000  1.0
  Ru  Ru31  1  0.24935000  0.74742000  0.12000000  1.0
  C  C32  1  0.00000000  0.00000000  0.21047000  1.0
  O  O33  1  0.00000000  0.00000000  0.25368000  1.0
