# generated using pymatgen
data_Sc16Rh16CO
_symmetry_space_group_name_H-M   Pmm2
_cell_length_a   6.47981000
_cell_length_b   9.16384000
_cell_length_c   26.87290000
_cell_angle_alpha   90.00000000
_cell_angle_beta   90.00000000
_cell_angle_gamma   90.00000000
_symmetry_Int_Tables_number   25
_chemical_formula_structural   Sc16Rh16CO
_chemical_formula_sum   'Sc16 Rh16 C1 O1'
_cell_volume   1595.71124526
_cell_formula_units_Z   1
loop_
 _symmetry_equiv_pos_site_id
 _symmetry_equiv_pos_as_xyz
  1  'x, y, z'
  2  '-x, -y, z'
  3  '-x, y, z'
  4  'x, -y, z'
loop_
 _atom_site_type_symbol
 _atom_site_label
 _atom_site_symmetry_multiplicity
 _atom_site_fract_x
 _atom_site_fract_y
 _atom_site_fract_z
 _atom_site_occupancy
  Sc  Sc0  4  0.25000000  0.25000000  0.95737000  1.0
  Sc  Sc1  4  0.25171000  0.25286000  0.13047000  1.0
  Sc  Sc2  2  0.24930000  0.50000000  0.04382000  1.0
  Sc  Sc3  2  0.25000000  0.00000000  0.87212000  1.0
  Sc  Sc4  2  0.25000000  0.50000000  0.87212000  1.0
  Sc  Sc5  2  0.25385000  0.00000000  0.04289000  1.0
  Rh  Rh6  2  0.00000000  0.24465000  0.04517000  1.0
  Rh  Rh7  2  0.00000000  0.25000000  0.87212000  1.0
  Rh  Rh8  2  0.50000000  0.25000000  0.87212000  1.0
  Rh  Rh9  2  0.50000000  0.25082000  0.04442000  1.0
  Rh  Rh10  1  0.00000000  0.00000000  0.12965000  1.0
  Rh  Rh11  1  0.00000000  0.00000000  0.95737000  1.0
  Rh  Rh12  1  0.00000000  0.50000000  0.12293000  1.0
  Rh  Rh13  1  0.00000000  0.50000000  0.95737000  1.0
  Rh  Rh14  1  0.50000000  0.00000000  0.12207000  1.0
  Rh  Rh15  1  0.50000000  0.00000000  0.95737000  1.0
  Rh  Rh16  1  0.50000000  0.50000000  0.12329000  1.0
  Rh  Rh17  1  0.50000000  0.50000000  0.95737000  1.0
  C  C18  1  0.00000000  0.00000000  0.19919000  1.0
  O  O19  1  0.00000000  0.00000000  0.24265000  1.0
