# generated using pymatgen
data_Y8Sc8Ga8Pd8CO
_symmetry_space_group_name_H-M   Pmm2
_cell_length_a   9.48206000
_cell_length_b   9.85606000
_cell_length_c   25.30050000
_cell_angle_alpha   90.00000000
_cell_angle_beta   90.00000000
_cell_angle_gamma   90.00000000
_symmetry_Int_Tables_number   25
_chemical_formula_structural   Y8Sc8Ga8Pd8CO
_chemical_formula_sum   'Y8 Sc8 Ga8 Pd8 C1 O1'
_cell_volume   2364.47726065
_cell_formula_units_Z   1
loop_
 _symmetry_equiv_pos_site_id
 _symmetry_equiv_pos_as_xyz
  1  'x, y, z'
  2  '-x, -y, z'
  3  '-x, y, z'
  4  'x, -y, z'
loop_
 _atom_site_type_symbol
 _atom_site_label
 _atom_site_symmetry_multiplicity
 _atom_site_fract_x
 _atom_site_fract_y
 _atom_site_fract_z
 _atom_site_occupancy
  Y  Y0  1  0.00000000  0.00000000  0.11378000  1.0
  Y  Y1  1  0.00000000  0.00000000  0.96508000  1.0
  Y  Y2  1  0.00000000  0.50000000  0.11137000  1.0
  Y  Y3  1  0.00000000  0.50000000  0.96508000  1.0
  Y  Y4  1  0.50000000  0.00000000  0.10884000  1.0
  Y  Y5  1  0.50000000  0.00000000  0.96508000  1.0
  Y  Y6  1  0.50000000  0.50000000  0.11362000  1.0
  Y  Y7  1  0.50000000  0.50000000  0.96508000  1.0
  Sc  Sc8  4  0.24999000  0.25000000  0.96508000  1.0
  Sc  Sc9  4  0.25360000  0.24856000  0.09524000  1.0
  Ga  Ga10  2  0.00000000  0.24818000  0.03675000  1.0
  Ga  Ga11  2  0.00000000  0.25000000  0.89525000  1.0
  Ga  Ga12  2  0.50000000  0.25000000  0.89525000  1.0
  Ga  Ga13  2  0.50000000  0.25485000  0.03476000  1.0
  Pd  Pd14  2  0.23626000  0.00000000  0.04572000  1.0
  Pd  Pd15  2  0.24999000  0.00000000  0.89525000  1.0
  Pd  Pd16  2  0.24999000  0.50000000  0.89525000  1.0
  Pd  Pd17  2  0.25251000  0.50000000  0.04881000  1.0
  C  C18  1  0.50000000  0.00000000  0.20584000  1.0
  O  O19  1  0.50000000  0.00000000  0.25152000  1.0
