# generated using pymatgen
data_MgIn3
_symmetry_space_group_name_H-M   'P 1'
_cell_length_a   6.66280000
_cell_length_b   9.42262000
_cell_length_c   24.99710000
_cell_angle_alpha   90.00000000
_cell_angle_beta   90.00000000
_cell_angle_gamma   90.00000000
_symmetry_Int_Tables_number   1
_chemical_formula_structural   MgIn3
_chemical_formula_sum   'Mg4 In12'
_cell_volume   1569.34374841
_cell_formula_units_Z   4
loop_
 _symmetry_equiv_pos_site_id
 _symmetry_equiv_pos_as_xyz
  1  'x, y, z'
loop_
 _atom_site_type_symbol
 _atom_site_label
 _atom_site_symmetry_multiplicity
 _atom_site_fract_x
 _atom_site_fract_y
 _atom_site_fract_z
 _atom_site_occupancy
  Mg  Mg0  1  0.00007000  0.99981000  0.90726000  1.0
  Mg  Mg1  1  0.50000000  0.00000000  0.03332000  1.0
  Mg  Mg2  1  0.99954000  0.50023000  0.90742000  1.0
  Mg  Mg3  1  0.50000000  0.50000000  0.03332000  1.0
  In  In4  1  0.50004000  0.99971000  0.88925000  1.0
  In  In5  1  0.25802000  0.74974000  0.96141000  1.0
  In  In6  1  0.74204000  0.74977000  0.96142000  1.0
  In  In7  1  0.00000000  0.00000000  0.03332000  1.0
  In  In8  1  0.75000000  0.75000000  0.09995000  1.0
  In  In9  1  0.25000000  0.75000000  0.09995000  1.0
  In  In10  1  0.49996000  0.50027000  0.88920000  1.0
  In  In11  1  0.25810000  0.25023000  0.96132000  1.0
  In  In12  1  0.74195000  0.25020000  0.96133000  1.0
  In  In13  1  0.00000000  0.50000000  0.03332000  1.0
  In  In14  1  0.75000000  0.25000000  0.09995000  1.0
  In  In15  1  0.25000000  0.25000000  0.09995000  1.0
