# generated using pymatgen
data_Li8Mg8In8Pd8C
_symmetry_space_group_name_H-M   Pm
_cell_length_a   6.52273000
_cell_length_b   9.22454000
_cell_length_c   26.91840000
_cell_angle_alpha   90.00000000
_cell_angle_beta   90.00000000
_cell_angle_gamma   90.00000000
_symmetry_Int_Tables_number   6
_chemical_formula_structural   Li8Mg8In8Pd8C
_chemical_formula_sum   'Li8 Mg8 In8 Pd8 C1'
_cell_volume   1619.65815705
_cell_formula_units_Z   1
loop_
 _symmetry_equiv_pos_site_id
 _symmetry_equiv_pos_as_xyz
  1  'x, y, z'
  2  'x, -y, z'
loop_
 _atom_site_type_symbol
 _atom_site_label
 _atom_site_symmetry_multiplicity
 _atom_site_fract_x
 _atom_site_fract_y
 _atom_site_fract_z
 _atom_site_occupancy
  Li  Li0  2  0.25000000  0.25000000  0.95716000  1.0
  Li  Li1  2  0.27357000  0.26537000  0.13642000  1.0
  Li  Li2  1  0.73287000  0.00000000  0.05460000  1.0
  Li  Li3  1  0.74538000  0.50000000  0.04174000  1.0
  Li  Li4  1  0.75000000  0.00000000  0.87149000  1.0
  Li  Li5  1  0.75000000  0.50000000  0.87149000  1.0
  Mg  Mg6  2  0.49226000  0.25208000  0.04261000  1.0
  Mg  Mg7  2  0.50000000  0.25000000  0.87149000  1.0
  Mg  Mg8  1  -0.00000000  0.50000000  0.95716000  1.0
  Mg  Mg9  1  -0.00000000  0.00000000  0.95716000  1.0
  Mg  Mg10  1  0.04106000  0.00000000  0.12947000  1.0
  Mg  Mg11  1  0.97193000  0.50000000  0.12839000  1.0
  In  In12  2  0.00000000  0.25000000  0.87149000  1.0
  In  In13  2  0.00010000  0.24891000  0.04560000  1.0
  In  In14  1  0.43333000  0.00000000  0.17470000  1.0
  In  In15  1  0.50000000  0.00000000  0.95716000  1.0
  In  In16  1  0.50000000  0.50000000  0.95716000  1.0
  In  In17  1  0.52509000  0.50000000  0.13458000  1.0
  Pd  Pd18  2  0.72151000  0.22300000  0.12448000  1.0
  Pd  Pd19  2  0.75000000  0.25000000  0.95716000  1.0
  Pd  Pd20  1  0.24860000  0.50000000  0.04511000  1.0
  Pd  Pd21  1  0.25000000  0.00000000  0.87149000  1.0
  Pd  Pd22  1  0.25000000  0.50000000  0.87149000  1.0
  Pd  Pd23  1  0.25040000  0.00000000  0.04012000  1.0
  C  C24  1  0.72173000  0.00000000  0.13694000  1.0
