# generated using pymatgen
data_Li8Y8Sn8Pd8C
_symmetry_space_group_name_H-M   Pm
_cell_length_a   6.77715000
_cell_length_b   9.58434000
_cell_length_c   27.18830000
_cell_angle_alpha   90.00000000
_cell_angle_beta   90.00000000
_cell_angle_gamma   90.00000000
_symmetry_Int_Tables_number   6
_chemical_formula_structural   Li8Y8Sn8Pd8C
_chemical_formula_sum   'Li8 Y8 Sn8 Pd8 C1'
_cell_volume   1766.00269964
_cell_formula_units_Z   1
loop_
 _symmetry_equiv_pos_site_id
 _symmetry_equiv_pos_as_xyz
  1  'x, y, z'
  2  'x, -y, z'
loop_
 _atom_site_type_symbol
 _atom_site_label
 _atom_site_symmetry_multiplicity
 _atom_site_fract_x
 _atom_site_fract_y
 _atom_site_fract_z
 _atom_site_occupancy
  Li  Li0  2  0.50000000  0.25000000  0.95594000  1.0
  Li  Li1  2  0.64617000  0.21301000  0.18917000  1.0
  Li  Li2  1  0.00000000  0.00000000  0.86781000  1.0
  Li  Li3  1  0.00000000  0.50000000  0.86781000  1.0
  Li  Li4  1  0.00484000  0.50000000  0.04927000  1.0
  Li  Li5  1  0.01816000  0.00000000  0.04730000  1.0
  Y  Y6  2  0.74219000  0.25154000  0.04781000  1.0
  Y  Y7  2  0.75000000  0.25000000  0.86781000  1.0
  Y  Y8  1  0.25000000  0.00000000  0.95594000  1.0
  Y  Y9  1  0.25000000  0.50000000  0.95594000  1.0
  Y  Y10  1  0.28162000  0.50000000  0.13263000  1.0
  Y  Y11  1  0.29551000  0.00000000  0.13472000  1.0
  Sn  Sn12  2  0.25000000  0.25000000  0.86781000  1.0
  Sn  Sn13  2  0.25650000  0.25050000  0.04460000  1.0
  Sn  Sn14  1  0.75000000  0.00000000  0.95594000  1.0
  Sn  Sn15  1  0.75000000  0.50000000  0.95594000  1.0
  Sn  Sn16  1  0.75512000  0.50000000  0.13859000  1.0
  Sn  Sn17  1  0.79020000  0.00000000  0.13049000  1.0
  Pd  Pd18  2  -0.00000000  0.25000000  0.95594000  1.0
  Pd  Pd19  2  0.00615000  0.26084000  0.12568000  1.0
  Pd  Pd20  1  0.49767000  0.50000000  0.04322000  1.0
  Pd  Pd21  1  0.49961000  0.00000000  0.04013000  1.0
  Pd  Pd22  1  0.50000000  0.00000000  0.86781000  1.0
  Pd  Pd23  1  0.50000000  0.50000000  0.86781000  1.0
  C  C24  1  0.55446000  0.00000000  0.18320000  1.0
