# generated using pymatgen
data_Li8In8Ge8Pd8CO
_symmetry_space_group_name_H-M   'P 1'
_cell_length_a   9.21874000
_cell_length_b   6.51863000
_cell_length_c   26.91410000
_cell_angle_alpha   90.00000000
_cell_angle_beta   90.00000000
_cell_angle_gamma   90.00000000
_symmetry_Int_Tables_number   1
_chemical_formula_structural   Li8In8Ge8Pd8CO
_chemical_formula_sum   'Li8 In8 Ge8 Pd8 C1 O1'
_cell_volume   1617.36395202
_cell_formula_units_Z   1
loop_
 _symmetry_equiv_pos_site_id
 _symmetry_equiv_pos_as_xyz
  1  'x, y, z'
loop_
 _atom_site_type_symbol
 _atom_site_label
 _atom_site_symmetry_multiplicity
 _atom_site_fract_x
 _atom_site_fract_y
 _atom_site_fract_z
 _atom_site_occupancy
  Li  Li0  1  0.75000000  0.75000000  0.04282000  1.0
  Li  Li1  1  0.25000000  0.75000000  0.04282000  1.0
  Li  Li2  1  0.00000000  0.25000000  0.12845000  1.0
  Li  Li3  1  0.50000000  0.25000000  0.12845000  1.0
  Li  Li4  1  0.25808000  0.68842000  0.85065000  1.0
  Li  Li5  1  0.74192000  0.68842000  0.85065000  1.0
  Li  Li6  1  0.50000000  0.20272000  0.95120000  1.0
  Li  Li7  1  0.00000000  0.23249000  0.95514000  1.0
  In  In8  1  0.00000000  0.00000000  0.04282000  1.0
  In  In9  1  0.50000000  0.00000000  0.04282000  1.0
  In  In10  1  0.25000000  0.50000000  0.12845000  1.0
  In  In11  1  0.75000000  0.50000000  0.12845000  1.0
  In  In12  1  0.50000000  0.00368000  0.85081000  1.0
  In  In13  1  0.00000000  0.97348000  0.86042000  1.0
  In  In14  1  0.74138000  0.50102000  0.95648000  1.0
  In  In15  1  0.25862000  0.50102000  0.95648000  1.0
  Ge  Ge16  1  0.75000000  0.00000000  0.12845000  1.0
  Ge  Ge17  1  0.25000000  0.00000000  0.12845000  1.0
  Ge  Ge18  1  0.50000000  0.50000000  0.04282000  1.0
  Ge  Ge19  1  0.00000000  0.50000000  0.04282000  1.0
  Ge  Ge20  1  0.24510000  0.97032000  0.94936000  1.0
  Ge  Ge21  1  0.75490000  0.97032000  0.94936000  1.0
  Ge  Ge22  1  0.00000000  0.49110000  0.87430000  1.0
  Ge  Ge23  1  0.50000000  0.47591000  0.87437000  1.0
  Pd  Pd24  1  0.75000000  0.25000000  0.04282000  1.0
  Pd  Pd25  1  0.25000000  0.25000000  0.04282000  1.0
  Pd  Pd26  1  0.00000000  0.75000000  0.12845000  1.0
  Pd  Pd27  1  0.50000000  0.75000000  0.12845000  1.0
  Pd  Pd28  1  0.24393000  0.23892000  0.87859000  1.0
  Pd  Pd29  1  0.75607000  0.23892000  0.87859000  1.0
  Pd  Pd30  1  0.50000000  0.76962000  0.95707000  1.0
  Pd  Pd31  1  0.00000000  0.73647000  0.96225000  1.0
  C  C32  1  0.00000000  0.91485000  0.72052000  1.0
  O  O33  1  0.00000000  0.04553000  0.69261000  1.0
