data_image0
_chemical_formula_structural       Li16Ag8Sb8
_chemical_formula_sum              "Li16 Ag8 Sb8"
_cell_length_a       6.69979
_cell_length_b       9.47494
_cell_length_c       27.1062
_cell_angle_alpha    90
_cell_angle_beta     90
_cell_angle_gamma    90

_space_group_name_H-M_alt    "P 1"
_space_group_IT_number       1

loop_
  _space_group_symop_operation_xyz
  'x, y, z'

loop_
  _atom_site_type_symbol
  _atom_site_label
  _atom_site_symmetry_multiplicity
  _atom_site_fract_x
  _atom_site_fract_y
  _atom_site_fract_z
  _atom_site_occupancy
  Li  Li1       1.0  0.00000  0.75000  0.95631  1.0000
  Li  Li2       1.0  0.50000  0.00000  0.86892  1.0000
  Li  Li3       1.0  0.00000  0.25000  0.95631  1.0000
  Li  Li4       1.0  0.50000  0.50000  0.86892  1.0000
  Li  Li5       1.0  0.25000  0.00000  0.95631  1.0000
  Li  Li6       1.0  0.25000  0.50000  0.95631  1.0000
  Li  Li7       1.0  0.75000  0.75000  0.86892  1.0000
  Li  Li8       1.0  0.75000  0.25000  0.86892  1.0000
  Li  Li9       1.0  0.98036  0.25000  0.12473  1.0000
  Li  Li10      1.0  0.48738  0.50000  0.03955  1.0000
  Li  Li11      1.0  0.98036  0.75000  0.12473  1.0000
  Li  Li12      1.0  0.48738  0.00000  0.03955  1.0000
  Li  Li13      1.0  0.28828  0.50000  0.13281  1.0000
  Li  Li14      1.0  0.28830  0.00000  0.13281  1.0000
  Li  Li15      1.0  0.73501  0.25000  0.04483  1.0000
  Li  Li16      1.0  0.73500  0.75000  0.04483  1.0000
  Ag  Ag1       1.0  0.25000  0.25000  0.86892  1.0000
  Ag  Ag2       1.0  0.25000  0.75000  0.86892  1.0000
  Ag  Ag3       1.0  0.75000  0.50000  0.95631  1.0000
  Ag  Ag4       1.0  0.75000  0.00000  0.95631  1.0000
  Ag  Ag5       1.0  0.26452  0.75000  0.04660  1.0000
  Ag  Ag6       1.0  0.26452  0.25000  0.04660  1.0000
  Ag  Ag7       1.0  0.71931  0.00000  0.12248  1.0000
  Ag  Ag8       1.0  0.71930  0.50000  0.12248  1.0000
  Sb  Sb1       1.0  0.00000  0.00000  0.86892  1.0000
  Sb  Sb2       1.0  0.50000  0.25000  0.95631  1.0000
  Sb  Sb3       1.0  0.50000  0.75000  0.95631  1.0000
  Sb  Sb4       1.0  0.00000  0.50000  0.86892  1.0000
  Sb  Sb5       1.0  0.00859  0.50000  0.04686  1.0000
  Sb  Sb6       1.0  0.49952  0.75000  0.13767  1.0000
  Sb  Sb7       1.0  0.49952  0.25000  0.13767  1.0000
  Sb  Sb8       1.0  0.00859  0.00000  0.04686  1.0000
