# generated using pymatgen
data_Li8Al4Pd4CO
_symmetry_space_group_name_H-M   P2
_cell_length_a   6.13337000
_cell_length_b   24.60000000
_cell_length_c   6.13337000
_cell_angle_alpha   90.00000000
_cell_angle_beta   90.00000000
_cell_angle_gamma   90.00000000
_symmetry_Int_Tables_number   3
_chemical_formula_structural   Li8Al4Pd4CO
_chemical_formula_sum   'Li8 Al4 Pd4 C1 O1'
_cell_volume   925.40839790
_cell_formula_units_Z   1
loop_
 _symmetry_equiv_pos_site_id
 _symmetry_equiv_pos_as_xyz
  1  'x, y, z'
  2  '-x, y, -z'
loop_
 _atom_site_type_symbol
 _atom_site_label
 _atom_site_symmetry_multiplicity
 _atom_site_fract_x
 _atom_site_fract_y
 _atom_site_fract_z
 _atom_site_occupancy
  Li  Li0  2  0.25000000  0.90650000  0.75000000  1.0
  Li  Li1  2  0.25028000  0.02799000  0.24944000  1.0
  Li  Li2  1  0.00000000  0.10171000  0.50000000  1.0
  Li  Li3  1  0.00000000  0.96883000  0.00000000  1.0
  Li  Li4  1  0.50000000  0.10412000  0.00000000  1.0
  Li  Li5  1  0.50000000  0.96883000  0.50000000  1.0
  Al  Al6  1  0.00000000  0.08613000  0.00000000  1.0
  Al  Al7  1  0.00000000  0.96883000  0.50000000  1.0
  Al  Al8  1  0.50000000  0.08588000  0.50000000  1.0
  Al  Al9  1  0.50000000  0.96883000  0.00000000  1.0
  Pd  Pd10  2  0.24954000  0.03213000  0.74981000  1.0
  Pd  Pd11  2  0.25000000  0.90650000  0.25000000  1.0
  C  C12  1  0.50000000  0.18879000  0.00000000  1.0
  O  O13  1  0.50000000  0.23525000  0.00000000  1.0
