# generated using pymatgen
data_InPd3
_symmetry_space_group_name_H-M   Pmm2
_cell_length_a   5.77288000
_cell_length_b   8.16408000
_cell_length_c   24.32970000
_cell_angle_alpha   90.00000000
_cell_angle_beta   90.00000000
_cell_angle_gamma   90.00000000
_symmetry_Int_Tables_number   25
_chemical_formula_structural   InPd3
_chemical_formula_sum   'In4 Pd12'
_cell_volume   1146.66494440
_cell_formula_units_Z   4
loop_
 _symmetry_equiv_pos_site_id
 _symmetry_equiv_pos_as_xyz
  1  'x, y, z'
  2  '-x, -y, z'
  3  '-x, y, z'
  4  'x, -y, z'
loop_
 _atom_site_type_symbol
 _atom_site_label
 _atom_site_symmetry_multiplicity
 _atom_site_fract_x
 _atom_site_fract_y
 _atom_site_fract_z
 _atom_site_occupancy
  In  In0  2  0.00000000  0.25000000  0.08898000  1.0
  In  In1  2  0.50000000  0.24993000  0.96788000  1.0
  Pd  Pd2  2  0.00000000  0.25009000  0.97038000  1.0
  Pd  Pd3  2  0.25000000  0.00000000  0.02966000  1.0
  Pd  Pd4  2  0.25000000  0.50000000  0.02966000  1.0
  Pd  Pd5  2  0.25019000  0.50000000  0.91504000  1.0
  Pd  Pd6  2  0.25038000  0.00000000  0.91504000  1.0
  Pd  Pd7  2  0.50000000  0.25000000  0.08898000  1.0
