# generated using pymatgen
data_Li8Cu8Sn8Pd8C
_symmetry_space_group_name_H-M   'P 1'
_cell_length_a   8.95968000
_cell_length_b   6.33545000
_cell_length_c   26.71980000
_cell_angle_alpha   90.00000000
_cell_angle_beta   90.00000000
_cell_angle_gamma   90.00000000
_symmetry_Int_Tables_number   1
_chemical_formula_structural   Li8Cu8Sn8Pd8C
_chemical_formula_sum   'Li8 Cu8 Sn8 Pd8 C1'
_cell_volume   1516.71216369
_cell_formula_units_Z   1
loop_
 _symmetry_equiv_pos_site_id
 _symmetry_equiv_pos_as_xyz
  1  'x, y, z'
loop_
 _atom_site_type_symbol
 _atom_site_label
 _atom_site_symmetry_multiplicity
 _atom_site_fract_x
 _atom_site_fract_y
 _atom_site_fract_z
 _atom_site_occupancy
  Li  Li0  1  0.75001000  0.25000000  0.04192000  1.0
  Li  Li1  1  0.24999000  0.25000000  0.04192000  1.0
  Li  Li2  1  0.00000000  0.75000000  0.12575000  1.0
  Li  Li3  1  0.50000000  0.75000000  0.12575000  1.0
  Li  Li4  1  0.24212000  0.24739000  0.86548000  1.0
  Li  Li5  1  0.75788000  0.24739000  0.86548000  1.0
  Li  Li6  1  0.50000000  0.75159000  0.96195000  1.0
  Li  Li7  1  0.00000000  0.75358000  0.96183000  1.0
  Cu  Cu8  1  0.75001000  0.00000000  0.12575000  1.0
  Cu  Cu9  1  0.24999000  0.00000000  0.12575000  1.0
  Cu  Cu10  1  0.50000000  0.50000000  0.04192000  1.0
  Cu  Cu11  1  0.00000000  0.50000000  0.04192000  1.0
  Cu  Cu12  1  0.25190000  0.98185000  0.95067000  1.0
  Cu  Cu13  1  0.74810000  0.98185000  0.95067000  1.0
  Cu  Cu14  1  0.00000000  0.54286000  0.87792000  1.0
  Cu  Cu15  1  0.50000000  0.51726000  0.88213000  1.0
  Sn  Sn16  1  0.75001000  0.75000000  0.04192000  1.0
  Sn  Sn17  1  0.24999000  0.75000000  0.04192000  1.0
  Sn  Sn18  1  0.00000000  0.25000000  0.12575000  1.0
  Sn  Sn19  1  0.50000000  0.25000000  0.12575000  1.0
  Sn  Sn20  1  0.25888000  0.74496000  0.85979000  1.0
  Sn  Sn21  1  0.74112000  0.74496000  0.85979000  1.0
  Sn  Sn22  1  0.50000000  0.25263000  0.95928000  1.0
  Sn  Sn23  1  0.00000000  0.25042000  0.95978000  1.0
  Pd  Pd24  1  0.00000000  1.00000000  0.04192000  1.0
  Pd  Pd25  1  0.50000000  1.00000000  0.04192000  1.0
  Pd  Pd26  1  0.25001000  0.50000000  0.12575000  1.0
  Pd  Pd27  1  0.74999000  0.50000000  0.12575000  1.0
  Pd  Pd28  1  0.50000000  0.98894000  0.88210000  1.0
  Pd  Pd29  1  0.00000000  0.95168000  0.87477000  1.0
  Pd  Pd30  1  0.74940000  0.51416000  0.95196000  1.0
  Pd  Pd31  1  0.25060000  0.51416000  0.95196000  1.0
  C  C32  1  0.00000000  0.25568000  0.87180000  1.0
