# generated using pymatgen
data_Li8Y8Ga8Pd8C
_symmetry_space_group_name_H-M   'P 1'
_cell_length_a   9.36046000
_cell_length_b   6.61884000
_cell_length_c   27.02030000
_cell_angle_alpha   90.00000000
_cell_angle_beta   90.00000000
_cell_angle_gamma   90.00000000
_symmetry_Int_Tables_number   1
_chemical_formula_structural   Li8Y8Ga8Pd8C
_chemical_formula_sum   'Li8 Y8 Ga8 Pd8 C1'
_cell_volume   1674.05314515
_cell_formula_units_Z   1
loop_
 _symmetry_equiv_pos_site_id
 _symmetry_equiv_pos_as_xyz
  1  'x, y, z'
loop_
 _atom_site_type_symbol
 _atom_site_label
 _atom_site_symmetry_multiplicity
 _atom_site_fract_x
 _atom_site_fract_y
 _atom_site_fract_z
 _atom_site_occupancy
  Li  Li0  1  0.00000000  0.75000000  0.04330000  1.0
  Li  Li1  1  0.50000000  0.75000000  0.04330000  1.0
  Li  Li2  1  0.25000000  0.25000000  0.12991000  1.0
  Li  Li3  1  0.75000000  0.25000000  0.12991000  1.0
  Li  Li4  1  0.50000000  0.52247000  0.81952000  1.0
  Li  Li5  1  0.00000000  0.58929000  0.82603000  1.0
  Li  Li6  1  0.76135000  0.23554000  0.95297000  1.0
  Li  Li7  1  0.23865000  0.23554000  0.95297000  1.0
  Y  Y8  1  0.25000000  0.00000000  0.04330000  1.0
  Y  Y9  1  0.75000000  0.00000000  0.04330000  1.0
  Y  Y10  1  0.50000000  0.50000000  0.12991000  1.0
  Y  Y11  1  0.00000000  0.50000000  0.12991000  1.0
  Y  Y12  1  0.75927000  0.90685000  0.86947000  1.0
  Y  Y13  1  0.24073000  0.90685000  0.86947000  1.0
  Y  Y14  1  0.00000000  0.55003000  0.93468000  1.0
  Y  Y15  1  0.50000000  0.49890000  0.94553000  1.0
  Ga  Ga16  1  0.00000000  0.00000000  0.12991000  1.0
  Ga  Ga17  1  0.50000000  0.00000000  0.12991000  1.0
  Ga  Ga18  1  0.75000000  0.50000000  0.04330000  1.0
  Ga  Ga19  1  0.25000000  0.50000000  0.04330000  1.0
  Ga  Ga20  1  0.50000000  0.99188000  0.95982000  1.0
  Ga  Ga21  1  0.00000000  0.99240000  0.95478000  1.0
  Ga  Ga22  1  0.25116000  0.40332000  0.86371000  1.0
  Ga  Ga23  1  0.74884000  0.40332000  0.86371000  1.0
  Pd  Pd24  1  0.00000000  0.25000000  0.04330000  1.0
  Pd  Pd25  1  0.50000000  0.25000000  0.04330000  1.0
  Pd  Pd26  1  0.25000000  0.75000000  0.12991000  1.0
  Pd  Pd27  1  0.75000000  0.75000000  0.12991000  1.0
  Pd  Pd28  1  0.50000000  0.19302000  0.87661000  1.0
  Pd  Pd29  1  0.00000000  0.20866000  0.87207000  1.0
  Pd  Pd30  1  0.73898000  0.73899000  0.96631000  1.0
  Pd  Pd31  1  0.26102000  0.73899000  0.96631000  1.0
  C  C32  1  0.00000000  0.83922000  0.87889000  1.0
