data_image0
_chemical_formula_structural       Mn4Fe8Si4CO
_chemical_formula_sum              "Mn4 Fe8 Si4 C1 O1"
_cell_length_a       5.59397
_cell_length_b       5.59397
_cell_length_c       24.1955
_cell_angle_alpha    90
_cell_angle_beta     90
_cell_angle_gamma    90

_space_group_name_H-M_alt    "P 1"
_space_group_IT_number       1

loop_
  _space_group_symop_operation_xyz
  'x, y, z'

loop_
  _atom_site_type_symbol
  _atom_site_label
  _atom_site_symmetry_multiplicity
  _atom_site_fract_x
  _atom_site_fract_y
  _atom_site_fract_z
  _atom_site_occupancy
  Mn  Mn1       1.0  0.00000  0.00000  0.08670  1.0000
  Mn  Mn2       1.0  0.50000  0.50000  0.08670  1.0000
  Mn  Mn3       1.0  0.50000  0.00000  0.97110  1.0000
  Mn  Mn4       1.0  0.00000  0.50000  0.97110  1.0000
  Fe  Fe1       1.0  0.25000  0.25000  0.02890  1.0000
  Fe  Fe2       1.0  0.75000  0.75000  0.91330  1.0000
  Fe  Fe3       1.0  0.75000  0.25000  0.02890  1.0000
  Fe  Fe4       1.0  0.25000  0.75000  0.91330  1.0000
  Fe  Fe5       1.0  0.75000  0.75000  0.02890  1.0000
  Fe  Fe6       1.0  0.25000  0.25000  0.91330  1.0000
  Fe  Fe7       1.0  0.25000  0.75000  0.02890  1.0000
  Fe  Fe8       1.0  0.75000  0.25000  0.91330  1.0000
  Si  Si1       1.0  0.00000  0.00000  0.97110  1.0000
  Si  Si2       1.0  0.50000  0.00000  0.08670  1.0000
  Si  Si3       1.0  0.00000  0.50000  0.08670  1.0000
  Si  Si4       1.0  0.50000  0.50000  0.97110  1.0000
  C   C1        1.0  0.00000  0.50000  0.16523  1.0000
  O   O1        1.0  0.00000  0.50000  0.21276  1.0000
