# generated using pymatgen
data_Y8Bi8Pd16C
_symmetry_space_group_name_H-M   Pmm2
_cell_length_a   6.99655000
_cell_length_b   9.89462000
_cell_length_c   27.42100000
_cell_angle_alpha   90.00000000
_cell_angle_beta   90.00000000
_cell_angle_gamma   90.00000000
_symmetry_Int_Tables_number   25
_chemical_formula_structural   Y8Bi8Pd16C
_chemical_formula_sum   'Y8 Bi8 Pd16 C1'
_cell_volume   1898.30656985
_cell_formula_units_Z   1
loop_
 _symmetry_equiv_pos_site_id
 _symmetry_equiv_pos_as_xyz
  1  'x, y, z'
  2  '-x, -y, z'
  3  '-x, y, z'
  4  'x, -y, z'
loop_
 _atom_site_type_symbol
 _atom_site_label
 _atom_site_symmetry_multiplicity
 _atom_site_fract_x
 _atom_site_fract_y
 _atom_site_fract_z
 _atom_site_occupancy
  Y  Y0  2  0.50000000  0.23645000  0.13459000  1.0
  Y  Y1  2  0.50000000  0.25000000  0.95489000  1.0
  Y  Y2  1  0.00000000  0.00000000  0.04999000  1.0
  Y  Y3  1  0.00000000  0.00000000  0.86468000  1.0
  Y  Y4  1  0.00000000  0.50000000  0.04600000  1.0
  Y  Y5  1  0.00000000  0.50000000  0.86468000  1.0
  Bi  Bi6  2  0.00000000  0.25000000  0.95489000  1.0
  Bi  Bi7  2  0.00000000  0.26051000  0.14004000  1.0
  Bi  Bi8  1  0.50000000  0.00000000  0.04415000  1.0
  Bi  Bi9  1  0.50000000  0.00000000  0.86468000  1.0
  Bi  Bi10  1  0.50000000  0.50000000  0.04179000  1.0
  Bi  Bi11  1  0.50000000  0.50000000  0.86468000  1.0
  Pd  Pd12  4  0.24278000  0.25270000  0.04763000  1.0
  Pd  Pd13  4  0.25000000  0.25000000  0.86468000  1.0
  Pd  Pd14  2  0.20264000  0.00000000  0.14162000  1.0
  Pd  Pd15  2  0.25000000  0.00000000  0.95489000  1.0
  Pd  Pd16  2  0.25000000  0.50000000  0.95489000  1.0
  Pd  Pd17  2  0.26878000  0.50000000  0.12739000  1.0
  C  C18  1  0.50000000  0.00000000  0.13737000  1.0
