# generated using pymatgen
data_Sc8Al8Cu16CO
_symmetry_space_group_name_H-M   'P 1'
_cell_length_a   6.23499000
_cell_length_b   8.81761000
_cell_length_c   26.61320000
_cell_angle_alpha   90.00000000
_cell_angle_beta   90.00000000
_cell_angle_gamma   90.00000000
_symmetry_Int_Tables_number   1
_chemical_formula_structural   Sc8Al8Cu16CO
_chemical_formula_sum   'Sc8 Al8 Cu16 C1 O1'
_cell_volume   1463.13279640
_cell_formula_units_Z   1
loop_
 _symmetry_equiv_pos_site_id
 _symmetry_equiv_pos_as_xyz
  1  'x, y, z'
loop_
 _atom_site_type_symbol
 _atom_site_label
 _atom_site_symmetry_multiplicity
 _atom_site_fract_x
 _atom_site_fract_y
 _atom_site_fract_z
 _atom_site_occupancy
  Sc  Sc0  1  0.00000000  0.75000000  0.87575000  1.0
  Sc  Sc1  1  0.50000000  0.00000000  0.95858000  1.0
  Sc  Sc2  1  0.50000000  0.50000000  0.95858000  1.0
  Sc  Sc3  1  0.00000000  0.25000000  0.87575000  1.0
  Sc  Sc4  1  0.00000000  0.25248000  0.03922000  1.0
  Sc  Sc5  1  0.50000000  0.50000000  0.13139000  1.0
  Sc  Sc6  1  0.50000000  0.00000000  0.12857000  1.0
  Sc  Sc7  1  0.00000000  0.74752000  0.03922000  1.0
  Al  Al8  1  0.00000000  0.50000000  0.95858000  1.0
  Al  Al9  1  0.50000000  0.75000000  0.87575000  1.0
  Al  Al10  1  0.00000000  0.00000000  0.95858000  1.0
  Al  Al11  1  0.50000000  0.25000000  0.87575000  1.0
  Al  Al12  1  0.00000000  0.00000000  0.12002000  1.0
  Al  Al13  1  0.50000000  0.24873000  0.04313000  1.0
  Al  Al14  1  0.00000000  0.50000000  0.11878000  1.0
  Al  Al15  1  0.50000000  0.75127000  0.04313000  1.0
  Cu  Cu16  1  0.25000000  0.75000000  0.95858000  1.0
  Cu  Cu17  1  0.75000000  0.25000000  0.95858000  1.0
  Cu  Cu18  1  0.75000000  0.75000000  0.95858000  1.0
  Cu  Cu19  1  0.25000000  0.25000000  0.95858000  1.0
  Cu  Cu20  1  0.75000000  0.50000000  0.87575000  1.0
  Cu  Cu21  1  0.25000000  0.00000000  0.87575000  1.0
  Cu  Cu22  1  0.25000000  0.50000000  0.87575000  1.0
  Cu  Cu23  1  0.75000000  0.00000000  0.87575000  1.0
  Cu  Cu24  1  0.23028000  0.25102000  0.12245000  1.0
  Cu  Cu25  1  0.76972000  0.74898000  0.12245000  1.0
  Cu  Cu26  1  0.76972000  0.25102000  0.12245000  1.0
  Cu  Cu27  1  0.23028000  0.74898000  0.12245000  1.0
  Cu  Cu28  1  0.74275000  0.00000000  0.04226000  1.0
  Cu  Cu29  1  0.27145000  0.50000000  0.04415000  1.0
  Cu  Cu30  1  0.25725000  0.00000000  0.04226000  1.0
  Cu  Cu31  1  0.72855000  0.50000000  0.04415000  1.0
  C  C32  1  0.50000000  0.00000000  0.21563000  1.0
  O  O33  1  0.50000000  0.00000000  0.25870000  1.0
