# generated using pymatgen
data_Li16Bi8Au8CO
_symmetry_space_group_name_H-M   'P 1'
_cell_length_a   9.72919000
_cell_length_b   6.87958000
_cell_length_c   27.29690000
_cell_angle_alpha   90.00000000
_cell_angle_beta   90.00000000
_cell_angle_gamma   90.00000000
_symmetry_Int_Tables_number   1
_chemical_formula_structural   Li16Bi8Au8CO
_chemical_formula_sum   'Li16 Bi8 Au8 C1 O1'
_cell_volume   1827.05633617
_cell_formula_units_Z   1
loop_
 _symmetry_equiv_pos_site_id
 _symmetry_equiv_pos_as_xyz
  1  'x, y, z'
loop_
 _atom_site_type_symbol
 _atom_site_label
 _atom_site_symmetry_multiplicity
 _atom_site_fract_x
 _atom_site_fract_y
 _atom_site_fract_z
 _atom_site_occupancy
  Li  Li0  1  0.75000000  1.00000000  0.04455000  1.0
  Li  Li1  1  0.00000000  0.50000000  0.13366000  1.0
  Li  Li2  1  0.25000000  1.00000000  0.04455000  1.0
  Li  Li3  1  0.50000000  0.50000000  0.13366000  1.0
  Li  Li4  1  0.25000000  0.25000000  0.13366000  1.0
  Li  Li5  1  0.75000000  0.25000000  0.13366000  1.0
  Li  Li6  1  0.50000000  0.75000000  0.04455000  1.0
  Li  Li7  1  0.00000000  0.75000000  0.04455000  1.0
  Li  Li8  1  0.24963000  0.02381000  0.87323000  1.0
  Li  Li9  1  0.50000000  0.49330000  0.96325000  1.0
  Li  Li10  1  0.75037000  0.02381000  0.87323000  1.0
  Li  Li11  1  0.00000000  0.50034000  0.96122000  1.0
  Li  Li12  1  0.75119000  0.27568000  0.94916000  1.0
  Li  Li13  1  0.24881000  0.27568000  0.94916000  1.0
  Li  Li14  1  0.00000000  0.68825000  0.87000000  1.0
  Li  Li15  1  0.50000000  0.67439000  0.87410000  1.0
  Bi  Bi16  1  0.00000000  0.00000000  0.13366000  1.0
  Bi  Bi17  1  0.25000000  0.50000000  0.04455000  1.0
  Bi  Bi18  1  0.75000000  0.50000000  0.04455000  1.0
  Bi  Bi19  1  0.50000000  1.00000000  0.13366000  1.0
  Bi  Bi20  1  0.50000000  0.96222000  0.95522000  1.0
  Bi  Bi21  1  0.74737000  0.45132000  0.84510000  1.0
  Bi  Bi22  1  0.25263000  0.45132000  0.84510000  1.0
  Bi  Bi23  1  0.00000000  0.96532000  0.95464000  1.0
  Au  Au24  1  0.00000000  0.25000000  0.04455000  1.0
  Au  Au25  1  0.50000000  0.25000000  0.04455000  1.0
  Au  Au26  1  0.75000000  0.75000000  0.13366000  1.0
  Au  Au27  1  0.25000000  0.75000000  0.13366000  1.0
  Au  Au28  1  0.50000000  0.26336000  0.88283000  1.0
  Au  Au29  1  0.00000000  0.27052000  0.88131000  1.0
  Au  Au30  1  0.24945000  0.70616000  0.93269000  1.0
  Au  Au31  1  0.75055000  0.70616000  0.93269000  1.0
  C  C32  1  0.00000000  0.76715000  0.79524000  1.0
  O  O33  1  0.00000000  0.78584000  0.75363000  1.0
