# generated using pymatgen
data_Li16Bi8Au8CO
_symmetry_space_group_name_H-M   Pm
_cell_length_a   6.87958000
_cell_length_b   9.72919000
_cell_length_c   27.29690000
_cell_angle_alpha   90.00000000
_cell_angle_beta   90.00000000
_cell_angle_gamma   90.00000000
_symmetry_Int_Tables_number   6
_chemical_formula_structural   Li16Bi8Au8CO
_chemical_formula_sum   'Li16 Bi8 Au8 C1 O1'
_cell_volume   1827.05633617
_cell_formula_units_Z   1
loop_
 _symmetry_equiv_pos_site_id
 _symmetry_equiv_pos_as_xyz
  1  'x, y, z'
  2  'x, -y, z'
loop_
 _atom_site_type_symbol
 _atom_site_label
 _atom_site_symmetry_multiplicity
 _atom_site_fract_x
 _atom_site_fract_y
 _atom_site_fract_z
 _atom_site_occupancy
  Li  Li0  2  -0.00000000  0.25000000  0.95545000  1.0
  Li  Li1  2  0.02381000  0.24963000  0.12677000  1.0
  Li  Li2  2  0.25000000  0.25000000  0.86634000  1.0
  Li  Li3  2  0.27568000  0.24881000  0.05084000  1.0
  Li  Li4  1  0.49330000  0.50000000  0.03675000  1.0
  Li  Li5  1  0.50000000  0.00000000  0.86634000  1.0
  Li  Li6  1  0.50000000  0.50000000  0.86634000  1.0
  Li  Li7  1  0.50034000  0.00000000  0.03878000  1.0
  Li  Li8  1  0.67439000  0.50000000  0.12590000  1.0
  Li  Li9  1  0.68825000  0.00000000  0.13000000  1.0
  Li  Li10  1  0.75000000  0.00000000  0.95545000  1.0
  Li  Li11  1  0.75000000  0.50000000  0.95545000  1.0
  Bi  Bi12  2  0.45132000  0.25263000  0.15490000  1.0
  Bi  Bi13  2  0.50000000  0.25000000  0.95545000  1.0
  Bi  Bi14  1  -0.00000000  0.50000000  0.86634000  1.0
  Bi  Bi15  1  0.00000000  0.00000000  0.86634000  1.0
  Bi  Bi16  1  0.96222000  0.50000000  0.04478000  1.0
  Bi  Bi17  1  0.96532000  0.00000000  0.04536000  1.0
  Au  Au18  2  0.70616000  0.24945000  0.06731000  1.0
  Au  Au19  2  0.75000000  0.25000000  0.86634000  1.0
  Au  Au20  1  0.25000000  0.00000000  0.95545000  1.0
  Au  Au21  1  0.25000000  0.50000000  0.95545000  1.0
  Au  Au22  1  0.26336000  0.50000000  0.11717000  1.0
  Au  Au23  1  0.27052000  0.00000000  0.11869000  1.0
  C  C24  1  0.76715000  0.00000000  0.20476000  1.0
  O  O25  1  0.78584000  0.00000000  0.24637000  1.0
