# generated using pymatgen
data_MnNi
_symmetry_space_group_name_H-M   P4mm
_cell_length_a   2.80612000
_cell_length_b   2.80612000
_cell_length_c   25.02410000
_cell_angle_alpha   90.00000000
_cell_angle_beta   90.00000000
_cell_angle_gamma   90.00000000
_symmetry_Int_Tables_number   99
_chemical_formula_structural   MnNi
_chemical_formula_sum   'Mn2 Ni2'
_cell_volume   197.04750722
_cell_formula_units_Z   2
loop_
 _symmetry_equiv_pos_site_id
 _symmetry_equiv_pos_as_xyz
  1  'x, y, z'
  2  '-y, x, z'
  3  '-x, -y, z'
  4  'y, -x, z'
  5  '-x, y, z'
  6  'y, x, z'
  7  'x, -y, z'
  8  '-y, -x, z'
loop_
 _atom_site_type_symbol
 _atom_site_label
 _atom_site_symmetry_multiplicity
 _atom_site_fract_x
 _atom_site_fract_y
 _atom_site_fract_z
 _atom_site_occupancy
  Mn  Mn0  1  0.50000000  0.50000000  0.03457000  1.0
  Mn  Mn1  1  0.50000000  0.50000000  0.90072000  1.0
  Ni  Ni2  1  0.00000000  0.00000000  0.10149000  1.0
  Ni  Ni3  1  0.00000000  0.00000000  0.96764000  1.0
