# generated using pymatgen
data_Li8Y8Sn8Ge8C
_symmetry_space_group_name_H-M   'P 1'
_cell_length_a   8.52742000
_cell_length_b   9.43388000
_cell_length_c   26.45610000
_cell_angle_alpha   90.00000000
_cell_angle_beta   90.00000000
_cell_angle_gamma   90.00000000
_symmetry_Int_Tables_number   1
_chemical_formula_structural   Li8Y8Sn8Ge8C
_chemical_formula_sum   'Li8 Y8 Sn8 Ge8 C1'
_cell_volume   2128.30480198
_cell_formula_units_Z   1
loop_
 _symmetry_equiv_pos_site_id
 _symmetry_equiv_pos_as_xyz
  1  'x, y, z'
loop_
 _atom_site_type_symbol
 _atom_site_label
 _atom_site_symmetry_multiplicity
 _atom_site_fract_x
 _atom_site_fract_y
 _atom_site_fract_z
 _atom_site_occupancy
  Li  Li0  1  0.25268000  0.00000000  0.13550000  1.0
  Li  Li1  1  0.25000000  0.00000000  0.95933000  1.0
  Li  Li2  1  0.27595000  0.50000000  0.13166000  1.0
  Li  Li3  1  0.25000000  0.50000000  0.95933000  1.0
  Li  Li4  1  0.74732000  0.00000000  0.13550000  1.0
  Li  Li5  1  0.75000000  0.00000000  0.95933000  1.0
  Li  Li6  1  0.72405000  0.50000000  0.13166000  1.0
  Li  Li7  1  0.75000000  0.50000000  0.95933000  1.0
  Y  Y8  1  0.24681000  0.74703000  0.04159000  1.0
  Y  Y9  1  0.25000000  0.75001000  0.87798000  1.0
  Y  Y10  1  0.24681000  0.25297000  0.04159000  1.0
  Y  Y11  1  0.25000000  0.24999000  0.87798000  1.0
  Y  Y12  1  0.75319000  0.74703000  0.04159000  1.0
  Y  Y13  1  0.75000000  0.75001000  0.87798000  1.0
  Y  Y14  1  0.75319000  0.25297000  0.04159000  1.0
  Y  Y15  1  0.75000000  0.24999000  0.87798000  1.0
  Sn  Sn16  1  0.00000000  0.00000000  0.04020000  1.0
  Sn  Sn17  1  0.00000000  0.00000000  0.87798000  1.0
  Sn  Sn18  1  0.00000000  0.50000000  0.04688000  1.0
  Sn  Sn19  1  0.00000000  0.50000000  0.87798000  1.0
  Sn  Sn20  1  0.50000000  0.00000000  0.05648000  1.0
  Sn  Sn21  1  0.50000000  0.00000000  0.87798000  1.0
  Sn  Sn22  1  0.50000000  0.50000000  0.04134000  1.0
  Sn  Sn23  1  0.50000000  0.50000000  0.87798000  1.0
  Ge  Ge24  1  0.00000000  0.79715000  0.13364000  1.0
  Ge  Ge25  1  0.00000000  0.75001000  0.95933000  1.0
  Ge  Ge26  1  0.00000000  0.20285000  0.13364000  1.0
  Ge  Ge27  1  0.00000000  0.24999000  0.95933000  1.0
  Ge  Ge28  1  0.50000000  0.72640000  0.11990000  1.0
  Ge  Ge29  1  0.50000000  0.75001000  0.95933000  1.0
  Ge  Ge30  1  0.50000000  0.27360000  0.11990000  1.0
  Ge  Ge31  1  0.50000000  0.24999000  0.95933000  1.0
  C  C32  1  0.00000000  0.00000000  0.13308000  1.0
