# generated using pymatgen
data_Li4Sn4Ge4Pd4CO
_symmetry_space_group_name_H-M   'P 1'
_cell_length_a   6.61012000
_cell_length_b   6.61012000
_cell_length_c   24.95760000
_cell_angle_alpha   90.00000000
_cell_angle_beta   90.00000000
_cell_angle_gamma   90.00000000
_symmetry_Int_Tables_number   1
_chemical_formula_structural   Li4Sn4Ge4Pd4CO
_chemical_formula_sum   'Li4 Sn4 Ge4 Pd4 C1 O1'
_cell_volume   1090.48954806
_cell_formula_units_Z   1
loop_
 _symmetry_equiv_pos_site_id
 _symmetry_equiv_pos_as_xyz
  1  'x, y, z'
loop_
 _atom_site_type_symbol
 _atom_site_label
 _atom_site_symmetry_multiplicity
 _atom_site_fract_x
 _atom_site_fract_y
 _atom_site_fract_z
 _atom_site_occupancy
  Li  Li0  1  0.73655000  0.23640000  0.03172000  1.0
  Li  Li1  1  0.75000000  0.75000000  0.90068000  1.0
  Li  Li2  1  0.25000000  0.25000000  0.90068000  1.0
  Li  Li3  1  0.26360000  0.76353000  0.03173000  1.0
  Sn  Sn4  1  0.00005000  0.49998000  0.10156000  1.0
  Sn  Sn5  1  0.00000000  0.00000000  0.96689000  1.0
  Sn  Sn6  1  0.50000000  0.50000000  0.96689000  1.0
  Sn  Sn7  1  0.50009000  0.00001000  0.11047000  1.0
  Ge  Ge8  1  0.00004000  0.99993000  0.08929000  1.0
  Ge  Ge9  1  0.00000000  0.50000000  0.96689000  1.0
  Ge  Ge10  1  0.50000000  0.00000000  0.96689000  1.0
  Ge  Ge11  1  0.50006000  0.49995000  0.08927000  1.0
  Pd  Pd12  1  0.26153000  0.23844000  0.02897000  1.0
  Pd  Pd13  1  0.25000000  0.75000000  0.90068000  1.0
  Pd  Pd14  1  0.75000000  0.25000000  0.90068000  1.0
  Pd  Pd15  1  0.73854000  0.76148000  0.02897000  1.0
  C  C16  1  0.99879000  0.50098000  0.27241000  1.0
  O  O17  1  0.00019000  0.49986000  0.31791000  1.0
