# generated using pymatgen
data_LiMgGePd
_symmetry_space_group_name_H-M   'P 1'
_cell_length_a   8.85076000
_cell_length_b   6.25843000
_cell_length_c   26.63810000
_cell_angle_alpha   90.00000000
_cell_angle_beta   90.00000000
_cell_angle_gamma   90.00000000
_symmetry_Int_Tables_number   1
_chemical_formula_structural   LiMgGePd
_chemical_formula_sum   'Li8 Mg8 Ge8 Pd8'
_cell_volume   1475.53395666
_cell_formula_units_Z   8
loop_
 _symmetry_equiv_pos_site_id
 _symmetry_equiv_pos_as_xyz
  1  'x, y, z'
loop_
 _atom_site_type_symbol
 _atom_site_label
 _atom_site_symmetry_multiplicity
 _atom_site_fract_x
 _atom_site_fract_y
 _atom_site_fract_z
 _atom_site_occupancy
  Li  Li0  1  0.00000000  0.25000000  0.04153000  1.0
  Li  Li1  1  0.50000000  0.25000000  0.04153000  1.0
  Li  Li2  1  0.25000000  0.75000000  0.12460000  1.0
  Li  Li3  1  0.75000000  0.75000000  0.12460000  1.0
  Li  Li4  1  0.50000000  0.35446000  0.83294000  1.0
  Li  Li5  1  0.00000000  0.35444000  0.83290000  1.0
  Li  Li6  1  0.75001000  0.75957000  0.95502000  1.0
  Li  Li7  1  0.24999000  0.75957000  0.95502000  1.0
  Mg  Mg8  1  0.25000000  1.00000000  0.04153000  1.0
  Mg  Mg9  1  0.75000000  1.00000000  0.04153000  1.0
  Mg  Mg10  1  0.50000000  0.50000000  0.12460000  1.0
  Mg  Mg11  1  0.00000000  0.50000000  0.12460000  1.0
  Mg  Mg12  1  0.75001000  0.03522000  0.87068000  1.0
  Mg  Mg13  1  0.24999000  0.03522000  0.87068000  1.0
  Mg  Mg14  1  0.00000000  0.48818000  0.95163000  1.0
  Mg  Mg15  1  0.50000000  0.48826000  0.95162000  1.0
  Ge  Ge16  1  0.00000000  0.00000000  0.12460000  1.0
  Ge  Ge17  1  0.50000000  1.00000000  0.12460000  1.0
  Ge  Ge18  1  0.75000000  0.50000000  0.04153000  1.0
  Ge  Ge19  1  0.25000000  0.50000000  0.04153000  1.0
  Ge  Ge20  1  0.50000000  0.01465000  0.95280000  1.0
  Ge  Ge21  1  0.00000000  0.01464000  0.95280000  1.0
  Ge  Ge22  1  0.24998000  0.51767000  0.87123000  1.0
  Ge  Ge23  1  0.75002000  0.51767000  0.87123000  1.0
  Pd  Pd24  1  0.00000000  0.75000000  0.04153000  1.0
  Pd  Pd25  1  0.50000000  0.75000000  0.04153000  1.0
  Pd  Pd26  1  0.25000000  0.25000000  0.12460000  1.0
  Pd  Pd27  1  0.75000000  0.25000000  0.12460000  1.0
  Pd  Pd28  1  0.50000000  0.76102000  0.87760000  1.0
  Pd  Pd29  1  0.00000000  0.76102000  0.87760000  1.0
  Pd  Pd30  1  0.75000000  0.25383000  0.96155000  1.0
  Pd  Pd31  1  0.25000000  0.25383000  0.96155000  1.0
