# generated using pymatgen
data_LiMgGePd
_symmetry_space_group_name_H-M   Pm
_cell_length_a   6.25843000
_cell_length_b   8.85076000
_cell_length_c   26.63810000
_cell_angle_alpha   90.00000000
_cell_angle_beta   90.00000000
_cell_angle_gamma   90.00000000
_symmetry_Int_Tables_number   6
_chemical_formula_structural   LiMgGePd
_chemical_formula_sum   'Li8 Mg8 Ge8 Pd8'
_cell_volume   1475.53395666
_cell_formula_units_Z   8
loop_
 _symmetry_equiv_pos_site_id
 _symmetry_equiv_pos_as_xyz
  1  'x, y, z'
  2  'x, -y, z'
loop_
 _atom_site_type_symbol
 _atom_site_label
 _atom_site_symmetry_multiplicity
 _atom_site_fract_x
 _atom_site_fract_y
 _atom_site_fract_z
 _atom_site_occupancy
  Li  Li0  2  0.75000000  0.25000000  0.87540000  1.0
  Li  Li1  2  0.75957000  0.24999000  0.04498000  1.0
  Li  Li2  1  0.25000000  0.00000000  0.95847000  1.0
  Li  Li3  1  0.25000000  0.50000000  0.95847000  1.0
  Li  Li4  1  0.35444000  0.00000000  0.16710000  1.0
  Li  Li5  1  0.35446000  0.50000000  0.16706000  1.0
  Mg  Mg6  2  -0.00000000  0.25000000  0.95847000  1.0
  Mg  Mg7  2  0.03522000  0.24999000  0.12932000  1.0
  Mg  Mg8  1  0.48818000  0.00000000  0.04837000  1.0
  Mg  Mg9  1  0.48826000  0.50000000  0.04838000  1.0
  Mg  Mg10  1  0.50000000  0.00000000  0.87540000  1.0
  Mg  Mg11  1  0.50000000  0.50000000  0.87540000  1.0
  Ge  Ge12  2  0.50000000  0.25000000  0.95847000  1.0
  Ge  Ge13  2  0.51767000  0.24998000  0.12877000  1.0
  Ge  Ge14  1  -0.00000000  0.50000000  0.87540000  1.0
  Ge  Ge15  1  0.00000000  0.00000000  0.87540000  1.0
  Ge  Ge16  1  0.01464000  0.00000000  0.04720000  1.0
  Ge  Ge17  1  0.01465000  0.50000000  0.04720000  1.0
  Pd  Pd18  2  0.25000000  0.25000000  0.87540000  1.0
  Pd  Pd19  2  0.25383000  0.25000000  0.03845000  1.0
  Pd  Pd20  1  0.75000000  0.00000000  0.95847000  1.0
  Pd  Pd21  1  0.75000000  0.50000000  0.95847000  1.0
  Pd  Pd22  1  0.76102000  0.00000000  0.12240000  1.0
  Pd  Pd23  1  0.76102000  0.50000000  0.12240000  1.0
