# generated using pymatgen
data_Mg8Sc8In8Pd8CO
_symmetry_space_group_name_H-M   'P 1'
_cell_length_a   6.76782000
_cell_length_b   9.57114000
_cell_length_c   27.17840000
_cell_angle_alpha   90.00000000
_cell_angle_beta   90.00000000
_cell_angle_gamma   90.00000000
_symmetry_Int_Tables_number   1
_chemical_formula_structural   Mg8Sc8In8Pd8CO
_chemical_formula_sum   'Mg8 Sc8 In8 Pd8 C1 O1'
_cell_volume   1760.50131758
_cell_formula_units_Z   1
loop_
 _symmetry_equiv_pos_site_id
 _symmetry_equiv_pos_as_xyz
  1  'x, y, z'
loop_
 _atom_site_type_symbol
 _atom_site_label
 _atom_site_symmetry_multiplicity
 _atom_site_fract_x
 _atom_site_fract_y
 _atom_site_fract_z
 _atom_site_occupancy
  Mg  Mg0  1  0.25000000  0.00000000  0.95598000  1.0
  Mg  Mg1  1  0.25000000  0.50000000  0.95598000  1.0
  Mg  Mg2  1  0.75000000  0.25000000  0.86794000  1.0
  Mg  Mg3  1  0.75000000  0.75000000  0.86794000  1.0
  Mg  Mg4  1  0.24994000  0.49976000  0.13486000  1.0
  Mg  Mg5  1  0.25071000  0.00028000  0.13566000  1.0
  Mg  Mg6  1  0.73918000  0.74999000  0.04652000  1.0
  Mg  Mg7  1  0.73906000  0.24998000  0.04654000  1.0
  Sc  Sc8  1  0.75000000  0.00000000  0.95598000  1.0
  Sc  Sc9  1  0.75000000  0.50000000  0.95598000  1.0
  Sc  Sc10  1  0.25000000  0.25000000  0.86794000  1.0
  Sc  Sc11  1  0.25000000  0.75000000  0.86794000  1.0
  Sc  Sc12  1  0.75190000  0.50017000  0.13372000  1.0
  Sc  Sc13  1  0.75232000  0.99985000  0.13333000  1.0
  Sc  Sc14  1  0.26135000  0.74964000  0.04795000  1.0
  Sc  Sc15  1  0.26169000  0.25036000  0.04804000  1.0
  In  In16  1  0.00000000  0.00000000  0.86794000  1.0
  In  In17  1  0.00000000  0.50000000  0.86794000  1.0
  In  In18  1  0.50000000  0.75000000  0.95598000  1.0
  In  In19  1  0.50000000  0.25000000  0.95598000  1.0
  In  In20  1  0.99928000  0.49994000  0.04507000  1.0
  In  In21  1  0.00088000  0.00011000  0.04572000  1.0
  In  In22  1  0.50042000  0.25045000  0.14875000  1.0
  In  In23  1  0.49969000  0.74960000  0.14847000  1.0
  Pd  Pd24  1  0.00000000  0.25000000  0.95598000  1.0
  Pd  Pd25  1  0.00000000  0.75000000  0.95598000  1.0
  Pd  Pd26  1  0.50000000  0.50000000  0.86794000  1.0
  Pd  Pd27  1  0.50000000  0.00000000  0.86794000  1.0
  Pd  Pd28  1  0.00005000  0.74670000  0.12251000  1.0
  Pd  Pd29  1  0.99970000  0.25332000  0.12254000  1.0
  Pd  Pd30  1  0.50409000  0.99997000  0.04549000  1.0
  Pd  Pd31  1  0.50619000  0.50005000  0.04492000  1.0
  C  C32  1  0.18966000  0.00001000  0.21683000  1.0
  O  O33  1  0.17013000  0.99999000  0.25877000  1.0
