# generated using pymatgen
data_Sc8Ga8Pd16C
_symmetry_space_group_name_H-M   Pm
_cell_length_a   6.43013000
_cell_length_b   9.09357000
_cell_length_c   26.82020000
_cell_angle_alpha   90.00000000
_cell_angle_beta   90.00000000
_cell_angle_gamma   90.00000000
_symmetry_Int_Tables_number   6
_chemical_formula_structural   Sc8Ga8Pd16C
_chemical_formula_sum   'Sc8 Ga8 Pd16 C1'
_cell_volume   1568.25318999
_cell_formula_units_Z   1
loop_
 _symmetry_equiv_pos_site_id
 _symmetry_equiv_pos_as_xyz
  1  'x, y, z'
  2  'x, -y, z'
loop_
 _atom_site_type_symbol
 _atom_site_label
 _atom_site_symmetry_multiplicity
 _atom_site_fract_x
 _atom_site_fract_y
 _atom_site_fract_z
 _atom_site_occupancy
  Sc  Sc0  2  0.00000000  0.25000000  0.87285000  1.0
  Sc  Sc1  2  0.00248000  0.25294000  0.04144000  1.0
  Sc  Sc2  1  0.49015000  0.50000000  0.12806000  1.0
  Sc  Sc3  1  0.50000000  0.00000000  0.95762000  1.0
  Sc  Sc4  1  0.50000000  0.50000000  0.95762000  1.0
  Sc  Sc5  1  0.54460000  0.00000000  0.13087000  1.0
  Ga  Ga6  2  0.49991000  0.24791000  0.04564000  1.0
  Ga  Ga7  2  0.50000000  0.25000000  0.87285000  1.0
  Ga  Ga8  1  0.00000000  0.00000000  0.95762000  1.0
  Ga  Ga9  1  0.00000000  0.50000000  0.95762000  1.0
  Ga  Ga10  1  0.01387000  0.50000000  0.12655000  1.0
  Ga  Ga11  1  0.94994000  0.00000000  0.13118000  1.0
  Pd  Pd12  2  0.23664000  0.24600000  0.12427000  1.0
  Pd  Pd13  2  0.25000000  0.25000000  0.95762000  1.0
  Pd  Pd14  2  0.75000000  0.25000000  0.95762000  1.0
  Pd  Pd15  2  0.76503000  0.26465000  0.12302000  1.0
  Pd  Pd16  1  0.25000000  0.00000000  0.87285000  1.0
  Pd  Pd17  1  0.25000000  0.50000000  0.87285000  1.0
  Pd  Pd18  1  0.25139000  0.00000000  0.04797000  1.0
  Pd  Pd19  1  0.26158000  0.50000000  0.04275000  1.0
  Pd  Pd20  1  0.74507000  0.50000000  0.04280000  1.0
  Pd  Pd21  1  0.75000000  0.00000000  0.87285000  1.0
  Pd  Pd22  1  0.75000000  0.50000000  0.87285000  1.0
  Pd  Pd23  1  0.75064000  0.00000000  0.03953000  1.0
  C  C24  1  0.23679000  0.00000000  0.14020000  1.0
