# generated using pymatgen
data_Li8Cu8Sb8Pd8C
_symmetry_space_group_name_H-M   'P 1'
_cell_length_a   9.01208000
_cell_length_b   6.37250000
_cell_length_c   26.75910000
_cell_angle_alpha   90.00000000
_cell_angle_beta   90.00000000
_cell_angle_gamma   90.00000000
_symmetry_Int_Tables_number   1
_chemical_formula_structural   Li8Cu8Sb8Pd8C
_chemical_formula_sum   'Li8 Cu8 Sb8 Pd8 C1'
_cell_volume   1536.76119292
_cell_formula_units_Z   1
loop_
 _symmetry_equiv_pos_site_id
 _symmetry_equiv_pos_as_xyz
  1  'x, y, z'
loop_
 _atom_site_type_symbol
 _atom_site_label
 _atom_site_symmetry_multiplicity
 _atom_site_fract_x
 _atom_site_fract_y
 _atom_site_fract_z
 _atom_site_occupancy
  Li  Li0  1  0.75000000  0.25000000  0.04210000  1.0
  Li  Li1  1  0.25000000  0.25000000  0.04210000  1.0
  Li  Li2  1  0.00000000  0.75000000  0.12629000  1.0
  Li  Li3  1  0.50000000  0.75000000  0.12629000  1.0
  Li  Li4  1  0.25996000  0.25014000  0.86837000  1.0
  Li  Li5  1  0.74004000  0.25014000  0.86837000  1.0
  Li  Li6  1  0.50000000  0.75146000  0.96510000  1.0
  Li  Li7  1  0.00000000  0.75073000  0.95284000  1.0
  Cu  Cu8  1  0.75000000  0.00000000  0.12629000  1.0
  Cu  Cu9  1  0.25000000  0.00000000  0.12629000  1.0
  Cu  Cu10  1  0.50000000  0.50000000  0.04210000  1.0
  Cu  Cu11  1  0.00000000  0.50000000  0.04210000  1.0
  Cu  Cu12  1  0.24729000  0.98804000  0.95053000  1.0
  Cu  Cu13  1  0.75271000  0.98804000  0.95053000  1.0
  Cu  Cu14  1  0.00000000  0.45923000  0.87722000  1.0
  Cu  Cu15  1  0.50000000  0.52903000  0.88666000  1.0
  Sb  Sb16  1  0.75000000  0.75000000  0.04210000  1.0
  Sb  Sb17  1  0.25000000  0.75000000  0.04210000  1.0
  Sb  Sb18  1  0.00000000  0.25000000  0.12629000  1.0
  Sb  Sb19  1  0.50000000  0.25000000  0.12629000  1.0
  Sb  Sb20  1  0.25089000  0.75373000  0.86219000  1.0
  Sb  Sb21  1  0.74911000  0.75373000  0.86219000  1.0
  Sb  Sb22  1  0.50000000  0.25681000  0.96010000  1.0
  Sb  Sb23  1  0.00000000  0.25098000  0.96077000  1.0
  Pd  Pd24  1  0.00000000  1.00000000  0.04210000  1.0
  Pd  Pd25  1  0.50000000  1.00000000  0.04210000  1.0
  Pd  Pd26  1  0.25000000  0.50000000  0.12629000  1.0
  Pd  Pd27  1  0.75000000  0.50000000  0.12629000  1.0
  Pd  Pd28  1  0.50000000  0.98305000  0.88561000  1.0
  Pd  Pd29  1  0.00000000  0.02812000  0.87569000  1.0
  Pd  Pd30  1  0.75168000  0.51867000  0.95019000  1.0
  Pd  Pd31  1  0.24832000  0.51867000  0.95019000  1.0
  C  C32  1  0.00000000  0.72990000  0.84680000  1.0
