# generated using pymatgen
data_Mn8Al8Fe16CO
_symmetry_space_group_name_H-M   Pmm2
_cell_length_a   5.79866000
_cell_length_b   8.20054000
_cell_length_c   26.15040000
_cell_angle_alpha   90.00000000
_cell_angle_beta   90.00000000
_cell_angle_gamma   90.00000000
_symmetry_Int_Tables_number   25
_chemical_formula_structural   Mn8Al8Fe16CO
_chemical_formula_sum   'Mn8 Al8 Fe16 C1 O1'
_cell_volume   1243.50756754
_cell_formula_units_Z   1
loop_
 _symmetry_equiv_pos_site_id
 _symmetry_equiv_pos_as_xyz
  1  'x, y, z'
  2  '-x, -y, z'
  3  '-x, y, z'
  4  'x, -y, z'
loop_
 _atom_site_type_symbol
 _atom_site_label
 _atom_site_symmetry_multiplicity
 _atom_site_fract_x
 _atom_site_fract_y
 _atom_site_fract_z
 _atom_site_occupancy
  Mn  Mn0  2  0.00000000  0.24981000  0.04152000  1.0
  Mn  Mn1  2  0.00000000  0.25000000  0.88240000  1.0
  Mn  Mn2  1  0.50000000  0.00000000  0.11210000  1.0
  Mn  Mn3  1  0.50000000  0.00000000  0.96080000  1.0
  Mn  Mn4  1  0.50000000  0.50000000  0.11502000  1.0
  Mn  Mn5  1  0.50000000  0.50000000  0.96080000  1.0
  Al  Al6  2  0.50000000  0.25000000  0.88240000  1.0
  Al  Al7  2  0.50000000  0.25176000  0.03908000  1.0
  Al  Al8  1  0.00000000  0.00000000  0.11508000  1.0
  Al  Al9  1  0.00000000  0.00000000  0.96080000  1.0
  Al  Al10  1  0.00000000  0.50000000  0.11679000  1.0
  Al  Al11  1  0.00000000  0.50000000  0.96080000  1.0
  Fe  Fe12  4  0.25000000  0.25000000  0.96080000  1.0
  Fe  Fe13  4  0.25754000  0.24643000  0.12207000  1.0
  Fe  Fe14  2  0.24789000  0.50000000  0.03833000  1.0
  Fe  Fe15  2  0.25000000  0.50000000  0.88240000  1.0
  Fe  Fe16  2  0.25000000  0.00000000  0.88240000  1.0
  Fe  Fe17  2  0.25018000  0.00000000  0.03788000  1.0
  C  C18  1  0.50000000  0.00000000  0.18186000  1.0
  O  O19  1  0.50000000  0.00000000  0.22662000  1.0
