# generated using pymatgen
data_Li8Cu8Ag8Sn8C
_symmetry_space_group_name_H-M   'P 1'
_cell_length_a   9.10192000
_cell_length_b   6.43603000
_cell_length_c   26.82640000
_cell_angle_alpha   90.00000000
_cell_angle_beta   90.00000000
_cell_angle_gamma   90.00000000
_symmetry_Int_Tables_number   1
_chemical_formula_structural   Li8Cu8Ag8Sn8C
_chemical_formula_sum   'Li8 Cu8 Ag8 Sn8 C1'
_cell_volume   1571.49668684
_cell_formula_units_Z   1
loop_
 _symmetry_equiv_pos_site_id
 _symmetry_equiv_pos_as_xyz
  1  'x, y, z'
loop_
 _atom_site_type_symbol
 _atom_site_label
 _atom_site_symmetry_multiplicity
 _atom_site_fract_x
 _atom_site_fract_y
 _atom_site_fract_z
 _atom_site_occupancy
  Li  Li0  1  0.00000000  0.25000000  0.04241000  1.0
  Li  Li1  1  0.50000000  0.25000000  0.04241000  1.0
  Li  Li2  1  0.25000000  0.75000000  0.12723000  1.0
  Li  Li3  1  0.75000000  0.75000000  0.12723000  1.0
  Li  Li4  1  0.50000000  0.31074000  0.84329000  1.0
  Li  Li5  1  0.00000000  0.26252000  0.84459000  1.0
  Li  Li6  1  0.74986000  0.76240000  0.95391000  1.0
  Li  Li7  1  0.25014000  0.76240000  0.95391000  1.0
  Cu  Cu8  1  0.00000000  0.75000000  0.04241000  1.0
  Cu  Cu9  1  0.50000000  0.75000000  0.04241000  1.0
  Cu  Cu10  1  0.25000000  0.25000000  0.12723000  1.0
  Cu  Cu11  1  0.75000000  0.25000000  0.12723000  1.0
  Cu  Cu12  1  0.50000000  0.76981000  0.87426000  1.0
  Cu  Cu13  1  0.00000000  0.84136000  0.86436000  1.0
  Cu  Cu14  1  0.74784000  0.24509000  0.95724000  1.0
  Cu  Cu15  1  0.25216000  0.24509000  0.95724000  1.0
  Ag  Ag16  1  0.00000000  0.00000000  0.12723000  1.0
  Ag  Ag17  1  0.50000000  0.00000000  0.12723000  1.0
  Ag  Ag18  1  0.75000000  0.50000000  0.04241000  1.0
  Ag  Ag19  1  0.25000000  0.50000000  0.04241000  1.0
  Ag  Ag20  1  0.50000000  0.01034000  0.95746000  1.0
  Ag  Ag21  1  0.00000000  0.00615000  0.95753000  1.0
  Ag  Ag22  1  0.24619000  0.53363000  0.86860000  1.0
  Ag  Ag23  1  0.75381000  0.53363000  0.86860000  1.0
  Sn  Sn24  1  0.25000000  0.00000000  0.04241000  1.0
  Sn  Sn25  1  0.75000000  0.00000000  0.04241000  1.0
  Sn  Sn26  1  0.50000000  0.50000000  0.12723000  1.0
  Sn  Sn27  1  0.00000000  0.50000000  0.12723000  1.0
  Sn  Sn28  1  0.73594000  0.02908000  0.86552000  1.0
  Sn  Sn29  1  0.26406000  0.02908000  0.86552000  1.0
  Sn  Sn30  1  0.00000000  0.47859000  0.95770000  1.0
  Sn  Sn31  1  0.50000000  0.49131000  0.94985000  1.0
  C  C32  1  0.00000000  0.55440000  0.87805000  1.0
