# generated using pymatgen
data_Li8Cu8Ag8Sn8C
_symmetry_space_group_name_H-M   Pm
_cell_length_a   6.43603000
_cell_length_b   9.10192000
_cell_length_c   26.82640000
_cell_angle_alpha   90.00000000
_cell_angle_beta   90.00000000
_cell_angle_gamma   90.00000000
_symmetry_Int_Tables_number   6
_chemical_formula_structural   Li8Cu8Ag8Sn8C
_chemical_formula_sum   'Li8 Cu8 Ag8 Sn8 C1'
_cell_volume   1571.49668684
_cell_formula_units_Z   1
loop_
 _symmetry_equiv_pos_site_id
 _symmetry_equiv_pos_as_xyz
  1  'x, y, z'
  2  'x, -y, z'
loop_
 _atom_site_type_symbol
 _atom_site_label
 _atom_site_symmetry_multiplicity
 _atom_site_fract_x
 _atom_site_fract_y
 _atom_site_fract_z
 _atom_site_occupancy
  Li  Li0  2  0.75000000  0.25000000  0.87277000  1.0
  Li  Li1  2  0.76240000  0.25014000  0.04609000  1.0
  Li  Li2  1  0.25000000  0.00000000  0.95759000  1.0
  Li  Li3  1  0.25000000  0.50000000  0.95759000  1.0
  Li  Li4  1  0.26252000  0.00000000  0.15541000  1.0
  Li  Li5  1  0.31074000  0.50000000  0.15671000  1.0
  Cu  Cu6  2  0.24509000  0.25216000  0.04276000  1.0
  Cu  Cu7  2  0.25000000  0.25000000  0.87277000  1.0
  Cu  Cu8  1  0.75000000  0.00000000  0.95759000  1.0
  Cu  Cu9  1  0.75000000  0.50000000  0.95759000  1.0
  Cu  Cu10  1  0.76981000  0.50000000  0.12574000  1.0
  Cu  Cu11  1  0.84136000  0.00000000  0.13564000  1.0
  Ag  Ag12  2  0.50000000  0.25000000  0.95759000  1.0
  Ag  Ag13  2  0.53363000  0.24619000  0.13140000  1.0
  Ag  Ag14  1  0.00000000  0.00000000  0.87277000  1.0
  Ag  Ag15  1  0.00000000  0.50000000  0.87277000  1.0
  Ag  Ag16  1  0.00615000  0.00000000  0.04247000  1.0
  Ag  Ag17  1  0.01034000  0.50000000  0.04254000  1.0
  Sn  Sn18  2  0.00000000  0.25000000  0.95759000  1.0
  Sn  Sn19  2  0.02908000  0.26406000  0.13448000  1.0
  Sn  Sn20  1  0.47859000  0.00000000  0.04230000  1.0
  Sn  Sn21  1  0.49131000  0.50000000  0.05015000  1.0
  Sn  Sn22  1  0.50000000  0.00000000  0.87277000  1.0
  Sn  Sn23  1  0.50000000  0.50000000  0.87277000  1.0
  C  C24  1  0.55440000  0.00000000  0.12195000  1.0
