# generated using pymatgen
data_In16Ni16C
_symmetry_space_group_name_H-M   Pm
_cell_length_a   9.00957000
_cell_length_b   6.37073000
_cell_length_c   26.75720000
_cell_angle_alpha   90.00000000
_cell_angle_beta   90.00000000
_cell_angle_gamma   90.00000000
_symmetry_Int_Tables_number   6
_chemical_formula_structural   In16Ni16C
_chemical_formula_sum   'In16 Ni16 C1'
_cell_volume   1535.79740073
_cell_formula_units_Z   1
loop_
 _symmetry_equiv_pos_site_id
 _symmetry_equiv_pos_as_xyz
  1  'x, y, z'
  2  'x, -y, z'
loop_
 _atom_site_type_symbol
 _atom_site_label
 _atom_site_symmetry_multiplicity
 _atom_site_fract_x
 _atom_site_fract_y
 _atom_site_fract_z
 _atom_site_occupancy
  In  In0  2  0.00000000  0.25000000  0.87373000  1.0
  In  In1  2  0.24993000  0.20387000  0.12568000  1.0
  In  In2  2  0.25000000  0.25000000  0.95791000  1.0
  In  In3  2  0.50000000  0.25000000  0.87373000  1.0
  In  In4  2  0.50319000  0.25648000  0.04283000  1.0
  In  In5  2  0.74998000  0.26298000  0.13608000  1.0
  In  In6  2  0.75000000  0.25000000  0.95791000  1.0
  In  In7  2  0.99689000  0.25641000  0.04282000  1.0
  Ni  Ni8  1  0.00000000  0.00000000  0.95791000  1.0
  Ni  Ni9  1  0.00000000  0.50000000  0.95791000  1.0
  Ni  Ni10  1  0.04922000  0.50000000  0.13169000  1.0
  Ni  Ni11  1  0.25000000  0.00000000  0.87373000  1.0
  Ni  Ni12  1  0.25000000  0.50000000  0.04228000  1.0
  Ni  Ni13  1  0.25000000  0.50000000  0.87373000  1.0
  Ni  Ni14  1  0.25003000  0.00000000  0.03567000  1.0
  Ni  Ni15  1  0.45085000  0.50000000  0.13165000  1.0
  Ni  Ni16  1  0.50000000  0.00000000  0.95791000  1.0
  Ni  Ni17  1  0.50000000  0.50000000  0.95791000  1.0
  Ni  Ni18  1  0.52100000  0.00000000  0.11901000  1.0
  Ni  Ni19  1  0.75000000  0.00000000  0.87373000  1.0
  Ni  Ni20  1  0.75000000  0.50000000  0.87373000  1.0
  Ni  Ni21  1  0.75001000  0.00000000  0.04591000  1.0
  Ni  Ni22  1  0.75001000  0.50000000  0.04063000  1.0
  Ni  Ni23  1  0.97902000  0.00000000  0.11900000  1.0
  C  C24  1  0.24990000  0.50000000  0.16041000  1.0
