# generated using pymatgen
data_Li4Ga4Ge4Pd4CO
_symmetry_space_group_name_H-M   Cm
_cell_length_a   8.87402040
_cell_length_b   8.87402040
_cell_length_c   24.70620000
_cell_angle_alpha   90.00000000
_cell_angle_beta   90.00000000
_cell_angle_gamma   90.00000000
_symmetry_Int_Tables_number   8
_chemical_formula_structural   Li4Ga4Ge4Pd4CO
_chemical_formula_sum   'Li8 Ga8 Ge8 Pd8 C2 O2'
_cell_volume   1945.56971839
_cell_formula_units_Z   2
loop_
 _symmetry_equiv_pos_site_id
 _symmetry_equiv_pos_as_xyz
  1  'x, y, z'
  2  'x, -y, z'
  3  'x+1/2, y+1/2, z'
  4  'x+1/2, -y+1/2, z'
loop_
 _atom_site_type_symbol
 _atom_site_label
 _atom_site_symmetry_multiplicity
 _atom_site_fract_x
 _atom_site_fract_y
 _atom_site_fract_z
 _atom_site_occupancy
  Li  Li0  4  0.49983000  0.25002000  0.10126000  1.0
  Li  Li1  2  0.25000000  0.00000000  0.96825000  1.0
  Li  Li2  2  0.25000000  0.50000000  0.96825000  1.0
  Ga  Ga3  4  0.25018500  0.25766500  0.02926000  1.0
  Ga  Ga4  2  0.00000000  0.00000000  0.90476000  1.0
  Ga  Ga5  2  0.00000000  0.50000000  0.90476000  1.0
  Ge  Ge6  4  0.25000000  0.25000000  0.90476000  1.0
  Ge  Ge7  2  0.00781500  0.50000000  0.03131000  1.0
  Ge  Ge8  2  0.49234000  0.50000000  0.03118000  1.0
  Pd  Pd9  4  0.00000000  0.25000000  0.96825000  1.0
  Pd  Pd10  2  0.24993000  0.00000000  0.07653000  1.0
  Pd  Pd11  2  0.25024000  0.50000000  0.09375000  1.0
  C  C12  2  0.25089000  0.50000000  0.17285000  1.0
  O  O13  2  0.25059000  0.50000000  0.21972000  1.0
