# generated using pymatgen
data_Li8Ag8Ge8Pd8C
_symmetry_space_group_name_H-M   Pm
_cell_length_a   6.28256000
_cell_length_b   8.88488000
_cell_length_c   26.66370000
_cell_angle_alpha   90.00000000
_cell_angle_beta   90.00000000
_cell_angle_gamma   90.00000000
_symmetry_Int_Tables_number   6
_chemical_formula_structural   Li8Ag8Ge8Pd8C
_chemical_formula_sum   'Li8 Ag8 Ge8 Pd8 C1'
_cell_volume   1488.36217976
_cell_formula_units_Z   1
loop_
 _symmetry_equiv_pos_site_id
 _symmetry_equiv_pos_as_xyz
  1  'x, y, z'
  2  'x, -y, z'
loop_
 _atom_site_type_symbol
 _atom_site_label
 _atom_site_symmetry_multiplicity
 _atom_site_fract_x
 _atom_site_fract_y
 _atom_site_fract_z
 _atom_site_occupancy
  Li  Li0  2  0.23781000  0.26225000  0.13368000  1.0
  Li  Li1  2  0.25000000  0.24999000  0.95835000  1.0
  Li  Li2  1  0.74000000  0.50000000  0.03861000  1.0
  Li  Li3  1  0.74057000  0.00000000  0.04132000  1.0
  Li  Li4  1  0.75000000  0.00000000  0.87504000  1.0
  Li  Li5  1  0.75000000  0.50000000  0.87504000  1.0
  Ag  Ag6  2  0.00000000  0.24999000  0.87504000  1.0
  Ag  Ag7  2  0.98360000  0.25505000  0.04544000  1.0
  Ag  Ag8  1  0.46618000  0.00000000  0.11843000  1.0
  Ag  Ag9  1  0.50000000  0.00000000  0.95835000  1.0
  Ag  Ag10  1  0.50000000  0.50000000  0.95835000  1.0
  Ag  Ag11  1  0.52009000  0.50000000  0.12710000  1.0
  Ge  Ge12  2  0.75000000  0.24999000  0.95835000  1.0
  Ge  Ge13  2  0.77076000  0.22589000  0.14622000  1.0
  Ge  Ge14  1  0.25000000  0.00000000  0.87504000  1.0
  Ge  Ge15  1  0.25000000  0.50000000  0.87504000  1.0
  Ge  Ge16  1  0.25073000  0.50000000  0.04521000  1.0
  Ge  Ge17  1  0.25186000  0.00000000  0.03377000  1.0
  Pd  Pd18  2  0.49084000  0.25565000  0.04560000  1.0
  Pd  Pd19  2  0.50000000  0.25001000  0.87504000  1.0
  Pd  Pd20  1  0.00000000  0.00000000  0.95835000  1.0
  Pd  Pd21  1  0.00000000  0.50000000  0.95835000  1.0
  Pd  Pd22  1  0.03265000  0.00000000  0.11133000  1.0
  Pd  Pd23  1  0.98427000  0.50000000  0.11999000  1.0
  C  C24  1  0.76973000  0.00000000  0.15643000  1.0
