# generated using pymatgen
data_Li4In4Pd4Rh4C
_symmetry_space_group_name_H-M   'P 1'
_cell_length_a   6.29773000
_cell_length_b   6.29773000
_cell_length_c   24.72330000
_cell_angle_alpha   90.00000000
_cell_angle_beta   90.00000000
_cell_angle_gamma   90.00000000
_symmetry_Int_Tables_number   1
_chemical_formula_structural   Li4In4Pd4Rh4C
_chemical_formula_sum   'Li4 In4 Pd4 Rh4 C1'
_cell_volume   980.56076857
_cell_formula_units_Z   1
loop_
 _symmetry_equiv_pos_site_id
 _symmetry_equiv_pos_as_xyz
  1  'x, y, z'
loop_
 _atom_site_type_symbol
 _atom_site_label
 _atom_site_symmetry_multiplicity
 _atom_site_fract_x
 _atom_site_fract_y
 _atom_site_fract_z
 _atom_site_occupancy
  Li  Li0  1  0.00000000  0.50000000  0.09552000  1.0
  Li  Li1  1  0.00000000  0.00000000  0.95833000  1.0
  Li  Li2  1  0.50000000  0.50000000  0.95863000  1.0
  Li  Li3  1  0.50000000  0.00000000  0.09552000  1.0
  In  In4  1  0.00000000  0.00000000  0.09552000  1.0
  In  In5  1  0.00000000  0.50000000  0.97128000  1.0
  In  In6  1  0.50000000  0.00000000  0.96048000  1.0
  In  In7  1  0.50000000  0.50000000  0.09552000  1.0
  Pd  Pd8  1  0.74999000  0.25000000  0.03184000  1.0
  Pd  Pd9  1  0.74777000  0.75209000  0.89750000  1.0
  Pd  Pd10  1  0.25223000  0.24791000  0.89750000  1.0
  Pd  Pd11  1  0.25001000  0.75000000  0.03184000  1.0
  Rh  Rh12  1  0.24999000  0.25000000  0.03184000  1.0
  Rh  Rh13  1  0.20183000  0.70185000  0.88830000  1.0
  Rh  Rh14  1  0.79817000  0.29815000  0.88830000  1.0
  Rh  Rh15  1  0.75001000  0.75000000  0.03184000  1.0
  C  C16  1  0.00000000  0.50000000  0.87192000  1.0
