# generated using pymatgen
data_Li4In4Pd4Rh4C
_symmetry_space_group_name_H-M   P2
_cell_length_a   6.29773000
_cell_length_b   24.72330000
_cell_length_c   6.29773000
_cell_angle_alpha   90.00000000
_cell_angle_beta   90.00000000
_cell_angle_gamma   90.00000000
_symmetry_Int_Tables_number   3
_chemical_formula_structural   Li4In4Pd4Rh4C
_chemical_formula_sum   'Li4 In4 Pd4 Rh4 C1'
_cell_volume   980.56076857
_cell_formula_units_Z   1
loop_
 _symmetry_equiv_pos_site_id
 _symmetry_equiv_pos_as_xyz
  1  'x, y, z'
  2  '-x, y, -z'
loop_
 _atom_site_type_symbol
 _atom_site_label
 _atom_site_symmetry_multiplicity
 _atom_site_fract_x
 _atom_site_fract_y
 _atom_site_fract_z
 _atom_site_occupancy
  Li  Li0  1  0.00000000  0.04167000  0.00000000  1.0
  Li  Li1  1  0.00000000  0.90448000  0.50000000  1.0
  Li  Li2  1  0.50000000  0.04137000  0.50000000  1.0
  Li  Li3  1  0.50000000  0.90448000  0.00000000  1.0
  In  In4  1  0.00000000  0.03952000  0.50000000  1.0
  In  In5  1  0.00000000  0.90448000  0.00000000  1.0
  In  In6  1  0.50000000  0.02872000  0.00000000  1.0
  In  In7  1  0.50000000  0.90448000  0.50000000  1.0
  Pd  Pd8  2  0.24791000  0.10250000  0.25223000  1.0
  Pd  Pd9  2  0.25000000  0.96816000  0.74999000  1.0
  Rh  Rh10  2  0.25000000  0.96816000  0.24999000  1.0
  Rh  Rh11  2  0.29815000  0.11170000  0.79817000  1.0
  C  C12  1  0.50000000  0.12808000  0.00000000  1.0
