data_image0
_chemical_formula_structural       Ti16Ir16CO
_chemical_formula_sum              "Ti16 Ir16 C1 O1"
_cell_length_a       6.26165
_cell_length_b       8.8553
_cell_length_c       26.6415
_cell_angle_alpha    90
_cell_angle_beta     90
_cell_angle_gamma    90

_space_group_name_H-M_alt    "P 1"
_space_group_IT_number       1

loop_
  _space_group_symop_operation_xyz
  'x, y, z'

loop_
  _atom_site_type_symbol
  _atom_site_label
  _atom_site_symmetry_multiplicity
  _atom_site_fract_x
  _atom_site_fract_y
  _atom_site_fract_z
  _atom_site_occupancy
  Ti  Ti1       1.0  0.25000  0.25000  0.87535  1.0000
  Ti  Ti2       1.0  0.25000  0.00000  0.95845  1.0000
  Ti  Ti3       1.0  0.25000  0.25000  0.04155  1.0000
  Ti  Ti4       1.0  0.25000  0.00000  0.12465  1.0000
  Ti  Ti5       1.0  0.25000  0.75000  0.87535  1.0000
  Ti  Ti6       1.0  0.25000  0.50000  0.95845  1.0000
  Ti  Ti7       1.0  0.25000  0.75000  0.04155  1.0000
  Ti  Ti8       1.0  0.25000  0.50000  0.12465  1.0000
  Ti  Ti9       1.0  0.75000  0.25000  0.87535  1.0000
  Ti  Ti10      1.0  0.75000  0.00000  0.95845  1.0000
  Ti  Ti11      1.0  0.75000  0.25000  0.04155  1.0000
  Ti  Ti12      1.0  0.75000  0.00000  0.12465  1.0000
  Ti  Ti13      1.0  0.75000  0.75000  0.87535  1.0000
  Ti  Ti14      1.0  0.75000  0.50000  0.95845  1.0000
  Ti  Ti15      1.0  0.75000  0.75000  0.04155  1.0000
  Ti  Ti16      1.0  0.75000  0.50000  0.12465  1.0000
  Ir  Ir1       1.0  0.00000  0.00000  0.87535  1.0000
  Ir  Ir2       1.0  0.00000  0.25000  0.95845  1.0000
  Ir  Ir3       1.0  0.00000  0.00000  0.04155  1.0000
  Ir  Ir4       1.0  0.00000  0.25000  0.12465  1.0000
  Ir  Ir5       1.0  0.00000  0.50000  0.87535  1.0000
  Ir  Ir6       1.0  0.00000  0.75000  0.95845  1.0000
  Ir  Ir7       1.0  0.00000  0.50000  0.04155  1.0000
  Ir  Ir8       1.0  0.00000  0.75000  0.12465  1.0000
  Ir  Ir9       1.0  0.50000  0.00000  0.87535  1.0000
  Ir  Ir10      1.0  0.50000  0.25000  0.95845  1.0000
  Ir  Ir11      1.0  0.50000  0.00000  0.04155  1.0000
  Ir  Ir12      1.0  0.50000  0.25000  0.12465  1.0000
  Ir  Ir13      1.0  0.50000  0.50000  0.87535  1.0000
  Ir  Ir14      1.0  0.50000  0.75000  0.95845  1.0000
  Ir  Ir15      1.0  0.50000  0.50000  0.04155  1.0000
  Ir  Ir16      1.0  0.50000  0.75000  0.12465  1.0000
  C   C1        1.0  0.00000  0.25000  0.19596  1.0000
  O   O1        1.0  0.00000  0.25000  0.23913  1.0000
