# generated using pymatgen
data_Ti16Ir16CO
_symmetry_space_group_name_H-M   'P 1'
_cell_length_a   6.26165000
_cell_length_b   8.85530000
_cell_length_c   26.64150000
_cell_angle_alpha   90.00000000
_cell_angle_beta   90.00000000
_cell_angle_gamma   90.00000000
_symmetry_Int_Tables_number   1
_chemical_formula_structural   Ti16Ir16CO
_chemical_formula_sum   'Ti16 Ir16 C1 O1'
_cell_volume   1477.23891867
_cell_formula_units_Z   1
loop_
 _symmetry_equiv_pos_site_id
 _symmetry_equiv_pos_as_xyz
  1  'x, y, z'
loop_
 _atom_site_type_symbol
 _atom_site_label
 _atom_site_symmetry_multiplicity
 _atom_site_fract_x
 _atom_site_fract_y
 _atom_site_fract_z
 _atom_site_occupancy
  Ti  Ti0  1  0.25000000  0.00000000  0.87535000  1.0
  Ti  Ti1  1  0.25000000  0.75000000  0.95845000  1.0
  Ti  Ti2  1  0.25517000  0.00000000  0.04190000  1.0
  Ti  Ti3  1  0.25710000  0.74497000  0.12728000  1.0
  Ti  Ti4  1  0.25000000  0.50000000  0.87535000  1.0
  Ti  Ti5  1  0.25000000  0.25000000  0.95845000  1.0
  Ti  Ti6  1  0.24452000  0.50000000  0.04137000  1.0
  Ti  Ti7  1  0.25710000  0.25503000  0.12728000  1.0
  Ti  Ti8  1  0.75000000  0.00000000  0.87535000  1.0
  Ti  Ti9  1  0.75000000  0.75000000  0.95845000  1.0
  Ti  Ti10  1  0.74483000  0.00000000  0.04190000  1.0
  Ti  Ti11  1  0.74290000  0.74497000  0.12728000  1.0
  Ti  Ti12  1  0.75000000  0.50000000  0.87535000  1.0
  Ti  Ti13  1  0.75000000  0.25000000  0.95845000  1.0
  Ti  Ti14  1  0.75548000  0.50000000  0.04137000  1.0
  Ti  Ti15  1  0.74290000  0.25503000  0.12728000  1.0
  Ir  Ir16  1  0.00000000  0.75000000  0.87535000  1.0
  Ir  Ir17  1  0.00000000  0.00000000  0.95845000  1.0
  Ir  Ir18  1  0.00000000  0.76371000  0.04690000  1.0
  Ir  Ir19  1  0.00000000  0.00000000  0.12705000  1.0
  Ir  Ir20  1  0.00000000  0.25000000  0.87535000  1.0
  Ir  Ir21  1  0.00000000  0.50000000  0.95845000  1.0
  Ir  Ir22  1  0.00000000  0.23629000  0.04690000  1.0
  Ir  Ir23  1  0.00000000  0.50000000  0.11884000  1.0
  Ir  Ir24  1  0.50000000  0.75000000  0.87535000  1.0
  Ir  Ir25  1  0.50000000  0.00000000  0.95845000  1.0
  Ir  Ir26  1  0.50000000  0.74408000  0.04057000  1.0
  Ir  Ir27  1  0.50000000  0.00000000  0.11761000  1.0
  Ir  Ir28  1  0.50000000  0.25000000  0.87535000  1.0
  Ir  Ir29  1  0.50000000  0.50000000  0.95845000  1.0
  Ir  Ir30  1  0.50000000  0.25592000  0.04057000  1.0
  Ir  Ir31  1  0.50000000  0.50000000  0.11738000  1.0
  C  C32  1  0.00000000  0.00000000  0.19740000  1.0
  O  O33  1  0.00000000  0.00000000  0.24118000  1.0
