# generated using pymatgen
data_Ti16Ir16CO
_symmetry_space_group_name_H-M   Pmm2
_cell_length_a   6.26165000
_cell_length_b   8.85530000
_cell_length_c   26.64150000
_cell_angle_alpha   90.00000000
_cell_angle_beta   90.00000000
_cell_angle_gamma   90.00000000
_symmetry_Int_Tables_number   25
_chemical_formula_structural   Ti16Ir16CO
_chemical_formula_sum   'Ti16 Ir16 C1 O1'
_cell_volume   1477.23891867
_cell_formula_units_Z   1
loop_
 _symmetry_equiv_pos_site_id
 _symmetry_equiv_pos_as_xyz
  1  'x, y, z'
  2  '-x, -y, z'
  3  '-x, y, z'
  4  'x, -y, z'
loop_
 _atom_site_type_symbol
 _atom_site_label
 _atom_site_symmetry_multiplicity
 _atom_site_fract_x
 _atom_site_fract_y
 _atom_site_fract_z
 _atom_site_occupancy
  Ti  Ti0  4  0.25000000  0.25000000  0.95845000  1.0
  Ti  Ti1  4  0.25710000  0.25503000  0.12728000  1.0
  Ti  Ti2  2  0.24452000  0.50000000  0.04137000  1.0
  Ti  Ti3  2  0.25000000  0.00000000  0.87535000  1.0
  Ti  Ti4  2  0.25000000  0.50000000  0.87535000  1.0
  Ti  Ti5  2  0.25517000  0.00000000  0.04190000  1.0
  Ir  Ir6  2  0.00000000  0.23629000  0.04690000  1.0
  Ir  Ir7  2  0.00000000  0.25000000  0.87535000  1.0
  Ir  Ir8  2  0.50000000  0.25000000  0.87535000  1.0
  Ir  Ir9  2  0.50000000  0.25592000  0.04057000  1.0
  Ir  Ir10  1  0.00000000  0.00000000  0.12705000  1.0
  Ir  Ir11  1  0.00000000  0.00000000  0.95845000  1.0
  Ir  Ir12  1  0.00000000  0.50000000  0.11884000  1.0
  Ir  Ir13  1  0.00000000  0.50000000  0.95845000  1.0
  Ir  Ir14  1  0.50000000  0.00000000  0.11761000  1.0
  Ir  Ir15  1  0.50000000  0.00000000  0.95845000  1.0
  Ir  Ir16  1  0.50000000  0.50000000  0.11738000  1.0
  Ir  Ir17  1  0.50000000  0.50000000  0.95845000  1.0
  C  C18  1  0.00000000  0.00000000  0.19740000  1.0
  O  O19  1  0.00000000  0.00000000  0.24118000  1.0
