# generated using pymatgen
data_Sc8In8Cu16C
_symmetry_space_group_name_H-M   'P 1'
_cell_length_a   9.14213000
_cell_length_b   6.46446000
_cell_length_c   26.85660000
_cell_angle_alpha   90.00000000
_cell_angle_beta   90.00000000
_cell_angle_gamma   90.00000000
_symmetry_Int_Tables_number   1
_chemical_formula_structural   Sc8In8Cu16C
_chemical_formula_sum   'Sc8 In8 Cu16 C1'
_cell_volume   1587.19642280
_cell_formula_units_Z   1
loop_
 _symmetry_equiv_pos_site_id
 _symmetry_equiv_pos_as_xyz
  1  'x, y, z'
loop_
 _atom_site_type_symbol
 _atom_site_label
 _atom_site_symmetry_multiplicity
 _atom_site_fract_x
 _atom_site_fract_y
 _atom_site_fract_z
 _atom_site_occupancy
  Sc  Sc0  1  0.75000000  0.00000000  0.12765000  1.0
  Sc  Sc1  1  0.00000000  0.50000000  0.04255000  1.0
  Sc  Sc2  1  0.50000000  0.50000000  0.04255000  1.0
  Sc  Sc3  1  0.25000000  0.00000000  0.12765000  1.0
  Sc  Sc4  1  0.25815000  0.99608000  0.95876000  1.0
  Sc  Sc5  1  0.50000000  0.48117000  0.87422000  1.0
  Sc  Sc6  1  0.00000000  0.52436000  0.87583000  1.0
  Sc  Sc7  1  0.74185000  0.99608000  0.95876000  1.0
  In  In8  1  0.50000000  0.00000000  0.04255000  1.0
  In  In9  1  0.75000000  0.50000000  0.12765000  1.0
  In  In10  1  0.00000000  0.00000000  0.04255000  1.0
  In  In11  1  0.25000000  0.50000000  0.12765000  1.0
  In  In12  1  0.00000000  0.91522000  0.82656000  1.0
  In  In13  1  0.24361000  0.49754000  0.95722000  1.0
  In  In14  1  0.50000000  0.01045000  0.86958000  1.0
  In  In15  1  0.75639000  0.49754000  0.95722000  1.0
  Cu  Cu16  1  0.75000000  0.25000000  0.04255000  1.0
  Cu  Cu17  1  0.25000000  0.75000000  0.04255000  1.0
  Cu  Cu18  1  0.75000000  0.75000000  0.04255000  1.0
  Cu  Cu19  1  0.25000000  0.25000000  0.04255000  1.0
  Cu  Cu20  1  0.50000000  0.75000000  0.12765000  1.0
  Cu  Cu21  1  0.00000000  0.25000000  0.12765000  1.0
  Cu  Cu22  1  0.50000000  0.25000000  0.12765000  1.0
  Cu  Cu23  1  0.00000000  0.75000000  0.12765000  1.0
  Cu  Cu24  1  0.22118000  0.20384000  0.87074000  1.0
  Cu  Cu25  1  0.73972000  0.75963000  0.87344000  1.0
  Cu  Cu26  1  0.26028000  0.75963000  0.87344000  1.0
  Cu  Cu27  1  0.77882000  0.20384000  0.87074000  1.0
  Cu  Cu28  1  0.00000000  0.77457000  0.95702000  1.0
  Cu  Cu29  1  0.50000000  0.25790000  0.95938000  1.0
  Cu  Cu30  1  0.00000000  0.19864000  0.94479000  1.0
  Cu  Cu31  1  0.50000000  0.73555000  0.95533000  1.0
  C  C32  1  0.00000000  0.21223000  0.86581000  1.0
