# generated using pymatgen
data_Sc8In8Cu16C
_symmetry_space_group_name_H-M   Pm
_cell_length_a   6.46446000
_cell_length_b   9.14213000
_cell_length_c   26.85660000
_cell_angle_alpha   90.00000000
_cell_angle_beta   90.00000000
_cell_angle_gamma   90.00000000
_symmetry_Int_Tables_number   6
_chemical_formula_structural   Sc8In8Cu16C
_chemical_formula_sum   'Sc8 In8 Cu16 C1'
_cell_volume   1587.19642280
_cell_formula_units_Z   1
loop_
 _symmetry_equiv_pos_site_id
 _symmetry_equiv_pos_as_xyz
  1  'x, y, z'
  2  'x, -y, z'
loop_
 _atom_site_type_symbol
 _atom_site_label
 _atom_site_symmetry_multiplicity
 _atom_site_fract_x
 _atom_site_fract_y
 _atom_site_fract_z
 _atom_site_occupancy
  Sc  Sc0  2  0.00000000  0.25000000  0.87235000  1.0
  Sc  Sc1  2  0.99608000  0.25815000  0.04124000  1.0
  Sc  Sc2  1  0.48117000  0.50000000  0.12578000  1.0
  Sc  Sc3  1  0.50000000  0.00000000  0.95745000  1.0
  Sc  Sc4  1  0.50000000  0.50000000  0.95745000  1.0
  Sc  Sc5  1  0.52436000  0.00000000  0.12417000  1.0
  In  In6  2  0.49754000  0.24361000  0.04278000  1.0
  In  In7  2  0.50000000  0.25000000  0.87235000  1.0
  In  In8  1  0.00000000  0.00000000  0.95745000  1.0
  In  In9  1  0.00000000  0.50000000  0.95745000  1.0
  In  In10  1  0.01045000  0.50000000  0.13042000  1.0
  In  In11  1  0.91522000  0.00000000  0.17344000  1.0
  Cu  Cu12  2  0.20384000  0.22118000  0.12926000  1.0
  Cu  Cu13  2  0.25000000  0.25000000  0.95745000  1.0
  Cu  Cu14  2  0.75000000  0.25000000  0.95745000  1.0
  Cu  Cu15  2  0.75963000  0.26028000  0.12656000  1.0
  Cu  Cu16  1  0.19864000  0.00000000  0.05521000  1.0
  Cu  Cu17  1  0.25000000  0.00000000  0.87235000  1.0
  Cu  Cu18  1  0.25000000  0.50000000  0.87235000  1.0
  Cu  Cu19  1  0.25790000  0.50000000  0.04062000  1.0
  Cu  Cu20  1  0.73555000  0.50000000  0.04467000  1.0
  Cu  Cu21  1  0.75000000  0.00000000  0.87235000  1.0
  Cu  Cu22  1  0.75000000  0.50000000  0.87235000  1.0
  Cu  Cu23  1  0.77457000  0.00000000  0.04298000  1.0
  C  C24  1  0.21223000  0.00000000  0.13419000  1.0
