# generated using pymatgen
data_Zr8In8Pt16CO
_symmetry_space_group_name_H-M   Pmm2
_cell_length_a   6.69031000
_cell_length_b   9.46152000
_cell_length_c   27.09610000
_cell_angle_alpha   90.00000000
_cell_angle_beta   90.00000000
_cell_angle_gamma   90.00000000
_symmetry_Int_Tables_number   25
_chemical_formula_structural   Zr8In8Pt16CO
_chemical_formula_sum   'Zr8 In8 Pt16 C1 O1'
_cell_volume   1715.19672875
_cell_formula_units_Z   1
loop_
 _symmetry_equiv_pos_site_id
 _symmetry_equiv_pos_as_xyz
  1  'x, y, z'
  2  '-x, -y, z'
  3  '-x, y, z'
  4  'x, -y, z'
loop_
 _atom_site_type_symbol
 _atom_site_label
 _atom_site_symmetry_multiplicity
 _atom_site_fract_x
 _atom_site_fract_y
 _atom_site_fract_z
 _atom_site_occupancy
  Zr  Zr0  2  0.50000000  0.24951000  0.04594000  1.0
  Zr  Zr1  2  0.50000000  0.25000000  0.86906000  1.0
  Zr  Zr2  1  0.00000000  0.00000000  0.12518000  1.0
  Zr  Zr3  1  0.00000000  0.00000000  0.95635000  1.0
  Zr  Zr4  1  0.00000000  0.50000000  0.12534000  1.0
  Zr  Zr5  1  0.00000000  0.50000000  0.95635000  1.0
  In  In6  2  0.00000000  0.25000000  0.86906000  1.0
  In  In7  2  0.00000000  0.25074000  0.04082000  1.0
  In  In8  1  0.50000000  0.00000000  0.13935000  1.0
  In  In9  1  0.50000000  0.00000000  0.95635000  1.0
  In  In10  1  0.50000000  0.50000000  0.14062000  1.0
  In  In11  1  0.50000000  0.50000000  0.95635000  1.0
  Pt  Pt12  4  0.23873000  0.25000000  0.12603000  1.0
  Pt  Pt13  4  0.24994000  0.25000000  0.95635000  1.0
  Pt  Pt14  2  0.24994000  0.00000000  0.86906000  1.0
  Pt  Pt15  2  0.25006000  0.50000000  0.86906000  1.0
  Pt  Pt16  2  0.25521000  0.00000000  0.04401000  1.0
  Pt  Pt17  2  0.25878000  0.50000000  0.04482000  1.0
  C  C18  1  0.50000000  0.00000000  0.27894000  1.0
  O  O19  1  0.50000000  0.00000000  0.32081000  1.0
