# generated using pymatgen
data_Li8Si8Ni16CO
_symmetry_space_group_name_H-M   Pm
_cell_length_a   5.57854000
_cell_length_b   7.88925000
_cell_length_c   25.91690000
_cell_angle_alpha   90.00000000
_cell_angle_beta   90.00000000
_cell_angle_gamma   90.00000000
_symmetry_Int_Tables_number   6
_chemical_formula_structural   Li8Si8Ni16CO
_chemical_formula_sum   'Li8 Si8 Ni16 C1 O1'
_cell_volume   1140.61564179
_cell_formula_units_Z   1
loop_
 _symmetry_equiv_pos_site_id
 _symmetry_equiv_pos_as_xyz
  1  'x, y, z'
  2  'x, -y, z'
loop_
 _atom_site_type_symbol
 _atom_site_label
 _atom_site_symmetry_multiplicity
 _atom_site_fract_x
 _atom_site_fract_y
 _atom_site_fract_z
 _atom_site_occupancy
  Li  Li0  2  0.49910000  0.22842000  0.13645000  1.0
  Li  Li1  2  0.50000000  0.24996000  0.96195000  1.0
  Li  Li2  1  0.00000000  0.00000000  0.88585000  1.0
  Li  Li3  1  0.00000000  0.50000000  0.88585000  1.0
  Li  Li4  1  0.99946000  0.00000000  0.03285000  1.0
  Li  Li5  1  0.99972000  0.50000000  0.03770000  1.0
  Si  Si6  2  0.00000000  0.25004000  0.96195000  1.0
  Si  Si7  2  0.99924000  0.25231000  0.11137000  1.0
  Si  Si8  1  0.49923000  0.50000000  0.03606000  1.0
  Si  Si9  1  0.49989000  0.00000000  0.03909000  1.0
  Si  Si10  1  0.50000000  0.00000000  0.88585000  1.0
  Si  Si11  1  0.50000000  0.50000000  0.88585000  1.0
  Ni  Ni12  2  0.25000000  0.24996000  0.88585000  1.0
  Ni  Ni13  2  0.25596000  0.25210000  0.03825000  1.0
  Ni  Ni14  2  0.74253000  0.25241000  0.03827000  1.0
  Ni  Ni15  2  0.75000000  0.25004000  0.88585000  1.0
  Ni  Ni16  1  0.22397000  0.00000000  0.10648000  1.0
  Ni  Ni17  1  0.25000000  0.00000000  0.96195000  1.0
  Ni  Ni18  1  0.25000000  0.50000000  0.96195000  1.0
  Ni  Ni19  1  0.25910000  0.50000000  0.11254000  1.0
  Ni  Ni20  1  0.73818000  0.50000000  0.11272000  1.0
  Ni  Ni21  1  0.75000000  0.00000000  0.96195000  1.0
  Ni  Ni22  1  0.75000000  0.50000000  0.96195000  1.0
  Ni  Ni23  1  0.77521000  0.00000000  0.10666000  1.0
  C  C24  1  0.49887000  0.50000000  0.16634000  1.0
  O  O25  1  0.49795000  0.50000000  0.21220000  1.0
