# generated using pymatgen
data_Li4Ge4Pd4Pb4C
_symmetry_space_group_name_H-M   'P 1'
_cell_length_a   6.74945000
_cell_length_b   6.74945000
_cell_length_c   25.06210000
_cell_angle_alpha   90.00000000
_cell_angle_beta   90.00000000
_cell_angle_gamma   90.00000000
_symmetry_Int_Tables_number   1
_chemical_formula_structural   Li4Ge4Pd4Pb4C
_chemical_formula_sum   'Li4 Ge4 Pd4 Pb4 C1'
_cell_volume   1141.70585274
_cell_formula_units_Z   1
loop_
 _symmetry_equiv_pos_site_id
 _symmetry_equiv_pos_as_xyz
  1  'x, y, z'
loop_
 _atom_site_type_symbol
 _atom_site_label
 _atom_site_symmetry_multiplicity
 _atom_site_fract_x
 _atom_site_fract_y
 _atom_site_fract_z
 _atom_site_occupancy
  Li  Li0  1  0.25053500  0.74946500  0.97854000  1
  Li  Li1  1  0.75000000  0.75000000  0.10099000  1
  Li  Li2  1  0.25000000  0.25000000  0.10099000  1
  Li  Li3  1  0.74945000  0.25055000  0.97195000  1
  Ge  Ge4  1  0.04309000  0.95691000  0.90283000  1
  Ge  Ge5  1  0.50000000  1.00000000  0.03366000  1
  Ge  Ge6  1  0.00000000  0.50000000  0.03366000  1
  Ge  Ge7  1  0.45859000  0.54141000  0.90309000  1
  Pd  Pd8  1  0.25005000  0.24962000  0.96567000  1
  Pd  Pd9  1  0.75000000  0.25000000  0.10099000  1
  Pd  Pd10  1  0.25000000  0.75000000  0.10099000  1
  Pd  Pd11  1  0.75038000  0.74995000  0.96567000  1
  Pb  Pb12  1  0.50750000  0.00686000  0.89384000  1
  Pb  Pb13  1  0.00000000  0.00000000  0.03366000  1
  Pb  Pb14  1  0.50000000  0.50000000  0.03366000  1
  Pb  Pb15  1  0.99314000  0.49250000  0.89384000  1
  C  C16  1  0.25105000  0.74895000  0.89484000  1
