# generated using pymatgen
data_Y4Al4In4Pd4CO
_symmetry_space_group_name_H-M   'P 1'
_cell_length_a   6.15545000
_cell_length_b   8.86460000
_cell_length_c   24.58270000
_cell_angle_alpha   90.00000000
_cell_angle_beta   90.00000000
_cell_angle_gamma   90.00000000
_symmetry_Int_Tables_number   1
_chemical_formula_structural   Y4Al4In4Pd4CO
_chemical_formula_sum   'Y4 Al4 In4 Pd4 C1 O1'
_cell_volume   1341.36982601
_cell_formula_units_Z   1
loop_
 _symmetry_equiv_pos_site_id
 _symmetry_equiv_pos_as_xyz
  1  'x, y, z'
loop_
 _atom_site_type_symbol
 _atom_site_label
 _atom_site_symmetry_multiplicity
 _atom_site_fract_x
 _atom_site_fract_y
 _atom_site_fract_z
 _atom_site_occupancy
  Y  Y0  1  0.59548000  0.00000000  0.10803000  1.0
  Y  Y1  1  0.06047000  0.00000000  0.96893000  1.0
  Y  Y2  1  0.47385000  0.49997000  0.09029000  1.0
  Y  Y3  1  0.06047000  0.50000000  0.96893000  1.0
  Al  Al4  1  0.10917000  0.00000000  0.08818000  1.0
  Al  Al5  1  0.56047000  0.00000000  0.96893000  1.0
  Al  Al6  1  0.97459000  0.50004000  0.09151000  1.0
  Al  Al7  1  0.56047000  0.50000000  0.96893000  1.0
  In  In8  1  0.77499000  0.75014000  0.02909000  1.0
  In  In9  1  0.34071000  0.75000000  0.90679000  1.0
  In  In10  1  0.77508000  0.24985000  0.02910000  1.0
  In  In11  1  0.34071000  0.25000000  0.90679000  1.0
  Pd  Pd12  1  0.28903000  0.76718000  0.03926000  1.0
  Pd  Pd13  1  0.84071000  0.75000000  0.90679000  1.0
  Pd  Pd14  1  0.28902000  0.23284000  0.03925000  1.0
  Pd  Pd15  1  0.84071000  0.25000000  0.90679000  1.0
  C  C16  1  0.95969000  0.00003000  0.15770000  1.0
  O  O17  1  0.81935000  0.00002000  0.19306000  1.0
