# generated using pymatgen
data_Cu4Ni8Sb4C
_symmetry_space_group_name_H-M   P1
_cell_length_a   6.01864000
_cell_length_b   6.01864000
_cell_length_c   24.51400000
_cell_angle_alpha   90.00000000
_cell_angle_beta   90.00000000
_cell_angle_gamma   90.00000000
_symmetry_Int_Tables_number   1
_chemical_formula_structural   Cu4Ni8Sb4C
_chemical_formula_sum   'Cu4 Ni8 Sb4 C1'
_cell_volume   887.99580890
_cell_formula_units_Z   1
loop_
 _symmetry_equiv_pos_site_id
 _symmetry_equiv_pos_as_xyz
  1  'x, y, z'
loop_
 _atom_site_type_symbol
 _atom_site_label
 _atom_site_symmetry_multiplicity
 _atom_site_fract_x
 _atom_site_fract_y
 _atom_site_fract_z
 _atom_site_occupancy
  Cu  Cu0  1  0.00000000  0.50000000  0.96931000  1.0
  Cu  Cu1  1  0.01315000  0.01309000  0.09173000  1.0
  Cu  Cu2  1  0.48512000  0.48516000  0.09250000  1.0
  Cu  Cu3  1  0.50000000  0.00000000  0.96931000  1.0
  Ni  Ni4  1  0.25000000  0.25000000  0.90793000  1.0
  Ni  Ni5  1  0.25000000  0.75000000  0.90793000  1.0
  Ni  Ni6  1  0.25014000  0.25055000  0.02967000  1.0
  Ni  Ni7  1  0.25134000  0.74906000  0.03666000  1.0
  Ni  Ni8  1  0.74903000  0.25123000  0.03677000  1.0
  Ni  Ni9  1  0.74915000  0.74906000  0.03206000  1.0
  Ni  Ni10  1  0.75000000  0.25000000  0.90793000  1.0
  Ni  Ni11  1  0.75000000  0.75000000  0.90793000  1.0
  Sb  Sb12  1  0.00000000  0.00000000  0.96931000  1.0
  Sb  Sb13  1  0.50000000  0.50000000  0.96931000  1.0
  Sb  Sb14  1  0.52069000  0.97964000  0.10491000  1.0
  Sb  Sb15  1  0.97971000  0.52077000  0.10490000  1.0
  C  C16  1  0.24840000  0.24840000  0.10704000  1.0
