# generated using pymatgen
data_Li16In8Ir8CO
_symmetry_space_group_name_H-M   'P 1'
_cell_length_a   8.97987000
_cell_length_b   6.34973000
_cell_length_c   26.73490000
_cell_angle_alpha   90.00000000
_cell_angle_beta   90.00000000
_cell_angle_gamma   90.00000000
_symmetry_Int_Tables_number   1
_chemical_formula_structural   Li16In8Ir8CO
_chemical_formula_sum   'Li16 In8 Ir8 C1 O1'
_cell_volume   1524.41731254
_cell_formula_units_Z   1
loop_
 _symmetry_equiv_pos_site_id
 _symmetry_equiv_pos_as_xyz
  1  'x, y, z'
loop_
 _atom_site_type_symbol
 _atom_site_label
 _atom_site_symmetry_multiplicity
 _atom_site_fract_x
 _atom_site_fract_y
 _atom_site_fract_z
 _atom_site_occupancy
  Li  Li0  1  0.50000000  0.00000000  0.04199000  1.0
  Li  Li1  1  0.75000000  0.50000000  0.12596000  1.0
  Li  Li2  1  0.00000000  0.00000000  0.04199000  1.0
  Li  Li3  1  0.25000000  0.50000000  0.12596000  1.0
  Li  Li4  1  0.75000000  0.25000000  0.04199000  1.0
  Li  Li5  1  0.25000000  0.25000000  0.04199000  1.0
  Li  Li6  1  0.50000000  0.75000000  0.12596000  1.0
  Li  Li7  1  0.00000000  0.75000000  0.12596000  1.0
  Li  Li8  1  0.00000000  0.01170000  0.87477000  1.0
  Li  Li9  1  0.25135000  0.49693000  0.95841000  1.0
  Li  Li10  1  0.50000000  0.97754000  0.87815000  1.0
  Li  Li11  1  0.74865000  0.49693000  0.95841000  1.0
  Li  Li12  1  0.26026000  0.26381000  0.86690000  1.0
  Li  Li13  1  0.73974000  0.26381000  0.86690000  1.0
  Li  Li14  1  0.00000000  0.74875000  0.95970000  1.0
  Li  Li15  1  0.50000000  0.74351000  0.96036000  1.0
  In  In16  1  0.00000000  0.25000000  0.12596000  1.0
  In  In17  1  0.50000000  0.25000000  0.12596000  1.0
  In  In18  1  0.25000000  0.75000000  0.04199000  1.0
  In  In19  1  0.75000000  0.75000000  0.04199000  1.0
  In  In20  1  0.50000000  0.24165000  0.95959000  1.0
  In  In21  1  0.00000000  0.24406000  0.96020000  1.0
  In  In22  1  0.75418000  0.73154000  0.87011000  1.0
  In  In23  1  0.24582000  0.73154000  0.87011000  1.0
  Ir  Ir24  1  0.75000000  0.00000000  0.12596000  1.0
  Ir  Ir25  1  0.00000000  0.50000000  0.04199000  1.0
  Ir  Ir26  1  0.50000000  0.50000000  0.04199000  1.0
  Ir  Ir27  1  0.25000000  0.00000000  0.12596000  1.0
  Ir  Ir28  1  0.24964000  0.99272000  0.95275000  1.0
  Ir  Ir29  1  0.50000000  0.51080000  0.88208000  1.0
  Ir  Ir30  1  0.00000000  0.47321000  0.87264000  1.0
  Ir  Ir31  1  0.75036000  0.99272000  0.95275000  1.0
  C  C32  1  0.00000000  0.34368000  0.81058000  1.0
  O  O33  1  0.00000000  0.25968000  0.77136000  1.0
