# generated using pymatgen
data_Li16In8Ir8CO
_symmetry_space_group_name_H-M   Pm
_cell_length_a   6.34973000
_cell_length_b   8.97987000
_cell_length_c   26.73490000
_cell_angle_alpha   90.00000000
_cell_angle_beta   90.00000000
_cell_angle_gamma   90.00000000
_symmetry_Int_Tables_number   6
_chemical_formula_structural   Li16In8Ir8CO
_chemical_formula_sum   'Li16 In8 Ir8 C1 O1'
_cell_volume   1524.41731254
_cell_formula_units_Z   1
loop_
 _symmetry_equiv_pos_site_id
 _symmetry_equiv_pos_as_xyz
  1  'x, y, z'
  2  'x, -y, z'
loop_
 _atom_site_type_symbol
 _atom_site_label
 _atom_site_symmetry_multiplicity
 _atom_site_fract_x
 _atom_site_fract_y
 _atom_site_fract_z
 _atom_site_occupancy
  Li  Li0  2  0.25000000  0.25000000  0.95801000  1.0
  Li  Li1  2  0.26381000  0.26026000  0.13310000  1.0
  Li  Li2  2  0.49693000  0.25135000  0.04159000  1.0
  Li  Li3  2  0.50000000  0.25000000  0.87404000  1.0
  Li  Li4  1  0.00000000  0.00000000  0.95801000  1.0
  Li  Li5  1  0.00000000  0.50000000  0.95801000  1.0
  Li  Li6  1  0.01170000  0.00000000  0.12523000  1.0
  Li  Li7  1  0.74351000  0.50000000  0.03964000  1.0
  Li  Li8  1  0.74875000  0.00000000  0.04030000  1.0
  Li  Li9  1  0.75000000  0.00000000  0.87404000  1.0
  Li  Li10  1  0.75000000  0.50000000  0.87404000  1.0
  Li  Li11  1  0.97754000  0.50000000  0.12185000  1.0
  In  In12  2  0.73154000  0.24582000  0.12989000  1.0
  In  In13  2  0.75000000  0.25000000  0.95801000  1.0
  In  In14  1  0.24165000  0.50000000  0.04041000  1.0
  In  In15  1  0.24406000  0.00000000  0.03980000  1.0
  In  In16  1  0.25000000  0.00000000  0.87404000  1.0
  In  In17  1  0.25000000  0.50000000  0.87404000  1.0
  Ir  Ir18  2  0.00000000  0.25000000  0.87404000  1.0
  Ir  Ir19  2  0.99272000  0.24964000  0.04725000  1.0
  Ir  Ir20  1  0.47321000  0.00000000  0.12736000  1.0
  Ir  Ir21  1  0.50000000  0.00000000  0.95801000  1.0
  Ir  Ir22  1  0.50000000  0.50000000  0.95801000  1.0
  Ir  Ir23  1  0.51080000  0.50000000  0.11792000  1.0
  C  C24  1  0.34368000  0.00000000  0.18942000  1.0
  O  O25  1  0.25968000  0.00000000  0.22864000  1.0
