# generated using pymatgen
data_ScAlInPd
_symmetry_space_group_name_H-M   'P 1'
_cell_length_a   4.15117000
_cell_length_b   4.16850000
_cell_length_c   26.45550000
_cell_angle_alpha   90.00000000
_cell_angle_beta   90.00000000
_cell_angle_gamma   90.00000000
_symmetry_Int_Tables_number   1
_chemical_formula_structural   ScAlInPd
_chemical_formula_sum   'Sc2 Al2 In2 Pd2'
_cell_volume   457.78999707
_cell_formula_units_Z   2
loop_
 _symmetry_equiv_pos_site_id
 _symmetry_equiv_pos_as_xyz
  1  'x, y, z'
loop_
 _atom_site_type_symbol
 _atom_site_label
 _atom_site_symmetry_multiplicity
 _atom_site_fract_x
 _atom_site_fract_y
 _atom_site_fract_z
 _atom_site_occupancy
  Sc  Sc0  1  0.50000000  0.00000000  0.04067000  1.0
  Sc  Sc1  1  0.50000000  0.00000000  0.87799000  1.0
  Al  Al2  1  0.00000000  0.00000000  0.12201000  1.0
  Al  Al3  1  0.00000000  0.00000000  0.95933000  1.0
  In  In4  1  0.50000000  0.50000000  0.12201000  1.0
  In  In5  1  0.50000000  0.50000000  0.95933000  1.0
  Pd  Pd6  1  0.00000000  0.50000000  0.04067000  1.0
  Pd  Pd7  1  0.00000000  0.50000000  0.87799000  1.0
