# generated using pymatgen
data_Y8Mg8In8Pd8CO
_symmetry_space_group_name_H-M   'P 1'
_cell_length_a   9.89420000
_cell_length_b   6.99626000
_cell_length_c   27.42070000
_cell_angle_alpha   90.00000000
_cell_angle_beta   90.00000000
_cell_angle_gamma   90.00000000
_symmetry_Int_Tables_number   1
_chemical_formula_structural   Y8Mg8In8Pd8CO
_chemical_formula_sum   'Y8 Mg8 In8 Pd8 C1 O1'
_cell_volume   1898.12654555
_cell_formula_units_Z   1
loop_
 _symmetry_equiv_pos_site_id
 _symmetry_equiv_pos_as_xyz
  1  'x, y, z'
loop_
 _atom_site_type_symbol
 _atom_site_label
 _atom_site_symmetry_multiplicity
 _atom_site_fract_x
 _atom_site_fract_y
 _atom_site_fract_z
 _atom_site_occupancy
  Y  Y0  1  0.00000000  0.75000000  0.04510000  1.0
  Y  Y1  1  0.50000000  0.75000000  0.04510000  1.0
  Y  Y2  1  0.25000000  0.25000000  0.13531000  1.0
  Y  Y3  1  0.75000000  0.25000000  0.13531000  1.0
  Y  Y4  1  0.50000000  0.73569000  0.85714000  1.0
  Y  Y5  1  0.00000000  0.73922000  0.85942000  1.0
  Y  Y6  1  0.74584000  0.25728000  0.95249000  1.0
  Y  Y7  1  0.25416000  0.25728000  0.95249000  1.0
  Mg  Mg8  1  0.00000000  0.25000000  0.04510000  1.0
  Mg  Mg9  1  0.50000000  0.25000000  0.04510000  1.0
  Mg  Mg10  1  0.25000000  0.75000000  0.13531000  1.0
  Mg  Mg11  1  0.75000000  0.75000000  0.13531000  1.0
  Mg  Mg12  1  0.50000000  0.24083000  0.86384000  1.0
  Mg  Mg13  1  0.00000000  0.24058000  0.86447000  1.0
  Mg  Mg14  1  0.75285000  0.73722000  0.94964000  1.0
  Mg  Mg15  1  0.24715000  0.73722000  0.94964000  1.0
  In  In16  1  0.00000000  0.00000000  0.13531000  1.0
  In  In17  1  0.50000000  0.00000000  0.13531000  1.0
  In  In18  1  0.75000000  0.50000000  0.04510000  1.0
  In  In19  1  0.25000000  0.50000000  0.04510000  1.0
  In  In20  1  0.50000000  0.97947000  0.95033000  1.0
  In  In21  1  0.00000000  0.99430000  0.95243000  1.0
  In  In22  1  0.24778000  0.46133000  0.84304000  1.0
  In  In23  1  0.75222000  0.46133000  0.84304000  1.0
  Pd  Pd24  1  0.25000000  0.00000000  0.04510000  1.0
  Pd  Pd25  1  0.75000000  0.00000000  0.04510000  1.0
  Pd  Pd26  1  0.50000000  0.50000000  0.13531000  1.0
  Pd  Pd27  1  0.00000000  0.50000000  0.13531000  1.0
  Pd  Pd28  1  0.74644000  0.00861000  0.87359000  1.0
  Pd  Pd29  1  0.25356000  0.00861000  0.87359000  1.0
  Pd  Pd30  1  0.00000000  0.50381000  0.95478000  1.0
  Pd  Pd31  1  0.50000000  0.52607000  0.95096000  1.0
  C  C32  1  0.00000000  0.73799000  0.76911000  1.0
  O  O33  1  0.00000000  0.74124000  0.72722000  1.0
