# generated using pymatgen
data_Y8Mg8In8Pd8CO
_symmetry_space_group_name_H-M   Pm
_cell_length_a   6.99626000
_cell_length_b   9.89420000
_cell_length_c   27.42070000
_cell_angle_alpha   90.00000000
_cell_angle_beta   90.00000000
_cell_angle_gamma   90.00000000
_symmetry_Int_Tables_number   6
_chemical_formula_structural   Y8Mg8In8Pd8CO
_chemical_formula_sum   'Y8 Mg8 In8 Pd8 C1 O1'
_cell_volume   1898.12654555
_cell_formula_units_Z   1
loop_
 _symmetry_equiv_pos_site_id
 _symmetry_equiv_pos_as_xyz
  1  'x, y, z'
  2  'x, -y, z'
loop_
 _atom_site_type_symbol
 _atom_site_label
 _atom_site_symmetry_multiplicity
 _atom_site_fract_x
 _atom_site_fract_y
 _atom_site_fract_z
 _atom_site_occupancy
  Y  Y0  2  0.25000000  0.25000000  0.86469000  1.0
  Y  Y1  2  0.25728000  0.25416000  0.04751000  1.0
  Y  Y2  1  0.73569000  0.50000000  0.14286000  1.0
  Y  Y3  1  0.73922000  0.00000000  0.14058000  1.0
  Y  Y4  1  0.75000000  0.00000000  0.95490000  1.0
  Y  Y5  1  0.75000000  0.50000000  0.95490000  1.0
  Mg  Mg6  2  0.73722000  0.24715000  0.05036000  1.0
  Mg  Mg7  2  0.75000000  0.25000000  0.86469000  1.0
  Mg  Mg8  1  0.24058000  0.00000000  0.13553000  1.0
  Mg  Mg9  1  0.24083000  0.50000000  0.13616000  1.0
  Mg  Mg10  1  0.25000000  0.00000000  0.95490000  1.0
  Mg  Mg11  1  0.25000000  0.50000000  0.95490000  1.0
  In  In12  2  0.46133000  0.24778000  0.15696000  1.0
  In  In13  2  0.50000000  0.25000000  0.95490000  1.0
  In  In14  1  0.00000000  0.00000000  0.86469000  1.0
  In  In15  1  0.00000000  0.50000000  0.86469000  1.0
  In  In16  1  0.97947000  0.50000000  0.04967000  1.0
  In  In17  1  0.99430000  0.00000000  0.04757000  1.0
  Pd  Pd18  2  0.00000000  0.25000000  0.95490000  1.0
  Pd  Pd19  2  0.00861000  0.25356000  0.12641000  1.0
  Pd  Pd20  1  0.50000000  0.00000000  0.86469000  1.0
  Pd  Pd21  1  0.50000000  0.50000000  0.86469000  1.0
  Pd  Pd22  1  0.50381000  0.00000000  0.04522000  1.0
  Pd  Pd23  1  0.52607000  0.50000000  0.04904000  1.0
  C  C24  1  0.73799000  0.00000000  0.23089000  1.0
  O  O25  1  0.74124000  0.00000000  0.27278000  1.0
