# generated using pymatgen
data_Y4Sc4In4Pd4CO
_symmetry_space_group_name_H-M   'P 1'
_cell_length_a   9.64246000
_cell_length_b   6.25545000
_cell_length_c   24.46440000
_cell_angle_alpha   90.00000000
_cell_angle_beta   90.00000000
_cell_angle_gamma   90.00000000
_symmetry_Int_Tables_number   1
_chemical_formula_structural   Y4Sc4In4Pd4CO
_chemical_formula_sum   'Y4 Sc4 In4 Pd4 C1 O1'
_cell_volume   1475.64187879
_cell_formula_units_Z   1
loop_
 _symmetry_equiv_pos_site_id
 _symmetry_equiv_pos_as_xyz
  1  'x, y, z'
loop_
 _atom_site_type_symbol
 _atom_site_label
 _atom_site_symmetry_multiplicity
 _atom_site_fract_x
 _atom_site_fract_y
 _atom_site_fract_z
 _atom_site_occupancy
  Y  Y0  1  0.75000000  0.50000000  0.09124000  1.0
  Y  Y1  1  0.75238000  0.81229000  0.97005000  1.0
  Y  Y2  1  0.25000000  0.50000000  0.09124000  1.0
  Y  Y3  1  0.24762000  0.81229000  0.97005000  1.0
  Sc  Sc4  1  0.00000000  0.17315000  0.03041000  1.0
  Sc  Sc5  1  0.00000000  0.50760000  0.92149000  1.0
  Sc  Sc6  1  0.50000000  0.17315000  0.03041000  1.0
  Sc  Sc7  1  0.50000000  0.52079000  0.92230000  1.0
  In  In8  1  0.75000000  0.00000000  0.09124000  1.0
  In  In9  1  0.74794000  0.30254000  0.95597000  1.0
  In  In10  1  0.25000000  0.00000000  0.09124000  1.0
  In  In11  1  0.25206000  0.30254000  0.95597000  1.0
  Pd  Pd12  1  0.00000000  0.67315000  0.03041000  1.0
  Pd  Pd13  1  0.00000000  0.02677000  0.93128000  1.0
  Pd  Pd14  1  0.50000000  0.67315000  0.03041000  1.0
  Pd  Pd15  1  0.50000000  0.01481000  0.93199000  1.0
  C  C16  1  0.00000000  0.52519000  0.82621000  1.0
  O  O17  1  0.00000000  0.52902000  0.77927000  1.0
