# generated using pymatgen
data_Li8Y8Sn8Ge8C
_symmetry_space_group_name_H-M   Pmm2
_cell_length_a   8.52742000
_cell_length_b   8.60818000
_cell_length_c   27.07540000
_cell_angle_alpha   90.00000000
_cell_angle_beta   90.00000000
_cell_angle_gamma   90.00000000
_symmetry_Int_Tables_number   25
_chemical_formula_structural   Li8Y8Sn8Ge8C
_chemical_formula_sum   'Li8 Y8 Sn8 Ge8 C1'
_cell_volume   1987.48506968
_cell_formula_units_Z   1
loop_
 _symmetry_equiv_pos_site_id
 _symmetry_equiv_pos_as_xyz
  1  'x, y, z'
  2  '-x, -y, z'
  3  '-x, y, z'
  4  'x, -y, z'
loop_
 _atom_site_type_symbol
 _atom_site_label
 _atom_site_symmetry_multiplicity
 _atom_site_fract_x
 _atom_site_fract_y
 _atom_site_fract_z
 _atom_site_occupancy
  Li  Li0  1  0.00000000  0.00000000  0.13066000  1.0
  Li  Li1  1  0.00000000  0.00000000  0.94669000  1.0
  Li  Li2  1  0.00000000  0.50000000  0.13066000  1.0
  Li  Li3  1  0.00000000  0.50000000  0.95852000  1.0
  Li  Li4  1  0.50000000  0.00000000  0.13066000  1.0
  Li  Li5  1  0.50000000  0.00000000  0.96149000  1.0
  Li  Li6  1  0.50000000  0.50000000  0.13066000  1.0
  Li  Li7  1  0.50000000  0.50000000  0.95650000  1.0
  Y  Y8  2  0.00000000  0.25000000  0.04355000  1.0
  Y  Y9  2  0.00000000  0.27269000  0.86851000  1.0
  Y  Y10  2  0.50000000  0.25000000  0.04355000  1.0
  Y  Y11  2  0.50000000  0.25404000  0.87277000  1.0
  Sn  Sn12  4  0.25000000  0.25000000  0.13066000  1.0
  Sn  Sn13  4  0.25004000  0.25055000  0.95591000  1.0
  Ge  Ge14  2  0.23118000  0.00000000  0.86223000  1.0
  Ge  Ge15  2  0.25000000  0.00000000  0.04355000  1.0
  Ge  Ge16  2  0.25000000  0.50000000  0.04355000  1.0
  Ge  Ge17  2  0.25920000  0.50000000  0.87526000  1.0
  C  C18  1  0.00000000  0.00000000  0.85745000  1.0
