data_image0
_chemical_formula_structural       Y8Sn8Ge8Pd8CO
_chemical_formula_sum              "Y8 Sn8 Ge8 Pd8 C1 O1"
_cell_length_a       8.65102
_cell_length_b       9.60308
_cell_length_c       26.0859
_cell_angle_alpha    90
_cell_angle_beta     90
_cell_angle_gamma    90

_space_group_name_H-M_alt    "P 1"
_space_group_IT_number       1

loop_
  _space_group_symop_operation_xyz
  'x, y, z'

loop_
  _atom_site_type_symbol
  _atom_site_label
  _atom_site_symmetry_multiplicity
  _atom_site_fract_x
  _atom_site_fract_y
  _atom_site_fract_z
  _atom_site_occupancy
  Y   Y1        1.0  0.25000  0.00000  0.96112  1.0000
  Y   Y2        1.0  0.24960  0.00032  0.11577  1.0000
  Y   Y3        1.0  0.25000  0.50000  0.96112  1.0000
  Y   Y4        1.0  0.24970  0.49983  0.11579  1.0000
  Y   Y5        1.0  0.75000  0.00000  0.96112  1.0000
  Y   Y6        1.0  0.75051  0.00035  0.11578  1.0000
  Y   Y7        1.0  0.75000  0.50000  0.96112  1.0000
  Y   Y8        1.0  0.75041  0.49981  0.11580  1.0000
  Sn  Sn1       1.0  0.00000  0.25000  0.96112  1.0000
  Sn  Sn2       1.0  0.00011  0.25024  0.10359  1.0000
  Sn  Sn3       1.0  0.00000  0.75000  0.96112  1.0000
  Sn  Sn4       1.0  0.00005  0.75003  0.12886  1.0000
  Sn  Sn5       1.0  0.50000  0.25000  0.96112  1.0000
  Sn  Sn6       1.0  0.50001  0.25005  0.12829  1.0000
  Sn  Sn7       1.0  0.50000  0.75000  0.96112  1.0000
  Sn  Sn8       1.0  0.50006  0.75013  0.10342  1.0000
  Ge  Ge1       1.0  0.00000  0.00000  0.88335  1.0000
  Ge  Ge2       1.0  0.00003  0.96285  0.04258  1.0000
  Ge  Ge3       1.0  0.00000  0.50000  0.88335  1.0000
  Ge  Ge4       1.0  0.00003  0.53717  0.04259  1.0000
  Ge  Ge5       1.0  0.50000  0.00000  0.88335  1.0000
  Ge  Ge6       1.0  0.50004  0.03661  0.04288  1.0000
  Ge  Ge7       1.0  0.50000  0.50000  0.88335  1.0000
  Ge  Ge8       1.0  0.50004  0.46349  0.04287  1.0000
  Pd  Pd1       1.0  0.25000  0.25000  0.88335  1.0000
  Pd  Pd2       1.0  0.27451  0.25005  0.04252  1.0000
  Pd  Pd3       1.0  0.25000  0.75000  0.88335  1.0000
  Pd  Pd4       1.0  0.22437  0.75001  0.04291  1.0000
  Pd  Pd5       1.0  0.75000  0.25000  0.88335  1.0000
  Pd  Pd6       1.0  0.72558  0.25005  0.04254  1.0000
  Pd  Pd7       1.0  0.75000  0.75000  0.88335  1.0000
  Pd  Pd8       1.0  0.77572  0.75001  0.04292  1.0000
  C   C1        1.0  0.99594  0.24472  0.27800  1.0000
  O   O1        1.0  0.00169  0.25210  0.32139  1.0000
