# generated using pymatgen
data_Y8Sn8Ge8Pd8CO
_symmetry_space_group_name_H-M   'P 1'
_cell_length_a   8.65102000
_cell_length_b   9.60308000
_cell_length_c   26.08590000
_cell_angle_alpha   90.00000000
_cell_angle_beta   90.00000000
_cell_angle_gamma   90.00000000
_symmetry_Int_Tables_number   1
_chemical_formula_structural   Y8Sn8Ge8Pd8CO
_chemical_formula_sum   'Y8 Sn8 Ge8 Pd8 C1 O1'
_cell_volume   2167.12363163
_cell_formula_units_Z   1
loop_
 _symmetry_equiv_pos_site_id
 _symmetry_equiv_pos_as_xyz
  1  'x, y, z'
loop_
 _atom_site_type_symbol
 _atom_site_label
 _atom_site_symmetry_multiplicity
 _atom_site_fract_x
 _atom_site_fract_y
 _atom_site_fract_z
 _atom_site_occupancy
  Y  Y0  1  0.75000000  0.00000000  0.96112000  1.0
  Y  Y1  1  0.75040000  0.99968000  0.11577000  1.0
  Y  Y2  1  0.75000000  0.50000000  0.96112000  1.0
  Y  Y3  1  0.75030000  0.50017000  0.11579000  1.0
  Y  Y4  1  0.25000000  0.00000000  0.96112000  1.0
  Y  Y5  1  0.24949000  0.99965000  0.11578000  1.0
  Y  Y6  1  0.25000000  0.50000000  0.96112000  1.0
  Y  Y7  1  0.24959000  0.50019000  0.11580000  1.0
  Sn  Sn8  1  0.00000000  0.75000000  0.96112000  1.0
  Sn  Sn9  1  0.99989000  0.74976000  0.10359000  1.0
  Sn  Sn10  1  0.00000000  0.25000000  0.96112000  1.0
  Sn  Sn11  1  0.99995000  0.24997000  0.12886000  1.0
  Sn  Sn12  1  0.50000000  0.75000000  0.96112000  1.0
  Sn  Sn13  1  0.49999000  0.74995000  0.12829000  1.0
  Sn  Sn14  1  0.50000000  0.25000000  0.96112000  1.0
  Sn  Sn15  1  0.49994000  0.24987000  0.10342000  1.0
  Ge  Ge16  1  0.00000000  0.00000000  0.88335000  1.0
  Ge  Ge17  1  0.99997000  0.03715000  0.04258000  1.0
  Ge  Ge18  1  0.00000000  0.50000000  0.88335000  1.0
  Ge  Ge19  1  0.99997000  0.46283000  0.04259000  1.0
  Ge  Ge20  1  0.50000000  0.00000000  0.88335000  1.0
  Ge  Ge21  1  0.49996000  0.96339000  0.04288000  1.0
  Ge  Ge22  1  0.50000000  0.50000000  0.88335000  1.0
  Ge  Ge23  1  0.49996000  0.53651000  0.04287000  1.0
  Pd  Pd24  1  0.75000000  0.75000000  0.88335000  1.0
  Pd  Pd25  1  0.72549000  0.74995000  0.04252000  1.0
  Pd  Pd26  1  0.75000000  0.25000000  0.88335000  1.0
  Pd  Pd27  1  0.77563000  0.24999000  0.04291000  1.0
  Pd  Pd28  1  0.25000000  0.75000000  0.88335000  1.0
  Pd  Pd29  1  0.27442000  0.74995000  0.04254000  1.0
  Pd  Pd30  1  0.25000000  0.25000000  0.88335000  1.0
  Pd  Pd31  1  0.22428000  0.24999000  0.04292000  1.0
  C  C32  1  0.00406000  0.75528000  0.27800000  1.0
  O  O33  1  0.99831000  0.74790000  0.32139000  1.0
