# generated using pymatgen
data_Y8Sn8Ge8Pd8CO
_symmetry_space_group_name_H-M   P1
_cell_length_a   8.65102000
_cell_length_b   9.60308000
_cell_length_c   26.08590000
_cell_angle_alpha   90.00000000
_cell_angle_beta   90.00000000
_cell_angle_gamma   90.00000000
_symmetry_Int_Tables_number   1
_chemical_formula_structural   Y8Sn8Ge8Pd8CO
_chemical_formula_sum   'Y8 Sn8 Ge8 Pd8 C1 O1'
_cell_volume   2167.12363163
_cell_formula_units_Z   1
loop_
 _symmetry_equiv_pos_site_id
 _symmetry_equiv_pos_as_xyz
  1  'x, y, z'
loop_
 _atom_site_type_symbol
 _atom_site_label
 _atom_site_symmetry_multiplicity
 _atom_site_fract_x
 _atom_site_fract_y
 _atom_site_fract_z
 _atom_site_occupancy
  Y  Y0  1  0.24960000  0.00032000  0.11577000  1.0
  Y  Y1  1  0.24970000  0.49983000  0.11579000  1.0
  Y  Y2  1  0.25000000  0.00000000  0.96112000  1.0
  Y  Y3  1  0.25000000  0.50000000  0.96112000  1.0
  Y  Y4  1  0.75000000  0.00000000  0.96112000  1.0
  Y  Y5  1  0.75000000  0.50000000  0.96112000  1.0
  Y  Y6  1  0.75041000  0.49981000  0.11580000  1.0
  Y  Y7  1  0.75051000  0.00035000  0.11578000  1.0
  Sn  Sn8  1  0.00000000  0.25000000  0.96112000  1.0
  Sn  Sn9  1  0.00000000  0.75000000  0.96112000  1.0
  Sn  Sn10  1  0.00005000  0.75003000  0.12886000  1.0
  Sn  Sn11  1  0.00011000  0.25024000  0.10359000  1.0
  Sn  Sn12  1  0.50000000  0.25000000  0.96112000  1.0
  Sn  Sn13  1  0.50000000  0.75000000  0.96112000  1.0
  Sn  Sn14  1  0.50001000  0.25005000  0.12829000  1.0
  Sn  Sn15  1  0.50006000  0.75013000  0.10342000  1.0
  Ge  Ge16  1  0.00000000  0.00000000  0.88335000  1.0
  Ge  Ge17  1  0.00000000  0.50000000  0.88335000  1.0
  Ge  Ge18  1  0.00003000  0.53717000  0.04259000  1.0
  Ge  Ge19  1  0.00003000  0.96285000  0.04258000  1.0
  Ge  Ge20  1  0.50000000  0.00000000  0.88335000  1.0
  Ge  Ge21  1  0.50000000  0.50000000  0.88335000  1.0
  Ge  Ge22  1  0.50004000  0.03661000  0.04288000  1.0
  Ge  Ge23  1  0.50004000  0.46349000  0.04287000  1.0
  Pd  Pd24  1  0.22437000  0.75001000  0.04291000  1.0
  Pd  Pd25  1  0.25000000  0.25000000  0.88335000  1.0
  Pd  Pd26  1  0.25000000  0.75000000  0.88335000  1.0
  Pd  Pd27  1  0.27451000  0.25005000  0.04252000  1.0
  Pd  Pd28  1  0.72558000  0.25005000  0.04254000  1.0
  Pd  Pd29  1  0.75000000  0.25000000  0.88335000  1.0
  Pd  Pd30  1  0.75000000  0.75000000  0.88335000  1.0
  Pd  Pd31  1  0.77572000  0.75001000  0.04292000  1.0
  C  C32  1  0.99594000  0.24472000  0.27800000  1.0
  O  O33  1  0.00169000  0.25210000  0.32139000  1.0
