# generated using pymatgen
data_Sc4Al4In4Pd4CO
_symmetry_space_group_name_H-M   Pm
_cell_length_a   5.97945000
_cell_length_b   8.33700000
_cell_length_c   24.48170000
_cell_angle_alpha   90.00000000
_cell_angle_beta   90.00000000
_cell_angle_gamma   90.00000000
_symmetry_Int_Tables_number   6
_chemical_formula_structural   Sc4Al4In4Pd4CO
_chemical_formula_sum   'Sc4 Al4 In4 Pd4 C1 O1'
_cell_volume   1220.42926158
_cell_formula_units_Z   1
loop_
 _symmetry_equiv_pos_site_id
 _symmetry_equiv_pos_as_xyz
  1  'x, y, z'
  2  'x, -y, z'
loop_
 _atom_site_type_symbol
 _atom_site_label
 _atom_site_symmetry_multiplicity
 _atom_site_fract_x
 _atom_site_fract_y
 _atom_site_fract_z
 _atom_site_occupancy
  Sc  Sc0  2  0.50000000  0.25000000  0.90847000  1.0
  Sc  Sc1  2  0.97082000  0.25028000  0.03442000  1.0
  Al  Al2  2  0.00000000  0.25000000  0.90847000  1.0
  Al  Al3  2  0.47899000  0.25090000  0.03438000  1.0
  In  In4  1  0.24098000  0.00000000  0.96949000  1.0
  In  In5  1  0.24098000  0.50000000  0.96949000  1.0
  In  In6  1  0.70379000  0.00000000  0.10167000  1.0
  In  In7  1  0.70464000  0.50000000  0.10286000  1.0
  Pd  Pd8  1  0.21918000  0.00000000  0.08302000  1.0
  Pd  Pd9  1  0.22169000  0.50000000  0.08320000  1.0
  Pd  Pd10  1  0.74098000  0.00000000  0.96949000  1.0
  Pd  Pd11  1  0.74098000  0.50000000  0.96949000  1.0
  C  C12  1  0.61589000  0.00000000  0.25204000  1.0
  O  O13  1  0.76000000  0.00000000  0.28227000  1.0
