# generated using pymatgen
data_Li8Mg8Ge8Au8C
_symmetry_space_group_name_H-M   Pm
_cell_length_a   6.50951000
_cell_length_b   9.20584000
_cell_length_c   26.90440000
_cell_angle_alpha   90.00000000
_cell_angle_beta   90.00000000
_cell_angle_gamma   90.00000000
_symmetry_Int_Tables_number   6
_chemical_formula_structural   Li8Mg8Ge8Au8C
_chemical_formula_sum   'Li8 Mg8 Ge8 Au8 C1'
_cell_volume   1612.25982502
_cell_formula_units_Z   1
loop_
 _symmetry_equiv_pos_site_id
 _symmetry_equiv_pos_as_xyz
  1  'x, y, z'
  2  'x, -y, z'
loop_
 _atom_site_type_symbol
 _atom_site_label
 _atom_site_symmetry_multiplicity
 _atom_site_fract_x
 _atom_site_fract_y
 _atom_site_fract_z
 _atom_site_occupancy
  Li  Li0  2  0.24002000  0.23531000  0.04450000  1.0
  Li  Li1  2  0.25000000  0.25000000  0.87169000  1.0
  Li  Li2  1  0.74415000  0.50000000  0.13570000  1.0
  Li  Li3  1  0.75000000  0.00000000  0.95723000  1.0
  Li  Li4  1  0.75000000  0.50000000  0.95723000  1.0
  Li  Li5  1  0.75631000  0.00000000  0.14345000  1.0
  Mg  Mg6  2  0.75000000  0.25000000  0.87169000  1.0
  Mg  Mg7  2  0.76382000  0.27546000  0.04466000  1.0
  Mg  Mg8  1  0.17990000  0.00000000  0.13981000  1.0
  Mg  Mg9  1  0.23134000  0.50000000  0.14678000  1.0
  Mg  Mg10  1  0.25000000  0.00000000  0.95723000  1.0
  Mg  Mg11  1  0.25000000  0.50000000  0.95723000  1.0
  Ge  Ge12  2  -0.00000000  0.25000000  0.95723000  1.0
  Ge  Ge13  2  0.97861000  0.25967000  0.13732000  1.0
  Ge  Ge14  1  0.46972000  0.50000000  0.05704000  1.0
  Ge  Ge15  1  0.50000000  0.00000000  0.87169000  1.0
  Ge  Ge16  1  0.50000000  0.50000000  0.87169000  1.0
  Ge  Ge17  1  0.53967000  0.00000000  0.04067000  1.0
  Au  Au18  2  0.48211000  0.25344000  0.12463000  1.0
  Au  Au19  2  0.50000000  0.25000000  0.95723000  1.0
  Au  Au20  1  0.00000000  0.00000000  0.87169000  1.0
  Au  Au21  1  0.00000000  0.50000000  0.87169000  1.0
  Au  Au22  1  0.04804000  0.50000000  0.04984000  1.0
  Au  Au23  1  0.97264000  0.00000000  0.04102000  1.0
  C  C24  1  0.47662000  0.00000000  0.10894000  1.0
