data_image0
_chemical_formula_structural       Al8Cr8Co16C
_chemical_formula_sum              "Al8 Cr8 Co16 C1"
_cell_length_a       5.71826
_cell_length_b       8.08683
_cell_length_c       26.0651
_cell_angle_alpha    90
_cell_angle_beta     90
_cell_angle_gamma    90

_space_group_name_H-M_alt    "P 1"
_space_group_IT_number       1

loop_
  _space_group_symop_operation_xyz
  'x, y, z'

loop_
  _atom_site_type_symbol
  _atom_site_label
  _atom_site_symmetry_multiplicity
  _atom_site_fract_x
  _atom_site_fract_y
  _atom_site_fract_z
  _atom_site_occupancy
  Al  Al1       1.0  0.00000  0.00000  0.88365  1.0000
  Al  Al2       1.0  0.50000  0.25000  0.96122  1.0000
  Al  Al3       1.0  0.50000  0.75000  0.96122  1.0000
  Al  Al4       1.0  0.00000  0.50000  0.88365  1.0000
  Al  Al5       1.0  1.00000  0.50000  0.03952  1.0000
  Al  Al6       1.0  0.50000  0.74560  0.11810  1.0000
  Al  Al7       1.0  0.50000  0.25440  0.11810  1.0000
  Al  Al8       1.0  0.00000  0.00000  0.03784  1.0000
  Cr  Cr1       1.0  0.00000  0.75000  0.96122  1.0000
  Cr  Cr2       1.0  0.50000  0.00000  0.88365  1.0000
  Cr  Cr3       1.0  0.00000  0.25000  0.96122  1.0000
  Cr  Cr4       1.0  0.50000  0.50000  0.88365  1.0000
  Cr  Cr5       1.0  1.00000  0.24542  0.11942  1.0000
  Cr  Cr6       1.0  0.50000  0.50000  0.04128  1.0000
  Cr  Cr7       1.0  0.00000  0.75458  0.11942  1.0000
  Cr  Cr8       1.0  0.50000  1.00000  0.03536  1.0000
  Co  Co1       1.0  0.25000  0.00000  0.96122  1.0000
  Co  Co2       1.0  0.75000  0.50000  0.96122  1.0000
  Co  Co3       1.0  0.75000  0.00000  0.96122  1.0000
  Co  Co4       1.0  0.25000  0.50000  0.96122  1.0000
  Co  Co5       1.0  0.75000  0.75000  0.88365  1.0000
  Co  Co6       1.0  0.25000  0.25000  0.88365  1.0000
  Co  Co7       1.0  0.25000  0.75000  0.88365  1.0000
  Co  Co8       1.0  0.75000  0.25000  0.88365  1.0000
  Co  Co9       1.0  0.25319  0.50001  0.11352  1.0000
  Co  Co10      1.0  0.72014  0.99999  0.11423  1.0000
  Co  Co11      1.0  0.74681  0.50001  0.11352  1.0000
  Co  Co12      1.0  0.27986  0.99999  0.11423  1.0000
  Co  Co13      1.0  0.75055  0.24867  0.03866  1.0000
  Co  Co14      1.0  0.24944  0.75133  0.03865  1.0000
  Co  Co15      1.0  0.24945  0.24867  0.03866  1.0000
  Co  Co16      1.0  0.75056  0.75133  0.03865  1.0000
  C   C1        1.0  0.00000  0.00000  0.14815  1.0000
