data_image0
_chemical_formula_structural       Li12Sb4CO
_chemical_formula_sum              "Li12 Sb4 C1 O1"
_cell_length_a       6.56971
_cell_length_b       6.56971
_cell_length_c       24.9273
_cell_angle_alpha    90
_cell_angle_beta     90
_cell_angle_gamma    90

_space_group_name_H-M_alt    "P 1"
_space_group_IT_number       1

loop_
  _space_group_symop_operation_xyz
  'x, y, z'

loop_
  _atom_site_type_symbol
  _atom_site_label
  _atom_site_symmetry_multiplicity
  _atom_site_fract_x
  _atom_site_fract_y
  _atom_site_fract_z
  _atom_site_occupancy
  Li  Li1       1.0  0.25251  0.24753  0.03843  1.0000
  Li  Li2       1.0  0.75000  0.75000  0.90117  1.0000
  Li  Li3       1.0  0.74752  0.24756  0.03843  1.0000
  Li  Li4       1.0  0.25000  0.75000  0.90117  1.0000
  Li  Li5       1.0  0.74752  0.75241  0.03843  1.0000
  Li  Li6       1.0  0.25000  0.25000  0.90117  1.0000
  Li  Li7       1.0  0.25247  0.75248  0.03844  1.0000
  Li  Li8       1.0  0.75000  0.25000  0.90117  1.0000
  Li  Li9       1.0  0.00000  0.00000  0.96706  1.0000
  Li  Li10      1.0  0.50004  0.00013  0.11864  1.0000
  Li  Li11      1.0  0.99998  0.50002  0.11535  1.0000
  Li  Li12      1.0  0.50000  0.50000  0.96706  1.0000
  Sb  Sb1       1.0  0.99998  0.00002  0.09962  1.0000
  Sb  Sb2       1.0  0.50000  0.49999  0.09961  1.0000
  Sb  Sb3       1.0  0.50000  0.00000  0.96706  1.0000
  Sb  Sb4       1.0  0.00000  0.50000  0.96706  1.0000
  C   C1        1.0  0.99994  0.50000  0.19953  1.0000
  O   O1        1.0  0.99999  0.49999  0.24503  1.0000
