# generated using pymatgen
data_Li12Sb4CO
_symmetry_space_group_name_H-M   P1
_cell_length_a   6.56971000
_cell_length_b   6.56971000
_cell_length_c   24.92730000
_cell_angle_alpha   90.00000000
_cell_angle_beta   90.00000000
_cell_angle_gamma   90.00000000
_symmetry_Int_Tables_number   1
_chemical_formula_structural   Li12Sb4CO
_chemical_formula_sum   'Li12 Sb4 C1 O1'
_cell_volume   1075.88942590
_cell_formula_units_Z   1
loop_
 _symmetry_equiv_pos_site_id
 _symmetry_equiv_pos_as_xyz
  1  'x, y, z'
loop_
 _atom_site_type_symbol
 _atom_site_label
 _atom_site_symmetry_multiplicity
 _atom_site_fract_x
 _atom_site_fract_y
 _atom_site_fract_z
 _atom_site_occupancy
  Li  Li0  1  0.00000000  0.00000000  0.96706000  1.0
  Li  Li1  1  0.25000000  0.25000000  0.90117000  1.0
  Li  Li2  1  0.25000000  0.75000000  0.90117000  1.0
  Li  Li3  1  0.25247000  0.75248000  0.03844000  1.0
  Li  Li4  1  0.25251000  0.24753000  0.03843000  1.0
  Li  Li5  1  0.50000000  0.50000000  0.96706000  1.0
  Li  Li6  1  0.50004000  0.00013000  0.11864000  1.0
  Li  Li7  1  0.74752000  0.24756000  0.03843000  1.0
  Li  Li8  1  0.74752000  0.75241000  0.03843000  1.0
  Li  Li9  1  0.75000000  0.25000000  0.90117000  1.0
  Li  Li10  1  0.75000000  0.75000000  0.90117000  1.0
  Li  Li11  1  0.99998000  0.50002000  0.11535000  1.0
  Sb  Sb12  1  0.00000000  0.50000000  0.96706000  1.0
  Sb  Sb13  1  0.50000000  0.00000000  0.96706000  1.0
  Sb  Sb14  1  0.50000000  0.49999000  0.09961000  1.0
  Sb  Sb15  1  0.99998000  0.00002000  0.09962000  1.0
  C  C16  1  0.99994000  0.50000000  0.19953000  1.0
  O  O17  1  0.99999000  0.49999000  0.24503000  1.0
