# generated using pymatgen
data_Sc8In8Cu8Pd8CO
_symmetry_space_group_name_H-M   'P 1'
_cell_length_a   9.24656000
_cell_length_b   6.53831000
_cell_length_c   26.93490000
_cell_angle_alpha   90.00000000
_cell_angle_beta   90.00000000
_cell_angle_gamma   90.00000000
_symmetry_Int_Tables_number   1
_chemical_formula_structural   Sc8In8Cu8Pd8CO
_chemical_formula_sum   'Sc8 In8 Cu8 Pd8 C1 O1'
_cell_volume   1628.39990166
_cell_formula_units_Z   1
loop_
 _symmetry_equiv_pos_site_id
 _symmetry_equiv_pos_as_xyz
  1  'x, y, z'
loop_
 _atom_site_type_symbol
 _atom_site_label
 _atom_site_symmetry_multiplicity
 _atom_site_fract_x
 _atom_site_fract_y
 _atom_site_fract_z
 _atom_site_occupancy
  Sc  Sc0  1  0.00000000  0.75000000  0.04291000  1.0
  Sc  Sc1  1  0.50000000  0.75000000  0.04291000  1.0
  Sc  Sc2  1  0.25000000  0.25000000  0.12873000  1.0
  Sc  Sc3  1  0.75000000  0.25000000  0.12873000  1.0
  Sc  Sc4  1  0.50000000  0.75508000  0.87114000  1.0
  Sc  Sc5  1  0.00000000  0.75592000  0.87291000  1.0
  Sc  Sc6  1  0.74787000  0.24689000  0.95531000  1.0
  Sc  Sc7  1  0.25213000  0.24689000  0.95531000  1.0
  In  In8  1  0.00000000  0.25000000  0.04291000  1.0
  In  In9  1  0.50000000  0.25000000  0.04291000  1.0
  In  In10  1  0.25000000  0.75000000  0.12873000  1.0
  In  In11  1  0.75000000  0.75000000  0.12873000  1.0
  In  In12  1  0.50000000  0.25791000  0.86423000  1.0
  In  In13  1  0.00000000  0.25506000  0.86416000  1.0
  In  In14  1  0.75240000  0.75014000  0.95681000  1.0
  In  In15  1  0.24760000  0.75014000  0.95681000  1.0
  Cu  Cu16  1  0.00000000  0.00000000  0.12873000  1.0
  Cu  Cu17  1  0.50000000  0.00000000  0.12873000  1.0
  Cu  Cu18  1  0.75000000  0.50000000  0.04291000  1.0
  Cu  Cu19  1  0.25000000  0.50000000  0.04291000  1.0
  Cu  Cu20  1  0.50000000  0.99672000  0.95543000  1.0
  Cu  Cu21  1  0.00000000  0.00925000  0.95700000  1.0
  Cu  Cu22  1  0.25029000  0.49856000  0.87263000  1.0
  Cu  Cu23  1  0.74971000  0.49856000  0.87263000  1.0
  Pd  Pd24  1  0.25000000  0.00000000  0.04291000  1.0
  Pd  Pd25  1  0.75000000  0.00000000  0.04291000  1.0
  Pd  Pd26  1  0.50000000  0.50000000  0.12873000  1.0
  Pd  Pd27  1  0.00000000  0.50000000  0.12873000  1.0
  Pd  Pd28  1  0.74738000  0.00598000  0.87291000  1.0
  Pd  Pd29  1  0.25262000  0.00598000  0.87291000  1.0
  Pd  Pd30  1  0.00000000  0.49216000  0.95589000  1.0
  Pd  Pd31  1  0.50000000  0.50365000  0.95527000  1.0
  C  C32  1  0.00000000  0.74352000  0.78706000  1.0
  O  O33  1  0.00000000  0.74158000  0.74448000  1.0
