# generated using pymatgen
data_Li8Al8Sn8Pd8C
_symmetry_space_group_name_H-M   'P 1'
_cell_length_a   9.17742000
_cell_length_b   6.48942000
_cell_length_c   26.88310000
_cell_angle_alpha   90.00000000
_cell_angle_beta   90.00000000
_cell_angle_gamma   90.00000000
_symmetry_Int_Tables_number   1
_chemical_formula_structural   Li8Al8Sn8Pd8C
_chemical_formula_sum   'Li8 Al8 Sn8 Pd8 C1'
_cell_volume   1601.05347627
_cell_formula_units_Z   1
loop_
 _symmetry_equiv_pos_site_id
 _symmetry_equiv_pos_as_xyz
  1  'x, y, z'
loop_
 _atom_site_type_symbol
 _atom_site_label
 _atom_site_symmetry_multiplicity
 _atom_site_fract_x
 _atom_site_fract_y
 _atom_site_fract_z
 _atom_site_occupancy
  Li  Li0  1  0.00000000  0.75000000  0.04267000  1.0
  Li  Li1  1  0.50000000  0.75000000  0.04267000  1.0
  Li  Li2  1  0.25000000  0.25000000  0.12802000  1.0
  Li  Li3  1  0.75000000  0.25000000  0.12802000  1.0
  Li  Li4  1  0.50000000  0.66450000  0.85114000  1.0
  Li  Li5  1  0.00000000  0.80369000  0.82923000  1.0
  Li  Li6  1  0.75011000  0.22833000  0.95285000  1.0
  Li  Li7  1  0.24989000  0.22833000  0.95285000  1.0
  Al  Al8  1  0.00000000  0.00000000  0.12802000  1.0
  Al  Al9  1  0.50000000  1.00000000  0.12802000  1.0
  Al  Al10  1  0.75000000  0.50000000  0.04267000  1.0
  Al  Al11  1  0.25000000  0.50000000  0.04267000  1.0
  Al  Al12  1  0.50000000  0.96976000  0.95035000  1.0
  Al  Al13  1  0.00000000  0.94308000  0.94809000  1.0
  Al  Al14  1  0.21329000  0.51816000  0.87066000  1.0
  Al  Al15  1  0.78671000  0.51816000  0.87066000  1.0
  Sn  Sn16  1  0.25000000  0.00000000  0.04267000  1.0
  Sn  Sn17  1  0.75000000  0.00000000  0.04267000  1.0
  Sn  Sn18  1  0.50000000  0.50000000  0.12802000  1.0
  Sn  Sn19  1  0.00000000  0.50000000  0.12802000  1.0
  Sn  Sn20  1  0.73338000  0.97650000  0.86404000  1.0
  Sn  Sn21  1  0.26662000  0.97650000  0.86404000  1.0
  Sn  Sn22  1  0.00000000  0.49534000  0.95430000  1.0
  Sn  Sn23  1  0.50000000  0.50017000  0.95793000  1.0
  Pd  Pd24  1  0.00000000  0.25000000  0.04267000  1.0
  Pd  Pd25  1  0.50000000  0.25000000  0.04267000  1.0
  Pd  Pd26  1  0.25000000  0.75000000  0.12802000  1.0
  Pd  Pd27  1  0.75000000  0.75000000  0.12802000  1.0
  Pd  Pd28  1  0.50000000  0.24533000  0.88025000  1.0
  Pd  Pd29  1  0.00000000  0.18456000  0.87832000  1.0
  Pd  Pd30  1  0.74907000  0.74448000  0.96191000  1.0
  Pd  Pd31  1  0.25093000  0.74448000  0.96191000  1.0
  C  C32  1  0.00000000  0.51984000  0.86300000  1.0
