# generated using pymatgen
data_Li8Al8Sn8Pd8C
_symmetry_space_group_name_H-M   Pm
_cell_length_a   6.48942000
_cell_length_b   9.17742000
_cell_length_c   26.88310000
_cell_angle_alpha   90.00000000
_cell_angle_beta   90.00000000
_cell_angle_gamma   90.00000000
_symmetry_Int_Tables_number   6
_chemical_formula_structural   Li8Al8Sn8Pd8C
_chemical_formula_sum   'Li8 Al8 Sn8 Pd8 C1'
_cell_volume   1601.05347627
_cell_formula_units_Z   1
loop_
 _symmetry_equiv_pos_site_id
 _symmetry_equiv_pos_as_xyz
  1  'x, y, z'
  2  'x, -y, z'
loop_
 _atom_site_type_symbol
 _atom_site_label
 _atom_site_symmetry_multiplicity
 _atom_site_fract_x
 _atom_site_fract_y
 _atom_site_fract_z
 _atom_site_occupancy
  Li  Li0  2  0.22833000  0.24989000  0.04715000  1.0
  Li  Li1  2  0.25000000  0.25000000  0.87198000  1.0
  Li  Li2  1  0.66450000  0.50000000  0.14886000  1.0
  Li  Li3  1  0.75000000  0.00000000  0.95733000  1.0
  Li  Li4  1  0.75000000  0.50000000  0.95733000  1.0
  Li  Li5  1  0.80369000  0.00000000  0.17077000  1.0
  Al  Al6  2  0.50000000  0.25000000  0.95733000  1.0
  Al  Al7  2  0.51816000  0.21329000  0.12934000  1.0
  Al  Al8  1  -0.00000000  0.50000000  0.87198000  1.0
  Al  Al9  1  0.00000000  0.00000000  0.87198000  1.0
  Al  Al10  1  0.94308000  0.00000000  0.05191000  1.0
  Al  Al11  1  0.96976000  0.50000000  0.04965000  1.0
  Sn  Sn12  2  0.00000000  0.25000000  0.95733000  1.0
  Sn  Sn13  2  0.97650000  0.26662000  0.13596000  1.0
  Sn  Sn14  1  0.49534000  0.00000000  0.04570000  1.0
  Sn  Sn15  1  0.50000000  0.00000000  0.87198000  1.0
  Sn  Sn16  1  0.50000000  0.50000000  0.87198000  1.0
  Sn  Sn17  1  0.50017000  0.50000000  0.04207000  1.0
  Pd  Pd18  2  0.74448000  0.25093000  0.03809000  1.0
  Pd  Pd19  2  0.75000000  0.25000000  0.87198000  1.0
  Pd  Pd20  1  0.18456000  0.00000000  0.12168000  1.0
  Pd  Pd21  1  0.24533000  0.50000000  0.11975000  1.0
  Pd  Pd22  1  0.25000000  0.00000000  0.95733000  1.0
  Pd  Pd23  1  0.25000000  0.50000000  0.95733000  1.0
  C  C24  1  0.51984000  0.00000000  0.13700000  1.0
