# generated using pymatgen
data_Fe12Ge4C
_symmetry_space_group_name_H-M   Pmm2
_cell_length_a   5.20259000
_cell_length_b   7.35757000
_cell_length_c   23.90190000
_cell_angle_alpha   90.00000000
_cell_angle_beta   90.00000000
_cell_angle_gamma   90.00000000
_symmetry_Int_Tables_number   25
_chemical_formula_structural   Fe12Ge4C
_chemical_formula_sum   'Fe12 Ge4 C1'
_cell_volume   914.92696954
_cell_formula_units_Z   1
loop_
 _symmetry_equiv_pos_site_id
 _symmetry_equiv_pos_as_xyz
  1  'x, y, z'
  2  '-x, -y, z'
  3  '-x, y, z'
  4  'x, -y, z'
loop_
 _atom_site_type_symbol
 _atom_site_label
 _atom_site_symmetry_multiplicity
 _atom_site_fract_x
 _atom_site_fract_y
 _atom_site_fract_z
 _atom_site_occupancy
  Fe  Fe0  4  0.25000000  0.25000000  0.02721000  1.0
  Fe  Fe1  4  0.25000000  0.25000000  0.91838000  1.0
  Fe  Fe2  1  0.00000000  0.00000000  0.97279000  1.0
  Fe  Fe3  1  0.00000000  0.50000000  0.97279000  1.0
  Fe  Fe4  1  0.50000000  0.00000000  0.08162000  1.0
  Fe  Fe5  1  0.50000000  0.50000000  0.08162000  1.0
  Ge  Ge6  1  0.00000000  0.00000000  0.08162000  1.0
  Ge  Ge7  1  0.00000000  0.50000000  0.08162000  1.0
  Ge  Ge8  1  0.50000000  0.00000000  0.97279000  1.0
  Ge  Ge9  1  0.50000000  0.50000000  0.97279000  1.0
  C  C10  1  0.50000000  0.00000000  0.88491000  1.0
