# generated using pymatgen
data_Y8In8Au16CO
_symmetry_space_group_name_H-M   'P 1'
_cell_length_a   9.99173000
_cell_length_b   7.06522000
_cell_length_c   27.49380000
_cell_angle_alpha   90.00000000
_cell_angle_beta   90.00000000
_cell_angle_gamma   90.00000000
_symmetry_Int_Tables_number   1
_chemical_formula_structural   Y8In8Au16CO
_chemical_formula_sum   'Y8 In8 Au16 C1 O1'
_cell_volume   1940.89101096
_cell_formula_units_Z   1
loop_
 _symmetry_equiv_pos_site_id
 _symmetry_equiv_pos_as_xyz
  1  'x, y, z'
loop_
 _atom_site_type_symbol
 _atom_site_label
 _atom_site_symmetry_multiplicity
 _atom_site_fract_x
 _atom_site_fract_y
 _atom_site_fract_z
 _atom_site_occupancy
  Y  Y0  1  0.00000000  0.00000000  0.13628000  1.0
  Y  Y1  1  0.25000000  0.50000000  0.04543000  1.0
  Y  Y2  1  0.75000000  0.50000000  0.04543000  1.0
  Y  Y3  1  0.50000000  0.00000000  0.13628000  1.0
  Y  Y4  1  0.50000000  0.99627000  0.95046000  1.0
  Y  Y5  1  0.75859000  0.49802000  0.86916000  1.0
  Y  Y6  1  0.24141000  0.49802000  0.86916000  1.0
  Y  Y7  1  0.00000000  0.00940000  0.94985000  1.0
  In  In8  1  0.75000000  0.00000000  0.04543000  1.0
  In  In9  1  0.00000000  0.50000000  0.13628000  1.0
  In  In10  1  0.25000000  0.00000000  0.04543000  1.0
  In  In11  1  0.50000000  0.50000000  0.13628000  1.0
  In  In12  1  0.26230000  0.99797000  0.85847000  1.0
  In  In13  1  0.50000000  0.50218000  0.95734000  1.0
  In  In14  1  0.73770000  0.99797000  0.85847000  1.0
  In  In15  1  0.00000000  0.50057000  0.95572000  1.0
  Au  Au16  1  0.00000000  0.25000000  0.04543000  1.0
  Au  Au17  1  0.50000000  0.75000000  0.04543000  1.0
  Au  Au18  1  0.00000000  0.75000000  0.04543000  1.0
  Au  Au19  1  0.50000000  0.25000000  0.04543000  1.0
  Au  Au20  1  0.75000000  0.75000000  0.13628000  1.0
  Au  Au21  1  0.25000000  0.25000000  0.13628000  1.0
  Au  Au22  1  0.75000000  0.25000000  0.13628000  1.0
  Au  Au23  1  0.25000000  0.75000000  0.13628000  1.0
  Au  Au24  1  0.50000000  0.26946000  0.86251000  1.0
  Au  Au25  1  0.00000000  0.76393000  0.86001000  1.0
  Au  Au26  1  0.50000000  0.72419000  0.86105000  1.0
  Au  Au27  1  0.00000000  0.22317000  0.85514000  1.0
  Au  Au28  1  0.24837000  0.75577000  0.95493000  1.0
  Au  Au29  1  0.74530000  0.24603000  0.95570000  1.0
  Au  Au30  1  0.25470000  0.24603000  0.95570000  1.0
  Au  Au31  1  0.75163000  0.75577000  0.95493000  1.0
  C  C32  1  0.00000000  0.30377000  0.77460000  1.0
  O  O33  1  0.00000000  0.22420000  0.73804000  1.0
