# generated using pymatgen
data_Na16Bi16CO
_symmetry_space_group_name_H-M   Pm
_cell_length_a   9.89650000
_cell_length_b   9.78514000
_cell_length_c   27.42240000
_cell_angle_alpha   90.00000000
_cell_angle_beta   90.00000000
_cell_angle_gamma   90.00000000
_symmetry_Int_Tables_number   6
_chemical_formula_structural   Na16Bi16CO
_chemical_formula_sum   'Na16 Bi16 C1 O1'
_cell_volume   2655.54786697
_cell_formula_units_Z   1
loop_
 _symmetry_equiv_pos_site_id
 _symmetry_equiv_pos_as_xyz
  1  'x, y, z'
  2  'x, -y, z'
loop_
 _atom_site_type_symbol
 _atom_site_label
 _atom_site_symmetry_multiplicity
 _atom_site_fract_x
 _atom_site_fract_y
 _atom_site_fract_z
 _atom_site_occupancy
  Na  Na0  2  0.00000000  0.25000000  0.95489000  1.0
  Na  Na1  2  0.25000000  0.25000000  0.86467000  1.0
  Na  Na2  2  0.25003000  0.25142000  0.04747000  1.0
  Na  Na3  2  0.50000000  0.25000000  0.95489000  1.0
  Na  Na4  2  0.50068000  0.24874000  0.14709000  1.0
  Na  Na5  2  0.75000000  0.25000000  0.86467000  1.0
  Na  Na6  2  0.75006000  0.25040000  0.04752000  1.0
  Na  Na7  2  0.99961000  0.24868000  0.14706000  1.0
  Bi  Bi8  1  0.00000000  0.00000000  0.86467000  1.0
  Bi  Bi9  1  0.00000000  0.50000000  0.86467000  1.0
  Bi  Bi10  1  0.00025000  0.50000000  0.05752000  1.0
  Bi  Bi11  1  0.00045000  0.00000000  0.05642000  1.0
  Bi  Bi12  1  0.25000000  0.00000000  0.95489000  1.0
  Bi  Bi13  1  0.25000000  0.50000000  0.95489000  1.0
  Bi  Bi14  1  0.25001000  0.50000000  0.13305000  1.0
  Bi  Bi15  1  0.25044000  0.00000000  0.13147000  1.0
  Bi  Bi16  1  0.49960000  0.00000000  0.05640000  1.0
  Bi  Bi17  1  0.49987000  0.50000000  0.05754000  1.0
  Bi  Bi18  1  0.50000000  0.00000000  0.86467000  1.0
  Bi  Bi19  1  0.50000000  0.50000000  0.86467000  1.0
  Bi  Bi20  1  0.74987000  0.00000000  0.13203000  1.0
  Bi  Bi21  1  0.75000000  0.00000000  0.95489000  1.0
  Bi  Bi22  1  0.75000000  0.50000000  0.95489000  1.0
  Bi  Bi23  1  0.75017000  0.50000000  0.13264000  1.0
  C  C24  1  0.24467000  0.00000000  0.29008000  1.0
  O  O25  1  0.25169000  0.00000000  0.33140000  1.0
