# generated using pymatgen
data_Li4Al4Cu4Ge4CO
_symmetry_space_group_name_H-M   Pm
_cell_length_a   5.44163000
_cell_length_b   7.78580000
_cell_length_c   24.08040000
_cell_angle_alpha   90.00000000
_cell_angle_beta   90.00000000
_cell_angle_gamma   90.00000000
_symmetry_Int_Tables_number   6
_chemical_formula_structural   Li4Al4Cu4Ge4CO
_chemical_formula_sum   'Li4 Al4 Cu4 Ge4 C1 O1'
_cell_volume   1020.22497090
_cell_formula_units_Z   1
loop_
 _symmetry_equiv_pos_site_id
 _symmetry_equiv_pos_as_xyz
  1  'x, y, z'
  2  'x, -y, z'
loop_
 _atom_site_type_symbol
 _atom_site_label
 _atom_site_symmetry_multiplicity
 _atom_site_fract_x
 _atom_site_fract_y
 _atom_site_fract_z
 _atom_site_occupancy
  Li  Li0  2  0.23462000  0.25000000  0.91528000  1.0
  Li  Li1  2  0.75037000  0.24856000  0.02822000  1.0
  Al  Al2  1  0.01113000  0.50000000  0.08133000  1.0
  Al  Al3  1  0.01191000  0.00000000  0.08450000  1.0
  Al  Al4  1  0.48975000  0.00000000  0.97176000  1.0
  Al  Al5  1  0.48975000  0.50000000  0.97176000  1.0
  Cu  Cu6  2  0.25151000  0.24821000  0.03720000  1.0
  Cu  Cu7  2  0.73462000  0.25000000  0.91528000  1.0
  Ge  Ge8  1  0.49461000  0.50000000  0.08230000  1.0
  Ge  Ge9  1  0.49716000  0.00000000  0.08098000  1.0
  Ge  Ge10  1  0.98975000  0.00000000  0.97176000  1.0
  Ge  Ge11  1  0.98975000  0.50000000  0.97176000  1.0
  C  C12  1  0.00569000  0.00000000  0.16846000  1.0
  O  O13  1  0.00327000  0.00000000  0.21621000  1.0
