# generated using pymatgen
data_Ga4Ni12CO
_symmetry_space_group_name_H-M   'P 1'
_cell_length_a   7.23991000
_cell_length_b   5.11939000
_cell_length_c   23.83950000
_cell_angle_alpha   90.00000000
_cell_angle_beta   90.00000000
_cell_angle_gamma   90.00000000
_symmetry_Int_Tables_number   1
_chemical_formula_structural   Ga4Ni12CO
_chemical_formula_sum   'Ga4 Ni12 C1 O1'
_cell_volume   883.58538890
_cell_formula_units_Z   1
loop_
 _symmetry_equiv_pos_site_id
 _symmetry_equiv_pos_as_xyz
  1  'x, y, z'
loop_
 _atom_site_type_symbol
 _atom_site_label
 _atom_site_symmetry_multiplicity
 _atom_site_fract_x
 _atom_site_fract_y
 _atom_site_fract_z
 _atom_site_occupancy
  Ga  Ga0  1  0.74999000  0.00000000  0.91947000  1.0
  Ga  Ga1  1  0.74908000  0.49983000  0.02804000  1.0
  Ga  Ga2  1  0.25001000  0.00000000  0.91947000  1.0
  Ga  Ga3  1  0.25092000  0.49983000  0.02804000  1.0
  Ni  Ni4  1  0.74999000  0.50000000  0.91947000  1.0
  Ni  Ni5  1  0.50000000  0.25000000  0.97316000  1.0
  Ni  Ni6  1  0.50000000  0.75000000  0.97316000  1.0
  Ni  Ni7  1  0.75004000  0.00039000  0.02780000  1.0
  Ni  Ni8  1  0.50000000  0.75201000  0.07884000  1.0
  Ni  Ni9  1  0.50000000  0.24982000  0.07656000  1.0
  Ni  Ni10  1  0.25001000  0.50000000  0.91947000  1.0
  Ni  Ni11  1  0.00000000  0.25000000  0.97316000  1.0
  Ni  Ni12  1  0.00000000  0.75000000  0.97316000  1.0
  Ni  Ni13  1  0.24996000  0.00039000  0.02780000  1.0
  Ni  Ni14  1  0.00000000  0.74959000  0.07544000  1.0
  Ni  Ni15  1  0.00000000  0.24894000  0.07555000  1.0
  C  C16  1  0.50000000  0.74607000  0.15264000  1.0
  O  O17  1  0.50000000  0.74885000  0.20111000  1.0
