# generated using pymatgen
data_Ga4Ni12CO
_symmetry_space_group_name_H-M   Pm
_cell_length_a   5.11939000
_cell_length_b   7.23991000
_cell_length_c   23.83950000
_cell_angle_alpha   90.00000000
_cell_angle_beta   90.00000000
_cell_angle_gamma   90.00000000
_symmetry_Int_Tables_number   6
_chemical_formula_structural   Ga4Ni12CO
_chemical_formula_sum   'Ga4 Ni12 C1 O1'
_cell_volume   883.58538890
_cell_formula_units_Z   1
loop_
 _symmetry_equiv_pos_site_id
 _symmetry_equiv_pos_as_xyz
  1  'x, y, z'
  2  'x, -y, z'
loop_
 _atom_site_type_symbol
 _atom_site_label
 _atom_site_symmetry_multiplicity
 _atom_site_fract_x
 _atom_site_fract_y
 _atom_site_fract_z
 _atom_site_occupancy
  Ga  Ga0  2  0.00000000  0.25001000  0.08053000  1.0
  Ga  Ga1  2  0.49983000  0.25092000  0.97196000  1.0
  Ni  Ni2  2  0.00039000  0.24996000  0.97220000  1.0
  Ni  Ni3  2  0.50000000  0.25001000  0.08053000  1.0
  Ni  Ni4  1  0.24894000  0.00000000  0.92445000  1.0
  Ni  Ni5  1  0.24982000  0.50000000  0.92344000  1.0
  Ni  Ni6  1  0.25000000  0.00000000  0.02684000  1.0
  Ni  Ni7  1  0.25000000  0.50000000  0.02684000  1.0
  Ni  Ni8  1  0.74959000  0.00000000  0.92456000  1.0
  Ni  Ni9  1  0.75000000  0.00000000  0.02684000  1.0
  Ni  Ni10  1  0.75000000  0.50000000  0.02684000  1.0
  Ni  Ni11  1  0.75201000  0.50000000  0.92116000  1.0
  C  C12  1  0.74607000  0.50000000  0.84736000  1.0
  O  O13  1  0.74885000  0.50000000  0.79889000  1.0
