data_image0
_chemical_formula_structural       Li8Y8In8Cu8CO
_chemical_formula_sum              "Li8 Y8 In8 Cu8 C1 O1"
_cell_length_a       6.68415
_cell_length_b       9.45282
_cell_length_c       27.0896
_cell_angle_alpha    90
_cell_angle_beta     90
_cell_angle_gamma    90

_space_group_name_H-M_alt    "P 1"
_space_group_IT_number       1

loop_
  _space_group_symop_operation_xyz
  'x, y, z'

loop_
  _atom_site_type_symbol
  _atom_site_label
  _atom_site_symmetry_multiplicity
  _atom_site_fract_x
  _atom_site_fract_y
  _atom_site_fract_z
  _atom_site_occupancy
  Li  Li1       1.0  0.00000  0.25000  0.95638  1.0000
  Li  Li2       1.0  0.00000  0.75000  0.95638  1.0000
  Li  Li3       1.0  0.50000  0.50000  0.86915  1.0000
  Li  Li4       1.0  0.50000  0.00000  0.86915  1.0000
  Li  Li5       1.0  0.17569  0.75000  0.18023  1.0000
  Li  Li6       1.0  0.16731  0.25000  0.18125  1.0000
  Li  Li7       1.0  0.51311  0.99925  0.04747  1.0000
  Li  Li8       1.0  0.51312  0.50075  0.04747  1.0000
  Y   Y1        1.0  0.75000  0.00000  0.95638  1.0000
  Y   Y2        1.0  0.75000  0.50000  0.95638  1.0000
  Y   Y3        1.0  0.25000  0.25000  0.86915  1.0000
  Y   Y4        1.0  0.25000  0.75000  0.86915  1.0000
  Y   Y5        1.0  0.79537  0.47585  0.13367  1.0000
  Y   Y6        1.0  0.79536  0.02413  0.13366  1.0000
  Y   Y7        1.0  0.23910  0.75000  0.05067  1.0000
  Y   Y8        1.0  0.23945  0.25000  0.04777  1.0000
  In  In1       1.0  0.25000  0.00000  0.95638  1.0000
  In  In2       1.0  0.25000  0.50000  0.95638  1.0000
  In  In3       1.0  0.75000  0.25000  0.86915  1.0000
  In  In4       1.0  0.75000  0.75000  0.86915  1.0000
  In  In5       1.0  0.28118  0.49758  0.13373  1.0000
  In  In6       1.0  0.28117  0.00242  0.13373  1.0000
  In  In7       1.0  0.75644  0.75000  0.04550  1.0000
  In  In8       1.0  0.75041  0.25000  0.04189  1.0000
  Cu  Cu1       1.0  0.00000  0.00000  0.86915  1.0000
  Cu  Cu2       1.0  0.00000  0.50000  0.86915  1.0000
  Cu  Cu3       1.0  0.50000  0.75000  0.95638  1.0000
  Cu  Cu4       1.0  0.50000  0.25000  0.95638  1.0000
  Cu  Cu5       1.0  0.99957  0.49964  0.04207  1.0000
  Cu  Cu6       1.0  0.99957  0.00037  0.04207  1.0000
  Cu  Cu7       1.0  0.50918  0.25000  0.12616  1.0000
  Cu  Cu8       1.0  0.52352  0.75000  0.12785  1.0000
  C   C1        1.0  0.83524  0.25002  0.19159  1.0000
  O   O1        1.0  0.77927  0.24998  0.23355  1.0000
