# generated using pymatgen
data_Li8Y8In8Cu8CO
_symmetry_space_group_name_H-M   'P 1'
_cell_length_a   9.45282000
_cell_length_b   6.68415000
_cell_length_c   27.08960000
_cell_angle_alpha   90.00000000
_cell_angle_beta   90.00000000
_cell_angle_gamma   90.00000000
_symmetry_Int_Tables_number   1
_chemical_formula_structural   Li8Y8In8Cu8CO
_chemical_formula_sum   'Li8 Y8 In8 Cu8 C1 O1'
_cell_volume   1711.63109607
_cell_formula_units_Z   1
loop_
 _symmetry_equiv_pos_site_id
 _symmetry_equiv_pos_as_xyz
  1  'x, y, z'
loop_
 _atom_site_type_symbol
 _atom_site_label
 _atom_site_symmetry_multiplicity
 _atom_site_fract_x
 _atom_site_fract_y
 _atom_site_fract_z
 _atom_site_occupancy
  Li  Li0  1  0.00000000  0.00000000  0.04362000  1.0
  Li  Li1  1  0.50000000  0.00000000  0.04362000  1.0
  Li  Li2  1  0.24998000  0.50000000  0.13085000  1.0
  Li  Li3  1  0.75002000  0.50000000  0.13085000  1.0
  Li  Li4  1  0.50000000  0.17569000  0.81977000  1.0
  Li  Li5  1  0.00000000  0.16731000  0.81875000  1.0
  Li  Li6  1  0.74923000  0.51311000  0.95253000  1.0
  Li  Li7  1  0.25077000  0.51311000  0.95253000  1.0
  Y  Y8  1  0.74998000  0.75000000  0.04362000  1.0
  Y  Y9  1  0.25002000  0.75000000  0.04362000  1.0
  Y  Y10  1  0.00000000  0.25000000  0.13085000  1.0
  Y  Y11  1  0.50000000  0.25000000  0.13085000  1.0
  Y  Y12  1  0.22583000  0.79537000  0.86633000  1.0
  Y  Y13  1  0.77417000  0.79537000  0.86633000  1.0
  Y  Y14  1  0.50000000  0.23910000  0.94933000  1.0
  Y  Y15  1  0.00000000  0.23945000  0.95223000  1.0
  In  In16  1  0.74998000  0.25000000  0.04362000  1.0
  In  In17  1  0.25002000  0.25000000  0.04362000  1.0
  In  In18  1  0.00000000  0.75000000  0.13085000  1.0
  In  In19  1  0.50000000  0.75000000  0.13085000  1.0
  In  In20  1  0.24756000  0.28118000  0.86627000  1.0
  In  In21  1  0.75244000  0.28118000  0.86627000  1.0
  In  In22  1  0.50000000  0.75644000  0.95450000  1.0
  In  In23  1  0.00000000  0.75041000  0.95811000  1.0
  Cu  Cu24  1  0.74998000  0.00000000  0.13085000  1.0
  Cu  Cu25  1  0.25002000  0.00000000  0.13085000  1.0
  Cu  Cu26  1  0.50000000  0.50000000  0.04362000  1.0
  Cu  Cu27  1  0.00000000  0.50000000  0.04362000  1.0
  Cu  Cu28  1  0.24962000  0.99957000  0.95793000  1.0
  Cu  Cu29  1  0.75038000  0.99957000  0.95793000  1.0
  Cu  Cu30  1  0.00000000  0.50918000  0.87384000  1.0
  Cu  Cu31  1  0.50000000  0.52352000  0.87215000  1.0
  C  C32  1  0.00000000  0.83524000  0.80841000  1.0
  O  O33  1  0.00000000  0.77927000  0.76645000  1.0
