# generated using pymatgen
data_Mn8Al8Ni16C
_symmetry_space_group_name_H-M   Pmm2
_cell_length_a   5.81764000
_cell_length_b   8.22738000
_cell_length_c   26.17050000
_cell_angle_alpha   90.00000000
_cell_angle_beta   90.00000000
_cell_angle_gamma   90.00000000
_symmetry_Int_Tables_number   25
_chemical_formula_structural   Mn8Al8Ni16C
_chemical_formula_sum   'Mn8 Al8 Ni16 C1'
_cell_volume   1252.62311048
_cell_formula_units_Z   1
loop_
 _symmetry_equiv_pos_site_id
 _symmetry_equiv_pos_as_xyz
  1  'x, y, z'
  2  '-x, -y, z'
  3  '-x, y, z'
  4  'x, -y, z'
loop_
 _atom_site_type_symbol
 _atom_site_label
 _atom_site_symmetry_multiplicity
 _atom_site_fract_x
 _atom_site_fract_y
 _atom_site_fract_z
 _atom_site_occupancy
  Mn  Mn0  2  0.50000000  0.25000000  0.96070000  1.0
  Mn  Mn1  2  0.50000000  0.26505000  0.12149000  1.0
  Mn  Mn2  1  0.00000000  0.00000000  0.04112000  1.0
  Mn  Mn3  1  0.00000000  0.00000000  0.88211000  1.0
  Mn  Mn4  1  0.00000000  0.50000000  0.03702000  1.0
  Mn  Mn5  1  0.00000000  0.50000000  0.88211000  1.0
  Al  Al6  2  0.00000000  0.24395000  0.11999000  1.0
  Al  Al7  2  0.00000000  0.25000000  0.96070000  1.0
  Al  Al8  1  0.50000000  0.00000000  0.03603000  1.0
  Al  Al9  1  0.50000000  0.00000000  0.88211000  1.0
  Al  Al10  1  0.50000000  0.50000000  0.04018000  1.0
  Al  Al11  1  0.50000000  0.50000000  0.88211000  1.0
  Ni  Ni12  4  0.25000000  0.25000000  0.88211000  1.0
  Ni  Ni13  4  0.25112000  0.25054000  0.03972000  1.0
  Ni  Ni14  2  0.22580000  0.50000000  0.11380000  1.0
  Ni  Ni15  2  0.25000000  0.50000000  0.96070000  1.0
  Ni  Ni16  2  0.25000000  0.00000000  0.96070000  1.0
  Ni  Ni17  2  0.29250000  0.00000000  0.11605000  1.0
  C  C18  1  0.00000000  0.00000000  0.13594000  1.0
