# generated using pymatgen
data_Cu16Pd16C
_symmetry_space_group_name_H-M   'P 1'
_cell_length_a   8.62198000
_cell_length_b   6.09666000
_cell_length_c   26.46650000
_cell_angle_alpha   90.00000000
_cell_angle_beta   90.00000000
_cell_angle_gamma   90.00000000
_symmetry_Int_Tables_number   1
_chemical_formula_structural   Cu16Pd16C
_chemical_formula_sum   'Cu16 Pd16 C1'
_cell_volume   1391.21899865
_cell_formula_units_Z   1
loop_
 _symmetry_equiv_pos_site_id
 _symmetry_equiv_pos_as_xyz
  1  'x, y, z'
loop_
 _atom_site_type_symbol
 _atom_site_label
 _atom_site_symmetry_multiplicity
 _atom_site_fract_x
 _atom_site_fract_y
 _atom_site_fract_z
 _atom_site_occupancy
  Cu  Cu0  1  0.75000000  0.00000000  0.12216000  1.0
  Cu  Cu1  1  0.00000000  0.00000000  0.04072000  1.0
  Cu  Cu2  1  0.74695000  0.99939000  0.95950000  1.0
  Cu  Cu3  1  0.00000000  0.94787000  0.87260000  1.0
  Cu  Cu4  1  0.25000000  0.00000000  0.12216000  1.0
  Cu  Cu5  1  0.50000000  0.00000000  0.04072000  1.0
  Cu  Cu6  1  0.25305000  0.99939000  0.95950000  1.0
  Cu  Cu7  1  0.50000000  0.02304000  0.87754000  1.0
  Cu  Cu8  1  0.75000000  0.50000000  0.12216000  1.0
  Cu  Cu9  1  0.00000000  0.50000000  0.04072000  1.0
  Cu  Cu10  1  0.74697000  0.50048000  0.95950000  1.0
  Cu  Cu11  1  0.00000000  0.55103000  0.87271000  1.0
  Cu  Cu12  1  0.25000000  0.50000000  0.12216000  1.0
  Cu  Cu13  1  0.50000000  0.50000000  0.04072000  1.0
  Cu  Cu14  1  0.25303000  0.50048000  0.95950000  1.0
  Cu  Cu15  1  0.50000000  0.47675000  0.87753000  1.0
  Pd  Pd16  1  0.00000000  0.25000000  0.12216000  1.0
  Pd  Pd17  1  0.75000000  0.25000000  0.04072000  1.0
  Pd  Pd18  1  0.00000000  0.24985000  0.95645000  1.0
  Pd  Pd19  1  0.76663000  0.24972000  0.87687000  1.0
  Pd  Pd20  1  0.50000000  0.25000000  0.12216000  1.0
  Pd  Pd21  1  0.25000000  0.25000000  0.04072000  1.0
  Pd  Pd22  1  0.50000000  0.24995000  0.95971000  1.0
  Pd  Pd23  1  0.23337000  0.24972000  0.87687000  1.0
  Pd  Pd24  1  0.00000000  0.75000000  0.12216000  1.0
  Pd  Pd25  1  0.75000000  0.75000000  0.04072000  1.0
  Pd  Pd26  1  0.00000000  0.74992000  0.96027000  1.0
  Pd  Pd27  1  0.73350000  0.74972000  0.87875000  1.0
  Pd  Pd28  1  0.50000000  0.75000000  0.12216000  1.0
  Pd  Pd29  1  0.25000000  0.75000000  0.04072000  1.0
  Pd  Pd30  1  0.50000000  0.74994000  0.95814000  1.0
  Pd  Pd31  1  0.26650000  0.74972000  0.87875000  1.0
  C  C32  1  0.00000000  0.24937000  0.87966000  1.0
