# generated using pymatgen
data_Cu16Pd16C
_symmetry_space_group_name_H-M   Pm
_cell_length_a   6.09666000
_cell_length_b   8.62198000
_cell_length_c   26.46650000
_cell_angle_alpha   90.00000000
_cell_angle_beta   90.00000000
_cell_angle_gamma   90.00000000
_symmetry_Int_Tables_number   6
_chemical_formula_structural   Cu16Pd16C
_chemical_formula_sum   'Cu16 Pd16 C1'
_cell_volume   1391.21899865
_cell_formula_units_Z   1
loop_
 _symmetry_equiv_pos_site_id
 _symmetry_equiv_pos_as_xyz
  1  'x, y, z'
  2  'x, -y, z'
loop_
 _atom_site_type_symbol
 _atom_site_label
 _atom_site_symmetry_multiplicity
 _atom_site_fract_x
 _atom_site_fract_y
 _atom_site_fract_z
 _atom_site_occupancy
  Cu  Cu0  2  0.00000000  0.25000000  0.87784000  1.0
  Cu  Cu1  2  0.50000000  0.25000000  0.87784000  1.0
  Cu  Cu2  2  0.50048000  0.25303000  0.04050000  1.0
  Cu  Cu3  2  0.99939000  0.25305000  0.04050000  1.0
  Cu  Cu4  1  0.00000000  0.00000000  0.95928000  1.0
  Cu  Cu5  1  0.00000000  0.50000000  0.95928000  1.0
  Cu  Cu6  1  0.02304000  0.50000000  0.12246000  1.0
  Cu  Cu7  1  0.47675000  0.50000000  0.12247000  1.0
  Cu  Cu8  1  0.50000000  0.00000000  0.95928000  1.0
  Cu  Cu9  1  0.50000000  0.50000000  0.95928000  1.0
  Cu  Cu10  1  0.55103000  0.00000000  0.12729000  1.0
  Cu  Cu11  1  0.94787000  0.00000000  0.12740000  1.0
  Pd  Pd12  2  0.24972000  0.23337000  0.12313000  1.0
  Pd  Pd13  2  0.25000000  0.25000000  0.95928000  1.0
  Pd  Pd14  2  0.74972000  0.26650000  0.12125000  1.0
  Pd  Pd15  2  0.75000000  0.25000000  0.95928000  1.0
  Pd  Pd16  1  0.24985000  0.00000000  0.04355000  1.0
  Pd  Pd17  1  0.24995000  0.50000000  0.04029000  1.0
  Pd  Pd18  1  0.25000000  0.00000000  0.87784000  1.0
  Pd  Pd19  1  0.25000000  0.50000000  0.87784000  1.0
  Pd  Pd20  1  0.74992000  0.00000000  0.03973000  1.0
  Pd  Pd21  1  0.74994000  0.50000000  0.04186000  1.0
  Pd  Pd22  1  0.75000000  0.00000000  0.87784000  1.0
  Pd  Pd23  1  0.75000000  0.50000000  0.87784000  1.0
  C  C24  1  0.24937000  0.00000000  0.12034000  1.0
