data_image0
_chemical_formula_structural       Li4Mg4Sn4Pd4C
_chemical_formula_sum              "Li4 Mg4 Sn4 Pd4 C1"
_cell_length_a       6.52546
_cell_length_b       6.52546
_cell_length_c       24.8941
_cell_angle_alpha    90
_cell_angle_beta     90
_cell_angle_gamma    90

_space_group_name_H-M_alt    "P 1"
_space_group_IT_number       1

loop_
  _space_group_symop_operation_xyz
  'x, y, z'

loop_
  _atom_site_type_symbol
  _atom_site_label
  _atom_site_symmetry_multiplicity
  _atom_site_fract_x
  _atom_site_fract_y
  _atom_site_fract_z
  _atom_site_occupancy
  Li  Li1       1.0  0.00000  0.00000  0.90170  1.0000
  Li  Li2       1.0  1.00000  0.50000  0.03144  1.0000
  Li  Li3       1.0  0.50000  0.00000  0.03868  1.0000
  Li  Li4       1.0  0.50000  0.50000  0.90170  1.0000
  Mg  Mg1       1.0  0.25000  0.25000  0.96723  1.0000
  Mg  Mg2       1.0  0.23338  0.73338  0.10218  1.0000
  Mg  Mg3       1.0  0.76662  0.26662  0.10218  1.0000
  Mg  Mg4       1.0  0.75000  0.75000  0.96723  1.0000
  Sn  Sn1       1.0  0.75000  0.25000  0.96723  1.0000
  Sn  Sn2       1.0  0.75958  0.74042  0.10620  1.0000
  Sn  Sn3       1.0  0.24042  0.25958  0.10620  1.0000
  Sn  Sn4       1.0  0.25000  0.75000  0.96723  1.0000
  Pd  Pd1       1.0  0.00000  0.50000  0.90170  1.0000
  Pd  Pd2       1.0  1.00000  0.00000  0.03561  1.0000
  Pd  Pd3       1.0  0.50000  0.50000  0.03561  1.0000
  Pd  Pd4       1.0  0.50000  0.00000  0.90170  1.0000
  C   C1        1.0  0.00000  0.50000  0.11925  1.0000
