data_image0
_chemical_formula_structural       Li8Al4Pd4CO
_chemical_formula_sum              "Li8 Al4 Pd4 C1 O1"
_cell_length_a       6.13337
_cell_length_b       6.13337
_cell_length_c       24.6
_cell_angle_alpha    90
_cell_angle_beta     90
_cell_angle_gamma    90

_space_group_name_H-M_alt    "P 1"
_space_group_IT_number       1

loop_
  _space_group_symop_operation_xyz
  'x, y, z'

loop_
  _atom_site_type_symbol
  _atom_site_label
  _atom_site_symmetry_multiplicity
  _atom_site_fract_x
  _atom_site_fract_y
  _atom_site_fract_z
  _atom_site_occupancy
  Li  Li1       1.0  0.00068  0.00068  0.03196  1.0000
  Li  Li2       1.0  0.50000  0.00000  0.90650  1.0000
  Li  Li3       1.0  0.00000  0.50000  0.90650  1.0000
  Li  Li4       1.0  0.49849  0.49849  0.03283  1.0000
  Li  Li5       1.0  0.25000  0.25000  0.96883  1.0000
  Li  Li6       1.0  0.24961  0.75220  0.10993  1.0000
  Li  Li7       1.0  0.75000  0.75000  0.96883  1.0000
  Li  Li8       1.0  0.75217  0.24956  0.10993  1.0000
  Al  Al1       1.0  0.00000  0.00000  0.90650  1.0000
  Al  Al2       1.0  0.50000  0.50000  0.90650  1.0000
  Al  Al3       1.0  0.49784  0.00222  0.03193  1.0000
  Al  Al4       1.0  0.00222  0.49784  0.03193  1.0000
  Pd  Pd1       1.0  0.24876  0.24876  0.09303  1.0000
  Pd  Pd2       1.0  0.25000  0.75000  0.96883  1.0000
  Pd  Pd3       1.0  0.75014  0.75014  0.08512  1.0000
  Pd  Pd4       1.0  0.75000  0.25000  0.96883  1.0000
  C   C1        1.0  0.24819  0.24819  0.17305  1.0000
  O   O1        1.0  0.24972  0.24973  0.22016  1.0000
