# generated using pymatgen
data_Li8Al4Pd4CO
_symmetry_space_group_name_H-M   'P 1'
_cell_length_a   6.13337000
_cell_length_b   6.13337000
_cell_length_c   24.60000000
_cell_angle_alpha   90.00000000
_cell_angle_beta   90.00000000
_cell_angle_gamma   90.00000000
_symmetry_Int_Tables_number   1
_chemical_formula_structural   Li8Al4Pd4CO
_chemical_formula_sum   'Li8 Al4 Pd4 C1 O1'
_cell_volume   925.40839790
_cell_formula_units_Z   1
loop_
 _symmetry_equiv_pos_site_id
 _symmetry_equiv_pos_as_xyz
  1  'x, y, z'
loop_
 _atom_site_type_symbol
 _atom_site_label
 _atom_site_symmetry_multiplicity
 _atom_site_fract_x
 _atom_site_fract_y
 _atom_site_fract_z
 _atom_site_occupancy
  Li  Li0  1  0.00068000  0.99932000  0.96804000  1
  Li  Li1  1  1.00000000  0.50000000  0.09350000  1
  Li  Li2  1  0.50000000  1.00000000  0.09350000  1
  Li  Li3  1  0.49849000  0.50151000  0.96717000  1
  Li  Li4  1  0.25000000  0.75000000  0.03117000  1
  Li  Li5  1  0.75220000  0.75039000  0.89007000  1
  Li  Li6  1  0.75000000  0.25000000  0.03117000  1
  Li  Li7  1  0.24961000  0.24780000  0.89007000  1
  Al  Al8  1  0.00000000  0.00000000  0.09350000  1
  Al  Al9  1  0.50000000  0.50000000  0.09350000  1
  Al  Al10  1  0.00222000  0.50216000  0.96807000  1
  Al  Al11  1  0.49784000  0.99778000  0.96807000  1
  Pd  Pd12  1  0.24876000  0.75124000  0.90697000  1
  Pd  Pd13  1  0.75000000  0.75000000  0.03117000  1
  Pd  Pd14  1  0.75014000  0.24986000  0.91488000  1
  Pd  Pd15  1  0.25000000  0.25000000  0.03117000  1
  C  C16  1  0.24819000  0.75181000  0.82695000  1
  O  O17  1  0.24972500  0.75027500  0.77984000  1
