# generated using pymatgen
data_Li8Al4Pd4CO
_symmetry_space_group_name_H-M   Cm
_cell_length_a   8.67389504
_cell_length_b   8.67389504
_cell_length_c   24.60000000
_cell_angle_alpha   90.00000000
_cell_angle_beta   90.00000000
_cell_angle_gamma   90.00000000
_symmetry_Int_Tables_number   8
_chemical_formula_structural   Li8Al4Pd4CO
_chemical_formula_sum   'Li16 Al8 Pd8 C2 O2'
_cell_volume   1850.81679580
_cell_formula_units_Z   2
loop_
 _symmetry_equiv_pos_site_id
 _symmetry_equiv_pos_as_xyz
  1  'x, y, z'
  2  'x, -y, z'
  3  'x+1/2, y+1/2, z'
  4  'x+1/2, -y+1/2, z'
loop_
 _atom_site_type_symbol
 _atom_site_label
 _atom_site_symmetry_multiplicity
 _atom_site_fract_x
 _atom_site_fract_y
 _atom_site_fract_z
 _atom_site_occupancy
  Li  Li0  4  0.00090500  0.24870500  0.10993000  1.0
  Li  Li1  4  0.25000000  0.25000000  0.90650000  1.0
  Li  Li2  2  0.00068000  0.00000000  0.03196000  1.0
  Li  Li3  2  0.25000000  0.00000000  0.96883000  1.0
  Li  Li4  2  0.25000000  0.50000000  0.96883000  1.0
  Li  Li5  2  0.49849000  0.00000000  0.03283000  1.0
  Al  Al6  4  0.25003000  0.24781000  0.03193000  1.0
  Al  Al7  2  0.00000000  0.00000000  0.90650000  1.0
  Al  Al8  2  0.00000000  0.50000000  0.90650000  1.0
  Pd  Pd9  4  -0.00000000  0.25000000  0.96883000  1.0
  Pd  Pd10  2  0.24876000  0.00000000  0.09303000  1.0
  Pd  Pd11  2  0.25014000  0.50000000  0.08512000  1.0
  C  C12  2  0.24819000  0.00000000  0.17305000  1.0
  O  O13  2  0.24972500  0.00000000  0.22016000  1.0
