# generated using pymatgen
data_Y8In8Ge8Pd8CO
_symmetry_space_group_name_H-M   P1
_cell_length_a   7.93684000
_cell_length_b   9.45024000
_cell_length_c   26.65400000
_cell_angle_alpha   90.00000000
_cell_angle_beta   90.00000000
_cell_angle_gamma   90.00000000
_symmetry_Int_Tables_number   1
_chemical_formula_structural   Y8In8Ge8Pd8CO
_chemical_formula_sum   'Y8 In8 Ge8 Pd8 C1 O1'
_cell_volume   1999.18441190
_cell_formula_units_Z   1
loop_
 _symmetry_equiv_pos_site_id
 _symmetry_equiv_pos_as_xyz
  1  'x, y, z'
loop_
 _atom_site_type_symbol
 _atom_site_label
 _atom_site_symmetry_multiplicity
 _atom_site_fract_x
 _atom_site_fract_y
 _atom_site_fract_z
 _atom_site_occupancy
  Y  Y0  1  0.24999000  0.00217000  0.95908000  1.0
  Y  Y1  1  0.25000000  0.00000000  0.12482000  1.0
  Y  Y2  1  0.25000000  0.50000000  0.12482000  1.0
  Y  Y3  1  0.25007000  0.49784000  0.95908000  1.0
  Y  Y4  1  0.75000000  0.00000000  0.12482000  1.0
  Y  Y5  1  0.75000000  0.49804000  0.95879000  1.0
  Y  Y6  1  0.75000000  0.50000000  0.12482000  1.0
  Y  Y7  1  0.75005000  0.00196000  0.95879000  1.0
  In  In8  1  0.25000000  0.25000000  0.04161000  1.0
  In  In9  1  0.25000000  0.75000000  0.04161000  1.0
  In  In10  1  0.25002000  0.75000000  0.86916000  1.0
  In  In11  1  0.25004000  0.25000000  0.86545000  1.0
  In  In12  1  0.75000000  0.25000000  0.04161000  1.0
  In  In13  1  0.75000000  0.75000000  0.04161000  1.0
  In  In14  1  0.75004000  0.25000000  0.86447000  1.0
  In  In15  1  0.75023000  0.75000000  0.87147000  1.0
  Ge  Ge16  1  0.00000000  0.00000000  0.04161000  1.0
  Ge  Ge17  1  0.00000000  0.50000000  0.04161000  1.0
  Ge  Ge18  1  0.00092000  0.00823000  0.87088000  1.0
  Ge  Ge19  1  0.00101000  0.49447000  0.87093000  1.0
  Ge  Ge20  1  0.49908000  0.00560000  0.87095000  1.0
  Ge  Ge21  1  0.49917000  0.49169000  0.87091000  1.0
  Ge  Ge22  1  0.50000000  0.00000000  0.04161000  1.0
  Ge  Ge23  1  0.50000000  0.50000000  0.04161000  1.0
  Pd  Pd24  1  0.00000000  0.25000000  0.12482000  1.0
  Pd  Pd25  1  0.00000000  0.75000000  0.12482000  1.0
  Pd  Pd26  1  0.00176000  0.74990000  0.95587000  1.0
  Pd  Pd27  1  0.49837000  0.75010000  0.95584000  1.0
  Pd  Pd28  1  0.50000000  0.25000000  0.12482000  1.0
  Pd  Pd29  1  0.50000000  0.75000000  0.12482000  1.0
  Pd  Pd30  1  0.50095000  0.24999000  0.95165000  1.0
  Pd  Pd31  1  0.99914000  0.25001000  0.95165000  1.0
  C  C32  1  0.74686000  0.74989000  0.73484000  1.0
  O  O33  1  0.75050000  0.75003000  0.69229000  1.0
