# generated using pymatgen
data_Li8Mg8Ge8Au8C
_symmetry_space_group_name_H-M   'P 1'
_cell_length_a   6.50951000
_cell_length_b   9.20584000
_cell_length_c   26.90440000
_cell_angle_alpha   90.00000000
_cell_angle_beta   90.00000000
_cell_angle_gamma   90.00000000
_symmetry_Int_Tables_number   1
_chemical_formula_structural   Li8Mg8Ge8Au8C
_chemical_formula_sum   'Li8 Mg8 Ge8 Au8 C1'
_cell_volume   1612.25982502
_cell_formula_units_Z   1
loop_
 _symmetry_equiv_pos_site_id
 _symmetry_equiv_pos_as_xyz
  1  'x, y, z'
loop_
 _atom_site_type_symbol
 _atom_site_label
 _atom_site_symmetry_multiplicity
 _atom_site_fract_x
 _atom_site_fract_y
 _atom_site_fract_z
 _atom_site_occupancy
  Li  Li0  1  0.25000000  0.00000000  0.95723000  1.0
  Li  Li1  1  0.25000000  0.50000000  0.95723000  1.0
  Li  Li2  1  0.75000000  0.75000000  0.87169000  1.0
  Li  Li3  1  0.75000000  0.25000000  0.87169000  1.0
  Li  Li4  1  0.25157000  0.51663000  0.13817000  1.0
  Li  Li5  1  0.25160000  0.98350000  0.13820000  1.0
  Li  Li6  1  0.74029000  0.25016000  0.04514000  1.0
  Li  Li7  1  0.75843000  0.75003000  0.04226000  1.0
  Mg  Mg8  1  0.75000000  0.00000000  0.95723000  1.0
  Mg  Mg9  1  0.75000000  0.50000000  0.95723000  1.0
  Mg  Mg10  1  0.25000000  0.75000000  0.87169000  1.0
  Mg  Mg11  1  0.25000000  0.25000000  0.87169000  1.0
  Mg  Mg12  1  0.75719000  0.46618000  0.13197000  1.0
  Mg  Mg13  1  0.75715000  0.03394000  0.13199000  1.0
  Mg  Mg14  1  0.24783000  0.25004000  0.04240000  1.0
  Mg  Mg15  1  0.24233000  0.75019000  0.05095000  1.0
  Ge  Ge16  1  0.00000000  0.75000000  0.95723000  1.0
  Ge  Ge17  1  0.00000000  0.25000000  0.95723000  1.0
  Ge  Ge18  1  0.50000000  0.50000000  0.87169000  1.0
  Ge  Ge19  1  0.50000000  0.00000000  0.87169000  1.0
  Ge  Ge20  1  0.05240000  0.25006000  0.13926000  1.0
  Ge  Ge21  1  0.96603000  0.75007000  0.15646000  1.0
  Ge  Ge22  1  0.50606000  0.99726000  0.04736000  1.0
  Ge  Ge23  1  0.50583000  0.50298000  0.04737000  1.0
  Au  Au24  1  0.00000000  0.00000000  0.87169000  1.0
  Au  Au25  1  0.00000000  0.50000000  0.87169000  1.0
  Au  Au26  1  0.50000000  0.25000000  0.95723000  1.0
  Au  Au27  1  0.50000000  0.75000000  0.95723000  1.0
  Au  Au28  1  0.98656000  0.49423000  0.04100000  1.0
  Au  Au29  1  0.98626000  0.00603000  0.04101000  1.0
  Au  Au30  1  0.56834000  0.75002000  0.13476000  1.0
  Au  Au31  1  0.46112000  0.25007000  0.12881000  1.0
  C  C32  1  0.24108000  0.75008000  0.13786000  1.0
