# generated using pymatgen
data_Li8Mg8Ge8Au8C
_symmetry_space_group_name_H-M   P1
_cell_length_a   6.50951000
_cell_length_b   9.20584000
_cell_length_c   26.90440000
_cell_angle_alpha   90.00000000
_cell_angle_beta   90.00000000
_cell_angle_gamma   90.00000000
_symmetry_Int_Tables_number   1
_chemical_formula_structural   Li8Mg8Ge8Au8C
_chemical_formula_sum   'Li8 Mg8 Ge8 Au8 C1'
_cell_volume   1612.25982502
_cell_formula_units_Z   1
loop_
 _symmetry_equiv_pos_site_id
 _symmetry_equiv_pos_as_xyz
  1  'x, y, z'
loop_
 _atom_site_type_symbol
 _atom_site_label
 _atom_site_symmetry_multiplicity
 _atom_site_fract_x
 _atom_site_fract_y
 _atom_site_fract_z
 _atom_site_occupancy
  Li  Li0  1  0.24157000  0.24997000  0.04226000  1.0
  Li  Li1  1  0.25000000  0.25000000  0.87169000  1.0
  Li  Li2  1  0.25000000  0.75000000  0.87169000  1.0
  Li  Li3  1  0.25971000  0.74984000  0.04514000  1.0
  Li  Li4  1  0.74840000  0.01650000  0.13820000  1.0
  Li  Li5  1  0.74843000  0.48337000  0.13817000  1.0
  Li  Li6  1  0.75000000  0.00000000  0.95723000  1.0
  Li  Li7  1  0.75000000  0.50000000  0.95723000  1.0
  Mg  Mg8  1  0.24281000  0.53382000  0.13197000  1.0
  Mg  Mg9  1  0.24285000  0.96606000  0.13199000  1.0
  Mg  Mg10  1  0.25000000  0.00000000  0.95723000  1.0
  Mg  Mg11  1  0.25000000  0.50000000  0.95723000  1.0
  Mg  Mg12  1  0.75000000  0.25000000  0.87169000  1.0
  Mg  Mg13  1  0.75000000  0.75000000  0.87169000  1.0
  Mg  Mg14  1  0.75217000  0.74996000  0.04240000  1.0
  Mg  Mg15  1  0.75767000  0.24981000  0.05095000  1.0
  Ge  Ge16  1  -0.00000000  0.25000000  0.95723000  1.0
  Ge  Ge17  1  -0.00000000  0.75000000  0.95723000  1.0
  Ge  Ge18  1  0.03397000  0.24993000  0.15646000  1.0
  Ge  Ge19  1  0.49394000  0.00274000  0.04736000  1.0
  Ge  Ge20  1  0.49417000  0.49702000  0.04737000  1.0
  Ge  Ge21  1  0.50000000  0.00000000  0.87169000  1.0
  Ge  Ge22  1  0.50000000  0.50000000  0.87169000  1.0
  Ge  Ge23  1  0.94760000  0.74994000  0.13926000  1.0
  Au  Au24  1  0.00000000  0.00000000  0.87169000  1.0
  Au  Au25  1  0.00000000  0.50000000  0.87169000  1.0
  Au  Au26  1  0.01344000  0.50577000  0.04100000  1.0
  Au  Au27  1  0.01374000  0.99397000  0.04101000  1.0
  Au  Au28  1  0.43166000  0.24998000  0.13476000  1.0
  Au  Au29  1  0.50000000  0.25000000  0.95723000  1.0
  Au  Au30  1  0.50000000  0.75000000  0.95723000  1.0
  Au  Au31  1  0.53888000  0.74993000  0.12881000  1.0
  C  C32  1  0.75892000  0.24992000  0.13786000  1.0
