# generated using pymatgen
data_Ti8Al8Ni16CO
_symmetry_space_group_name_H-M   'P 1'
_cell_length_a   8.36280000
_cell_length_b   5.91339000
_cell_length_c   26.27210000
_cell_angle_alpha   90.00000000
_cell_angle_beta   90.00000000
_cell_angle_gamma   90.00000000
_symmetry_Int_Tables_number   1
_chemical_formula_structural   Ti8Al8Ni16CO
_chemical_formula_sum   'Ti8 Al8 Ni16 C1 O1'
_cell_volume   1299.22096987
_cell_formula_units_Z   1
loop_
 _symmetry_equiv_pos_site_id
 _symmetry_equiv_pos_as_xyz
  1  'x, y, z'
loop_
 _atom_site_type_symbol
 _atom_site_label
 _atom_site_symmetry_multiplicity
 _atom_site_fract_x
 _atom_site_fract_y
 _atom_site_fract_z
 _atom_site_occupancy
  Ti  Ti0  1  0.00000000  0.00000000  0.11937000  1.0
  Ti  Ti1  1  0.24999000  0.50000000  0.03979000  1.0
  Ti  Ti2  1  0.75001000  0.50000000  0.03979000  1.0
  Ti  Ti3  1  0.50000000  0.00000000  0.11937000  1.0
  Ti  Ti4  1  0.50000000  0.99986000  0.96109000  1.0
  Ti  Ti5  1  0.74921000  0.50117000  0.87894000  1.0
  Ti  Ti6  1  0.25079000  0.50117000  0.87894000  1.0
  Ti  Ti7  1  0.00000000  0.00056000  0.95982000  1.0
  Al  Al8  1  0.74999000  0.00000000  0.03979000  1.0
  Al  Al9  1  0.00000000  0.50000000  0.11937000  1.0
  Al  Al10  1  0.25001000  0.00000000  0.03979000  1.0
  Al  Al11  1  0.50000000  0.50000000  0.11937000  1.0
  Al  Al12  1  0.25363000  0.99722000  0.88171000  1.0
  Al  Al13  1  0.50000000  0.49940000  0.96082000  1.0
  Al  Al14  1  0.74637000  0.99722000  0.88171000  1.0
  Al  Al15  1  0.00000000  0.49579000  0.95887000  1.0
  Ni  Ni16  1  0.00000000  0.25000000  0.03979000  1.0
  Ni  Ni17  1  0.50000000  0.75000000  0.03979000  1.0
  Ni  Ni18  1  0.00000000  0.75000000  0.03979000  1.0
  Ni  Ni19  1  0.50000000  0.25000000  0.03979000  1.0
  Ni  Ni20  1  0.74999000  0.75000000  0.11937000  1.0
  Ni  Ni21  1  0.24999000  0.25000000  0.11937000  1.0
  Ni  Ni22  1  0.75001000  0.25000000  0.11937000  1.0
  Ni  Ni23  1  0.25001000  0.75000000  0.11937000  1.0
  Ni  Ni24  1  0.50000000  0.24828000  0.88650000  1.0
  Ni  Ni25  1  0.00000000  0.76163000  0.88682000  1.0
  Ni  Ni26  1  0.50000000  0.74976000  0.88619000  1.0
  Ni  Ni27  1  0.00000000  0.23743000  0.87530000  1.0
  Ni  Ni28  1  0.24978000  0.73787000  0.95916000  1.0
  Ni  Ni29  1  0.75146000  0.26187000  0.95836000  1.0
  Ni  Ni30  1  0.24854000  0.26187000  0.95836000  1.0
  Ni  Ni31  1  0.75022000  0.73787000  0.95916000  1.0
  C  C32  1  0.00000000  0.32848000  0.81107000  1.0
  O  O33  1  0.00000000  0.36568000  0.76749000  1.0
