# generated using pymatgen
data_Ti8Al8Ni16CO
_symmetry_space_group_name_H-M   Pm
_cell_length_a   5.91339000
_cell_length_b   8.36280000
_cell_length_c   26.27210000
_cell_angle_alpha   90.00000000
_cell_angle_beta   90.00000000
_cell_angle_gamma   90.00000000
_symmetry_Int_Tables_number   6
_chemical_formula_structural   Ti8Al8Ni16CO
_chemical_formula_sum   'Ti8 Al8 Ni16 C1 O1'
_cell_volume   1299.22096987
_cell_formula_units_Z   1
loop_
 _symmetry_equiv_pos_site_id
 _symmetry_equiv_pos_as_xyz
  1  'x, y, z'
  2  'x, -y, z'
loop_
 _atom_site_type_symbol
 _atom_site_label
 _atom_site_symmetry_multiplicity
 _atom_site_fract_x
 _atom_site_fract_y
 _atom_site_fract_z
 _atom_site_occupancy
  Ti  Ti0  2  0.50000000  0.24999000  0.96021000  1.0
  Ti  Ti1  2  0.50117000  0.25079000  0.12106000  1.0
  Ti  Ti2  1  0.00000000  0.00000000  0.88063000  1.0
  Ti  Ti3  1  0.00000000  0.50000000  0.88063000  1.0
  Ti  Ti4  1  0.00056000  0.00000000  0.04018000  1.0
  Ti  Ti5  1  0.99986000  0.50000000  0.03891000  1.0
  Al  Al6  2  0.00000000  0.25001000  0.96021000  1.0
  Al  Al7  2  0.99722000  0.25363000  0.11829000  1.0
  Al  Al8  1  0.49579000  0.00000000  0.04113000  1.0
  Al  Al9  1  0.49940000  0.50000000  0.03918000  1.0
  Al  Al10  1  0.50000000  0.00000000  0.88063000  1.0
  Al  Al11  1  0.50000000  0.50000000  0.88063000  1.0
  Ni  Ni12  2  0.25000000  0.24999000  0.88063000  1.0
  Ni  Ni13  2  0.26187000  0.24854000  0.04164000  1.0
  Ni  Ni14  2  0.73787000  0.24978000  0.04084000  1.0
  Ni  Ni15  2  0.75000000  0.25001000  0.88063000  1.0
  Ni  Ni16  1  0.23743000  0.00000000  0.12470000  1.0
  Ni  Ni17  1  0.24828000  0.50000000  0.11350000  1.0
  Ni  Ni18  1  0.25000000  0.00000000  0.96021000  1.0
  Ni  Ni19  1  0.25000000  0.50000000  0.96021000  1.0
  Ni  Ni20  1  0.74976000  0.50000000  0.11381000  1.0
  Ni  Ni21  1  0.75000000  0.00000000  0.96021000  1.0
  Ni  Ni22  1  0.75000000  0.50000000  0.96021000  1.0
  Ni  Ni23  1  0.76163000  0.00000000  0.11318000  1.0
  C  C24  1  0.32848000  0.00000000  0.18893000  1.0
  O  O25  1  0.36568000  0.00000000  0.23251000  1.0
