# generated using pymatgen
data_Li8Y8Mg8In8C
_symmetry_space_group_name_H-M   'P 1'
_cell_length_a   10.02180000
_cell_length_b   7.08651000
_cell_length_c   27.51640000
_cell_angle_alpha   90.00000000
_cell_angle_beta   90.00000000
_cell_angle_gamma   90.00000000
_symmetry_Int_Tables_number   1
_chemical_formula_structural   Li8Y8Mg8In8C
_chemical_formula_sum   'Li8 Y8 Mg8 In8 C1'
_cell_volume   1954.20333395
_cell_formula_units_Z   1
loop_
 _symmetry_equiv_pos_site_id
 _symmetry_equiv_pos_as_xyz
  1  'x, y, z'
loop_
 _atom_site_type_symbol
 _atom_site_label
 _atom_site_symmetry_multiplicity
 _atom_site_fract_x
 _atom_site_fract_y
 _atom_site_fract_z
 _atom_site_occupancy
  Li  Li0  1  0.75002000  0.00000000  0.04553000  1.0
  Li  Li1  1  0.24998000  0.00000000  0.04553000  1.0
  Li  Li2  1  0.00000000  0.50000000  0.13658000  1.0
  Li  Li3  1  0.50000000  0.50000000  0.13658000  1.0
  Li  Li4  1  0.24247000  0.02186000  0.82286000  1.0
  Li  Li5  1  0.75753000  0.02186000  0.82286000  1.0
  Li  Li6  1  0.50000000  0.46230000  0.96521000  1.0
  Li  Li7  1  0.00000000  0.54796000  0.95423000  1.0
  Y  Y8  1  0.50000000  0.25000000  0.04553000  1.0
  Y  Y9  1  0.00000000  0.25000000  0.04553000  1.0
  Y  Y10  1  0.75002000  0.75000000  0.13658000  1.0
  Y  Y11  1  0.24998000  0.75000000  0.13658000  1.0
  Y  Y12  1  0.00000000  0.28164000  0.86743000  1.0
  Y  Y13  1  0.50000000  0.34088000  0.86255000  1.0
  Y  Y14  1  0.29702000  0.72949000  0.93013000  1.0
  Y  Y15  1  0.70298000  0.72949000  0.93013000  1.0
  Mg  Mg16  1  0.50000000  0.75000000  0.04553000  1.0
  Mg  Mg17  1  0.00000000  0.75000000  0.04553000  1.0
  Mg  Mg18  1  0.75002000  0.25000000  0.13658000  1.0
  Mg  Mg19  1  0.24998000  0.25000000  0.13658000  1.0
  Mg  Mg20  1  0.00000000  0.77502000  0.85645000  1.0
  Mg  Mg21  1  0.50000000  0.79966000  0.83915000  1.0
  Mg  Mg22  1  0.23946000  0.25393000  0.95129000  1.0
  Mg  Mg23  1  0.76054000  0.25393000  0.95129000  1.0
  In  In24  1  0.50000000  0.00000000  0.13658000  1.0
  In  In25  1  0.00000000  0.00000000  0.13658000  1.0
  In  In26  1  0.25002000  0.50000000  0.04553000  1.0
  In  In27  1  0.74998000  0.50000000  0.04553000  1.0
  In  In28  1  0.00000000  0.98237000  0.95349000  1.0
  In  In29  1  0.50000000  0.05219000  0.94921000  1.0
  In  In30  1  0.77191000  0.53105000  0.82401000  1.0
  In  In31  1  0.22809000  0.53105000  0.82401000  1.0
  C  C32  1  0.50000000  0.60843000  0.90518000  1.0
