data_image0
_chemical_formula_structural       Li16Al8Pd8C
_chemical_formula_sum              "Li16 Al8 Pd8 C1"
_cell_length_a       6.13337
_cell_length_b       8.6739
_cell_length_c       26.5054
_cell_angle_alpha    90
_cell_angle_beta     90
_cell_angle_gamma    90

_space_group_name_H-M_alt    "P 1"
_space_group_IT_number       1

loop_
  _space_group_symop_operation_xyz
  'x, y, z'

loop_
  _atom_site_type_symbol
  _atom_site_label
  _atom_site_symmetry_multiplicity
  _atom_site_fract_x
  _atom_site_fract_y
  _atom_site_fract_z
  _atom_site_occupancy
  Li  Li1       1.0  0.00000  0.75000  0.95909  1.0000
  Li  Li2       1.0  0.50000  0.00000  0.87728  1.0000
  Li  Li3       1.0  0.00000  0.25000  0.95909  1.0000
  Li  Li4       1.0  0.50000  0.50000  0.87728  1.0000
  Li  Li5       1.0  0.25000  0.00000  0.95909  1.0000
  Li  Li6       1.0  0.25000  0.50000  0.95909  1.0000
  Li  Li7       1.0  0.75000  0.75000  0.87728  1.0000
  Li  Li8       1.0  0.75000  0.25000  0.87728  1.0000
  Li  Li9       1.0  0.04123  0.25000  0.12712  1.0000
  Li  Li10      1.0  0.49959  0.49937  0.04053  1.0000
  Li  Li11      1.0  0.97211  0.75000  0.12275  1.0000
  Li  Li12      1.0  0.49959  0.00063  0.04053  1.0000
  Li  Li13      1.0  0.25485  0.52311  0.13175  1.0000
  Li  Li14      1.0  0.25485  0.97689  0.13175  1.0000
  Li  Li15      1.0  0.75648  0.25000  0.04470  1.0000
  Li  Li16      1.0  0.76593  0.75000  0.03502  1.0000
  Al  Al1       1.0  0.00000  0.00000  0.87728  1.0000
  Al  Al2       1.0  0.50000  0.25000  0.95909  1.0000
  Al  Al3       1.0  0.50000  0.75000  0.95909  1.0000
  Al  Al4       1.0  0.00000  0.50000  0.87728  1.0000
  Al  Al5       1.0  0.00573  0.50505  0.04242  1.0000
  Al  Al6       1.0  0.54623  0.75000  0.11450  1.0000
  Al  Al7       1.0  0.44440  0.25000  0.11666  1.0000
  Al  Al8       1.0  0.00573  0.99495  0.04242  1.0000
  Pd  Pd1       1.0  0.25000  0.25000  0.87728  1.0000
  Pd  Pd2       1.0  0.25000  0.75000  0.87728  1.0000
  Pd  Pd3       1.0  0.75000  0.50000  0.95909  1.0000
  Pd  Pd4       1.0  0.75000  0.00000  0.95909  1.0000
  Pd  Pd5       1.0  0.25536  0.75000  0.04333  1.0000
  Pd  Pd6       1.0  0.24060  0.25000  0.03667  1.0000
  Pd  Pd7       1.0  0.74665  0.01692  0.11757  1.0000
  Pd  Pd8       1.0  0.74665  0.48308  0.11757  1.0000
  C   C1        1.0  0.73677  0.25000  0.13801  1.0000
