# generated using pymatgen
data_Li16Al8Pd8C
_symmetry_space_group_name_H-M   'P 1'
_cell_length_a   8.67390000
_cell_length_b   6.13337000
_cell_length_c   26.50540000
_cell_angle_alpha   90.00000000
_cell_angle_beta   90.00000000
_cell_angle_gamma   90.00000000
_symmetry_Int_Tables_number   1
_chemical_formula_structural   Li16Al8Pd8C
_chemical_formula_sum   'Li16 Al8 Pd8 C1'
_cell_volume   1410.09358942
_cell_formula_units_Z   1
loop_
 _symmetry_equiv_pos_site_id
 _symmetry_equiv_pos_as_xyz
  1  'x, y, z'
loop_
 _atom_site_type_symbol
 _atom_site_label
 _atom_site_symmetry_multiplicity
 _atom_site_fract_x
 _atom_site_fract_y
 _atom_site_fract_z
 _atom_site_occupancy
  Li  Li0  1  0.50000000  0.00000000  0.04091000  1.0
  Li  Li1  1  0.75000000  0.50000000  0.12272000  1.0
  Li  Li2  1  0.00000000  0.00000000  0.04091000  1.0
  Li  Li3  1  0.25000000  0.50000000  0.12272000  1.0
  Li  Li4  1  0.75000000  0.25000000  0.04091000  1.0
  Li  Li5  1  0.25000000  0.25000000  0.04091000  1.0
  Li  Li6  1  0.50000000  0.75000000  0.12272000  1.0
  Li  Li7  1  0.00000000  0.75000000  0.12272000  1.0
  Li  Li8  1  0.00000000  0.04123000  0.87288000  1.0
  Li  Li9  1  0.24937000  0.49959000  0.95947000  1.0
  Li  Li10  1  0.50000000  0.97211000  0.87725000  1.0
  Li  Li11  1  0.75063000  0.49959000  0.95947000  1.0
  Li  Li12  1  0.27311000  0.25485000  0.86825000  1.0
  Li  Li13  1  0.72689000  0.25485000  0.86825000  1.0
  Li  Li14  1  0.00000000  0.75648000  0.95530000  1.0
  Li  Li15  1  0.50000000  0.76593000  0.96498000  1.0
  Al  Al16  1  0.75000000  0.00000000  0.12272000  1.0
  Al  Al17  1  0.00000000  0.50000000  0.04091000  1.0
  Al  Al18  1  0.50000000  0.50000000  0.04091000  1.0
  Al  Al19  1  0.25000000  0.00000000  0.12272000  1.0
  Al  Al20  1  0.25505000  0.00573000  0.95758000  1.0
  Al  Al21  1  0.50000000  0.54623000  0.88550000  1.0
  Al  Al22  1  0.00000000  0.44440000  0.88334000  1.0
  Al  Al23  1  0.74495000  0.00573000  0.95758000  1.0
  Pd  Pd24  1  0.00000000  0.25000000  0.12272000  1.0
  Pd  Pd25  1  0.50000000  0.25000000  0.12272000  1.0
  Pd  Pd26  1  0.25000000  0.75000000  0.04091000  1.0
  Pd  Pd27  1  0.75000000  0.75000000  0.04091000  1.0
  Pd  Pd28  1  0.50000000  0.25536000  0.95667000  1.0
  Pd  Pd29  1  0.00000000  0.24060000  0.96333000  1.0
  Pd  Pd30  1  0.76692000  0.74665000  0.88243000  1.0
  Pd  Pd31  1  0.23308000  0.74665000  0.88243000  1.0
  C  C32  1  0.00000000  0.73677000  0.86199000  1.0
