# generated using pymatgen
data_LiGePdPt
_symmetry_space_group_name_H-M   'P 1'
_cell_length_a   6.12898000
_cell_length_b   4.33384000
_cell_length_c   26.50080000
_cell_angle_alpha   90.00000000
_cell_angle_beta   90.00000000
_cell_angle_gamma   90.00000000
_symmetry_Int_Tables_number   1
_chemical_formula_structural   LiGePdPt
_chemical_formula_sum   'Li4 Ge4 Pd4 Pt4'
_cell_volume   703.91474472
_cell_formula_units_Z   4
loop_
 _symmetry_equiv_pos_site_id
 _symmetry_equiv_pos_as_xyz
  1  'x, y, z'
loop_
 _atom_site_type_symbol
 _atom_site_label
 _atom_site_symmetry_multiplicity
 _atom_site_fract_x
 _atom_site_fract_y
 _atom_site_fract_z
 _atom_site_occupancy
  Li  Li0  1  0.00000000  0.50000000  0.95912000  1.0
  Li  Li1  1  0.50000000  0.00000000  0.87735000  1.0
  Li  Li2  1  0.99325000  0.50000000  0.13451000  1.0
  Li  Li3  1  0.49813000  0.00000000  0.03780000  1.0
  Ge  Ge4  1  0.00000000  0.00000000  0.87735000  1.0
  Ge  Ge5  1  0.50000000  0.50000000  0.95912000  1.0
  Ge  Ge6  1  0.00337000  0.00000000  0.04241000  1.0
  Ge  Ge7  1  0.50683000  0.50000000  0.12506000  1.0
  Pd  Pd8  1  0.25000000  0.00000000  0.95912000  1.0
  Pd  Pd9  1  0.75000000  0.50000000  0.87735000  1.0
  Pd  Pd10  1  0.26591000  0.00000000  0.11820000  1.0
  Pd  Pd11  1  0.75103000  0.50000000  0.03953000  1.0
  Pt  Pt12  1  0.75000000  0.00000000  0.95912000  1.0
  Pt  Pt13  1  0.25000000  0.50000000  0.87735000  1.0
  Pt  Pt14  1  0.73288000  0.00000000  0.11494000  1.0
  Pt  Pt15  1  0.24989500  0.50000000  0.04192000  1.0
