# generated using pymatgen
data_Mn8Sn4W4C
_symmetry_space_group_name_H-M   Cmm2
_cell_length_a   8.63363238
_cell_length_b   8.63363238
_cell_length_c   24.57870000
_cell_angle_alpha   90.00000000
_cell_angle_beta   90.00000000
_cell_angle_gamma   90.00000000
_symmetry_Int_Tables_number   35
_chemical_formula_structural   Mn8Sn4W4C
_chemical_formula_sum   'Mn16 Sn8 W8 C2'
_cell_volume   1832.08666364
_cell_formula_units_Z   2
loop_
 _symmetry_equiv_pos_site_id
 _symmetry_equiv_pos_as_xyz
  1  'x, y, z'
  2  '-x, -y, z'
  3  '-x, y, z'
  4  'x, -y, z'
  5  'x+1/2, y+1/2, z'
  6  '-x+1/2, -y+1/2, z'
  7  '-x+1/2, y+1/2, z'
  8  'x+1/2, -y+1/2, z'
loop_
 _atom_site_type_symbol
 _atom_site_label
 _atom_site_symmetry_multiplicity
 _atom_site_fract_x
 _atom_site_fract_y
 _atom_site_fract_z
 _atom_site_occupancy
  Mn  Mn0  4  0.25000000  0.25000000  0.03105000  1.0
  Mn  Mn1  4  0.25000000  0.25000000  0.90686000  1.0
  Mn  Mn2  2  0.00000000  0.00000000  0.03105000  1.0
  Mn  Mn3  2  0.00000000  0.00000000  0.90686000  1.0
  Mn  Mn4  2  0.00000000  0.50000000  0.03105000  1.0
  Mn  Mn5  2  0.00000000  0.50000000  0.90686000  1.0
  Sn  Sn6  4  0.00000000  0.25000000  0.09314000  1.0
  Sn  Sn7  4  0.25000000  0.00000000  0.96895000  1.0
  W  W8  4  0.00000000  0.25000000  0.96895000  1.0
  W  W9  4  0.25000000  0.00000000  0.09314000  1.0
  C  C10  2  0.00000000  0.50000000  0.12569000  1.0
