# generated using pymatgen
data_Sc4Al4In4Pd4CO
_symmetry_space_group_name_H-M   Pm
_cell_length_a   5.99150000
_cell_length_b   8.30234000
_cell_length_c   24.49130000
_cell_angle_alpha   90.00000000
_cell_angle_beta   90.00000000
_cell_angle_gamma   90.00000000
_symmetry_Int_Tables_number   6
_chemical_formula_structural   Sc4Al4In4Pd4CO
_chemical_formula_sum   'Sc4 Al4 In4 Pd4 C1 O1'
_cell_volume   1218.28224951
_cell_formula_units_Z   1
loop_
 _symmetry_equiv_pos_site_id
 _symmetry_equiv_pos_as_xyz
  1  'x, y, z'
  2  'x, -y, z'
loop_
 _atom_site_type_symbol
 _atom_site_label
 _atom_site_symmetry_multiplicity
 _atom_site_fract_x
 _atom_site_fract_y
 _atom_site_fract_z
 _atom_site_occupancy
  Sc  Sc0  1  0.25798000  0.00000000  0.03056000  1.0
  Sc  Sc1  1  0.25798000  0.50000000  0.03056000  1.0
  Sc  Sc2  1  0.77611000  0.50000000  0.91099000  1.0
  Sc  Sc3  1  0.77720000  0.00000000  0.91076000  1.0
  Al  Al4  2  0.00000000  0.25000000  0.09169000  1.0
  Al  Al5  2  0.51163000  0.24880000  0.96949000  1.0
  In  In6  1  0.27647000  0.50000000  0.89610000  1.0
  In  In7  1  0.28098000  0.00000000  0.89625000  1.0
  In  In8  1  0.75798000  0.00000000  0.03056000  1.0
  In  In9  1  0.75798000  0.50000000  0.03056000  1.0
  Pd  Pd10  2  0.02894000  0.24870000  0.96640000  1.0
  Pd  Pd11  2  0.50000000  0.25000000  0.09169000  1.0
  C  C12  1  0.77264000  0.50000000  0.81736000  1.0
  O  O13  1  0.77205000  0.50000000  0.77037000  1.0
