# generated using pymatgen
data_Ta8Ga8Co16C
_symmetry_space_group_name_H-M   'P 1'
_cell_length_a   8.42794000
_cell_length_b   5.95946000
_cell_length_c   26.32100000
_cell_angle_alpha   90.00000000
_cell_angle_beta   90.00000000
_cell_angle_gamma   90.00000000
_symmetry_Int_Tables_number   1
_chemical_formula_structural   Ta8Ga8Co16C
_chemical_formula_sum   'Ta8 Ga8 Co16 C1'
_cell_volume   1321.99779091
_cell_formula_units_Z   1
loop_
 _symmetry_equiv_pos_site_id
 _symmetry_equiv_pos_as_xyz
  1  'x, y, z'
loop_
 _atom_site_type_symbol
 _atom_site_label
 _atom_site_symmetry_multiplicity
 _atom_site_fract_x
 _atom_site_fract_y
 _atom_site_fract_z
 _atom_site_occupancy
  Ta  Ta0  1  0.75001000  0.00000000  0.12007000  1.0
  Ta  Ta1  1  0.00000000  0.50000000  0.04002000  1.0
  Ta  Ta2  1  0.50000000  0.50000000  0.04002000  1.0
  Ta  Ta3  1  0.24999000  0.00000000  0.12007000  1.0
  Ta  Ta4  1  0.25260000  0.00213000  0.95863000  1.0
  Ta  Ta5  1  0.50000000  0.49627000  0.88012000  1.0
  Ta  Ta6  1  0.00000000  0.53099000  0.88600000  1.0
  Ta  Ta7  1  0.74740000  0.00213000  0.95863000  1.0
  Ga  Ga8  1  0.50000000  0.00000000  0.04002000  1.0
  Ga  Ga9  1  0.75001000  0.50000000  0.12007000  1.0
  Ga  Ga10  1  0.00000000  0.00000000  0.04002000  1.0
  Ga  Ga11  1  0.24999000  0.50000000  0.12007000  1.0
  Ga  Ga12  1  0.00000000  0.95345000  0.86754000  1.0
  Ga  Ga13  1  0.24811000  0.49516000  0.96063000  1.0
  Ga  Ga14  1  0.50000000  0.00229000  0.87271000  1.0
  Ga  Ga15  1  0.75189000  0.49516000  0.96063000  1.0
  Co  Co16  1  0.75001000  0.25000000  0.04002000  1.0
  Co  Co17  1  0.25001000  0.75000000  0.04002000  1.0
  Co  Co18  1  0.74999000  0.75000000  0.04002000  1.0
  Co  Co19  1  0.24999000  0.25000000  0.04002000  1.0
  Co  Co20  1  0.50000000  0.75000000  0.12007000  1.0
  Co  Co21  1  0.00000000  0.25000000  0.12007000  1.0
  Co  Co22  1  0.50000000  0.25000000  0.12007000  1.0
  Co  Co23  1  0.00000000  0.75000000  0.12007000  1.0
  Co  Co24  1  0.23291000  0.24139000  0.88008000  1.0
  Co  Co25  1  0.74050000  0.74851000  0.88686000  1.0
  Co  Co26  1  0.25950000  0.74851000  0.88686000  1.0
  Co  Co27  1  0.76709000  0.24139000  0.88008000  1.0
  Co  Co28  1  0.00000000  0.76432000  0.96391000  1.0
  Co  Co29  1  0.50000000  0.25753000  0.95859000  1.0
  Co  Co30  1  0.00000000  0.24529000  0.96055000  1.0
  Co  Co31  1  0.50000000  0.74222000  0.95813000  1.0
  C  C32  1  0.00000000  0.25822000  0.84546000  1.0
