# generated using pymatgen
data_Mg8In8Cu8Pd8C
_symmetry_space_group_name_H-M   'P 1'
_cell_length_a   9.13520000
_cell_length_b   6.45956000
_cell_length_c   26.85140000
_cell_angle_alpha   90.00000000
_cell_angle_beta   90.00000000
_cell_angle_gamma   90.00000000
_symmetry_Int_Tables_number   1
_chemical_formula_structural   Mg8In8Cu8Pd8C
_chemical_formula_sum   'Mg8 In8 Cu8 Pd8 C1'
_cell_volume   1584.48426507
_cell_formula_units_Z   1
loop_
 _symmetry_equiv_pos_site_id
 _symmetry_equiv_pos_as_xyz
  1  'x, y, z'
loop_
 _atom_site_type_symbol
 _atom_site_label
 _atom_site_symmetry_multiplicity
 _atom_site_fract_x
 _atom_site_fract_y
 _atom_site_fract_z
 _atom_site_occupancy
  Mg  Mg0  1  0.75000000  0.25000000  0.04253000  1.0
  Mg  Mg1  1  0.25000000  0.25000000  0.04253000  1.0
  Mg  Mg2  1  0.00000000  0.75000000  0.12758000  1.0
  Mg  Mg3  1  0.50000000  0.75000000  0.12758000  1.0
  Mg  Mg4  1  0.26464000  0.24536000  0.86684000  1.0
  Mg  Mg5  1  0.73536000  0.24536000  0.86684000  1.0
  Mg  Mg6  1  0.50000000  0.75067000  0.95961000  1.0
  Mg  Mg7  1  0.00000000  0.75279000  0.95212000  1.0
  In  In8  1  0.75000000  0.75000000  0.04253000  1.0
  In  In9  1  0.25000000  0.75000000  0.04253000  1.0
  In  In10  1  0.00000000  0.25000000  0.12758000  1.0
  In  In11  1  0.50000000  0.25000000  0.12758000  1.0
  In  In12  1  0.25133000  0.74472000  0.85787000  1.0
  In  In13  1  0.74867000  0.74472000  0.85787000  1.0
  In  In14  1  0.50000000  0.25125000  0.95680000  1.0
  In  In15  1  0.00000000  0.25275000  0.95988000  1.0
  Cu  Cu16  1  0.75000000  0.00000000  0.12758000  1.0
  Cu  Cu17  1  0.25000000  0.00000000  0.12758000  1.0
  Cu  Cu18  1  0.50000000  0.50000000  0.04253000  1.0
  Cu  Cu19  1  0.00000000  0.50000000  0.04253000  1.0
  Cu  Cu20  1  0.25419000  0.99444000  0.95398000  1.0
  Cu  Cu21  1  0.74581000  0.99444000  0.95398000  1.0
  Cu  Cu22  1  0.00000000  0.45081000  0.87264000  1.0
  Cu  Cu23  1  0.50000000  0.51774000  0.87518000  1.0
  Pd  Pd24  1  0.00000000  1.00000000  0.04253000  1.0
  Pd  Pd25  1  0.50000000  0.00000000  0.04253000  1.0
  Pd  Pd26  1  0.25000000  0.50000000  0.12758000  1.0
  Pd  Pd27  1  0.75000000  0.50000000  0.12758000  1.0
  Pd  Pd28  1  0.50000000  0.98034000  0.87720000  1.0
  Pd  Pd29  1  0.00000000  0.04560000  0.87228000  1.0
  Pd  Pd30  1  0.74577000  0.50850000  0.95406000  1.0
  Pd  Pd31  1  0.25423000  0.50850000  0.95406000  1.0
  C  C32  1  0.00000000  0.73618000  0.86246000  1.0
