# generated using pymatgen
data_Y8Sn8Pd16C
_symmetry_space_group_name_H-M   'P 1'
_cell_length_a   9.68063000
_cell_length_b   6.84524000
_cell_length_c   27.26050000
_cell_angle_alpha   90.00000000
_cell_angle_beta   90.00000000
_cell_angle_gamma   90.00000000
_symmetry_Int_Tables_number   1
_chemical_formula_structural   Y8Sn8Pd16C
_chemical_formula_sum   'Y8 Sn8 Pd16 C1'
_cell_volume   1806.45071833
_cell_formula_units_Z   1
loop_
 _symmetry_equiv_pos_site_id
 _symmetry_equiv_pos_as_xyz
  1  'x, y, z'
loop_
 _atom_site_type_symbol
 _atom_site_label
 _atom_site_symmetry_multiplicity
 _atom_site_fract_x
 _atom_site_fract_y
 _atom_site_fract_z
 _atom_site_occupancy
  Y  Y0  1  0.75001000  0.00000000  0.13317000  1.0
  Y  Y1  1  0.00000000  0.50000000  0.04439000  1.0
  Y  Y2  1  0.50000000  0.50000000  0.04439000  1.0
  Y  Y3  1  0.24999000  0.00000000  0.13317000  1.0
  Y  Y4  1  0.25182000  0.99433000  0.95608000  1.0
  Y  Y5  1  0.50000000  0.49070000  0.86397000  1.0
  Y  Y6  1  0.00000000  0.53249000  0.86487000  1.0
  Y  Y7  1  0.74818000  0.99433000  0.95608000  1.0
  Sn  Sn8  1  0.50000000  1.00000000  0.04439000  1.0
  Sn  Sn9  1  0.75001000  0.50000000  0.13317000  1.0
  Sn  Sn10  1  0.00000000  1.00000000  0.04439000  1.0
  Sn  Sn11  1  0.24999000  0.50000000  0.13317000  1.0
  Sn  Sn12  1  0.00000000  0.94699000  0.82554000  1.0
  Sn  Sn13  1  0.24834000  0.49510000  0.95222000  1.0
  Sn  Sn14  1  0.50000000  0.01260000  0.86679000  1.0
  Sn  Sn15  1  0.75166000  0.49510000  0.95222000  1.0
  Pd  Pd16  1  0.75001000  0.25000000  0.04439000  1.0
  Pd  Pd17  1  0.25001000  0.75000000  0.04439000  1.0
  Pd  Pd18  1  0.74999000  0.75000000  0.04439000  1.0
  Pd  Pd19  1  0.24999000  0.25000000  0.04439000  1.0
  Pd  Pd20  1  0.50000000  0.75000000  0.13317000  1.0
  Pd  Pd21  1  0.00000000  0.25000000  0.13317000  1.0
  Pd  Pd22  1  0.50000000  0.25000000  0.13317000  1.0
  Pd  Pd23  1  0.00000000  0.75000000  0.13317000  1.0
  Pd  Pd24  1  0.23277000  0.21053000  0.87076000  1.0
  Pd  Pd25  1  0.74118000  0.76319000  0.87013000  1.0
  Pd  Pd26  1  0.25882000  0.76319000  0.87013000  1.0
  Pd  Pd27  1  0.76723000  0.21053000  0.87076000  1.0
  Pd  Pd28  1  0.00000000  0.74297000  0.95840000  1.0
  Pd  Pd29  1  0.50000000  0.26863000  0.95389000  1.0
  Pd  Pd30  1  0.00000000  0.23701000  0.94807000  1.0
  Pd  Pd31  1  0.50000000  0.73207000  0.95091000  1.0
  C  C32  1  0.00000000  0.21174000  0.86425000  1.0
