# generated using pymatgen
data_Y8Sn8Pd16C
_symmetry_space_group_name_H-M   Pm
_cell_length_a   6.84524000
_cell_length_b   9.68063000
_cell_length_c   27.26050000
_cell_angle_alpha   90.00000000
_cell_angle_beta   90.00000000
_cell_angle_gamma   90.00000000
_symmetry_Int_Tables_number   6
_chemical_formula_structural   Y8Sn8Pd16C
_chemical_formula_sum   'Y8 Sn8 Pd16 C1'
_cell_volume   1806.45071833
_cell_formula_units_Z   1
loop_
 _symmetry_equiv_pos_site_id
 _symmetry_equiv_pos_as_xyz
  1  'x, y, z'
  2  'x, -y, z'
loop_
 _atom_site_type_symbol
 _atom_site_label
 _atom_site_symmetry_multiplicity
 _atom_site_fract_x
 _atom_site_fract_y
 _atom_site_fract_z
 _atom_site_occupancy
  Y  Y0  2  0.00000000  0.24999000  0.86683000  1.0
  Y  Y1  2  0.99433000  0.25182000  0.04392000  1.0
  Y  Y2  1  0.49070000  0.50000000  0.13603000  1.0
  Y  Y3  1  0.50000000  0.00000000  0.95561000  1.0
  Y  Y4  1  0.50000000  0.50000000  0.95561000  1.0
  Y  Y5  1  0.53249000  0.00000000  0.13513000  1.0
  Sn  Sn6  2  0.49510000  0.24834000  0.04778000  1.0
  Sn  Sn7  2  0.50000000  0.24999000  0.86683000  1.0
  Sn  Sn8  1  -0.00000000  0.50000000  0.95561000  1.0
  Sn  Sn9  1  -0.00000000  0.00000000  0.95561000  1.0
  Sn  Sn10  1  0.01260000  0.50000000  0.13321000  1.0
  Sn  Sn11  1  0.94699000  0.00000000  0.17446000  1.0
  Pd  Pd12  2  0.21053000  0.23277000  0.12924000  1.0
  Pd  Pd13  2  0.25000000  0.24999000  0.95561000  1.0
  Pd  Pd14  2  0.75000000  0.25001000  0.95561000  1.0
  Pd  Pd15  2  0.76319000  0.25882000  0.12987000  1.0
  Pd  Pd16  1  0.23701000  0.00000000  0.05193000  1.0
  Pd  Pd17  1  0.25000000  0.00000000  0.86683000  1.0
  Pd  Pd18  1  0.25000000  0.50000000  0.86683000  1.0
  Pd  Pd19  1  0.26863000  0.50000000  0.04611000  1.0
  Pd  Pd20  1  0.73207000  0.50000000  0.04909000  1.0
  Pd  Pd21  1  0.74297000  0.00000000  0.04160000  1.0
  Pd  Pd22  1  0.75000000  0.00000000  0.86683000  1.0
  Pd  Pd23  1  0.75000000  0.50000000  0.86683000  1.0
  C  C24  1  0.21174000  0.00000000  0.13575000  1.0
