data_image0
_chemical_formula_structural       Li8Mg8In8Pb8C
_chemical_formula_sum              "Li8 Mg8 In8 Pb8 C1"
_cell_length_a       7.11424
_cell_length_b       10.0611
_cell_length_c       27.5458
_cell_angle_alpha    90
_cell_angle_beta     90
_cell_angle_gamma    90

_space_group_name_H-M_alt    "P 1"
_space_group_IT_number       1

loop_
  _space_group_symop_operation_xyz
  'x, y, z'

loop_
  _atom_site_type_symbol
  _atom_site_label
  _atom_site_symmetry_multiplicity
  _atom_site_fract_x
  _atom_site_fract_y
  _atom_site_fract_z
  _atom_site_occupancy
  Li  Li1       1.0  0.75000  0.00000  0.95434  1.0000
  Li  Li2       1.0  0.75000  0.50000  0.95434  1.0000
  Li  Li3       1.0  0.25000  0.25000  0.86303  1.0000
  Li  Li4       1.0  0.25000  0.75000  0.86303  1.0000
  Li  Li5       1.0  0.75578  0.50000  0.13635  1.0000
  Li  Li6       1.0  0.71854  0.00000  0.14302  1.0000
  Li  Li7       1.0  0.24513  0.74957  0.04785  1.0000
  Li  Li8       1.0  0.24514  0.25043  0.04785  1.0000
  Mg  Mg1       1.0  0.25000  0.00000  0.95434  1.0000
  Mg  Mg2       1.0  0.25000  0.50000  0.95434  1.0000
  Mg  Mg3       1.0  0.75000  0.25000  0.86303  1.0000
  Mg  Mg4       1.0  0.75000  0.75000  0.86303  1.0000
  Mg  Mg5       1.0  0.24158  0.50000  0.14561  1.0000
  Mg  Mg6       1.0  0.30146  0.00000  0.15056  1.0000
  Mg  Mg7       1.0  0.75718  0.74747  0.04990  1.0000
  Mg  Mg8       1.0  0.75718  0.25253  0.04989  1.0000
  In  In1       1.0  0.00000  0.00000  0.86303  1.0000
  In  In2       1.0  0.00000  0.50000  0.86303  1.0000
  In  In3       1.0  0.50000  0.75000  0.95434  1.0000
  In  In4       1.0  0.50000  0.25000  0.95434  1.0000
  In  In5       1.0  0.01162  0.50000  0.05040  1.0000
  In  In6       1.0  0.00830  0.00000  0.05722  1.0000
  In  In7       1.0  0.50383  0.26230  0.14427  1.0000
  In  In8       1.0  0.50383  0.73770  0.14427  1.0000
  Pb  Pb1       1.0  0.00000  0.25000  0.95434  1.0000
  Pb  Pb2       1.0  0.00000  0.75000  0.95434  1.0000
  Pb  Pb3       1.0  0.50000  0.50000  0.86303  1.0000
  Pb  Pb4       1.0  0.50000  0.00000  0.86303  1.0000
  Pb  Pb5       1.0  0.97397  0.76234  0.15555  1.0000
  Pb  Pb6       1.0  0.97396  0.23766  0.15555  1.0000
  Pb  Pb7       1.0  0.50116  0.00000  0.04969  1.0000
  Pb  Pb8       1.0  0.49244  0.50000  0.04992  1.0000
  C   C1        1.0  0.00705  0.00000  0.14178  1.0000
