# generated using pymatgen
data_Li8Mg8In8Pb8C
_symmetry_space_group_name_H-M   'P 1'
_cell_length_a   10.06110000
_cell_length_b   7.11424000
_cell_length_c   27.54580000
_cell_angle_alpha   90.00000000
_cell_angle_beta   90.00000000
_cell_angle_gamma   90.00000000
_symmetry_Int_Tables_number   1
_chemical_formula_structural   Li8Mg8In8Pb8C
_chemical_formula_sum   'Li8 Mg8 In8 Pb8 C1'
_cell_volume   1971.64793203
_cell_formula_units_Z   1
loop_
 _symmetry_equiv_pos_site_id
 _symmetry_equiv_pos_as_xyz
  1  'x, y, z'
loop_
 _atom_site_type_symbol
 _atom_site_label
 _atom_site_symmetry_multiplicity
 _atom_site_fract_x
 _atom_site_fract_y
 _atom_site_fract_z
 _atom_site_occupancy
  Li  Li0  1  0.00000000  0.75000000  0.04566000  1.0
  Li  Li1  1  0.50000000  0.75000000  0.04566000  1.0
  Li  Li2  1  0.25000000  0.25000000  0.13697000  1.0
  Li  Li3  1  0.75000000  0.25000000  0.13697000  1.0
  Li  Li4  1  0.50000000  0.75578000  0.86365000  1.0
  Li  Li5  1  0.00000000  0.71854000  0.85698000  1.0
  Li  Li6  1  0.74957000  0.24513000  0.95215000  1.0
  Li  Li7  1  0.25043000  0.24513000  0.95215000  1.0
  Mg  Mg8  1  0.00000000  0.25000000  0.04566000  1.0
  Mg  Mg9  1  0.50000000  0.25000000  0.04566000  1.0
  Mg  Mg10  1  0.25000000  0.75000000  0.13697000  1.0
  Mg  Mg11  1  0.75000000  0.75000000  0.13697000  1.0
  Mg  Mg12  1  0.50000000  0.24158000  0.85439000  1.0
  Mg  Mg13  1  0.00000000  0.30146000  0.84944000  1.0
  Mg  Mg14  1  0.74747000  0.75718000  0.95010000  1.0
  Mg  Mg15  1  0.25253000  0.75718000  0.95010000  1.0
  In  In16  1  0.00000000  0.00000000  0.13697000  1.0
  In  In17  1  0.50000000  0.00000000  0.13697000  1.0
  In  In18  1  0.75000000  0.50000000  0.04566000  1.0
  In  In19  1  0.25000000  0.50000000  0.04566000  1.0
  In  In20  1  0.50000000  0.01162000  0.94960000  1.0
  In  In21  1  0.00000000  0.00830000  0.94278000  1.0
  In  In22  1  0.26230000  0.50383000  0.85573000  1.0
  In  In23  1  0.73770000  0.50383000  0.85573000  1.0
  Pb  Pb24  1  0.25000000  0.00000000  0.04566000  1.0
  Pb  Pb25  1  0.75000000  0.00000000  0.04566000  1.0
  Pb  Pb26  1  0.50000000  0.50000000  0.13697000  1.0
  Pb  Pb27  1  0.00000000  0.50000000  0.13697000  1.0
  Pb  Pb28  1  0.76234000  0.97397000  0.84445000  1.0
  Pb  Pb29  1  0.23766000  0.97397000  0.84445000  1.0
  Pb  Pb30  1  0.00000000  0.50116000  0.95031000  1.0
  Pb  Pb31  1  0.50000000  0.49244000  0.95008000  1.0
  C  C32  1  0.00000000  0.00705000  0.85822000  1.0
