# generated using pymatgen
data_Li8Mg8In8Pb8C
_symmetry_space_group_name_H-M   Pm
_cell_length_a   7.11424000
_cell_length_b   10.06110000
_cell_length_c   27.54580000
_cell_angle_alpha   90.00000000
_cell_angle_beta   90.00000000
_cell_angle_gamma   90.00000000
_symmetry_Int_Tables_number   6
_chemical_formula_structural   Li8Mg8In8Pb8C
_chemical_formula_sum   'Li8 Mg8 In8 Pb8 C1'
_cell_volume   1971.64793203
_cell_formula_units_Z   1
loop_
 _symmetry_equiv_pos_site_id
 _symmetry_equiv_pos_as_xyz
  1  'x, y, z'
  2  'x, -y, z'
loop_
 _atom_site_type_symbol
 _atom_site_label
 _atom_site_symmetry_multiplicity
 _atom_site_fract_x
 _atom_site_fract_y
 _atom_site_fract_z
 _atom_site_occupancy
  Li  Li0  2  0.24513000  0.25043000  0.04785000  1.0
  Li  Li1  2  0.25000000  0.25000000  0.86303000  1.0
  Li  Li2  1  0.71854000  0.00000000  0.14302000  1.0
  Li  Li3  1  0.75000000  0.00000000  0.95434000  1.0
  Li  Li4  1  0.75000000  0.50000000  0.95434000  1.0
  Li  Li5  1  0.75578000  0.50000000  0.13635000  1.0
  Mg  Mg6  2  0.75000000  0.25000000  0.86303000  1.0
  Mg  Mg7  2  0.75718000  0.25253000  0.04990000  1.0
  Mg  Mg8  1  0.24158000  0.50000000  0.14561000  1.0
  Mg  Mg9  1  0.25000000  0.00000000  0.95434000  1.0
  Mg  Mg10  1  0.25000000  0.50000000  0.95434000  1.0
  Mg  Mg11  1  0.30146000  0.00000000  0.15056000  1.0
  In  In12  2  0.50000000  0.25000000  0.95434000  1.0
  In  In13  2  0.50383000  0.26230000  0.14427000  1.0
  In  In14  1  0.00000000  0.00000000  0.86303000  1.0
  In  In15  1  0.00000000  0.50000000  0.86303000  1.0
  In  In16  1  0.00830000  0.00000000  0.05722000  1.0
  In  In17  1  0.01162000  0.50000000  0.05040000  1.0
  Pb  Pb18  2  0.00000000  0.25000000  0.95434000  1.0
  Pb  Pb19  2  0.97397000  0.23766000  0.15555000  1.0
  Pb  Pb20  1  0.49244000  0.50000000  0.04992000  1.0
  Pb  Pb21  1  0.50000000  0.00000000  0.86303000  1.0
  Pb  Pb22  1  0.50000000  0.50000000  0.86303000  1.0
  Pb  Pb23  1  0.50116000  0.00000000  0.04969000  1.0
  C  C24  1  0.00705000  0.00000000  0.14178000  1.0
