# generated using pymatgen
data_NaLi2Sb
_symmetry_space_group_name_H-M   'P 1'
_cell_length_a   4.84031562
_cell_length_b   4.84031562
_cell_length_c   25.13390000
_cell_angle_alpha   90.00000000
_cell_angle_beta   90.00000000
_cell_angle_gamma   90.00000000
_symmetry_Int_Tables_number   1
_chemical_formula_structural   NaLi2Sb
_chemical_formula_sum   'Na2 Li4 Sb2'
_cell_volume   588.85348017
_cell_formula_units_Z   2
loop_
 _symmetry_equiv_pos_site_id
 _symmetry_equiv_pos_as_xyz
  1  'x, y, z'
loop_
 _atom_site_type_symbol
 _atom_site_label
 _atom_site_symmetry_multiplicity
 _atom_site_fract_x
 _atom_site_fract_y
 _atom_site_fract_z
 _atom_site_occupancy
  Na  Na0  1  0.00000000  0.00000000  0.10213000  1.0
  Na  Na1  1  0.50000000  0.50000000  0.96596000  1.0
  Li  Li2  1  0.50000000  0.00000000  0.03404000  1.0
  Li  Li3  1  0.50000000  0.00000000  0.89787000  1.0
  Li  Li4  1  0.00000000  0.50000000  0.03404000  1.0
  Li  Li5  1  0.00000000  0.50000000  0.89787000  1.0
  Sb  Sb6  1  0.00000000  0.00000000  0.96596000  1.0
  Sb  Sb7  1  0.50000000  0.50000000  0.10213000  1.0
