# generated using pymatgen
data_Sc8Sn8Pt16CO
_symmetry_space_group_name_H-M   'P 1'
_cell_length_a   6.65597000
_cell_length_b   9.41296000
_cell_length_c   27.05970000
_cell_angle_alpha   90.00000000
_cell_angle_beta   90.00000000
_cell_angle_gamma   90.00000000
_symmetry_Int_Tables_number   1
_chemical_formula_structural   Sc8Sn8Pt16CO
_chemical_formula_sum   'Sc8 Sn8 Pt16 C1 O1'
_cell_volume   1695.35459007
_cell_formula_units_Z   1
loop_
 _symmetry_equiv_pos_site_id
 _symmetry_equiv_pos_as_xyz
  1  'x, y, z'
loop_
 _atom_site_type_symbol
 _atom_site_label
 _atom_site_symmetry_multiplicity
 _atom_site_fract_x
 _atom_site_fract_y
 _atom_site_fract_z
 _atom_site_occupancy
  Sc  Sc0  1  0.00000000  0.75000000  0.86955000  1.0
  Sc  Sc1  1  0.50000000  0.00000000  0.95652000  1.0
  Sc  Sc2  1  0.50000000  0.50000000  0.95652000  1.0
  Sc  Sc3  1  0.00000000  0.25000000  0.86955000  1.0
  Sc  Sc4  1  0.00000000  0.25117000  0.04522000  1.0
  Sc  Sc5  1  0.50000000  0.50000000  0.12737000  1.0
  Sc  Sc6  1  0.50000000  0.00000000  0.12831000  1.0
  Sc  Sc7  1  0.00000000  0.74883000  0.04522000  1.0
  Sn  Sn8  1  0.00000000  0.50000000  0.95652000  1.0
  Sn  Sn9  1  0.50000000  0.75000000  0.86955000  1.0
  Sn  Sn10  1  0.00000000  0.00000000  0.95652000  1.0
  Sn  Sn11  1  0.50000000  0.25000000  0.86955000  1.0
  Sn  Sn12  1  0.00000000  0.00000000  0.13814000  1.0
  Sn  Sn13  1  0.50000000  0.24787000  0.04192000  1.0
  Sn  Sn14  1  0.00000000  0.50000000  0.13884000  1.0
  Sn  Sn15  1  0.50000000  0.75213000  0.04192000  1.0
  Pt  Pt16  1  0.25000000  0.75000000  0.95652000  1.0
  Pt  Pt17  1  0.75000000  0.25000000  0.95652000  1.0
  Pt  Pt18  1  0.75000000  0.75000000  0.95652000  1.0
  Pt  Pt19  1  0.25000000  0.25000000  0.95652000  1.0
  Pt  Pt20  1  0.75000000  0.50000000  0.86955000  1.0
  Pt  Pt21  1  0.25000000  0.00000000  0.86955000  1.0
  Pt  Pt22  1  0.25000000  0.50000000  0.86955000  1.0
  Pt  Pt23  1  0.75000000  0.00000000  0.86955000  1.0
  Pt  Pt24  1  0.25656000  0.25201000  0.12457000  1.0
  Pt  Pt25  1  0.74344000  0.74799000  0.12457000  1.0
  Pt  Pt26  1  0.74344000  0.25201000  0.12457000  1.0
  Pt  Pt27  1  0.25656000  0.74799000  0.12457000  1.0
  Pt  Pt28  1  0.76354000  0.00000000  0.04446000  1.0
  Pt  Pt29  1  0.24200000  0.50000000  0.04483000  1.0
  Pt  Pt30  1  0.23646000  0.00000000  0.04446000  1.0
  Pt  Pt31  1  0.75800000  0.50000000  0.04483000  1.0
  C  C32  1  0.50000000  0.00000000  0.21540000  1.0
  O  O33  1  0.50000000  0.00000000  0.25758000  1.0
