# generated using pymatgen
data_TiCo3
_symmetry_space_group_name_H-M   'P 1'
_cell_length_a   3.62616500
_cell_length_b   5.12817000
_cell_length_c   23.84610000
_cell_angle_alpha   90.00000000
_cell_angle_beta   90.00000000
_cell_angle_gamma   90.00000000
_symmetry_Int_Tables_number   1
_chemical_formula_structural   TiCo3
_chemical_formula_sum   'Ti2 Co6'
_cell_volume   443.43231224
_cell_formula_units_Z   2
loop_
 _symmetry_equiv_pos_site_id
 _symmetry_equiv_pos_as_xyz
  1  'x, y, z'
loop_
 _atom_site_type_symbol
 _atom_site_label
 _atom_site_symmetry_multiplicity
 _atom_site_fract_x
 _atom_site_fract_y
 _atom_site_fract_z
 _atom_site_occupancy
  Ti  Ti0  1  0.00000000  0.00000000  0.91936000  1.0
  Ti  Ti1  1  0.00000000  0.50000000  0.02688000  1.0
  Co  Co2  1  0.00000000  0.50000000  0.91936000  1.0
  Co  Co3  1  0.50000000  0.75000000  0.97312000  1.0
  Co  Co4  1  0.50000000  0.25000000  0.97312000  1.0
  Co  Co5  1  0.00000000  0.00000000  0.02688000  1.0
  Co  Co6  1  0.50000000  0.25000000  0.08064000  1.0
  Co  Co7  1  0.50000000  0.75000000  0.08064000  1.0
