data_image0
_chemical_formula_structural       Li4Mg4Cu4Pd4C
_chemical_formula_sum              "Li4 Mg4 Cu4 Pd4 C1"
_cell_length_a       5.46655
_cell_length_b       7.95764
_cell_length_c       24.0963
_cell_angle_alpha    90
_cell_angle_beta     90
_cell_angle_gamma    90

_space_group_name_H-M_alt    "P 1"
_space_group_IT_number       1

loop_
  _space_group_symop_operation_xyz
  'x, y, z'

loop_
  _atom_site_type_symbol
  _atom_site_label
  _atom_site_symmetry_multiplicity
  _atom_site_fract_x
  _atom_site_fract_y
  _atom_site_fract_z
  _atom_site_occupancy
  Li  Li1       1.0  0.46845  0.06534  0.10393  1.0000
  Li  Li2       1.0  0.97912  0.00000  0.97167  1.0000
  Li  Li3       1.0  0.46845  0.43466  0.10394  1.0000
  Li  Li4       1.0  0.97912  0.50000  0.97167  1.0000
  Mg  Mg1       1.0  0.24953  0.25000  0.01907  1.0000
  Mg  Mg2       1.0  0.71869  0.25000  0.91500  1.0000
  Mg  Mg3       1.0  0.24529  0.75000  0.03443  1.0000
  Mg  Mg4       1.0  0.71869  0.75000  0.91500  1.0000
  Cu  Cu1       1.0  0.98863  0.03891  0.08344  1.0000
  Cu  Cu2       1.0  0.47912  0.00000  0.97167  1.0000
  Cu  Cu3       1.0  0.98864  0.46109  0.08344  1.0000
  Cu  Cu4       1.0  0.47912  0.50000  0.97167  1.0000
  Pd  Pd1       1.0  0.73042  0.25000  0.02330  1.0000
  Pd  Pd2       1.0  0.21869  0.25000  0.91500  1.0000
  Pd  Pd3       1.0  0.74869  0.75000  0.03258  1.0000
  Pd  Pd4       1.0  0.21869  0.75000  0.91500  1.0000
  C   C1        1.0  0.13431  0.25000  0.10450  1.0000
