# generated using pymatgen
data_Li16Ag8Sb8CO
_symmetry_space_group_name_H-M   'P 1'
_cell_length_a   9.47494000
_cell_length_b   6.69979000
_cell_length_c   27.10620000
_cell_angle_alpha   90.00000000
_cell_angle_beta   90.00000000
_cell_angle_gamma   90.00000000
_symmetry_Int_Tables_number   1
_chemical_formula_structural   Li16Ag8Sb8CO
_chemical_formula_sum   'Li16 Ag8 Sb8 C1 O1'
_cell_volume   1720.70451059
_cell_formula_units_Z   1
loop_
 _symmetry_equiv_pos_site_id
 _symmetry_equiv_pos_as_xyz
  1  'x, y, z'
loop_
 _atom_site_type_symbol
 _atom_site_label
 _atom_site_symmetry_multiplicity
 _atom_site_fract_x
 _atom_site_fract_y
 _atom_site_fract_z
 _atom_site_occupancy
  Li  Li0  1  0.50000000  1.00000000  0.04369000  1.0
  Li  Li1  1  0.75000000  0.50000000  0.13108000  1.0
  Li  Li2  1  0.00000000  1.00000000  0.04369000  1.0
  Li  Li3  1  0.25000000  0.50000000  0.13108000  1.0
  Li  Li4  1  0.75000000  0.25000000  0.04369000  1.0
  Li  Li5  1  0.25000000  0.25000000  0.04369000  1.0
  Li  Li6  1  0.50000000  0.75000000  0.13108000  1.0
  Li  Li7  1  0.00000000  0.75000000  0.13108000  1.0
  Li  Li8  1  0.00000000  0.96621000  0.87252000  1.0
  Li  Li9  1  0.24857000  0.48679000  0.96093000  1.0
  Li  Li10  1  0.50000000  0.98851000  0.87650000  1.0
  Li  Li11  1  0.75143000  0.48679000  0.96093000  1.0
  Li  Li12  1  0.24652000  0.28710000  0.86911000  1.0
  Li  Li13  1  0.75348000  0.28710000  0.86911000  1.0
  Li  Li14  1  0.00000000  0.74116000  0.95553000  1.0
  Li  Li15  1  0.50000000  0.73303000  0.95485000  1.0
  Ag  Ag16  1  0.00000000  0.25000000  0.13108000  1.0
  Ag  Ag17  1  0.50000000  0.25000000  0.13108000  1.0
  Ag  Ag18  1  0.25000000  0.75000000  0.04369000  1.0
  Ag  Ag19  1  0.75000000  0.75000000  0.04369000  1.0
  Ag  Ag20  1  0.50000000  0.26815000  0.95380000  1.0
  Ag  Ag21  1  0.00000000  0.25988000  0.95118000  1.0
  Ag  Ag22  1  0.74471000  0.71733000  0.87928000  1.0
  Ag  Ag23  1  0.25529000  0.71733000  0.87928000  1.0
  Sb  Sb24  1  0.75000000  0.00000000  0.13108000  1.0
  Sb  Sb25  1  0.00000000  0.50000000  0.04369000  1.0
  Sb  Sb26  1  0.50000000  0.50000000  0.04369000  1.0
  Sb  Sb27  1  0.25000000  0.00000000  0.13108000  1.0
  Sb  Sb28  1  0.25171000  0.00883000  0.95367000  1.0
  Sb  Sb29  1  0.50000000  0.49291000  0.86145000  1.0
  Sb  Sb30  1  0.00000000  0.50887000  0.86312000  1.0
  Sb  Sb31  1  0.74829000  0.00883000  0.95367000  1.0
  C  C32  1  0.00000000  0.00539000  0.79502000  1.0
  O  O33  1  0.00000000  0.00728000  0.75298000  1.0
