# generated using pymatgen
data_Li16Ag8Sb8CO
_symmetry_space_group_name_H-M   Pm
_cell_length_a   6.69979000
_cell_length_b   9.47494000
_cell_length_c   27.10620000
_cell_angle_alpha   90.00000000
_cell_angle_beta   90.00000000
_cell_angle_gamma   90.00000000
_symmetry_Int_Tables_number   6
_chemical_formula_structural   Li16Ag8Sb8CO
_chemical_formula_sum   'Li16 Ag8 Sb8 C1 O1'
_cell_volume   1720.70451059
_cell_formula_units_Z   1
loop_
 _symmetry_equiv_pos_site_id
 _symmetry_equiv_pos_as_xyz
  1  'x, y, z'
  2  'x, -y, z'
loop_
 _atom_site_type_symbol
 _atom_site_label
 _atom_site_symmetry_multiplicity
 _atom_site_fract_x
 _atom_site_fract_y
 _atom_site_fract_z
 _atom_site_occupancy
  Li  Li0  2  0.25000000  0.25000000  0.95631000  1.0
  Li  Li1  2  0.28710000  0.24652000  0.13089000  1.0
  Li  Li2  2  0.48679000  0.24857000  0.03907000  1.0
  Li  Li3  2  0.50000000  0.25000000  0.86892000  1.0
  Li  Li4  1  -0.00000000  0.50000000  0.95631000  1.0
  Li  Li5  1  -0.00000000  0.00000000  0.95631000  1.0
  Li  Li6  1  0.73303000  0.50000000  0.04515000  1.0
  Li  Li7  1  0.74116000  0.00000000  0.04447000  1.0
  Li  Li8  1  0.75000000  0.00000000  0.86892000  1.0
  Li  Li9  1  0.75000000  0.50000000  0.86892000  1.0
  Li  Li10  1  0.96621000  0.00000000  0.12748000  1.0
  Li  Li11  1  0.98851000  0.50000000  0.12350000  1.0
  Ag  Ag12  2  0.71733000  0.25529000  0.12072000  1.0
  Ag  Ag13  2  0.75000000  0.25000000  0.95631000  1.0
  Ag  Ag14  1  0.25000000  0.00000000  0.86892000  1.0
  Ag  Ag15  1  0.25000000  0.50000000  0.86892000  1.0
  Ag  Ag16  1  0.25988000  0.00000000  0.04882000  1.0
  Ag  Ag17  1  0.26815000  0.50000000  0.04620000  1.0
  Sb  Sb18  2  0.00000000  0.25000000  0.86892000  1.0
  Sb  Sb19  2  0.00883000  0.25171000  0.04633000  1.0
  Sb  Sb20  1  0.49291000  0.50000000  0.13855000  1.0
  Sb  Sb21  1  0.50000000  0.00000000  0.95631000  1.0
  Sb  Sb22  1  0.50000000  0.50000000  0.95631000  1.0
  Sb  Sb23  1  0.50887000  0.00000000  0.13688000  1.0
  C  C24  1  0.00539000  0.00000000  0.20498000  1.0
  O  O25  1  0.00728000  0.00000000  0.24702000  1.0
