data_image0
_chemical_formula_structural       Sc16Au16CO
_chemical_formula_sum              "Sc16 Au16 C1 O1"
_cell_length_a       6.85145
_cell_length_b       9.68941
_cell_length_c       27.2671
_cell_angle_alpha    90
_cell_angle_beta     90
_cell_angle_gamma    90

_space_group_name_H-M_alt    "P 1"
_space_group_IT_number       1

loop_
  _space_group_symop_operation_xyz
  'x, y, z'

loop_
  _atom_site_type_symbol
  _atom_site_label
  _atom_site_symmetry_multiplicity
  _atom_site_fract_x
  _atom_site_fract_y
  _atom_site_fract_z
  _atom_site_occupancy
  Sc  Sc1       1.0  0.25000  0.25000  0.86674  1.0000
  Sc  Sc2       1.0  0.25000  0.50000  0.95558  1.0000
  Sc  Sc3       1.0  0.25000  0.25000  0.04442  1.0000
  Sc  Sc4       1.0  0.25000  0.00000  0.13326  1.0000
  Sc  Sc5       1.0  0.25000  0.75000  0.86674  1.0000
  Sc  Sc6       1.0  0.25000  0.00000  0.95558  1.0000
  Sc  Sc7       1.0  0.25000  0.75000  0.04442  1.0000
  Sc  Sc8       1.0  0.25000  0.50000  0.13326  1.0000
  Sc  Sc9       1.0  0.75000  0.25000  0.86674  1.0000
  Sc  Sc10      1.0  0.75000  0.50000  0.95558  1.0000
  Sc  Sc11      1.0  0.75000  0.25000  0.04442  1.0000
  Sc  Sc12      1.0  0.75000  0.00000  0.13326  1.0000
  Sc  Sc13      1.0  0.75000  0.75000  0.86674  1.0000
  Sc  Sc14      1.0  0.75000  0.00000  0.95558  1.0000
  Sc  Sc15      1.0  0.75000  0.75000  0.04442  1.0000
  Sc  Sc16      1.0  0.75000  0.50000  0.13326  1.0000
  Au  Au1       1.0  0.00000  0.00000  0.86674  1.0000
  Au  Au2       1.0  0.00000  0.25000  0.95558  1.0000
  Au  Au3       1.0  0.00000  0.00000  0.04442  1.0000
  Au  Au4       1.0  0.00000  0.25000  0.13326  1.0000
  Au  Au5       1.0  0.00000  0.50000  0.86674  1.0000
  Au  Au6       1.0  0.00000  0.75000  0.95558  1.0000
  Au  Au7       1.0  0.00000  0.50000  0.04442  1.0000
  Au  Au8       1.0  0.00000  0.75000  0.13326  1.0000
  Au  Au9       1.0  0.50000  0.00000  0.86674  1.0000
  Au  Au10      1.0  0.50000  0.25000  0.95558  1.0000
  Au  Au11      1.0  0.50000  0.00000  0.04442  1.0000
  Au  Au12      1.0  0.50000  0.25000  0.13326  1.0000
  Au  Au13      1.0  0.50000  0.50000  0.86674  1.0000
  Au  Au14      1.0  0.50000  0.75000  0.95558  1.0000
  Au  Au15      1.0  0.50000  0.50000  0.04442  1.0000
  Au  Au16      1.0  0.50000  0.75000  0.13326  1.0000
  C   C1        1.0  0.25000  0.00000  0.20294  1.0000
  O   O1        1.0  0.25000  0.00000  0.24511  1.0000
