# generated using pymatgen
data_Sc16Au16CO
_symmetry_space_group_name_H-M   'P 1'
_cell_length_a   6.85145000
_cell_length_b   9.68941000
_cell_length_c   27.26710000
_cell_angle_alpha   90.00000000
_cell_angle_beta   90.00000000
_cell_angle_gamma   90.00000000
_symmetry_Int_Tables_number   1
_chemical_formula_structural   Sc16Au16CO
_chemical_formula_sum   'Sc16 Au16 C1 O1'
_cell_volume   1810.16755623
_cell_formula_units_Z   1
loop_
 _symmetry_equiv_pos_site_id
 _symmetry_equiv_pos_as_xyz
  1  'x, y, z'
loop_
 _atom_site_type_symbol
 _atom_site_label
 _atom_site_symmetry_multiplicity
 _atom_site_fract_x
 _atom_site_fract_y
 _atom_site_fract_z
 _atom_site_occupancy
  Sc  Sc0  1  0.00000000  0.25000000  0.86674000  1.0
  Sc  Sc1  1  0.00000000  0.50000000  0.95558000  1.0
  Sc  Sc2  1  0.00000000  0.24716000  0.04418000  1.0
  Sc  Sc3  1  0.00000000  0.00000000  0.13230000  1.0
  Sc  Sc4  1  0.00000000  0.75000000  0.86674000  1.0
  Sc  Sc5  1  0.00000000  0.00000000  0.95558000  1.0
  Sc  Sc6  1  0.00000000  0.75284000  0.04418000  1.0
  Sc  Sc7  1  0.00000000  0.50000000  0.13244000  1.0
  Sc  Sc8  1  0.50000000  0.25000000  0.86674000  1.0
  Sc  Sc9  1  0.50000000  0.50000000  0.95558000  1.0
  Sc  Sc10  1  0.50000000  0.25156000  0.04432000  1.0
  Sc  Sc11  1  0.50000000  0.00000000  0.13501000  1.0
  Sc  Sc12  1  0.50000000  0.75000000  0.86674000  1.0
  Sc  Sc13  1  0.50000000  0.00000000  0.95558000  1.0
  Sc  Sc14  1  0.50000000  0.74844000  0.04432000  1.0
  Sc  Sc15  1  0.50000000  0.50000000  0.13208000  1.0
  Au  Au16  1  0.75000000  0.00000000  0.86674000  1.0
  Au  Au17  1  0.75000000  0.25000000  0.95558000  1.0
  Au  Au18  1  0.73787000  0.00000000  0.04571000  1.0
  Au  Au19  1  0.74903000  0.25100000  0.12713000  1.0
  Au  Au20  1  0.75000000  0.50000000  0.86674000  1.0
  Au  Au21  1  0.75000000  0.75000000  0.95558000  1.0
  Au  Au22  1  0.75526000  0.50000000  0.04455000  1.0
  Au  Au23  1  0.74903000  0.74900000  0.12713000  1.0
  Au  Au24  1  0.25000000  0.00000000  0.86674000  1.0
  Au  Au25  1  0.25000000  0.25000000  0.95558000  1.0
  Au  Au26  1  0.26213000  0.00000000  0.04571000  1.0
  Au  Au27  1  0.25097000  0.25100000  0.12713000  1.0
  Au  Au28  1  0.25000000  0.50000000  0.86674000  1.0
  Au  Au29  1  0.25000000  0.75000000  0.95558000  1.0
  Au  Au30  1  0.24474000  0.50000000  0.04455000  1.0
  Au  Au31  1  0.25097000  0.74900000  0.12713000  1.0
  C  C32  1  0.00000000  0.00000000  0.21578000  1.0
  O  O33  1  0.00000000  0.00000000  0.25808000  1.0
