# generated using pymatgen
data_LiMgGePd
_symmetry_space_group_name_H-M   P1
_cell_length_a   6.25843000
_cell_length_b   6.25843000
_cell_length_c   24.69380000
_cell_angle_alpha   90.00000000
_cell_angle_beta   90.00000000
_cell_angle_gamma   90.00000000
_symmetry_Int_Tables_number   1
_chemical_formula_structural   LiMgGePd
_chemical_formula_sum   'Li4 Mg4 Ge4 Pd4'
_cell_volume   967.20542654
_cell_formula_units_Z   4
loop_
 _symmetry_equiv_pos_site_id
 _symmetry_equiv_pos_as_xyz
  1  'x, y, z'
loop_
 _atom_site_type_symbol
 _atom_site_label
 _atom_site_symmetry_multiplicity
 _atom_site_fract_x
 _atom_site_fract_y
 _atom_site_fract_z
 _atom_site_occupancy
  Li  Li0  1  0.25000000  0.75000000  0.90496000  1.0
  Li  Li1  1  0.25005000  0.24999000  0.03406000  1.0
  Li  Li2  1  0.74994000  0.75001000  0.03407000  1.0
  Li  Li3  1  0.75000000  0.25000000  0.90496000  1.0
  Mg  Mg4  1  0.00000000  0.00000000  0.96832000  1.0
  Mg  Mg5  1  0.00007000  0.50001000  0.10119000  1.0
  Mg  Mg6  1  0.49997000  0.99998000  0.10122000  1.0
  Mg  Mg7  1  0.50000000  0.50000000  0.96832000  1.0
  Ge  Ge8  1  0.00000000  0.50000000  0.96832000  1.0
  Ge  Ge9  1  0.00009000  0.99998000  0.09724000  1.0
  Ge  Ge10  1  0.49991000  0.50002000  0.09828000  1.0
  Ge  Ge11  1  0.50000000  0.00000000  0.96832000  1.0
  Pd  Pd12  1  0.25000000  0.25000000  0.90496000  1.0
  Pd  Pd13  1  0.25044000  0.74961000  0.03374000  1.0
  Pd  Pd14  1  0.74957000  0.25040000  0.03379000  1.0
  Pd  Pd15  1  0.75000000  0.75000000  0.90496000  1.0
