# generated using pymatgen
data_Hf8In8Ni16CO
_symmetry_space_group_name_H-M   P1
_cell_length_a   6.31539000
_cell_length_b   8.93131000
_cell_length_c   26.69850000
_cell_angle_alpha   90.00000000
_cell_angle_beta   90.00000000
_cell_angle_gamma   90.00000000
_symmetry_Int_Tables_number   1
_chemical_formula_structural   Hf8In8Ni16CO
_chemical_formula_sum   'Hf8 In8 Ni16 C1 O1'
_cell_volume   1505.92103943
_cell_formula_units_Z   1
loop_
 _symmetry_equiv_pos_site_id
 _symmetry_equiv_pos_as_xyz
  1  'x, y, z'
loop_
 _atom_site_type_symbol
 _atom_site_label
 _atom_site_symmetry_multiplicity
 _atom_site_fract_x
 _atom_site_fract_y
 _atom_site_fract_z
 _atom_site_occupancy
  Hf  Hf0  1  0.00000000  0.00000000  0.87455000  1.0
  Hf  Hf1  1  0.00000000  0.50000000  0.87455000  1.0
  Hf  Hf2  1  0.49901000  0.74818000  0.12353000  1.0
  Hf  Hf3  1  0.49904000  0.25180000  0.12346000  1.0
  Hf  Hf4  1  0.50000000  0.25000000  0.95818000  1.0
  Hf  Hf5  1  0.50000000  0.75000000  0.95818000  1.0
  Hf  Hf6  1  0.99797000  0.49999000  0.04298000  1.0
  Hf  Hf7  1  0.99945000  0.99997000  0.04398000  1.0
  In  In8  1  0.00000000  0.25000000  0.95818000  1.0
  In  In9  1  0.00000000  0.75000000  0.95818000  1.0
  In  In10  1  0.49393000  0.00004000  0.04164000  1.0
  In  In11  1  0.50000000  0.00000000  0.87455000  1.0
  In  In12  1  0.50000000  0.50000000  0.87455000  1.0
  In  In13  1  0.50018000  0.49994000  0.03971000  1.0
  In  In14  1  0.99495000  0.74611000  0.13290000  1.0
  In  In15  1  0.99508000  0.25384000  0.13293000  1.0
  Ni  Ni16  1  0.24874000  0.25112000  0.04525000  1.0
  Ni  Ni17  1  0.24889000  0.74898000  0.04530000  1.0
  Ni  Ni18  1  0.25000000  0.00000000  0.95818000  1.0
  Ni  Ni19  1  0.25000000  0.25000000  0.87455000  1.0
  Ni  Ni20  1  0.25000000  0.50000000  0.95818000  1.0
  Ni  Ni21  1  0.25000000  0.75000000  0.87455000  1.0
  Ni  Ni22  1  0.25329000  0.49997000  0.11986000  1.0
  Ni  Ni23  1  0.25481000  0.99994000  0.13082000  1.0
  Ni  Ni24  1  0.73934000  0.49996000  0.12085000  1.0
  Ni  Ni25  1  0.74960000  0.75169000  0.04487000  1.0
  Ni  Ni26  1  0.75000000  0.00000000  0.95818000  1.0
  Ni  Ni27  1  0.75000000  0.25000000  0.87455000  1.0
  Ni  Ni28  1  0.75000000  0.50000000  0.95818000  1.0
  Ni  Ni29  1  0.75000000  0.75000000  0.87455000  1.0
  Ni  Ni30  1  0.75010000  0.24826000  0.04488000  1.0
  Ni  Ni31  1  0.75304000  0.99996000  0.11956000  1.0
  C  C32  1  0.34042000  0.00002000  0.19378000  1.0
  O  O33  1  0.37969000  0.00008000  0.23642000  1.0
