# generated using pymatgen
data_V4Co8Si4CO
_symmetry_space_group_name_H-M   P4mm
_cell_length_a   5.68381000
_cell_length_b   5.68381000
_cell_length_c   24.26290000
_cell_angle_alpha   90.00000000
_cell_angle_beta   90.00000000
_cell_angle_gamma   90.00000000
_symmetry_Int_Tables_number   99
_chemical_formula_structural   V4Co8Si4CO
_chemical_formula_sum   'V4 Co8 Si4 C1 O1'
_cell_volume   783.82987430
_cell_formula_units_Z   1
loop_
 _symmetry_equiv_pos_site_id
 _symmetry_equiv_pos_as_xyz
  1  'x, y, z'
  2  '-y, x, z'
  3  '-x, -y, z'
  4  'y, -x, z'
  5  '-x, y, z'
  6  'y, x, z'
  7  'x, -y, z'
  8  '-y, -x, z'
loop_
 _atom_site_type_symbol
 _atom_site_label
 _atom_site_symmetry_multiplicity
 _atom_site_fract_x
 _atom_site_fract_y
 _atom_site_fract_z
 _atom_site_occupancy
  V  V0  2  0.00000000  0.50000000  0.97072000  1.0
  V  V1  1  0.00000000  0.00000000  0.08832000  1.0
  V  V2  1  0.50000000  0.50000000  0.09147000  1.0
  Co  Co3  4  0.25000000  0.25000000  0.91215000  1.0
  Co  Co4  4  0.25085000  0.25085000  0.02861000  1.0
  Si  Si5  2  0.00000000  0.50000000  0.08574000  1.0
  Si  Si6  1  0.00000000  0.00000000  0.97072000  1.0
  Si  Si7  1  0.50000000  0.50000000  0.97072000  1.0
  C  C8  1  0.00000000  0.00000000  0.17033000  1.0
  O  O9  1  0.00000000  0.00000000  0.21787000  1.0
