data_image0
_chemical_formula_structural       Mn8Co16Si8C
_chemical_formula_sum              "Mn8 Co16 Si8 C1"
_cell_length_a       5.64266
_cell_length_b       7.97993
_cell_length_c       25.9849
_cell_angle_alpha    90
_cell_angle_beta     90
_cell_angle_gamma    90

_space_group_name_H-M_alt    "P 1"
_space_group_IT_number       1

loop_
  _space_group_symop_operation_xyz
  'x, y, z'

loop_
  _atom_site_type_symbol
  _atom_site_label
  _atom_site_symmetry_multiplicity
  _atom_site_fract_x
  _atom_site_fract_y
  _atom_site_fract_z
  _atom_site_occupancy
  Mn  Mn1       1.0  0.00000  0.00000  0.88484  1.0000
  Mn  Mn2       1.0  0.50000  0.25000  0.96161  1.0000
  Mn  Mn3       1.0  0.50000  0.75000  0.96161  1.0000
  Mn  Mn4       1.0  0.00000  0.50000  0.88484  1.0000
  Mn  Mn5       1.0  0.00237  0.50103  0.03762  1.0000
  Mn  Mn6       1.0  0.48791  0.75001  0.12132  1.0000
  Mn  Mn7       1.0  0.54167  0.24999  0.11994  1.0000
  Mn  Mn8       1.0  0.00236  0.99897  0.03762  1.0000
  Co  Co1       1.0  0.25000  0.00000  0.96161  1.0000
  Co  Co2       1.0  0.75000  0.50000  0.96161  1.0000
  Co  Co3       1.0  0.75000  0.00000  0.96161  1.0000
  Co  Co4       1.0  0.25000  0.50000  0.96161  1.0000
  Co  Co5       1.0  0.75000  0.75000  0.88484  1.0000
  Co  Co6       1.0  0.25000  0.25000  0.88484  1.0000
  Co  Co7       1.0  0.25000  0.75000  0.88484  1.0000
  Co  Co8       1.0  0.75000  0.25000  0.88484  1.0000
  Co  Co9       1.0  0.23973  0.48324  0.11457  1.0000
  Co  Co10      1.0  0.75685  0.99347  0.11131  1.0000
  Co  Co11      1.0  0.75683  0.50653  0.11131  1.0000
  Co  Co12      1.0  0.23972  0.01676  0.11457  1.0000
  Co  Co13      1.0  0.74851  0.24998  0.03643  1.0000
  Co  Co14      1.0  0.25377  0.75002  0.03871  1.0000
  Co  Co15      1.0  0.25396  0.24998  0.03910  1.0000
  Co  Co16      1.0  0.74552  0.75002  0.03842  1.0000
  Si  Si1       1.0  0.00000  0.75000  0.96161  1.0000
  Si  Si2       1.0  0.50000  0.00000  0.88484  1.0000
  Si  Si3       1.0  0.00000  0.25000  0.96161  1.0000
  Si  Si4       1.0  0.50000  0.50000  0.88484  1.0000
  Si  Si5       1.0  0.95622  0.25001  0.11391  1.0000
  Si  Si6       1.0  0.49796  0.49985  0.03970  1.0000
  Si  Si7       1.0  0.00688  0.75000  0.11241  1.0000
  Si  Si8       1.0  0.49796  0.00015  0.03970  1.0000
  C   C1        1.0  0.24720  0.25000  0.14326  1.0000
