# generated using pymatgen
data_K12Bi4C
_symmetry_space_group_name_H-M   'P 1'
_cell_length_a   8.83903000
_cell_length_b   8.83903000
_cell_length_c   26.62930000
_cell_angle_alpha   90.00000000
_cell_angle_beta   90.00000000
_cell_angle_gamma   90.00000000
_symmetry_Int_Tables_number   1
_chemical_formula_structural   K12Bi4C
_chemical_formula_sum   'K12 Bi4 C1'
_cell_volume   2080.50596929
_cell_formula_units_Z   1
loop_
 _symmetry_equiv_pos_site_id
 _symmetry_equiv_pos_as_xyz
  1  'x, y, z'
loop_
 _atom_site_type_symbol
 _atom_site_label
 _atom_site_symmetry_multiplicity
 _atom_site_fract_x
 _atom_site_fract_y
 _atom_site_fract_z
 _atom_site_occupancy
  K  K0  1  0.24919000  0.24912000  0.03047000  1.0
  K  K1  1  0.75000000  0.75000000  0.87553000  1.0
  K  K2  1  0.74989000  0.25007000  0.05374000  1.0
  K  K3  1  0.25000000  0.75000000  0.87553000  1.0
  K  K4  1  0.75007000  0.75006000  0.05270000  1.0
  K  K5  1  0.25000000  0.25000000  0.87553000  1.0
  K  K6  1  0.25008000  0.74987000  0.05368000  1.0
  K  K7  1  0.75000000  0.25000000  0.87553000  1.0
  K  K8  1  0.00000000  0.00000000  0.95851000  1.0
  K  K9  1  0.48040000  0.01976000  0.17281000  1.0
  K  K10  1  0.01973000  0.48043000  0.17281000  1.0
  K  K11  1  0.50000000  0.50000000  0.95851000  1.0
  Bi  Bi12  1  0.07707000  0.07708000  0.13880000  1.0
  Bi  Bi13  1  0.42320000  0.42324000  0.13861000  1.0
  Bi  Bi14  1  0.50000000  0.00000000  0.95851000  1.0
  Bi  Bi15  1  0.00000000  0.50000000  0.95851000  1.0
  C  C16  1  0.25006000  0.25019000  0.13818000  1.0
