# generated using pymatgen
data_Li8Al16Pt8C
_symmetry_space_group_name_H-M   Pm
_cell_length_a   6.09904000
_cell_length_b   8.62534000
_cell_length_c   26.46900000
_cell_angle_alpha   90.00000000
_cell_angle_beta   90.00000000
_cell_angle_gamma   90.00000000
_symmetry_Int_Tables_number   6
_chemical_formula_structural   Li8Al16Pt8C
_chemical_formula_sum   'Li8 Al16 Pt8 C1'
_cell_volume   1392.43598725
_cell_formula_units_Z   1
loop_
 _symmetry_equiv_pos_site_id
 _symmetry_equiv_pos_as_xyz
  1  'x, y, z'
  2  'x, -y, z'
loop_
 _atom_site_type_symbol
 _atom_site_label
 _atom_site_symmetry_multiplicity
 _atom_site_fract_x
 _atom_site_fract_y
 _atom_site_fract_z
 _atom_site_occupancy
  Li  Li0  2  0.00000000  0.25000000  0.87780000  1.0
  Li  Li1  2  0.00131000  0.24941000  0.04239000  1.0
  Li  Li2  1  0.46904000  0.50000000  0.16703000  1.0
  Li  Li3  1  0.50000000  0.00000000  0.95927000  1.0
  Li  Li4  1  0.50000000  0.50000000  0.95927000  1.0
  Li  Li5  1  0.54141000  0.00000000  0.17220000  1.0
  Al  Al6  2  0.25000000  0.25000000  0.95927000  1.0
  Al  Al7  2  0.27440000  0.23486000  0.12600000  1.0
  Al  Al8  2  0.73816000  0.26310000  0.12447000  1.0
  Al  Al9  2  0.75000000  0.25000000  0.95927000  1.0
  Al  Al10  1  0.25000000  0.00000000  0.87780000  1.0
  Al  Al11  1  0.25000000  0.50000000  0.87780000  1.0
  Al  Al12  1  0.26166000  0.50000000  0.04328000  1.0
  Al  Al13  1  0.27778000  0.00000000  0.04897000  1.0
  Al  Al14  1  0.73468000  0.00000000  0.04148000  1.0
  Al  Al15  1  0.74309000  0.50000000  0.04336000  1.0
  Al  Al16  1  0.75000000  0.00000000  0.87780000  1.0
  Al  Al17  1  0.75000000  0.50000000  0.87780000  1.0
  Pt  Pt18  2  0.50000000  0.25000000  0.87780000  1.0
  Pt  Pt19  2  0.50073000  0.25435000  0.03584000  1.0
  Pt  Pt20  1  -0.00000000  0.00000000  0.95927000  1.0
  Pt  Pt21  1  0.00000000  0.50000000  0.95927000  1.0
  Pt  Pt22  1  0.00745000  0.50000000  0.11772000  1.0
  Pt  Pt23  1  0.92615000  0.00000000  0.12223000  1.0
  C  C24  1  0.26276000  0.00000000  0.12795000  1.0
