# generated using pymatgen
data_Al4V4Ni8CO
_symmetry_space_group_name_H-M   'P 1'
_cell_length_a   5.81624000
_cell_length_b   5.81624000
_cell_length_c   24.36220000
_cell_angle_alpha   90.00000000
_cell_angle_beta   90.00000000
_cell_angle_gamma   90.00000000
_symmetry_Int_Tables_number   1
_chemical_formula_structural   Al4V4Ni8CO
_chemical_formula_sum   'Al4 V4 Ni8 C1 O1'
_cell_volume   824.14028191
_cell_formula_units_Z   1
loop_
 _symmetry_equiv_pos_site_id
 _symmetry_equiv_pos_as_xyz
  1  'x, y, z'
loop_
 _atom_site_type_symbol
 _atom_site_label
 _atom_site_symmetry_multiplicity
 _atom_site_fract_x
 _atom_site_fract_y
 _atom_site_fract_z
 _atom_site_occupancy
  Al  Al0  1  0.00000000  0.00000000  0.91047000  1.0
  Al  Al1  1  0.50000000  0.50000000  0.91047000  1.0
  Al  Al2  1  0.49974000  0.00027000  0.03091000  1.0
  Al  Al3  1  0.00023000  0.49972000  0.03091000  1.0
  V  V4  1  0.99643000  0.99646000  0.03289000  1.0
  V  V5  1  0.50000000  0.00000000  0.91047000  1.0
  V  V6  1  1.00000000  0.50000000  0.91047000  1.0
  V  V7  1  0.50356000  0.50358000  0.03286000  1.0
  Ni  Ni8  1  0.25000000  0.25000000  0.97016000  1.0
  Ni  Ni9  1  0.74993000  0.74984000  0.08710000  1.0
  Ni  Ni10  1  0.75000000  0.25000000  0.97016000  1.0
  Ni  Ni11  1  0.25010000  0.74994000  0.08584000  1.0
  Ni  Ni12  1  0.75000000  0.75000000  0.97016000  1.0
  Ni  Ni13  1  0.25005000  0.25004000  0.08962000  1.0
  Ni  Ni14  1  0.25000000  0.75000000  0.97016000  1.0
  Ni  Ni15  1  0.74986000  0.25026000  0.08584000  1.0
  C  C16  1  0.24998000  0.24994000  0.16316000  1.0
  O  O17  1  0.25003000  0.24998000  0.21045000  1.0
