# generated using pymatgen
data_Sc8Mn8In8Pd8C
_symmetry_space_group_name_H-M   'P 1'
_cell_length_a   9.36632000
_cell_length_b   6.62299000
_cell_length_c   27.02470000
_cell_angle_alpha   90.00000000
_cell_angle_beta   90.00000000
_cell_angle_gamma   90.00000000
_symmetry_Int_Tables_number   1
_chemical_formula_structural   Sc8Mn8In8Pd8C
_chemical_formula_sum   'Sc8 Mn8 In8 Pd8 C1'
_cell_volume   1676.42439599
_cell_formula_units_Z   1
loop_
 _symmetry_equiv_pos_site_id
 _symmetry_equiv_pos_as_xyz
  1  'x, y, z'
loop_
 _atom_site_type_symbol
 _atom_site_label
 _atom_site_symmetry_multiplicity
 _atom_site_fract_x
 _atom_site_fract_y
 _atom_site_fract_z
 _atom_site_occupancy
  Sc  Sc0  1  0.00000000  0.00000000  0.04332000  1.0
  Sc  Sc1  1  0.50000000  0.00000000  0.04332000  1.0
  Sc  Sc2  1  0.25000000  0.50000000  0.12997000  1.0
  Sc  Sc3  1  0.75000000  0.50000000  0.12997000  1.0
  Sc  Sc4  1  0.50000000  0.97396000  0.87065000  1.0
  Sc  Sc5  1  0.00000000  0.97852000  0.87385000  1.0
  Sc  Sc6  1  0.74812000  0.51508000  0.95139000  1.0
  Sc  Sc7  1  0.25188000  0.51508000  0.95139000  1.0
  Mn  Mn8  1  0.75000000  0.75000000  0.04332000  1.0
  Mn  Mn9  1  0.25000000  0.75000000  0.04332000  1.0
  Mn  Mn10  1  0.00000000  0.25000000  0.12997000  1.0
  Mn  Mn11  1  0.50000000  0.25000000  0.12997000  1.0
  Mn  Mn12  1  0.21302000  0.68340000  0.83019000  1.0
  Mn  Mn13  1  0.78698000  0.68340000  0.83019000  1.0
  Mn  Mn14  1  0.50000000  0.25698000  0.94881000  1.0
  Mn  Mn15  1  0.00000000  0.25012000  0.95969000  1.0
  In  In16  1  0.75000000  0.00000000  0.12997000  1.0
  In  In17  1  0.25000000  0.00000000  0.12997000  1.0
  In  In18  1  0.50000000  0.50000000  0.04332000  1.0
  In  In19  1  0.00000000  0.50000000  0.04332000  1.0
  In  In20  1  0.25114000  0.99451000  0.95580000  1.0
  In  In21  1  0.74886000  0.99451000  0.95580000  1.0
  In  In22  1  0.00000000  0.44839000  0.87209000  1.0
  In  In23  1  0.50000000  0.51731000  0.85892000  1.0
  Pd  Pd24  1  0.75000000  0.25000000  0.04332000  1.0
  Pd  Pd25  1  0.25000000  0.25000000  0.04332000  1.0
  Pd  Pd26  1  0.00000000  0.75000000  0.12997000  1.0
  Pd  Pd27  1  0.50000000  0.75000000  0.12997000  1.0
  Pd  Pd28  1  0.26495000  0.25368000  0.87613000  1.0
  Pd  Pd29  1  0.73505000  0.25368000  0.87613000  1.0
  Pd  Pd30  1  0.50000000  0.74973000  0.95857000  1.0
  Pd  Pd31  1  0.00000000  0.75130000  0.96123000  1.0
  C  C32  1  0.00000000  0.73113000  0.82503000  1.0
