# generated using pymatgen
data_Cu8Sn8Rh16CO
_symmetry_space_group_name_H-M   'P 1'
_cell_length_a   8.85274000
_cell_length_b   6.25984000
_cell_length_c   26.63960000
_cell_angle_alpha   90.00000000
_cell_angle_beta   90.00000000
_cell_angle_gamma   90.00000000
_symmetry_Int_Tables_number   1
_chemical_formula_structural   Cu8Sn8Rh16CO
_chemical_formula_sum   'Cu8 Sn8 Rh16 C1 O1'
_cell_volume   1476.27967932
_cell_formula_units_Z   1
loop_
 _symmetry_equiv_pos_site_id
 _symmetry_equiv_pos_as_xyz
  1  'x, y, z'
loop_
 _atom_site_type_symbol
 _atom_site_label
 _atom_site_symmetry_multiplicity
 _atom_site_fract_x
 _atom_site_fract_y
 _atom_site_fract_z
 _atom_site_occupancy
  Cu  Cu0  1  0.00000000  0.00000000  0.12462000  1.0
  Cu  Cu1  1  0.24998000  0.50000000  0.04154000  1.0
  Cu  Cu2  1  0.75002000  0.50000000  0.04154000  1.0
  Cu  Cu3  1  0.50000000  0.00000000  0.12462000  1.0
  Cu  Cu4  1  0.50000000  0.99982000  0.95837000  1.0
  Cu  Cu5  1  0.75047000  0.50064000  0.87516000  1.0
  Cu  Cu6  1  0.24953000  0.50064000  0.87516000  1.0
  Cu  Cu7  1  0.00000000  0.00371000  0.95701000  1.0
  Sn  Sn8  1  0.74998000  0.00000000  0.04154000  1.0
  Sn  Sn9  1  0.00000000  0.50000000  0.12462000  1.0
  Sn  Sn10  1  0.25002000  0.00000000  0.04154000  1.0
  Sn  Sn11  1  0.50000000  0.50000000  0.12462000  1.0
  Sn  Sn12  1  0.25321000  0.99643000  0.87171000  1.0
  Sn  Sn13  1  0.50000000  0.49792000  0.96073000  1.0
  Sn  Sn14  1  0.74679000  0.99643000  0.87171000  1.0
  Sn  Sn15  1  0.00000000  0.49985000  0.95952000  1.0
  Rh  Rh16  1  0.00000000  0.25000000  0.04154000  1.0
  Rh  Rh17  1  0.50000000  0.75000000  0.04154000  1.0
  Rh  Rh18  1  0.00000000  0.75000000  0.04154000  1.0
  Rh  Rh19  1  0.50000000  0.25000000  0.04154000  1.0
  Rh  Rh20  1  0.74998000  0.75000000  0.12462000  1.0
  Rh  Rh21  1  0.24998000  0.25000000  0.12462000  1.0
  Rh  Rh22  1  0.75002000  0.25000000  0.12462000  1.0
  Rh  Rh23  1  0.25002000  0.75000000  0.12462000  1.0
  Rh  Rh24  1  0.50000000  0.25251000  0.87974000  1.0
  Rh  Rh25  1  0.00000000  0.74978000  0.87906000  1.0
  Rh  Rh26  1  0.50000000  0.74117000  0.87975000  1.0
  Rh  Rh27  1  0.00000000  0.25384000  0.87152000  1.0
  Rh  Rh28  1  0.24913000  0.75252000  0.95835000  1.0
  Rh  Rh29  1  0.75295000  0.24635000  0.95786000  1.0
  Rh  Rh30  1  0.24705000  0.24635000  0.95786000  1.0
  Rh  Rh31  1  0.75087000  0.75252000  0.95835000  1.0
  C  C32  1  0.00000000  0.33934000  0.80450000  1.0
  O  O33  1  0.00000000  0.38705000  0.76243000  1.0
