# generated using pymatgen
data_Mn8Co16Si8CO
_symmetry_space_group_name_H-M   'P 1'
_cell_length_a   5.64266000
_cell_length_b   7.97993000
_cell_length_c   25.98490000
_cell_angle_alpha   90.00000000
_cell_angle_beta   90.00000000
_cell_angle_gamma   90.00000000
_symmetry_Int_Tables_number   1
_chemical_formula_structural   Mn8Co16Si8CO
_chemical_formula_sum   'Mn8 Co16 Si8 C1 O1'
_cell_volume   1170.04890388
_cell_formula_units_Z   1
loop_
 _symmetry_equiv_pos_site_id
 _symmetry_equiv_pos_as_xyz
  1  'x, y, z'
loop_
 _atom_site_type_symbol
 _atom_site_label
 _atom_site_symmetry_multiplicity
 _atom_site_fract_x
 _atom_site_fract_y
 _atom_site_fract_z
 _atom_site_occupancy
  Mn  Mn0  1  0.00000000  0.75000000  0.88484000  1.0
  Mn  Mn1  1  0.50000000  0.00000000  0.96161000  1.0
  Mn  Mn2  1  0.50000000  0.50000000  0.96161000  1.0
  Mn  Mn3  1  0.00000000  0.25000000  0.88484000  1.0
  Mn  Mn4  1  0.00000000  0.25050000  0.03726000  1.0
  Mn  Mn5  1  0.50000000  0.50000000  0.12050000  1.0
  Mn  Mn6  1  0.50000000  0.00000000  0.12068000  1.0
  Mn  Mn7  1  0.00000000  0.74950000  0.03726000  1.0
  Co  Co8  1  0.25000000  0.75000000  0.96161000  1.0
  Co  Co9  1  0.75000000  0.25000000  0.96161000  1.0
  Co  Co10  1  0.75000000  0.75000000  0.96161000  1.0
  Co  Co11  1  0.25000000  0.25000000  0.96161000  1.0
  Co  Co12  1  0.75000000  0.50000000  0.88484000  1.0
  Co  Co13  1  0.25000000  0.00000000  0.88484000  1.0
  Co  Co14  1  0.25000000  0.50000000  0.88484000  1.0
  Co  Co15  1  0.75000000  0.00000000  0.88484000  1.0
  Co  Co16  1  0.23771000  0.25184000  0.11173000  1.0
  Co  Co17  1  0.76229000  0.74816000  0.11173000  1.0
  Co  Co18  1  0.76229000  0.25184000  0.11173000  1.0
  Co  Co19  1  0.23771000  0.74816000  0.11173000  1.0
  Co  Co20  1  0.74771000  0.00000000  0.03870000  1.0
  Co  Co21  1  0.25419000  0.50000000  0.03787000  1.0
  Co  Co22  1  0.25229000  0.00000000  0.03870000  1.0
  Co  Co23  1  0.74581000  0.50000000  0.03787000  1.0
  Si  Si24  1  0.00000000  0.50000000  0.96161000  1.0
  Si  Si25  1  0.50000000  0.75000000  0.88484000  1.0
  Si  Si26  1  0.00000000  0.00000000  0.96161000  1.0
  Si  Si27  1  0.50000000  0.25000000  0.88484000  1.0
  Si  Si28  1  0.00000000  0.00000000  0.11477000  1.0
  Si  Si29  1  0.50000000  0.24961000  0.03941000  1.0
  Si  Si30  1  0.00000000  0.50000000  0.11186000  1.0
  Si  Si31  1  0.50000000  0.75039000  0.03941000  1.0
  C  C32  1  0.00000000  0.00000000  0.18696000  1.0
  O  O33  1  0.00000000  0.00000000  0.23167000  1.0
