# generated using pymatgen
data_Mn8Co16Si8CO
_symmetry_space_group_name_H-M   Pmm2
_cell_length_a   5.64266000
_cell_length_b   7.97993000
_cell_length_c   25.98490000
_cell_angle_alpha   90.00000000
_cell_angle_beta   90.00000000
_cell_angle_gamma   90.00000000
_symmetry_Int_Tables_number   25
_chemical_formula_structural   Mn8Co16Si8CO
_chemical_formula_sum   'Mn8 Co16 Si8 C1 O1'
_cell_volume   1170.04890388
_cell_formula_units_Z   1
loop_
 _symmetry_equiv_pos_site_id
 _symmetry_equiv_pos_as_xyz
  1  'x, y, z'
  2  '-x, -y, z'
  3  '-x, y, z'
  4  'x, -y, z'
loop_
 _atom_site_type_symbol
 _atom_site_label
 _atom_site_symmetry_multiplicity
 _atom_site_fract_x
 _atom_site_fract_y
 _atom_site_fract_z
 _atom_site_occupancy
  Mn  Mn0  2  0.00000000  0.25000000  0.88484000  1.0
  Mn  Mn1  2  0.00000000  0.25050000  0.03726000  1.0
  Mn  Mn2  1  0.50000000  0.00000000  0.12068000  1.0
  Mn  Mn3  1  0.50000000  0.00000000  0.96161000  1.0
  Mn  Mn4  1  0.50000000  0.50000000  0.12050000  1.0
  Mn  Mn5  1  0.50000000  0.50000000  0.96161000  1.0
  Co  Co6  4  0.23771000  0.25184000  0.11173000  1.0
  Co  Co7  4  0.25000000  0.25000000  0.96161000  1.0
  Co  Co8  2  0.25000000  0.00000000  0.88484000  1.0
  Co  Co9  2  0.25000000  0.50000000  0.88484000  1.0
  Co  Co10  2  0.25229000  0.00000000  0.03870000  1.0
  Co  Co11  2  0.25419000  0.50000000  0.03787000  1.0
  Si  Si12  2  0.50000000  0.24961000  0.03941000  1.0
  Si  Si13  2  0.50000000  0.25000000  0.88484000  1.0
  Si  Si14  1  0.00000000  0.00000000  0.11477000  1.0
  Si  Si15  1  0.00000000  0.00000000  0.96161000  1.0
  Si  Si16  1  0.00000000  0.50000000  0.11186000  1.0
  Si  Si17  1  0.00000000  0.50000000  0.96161000  1.0
  C  C18  1  0.00000000  0.00000000  0.18696000  1.0
  O  O19  1  0.00000000  0.00000000  0.23167000  1.0
