# generated using pymatgen
data_Y8In8Ag16CO
_symmetry_space_group_name_H-M   Pm
_cell_length_a   9.99173000
_cell_length_b   7.06522000
_cell_length_c   27.49380000
_cell_angle_alpha   90.00000000
_cell_angle_beta   90.00000000
_cell_angle_gamma   90.00000000
_symmetry_Int_Tables_number   6
_chemical_formula_structural   Y8In8Ag16CO
_chemical_formula_sum   'Y8 In8 Ag16 C1 O1'
_cell_volume   1940.89101096
_cell_formula_units_Z   1
loop_
 _symmetry_equiv_pos_site_id
 _symmetry_equiv_pos_as_xyz
  1  'x, y, z'
  2  'x, -y, z'
loop_
 _atom_site_type_symbol
 _atom_site_label
 _atom_site_symmetry_multiplicity
 _atom_site_fract_x
 _atom_site_fract_y
 _atom_site_fract_z
 _atom_site_occupancy
  Y  Y0  1  0.00000000  0.00000000  0.86372000  1.0
  Y  Y1  1  0.25000000  0.50000000  0.95457000  1.0
  Y  Y2  1  0.25005000  0.50000000  0.13060000  1.0
  Y  Y3  1  0.50000000  0.00000000  0.86372000  1.0
  Y  Y4  1  0.50322000  0.00000000  0.04925000  1.0
  Y  Y5  1  0.74994000  0.50000000  0.13457000  1.0
  Y  Y6  1  0.75000000  0.50000000  0.95457000  1.0
  Y  Y7  1  0.99667000  0.00000000  0.04926000  1.0
  In  In8  1  0.00000000  0.50000000  0.86372000  1.0
  In  In9  1  0.00197000  0.50000000  0.04592000  1.0
  In  In10  1  0.25000000  0.00000000  0.13649000  1.0
  In  In11  1  0.25000000  0.00000000  0.95457000  1.0
  In  In12  1  0.49797000  0.50000000  0.04590000  1.0
  In  In13  1  0.50000000  0.50000000  0.86372000  1.0
  In  In14  1  0.74996000  0.00000000  0.13620000  1.0
  In  In15  1  0.75000000  0.00000000  0.95457000  1.0
  Ag  Ag16  2  0.00000000  0.25000000  0.95457000  1.0
  Ag  Ag17  2  0.24994000  0.24014000  0.04309000  1.0
  Ag  Ag18  2  0.25000000  0.25000000  0.86372000  1.0
  Ag  Ag19  2  0.49995000  0.23867000  0.14346000  1.0
  Ag  Ag20  2  0.50000000  0.25000000  0.95457000  1.0
  Ag  Ag21  2  0.74993000  0.25576000  0.04467000  1.0
  Ag  Ag22  2  0.75000000  0.25000000  0.86372000  1.0
  Ag  Ag23  2  0.99999000  0.23869000  0.14344000  1.0
  C  C24  1  0.25111000  0.50000000  0.22037000  1.0
  O  O25  1  0.25132000  0.50000000  0.26215000  1.0
