# generated using pymatgen
data_Li16Ga8Ir8C
_symmetry_space_group_name_H-M   'P 1'
_cell_length_a   8.51164000
_cell_length_b   6.01864000
_cell_length_c   26.38370000
_cell_angle_alpha   90.00000000
_cell_angle_beta   90.00000000
_cell_angle_gamma   90.00000000
_symmetry_Int_Tables_number   1
_chemical_formula_structural   Li16Ga8Ir8C
_chemical_formula_sum   'Li16 Ga8 Ir8 C1'
_cell_volume   1351.59729550
_cell_formula_units_Z   1
loop_
 _symmetry_equiv_pos_site_id
 _symmetry_equiv_pos_as_xyz
  1  'x, y, z'
loop_
 _atom_site_type_symbol
 _atom_site_label
 _atom_site_symmetry_multiplicity
 _atom_site_fract_x
 _atom_site_fract_y
 _atom_site_fract_z
 _atom_site_occupancy
  Li  Li0  1  0.50000000  0.00000000  0.04033000  1.0
  Li  Li1  1  0.75000000  0.50000000  0.12098000  1.0
  Li  Li2  1  0.00000000  0.00000000  0.04033000  1.0
  Li  Li3  1  0.25000000  0.50000000  0.12098000  1.0
  Li  Li4  1  0.75000000  0.25000000  0.04033000  1.0
  Li  Li5  1  0.25000000  0.25000000  0.04033000  1.0
  Li  Li6  1  0.50000000  0.75000000  0.12098000  1.0
  Li  Li7  1  0.00000000  0.75000000  0.12098000  1.0
  Li  Li8  1  0.00000000  0.98057000  0.87246000  1.0
  Li  Li9  1  0.24894000  0.48148000  0.96067000  1.0
  Li  Li10  1  0.50000000  0.00032000  0.87976000  1.0
  Li  Li11  1  0.75106000  0.48148000  0.96067000  1.0
  Li  Li12  1  0.25549000  0.27656000  0.84699000  1.0
  Li  Li13  1  0.74451000  0.27656000  0.84699000  1.0
  Li  Li14  1  0.00000000  0.76208000  0.96442000  1.0
  Li  Li15  1  0.50000000  0.74634000  0.96111000  1.0
  Ga  Ga16  1  0.00000000  0.25000000  0.12098000  1.0
  Ga  Ga17  1  0.50000000  0.25000000  0.12098000  1.0
  Ga  Ga18  1  0.25000000  0.75000000  0.04033000  1.0
  Ga  Ga19  1  0.75000000  0.75000000  0.04033000  1.0
  Ga  Ga20  1  0.50000000  0.24024000  0.96291000  1.0
  Ga  Ga21  1  0.00000000  0.23909000  0.96145000  1.0
  Ga  Ga22  1  0.74062000  0.72235000  0.88120000  1.0
  Ga  Ga23  1  0.25938000  0.72235000  0.88120000  1.0
  Ir  Ir24  1  0.75000000  0.00000000  0.12098000  1.0
  Ir  Ir25  1  0.00000000  0.50000000  0.04033000  1.0
  Ir  Ir26  1  0.50000000  0.50000000  0.04033000  1.0
  Ir  Ir27  1  0.25000000  0.00000000  0.12098000  1.0
  Ir  Ir28  1  0.25028000  0.00004000  0.95428000  1.0
  Ir  Ir29  1  0.50000000  0.48271000  0.88619000  1.0
  Ir  Ir30  1  0.00000000  0.49930000  0.88190000  1.0
  Ir  Ir31  1  0.74972000  0.00004000  0.95428000  1.0
  C  C32  1  0.00000000  0.28880000  0.83511000  1.0
