# generated using pymatgen
data_Li16Ga8Ir8C
_symmetry_space_group_name_H-M   Pm
_cell_length_a   6.01864000
_cell_length_b   8.51164000
_cell_length_c   26.38370000
_cell_angle_alpha   90.00000000
_cell_angle_beta   90.00000000
_cell_angle_gamma   90.00000000
_symmetry_Int_Tables_number   6
_chemical_formula_structural   Li16Ga8Ir8C
_chemical_formula_sum   'Li16 Ga8 Ir8 C1'
_cell_volume   1351.59729550
_cell_formula_units_Z   1
loop_
 _symmetry_equiv_pos_site_id
 _symmetry_equiv_pos_as_xyz
  1  'x, y, z'
  2  'x, -y, z'
loop_
 _atom_site_type_symbol
 _atom_site_label
 _atom_site_symmetry_multiplicity
 _atom_site_fract_x
 _atom_site_fract_y
 _atom_site_fract_z
 _atom_site_occupancy
  Li  Li0  2  0.25000000  0.25000000  0.95967000  1.0
  Li  Li1  2  0.27656000  0.25549000  0.15301000  1.0
  Li  Li2  2  0.48148000  0.24894000  0.03933000  1.0
  Li  Li3  2  0.50000000  0.25000000  0.87902000  1.0
  Li  Li4  1  0.00000000  0.00000000  0.95967000  1.0
  Li  Li5  1  0.00000000  0.50000000  0.95967000  1.0
  Li  Li6  1  0.00032000  0.50000000  0.12024000  1.0
  Li  Li7  1  0.74634000  0.50000000  0.03889000  1.0
  Li  Li8  1  0.75000000  0.00000000  0.87902000  1.0
  Li  Li9  1  0.75000000  0.50000000  0.87902000  1.0
  Li  Li10  1  0.76208000  0.00000000  0.03558000  1.0
  Li  Li11  1  0.98057000  0.00000000  0.12754000  1.0
  Ga  Ga12  2  0.72235000  0.25938000  0.11880000  1.0
  Ga  Ga13  2  0.75000000  0.25000000  0.95967000  1.0
  Ga  Ga14  1  0.23909000  0.00000000  0.03855000  1.0
  Ga  Ga15  1  0.24024000  0.50000000  0.03709000  1.0
  Ga  Ga16  1  0.25000000  0.00000000  0.87902000  1.0
  Ga  Ga17  1  0.25000000  0.50000000  0.87902000  1.0
  Ir  Ir18  2  0.00000000  0.25000000  0.87902000  1.0
  Ir  Ir19  2  0.00004000  0.25028000  0.04572000  1.0
  Ir  Ir20  1  0.48271000  0.50000000  0.11381000  1.0
  Ir  Ir21  1  0.49930000  0.00000000  0.11810000  1.0
  Ir  Ir22  1  0.50000000  0.00000000  0.95967000  1.0
  Ir  Ir23  1  0.50000000  0.50000000  0.95967000  1.0
  C  C24  1  0.28880000  0.00000000  0.16489000  1.0
