# generated using pymatgen
data_Li4Mn4Ge4Pd4C
_symmetry_space_group_name_H-M   'P 1'
_cell_length_a   6.14713000
_cell_length_b   6.14713000
_cell_length_c   24.61040000
_cell_angle_alpha   90.00000000
_cell_angle_beta   90.00000000
_cell_angle_gamma   90.00000000
_symmetry_Int_Tables_number   1
_chemical_formula_structural   Li4Mn4Ge4Pd4C
_chemical_formula_sum   'Li4 Mn4 Ge4 Pd4 C1'
_cell_volume   929.95828498
_cell_formula_units_Z   1
loop_
 _symmetry_equiv_pos_site_id
 _symmetry_equiv_pos_as_xyz
  1  'x, y, z'
loop_
 _atom_site_type_symbol
 _atom_site_label
 _atom_site_symmetry_multiplicity
 _atom_site_fract_x
 _atom_site_fract_y
 _atom_site_fract_z
 _atom_site_occupancy
  Li  Li0  1  0.00023000  0.49935000  0.88544000  1
  Li  Li1  1  0.00000000  0.00000000  0.03122000  1
  Li  Li2  1  0.50000000  0.50000000  0.03122000  1
  Li  Li3  1  0.49935000  0.00023000  0.88544000  1
  Mn  Mn4  1  0.25008000  0.74967000  0.96298000  1
  Mn  Mn5  1  0.25000000  0.25000000  0.09367000  1
  Mn  Mn6  1  0.75000000  0.75000000  0.09367000  1
  Mn  Mn7  1  0.74967000  0.25008000  0.96298000  1
  Ge  Ge8  1  0.97755500  0.97755500  0.89410000  1
  Ge  Ge9  1  0.00000000  0.50000000  0.03122000  1
  Ge  Ge10  1  0.50000000  1.00000000  0.03122000  1
  Ge  Ge11  1  0.52474000  0.52474000  0.89395000  1
  Pd  Pd12  1  0.75017000  0.75017000  0.97418000  1
  Pd  Pd13  1  0.75000000  0.25000000  0.09367000  1
  Pd  Pd14  1  0.25000000  0.75000000  0.09367000  1
  Pd  Pd15  1  0.24942500  0.24942500  0.96717000  1
  C  C16  1  0.75141000  0.75141000  0.88715000  1
