# generated using pymatgen
data_Li16Ga8Rh8CO
_symmetry_space_group_name_H-M   'P 1'
_cell_length_a   8.53335000
_cell_length_b   6.03399000
_cell_length_c   26.40000000
_cell_angle_alpha   90.00000000
_cell_angle_beta   90.00000000
_cell_angle_gamma   90.00000000
_symmetry_Int_Tables_number   1
_chemical_formula_structural   Li16Ga8Rh8CO
_chemical_formula_sum   'Li16 Ga8 Rh8 C1 O1'
_cell_volume   1359.33992216
_cell_formula_units_Z   1
loop_
 _symmetry_equiv_pos_site_id
 _symmetry_equiv_pos_as_xyz
  1  'x, y, z'
loop_
 _atom_site_type_symbol
 _atom_site_label
 _atom_site_symmetry_multiplicity
 _atom_site_fract_x
 _atom_site_fract_y
 _atom_site_fract_z
 _atom_site_occupancy
  Li  Li0  1  0.75000000  1.00000000  0.04040000  1.0
  Li  Li1  1  0.00000000  0.50000000  0.12121000  1.0
  Li  Li2  1  0.25000000  1.00000000  0.04040000  1.0
  Li  Li3  1  0.50000000  0.50000000  0.12121000  1.0
  Li  Li4  1  0.25000000  0.25000000  0.12121000  1.0
  Li  Li5  1  0.75000000  0.25000000  0.12121000  1.0
  Li  Li6  1  0.50000000  0.75000000  0.04040000  1.0
  Li  Li7  1  0.00000000  0.75000000  0.04040000  1.0
  Li  Li8  1  0.24952000  0.00663000  0.87811000  1.0
  Li  Li9  1  0.50000000  0.50930000  0.96040000  1.0
  Li  Li10  1  0.75048000  0.00663000  0.87811000  1.0
  Li  Li11  1  0.00000000  0.51102000  0.96133000  1.0
  Li  Li12  1  0.74957000  0.24619000  0.96223000  1.0
  Li  Li13  1  0.25043000  0.24619000  0.96223000  1.0
  Li  Li14  1  0.00000000  0.72978000  0.86617000  1.0
  Li  Li15  1  0.50000000  0.72095000  0.86139000  1.0
  Ga  Ga16  1  0.00000000  0.25000000  0.04040000  1.0
  Ga  Ga17  1  0.50000000  0.25000000  0.04040000  1.0
  Ga  Ga18  1  0.75000000  0.75000000  0.12121000  1.0
  Ga  Ga19  1  0.25000000  0.75000000  0.12121000  1.0
  Ga  Ga20  1  0.50000000  0.26705000  0.87979000  1.0
  Ga  Ga21  1  0.00000000  0.27028000  0.88193000  1.0
  Ga  Ga22  1  0.24983000  0.75334000  0.96077000  1.0
  Ga  Ga23  1  0.75017000  0.75334000  0.96077000  1.0
  Rh  Rh24  1  0.00000000  0.00000000  0.12121000  1.0
  Rh  Rh25  1  0.25000000  0.50000000  0.04040000  1.0
  Rh  Rh26  1  0.75000000  0.50000000  0.04040000  1.0
  Rh  Rh27  1  0.50000000  1.00000000  0.12121000  1.0
  Rh  Rh28  1  0.50000000  0.99333000  0.95424000  1.0
  Rh  Rh29  1  0.74801000  0.49011000  0.88706000  1.0
  Rh  Rh30  1  0.25199000  0.49011000  0.88706000  1.0
  Rh  Rh31  1  0.00000000  0.99566000  0.95613000  1.0
  C  C32  1  0.00000000  0.75412000  0.78751000  1.0
  O  O33  1  0.00000000  0.74274000  0.74432000  1.0
