data_image0
_chemical_formula_structural       Ti8Ir8CO
_chemical_formula_sum              "Ti8 Ir8 C1 O1"
_cell_length_a       6.26165
_cell_length_b       6.26165
_cell_length_c       24.6962
_cell_angle_alpha    90
_cell_angle_beta     90
_cell_angle_gamma    90

_space_group_name_H-M_alt    "P 1"
_space_group_IT_number       1

loop_
  _space_group_symop_operation_xyz
  'x, y, z'

loop_
  _atom_site_type_symbol
  _atom_site_label
  _atom_site_symmetry_multiplicity
  _atom_site_fract_x
  _atom_site_fract_y
  _atom_site_fract_z
  _atom_site_occupancy
  Ti  Ti1       1.0  0.25000  0.25000  0.98736  1.0000
  Ti  Ti2       1.0  0.23820  0.25757  0.11578  1.0000
  Ti  Ti3       1.0  0.25000  0.75000  0.98736  1.0000
  Ti  Ti4       1.0  0.22600  0.80429  0.12030  1.0000
  Ti  Ti5       1.0  0.75000  0.25000  0.98736  1.0000
  Ti  Ti6       1.0  0.78452  0.26260  0.11276  1.0000
  Ti  Ti7       1.0  0.75000  0.75000  0.98736  1.0000
  Ti  Ti8       1.0  0.76262  0.77194  0.11809  1.0000
  Ir  Ir1       1.0  0.00000  0.00000  0.92398  1.0000
  Ir  Ir2       1.0  0.99631  0.98900  0.04337  1.0000
  Ir  Ir3       1.0  0.00000  0.50000  0.92398  1.0000
  Ir  Ir4       1.0  0.00287  0.51340  0.05686  1.0000
  Ir  Ir5       1.0  0.50000  0.00000  0.92398  1.0000
  Ir  Ir6       1.0  0.50830  0.01789  0.06800  1.0000
  Ir  Ir7       1.0  0.50000  0.50000  0.92398  1.0000
  Ir  Ir8       1.0  0.49645  0.53627  0.06944  1.0000
  C   C1        1.0  0.04821  0.07408  0.15681  1.0000
  O   O1        1.0  0.97282  0.88131  0.17434  1.0000
