# generated using pymatgen
data_Ti8Ir8CO
_symmetry_space_group_name_H-M   'P 1'
_cell_length_a   6.26165000
_cell_length_b   6.26165000
_cell_length_c   24.69620000
_cell_angle_alpha   90.00000000
_cell_angle_beta   90.00000000
_cell_angle_gamma   90.00000000
_symmetry_Int_Tables_number   1
_chemical_formula_structural   Ti8Ir8CO
_chemical_formula_sum   'Ti8 Ir8 C1 O1'
_cell_volume   968.29504846
_cell_formula_units_Z   1
loop_
 _symmetry_equiv_pos_site_id
 _symmetry_equiv_pos_as_xyz
  1  'x, y, z'
loop_
 _atom_site_type_symbol
 _atom_site_label
 _atom_site_symmetry_multiplicity
 _atom_site_fract_x
 _atom_site_fract_y
 _atom_site_fract_z
 _atom_site_occupancy
  Ti  Ti0  1  0.25000000  0.25000000  0.98736000  1.0
  Ti  Ti1  1  0.23820000  0.25757000  0.11578000  1.0
  Ti  Ti2  1  0.25000000  0.75000000  0.98736000  1.0
  Ti  Ti3  1  0.22600000  0.80429000  0.12030000  1.0
  Ti  Ti4  1  0.75000000  0.25000000  0.98736000  1.0
  Ti  Ti5  1  0.78452000  0.26260000  0.11276000  1.0
  Ti  Ti6  1  0.75000000  0.75000000  0.98736000  1.0
  Ti  Ti7  1  0.76262000  0.77194000  0.11809000  1.0
  Ir  Ir8  1  0.00000000  0.00000000  0.92398000  1.0
  Ir  Ir9  1  0.99631000  0.98900000  0.04337000  1.0
  Ir  Ir10  1  0.00000000  0.50000000  0.92398000  1.0
  Ir  Ir11  1  0.00287000  0.51340000  0.05686000  1.0
  Ir  Ir12  1  0.50000000  0.00000000  0.92398000  1.0
  Ir  Ir13  1  0.50830000  0.01789000  0.06800000  1.0
  Ir  Ir14  1  0.50000000  0.50000000  0.92398000  1.0
  Ir  Ir15  1  0.49645000  0.53627000  0.06944000  1.0
  C  C16  1  0.04821000  0.07408000  0.15681000  1.0
  O  O17  1  0.97282000  0.88131000  0.17434000  1.0
