# generated using pymatgen
data_Li4Sc4Al4In4C
_symmetry_space_group_name_H-M   Pm
_cell_length_a   6.08380000
_cell_length_b   8.37392000
_cell_length_c   24.56130000
_cell_angle_alpha   90.00000000
_cell_angle_beta   90.00000000
_cell_angle_gamma   90.00000000
_symmetry_Int_Tables_number   6
_chemical_formula_structural   Li4Sc4Al4In4C
_chemical_formula_sum   'Li4 Sc4 Al4 In4 C1'
_cell_volume   1251.28167925
_cell_formula_units_Z   1
loop_
 _symmetry_equiv_pos_site_id
 _symmetry_equiv_pos_as_xyz
  1  'x, y, z'
  2  'x, -y, z'
loop_
 _atom_site_type_symbol
 _atom_site_label
 _atom_site_symmetry_multiplicity
 _atom_site_fract_x
 _atom_site_fract_y
 _atom_site_fract_z
 _atom_site_occupancy
  Li  Li0  2  0.01285000  0.25000000  0.03095000  1.0
  Li  Li1  2  0.44228000  0.25148000  0.89820000  1.0
  Sc  Sc2  1  0.26927000  0.00000000  0.09286000  1.0
  Sc  Sc3  1  0.26927000  0.50000000  0.09286000  1.0
  Sc  Sc4  1  0.72458000  0.50000000  0.96863000  1.0
  Sc  Sc5  1  0.73305000  0.00000000  0.95998000  1.0
  Al  Al6  2  0.51285000  0.25000000  0.03095000  1.0
  Al  Al7  2  0.92609000  0.26748000  0.90004000  1.0
  In  In8  1  0.22677000  0.00000000  0.95888000  1.0
  In  In9  1  0.23677000  0.50000000  0.96936000  1.0
  In  In10  1  0.76927000  0.00000000  0.09286000  1.0
  In  In11  1  0.76927000  0.50000000  0.09286000  1.0
  C  C12  1  0.96356000  0.50000000  0.90182000  1.0
