# generated using pymatgen
data_Al8Cr8Fe16CO
_symmetry_space_group_name_H-M   P1
_cell_length_a   6.50665000
_cell_length_b   9.20179000
_cell_length_c   26.90130000
_cell_angle_alpha   90.00000000
_cell_angle_beta   90.00000000
_cell_angle_gamma   90.00000000
_symmetry_Int_Tables_number   1
_chemical_formula_structural   Al8Cr8Fe16CO
_chemical_formula_sum   'Al8 Cr8 Fe16 C1 O1'
_cell_volume   1610.65687838
_cell_formula_units_Z   1
loop_
 _symmetry_equiv_pos_site_id
 _symmetry_equiv_pos_as_xyz
  1  'x, y, z'
loop_
 _atom_site_type_symbol
 _atom_site_label
 _atom_site_symmetry_multiplicity
 _atom_site_fract_x
 _atom_site_fract_y
 _atom_site_fract_z
 _atom_site_occupancy
  Al  Al0  1  0.00000000  0.00000000  0.87173000  1.0
  Al  Al1  1  0.00000000  0.50000000  0.87173000  1.0
  Al  Al2  1  0.00251000  0.50127000  0.02747000  1.0
  Al  Al3  1  0.00254000  0.99882000  0.02747000  1.0
  Al  Al4  1  0.47846000  0.74996000  0.09407000  1.0
  Al  Al5  1  0.50000000  0.25000000  0.95724000  1.0
  Al  Al6  1  0.50000000  0.75000000  0.95724000  1.0
  Al  Al7  1  0.52422000  0.25000000  0.09493000  1.0
  Cr  Cr8  1  0.00000000  0.25000000  0.95724000  1.0
  Cr  Cr9  1  0.00000000  0.75000000  0.95724000  1.0
  Cr  Cr10  1  0.03228000  0.75000000  0.09520000  1.0
  Cr  Cr11  1  0.48355000  0.99399000  0.01941000  1.0
  Cr  Cr12  1  0.48361000  0.50607000  0.01943000  1.0
  Cr  Cr13  1  0.50000000  0.00000000  0.87173000  1.0
  Cr  Cr14  1  0.50000000  0.50000000  0.87173000  1.0
  Cr  Cr15  1  0.98289000  0.24997000  0.10707000  1.0
  Fe  Fe16  1  0.22739000  0.75000000  0.02220000  1.0
  Fe  Fe17  1  0.22860000  0.25004000  0.03243000  1.0
  Fe  Fe18  1  0.25000000  0.00000000  0.95724000  1.0
  Fe  Fe19  1  0.25000000  0.25000000  0.87173000  1.0
  Fe  Fe20  1  0.25000000  0.50000000  0.95724000  1.0
  Fe  Fe21  1  0.25000000  0.75000000  0.87173000  1.0
  Fe  Fe22  1  0.29638000  0.47962000  0.09202000  1.0
  Fe  Fe23  1  0.29647000  0.02034000  0.09203000  1.0
  Fe  Fe24  1  0.70429000  0.99289000  0.08654000  1.0
  Fe  Fe25  1  0.70433000  0.50708000  0.08654000  1.0
  Fe  Fe26  1  0.74855000  0.75004000  0.02831000  1.0
  Fe  Fe27  1  0.75000000  0.00000000  0.95724000  1.0
  Fe  Fe28  1  0.75000000  0.25000000  0.87173000  1.0
  Fe  Fe29  1  0.75000000  0.50000000  0.95724000  1.0
  Fe  Fe30  1  0.75000000  0.75000000  0.87173000  1.0
  Fe  Fe31  1  0.77611000  0.25004000  0.02618000  1.0
  C  C32  1  0.99331000  0.24998000  0.18276000  1.0
  O  O33  1  0.00224000  0.25001000  0.22553000  1.0
