# generated using pymatgen
data_Cu4Ni8Sn4CO
_symmetry_space_group_name_H-M   'P 1'
_cell_length_a   6.01864000
_cell_length_b   6.01864000
_cell_length_c   24.51400000
_cell_angle_alpha   90.00000000
_cell_angle_beta   90.00000000
_cell_angle_gamma   90.00000000
_symmetry_Int_Tables_number   1
_chemical_formula_structural   Cu4Ni8Sn4CO
_chemical_formula_sum   'Cu4 Ni8 Sn4 C1 O1'
_cell_volume   887.99580890
_cell_formula_units_Z   1
loop_
 _symmetry_equiv_pos_site_id
 _symmetry_equiv_pos_as_xyz
  1  'x, y, z'
loop_
 _atom_site_type_symbol
 _atom_site_label
 _atom_site_symmetry_multiplicity
 _atom_site_fract_x
 _atom_site_fract_y
 _atom_site_fract_z
 _atom_site_occupancy
  Cu  Cu0  1  0.00005000  0.99997000  0.08831000  1.0
  Cu  Cu1  1  0.49995000  0.49999000  0.08823000  1.0
  Cu  Cu2  1  0.50000000  0.00000000  0.96931000  1.0
  Cu  Cu3  1  0.00000000  0.50000000  0.96931000  1.0
  Ni  Ni4  1  0.25468000  0.24506000  0.03298000  1.0
  Ni  Ni5  1  0.75000000  0.75000000  0.90793000  1.0
  Ni  Ni6  1  0.74525000  0.24482000  0.03289000  1.0
  Ni  Ni7  1  0.25000000  0.75000000  0.90793000  1.0
  Ni  Ni8  1  0.74508000  0.75518000  0.03285000  1.0
  Ni  Ni9  1  0.25000000  0.25000000  0.90793000  1.0
  Ni  Ni10  1  0.25490000  0.75505000  0.03294000  1.0
  Ni  Ni11  1  0.75000000  0.25000000  0.90793000  1.0
  Sn  Sn12  1  0.00000000  0.00000000  0.96931000  1.0
  Sn  Sn13  1  0.49998000  0.00002000  0.10108000  1.0
  Sn  Sn14  1  0.99997000  0.50007000  0.09507000  1.0
  Sn  Sn15  1  0.50000000  0.50000000  0.96931000  1.0
  C  C16  1  0.00004000  0.49999000  0.25956000  1.0
  O  O17  1  0.99996000  0.50005000  0.30588000  1.0
