# generated using pymatgen
data_Sc8In8Ni16CO
_symmetry_space_group_name_H-M   P1
_cell_length_a   6.35421000
_cell_length_b   8.98620000
_cell_length_c   26.73970000
_cell_angle_alpha   90.00000000
_cell_angle_beta   90.00000000
_cell_angle_gamma   90.00000000
_symmetry_Int_Tables_number   1
_chemical_formula_structural   Sc8In8Ni16CO
_chemical_formula_sum   'Sc8 In8 Ni16 C1 O1'
_cell_volume   1526.84226880
_cell_formula_units_Z   1
loop_
 _symmetry_equiv_pos_site_id
 _symmetry_equiv_pos_as_xyz
  1  'x, y, z'
loop_
 _atom_site_type_symbol
 _atom_site_label
 _atom_site_symmetry_multiplicity
 _atom_site_fract_x
 _atom_site_fract_y
 _atom_site_fract_z
 _atom_site_occupancy
  Sc  Sc0  1  0.00000000  0.00000000  0.87398000  1.0
  Sc  Sc1  1  0.00000000  0.50000000  0.87398000  1.0
  Sc  Sc2  1  0.49999000  0.25004000  0.12354000  1.0
  Sc  Sc3  1  0.50000000  0.25000000  0.95799000  1.0
  Sc  Sc4  1  0.50000000  0.75000000  0.95799000  1.0
  Sc  Sc5  1  0.50001000  0.74998000  0.12354000  1.0
  Sc  Sc6  1  0.99996000  0.50066000  0.04109000  1.0
  Sc  Sc7  1  0.99999000  0.99930000  0.04110000  1.0
  In  In8  1  0.00000000  0.25000000  0.95799000  1.0
  In  In9  1  0.00000000  0.75000000  0.95799000  1.0
  In  In10  1  0.00001000  0.25005000  0.12985000  1.0
  In  In11  1  0.00002000  0.74997000  0.13096000  1.0
  In  In12  1  0.49998000  0.50027000  0.04157000  1.0
  In  In13  1  0.49999000  0.99971000  0.04162000  1.0
  In  In14  1  0.50000000  0.00000000  0.87398000  1.0
  In  In15  1  0.50000000  0.50000000  0.87398000  1.0
  Ni  Ni16  1  0.23275000  0.99896000  0.11863000  1.0
  Ni  Ni17  1  0.23280000  0.50111000  0.11857000  1.0
  Ni  Ni18  1  0.24840000  0.24999000  0.04205000  1.0
  Ni  Ni19  1  0.25000000  0.00000000  0.95799000  1.0
  Ni  Ni20  1  0.25000000  0.25000000  0.87398000  1.0
  Ni  Ni21  1  0.25000000  0.50000000  0.95799000  1.0
  Ni  Ni22  1  0.25000000  0.75000000  0.87398000  1.0
  Ni  Ni23  1  0.25030000  0.74999000  0.04362000  1.0
  Ni  Ni24  1  0.74967000  0.74998000  0.04361000  1.0
  Ni  Ni25  1  0.75000000  0.00000000  0.95799000  1.0
  Ni  Ni26  1  0.75000000  0.25000000  0.87398000  1.0
  Ni  Ni27  1  0.75000000  0.50000000  0.95799000  1.0
  Ni  Ni28  1  0.75000000  0.75000000  0.87398000  1.0
  Ni  Ni29  1  0.75168000  0.25002000  0.04209000  1.0
  Ni  Ni30  1  0.76725000  0.99899000  0.11857000  1.0
  Ni  Ni31  1  0.76729000  0.50115000  0.11855000  1.0
  C  C32  1  0.50003000  0.24999000  0.21203000  1.0
  O  O33  1  0.50005000  0.24998000  0.25484000  1.0
