data_image0
_chemical_formula_structural       Al16Rh16C
_chemical_formula_sum              "Al16 Rh16 C1"
_cell_length_a       6.00621
_cell_length_b       8.49407
_cell_length_c       26.3705
_cell_angle_alpha    90
_cell_angle_beta     90
_cell_angle_gamma    90

_space_group_name_H-M_alt    "P 1"
_space_group_IT_number       1

loop_
  _space_group_symop_operation_xyz
  'x, y, z'

loop_
  _atom_site_type_symbol
  _atom_site_label
  _atom_site_symmetry_multiplicity
  _atom_site_fract_x
  _atom_site_fract_y
  _atom_site_fract_z
  _atom_site_occupancy
  Al  Al1       1.0  0.00000  0.00000  0.87921  1.0000
  Al  Al2       1.0  0.00000  0.25000  0.95974  1.0000
  Al  Al3       1.0  0.00000  0.00000  0.03920  1.0000
  Al  Al4       1.0  0.00000  0.26457  0.12505  1.0000
  Al  Al5       1.0  0.00000  0.50000  0.87921  1.0000
  Al  Al6       1.0  0.00000  0.75000  0.95974  1.0000
  Al  Al7       1.0  0.00000  0.50000  0.04076  1.0000
  Al  Al8       1.0  0.00000  0.73543  0.12505  1.0000
  Al  Al9       1.0  0.50000  0.00000  0.87921  1.0000
  Al  Al10      1.0  0.50000  0.25000  0.95974  1.0000
  Al  Al11      1.0  0.50000  0.00000  0.03741  1.0000
  Al  Al12      1.0  0.50000  0.25708  0.12508  1.0000
  Al  Al13      1.0  0.50000  0.50000  0.87921  1.0000
  Al  Al14      1.0  0.50000  0.75000  0.95974  1.0000
  Al  Al15      1.0  0.50000  0.50000  0.04072  1.0000
  Al  Al16      1.0  0.50000  0.74292  0.12508  1.0000
  Rh  Rh1       1.0  0.25000  0.25000  0.87921  1.0000
  Rh  Rh2       1.0  0.25000  0.00000  0.95974  1.0000
  Rh  Rh3       1.0  0.25008  0.24492  0.04024  1.0000
  Rh  Rh4       1.0  0.25120  0.50000  0.11766  1.0000
  Rh  Rh5       1.0  0.25000  0.75000  0.87921  1.0000
  Rh  Rh6       1.0  0.25000  0.50000  0.95974  1.0000
  Rh  Rh7       1.0  0.25008  0.75508  0.04024  1.0000
  Rh  Rh8       1.0  0.24749  1.00000  0.12169  1.0000
  Rh  Rh9       1.0  0.75000  0.25000  0.87921  1.0000
  Rh  Rh10      1.0  0.75000  0.00000  0.95974  1.0000
  Rh  Rh11      1.0  0.74992  0.24492  0.04024  1.0000
  Rh  Rh12      1.0  0.74880  0.50000  0.11766  1.0000
  Rh  Rh13      1.0  0.75000  0.75000  0.87921  1.0000
  Rh  Rh14      1.0  0.75000  0.50000  0.95974  1.0000
  Rh  Rh15      1.0  0.74992  0.75508  0.04024  1.0000
  Rh  Rh16      1.0  0.75251  0.00000  0.12169  1.0000
  C   C1        1.0  1.00000  0.00000  0.16409  1.0000
