# generated using pymatgen
data_LiYInPb
_symmetry_space_group_name_H-M   Pm
_cell_length_a   6.51578000
_cell_length_b   9.32892000
_cell_length_c   24.88170000
_cell_angle_alpha   90.00000000
_cell_angle_beta   90.00000000
_cell_angle_gamma   90.00000000
_symmetry_Int_Tables_number   6
_chemical_formula_structural   LiYInPb
_chemical_formula_sum   'Li4 Y4 In4 Pb4'
_cell_volume   1512.43887092
_cell_formula_units_Z   4
loop_
 _symmetry_equiv_pos_site_id
 _symmetry_equiv_pos_as_xyz
  1  'x, y, z'
  2  'x, -y, z'
  3  'x, y+1/2, z'
  4  'x, -y+1/2, z'
loop_
 _atom_site_type_symbol
 _atom_site_label
 _atom_site_symmetry_multiplicity
 _atom_site_fract_x
 _atom_site_fract_y
 _atom_site_fract_z
 _atom_site_occupancy
  Li  Li0  2  0.28766000  0.50000000  0.02644000  1.0
  Li  Li1  2  0.71565000  0.00000000  0.90190000  1.0
  Y  Y2  2  0.58165000  0.24998000  0.09755000  1.0
  Y  Y3  2  0.97710000  0.25002000  0.96730000  1.0
  In  In4  2  0.09250000  0.25001000  0.10689000  1.0
  In  In5  2  0.47710000  0.25002000  0.96730000  1.0
  Pb  Pb6  2  0.21565000  0.00000000  0.90190000  1.0
  Pb  Pb7  2  0.81843000  0.50000000  0.04667000  1.0
