# generated using pymatgen
data_Li16In8Pt8CO
_symmetry_space_group_name_H-M   'P 1'
_cell_length_a   9.09870000
_cell_length_b   6.43375000
_cell_length_c   26.82400000
_cell_angle_alpha   90.00000000
_cell_angle_beta   90.00000000
_cell_angle_gamma   90.00000000
_symmetry_Int_Tables_number   1
_chemical_formula_structural   Li16In8Pt8CO
_chemical_formula_sum   'Li16 In8 Pt8 C1 O1'
_cell_volume   1570.24372842
_cell_formula_units_Z   1
loop_
 _symmetry_equiv_pos_site_id
 _symmetry_equiv_pos_as_xyz
  1  'x, y, z'
loop_
 _atom_site_type_symbol
 _atom_site_label
 _atom_site_symmetry_multiplicity
 _atom_site_fract_x
 _atom_site_fract_y
 _atom_site_fract_z
 _atom_site_occupancy
  Li  Li0  1  0.75000000  1.00000000  0.04240000  1.0
  Li  Li1  1  0.00000000  0.50000000  0.12720000  1.0
  Li  Li2  1  0.25000000  1.00000000  0.04240000  1.0
  Li  Li3  1  0.50000000  0.50000000  0.12720000  1.0
  Li  Li4  1  0.25000000  0.25000000  0.12720000  1.0
  Li  Li5  1  0.75000000  0.25000000  0.12720000  1.0
  Li  Li6  1  0.50000000  0.75000000  0.04240000  1.0
  Li  Li7  1  0.00000000  0.75000000  0.04240000  1.0
  Li  Li8  1  0.25509000  0.01291000  0.87695000  1.0
  Li  Li9  1  0.50000000  0.47532000  0.95415000  1.0
  Li  Li10  1  0.74491000  0.01291000  0.87695000  1.0
  Li  Li11  1  0.00000000  0.51208000  0.95849000  1.0
  Li  Li12  1  0.75568000  0.25143000  0.96129000  1.0
  Li  Li13  1  0.24432000  0.25143000  0.96129000  1.0
  Li  Li14  1  0.00000000  0.72466000  0.87161000  1.0
  Li  Li15  1  0.50000000  0.73009000  0.87123000  1.0
  In  In16  1  0.00000000  0.25000000  0.04240000  1.0
  In  In17  1  0.50000000  0.25000000  0.04240000  1.0
  In  In18  1  0.75000000  0.75000000  0.12720000  1.0
  In  In19  1  0.25000000  0.75000000  0.12720000  1.0
  In  In20  1  0.50000000  0.26331000  0.85910000  1.0
  In  In21  1  0.00000000  0.25439000  0.87035000  1.0
  In  In22  1  0.25704000  0.75603000  0.95924000  1.0
  In  In23  1  0.74296000  0.75603000  0.95924000  1.0
  Pt  Pt24  1  0.00000000  0.00000000  0.12720000  1.0
  Pt  Pt25  1  0.25000000  0.50000000  0.04240000  1.0
  Pt  Pt26  1  0.75000000  0.50000000  0.04240000  1.0
  Pt  Pt27  1  0.50000000  1.00000000  0.12720000  1.0
  Pt  Pt28  1  0.50000000  0.01917000  0.95131000  1.0
  Pt  Pt29  1  0.74885000  0.48350000  0.88211000  1.0
  Pt  Pt30  1  0.25115000  0.48350000  0.88211000  1.0
  Pt  Pt31  1  0.00000000  0.99474000  0.95564000  1.0
  C  C32  1  0.00000000  0.14780000  0.73123000  1.0
  O  O33  1  0.00000000  0.28620000  0.70495000  1.0
