# generated using pymatgen
data_Li4Nb4Al4Pd4C
_symmetry_space_group_name_H-M   Cm
_cell_length_a   8.86349865
_cell_length_b   8.86349865
_cell_length_c   24.70060000
_cell_angle_alpha   90.00000000
_cell_angle_beta   90.00000000
_cell_angle_gamma   90.00000000
_symmetry_Int_Tables_number   8
_chemical_formula_structural   Li4Nb4Al4Pd4C
_chemical_formula_sum   'Li8 Nb8 Al8 Pd8 C2'
_cell_volume   1940.51886215
_cell_formula_units_Z   2
loop_
 _symmetry_equiv_pos_site_id
 _symmetry_equiv_pos_as_xyz
  1  'x, y, z'
  2  'x, -y, z'
  3  'x+1/2, y+1/2, z'
  4  'x+1/2, -y+1/2, z'
loop_
 _atom_site_type_symbol
 _atom_site_label
 _atom_site_symmetry_multiplicity
 _atom_site_fract_x
 _atom_site_fract_y
 _atom_site_fract_z
 _atom_site_occupancy
  Li  Li0  4  0.00002000  0.24992000  0.03464000  1.0
  Li  Li1  2  0.24999500  0.50000000  0.90485000  1.0
  Li  Li2  2  0.24999500  0.00000000  0.90485000  1.0
  Nb  Nb3  4  0.25010500  0.26231500  0.10044000  1.0
  Nb  Nb4  2  0.49999500  0.00000000  0.96828000  1.0
  Nb  Nb5  2  0.49999500  0.50000000  0.96828000  1.0
  Al  Al6  4  0.24999500  0.24999500  0.96828000  1.0
  Al  Al7  2  0.01299500  0.50000000  0.09732000  1.0
  Al  Al8  2  0.48742500  0.50000000  0.09739000  1.0
  Pd  Pd9  4  0.49999500  0.25000500  0.90485000  1.0
  Pd  Pd10  2  0.24996000  0.00000000  0.03285000  1.0
  Pd  Pd11  2  0.25005000  0.50000000  0.02266000  1.0
  C  C12  2  0.25038000  0.50000000  0.11221000  1.0
