# generated using pymatgen
data_Li8Y8Ga8Pd8C
_symmetry_space_group_name_H-M   Pm
_cell_length_a   6.61884000
_cell_length_b   9.36046000
_cell_length_c   27.02030000
_cell_angle_alpha   90.00000000
_cell_angle_beta   90.00000000
_cell_angle_gamma   90.00000000
_symmetry_Int_Tables_number   6
_chemical_formula_structural   Li8Y8Ga8Pd8C
_chemical_formula_sum   'Li8 Y8 Ga8 Pd8 C1'
_cell_volume   1674.05314515
_cell_formula_units_Z   1
loop_
 _symmetry_equiv_pos_site_id
 _symmetry_equiv_pos_as_xyz
  1  'x, y, z'
  2  'x, -y, z'
loop_
 _atom_site_type_symbol
 _atom_site_label
 _atom_site_symmetry_multiplicity
 _atom_site_fract_x
 _atom_site_fract_y
 _atom_site_fract_z
 _atom_site_occupancy
  Li  Li0  2  0.21941000  0.25025000  0.05010000  1.0
  Li  Li1  2  0.25000000  0.25000000  0.87009000  1.0
  Li  Li2  1  0.51986000  0.50000000  0.18368000  1.0
  Li  Li3  1  0.67880000  0.00000000  0.17210000  1.0
  Li  Li4  1  0.75000000  0.00000000  0.95670000  1.0
  Li  Li5  1  0.75000000  0.50000000  0.95670000  1.0
  Y  Y6  2  0.00000000  0.25000000  0.95670000  1.0
  Y  Y7  2  0.91467000  0.28038000  0.13105000  1.0
  Y  Y8  1  0.50000000  0.00000000  0.87009000  1.0
  Y  Y9  1  0.50000000  0.50000000  0.87009000  1.0
  Y  Y10  1  0.50206000  0.50000000  0.05074000  1.0
  Y  Y11  1  0.50341000  0.00000000  0.04918000  1.0
  Ga  Ga12  2  0.45090000  0.22815000  0.13494000  1.0
  Ga  Ga13  2  0.50000000  0.25000000  0.95670000  1.0
  Ga  Ga14  1  0.00000000  0.00000000  0.87009000  1.0
  Ga  Ga15  1  0.00000000  0.50000000  0.87009000  1.0
  Ga  Ga16  1  0.97683000  0.00000000  0.03963000  1.0
  Ga  Ga17  1  0.99239000  0.50000000  0.04074000  1.0
  Pd  Pd18  2  0.74515000  0.25189000  0.03823000  1.0
  Pd  Pd19  2  0.75000000  0.25000000  0.87009000  1.0
  Pd  Pd20  1  0.10913000  0.00000000  0.12774000  1.0
  Pd  Pd21  1  0.21480000  0.50000000  0.12514000  1.0
  Pd  Pd22  1  0.25000000  0.00000000  0.95670000  1.0
  Pd  Pd23  1  0.25000000  0.50000000  0.95670000  1.0
  C  C24  1  0.40794000  0.00000000  0.13479000  1.0
