# generated using pymatgen
data_Zn8Ni16Ge8CO
_symmetry_space_group_name_H-M   Pm
_cell_length_a   8.31574000
_cell_length_b   5.88011000
_cell_length_c   26.23680000
_cell_angle_alpha   90.00000000
_cell_angle_beta   90.00000000
_cell_angle_gamma   90.00000000
_symmetry_Int_Tables_number   6
_chemical_formula_structural   Zn8Ni16Ge8CO
_chemical_formula_sum   'Zn8 Ni16 Ge8 C1 O1'
_cell_volume   1282.91303415
_cell_formula_units_Z   1
loop_
 _symmetry_equiv_pos_site_id
 _symmetry_equiv_pos_as_xyz
  1  'x, y, z'
  2  'x, -y, z'
loop_
 _atom_site_type_symbol
 _atom_site_label
 _atom_site_symmetry_multiplicity
 _atom_site_fract_x
 _atom_site_fract_y
 _atom_site_fract_z
 _atom_site_occupancy
  Zn  Zn0  1  0.00000000  0.00000000  0.88114000  1.0
  Zn  Zn1  1  0.00610000  0.00000000  0.03554000  1.0
  Zn  Zn2  1  0.25000000  0.50000000  0.96038000  1.0
  Zn  Zn3  1  0.25002000  0.50000000  0.12618000  1.0
  Zn  Zn4  1  0.49390000  0.00000000  0.03553000  1.0
  Zn  Zn5  1  0.50000000  0.00000000  0.88114000  1.0
  Zn  Zn6  1  0.75000000  0.50000000  0.12401000  1.0
  Zn  Zn7  1  0.75000000  0.50000000  0.96038000  1.0
  Ni  Ni8  2  0.00000000  0.25000000  0.96038000  1.0
  Ni  Ni9  2  0.25000000  0.25000000  0.88114000  1.0
  Ni  Ni10  2  0.25005000  0.26543000  0.04305000  1.0
  Ni  Ni11  2  0.50000000  0.25000000  0.96038000  1.0
  Ni  Ni12  2  0.50452000  0.23640000  0.11123000  1.0
  Ni  Ni13  2  0.74994000  0.24749000  0.03769000  1.0
  Ni  Ni14  2  0.75000000  0.25000000  0.88114000  1.0
  Ni  Ni15  2  0.99550000  0.23639000  0.11124000  1.0
  Ge  Ge16  1  0.00000000  0.50000000  0.88114000  1.0
  Ge  Ge17  1  0.25000000  0.00000000  0.96038000  1.0
  Ge  Ge18  1  0.25001000  0.00000000  0.12017000  1.0
  Ge  Ge19  1  0.50000000  0.50000000  0.88114000  1.0
  Ge  Ge20  1  0.50298000  0.50000000  0.03982000  1.0
  Ge  Ge21  1  0.74998000  0.00000000  0.12009000  1.0
  Ge  Ge22  1  0.75000000  0.00000000  0.96038000  1.0
  Ge  Ge23  1  0.99702000  0.50000000  0.03981000  1.0
  C  C24  1  0.25001000  0.50000000  0.20590000  1.0
  O  O25  1  0.24999000  0.50000000  0.24941000  1.0
