data_image0
_chemical_formula_structural       Li8Ni16Sn8C
_chemical_formula_sum              "Li8 Ni16 Sn8 C1"
_cell_length_a       6.05884
_cell_length_b       8.56849
_cell_length_c       26.4264
_cell_angle_alpha    90
_cell_angle_beta     90
_cell_angle_gamma    90

_space_group_name_H-M_alt    "P 1"
_space_group_IT_number       1

loop_
  _space_group_symop_operation_xyz
  'x, y, z'

loop_
  _atom_site_type_symbol
  _atom_site_label
  _atom_site_symmetry_multiplicity
  _atom_site_fract_x
  _atom_site_fract_y
  _atom_site_fract_z
  _atom_site_occupancy
  Li  Li1       1.0  0.00000  0.00000  0.87841  1.0000
  Li  Li2       1.0  0.50000  0.25000  0.95947  1.0000
  Li  Li3       1.0  0.50000  0.75000  0.95947  1.0000
  Li  Li4       1.0  0.00000  0.50000  0.87841  1.0000
  Li  Li5       1.0  0.00378  0.50784  0.03429  1.0000
  Li  Li6       1.0  0.50449  0.74999  0.12652  1.0000
  Li  Li7       1.0  0.50744  0.24997  0.12540  1.0000
  Li  Li8       1.0  0.00374  0.99215  0.03429  1.0000
  Ni  Ni1       1.0  0.25000  0.00000  0.95947  1.0000
  Ni  Ni2       1.0  0.75000  0.50000  0.95947  1.0000
  Ni  Ni3       1.0  0.75000  0.00000  0.95947  1.0000
  Ni  Ni4       1.0  0.25000  0.50000  0.95947  1.0000
  Ni  Ni5       1.0  0.75000  0.75000  0.87841  1.0000
  Ni  Ni6       1.0  0.25000  0.25000  0.87841  1.0000
  Ni  Ni7       1.0  0.25000  0.75000  0.87841  1.0000
  Ni  Ni8       1.0  0.75000  0.25000  0.87841  1.0000
  Ni  Ni9       1.0  0.19829  0.46253  0.11199  1.0000
  Ni  Ni10      1.0  0.78695  0.00473  0.11250  1.0000
  Ni  Ni11      1.0  0.78694  0.49519  0.11251  1.0000
  Ni  Ni12      1.0  0.19829  0.03743  0.11198  1.0000
  Ni  Ni13      1.0  0.79502  0.24999  0.05152  1.0000
  Ni  Ni14      1.0  0.25533  0.75001  0.04236  1.0000
  Ni  Ni15      1.0  0.24535  0.24997  0.04032  1.0000
  Ni  Ni16      1.0  0.75103  0.75000  0.04259  1.0000
  Sn  Sn1       1.0  0.00000  0.75000  0.95947  1.0000
  Sn  Sn2       1.0  0.50000  0.00000  0.87841  1.0000
  Sn  Sn3       1.0  0.00000  0.25000  0.95947  1.0000
  Sn  Sn4       1.0  0.50000  0.50000  0.87841  1.0000
  Sn  Sn5       1.0  0.91724  0.24995  0.17021  1.0000
  Sn  Sn6       1.0  0.50672  0.49713  0.04109  1.0000
  Sn  Sn7       1.0  0.01019  0.74996  0.12448  1.0000
  Sn  Sn8       1.0  0.50672  0.00285  0.04109  1.0000
  C   C1        1.0  0.17657  0.24999  0.10829  1.0000
