# generated using pymatgen
data_Li8Ni16Sn8C
_symmetry_space_group_name_H-M   Pm
_cell_length_a   6.05884000
_cell_length_b   8.56849000
_cell_length_c   26.42640000
_cell_angle_alpha   90.00000000
_cell_angle_beta   90.00000000
_cell_angle_gamma   90.00000000
_symmetry_Int_Tables_number   6
_chemical_formula_structural   Li8Ni16Sn8C
_chemical_formula_sum   'Li8 Ni16 Sn8 C1'
_cell_volume   1371.92946162
_cell_formula_units_Z   1
loop_
 _symmetry_equiv_pos_site_id
 _symmetry_equiv_pos_as_xyz
  1  'x, y, z'
  2  'x, -y, z'
loop_
 _atom_site_type_symbol
 _atom_site_label
 _atom_site_symmetry_multiplicity
 _atom_site_fract_x
 _atom_site_fract_y
 _atom_site_fract_z
 _atom_site_occupancy
  Li  Li0  2  0.00000000  0.24999000  0.87841000  1.0
  Li  Li1  2  0.00378000  0.25785000  0.03429000  1.0
  Li  Li2  1  0.50000000  0.00000000  0.95947000  1.0
  Li  Li3  1  0.50000000  0.50000000  0.95947000  1.0
  Li  Li4  1  0.50449000  0.50000000  0.12652000  1.0
  Li  Li5  1  0.50744000  0.00000000  0.12540000  1.0
  Ni  Ni6  2  0.19829000  0.21254000  0.11199000  1.0
  Ni  Ni7  2  0.25000000  0.24999000  0.95947000  1.0
  Ni  Ni8  2  0.75000000  0.25001000  0.95947000  1.0
  Ni  Ni9  2  0.78695000  0.24526000  0.11250000  1.0
  Ni  Ni10  1  0.24535000  0.00000000  0.04032000  1.0
  Ni  Ni11  1  0.25000000  0.00000000  0.87841000  1.0
  Ni  Ni12  1  0.25000000  0.50000000  0.87841000  1.0
  Ni  Ni13  1  0.25533000  0.50000000  0.04236000  1.0
  Ni  Ni14  1  0.75000000  0.00000000  0.87841000  1.0
  Ni  Ni15  1  0.75000000  0.50000000  0.87841000  1.0
  Ni  Ni16  1  0.75103000  0.50000000  0.04259000  1.0
  Ni  Ni17  1  0.79502000  0.00000000  0.05152000  1.0
  Sn  Sn18  2  0.50000000  0.24999000  0.87841000  1.0
  Sn  Sn19  2  0.50672000  0.24714000  0.04109000  1.0
  Sn  Sn20  1  -0.00000000  0.00000000  0.95947000  1.0
  Sn  Sn21  1  0.00000000  0.50000000  0.95947000  1.0
  Sn  Sn22  1  0.01019000  0.50000000  0.12448000  1.0
  Sn  Sn23  1  0.91724000  0.00000000  0.17021000  1.0
  C  C24  1  0.17657000  0.00000000  0.10829000  1.0
