# generated using pymatgen
data_Li16Ag8Sb8C
_symmetry_space_group_name_H-M   'P 1'
_cell_length_a   9.47494000
_cell_length_b   6.69979000
_cell_length_c   27.10620000
_cell_angle_alpha   90.00000000
_cell_angle_beta   90.00000000
_cell_angle_gamma   90.00000000
_symmetry_Int_Tables_number   1
_chemical_formula_structural   Li16Ag8Sb8C
_chemical_formula_sum   'Li16 Ag8 Sb8 C1'
_cell_volume   1720.70451059
_cell_formula_units_Z   1
loop_
 _symmetry_equiv_pos_site_id
 _symmetry_equiv_pos_as_xyz
  1  'x, y, z'
loop_
 _atom_site_type_symbol
 _atom_site_label
 _atom_site_symmetry_multiplicity
 _atom_site_fract_x
 _atom_site_fract_y
 _atom_site_fract_z
 _atom_site_occupancy
  Li  Li0  1  0.75000000  1.00000000  0.04369000  1.0
  Li  Li1  1  0.00000000  0.50000000  0.13108000  1.0
  Li  Li2  1  0.25000000  1.00000000  0.04369000  1.0
  Li  Li3  1  0.50000000  0.50000000  0.13108000  1.0
  Li  Li4  1  0.00000000  0.25000000  0.04369000  1.0
  Li  Li5  1  0.50000000  0.25000000  0.04369000  1.0
  Li  Li6  1  0.75000000  0.75000000  0.13108000  1.0
  Li  Li7  1  0.25000000  0.75000000  0.13108000  1.0
  Li  Li8  1  0.21988000  0.99755000  0.86568000  1.0
  Li  Li9  1  0.50000000  0.49174000  0.95848000  1.0
  Li  Li10  1  0.78012000  0.99755000  0.86568000  1.0
  Li  Li11  1  0.00000000  0.47366000  0.94957000  1.0
  Li  Li12  1  0.50000000  0.25478000  0.86969000  1.0
  Li  Li13  1  0.00000000  0.27831000  0.84418000  1.0
  Li  Li14  1  0.24958000  0.73460000  0.95043000  1.0
  Li  Li15  1  0.75042000  0.73460000  0.95043000  1.0
  Ag  Ag16  1  0.25000000  0.25000000  0.13108000  1.0
  Ag  Ag17  1  0.75000000  0.25000000  0.13108000  1.0
  Ag  Ag18  1  0.50000000  0.75000000  0.04369000  1.0
  Ag  Ag19  1  0.00000000  0.75000000  0.04369000  1.0
  Ag  Ag20  1  0.74267000  0.26103000  0.95463000  1.0
  Ag  Ag21  1  0.25733000  0.26103000  0.95463000  1.0
  Ag  Ag22  1  0.00000000  0.68721000  0.86228000  1.0
  Ag  Ag23  1  0.50000000  0.72399000  0.87577000  1.0
  Sb  Sb24  1  0.00000000  0.00000000  0.13108000  1.0
  Sb  Sb25  1  0.25000000  0.50000000  0.04369000  1.0
  Sb  Sb26  1  0.75000000  0.50000000  0.04369000  1.0
  Sb  Sb27  1  0.50000000  1.00000000  0.13108000  1.0
  Sb  Sb28  1  0.50000000  0.99870000  0.95537000  1.0
  Sb  Sb29  1  0.74256000  0.47887000  0.86252000  1.0
  Sb  Sb30  1  0.25744000  0.47887000  0.86252000  1.0
  Sb  Sb31  1  0.00000000  0.01660000  0.95565000  1.0
  C  C32  1  0.00000000  0.00382000  0.87695000  1.0
