# generated using pymatgen
data_Zr8Ga8Ni16C
_symmetry_space_group_name_H-M   P1
_cell_length_a   6.13924000
_cell_length_b   8.68219000
_cell_length_c   26.51160000
_cell_angle_alpha   90.00000000
_cell_angle_beta   90.00000000
_cell_angle_gamma   90.00000000
_symmetry_Int_Tables_number   1
_chemical_formula_structural   Zr8Ga8Ni16C
_chemical_formula_sum   'Zr8 Ga8 Ni16 C1'
_cell_volume   1413.12257935
_cell_formula_units_Z   1
loop_
 _symmetry_equiv_pos_site_id
 _symmetry_equiv_pos_as_xyz
  1  'x, y, z'
loop_
 _atom_site_type_symbol
 _atom_site_label
 _atom_site_symmetry_multiplicity
 _atom_site_fract_x
 _atom_site_fract_y
 _atom_site_fract_z
 _atom_site_occupancy
  Zr  Zr0  1  0.00000000  0.00000000  0.87719000  1.0
  Zr  Zr1  1  0.00000000  0.50000000  0.87719000  1.0
  Zr  Zr2  1  0.00651000  0.99529000  0.05018000  1.0
  Zr  Zr3  1  0.00660000  0.50482000  0.05017000  1.0
  Zr  Zr4  1  0.41237000  0.74977000  0.12169000  1.0
  Zr  Zr5  1  0.42730000  0.25017000  0.11429000  1.0
  Zr  Zr6  1  0.50000000  0.25000000  0.95906000  1.0
  Zr  Zr7  1  0.50000000  0.75000000  0.95906000  1.0
  Ga  Ga8  1  0.00000000  0.25000000  0.95906000  1.0
  Ga  Ga9  1  0.00000000  0.75000000  0.95906000  1.0
  Ga  Ga10  1  0.49840000  0.00104000  0.03846000  1.0
  Ga  Ga11  1  0.49857000  0.49904000  0.03845000  1.0
  Ga  Ga12  1  0.50000000  0.00000000  0.87719000  1.0
  Ga  Ga13  1  0.50000000  0.50000000  0.87719000  1.0
  Ga  Ga14  1  0.86841000  0.24993000  0.13416000  1.0
  Ga  Ga15  1  0.94851000  0.75012000  0.13124000  1.0
  Ni  Ni16  1  0.11475000  0.47416000  0.14685000  1.0
  Ni  Ni17  1  0.11531000  0.02625000  0.14677000  1.0
  Ni  Ni18  1  0.23389000  0.25003000  0.03080000  1.0
  Ni  Ni19  1  0.25000000  0.00000000  0.95906000  1.0
  Ni  Ni20  1  0.25000000  0.25000000  0.87719000  1.0
  Ni  Ni21  1  0.25000000  0.50000000  0.95906000  1.0
  Ni  Ni22  1  0.25000000  0.75000000  0.87719000  1.0
  Ni  Ni23  1  0.25090000  0.75006000  0.03502000  1.0
  Ni  Ni24  1  0.70268000  0.98894000  0.11846000  1.0
  Ni  Ni25  1  0.70297000  0.51107000  0.11846000  1.0
  Ni  Ni26  1  0.71775000  0.75008000  0.04933000  1.0
  Ni  Ni27  1  0.75000000  0.00000000  0.95906000  1.0
  Ni  Ni28  1  0.75000000  0.25000000  0.87719000  1.0
  Ni  Ni29  1  0.75000000  0.50000000  0.95906000  1.0
  Ni  Ni30  1  0.75000000  0.75000000  0.87719000  1.0
  Ni  Ni31  1  0.76122000  0.25003000  0.03885000  1.0
  C  C32  1  0.16260000  0.25046000  0.16333000  1.0
