# generated using pymatgen
data_ScSnPt2
_symmetry_space_group_name_H-M   'P 1'
_cell_length_a   4.70648000
_cell_length_b   6.65597000
_cell_length_c   27.05970000
_cell_angle_alpha   90.00000000
_cell_angle_beta   90.00000000
_cell_angle_gamma   90.00000000
_symmetry_Int_Tables_number   1
_chemical_formula_structural   ScSnPt2
_chemical_formula_sum   'Sc4 Sn4 Pt8'
_cell_volume   847.67729504
_cell_formula_units_Z   4
loop_
 _symmetry_equiv_pos_site_id
 _symmetry_equiv_pos_as_xyz
  1  'x, y, z'
loop_
 _atom_site_type_symbol
 _atom_site_label
 _atom_site_symmetry_multiplicity
 _atom_site_fract_x
 _atom_site_fract_y
 _atom_site_fract_z
 _atom_site_occupancy
  Sc  Sc0  1  0.00000000  0.00000000  0.13045000  1.0
  Sc  Sc1  1  0.50000000  0.50000000  0.04348000  1.0
  Sc  Sc2  1  0.00000000  0.00000000  0.95463000  1.0
  Sc  Sc3  1  0.50000000  0.50000000  0.87253000  1.0
  Sn  Sn4  1  0.50000000  0.00000000  0.04348000  1.0
  Sn  Sn5  1  0.00000000  0.50000000  0.13045000  1.0
  Sn  Sn6  1  0.50000000  0.00000000  0.86132500  1.0
  Sn  Sn7  1  0.00000000  0.50000000  0.95830000  1.0
  Pt  Pt8  1  0.00000000  0.75000000  0.04348000  1.0
  Pt  Pt9  1  0.00000000  0.25000000  0.04348000  1.0
  Pt  Pt10  1  0.50000000  0.25000000  0.13045000  1.0
  Pt  Pt11  1  0.50000000  0.75000000  0.13045000  1.0
  Pt  Pt12  1  0.00000000  0.74073500  0.87529500  1.0
  Pt  Pt13  1  0.00000000  0.25926500  0.87529500  1.0
  Pt  Pt14  1  0.50000000  0.23943500  0.95478000  1.0
  Pt  Pt15  1  0.50000000  0.76056500  0.95478000  1.0
