# generated using pymatgen
data_NbAlCo2
_symmetry_space_group_name_H-M   Pmm2
_cell_length_a   4.22739000
_cell_length_b   5.97844000
_cell_length_c   26.34110000
_cell_angle_alpha   90.00000000
_cell_angle_beta   90.00000000
_cell_angle_gamma   90.00000000
_symmetry_Int_Tables_number   25
_chemical_formula_structural   NbAlCo2
_chemical_formula_sum   'Nb4 Al4 Co8'
_cell_volume   665.72382192
_cell_formula_units_Z   4
loop_
 _symmetry_equiv_pos_site_id
 _symmetry_equiv_pos_as_xyz
  1  'x, y, z'
  2  '-x, -y, z'
  3  '-x, y, z'
  4  'x, -y, z'
loop_
 _atom_site_type_symbol
 _atom_site_label
 _atom_site_symmetry_multiplicity
 _atom_site_fract_x
 _atom_site_fract_y
 _atom_site_fract_z
 _atom_site_occupancy
  Nb  Nb0  1  0.00000000  0.00000000  0.12036000  1.0
  Nb  Nb1  1  0.00000000  0.00000000  0.95794000  1.0
  Nb  Nb2  1  0.50000000  0.50000000  0.04012000  1.0
  Nb  Nb3  1  0.50000000  0.50000000  0.87921500  1.0
  Al  Al4  1  0.00000000  0.50000000  0.12036000  1.0
  Al  Al5  1  0.00000000  0.50000000  0.95885000  1.0
  Al  Al6  1  0.50000000  0.00000000  0.04012000  1.0
  Al  Al7  1  0.50000000  0.00000000  0.87839000  1.0
  Co  Co8  2  0.00000000  0.24848500  0.88258000  1.0
  Co  Co9  2  0.00000000  0.25000000  0.04012000  1.0
  Co  Co10  2  0.50000000  0.25000000  0.12036000  1.0
  Co  Co11  2  0.50000000  0.25311500  0.95952500  1.0
