# generated using pymatgen
data_Ti8Ni16Sn8CO
_symmetry_space_group_name_H-M   'P 1'
_cell_length_a   6.14888000
_cell_length_b   8.69583000
_cell_length_c   26.52190000
_cell_angle_alpha   90.00000000
_cell_angle_beta   90.00000000
_cell_angle_gamma   90.00000000
_symmetry_Int_Tables_number   1
_chemical_formula_structural   Ti8Ni16Sn8CO
_chemical_formula_sum   'Ti8 Ni16 Sn8 C1 O1'
_cell_volume   1418.11578659
_cell_formula_units_Z   1
loop_
 _symmetry_equiv_pos_site_id
 _symmetry_equiv_pos_as_xyz
  1  'x, y, z'
loop_
 _atom_site_type_symbol
 _atom_site_label
 _atom_site_symmetry_multiplicity
 _atom_site_fract_x
 _atom_site_fract_y
 _atom_site_fract_z
 _atom_site_occupancy
  Ti  Ti0  1  0.00000000  0.00000000  0.87705000  1.0
  Ti  Ti1  1  0.50000000  0.25000000  0.95902000  1.0
  Ti  Ti2  1  0.50000000  0.75000000  0.95902000  1.0
  Ti  Ti3  1  1.00000000  0.50000000  0.87705000  1.0
  Ti  Ti4  1  0.99999000  0.49817000  0.04292000  1.0
  Ti  Ti5  1  0.49999000  0.74997000  0.12142000  1.0
  Ti  Ti6  1  0.49999000  0.24999000  0.12134000  1.0
  Ti  Ti7  1  0.99999000  0.00179000  0.04292000  1.0
  Ni  Ni8  1  0.25000000  0.00000000  0.95902000  1.0
  Ni  Ni9  1  0.75000000  0.50000000  0.95902000  1.0
  Ni  Ni10  1  0.75000000  0.00000000  0.95902000  1.0
  Ni  Ni11  1  0.25000000  0.50000000  0.95902000  1.0
  Ni  Ni12  1  0.75000000  0.75000000  0.87705000  1.0
  Ni  Ni13  1  0.25000000  0.25000000  0.87705000  1.0
  Ni  Ni14  1  0.25000000  0.75000000  0.87705000  1.0
  Ni  Ni15  1  0.75000000  0.25000000  0.87705000  1.0
  Ni  Ni16  1  0.26200000  0.49986000  0.11886000  1.0
  Ni  Ni17  1  0.73790000  0.00010000  0.11888000  1.0
  Ni  Ni18  1  0.73798000  0.49986000  0.11886000  1.0
  Ni  Ni19  1  0.26207000  0.00010000  0.11888000  1.0
  Ni  Ni20  1  0.74952000  0.24999000  0.04349000  1.0
  Ni  Ni21  1  0.22844000  0.74997000  0.04627000  1.0
  Ni  Ni22  1  0.25047000  0.24998000  0.04349000  1.0
  Ni  Ni23  1  0.77154000  0.74998000  0.04627000  1.0
  Sn  Sn24  1  1.00000000  0.75000000  0.95902000  1.0
  Sn  Sn25  1  0.50000000  0.00000000  0.87705000  1.0
  Sn  Sn26  1  1.00000000  0.25000000  0.95902000  1.0
  Sn  Sn27  1  0.50000000  0.50000000  0.87705000  1.0
  Sn  Sn28  1  0.99998000  0.24996000  0.13162000  1.0
  Sn  Sn29  1  0.49999000  0.50493000  0.03883000  1.0
  Sn  Sn30  1  0.99999000  0.75003000  0.13629000  1.0
  Sn  Sn31  1  0.49999000  0.99503000  0.03883000  1.0
  C  C32  1  0.00054000  0.25072000  0.28154000  1.0
  O  O33  1  0.99994000  0.24990000  0.32433000  1.0
