data_image0
_chemical_formula_structural       Fe16Co8Ge8CO
_chemical_formula_sum              "Fe16 Co8 Ge8 C1 O1"
_cell_length_a       5.77744
_cell_length_b       8.17053
_cell_length_c       26.1279
_cell_angle_alpha    90
_cell_angle_beta     90
_cell_angle_gamma    90

_space_group_name_H-M_alt    "P 1"
_space_group_IT_number       1

loop_
  _space_group_symop_operation_xyz
  'x, y, z'

loop_
  _atom_site_type_symbol
  _atom_site_label
  _atom_site_symmetry_multiplicity
  _atom_site_fract_x
  _atom_site_fract_y
  _atom_site_fract_z
  _atom_site_occupancy
  Fe  Fe1       1.0  0.25000  0.00000  0.96091  1.0000
  Fe  Fe2       1.0  0.75000  0.50000  0.96091  1.0000
  Fe  Fe3       1.0  0.75000  0.00000  0.96091  1.0000
  Fe  Fe4       1.0  0.25000  0.50000  0.96091  1.0000
  Fe  Fe5       1.0  0.75000  0.75000  0.88273  1.0000
  Fe  Fe6       1.0  0.25000  0.25000  0.88273  1.0000
  Fe  Fe7       1.0  0.25000  0.75000  0.88273  1.0000
  Fe  Fe8       1.0  0.75000  0.25000  0.88273  1.0000
  Fe  Fe9       1.0  0.24359  0.50197  0.11671  1.0000
  Fe  Fe10      1.0  0.75664  0.99802  0.11669  1.0000
  Fe  Fe11      1.0  0.75642  0.50198  0.11671  1.0000
  Fe  Fe12      1.0  0.24336  0.99803  0.11669  1.0000
  Fe  Fe13      1.0  0.74710  0.25010  0.04108  1.0000
  Fe  Fe14      1.0  0.22660  0.74999  0.04201  1.0000
  Fe  Fe15      1.0  0.25290  0.25010  0.04108  1.0000
  Fe  Fe16      1.0  0.77341  0.74999  0.04201  1.0000
  Co  Co1       1.0  0.00000  0.00000  0.88273  1.0000
  Co  Co2       1.0  0.50000  0.25000  0.96091  1.0000
  Co  Co3       1.0  0.50000  0.75000  0.96091  1.0000
  Co  Co4       1.0  0.00000  0.50000  0.88273  1.0000
  Co  Co5       1.0  0.00000  0.48401  0.03947  1.0000
  Co  Co6       1.0  0.49999  0.75003  0.11145  1.0000
  Co  Co7       1.0  0.50001  0.24997  0.11334  1.0000
  Co  Co8       1.0  0.00001  0.01611  0.03934  1.0000
  Ge  Ge1       1.0  0.00000  0.75000  0.96091  1.0000
  Ge  Ge2       1.0  0.50000  0.00000  0.88273  1.0000
  Ge  Ge3       1.0  0.00000  0.25000  0.96091  1.0000
  Ge  Ge4       1.0  0.50000  0.50000  0.88273  1.0000
  Ge  Ge5       1.0  0.99999  0.25013  0.12802  1.0000
  Ge  Ge6       1.0  0.50000  0.50656  0.03844  1.0000
  Ge  Ge7       1.0  0.00002  0.74988  0.13194  1.0000
  Ge  Ge8       1.0  0.50000  0.99350  0.03847  1.0000
  C   C1        1.0  0.99985  0.24966  0.27946  1.0000
  O   O1        1.0  0.00003  0.24996  0.32287  1.0000
