# generated using pymatgen
data_Li24Au8C
_symmetry_space_group_name_H-M   'P 1'
_cell_length_a   6.35005000
_cell_length_b   8.98033000
_cell_length_c   26.73520000
_cell_angle_alpha   90.00000000
_cell_angle_beta   90.00000000
_cell_angle_gamma   90.00000000
_symmetry_Int_Tables_number   1
_chemical_formula_structural   Li24Au8C
_chemical_formula_sum   'Li24 Au8 C1'
_cell_volume   1524.58933776
_cell_formula_units_Z   1
loop_
 _symmetry_equiv_pos_site_id
 _symmetry_equiv_pos_as_xyz
  1  'x, y, z'
loop_
 _atom_site_type_symbol
 _atom_site_label
 _atom_site_symmetry_multiplicity
 _atom_site_fract_x
 _atom_site_fract_y
 _atom_site_fract_z
 _atom_site_occupancy
  Li  Li0  1  0.25000000  0.00000000  0.95801000  1.0
  Li  Li1  1  0.75000000  0.50000000  0.95801000  1.0
  Li  Li2  1  0.75000000  0.00000000  0.95801000  1.0
  Li  Li3  1  0.25000000  0.50000000  0.95801000  1.0
  Li  Li4  1  0.75000000  0.75000000  0.87404000  1.0
  Li  Li5  1  0.25000000  0.25000000  0.87404000  1.0
  Li  Li6  1  0.25000000  0.75000000  0.87404000  1.0
  Li  Li7  1  0.75000000  0.25000000  0.87404000  1.0
  Li  Li8  1  0.00000000  0.75000000  0.95801000  1.0
  Li  Li9  1  0.50000000  0.00000000  0.87404000  1.0
  Li  Li10  1  0.00000000  0.25000000  0.95801000  1.0
  Li  Li11  1  0.50000000  0.50000000  0.87404000  1.0
  Li  Li12  1  0.26374000  0.50000000  0.12518000  1.0
  Li  Li13  1  0.72615000  0.00000000  0.15228000  1.0
  Li  Li14  1  0.73626000  0.50000000  0.12518000  1.0
  Li  Li15  1  0.27385000  0.00000000  0.15228000  1.0
  Li  Li16  1  0.75274000  0.24681000  0.04064000  1.0
  Li  Li17  1  0.24726000  0.75319000  0.04064000  1.0
  Li  Li18  1  0.24726000  0.24681000  0.04064000  1.0
  Li  Li19  1  0.75274000  0.75319000  0.04064000  1.0
  Li  Li20  1  0.00000000  0.22867000  0.12385000  1.0
  Li  Li21  1  0.50000000  0.50000000  0.03845000  1.0
  Li  Li22  1  0.00000000  0.77133000  0.12385000  1.0
  Li  Li23  1  0.50000000  0.00000000  0.05401000  1.0
  Au  Au24  1  0.00000000  0.00000000  0.87404000  1.0
  Au  Au25  1  0.50000000  0.25000000  0.95801000  1.0
  Au  Au26  1  0.50000000  0.75000000  0.95801000  1.0
  Au  Au27  1  0.00000000  0.50000000  0.87404000  1.0
  Au  Au28  1  0.00000000  0.50000000  0.04385000  1.0
  Au  Au29  1  0.50000000  0.75245000  0.12089000  1.0
  Au  Au30  1  0.50000000  0.24755000  0.12089000  1.0
  Au  Au31  1  0.00000000  0.00000000  0.03747000  1.0
  C  C32  1  0.00000000  0.00000000  0.11398000  1.0
