# generated using pymatgen
data_Y16Ag16C
_symmetry_space_group_name_H-M   'P 1'
_cell_length_a   10.35920000
_cell_length_b   7.32505000
_cell_length_c   27.76940000
_cell_angle_alpha   90.00000000
_cell_angle_beta   90.00000000
_cell_angle_gamma   90.00000000
_symmetry_Int_Tables_number   1
_chemical_formula_structural   Y16Ag16C
_chemical_formula_sum   'Y16 Ag16 C1'
_cell_volume   2107.18811255
_cell_formula_units_Z   1
loop_
 _symmetry_equiv_pos_site_id
 _symmetry_equiv_pos_as_xyz
  1  'x, y, z'
loop_
 _atom_site_type_symbol
 _atom_site_label
 _atom_site_symmetry_multiplicity
 _atom_site_fract_x
 _atom_site_fract_y
 _atom_site_fract_z
 _atom_site_occupancy
  Y  Y0  1  0.25000000  0.50000000  0.13989000  1.0
  Y  Y1  1  0.00000000  0.50000000  0.04663000  1.0
  Y  Y2  1  0.25005000  0.50000000  0.95156000  1.0
  Y  Y3  1  0.02738000  0.50000000  0.85919000  1.0
  Y  Y4  1  0.75000000  0.50000000  0.13989000  1.0
  Y  Y5  1  0.50000000  0.50000000  0.04663000  1.0
  Y  Y6  1  0.75000000  0.50000000  0.95341000  1.0
  Y  Y7  1  0.47284000  0.50000000  0.85919000  1.0
  Y  Y8  1  0.25000000  0.00000000  0.13989000  1.0
  Y  Y9  1  0.00000000  0.00000000  0.04663000  1.0
  Y  Y10  1  0.24999000  0.00000000  0.95377000  1.0
  Y  Y11  1  0.98266000  0.00000000  0.86063000  1.0
  Y  Y12  1  0.75000000  0.00000000  0.13989000  1.0
  Y  Y13  1  0.50000000  0.00000000  0.04663000  1.0
  Y  Y14  1  0.75004000  0.00000000  0.95320000  1.0
  Y  Y15  1  0.51745000  0.00000000  0.86063000  1.0
  Ag  Ag16  1  0.00000000  0.75000000  0.13989000  1.0
  Ag  Ag17  1  0.25000000  0.75000000  0.04663000  1.0
  Ag  Ag18  1  0.99788000  0.75417000  0.95287000  1.0
  Ag  Ag19  1  0.25007000  0.80499000  0.85855000  1.0
  Ag  Ag20  1  0.50000000  0.75000000  0.13989000  1.0
  Ag  Ag21  1  0.75000000  0.75000000  0.04663000  1.0
  Ag  Ag22  1  0.50215000  0.75424000  0.95288000  1.0
  Ag  Ag23  1  0.75007000  0.72958000  0.86402000  1.0
  Ag  Ag24  1  0.00000000  0.25000000  0.13989000  1.0
  Ag  Ag25  1  0.25000000  0.25000000  0.04663000  1.0
  Ag  Ag26  1  0.99788000  0.24583000  0.95287000  1.0
  Ag  Ag27  1  0.25007000  0.19501000  0.85855000  1.0
  Ag  Ag28  1  0.50000000  0.25000000  0.13989000  1.0
  Ag  Ag29  1  0.75000000  0.25000000  0.04663000  1.0
  Ag  Ag30  1  0.50215000  0.24576000  0.95288000  1.0
  Ag  Ag31  1  0.75007000  0.27042000  0.86402000  1.0
  C  C32  1  0.25012000  0.50000000  0.86854000  1.0
