# generated using pymatgen
data_Y16Ag16C
_symmetry_space_group_name_H-M   Pm
_cell_length_a   10.35920000
_cell_length_b   7.32505000
_cell_length_c   27.76940000
_cell_angle_alpha   90.00000000
_cell_angle_beta   90.00000000
_cell_angle_gamma   90.00000000
_symmetry_Int_Tables_number   6
_chemical_formula_structural   Y16Ag16C
_chemical_formula_sum   'Y16 Ag16 C1'
_cell_volume   2107.18811255
_cell_formula_units_Z   1
loop_
 _symmetry_equiv_pos_site_id
 _symmetry_equiv_pos_as_xyz
  1  'x, y, z'
  2  'x, -y, z'
loop_
 _atom_site_type_symbol
 _atom_site_label
 _atom_site_symmetry_multiplicity
 _atom_site_fract_x
 _atom_site_fract_y
 _atom_site_fract_z
 _atom_site_occupancy
  Y  Y0  1  0.00000000  0.00000000  0.95337000  1.0
  Y  Y1  1  0.00000000  0.50000000  0.95337000  1.0
  Y  Y2  1  0.02738000  0.50000000  0.14081000  1.0
  Y  Y3  1  0.24999000  0.00000000  0.04623000  1.0
  Y  Y4  1  0.25000000  0.00000000  0.86011000  1.0
  Y  Y5  1  0.25000000  0.50000000  0.86011000  1.0
  Y  Y6  1  0.25005000  0.50000000  0.04844000  1.0
  Y  Y7  1  0.47284000  0.50000000  0.14081000  1.0
  Y  Y8  1  0.50000000  0.00000000  0.95337000  1.0
  Y  Y9  1  0.50000000  0.50000000  0.95337000  1.0
  Y  Y10  1  0.51745000  0.00000000  0.13937000  1.0
  Y  Y11  1  0.75000000  0.00000000  0.86011000  1.0
  Y  Y12  1  0.75000000  0.50000000  0.04659000  1.0
  Y  Y13  1  0.75000000  0.50000000  0.86011000  1.0
  Y  Y14  1  0.75004000  0.00000000  0.04680000  1.0
  Y  Y15  1  0.98266000  0.00000000  0.13937000  1.0
  Ag  Ag16  2  0.00000000  0.25000000  0.86011000  1.0
  Ag  Ag17  2  0.25000000  0.25000000  0.95337000  1.0
  Ag  Ag18  2  0.25007000  0.19501000  0.14145000  1.0
  Ag  Ag19  2  0.50000000  0.25000000  0.86011000  1.0
  Ag  Ag20  2  0.50215000  0.24576000  0.04712000  1.0
  Ag  Ag21  2  0.75000000  0.25000000  0.95337000  1.0
  Ag  Ag22  2  0.75007000  0.27042000  0.13598000  1.0
  Ag  Ag23  2  0.99788000  0.24583000  0.04713000  1.0
  C  C24  1  0.25012000  0.50000000  0.13146000  1.0
