# generated using pymatgen
data_LiYMgIn
_symmetry_space_group_name_H-M   'P 1'
_cell_length_a   10.02180000
_cell_length_b   7.08651000
_cell_length_c   27.51640000
_cell_angle_alpha   90.00000000
_cell_angle_beta   90.00000000
_cell_angle_gamma   90.00000000
_symmetry_Int_Tables_number   1
_chemical_formula_structural   LiYMgIn
_chemical_formula_sum   'Li8 Y8 Mg8 In8'
_cell_volume   1954.20333395
_cell_formula_units_Z   8
loop_
 _symmetry_equiv_pos_site_id
 _symmetry_equiv_pos_as_xyz
  1  'x, y, z'
loop_
 _atom_site_type_symbol
 _atom_site_label
 _atom_site_symmetry_multiplicity
 _atom_site_fract_x
 _atom_site_fract_y
 _atom_site_fract_z
 _atom_site_occupancy
  Li  Li0  1  0.25000000  0.00000000  0.04553000  1.0
  Li  Li1  1  0.75000000  0.00000000  0.04553000  1.0
  Li  Li2  1  0.50000000  0.50000000  0.13658000  1.0
  Li  Li3  1  0.00000000  0.50000000  0.13658000  1.0
  Li  Li4  1  0.75007000  0.94113000  0.82785000  1.0
  Li  Li5  1  0.24993000  0.94113000  0.82785000  1.0
  Li  Li6  1  0.00000000  0.49464000  0.95001000  1.0
  Li  Li7  1  0.50000000  0.49718000  0.95000000  1.0
  Y  Y8  1  0.00000000  0.25000000  0.04553000  1.0
  Y  Y9  1  0.50000000  0.25000000  0.04553000  1.0
  Y  Y10  1  0.25000000  0.75000000  0.13658000  1.0
  Y  Y11  1  0.75000000  0.75000000  0.13658000  1.0
  Y  Y12  1  0.50000000  0.23267000  0.86097000  1.0
  Y  Y13  1  0.00000000  0.23246000  0.86094000  1.0
  Y  Y14  1  0.75020000  0.74920000  0.94734000  1.0
  Y  Y15  1  0.24980000  0.74920000  0.94734000  1.0
  Mg  Mg16  1  0.00000000  0.75000000  0.04553000  1.0
  Mg  Mg17  1  0.50000000  0.75000000  0.04553000  1.0
  Mg  Mg18  1  0.25000000  0.25000000  0.13658000  1.0
  Mg  Mg19  1  0.75000000  0.25000000  0.13658000  1.0
  Mg  Mg20  1  0.50000000  0.74832000  0.85960000  1.0
  Mg  Mg21  1  0.00000000  0.74822000  0.85971000  1.0
  Mg  Mg22  1  0.74950000  0.24991000  0.95137000  1.0
  Mg  Mg23  1  0.25050000  0.24991000  0.95137000  1.0
  In  In24  1  0.00000000  0.00000000  0.13658000  1.0
  In  In25  1  0.50000000  0.00000000  0.13658000  1.0
  In  In26  1  0.75000000  0.50000000  0.04553000  1.0
  In  In27  1  0.25000000  0.50000000  0.04553000  1.0
  In  In28  1  0.50000000  0.99787000  0.95562000  1.0
  In  In29  1  0.00000000  0.99839000  0.95561000  1.0
  In  In30  1  0.24998000  0.49067000  0.85354000  1.0
  In  In31  1  0.75002000  0.49067000  0.85354000  1.0
