# generated using pymatgen
data_LiYMgIn
_symmetry_space_group_name_H-M   Pm
_cell_length_a   7.08651000
_cell_length_b   10.02180000
_cell_length_c   27.51640000
_cell_angle_alpha   90.00000000
_cell_angle_beta   90.00000000
_cell_angle_gamma   90.00000000
_symmetry_Int_Tables_number   6
_chemical_formula_structural   LiYMgIn
_chemical_formula_sum   'Li8 Y8 Mg8 In8'
_cell_volume   1954.20333395
_cell_formula_units_Z   8
loop_
 _symmetry_equiv_pos_site_id
 _symmetry_equiv_pos_as_xyz
  1  'x, y, z'
  2  'x, -y, z'
loop_
 _atom_site_type_symbol
 _atom_site_label
 _atom_site_symmetry_multiplicity
 _atom_site_fract_x
 _atom_site_fract_y
 _atom_site_fract_z
 _atom_site_occupancy
  Li  Li0  2  0.00000000  0.25000000  0.95447000  1.0
  Li  Li1  2  0.94113000  0.24993000  0.17215000  1.0
  Li  Li2  1  0.49464000  0.00000000  0.04999000  1.0
  Li  Li3  1  0.49718000  0.50000000  0.05000000  1.0
  Li  Li4  1  0.50000000  0.00000000  0.86342000  1.0
  Li  Li5  1  0.50000000  0.50000000  0.86342000  1.0
  Y  Y6  2  0.74920000  0.24980000  0.05266000  1.0
  Y  Y7  2  0.75000000  0.25000000  0.86342000  1.0
  Y  Y8  1  0.23246000  0.00000000  0.13906000  1.0
  Y  Y9  1  0.23267000  0.50000000  0.13903000  1.0
  Y  Y10  1  0.25000000  0.00000000  0.95447000  1.0
  Y  Y11  1  0.25000000  0.50000000  0.95447000  1.0
  Mg  Mg12  2  0.24991000  0.25050000  0.04863000  1.0
  Mg  Mg13  2  0.25000000  0.25000000  0.86342000  1.0
  Mg  Mg14  1  0.74822000  0.00000000  0.14029000  1.0
  Mg  Mg15  1  0.74832000  0.50000000  0.14040000  1.0
  Mg  Mg16  1  0.75000000  0.00000000  0.95447000  1.0
  Mg  Mg17  1  0.75000000  0.50000000  0.95447000  1.0
  In  In18  2  0.49067000  0.24998000  0.14646000  1.0
  In  In19  2  0.50000000  0.25000000  0.95447000  1.0
  In  In20  1  0.00000000  0.00000000  0.86342000  1.0
  In  In21  1  0.00000000  0.50000000  0.86342000  1.0
  In  In22  1  0.99787000  0.50000000  0.04438000  1.0
  In  In23  1  0.99839000  0.00000000  0.04439000  1.0
