# generated using pymatgen
data_Ga8Ni24CO
_symmetry_space_group_name_H-M   P4mm
_cell_length_a   7.23991000
_cell_length_b   7.23991000
_cell_length_c   25.42990000
_cell_angle_alpha   90.00000000
_cell_angle_beta   90.00000000
_cell_angle_gamma   90.00000000
_symmetry_Int_Tables_number   99
_chemical_formula_structural   Ga8Ni24CO
_chemical_formula_sum   'Ga8 Ni24 C1 O1'
_cell_volume   1332.94118620
_cell_formula_units_Z   1
loop_
 _symmetry_equiv_pos_site_id
 _symmetry_equiv_pos_as_xyz
  1  'x, y, z'
  2  '-y, x, z'
  3  '-x, -y, z'
  4  'y, -x, z'
  5  '-x, y, z'
  6  'y, x, z'
  7  'x, -y, z'
  8  '-y, -x, z'
loop_
 _atom_site_type_symbol
 _atom_site_label
 _atom_site_symmetry_multiplicity
 _atom_site_fract_x
 _atom_site_fract_y
 _atom_site_fract_z
 _atom_site_occupancy
  Ga  Ga0  2  0.00000000  0.50000000  0.10676000  1.0
  Ga  Ga1  2  0.00000000  0.50000000  0.96441000  1.0
  Ga  Ga2  1  0.00000000  0.00000000  0.10676000  1.0
  Ga  Ga3  1  0.00000000  0.00000000  0.96441000  1.0
  Ga  Ga4  1  0.50000000  0.50000000  0.10676000  1.0
  Ga  Ga5  1  0.50000000  0.50000000  0.96441000  1.0
  Ni  Ni6  4  0.00000000  0.25000000  0.03559000  1.0
  Ni  Ni7  4  0.00000000  0.25000000  0.89324000  1.0
  Ni  Ni8  4  0.25000000  0.25000000  0.10676000  1.0
  Ni  Ni9  4  0.25000000  0.25000000  0.96441000  1.0
  Ni  Ni10  4  0.25000000  0.50000000  0.03559000  1.0
  Ni  Ni11  4  0.25000000  0.50000000  0.89324000  1.0
  C  C12  1  0.00000000  0.00000000  0.18148000  1.0
  O  O13  1  0.00000000  0.00000000  0.22670000  1.0
