# generated using pymatgen
data_Sc8Ni16Sn8CO
_symmetry_space_group_name_H-M   'P 1'
_cell_length_a   6.29417000
_cell_length_b   8.90130000
_cell_length_c   26.67600000
_cell_angle_alpha   90.00000000
_cell_angle_beta   90.00000000
_cell_angle_gamma   90.00000000
_symmetry_Int_Tables_number   1
_chemical_formula_structural   Sc8Ni16Sn8CO
_chemical_formula_sum   'Sc8 Ni16 Sn8 C1 O1'
_cell_volume   1494.55745665
_cell_formula_units_Z   1
loop_
 _symmetry_equiv_pos_site_id
 _symmetry_equiv_pos_as_xyz
  1  'x, y, z'
loop_
 _atom_site_type_symbol
 _atom_site_label
 _atom_site_symmetry_multiplicity
 _atom_site_fract_x
 _atom_site_fract_y
 _atom_site_fract_z
 _atom_site_occupancy
  Sc  Sc0  1  0.00000000  0.00000000  0.87487000  1.0
  Sc  Sc1  1  0.50000000  0.25000000  0.95829000  1.0
  Sc  Sc2  1  0.50000000  0.75000000  0.95829000  1.0
  Sc  Sc3  1  1.00000000  0.50000000  0.87487000  1.0
  Sc  Sc4  1  0.99804000  0.49999000  0.04048000  1.0
  Sc  Sc5  1  0.50165000  0.74650000  0.12768000  1.0
  Sc  Sc6  1  0.50166000  0.25349000  0.12765000  1.0
  Sc  Sc7  1  0.00062000  0.00001000  0.04144000  1.0
  Ni  Ni8  1  0.25000000  0.00000000  0.95829000  1.0
  Ni  Ni9  1  0.75000000  0.50000000  0.95829000  1.0
  Ni  Ni10  1  0.75000000  0.00000000  0.95829000  1.0
  Ni  Ni11  1  0.25000000  0.50000000  0.95829000  1.0
  Ni  Ni12  1  0.75000000  0.75000000  0.87487000  1.0
  Ni  Ni13  1  0.25000000  0.25000000  0.87487000  1.0
  Ni  Ni14  1  0.25000000  0.75000000  0.87487000  1.0
  Ni  Ni15  1  0.75000000  0.25000000  0.87487000  1.0
  Ni  Ni16  1  0.23561000  0.50004000  0.11925000  1.0
  Ni  Ni17  1  0.76758000  0.99996000  0.11736000  1.0
  Ni  Ni18  1  0.75974000  0.50003000  0.11929000  1.0
  Ni  Ni19  1  0.25408000  0.99998000  0.12940000  1.0
  Ni  Ni20  1  0.74115000  0.24955000  0.04538000  1.0
  Ni  Ni21  1  0.25635000  0.75014000  0.04589000  1.0
  Ni  Ni22  1  0.25637000  0.24986000  0.04585000  1.0
  Ni  Ni23  1  0.74116000  0.75045000  0.04541000  1.0
  Sn  Sn24  1  1.00000000  0.75000000  0.95829000  1.0
  Sn  Sn25  1  0.50000000  0.00000000  0.87487000  1.0
  Sn  Sn26  1  1.00000000  0.25000000  0.95829000  1.0
  Sn  Sn27  1  0.50000000  0.50000000  0.87487000  1.0
  Sn  Sn28  1  0.99762000  0.25073000  0.12874000  1.0
  Sn  Sn29  1  0.49844000  0.50002000  0.04155000  1.0
  Sn  Sn30  1  0.99761000  0.74926000  0.12877000  1.0
  Sn  Sn31  1  0.49649000  0.99998000  0.04231000  1.0
  C  C32  1  0.33989000  0.00000000  0.19200000  1.0
  O  O33  1  0.37527000  0.00001000  0.23492000  1.0
