data_image0
_chemical_formula_structural       Pt32CO
_chemical_formula_sum              "Pt32 C1 O1"
_cell_length_a       8.01242
_cell_length_b       8.01242
_cell_length_c       26.0093
_cell_angle_alpha    90
_cell_angle_beta     90
_cell_angle_gamma    90

_space_group_name_H-M_alt    "P 1"
_space_group_IT_number       1

loop_
  _space_group_symop_operation_xyz
  'x, y, z'

loop_
  _atom_site_type_symbol
  _atom_site_label
  _atom_site_symmetry_multiplicity
  _atom_site_fract_x
  _atom_site_fract_y
  _atom_site_fract_z
  _atom_site_occupancy
  Pt  Pt1       1.0  0.00000  0.00000  0.88448  1.0000
  Pt  Pt2       1.0  0.25000  0.25000  0.88448  1.0000
  Pt  Pt3       1.0  0.25000  0.00000  0.96149  1.0000
  Pt  Pt4       1.0  0.00000  0.25000  0.96149  1.0000
  Pt  Pt5       1.0  0.00000  0.00000  0.03851  1.0000
  Pt  Pt6       1.0  0.25000  0.25000  0.03851  1.0000
  Pt  Pt7       1.0  0.25000  0.00000  0.11552  1.0000
  Pt  Pt8       1.0  0.00000  0.25000  0.11552  1.0000
  Pt  Pt9       1.0  0.00000  0.50000  0.88448  1.0000
  Pt  Pt10      1.0  0.25000  0.75000  0.88448  1.0000
  Pt  Pt11      1.0  0.25000  0.50000  0.96149  1.0000
  Pt  Pt12      1.0  0.00000  0.75000  0.96149  1.0000
  Pt  Pt13      1.0  0.00000  0.50000  0.03851  1.0000
  Pt  Pt14      1.0  0.25000  0.75000  0.03851  1.0000
  Pt  Pt15      1.0  0.25000  0.50000  0.11552  1.0000
  Pt  Pt16      1.0  0.00000  0.75000  0.11552  1.0000
  Pt  Pt17      1.0  0.50000  0.00000  0.88448  1.0000
  Pt  Pt18      1.0  0.75000  0.25000  0.88448  1.0000
  Pt  Pt19      1.0  0.75000  0.00000  0.96149  1.0000
  Pt  Pt20      1.0  0.50000  0.25000  0.96149  1.0000
  Pt  Pt21      1.0  0.50000  0.00000  0.03851  1.0000
  Pt  Pt22      1.0  0.75000  0.25000  0.03851  1.0000
  Pt  Pt23      1.0  0.75000  0.00000  0.11552  1.0000
  Pt  Pt24      1.0  0.50000  0.25000  0.11552  1.0000
  Pt  Pt25      1.0  0.50000  0.50000  0.88448  1.0000
  Pt  Pt26      1.0  0.75000  0.75000  0.88448  1.0000
  Pt  Pt27      1.0  0.75000  0.50000  0.96149  1.0000
  Pt  Pt28      1.0  0.50000  0.75000  0.96149  1.0000
  Pt  Pt29      1.0  0.50000  0.50000  0.03851  1.0000
  Pt  Pt30      1.0  0.75000  0.75000  0.03851  1.0000
  Pt  Pt31      1.0  0.75000  0.50000  0.11552  1.0000
  Pt  Pt32      1.0  0.50000  0.75000  0.11552  1.0000
  C   C1        1.0  0.25000  0.00000  0.18857  1.0000
  O   O1        1.0  0.25000  0.00000  0.23279  1.0000
