# generated using pymatgen
data_Ag3Pt
_symmetry_space_group_name_H-M   Pmm2
_cell_length_a   4.16097500
_cell_length_b   5.88450000
_cell_length_c   24.41340000
_cell_angle_alpha   90.00000000
_cell_angle_beta   90.00000000
_cell_angle_gamma   90.00000000
_symmetry_Int_Tables_number   25
_chemical_formula_structural   Ag3Pt
_chemical_formula_sum   'Ag6 Pt2'
_cell_volume   597.76838270
_cell_formula_units_Z   2
loop_
 _symmetry_equiv_pos_site_id
 _symmetry_equiv_pos_as_xyz
  1  'x, y, z'
  2  '-x, -y, z'
  3  '-x, y, z'
  4  'x, -y, z'
loop_
 _atom_site_type_symbol
 _atom_site_label
 _atom_site_symmetry_multiplicity
 _atom_site_fract_x
 _atom_site_fract_y
 _atom_site_fract_z
 _atom_site_occupancy
  Ag  Ag0  2  0.50000000  0.25000000  0.96987000  1.0
  Ag  Ag1  2  0.50000000  0.25549000  0.08825000  1.0
  Ag  Ag2  1  0.00000000  0.00000000  0.03038000  1.0
  Ag  Ag3  1  0.00000000  0.50000000  0.90961000  1.0
  Pt  Pt4  1  0.00000000  0.00000000  0.90961000  1.0
  Pt  Pt5  1  0.00000000  0.50000000  0.03038000  1.0
