# generated using pymatgen
data_V16Ru16C
_symmetry_space_group_name_H-M   'P 1'
_cell_length_a   8.53670000
_cell_length_b   6.03636000
_cell_length_c   26.40250000
_cell_angle_alpha   90.00000000
_cell_angle_beta   90.00000000
_cell_angle_gamma   90.00000000
_symmetry_Int_Tables_number   1
_chemical_formula_structural   V16Ru16C
_chemical_formula_sum   'V16 Ru16 C1'
_cell_volume   1360.53651896
_cell_formula_units_Z   1
loop_
 _symmetry_equiv_pos_site_id
 _symmetry_equiv_pos_as_xyz
  1  'x, y, z'
loop_
 _atom_site_type_symbol
 _atom_site_label
 _atom_site_symmetry_multiplicity
 _atom_site_fract_x
 _atom_site_fract_y
 _atom_site_fract_z
 _atom_site_occupancy
  V  V0  1  0.00000000  0.25000000  0.12125000  1.0
  V  V1  1  0.75000000  0.25000000  0.04042000  1.0
  V  V2  1  0.00000000  0.24995000  0.95700000  1.0
  V  V3  1  0.77241000  0.24991000  0.87099000  1.0
  V  V4  1  0.50000000  0.25000000  0.12125000  1.0
  V  V5  1  0.25000000  0.25000000  0.04042000  1.0
  V  V6  1  0.50000000  0.25001000  0.95608000  1.0
  V  V7  1  0.22759000  0.24991000  0.87099000  1.0
  V  V8  1  0.00000000  0.75000000  0.12125000  1.0
  V  V9  1  0.75000000  0.75000000  0.04042000  1.0
  V  V10  1  0.00000000  0.74992000  0.96408000  1.0
  V  V11  1  0.73919000  0.74988000  0.87690000  1.0
  V  V12  1  0.50000000  0.75000000  0.12125000  1.0
  V  V13  1  0.25000000  0.75000000  0.04042000  1.0
  V  V14  1  0.50000000  0.74999000  0.95650000  1.0
  V  V15  1  0.26081000  0.74988000  0.87690000  1.0
  Ru  Ru16  1  0.75000000  0.00000000  0.12125000  1.0
  Ru  Ru17  1  0.00000000  0.00000000  0.04042000  1.0
  Ru  Ru18  1  0.74876000  0.00119000  0.95765000  1.0
  Ru  Ru19  1  0.00000000  0.96998000  0.88454000  1.0
  Ru  Ru20  1  0.25000000  0.00000000  0.12125000  1.0
  Ru  Ru21  1  0.50000000  0.00000000  0.04042000  1.0
  Ru  Ru22  1  0.25124000  0.00119000  0.95765000  1.0
  Ru  Ru23  1  0.50000000  0.00452000  0.88209000  1.0
  Ru  Ru24  1  0.75000000  0.50000000  0.12125000  1.0
  Ru  Ru25  1  0.00000000  0.50000000  0.04042000  1.0
  Ru  Ru26  1  0.74874000  0.49892000  0.95766000  1.0
  Ru  Ru27  1  0.00000000  0.52936000  0.88456000  1.0
  Ru  Ru28  1  0.25000000  0.50000000  0.12125000  1.0
  Ru  Ru29  1  0.50000000  0.50000000  0.04042000  1.0
  Ru  Ru30  1  0.25126000  0.49892000  0.95766000  1.0
  Ru  Ru31  1  0.50000000  0.49536000  0.88208000  1.0
  C  C32  1  0.00000000  0.24964000  0.84532000  1.0
