# generated using pymatgen
data_Al8Fe8Co16C
_symmetry_space_group_name_H-M   'P 1'
_cell_length_a   5.71826000
_cell_length_b   8.08683000
_cell_length_c   26.06510000
_cell_angle_alpha   90.00000000
_cell_angle_beta   90.00000000
_cell_angle_gamma   90.00000000
_symmetry_Int_Tables_number   1
_chemical_formula_structural   Al8Fe8Co16C
_chemical_formula_sum   'Al8 Fe8 Co16 C1'
_cell_volume   1205.31790244
_cell_formula_units_Z   1
loop_
 _symmetry_equiv_pos_site_id
 _symmetry_equiv_pos_as_xyz
  1  'x, y, z'
loop_
 _atom_site_type_symbol
 _atom_site_label
 _atom_site_symmetry_multiplicity
 _atom_site_fract_x
 _atom_site_fract_y
 _atom_site_fract_z
 _atom_site_occupancy
  Al  Al0  1  0.50000000  0.00000000  0.88365000  1.0
  Al  Al1  1  0.00000000  0.25000000  0.96122000  1.0
  Al  Al2  1  0.00000000  0.75000000  0.96122000  1.0
  Al  Al3  1  0.50000000  0.50000000  0.88365000  1.0
  Al  Al4  1  0.50000000  0.50000000  0.03876000  1.0
  Al  Al5  1  0.00000000  0.75418000  0.12125000  1.0
  Al  Al6  1  0.00000000  0.24582000  0.12125000  1.0
  Al  Al7  1  0.50000000  0.00000000  0.03597000  1.0
  Fe  Fe8  1  0.50000000  0.75000000  0.96122000  1.0
  Fe  Fe9  1  0.00000000  0.00000000  0.88365000  1.0
  Fe  Fe10  1  0.50000000  0.25000000  0.96122000  1.0
  Fe  Fe11  1  0.00000000  0.50000000  0.88365000  1.0
  Fe  Fe12  1  0.50000000  0.26363000  0.11560000  1.0
  Fe  Fe13  1  0.00000000  0.50000000  0.03857000  1.0
  Fe  Fe14  1  0.50000000  0.73637000  0.11560000  1.0
  Fe  Fe15  1  0.00000000  0.00000000  0.03965000  1.0
  Co  Co16  1  0.75001000  0.00000000  0.96122000  1.0
  Co  Co17  1  0.25001000  0.50000000  0.96122000  1.0
  Co  Co18  1  0.24999000  0.00000000  0.96122000  1.0
  Co  Co19  1  0.74999000  0.50000000  0.96122000  1.0
  Co  Co20  1  0.25001000  0.75000000  0.88365000  1.0
  Co  Co21  1  0.74999000  0.25000000  0.88365000  1.0
  Co  Co22  1  0.74999000  0.75000000  0.88365000  1.0
  Co  Co23  1  0.25001000  0.25000000  0.88365000  1.0
  Co  Co24  1  0.76424000  0.50000000  0.11414000  1.0
  Co  Co25  1  0.28331000  0.00000000  0.11672000  1.0
  Co  Co26  1  0.23576000  0.50000000  0.11414000  1.0
  Co  Co27  1  0.71669000  0.00000000  0.11672000  1.0
  Co  Co28  1  0.24880000  0.24833000  0.04021000  1.0
  Co  Co29  1  0.75120000  0.75167000  0.04021000  1.0
  Co  Co30  1  0.75120000  0.24833000  0.04021000  1.0
  Co  Co31  1  0.24880000  0.75167000  0.04021000  1.0
  C  C32  1  0.00000000  0.00000000  0.14195000  1.0
