# generated using pymatgen
data_Mn16Sn8W8CO
_symmetry_space_group_name_H-M   'P 1'
_cell_length_a   6.10490000
_cell_length_b   8.63363000
_cell_length_c   26.47520000
_cell_angle_alpha   90.00000000
_cell_angle_beta   90.00000000
_cell_angle_gamma   90.00000000
_symmetry_Int_Tables_number   1
_chemical_formula_structural   Mn16Sn8W8CO
_chemical_formula_sum   'Mn16 Sn8 W8 C1 O1'
_cell_volume   1395.44022165
_cell_formula_units_Z   1
loop_
 _symmetry_equiv_pos_site_id
 _symmetry_equiv_pos_as_xyz
  1  'x, y, z'
loop_
 _atom_site_type_symbol
 _atom_site_label
 _atom_site_symmetry_multiplicity
 _atom_site_fract_x
 _atom_site_fract_y
 _atom_site_fract_z
 _atom_site_occupancy
  Mn  Mn0  1  0.25000000  0.75000000  0.95924000  1.0
  Mn  Mn1  1  0.75000000  0.25000000  0.95924000  1.0
  Mn  Mn2  1  0.75000000  0.75000000  0.95924000  1.0
  Mn  Mn3  1  0.25000000  0.25000000  0.95924000  1.0
  Mn  Mn4  1  0.75000000  0.50000000  0.87771000  1.0
  Mn  Mn5  1  0.25000000  0.00000000  0.87771000  1.0
  Mn  Mn6  1  0.25000000  0.50000000  0.87771000  1.0
  Mn  Mn7  1  0.75000000  0.00000000  0.87771000  1.0
  Mn  Mn8  1  0.23283000  0.25295000  0.12731000  1.0
  Mn  Mn9  1  0.76717000  0.74705000  0.12731000  1.0
  Mn  Mn10  1  0.76717000  0.25295000  0.12731000  1.0
  Mn  Mn11  1  0.23283000  0.74705000  0.12731000  1.0
  Mn  Mn12  1  0.74044000  0.00000000  0.04232000  1.0
  Mn  Mn13  1  0.25496000  0.50000000  0.04264000  1.0
  Mn  Mn14  1  0.25956000  0.00000000  0.04232000  1.0
  Mn  Mn15  1  0.74504000  0.50000000  0.04264000  1.0
  Sn  Sn16  1  0.00000000  0.75000000  0.87771000  1.0
  Sn  Sn17  1  0.50000000  0.00000000  0.95924000  1.0
  Sn  Sn18  1  0.50000000  0.50000000  0.95924000  1.0
  Sn  Sn19  1  0.00000000  0.25000000  0.87771000  1.0
  Sn  Sn20  1  0.00000000  0.24610000  0.04080000  1.0
  Sn  Sn21  1  0.50000000  0.50000000  0.13796000  1.0
  Sn  Sn22  1  0.50000000  0.00000000  0.13156000  1.0
  Sn  Sn23  1  0.00000000  0.75390000  0.04080000  1.0
  W  W24  1  0.00000000  0.50000000  0.95924000  1.0
  W  W25  1  0.50000000  0.75000000  0.87771000  1.0
  W  W26  1  0.00000000  0.00000000  0.95924000  1.0
  W  W27  1  0.50000000  0.25000000  0.87771000  1.0
  W  W28  1  0.00000000  0.00000000  0.12194000  1.0
  W  W29  1  0.50000000  0.25023000  0.04309000  1.0
  W  W30  1  0.00000000  0.50000000  0.11636000  1.0
  W  W31  1  0.50000000  0.74977000  0.04309000  1.0
  C  C32  1  0.00000000  0.00000000  0.19822000  1.0
  O  O33  1  0.00000000  0.00000000  0.24215000  1.0
