# generated using pymatgen
data_Sc4Ga4Ge4Pd4CO
_symmetry_space_group_name_H-M   'P 1'
_cell_length_a   5.89664000
_cell_length_b   7.83718000
_cell_length_c   24.41460000
_cell_angle_alpha   90.00000000
_cell_angle_beta   90.00000000
_cell_angle_gamma   90.00000000
_symmetry_Int_Tables_number   1
_chemical_formula_structural   Sc4Ga4Ge4Pd4CO
_chemical_formula_sum   'Sc4 Ga4 Ge4 Pd4 C1 O1'
_cell_volume   1128.27261966
_cell_formula_units_Z   1
loop_
 _symmetry_equiv_pos_site_id
 _symmetry_equiv_pos_as_xyz
  1  'x, y, z'
loop_
 _atom_site_type_symbol
 _atom_site_label
 _atom_site_symmetry_multiplicity
 _atom_site_fract_x
 _atom_site_fract_y
 _atom_site_fract_z
 _atom_site_occupancy
  Sc  Sc0  1  0.50237000  0.00001000  0.91196000  1.0
  Sc  Sc1  1  0.02981000  0.00000000  0.03014000  1.0
  Sc  Sc2  1  0.50259000  0.50000000  0.91249000  1.0
  Sc  Sc3  1  0.02981000  0.50000000  0.03014000  1.0
  Ga  Ga4  1  0.99555000  0.00000000  0.90386000  1.0
  Ga  Ga5  1  0.52981000  0.00000000  0.03014000  1.0
  Ga  Ga6  1  0.00619000  0.50001000  0.89977000  1.0
  Ga  Ga7  1  0.52981000  0.50000000  0.03014000  1.0
  Ge  Ge8  1  0.24654000  0.74856000  0.96282000  1.0
  Ge  Ge9  1  0.79472000  0.75000000  0.09041000  1.0
  Ge  Ge10  1  0.24672000  0.25136000  0.96281000  1.0
  Ge  Ge11  1  0.79472000  0.25000000  0.09041000  1.0
  Pd  Pd12  1  0.76694000  0.74729000  0.96811000  1.0
  Pd  Pd13  1  0.29472000  0.75000000  0.09041000  1.0
  Pd  Pd14  1  0.76689000  0.25270000  0.96812000  1.0
  Pd  Pd15  1  0.29472000  0.25000000  0.09041000  1.0
  C  C16  1  0.64282000  0.99999000  0.82374000  1.0
  O  O17  1  0.70202000  0.99998000  0.77886000  1.0
