data_image0
_chemical_formula_structural       Hf8Ni16Sn8
_chemical_formula_sum              "Hf8 Ni16 Sn8"
_cell_length_a       6.28964
_cell_length_b       8.8949
_cell_length_c       26.6712
_cell_angle_alpha    90
_cell_angle_beta     90
_cell_angle_gamma    90

_space_group_name_H-M_alt    "P 1"
_space_group_IT_number       1

loop_
  _space_group_symop_operation_xyz
  'x, y, z'

loop_
  _atom_site_type_symbol
  _atom_site_label
  _atom_site_symmetry_multiplicity
  _atom_site_fract_x
  _atom_site_fract_y
  _atom_site_fract_z
  _atom_site_occupancy
  Hf  Hf1       1.0  0.00000  0.00000  0.87494  1.0000
  Hf  Hf2       1.0  0.50000  0.25000  0.95831  1.0000
  Hf  Hf3       1.0  0.50000  0.75000  0.95831  1.0000
  Hf  Hf4       1.0  0.00000  0.50000  0.87494  1.0000
  Hf  Hf5       1.0  0.00000  0.50000  0.04169  1.0000
  Hf  Hf6       1.0  0.50000  0.75000  0.12506  1.0000
  Hf  Hf7       1.0  0.50000  0.25000  0.12506  1.0000
  Hf  Hf8       1.0  0.00000  0.00000  0.04169  1.0000
  Ni  Ni1       1.0  0.25000  0.00000  0.95831  1.0000
  Ni  Ni2       1.0  0.75000  0.50000  0.95831  1.0000
  Ni  Ni3       1.0  0.75000  0.00000  0.95831  1.0000
  Ni  Ni4       1.0  0.25000  0.50000  0.95831  1.0000
  Ni  Ni5       1.0  0.75000  0.75000  0.87494  1.0000
  Ni  Ni6       1.0  0.25000  0.25000  0.87494  1.0000
  Ni  Ni7       1.0  0.25000  0.75000  0.87494  1.0000
  Ni  Ni8       1.0  0.75000  0.25000  0.87494  1.0000
  Ni  Ni9       1.0  0.25000  0.50000  0.12506  1.0000
  Ni  Ni10      1.0  0.75000  0.00000  0.12506  1.0000
  Ni  Ni11      1.0  0.75000  0.50000  0.12506  1.0000
  Ni  Ni12      1.0  0.25000  0.00000  0.12506  1.0000
  Ni  Ni13      1.0  0.75000  0.25000  0.04169  1.0000
  Ni  Ni14      1.0  0.25000  0.75000  0.04169  1.0000
  Ni  Ni15      1.0  0.25000  0.25000  0.04169  1.0000
  Ni  Ni16      1.0  0.75000  0.75000  0.04169  1.0000
  Sn  Sn1       1.0  0.00000  0.75000  0.95831  1.0000
  Sn  Sn2       1.0  0.50000  0.00000  0.87494  1.0000
  Sn  Sn3       1.0  0.00000  0.25000  0.95831  1.0000
  Sn  Sn4       1.0  0.50000  0.50000  0.87494  1.0000
  Sn  Sn5       1.0  0.00000  0.25000  0.12506  1.0000
  Sn  Sn6       1.0  0.50000  0.50000  0.04169  1.0000
  Sn  Sn7       1.0  0.00000  0.75000  0.12506  1.0000
  Sn  Sn8       1.0  0.50000  0.00000  0.04169  1.0000
