# generated using pymatgen
data_HfNi2Sn
_symmetry_space_group_name_H-M   Pm
_cell_length_a   8.89490000
_cell_length_b   6.28964000
_cell_length_c   26.67120000
_cell_angle_alpha   90.00000000
_cell_angle_beta   90.00000000
_cell_angle_gamma   90.00000000
_symmetry_Int_Tables_number   6
_chemical_formula_structural   HfNi2Sn
_chemical_formula_sum   'Hf8 Ni16 Sn8'
_cell_volume   1492.13945622
_cell_formula_units_Z   8
loop_
 _symmetry_equiv_pos_site_id
 _symmetry_equiv_pos_as_xyz
  1  'x, y, z'
  2  'x, -y, z'
loop_
 _atom_site_type_symbol
 _atom_site_label
 _atom_site_symmetry_multiplicity
 _atom_site_fract_x
 _atom_site_fract_y
 _atom_site_fract_z
 _atom_site_occupancy
  Hf  Hf0  1  0.00000000  0.00000000  0.87494000  1.0
  Hf  Hf1  1  0.00001000  0.00000000  0.04279000  1.0
  Hf  Hf2  1  0.25000000  0.50000000  0.95831000  1.0
  Hf  Hf3  1  0.25001000  0.50000000  0.12516000  1.0
  Hf  Hf4  1  0.49999000  0.00000000  0.04279000  1.0
  Hf  Hf5  1  0.50000000  0.00000000  0.87494000  1.0
  Hf  Hf6  1  0.75000000  0.50000000  0.12518000  1.0
  Hf  Hf7  1  0.75000000  0.50000000  0.95831000  1.0
  Ni  Ni8  2  0.00000000  0.25000000  0.95831000  1.0
  Ni  Ni9  2  0.25000000  0.24926000  0.04470000  1.0
  Ni  Ni10  2  0.25000000  0.25000000  0.87494000  1.0
  Ni  Ni11  2  0.50000000  0.25000000  0.95831000  1.0
  Ni  Ni12  2  0.50001000  0.25998000  0.12075000  1.0
  Ni  Ni13  2  0.74996000  0.24911000  0.04474000  1.0
  Ni  Ni14  2  0.75000000  0.25000000  0.87494000  1.0
  Ni  Ni15  2  0.99999000  0.26005000  0.12071000  1.0
  Sn  Sn16  1  0.00000000  0.50000000  0.87494000  1.0
  Sn  Sn17  1  0.24999000  0.00000000  0.13337000  1.0
  Sn  Sn18  1  0.25000000  0.00000000  0.95831000  1.0
  Sn  Sn19  1  0.50000000  0.50000000  0.87494000  1.0
  Sn  Sn20  1  0.50004000  0.50000000  0.04011000  1.0
  Sn  Sn21  1  0.75000000  0.00000000  0.95831000  1.0
  Sn  Sn22  1  0.75004000  0.00000000  0.13338000  1.0
  Sn  Sn23  1  0.99996000  0.50000000  0.04007000  1.0
