# generated using pymatgen
data_Li4Y4Ge4Pb4C
_symmetry_space_group_name_H-M   'P 1'
_cell_length_a   8.65500000
_cell_length_b   6.52719000
_cell_length_c   24.84630000
_cell_angle_alpha   90.00000000
_cell_angle_beta   90.00000000
_cell_angle_gamma   90.00000000
_symmetry_Int_Tables_number   1
_chemical_formula_structural   Li4Y4Ge4Pb4C
_chemical_formula_sum   'Li4 Y4 Ge4 Pb4 C1'
_cell_volume   1403.63778836
_cell_formula_units_Z   1
loop_
 _symmetry_equiv_pos_site_id
 _symmetry_equiv_pos_as_xyz
  1  'x, y, z'
loop_
 _atom_site_type_symbol
 _atom_site_label
 _atom_site_symmetry_multiplicity
 _atom_site_fract_x
 _atom_site_fract_y
 _atom_site_fract_z
 _atom_site_occupancy
  Li  Li0  1  0.00000000  0.50000000  0.09753000  1.0
  Li  Li1  1  0.00000000  0.90622000  0.96564000  1.0
  Li  Li2  1  0.50000000  0.50000000  0.09753000  1.0
  Li  Li3  1  0.50000000  0.93347000  0.97232000  1.0
  Y  Y4  1  0.25000000  0.21469000  0.03251000  1.0
  Y  Y5  1  0.24262000  0.61448000  0.90161000  1.0
  Y  Y6  1  0.75000000  0.21469000  0.03251000  1.0
  Y  Y7  1  0.75738000  0.61448000  0.90161000  1.0
  Ge  Ge8  1  0.00000000  0.00000000  0.09753000  1.0
  Ge  Ge9  1  0.00000000  0.32239000  0.95171000  1.0
  Ge  Ge10  1  0.50000000  0.00000000  0.09753000  1.0
  Ge  Ge11  1  0.50000000  0.36669000  0.95715000  1.0
  Pb  Pb12  1  0.25000000  0.71469000  0.03251000  1.0
  Pb  Pb13  1  0.27158000  0.12775000  0.88791000  1.0
  Pb  Pb14  1  0.75000000  0.71469000  0.03251000  1.0
  Pb  Pb15  1  0.72842000  0.12775000  0.88791000  1.0
  C  C16  1  0.00000000  0.61319000  0.92888000  1.0
