# generated using pymatgen
data_Li8In16Pt8C
_symmetry_space_group_name_H-M   Pmm2
_cell_length_a   6.69031000
_cell_length_b   9.46152000
_cell_length_c   27.09610000
_cell_angle_alpha   90.00000000
_cell_angle_beta   90.00000000
_cell_angle_gamma   90.00000000
_symmetry_Int_Tables_number   25
_chemical_formula_structural   Li8In16Pt8C
_chemical_formula_sum   'Li8 In16 Pt8 C1'
_cell_volume   1715.19672875
_cell_formula_units_Z   1
loop_
 _symmetry_equiv_pos_site_id
 _symmetry_equiv_pos_as_xyz
  1  'x, y, z'
  2  '-x, -y, z'
  3  '-x, y, z'
  4  'x, -y, z'
loop_
 _atom_site_type_symbol
 _atom_site_label
 _atom_site_symmetry_multiplicity
 _atom_site_fract_x
 _atom_site_fract_y
 _atom_site_fract_z
 _atom_site_occupancy
  Li  Li0  2  0.50000000  0.25000000  0.95635000  1.0
  Li  Li1  2  0.50000000  0.28280000  0.13868000  1.0
  Li  Li2  1  0.00000000  0.00000000  0.05366000  1.0
  Li  Li3  1  0.00000000  0.00000000  0.86906000  1.0
  Li  Li4  1  0.00000000  0.50000000  0.04673000  1.0
  Li  Li5  1  0.00000000  0.50000000  0.86906000  1.0
  In  In6  4  0.25000000  0.25000000  0.86906000  1.0
  In  In7  4  0.25457000  0.25340000  0.04572000  1.0
  In  In8  2  0.22288000  0.50000000  0.14393000  1.0
  In  In9  2  0.25000000  0.00000000  0.95635000  1.0
  In  In10  2  0.25000000  0.50000000  0.95635000  1.0
  In  In11  2  0.30528000  0.00000000  0.13696000  1.0
  Pt  Pt12  2  0.00000000  0.21380000  0.12653000  1.0
  Pt  Pt13  2  0.00000000  0.25000000  0.95635000  1.0
  Pt  Pt14  1  0.50000000  0.00000000  0.03772000  1.0
  Pt  Pt15  1  0.50000000  0.00000000  0.86906000  1.0
  Pt  Pt16  1  0.50000000  0.50000000  0.04270000  1.0
  Pt  Pt17  1  0.50000000  0.50000000  0.86906000  1.0
  C  C18  1  0.00000000  0.00000000  0.15335000  1.0
