# generated using pymatgen
data_Li8Mn8Ge8Pd8C
_symmetry_space_group_name_H-M   'P 1'
_cell_length_a   8.69336000
_cell_length_b   6.14713000
_cell_length_c   26.52000000
_cell_angle_alpha   90.00000000
_cell_angle_beta   90.00000000
_cell_angle_gamma   90.00000000
_symmetry_Int_Tables_number   1
_chemical_formula_structural   Li8Mn8Ge8Pd8C
_chemical_formula_sum   'Li8 Mn8 Ge8 Pd8 C1'
_cell_volume   1417.20795679
_cell_formula_units_Z   1
loop_
 _symmetry_equiv_pos_site_id
 _symmetry_equiv_pos_as_xyz
  1  'x, y, z'
loop_
 _atom_site_type_symbol
 _atom_site_label
 _atom_site_symmetry_multiplicity
 _atom_site_fract_x
 _atom_site_fract_y
 _atom_site_fract_z
 _atom_site_occupancy
  Li  Li0  1  0.00000000  0.00000000  0.04098000  1.0
  Li  Li1  1  0.50000000  0.00000000  0.04098000  1.0
  Li  Li2  1  0.25000000  0.50000000  0.12293000  1.0
  Li  Li3  1  0.75000000  0.50000000  0.12293000  1.0
  Li  Li4  1  0.50000000  0.96307000  0.85534000  1.0
  Li  Li5  1  0.00000000  0.99324000  0.84029000  1.0
  Li  Li6  1  0.74943000  0.50146000  0.96268000  1.0
  Li  Li7  1  0.25057000  0.50146000  0.96268000  1.0
  Mn  Mn8  1  0.75000000  0.25000000  0.04098000  1.0
  Mn  Mn9  1  0.25000000  0.25000000  0.04098000  1.0
  Mn  Mn10  1  0.00000000  0.75000000  0.12293000  1.0
  Mn  Mn11  1  0.50000000  0.75000000  0.12293000  1.0
  Mn  Mn12  1  0.26836000  0.24541000  0.88214000  1.0
  Mn  Mn13  1  0.73164000  0.24541000  0.88214000  1.0
  Mn  Mn14  1  0.50000000  0.76133000  0.95371000  1.0
  Mn  Mn15  1  0.00000000  0.75679000  0.94684000  1.0
  Ge  Ge16  1  0.75000000  0.00000000  0.12293000  1.0
  Ge  Ge17  1  0.25000000  0.00000000  0.12293000  1.0
  Ge  Ge18  1  0.50000000  0.50000000  0.04098000  1.0
  Ge  Ge19  1  0.00000000  0.50000000  0.04098000  1.0
  Ge  Ge20  1  0.24761000  0.00182000  0.96207000  1.0
  Ge  Ge21  1  0.75239000  0.00182000  0.96207000  1.0
  Ge  Ge22  1  0.00000000  0.39298000  0.86642000  1.0
  Ge  Ge23  1  0.50000000  0.50863000  0.87152000  1.0
  Pd  Pd24  1  0.75000000  0.75000000  0.04098000  1.0
  Pd  Pd25  1  0.25000000  0.75000000  0.04098000  1.0
  Pd  Pd26  1  0.00000000  0.25000000  0.12293000  1.0
  Pd  Pd27  1  0.50000000  0.25000000  0.12293000  1.0
  Pd  Pd28  1  0.25227000  0.74373000  0.88360000  1.0
  Pd  Pd29  1  0.74773000  0.74373000  0.88360000  1.0
  Pd  Pd30  1  0.50000000  0.25021000  0.95789000  1.0
  Pd  Pd31  1  0.00000000  0.25400000  0.96059000  1.0
  C  C32  1  0.00000000  0.70366000  0.87666000  1.0
