# generated using pymatgen
data_Li8Mn8Ge8Pd8C
_symmetry_space_group_name_H-M   Pm
_cell_length_a   6.14713000
_cell_length_b   8.69336000
_cell_length_c   26.52000000
_cell_angle_alpha   90.00000000
_cell_angle_beta   90.00000000
_cell_angle_gamma   90.00000000
_symmetry_Int_Tables_number   6
_chemical_formula_structural   Li8Mn8Ge8Pd8C
_chemical_formula_sum   'Li8 Mn8 Ge8 Pd8 C1'
_cell_volume   1417.20795679
_cell_formula_units_Z   1
loop_
 _symmetry_equiv_pos_site_id
 _symmetry_equiv_pos_as_xyz
  1  'x, y, z'
  2  'x, -y, z'
loop_
 _atom_site_type_symbol
 _atom_site_label
 _atom_site_symmetry_multiplicity
 _atom_site_fract_x
 _atom_site_fract_y
 _atom_site_fract_z
 _atom_site_occupancy
  Li  Li0  2  0.50000000  0.25000000  0.87707000  1.0
  Li  Li1  2  0.50146000  0.25057000  0.03732000  1.0
  Li  Li2  1  0.00000000  0.00000000  0.95902000  1.0
  Li  Li3  1  0.00000000  0.50000000  0.95902000  1.0
  Li  Li4  1  0.96307000  0.50000000  0.14466000  1.0
  Li  Li5  1  0.99324000  0.00000000  0.15971000  1.0
  Mn  Mn6  2  0.24541000  0.26836000  0.11786000  1.0
  Mn  Mn7  2  0.25000000  0.25000000  0.95902000  1.0
  Mn  Mn8  1  0.75000000  0.00000000  0.87707000  1.0
  Mn  Mn9  1  0.75000000  0.50000000  0.87707000  1.0
  Mn  Mn10  1  0.75679000  0.00000000  0.05316000  1.0
  Mn  Mn11  1  0.76133000  0.50000000  0.04629000  1.0
  Ge  Ge12  2  0.00000000  0.25000000  0.87707000  1.0
  Ge  Ge13  2  0.00182000  0.24761000  0.03793000  1.0
  Ge  Ge14  1  0.39298000  0.00000000  0.13358000  1.0
  Ge  Ge15  1  0.50000000  0.00000000  0.95902000  1.0
  Ge  Ge16  1  0.50000000  0.50000000  0.95902000  1.0
  Ge  Ge17  1  0.50863000  0.50000000  0.12848000  1.0
  Pd  Pd18  2  0.74373000  0.25227000  0.11640000  1.0
  Pd  Pd19  2  0.75000000  0.25000000  0.95902000  1.0
  Pd  Pd20  1  0.25000000  0.00000000  0.87707000  1.0
  Pd  Pd21  1  0.25000000  0.50000000  0.87707000  1.0
  Pd  Pd22  1  0.25021000  0.50000000  0.04211000  1.0
  Pd  Pd23  1  0.25400000  0.00000000  0.03941000  1.0
  C  C24  1  0.70366000  0.00000000  0.12334000  1.0
