data_image0
_chemical_formula_structural       Al8Fe16Ni8CO
_chemical_formula_sum              "Al8 Fe16 Ni8 C1 O1"
_cell_length_a       5.78917
_cell_length_b       8.18712
_cell_length_c       26.1403
_cell_angle_alpha    90
_cell_angle_beta     90
_cell_angle_gamma    90

_space_group_name_H-M_alt    "P 1"
_space_group_IT_number       1

loop_
  _space_group_symop_operation_xyz
  'x, y, z'

loop_
  _atom_site_type_symbol
  _atom_site_label
  _atom_site_symmetry_multiplicity
  _atom_site_fract_x
  _atom_site_fract_y
  _atom_site_fract_z
  _atom_site_occupancy
  Al  Al1       1.0  0.00000  0.00000  0.88255  1.0000
  Al  Al2       1.0  0.50000  0.25000  0.96085  1.0000
  Al  Al3       1.0  0.50000  0.75000  0.96085  1.0000
  Al  Al4       1.0  0.00000  0.50000  0.88255  1.0000
  Al  Al5       1.0  1.00000  0.52180  0.03830  1.0000
  Al  Al6       1.0  0.50001  0.75004  0.13934  1.0000
  Al  Al7       1.0  0.49999  0.25000  0.12164  1.0000
  Al  Al8       1.0  0.00000  0.97811  0.03829  1.0000
  Fe  Fe1       1.0  0.25000  0.00000  0.96085  1.0000
  Fe  Fe2       1.0  0.75000  0.50000  0.96085  1.0000
  Fe  Fe3       1.0  0.75000  0.00000  0.96085  1.0000
  Fe  Fe4       1.0  0.25000  0.50000  0.96085  1.0000
  Fe  Fe5       1.0  0.75000  0.75000  0.88255  1.0000
  Fe  Fe6       1.0  0.25000  0.25000  0.88255  1.0000
  Fe  Fe7       1.0  0.25000  0.75000  0.88255  1.0000
  Fe  Fe8       1.0  0.75000  0.25000  0.88255  1.0000
  Fe  Fe9       1.0  0.27180  0.50667  0.11375  1.0000
  Fe  Fe10      1.0  0.72830  0.99339  0.11375  1.0000
  Fe  Fe11      1.0  0.72820  0.50666  0.11375  1.0000
  Fe  Fe12      1.0  0.27171  0.99339  0.11375  1.0000
  Fe  Fe13      1.0  0.78441  0.24993  0.04346  1.0000
  Fe  Fe14      1.0  0.29368  0.74997  0.04655  1.0000
  Fe  Fe15      1.0  0.21559  0.24994  0.04347  1.0000
  Fe  Fe16      1.0  0.70633  0.74997  0.04654  1.0000
  Ni  Ni1       1.0  0.00000  0.75000  0.96085  1.0000
  Ni  Ni2       1.0  0.50000  0.00000  0.88255  1.0000
  Ni  Ni3       1.0  0.00000  0.25000  0.96085  1.0000
  Ni  Ni4       1.0  0.50000  0.50000  0.88255  1.0000
  Ni  Ni5       1.0  0.00001  0.25007  0.12705  1.0000
  Ni  Ni6       1.0  0.50002  0.46990  0.03358  1.0000
  Ni  Ni7       1.0  0.99999  0.75001  0.11312  1.0000
  Ni  Ni8       1.0  0.50001  0.03003  0.03358  1.0000
  C   C1        1.0  0.99999  0.25013  0.19477  1.0000
  O   O1        1.0  0.99999  0.25008  0.23898  1.0000
