# generated using pymatgen
data_Al8Fe16Ni8CO
_symmetry_space_group_name_H-M   'P 1'
_cell_length_a   8.18712000
_cell_length_b   5.78917000
_cell_length_c   26.14030000
_cell_angle_alpha   90.00000000
_cell_angle_beta   90.00000000
_cell_angle_gamma   90.00000000
_symmetry_Int_Tables_number   1
_chemical_formula_structural   Al8Fe16Ni8CO
_chemical_formula_sum   'Al8 Fe16 Ni8 C1 O1'
_cell_volume   1238.96211387
_cell_formula_units_Z   1
loop_
 _symmetry_equiv_pos_site_id
 _symmetry_equiv_pos_as_xyz
  1  'x, y, z'
loop_
 _atom_site_type_symbol
 _atom_site_label
 _atom_site_symmetry_multiplicity
 _atom_site_fract_x
 _atom_site_fract_y
 _atom_site_fract_z
 _atom_site_occupancy
  Al  Al0  1  0.00000000  0.00000000  0.11745000  1.0
  Al  Al1  1  0.25000000  0.50000000  0.03915000  1.0
  Al  Al2  1  0.75000000  0.50000000  0.03915000  1.0
  Al  Al3  1  0.50000000  0.00000000  0.11745000  1.0
  Al  Al4  1  0.52180000  0.00000000  0.96170000  1.0
  Al  Al5  1  0.75004000  0.50000000  0.86066000  1.0
  Al  Al6  1  0.25000000  0.50000000  0.87836000  1.0
  Al  Al7  1  0.97811000  0.00000000  0.96171000  1.0
  Fe  Fe8  1  0.00000000  0.74999000  0.03915000  1.0
  Fe  Fe9  1  0.50000000  0.24999000  0.03915000  1.0
  Fe  Fe10  1  0.00000000  0.25001000  0.03915000  1.0
  Fe  Fe11  1  0.50000000  0.75001000  0.03915000  1.0
  Fe  Fe12  1  0.75000000  0.24999000  0.11745000  1.0
  Fe  Fe13  1  0.25000000  0.74999000  0.11745000  1.0
  Fe  Fe14  1  0.75000000  0.75001000  0.11745000  1.0
  Fe  Fe15  1  0.25000000  0.25001000  0.11745000  1.0
  Fe  Fe16  1  0.50667000  0.72819000  0.88625000  1.0
  Fe  Fe17  1  0.99339000  0.27169000  0.88625000  1.0
  Fe  Fe18  1  0.50667000  0.27181000  0.88625000  1.0
  Fe  Fe19  1  0.99339000  0.72831000  0.88625000  1.0
  Fe  Fe20  1  0.24993000  0.21558000  0.95654000  1.0
  Fe  Fe21  1  0.74997000  0.70631000  0.95345000  1.0
  Fe  Fe22  1  0.24993000  0.78442000  0.95654000  1.0
  Fe  Fe23  1  0.74997000  0.29369000  0.95345000  1.0
  Ni  Ni24  1  0.75000000  0.00000000  0.03915000  1.0
  Ni  Ni25  1  0.00000000  0.50000000  0.11745000  1.0
  Ni  Ni26  1  0.25000000  0.00000000  0.03915000  1.0
  Ni  Ni27  1  0.50000000  0.50000000  0.11745000  1.0
  Ni  Ni28  1  0.25007000  0.00000000  0.87295000  1.0
  Ni  Ni29  1  0.46990000  0.50000000  0.96642000  1.0
  Ni  Ni30  1  0.75001000  0.00000000  0.88688000  1.0
  Ni  Ni31  1  0.03003000  0.50000000  0.96642000  1.0
  C  C32  1  0.25013000  0.00000000  0.80523000  1.0
  O  O33  1  0.25008000  0.00000000  0.76102000  1.0
