# generated using pymatgen
data_Zr8Al8Ni16C
_symmetry_space_group_name_H-M   'P 1'
_cell_length_a   8.69561000
_cell_length_b   6.14873000
_cell_length_c   26.52170000
_cell_angle_alpha   90.00000000
_cell_angle_beta   90.00000000
_cell_angle_gamma   90.00000000
_symmetry_Int_Tables_number   1
_chemical_formula_structural   Zr8Al8Ni16C
_chemical_formula_sum   'Zr8 Al8 Ni16 C1'
_cell_volume   1418.03462199
_cell_formula_units_Z   1
loop_
 _symmetry_equiv_pos_site_id
 _symmetry_equiv_pos_as_xyz
  1  'x, y, z'
loop_
 _atom_site_type_symbol
 _atom_site_label
 _atom_site_symmetry_multiplicity
 _atom_site_fract_x
 _atom_site_fract_y
 _atom_site_fract_z
 _atom_site_occupancy
  Zr  Zr0  1  0.74999000  0.00000000  0.12295000  1.0
  Zr  Zr1  1  0.00000000  0.50000000  0.04098000  1.0
  Zr  Zr2  1  0.50000000  0.50000000  0.04098000  1.0
  Zr  Zr3  1  0.25001000  0.00000000  0.12295000  1.0
  Zr  Zr4  1  0.25370000  0.00622000  0.96166000  1.0
  Zr  Zr5  1  0.50000000  0.49546000  0.87305000  1.0
  Zr  Zr6  1  0.00000000  0.56407000  0.85779000  1.0
  Zr  Zr7  1  0.74630000  0.00622000  0.96166000  1.0
  Al  Al8  1  0.50000000  1.00000000  0.04098000  1.0
  Al  Al9  1  0.74999000  0.50000000  0.12295000  1.0
  Al  Al10  1  0.00000000  0.00000000  0.04098000  1.0
  Al  Al11  1  0.25001000  0.50000000  0.12295000  1.0
  Al  Al12  1  0.00000000  0.96315000  0.88954000  1.0
  Al  Al13  1  0.24830000  0.50285000  0.95606000  1.0
  Al  Al14  1  0.50000000  0.00457000  0.88036000  1.0
  Al  Al15  1  0.75170000  0.50285000  0.95606000  1.0
  Ni  Ni16  1  0.74999000  0.25000000  0.04098000  1.0
  Ni  Ni17  1  0.24999000  0.75000000  0.04098000  1.0
  Ni  Ni18  1  0.75001000  0.75000000  0.04098000  1.0
  Ni  Ni19  1  0.25001000  0.25000000  0.04098000  1.0
  Ni  Ni20  1  0.50000000  0.75000000  0.12295000  1.0
  Ni  Ni21  1  0.00000000  0.25000000  0.12295000  1.0
  Ni  Ni22  1  0.50000000  0.25000000  0.12295000  1.0
  Ni  Ni23  1  0.00000000  0.75000000  0.12295000  1.0
  Ni  Ni24  1  0.23229000  0.22863000  0.87874000  1.0
  Ni  Ni25  1  0.73909000  0.76278000  0.88410000  1.0
  Ni  Ni26  1  0.26091000  0.76278000  0.88410000  1.0
  Ni  Ni27  1  0.76771000  0.22863000  0.87874000  1.0
  Ni  Ni28  1  0.00000000  0.72895000  0.95913000  1.0
  Ni  Ni29  1  0.50000000  0.27960000  0.95650000  1.0
  Ni  Ni30  1  0.00000000  0.29154000  0.94422000  1.0
  Ni  Ni31  1  0.50000000  0.73262000  0.95592000  1.0
  C  C32  1  0.00000000  0.24500000  0.86417000  1.0
