# generated using pymatgen
data_Zr8Al8Ni16C
_symmetry_space_group_name_H-M   Pm
_cell_length_a   6.14873000
_cell_length_b   8.69561000
_cell_length_c   26.52170000
_cell_angle_alpha   90.00000000
_cell_angle_beta   90.00000000
_cell_angle_gamma   90.00000000
_symmetry_Int_Tables_number   6
_chemical_formula_structural   Zr8Al8Ni16C
_chemical_formula_sum   'Zr8 Al8 Ni16 C1'
_cell_volume   1418.03462199
_cell_formula_units_Z   1
loop_
 _symmetry_equiv_pos_site_id
 _symmetry_equiv_pos_as_xyz
  1  'x, y, z'
  2  'x, -y, z'
loop_
 _atom_site_type_symbol
 _atom_site_label
 _atom_site_symmetry_multiplicity
 _atom_site_fract_x
 _atom_site_fract_y
 _atom_site_fract_z
 _atom_site_occupancy
  Zr  Zr0  2  0.00000000  0.25001000  0.87705000  1.0
  Zr  Zr1  2  0.00622000  0.25370000  0.03834000  1.0
  Zr  Zr2  1  0.49546000  0.50000000  0.12695000  1.0
  Zr  Zr3  1  0.50000000  0.00000000  0.95902000  1.0
  Zr  Zr4  1  0.50000000  0.50000000  0.95902000  1.0
  Zr  Zr5  1  0.56407000  0.00000000  0.14221000  1.0
  Al  Al6  2  0.50000000  0.25001000  0.87705000  1.0
  Al  Al7  2  0.50285000  0.24830000  0.04394000  1.0
  Al  Al8  1  -0.00000000  0.50000000  0.95902000  1.0
  Al  Al9  1  0.00000000  0.00000000  0.95902000  1.0
  Al  Al10  1  0.00457000  0.50000000  0.11964000  1.0
  Al  Al11  1  0.96315000  0.00000000  0.11046000  1.0
  Ni  Ni12  2  0.22863000  0.23229000  0.12126000  1.0
  Ni  Ni13  2  0.25000000  0.25001000  0.95902000  1.0
  Ni  Ni14  2  0.75000000  0.24999000  0.95902000  1.0
  Ni  Ni15  2  0.76278000  0.26091000  0.11590000  1.0
  Ni  Ni16  1  0.25000000  0.00000000  0.87705000  1.0
  Ni  Ni17  1  0.25000000  0.50000000  0.87705000  1.0
  Ni  Ni18  1  0.27960000  0.50000000  0.04350000  1.0
  Ni  Ni19  1  0.29154000  0.00000000  0.05578000  1.0
  Ni  Ni20  1  0.72895000  0.00000000  0.04087000  1.0
  Ni  Ni21  1  0.73262000  0.50000000  0.04408000  1.0
  Ni  Ni22  1  0.75000000  0.00000000  0.87705000  1.0
  Ni  Ni23  1  0.75000000  0.50000000  0.87705000  1.0
  C  C24  1  0.24500000  0.00000000  0.13583000  1.0
