# generated using pymatgen
data_Li8Y8Sn8Pb8CO
_symmetry_space_group_name_H-M   Pmm2
_cell_length_a   9.36828000
_cell_length_b   9.64462000
_cell_length_c   26.65380000
_cell_angle_alpha   90.00000000
_cell_angle_beta   90.00000000
_cell_angle_gamma   90.00000000
_symmetry_Int_Tables_number   25
_chemical_formula_structural   Li8Y8Sn8Pb8CO
_chemical_formula_sum   'Li8 Y8 Sn8 Pb8 C1 O1'
_cell_volume   2408.26413572
_cell_formula_units_Z   1
loop_
 _symmetry_equiv_pos_site_id
 _symmetry_equiv_pos_as_xyz
  1  'x, y, z'
  2  '-x, -y, z'
  3  '-x, y, z'
  4  'x, -y, z'
loop_
 _atom_site_type_symbol
 _atom_site_label
 _atom_site_symmetry_multiplicity
 _atom_site_fract_x
 _atom_site_fract_y
 _atom_site_fract_z
 _atom_site_occupancy
  Li  Li0  2  0.00000000  0.25001000  0.87518000  1.0
  Li  Li1  2  0.00000000  0.25586000  0.05039000  1.0
  Li  Li2  2  0.50000000  0.25001000  0.87518000  1.0
  Li  Li3  2  0.50000000  0.25145000  0.05081000  1.0
  Y  Y4  2  0.24897000  0.50000000  0.03884000  1.0
  Y  Y5  2  0.25000000  0.00000000  0.87518000  1.0
  Y  Y6  2  0.25000000  0.50000000  0.87518000  1.0
  Y  Y7  2  0.25837000  0.00000000  0.03992000  1.0
  Sn  Sn8  1  0.00000000  0.00000000  0.11165000  1.0
  Sn  Sn9  1  0.00000000  0.00000000  0.95839000  1.0
  Sn  Sn10  1  0.00000000  0.50000000  0.12067000  1.0
  Sn  Sn11  1  0.00000000  0.50000000  0.95839000  1.0
  Sn  Sn12  1  0.50000000  0.00000000  0.12285000  1.0
  Sn  Sn13  1  0.50000000  0.00000000  0.95839000  1.0
  Sn  Sn14  1  0.50000000  0.50000000  0.11831000  1.0
  Sn  Sn15  1  0.50000000  0.50000000  0.95839000  1.0
  Pb  Pb16  4  0.25000000  0.25001000  0.95839000  1.0
  Pb  Pb17  4  0.25945000  0.26150000  0.14241000  1.0
  C  C18  1  0.00000000  0.00000000  0.19543000  1.0
  O  O19  1  0.00000000  0.00000000  0.23864000  1.0
