# generated using pymatgen
data_Sc8Ga8Cu8Pd8CO
_symmetry_space_group_name_H-M   P1
_cell_length_a   6.33027000
_cell_length_b   8.95236000
_cell_length_c   26.71430000
_cell_angle_alpha   90.00000000
_cell_angle_beta   90.00000000
_cell_angle_gamma   90.00000000
_symmetry_Int_Tables_number   1
_chemical_formula_structural   Sc8Ga8Cu8Pd8CO
_chemical_formula_sum   'Sc8 Ga8 Cu8 Pd8 C1 O1'
_cell_volume   1513.92224676
_cell_formula_units_Z   1
loop_
 _symmetry_equiv_pos_site_id
 _symmetry_equiv_pos_as_xyz
  1  'x, y, z'
loop_
 _atom_site_type_symbol
 _atom_site_label
 _atom_site_symmetry_multiplicity
 _atom_site_fract_x
 _atom_site_fract_y
 _atom_site_fract_z
 _atom_site_occupancy
  Sc  Sc0  1  0.24425000  0.24816000  0.04098000  1.0
  Sc  Sc1  1  0.24432000  0.75174000  0.04104000  1.0
  Sc  Sc2  1  0.25000000  0.25000000  0.87433000  1.0
  Sc  Sc3  1  0.25000000  0.75000000  0.87433000  1.0
  Sc  Sc4  1  0.72803000  0.00011000  0.13613000  1.0
  Sc  Sc5  1  0.74382000  0.50017000  0.13106000  1.0
  Sc  Sc6  1  0.75000000  0.00000000  0.95811000  1.0
  Sc  Sc7  1  0.75000000  0.50000000  0.95811000  1.0
  Ga  Ga8  1  0.22668000  0.00011000  0.12229000  1.0
  Ga  Ga9  1  0.24530000  0.50015000  0.12489000  1.0
  Ga  Ga10  1  0.25000000  0.00000000  0.95811000  1.0
  Ga  Ga11  1  0.25000000  0.50000000  0.95811000  1.0
  Ga  Ga12  1  0.74708000  0.25060000  0.04446000  1.0
  Ga  Ga13  1  0.74709000  0.74922000  0.04451000  1.0
  Ga  Ga14  1  0.75000000  0.25000000  0.87433000  1.0
  Ga  Ga15  1  0.75000000  0.75000000  0.87433000  1.0
  Cu  Cu16  1  0.00000000  0.00000000  0.87433000  1.0
  Cu  Cu17  1  0.00000000  0.50000000  0.87433000  1.0
  Cu  Cu18  1  0.47982000  0.74679000  0.12550000  1.0
  Cu  Cu19  1  0.48010000  0.25349000  0.12547000  1.0
  Cu  Cu20  1  0.50000000  0.25000000  0.95811000  1.0
  Cu  Cu21  1  0.50000000  0.75000000  0.95811000  1.0
  Cu  Cu22  1  0.96928000  0.99991000  0.04628000  1.0
  Cu  Cu23  1  0.98204000  0.49994000  0.04557000  1.0
  Pd  Pd24  1  0.00000000  0.25000000  0.95811000  1.0
  Pd  Pd25  1  0.00000000  0.75000000  0.95811000  1.0
  Pd  Pd26  1  0.00353000  0.25215000  0.12406000  1.0
  Pd  Pd27  1  0.00370000  0.74808000  0.12408000  1.0
  Pd  Pd28  1  0.50000000  0.00000000  0.87433000  1.0
  Pd  Pd29  1  0.50000000  0.50000000  0.87433000  1.0
  Pd  Pd30  1  0.50601000  0.50001000  0.04333000  1.0
  Pd  Pd31  1  0.51244000  0.99991000  0.04510000  1.0
  C  C32  1  0.49358000  0.99996000  0.20237000  1.0
  O  O33  1  0.37403000  0.99995000  0.23525000  1.0
