data_image0
_chemical_formula_structural       Li4Mg4Ag4Sn4
_chemical_formula_sum              "Li4 Mg4 Ag4 Sn4"
_cell_length_a       6.75899
_cell_length_b       6.75899
_cell_length_c       25.0692
_cell_angle_alpha    90
_cell_angle_beta     90
_cell_angle_gamma    90

_space_group_name_H-M_alt    "P 1"
_space_group_IT_number       1

loop_
  _space_group_symop_operation_xyz
  'x, y, z'

loop_
  _atom_site_type_symbol
  _atom_site_label
  _atom_site_symmetry_multiplicity
  _atom_site_fract_x
  _atom_site_fract_y
  _atom_site_fract_z
  _atom_site_occupancy
  Li  Li1       1.0  0.75000  0.25000  0.96630  1.0000
  Li  Li2       1.0  0.74924  0.74927  0.10273  1.0000
  Li  Li3       1.0  0.25066  0.25073  0.10269  1.0000
  Li  Li4       1.0  0.25000  0.75000  0.96630  1.0000
  Mg  Mg1       1.0  0.25000  0.25000  0.96630  1.0000
  Mg  Mg2       1.0  0.25082  0.74916  0.10479  1.0000
  Mg  Mg3       1.0  0.74912  0.25088  0.10483  1.0000
  Mg  Mg4       1.0  0.75000  0.75000  0.96630  1.0000
  Ag  Ag1       1.0  0.00000  0.00000  0.89890  1.0000
  Ag  Ag2       1.0  0.99990  0.49975  0.03205  1.0000
  Ag  Ag3       1.0  0.50027  0.00001  0.03208  1.0000
  Ag  Ag4       1.0  0.50000  0.50000  0.89890  1.0000
  Sn  Sn1       1.0  0.00000  0.50000  0.89890  1.0000
  Sn  Sn2       1.0  0.99957  0.00012  0.04328  1.0000
  Sn  Sn3       1.0  0.50029  0.49979  0.04249  1.0000
  Sn  Sn4       1.0  0.50000  0.00000  0.89890  1.0000
