# generated using pymatgen
data_LiMgAgSn
_symmetry_space_group_name_H-M   'P 1'
_cell_length_a   6.75899000
_cell_length_b   6.75899000
_cell_length_c   25.06920000
_cell_angle_alpha   90.00000000
_cell_angle_beta   90.00000000
_cell_angle_gamma   90.00000000
_symmetry_Int_Tables_number   1
_chemical_formula_structural   LiMgAgSn
_chemical_formula_sum   'Li4 Mg4 Ag4 Sn4'
_cell_volume   1145.25997455
_cell_formula_units_Z   4
loop_
 _symmetry_equiv_pos_site_id
 _symmetry_equiv_pos_as_xyz
  1  'x, y, z'
loop_
 _atom_site_type_symbol
 _atom_site_label
 _atom_site_symmetry_multiplicity
 _atom_site_fract_x
 _atom_site_fract_y
 _atom_site_fract_z
 _atom_site_occupancy
  Li  Li0  1  0.75000000  0.25000000  0.96630000  1.0
  Li  Li1  1  0.74924000  0.74927000  0.10273000  1.0
  Li  Li2  1  0.25066000  0.25073000  0.10269000  1.0
  Li  Li3  1  0.25000000  0.75000000  0.96630000  1.0
  Mg  Mg4  1  0.25000000  0.25000000  0.96630000  1.0
  Mg  Mg5  1  0.25082000  0.74916000  0.10479000  1.0
  Mg  Mg6  1  0.74912000  0.25088000  0.10483000  1.0
  Mg  Mg7  1  0.75000000  0.75000000  0.96630000  1.0
  Ag  Ag8  1  0.00000000  0.00000000  0.89890000  1.0
  Ag  Ag9  1  0.99990000  0.49975000  0.03205000  1.0
  Ag  Ag10  1  0.50027000  0.00001000  0.03208000  1.0
  Ag  Ag11  1  0.50000000  0.50000000  0.89890000  1.0
  Sn  Sn12  1  0.00000000  0.50000000  0.89890000  1.0
  Sn  Sn13  1  0.99957000  0.00012000  0.04328000  1.0
  Sn  Sn14  1  0.50029000  0.49979000  0.04249000  1.0
  Sn  Sn15  1  0.50000000  0.00000000  0.89890000  1.0
