# generated using pymatgen
data_ScAl
_symmetry_space_group_name_H-M   'P 1'
_cell_length_a   4.77571500
_cell_length_b   6.75388000
_cell_length_c   27.16360000
_cell_angle_alpha   90.00000000
_cell_angle_beta   90.00000000
_cell_angle_gamma   90.00000000
_symmetry_Int_Tables_number   1
_chemical_formula_structural   ScAl
_chemical_formula_sum   'Sc8 Al8'
_cell_volume   876.15121620
_cell_formula_units_Z   8
loop_
 _symmetry_equiv_pos_site_id
 _symmetry_equiv_pos_as_xyz
  1  'x, y, z'
loop_
 _atom_site_type_symbol
 _atom_site_label
 _atom_site_symmetry_multiplicity
 _atom_site_fract_x
 _atom_site_fract_y
 _atom_site_fract_z
 _atom_site_occupancy
  Sc  Sc0  1  0.50000000  0.75000000  0.13186000  1.0
  Sc  Sc1  1  0.00000000  0.75000000  0.04395000  1.0
  Sc  Sc2  1  0.50000000  0.75008000  0.95810500  1.0
  Sc  Sc3  1  0.00000000  0.75010500  0.86392500  1.0
  Sc  Sc4  1  0.50000000  0.25000000  0.13186000  1.0
  Sc  Sc5  1  0.00000000  0.25000000  0.04395000  1.0
  Sc  Sc6  1  0.50000000  0.24992000  0.95810500  1.0
  Sc  Sc7  1  0.00000000  0.24989500  0.86392500  1.0
  Al  Al8  1  0.00000000  0.00000000  0.13186000  1.0
  Al  Al9  1  0.50000000  0.00000000  0.04395000  1.0
  Al  Al10  1  0.00000000  0.00000000  0.95248500  1.0
  Al  Al11  1  0.50000000  0.00000000  0.86960500  1.0
  Al  Al12  1  0.00000000  0.50000000  0.13186000  1.0
  Al  Al13  1  0.50000000  0.50000000  0.04395000  1.0
  Al  Al14  1  0.00000000  0.50000000  0.95246500  1.0
  Al  Al15  1  0.50000000  0.50000000  0.86965000  1.0
