# generated using pymatgen
data_ScAl
_symmetry_space_group_name_H-M   Pmm2
_cell_length_a   4.77571500
_cell_length_b   6.75388000
_cell_length_c   27.16360000
_cell_angle_alpha   90.00000000
_cell_angle_beta   90.00000000
_cell_angle_gamma   90.00000000
_symmetry_Int_Tables_number   25
_chemical_formula_structural   ScAl
_chemical_formula_sum   'Sc8 Al8'
_cell_volume   876.15121620
_cell_formula_units_Z   8
loop_
 _symmetry_equiv_pos_site_id
 _symmetry_equiv_pos_as_xyz
  1  'x, y, z'
  2  '-x, -y, z'
  3  '-x, y, z'
  4  'x, -y, z'
loop_
 _atom_site_type_symbol
 _atom_site_label
 _atom_site_symmetry_multiplicity
 _atom_site_fract_x
 _atom_site_fract_y
 _atom_site_fract_z
 _atom_site_occupancy
  Sc  Sc0  2  0.00000000  0.24989500  0.86392500  1.0
  Sc  Sc1  2  0.00000000  0.25000000  0.04395000  1.0
  Sc  Sc2  2  0.50000000  0.24992000  0.95810500  1.0
  Sc  Sc3  2  0.50000000  0.25000000  0.13186000  1.0
  Al  Al4  1  0.00000000  0.00000000  0.13186000  1.0
  Al  Al5  1  0.00000000  0.00000000  0.95248500  1.0
  Al  Al6  1  0.00000000  0.50000000  0.13186000  1.0
  Al  Al7  1  0.00000000  0.50000000  0.95246500  1.0
  Al  Al8  1  0.50000000  0.00000000  0.04395000  1.0
  Al  Al9  1  0.50000000  0.00000000  0.86960500  1.0
  Al  Al10  1  0.50000000  0.50000000  0.04395000  1.0
  Al  Al11  1  0.50000000  0.50000000  0.86965000  1.0
