# generated using pymatgen
data_Li16Ge8Au8CO
_symmetry_space_group_name_H-M   P1
_cell_length_a   6.30953000
_cell_length_b   8.92302000
_cell_length_c   26.69230000
_cell_angle_alpha   90.00000000
_cell_angle_beta   90.00000000
_cell_angle_gamma   90.00000000
_symmetry_Int_Tables_number   1
_chemical_formula_structural   Li16Ge8Au8CO
_chemical_formula_sum   'Li16 Ge8 Au8 C1 O1'
_cell_volume   1502.77815508
_cell_formula_units_Z   1
loop_
 _symmetry_equiv_pos_site_id
 _symmetry_equiv_pos_as_xyz
  1  'x, y, z'
loop_
 _atom_site_type_symbol
 _atom_site_label
 _atom_site_symmetry_multiplicity
 _atom_site_fract_x
 _atom_site_fract_y
 _atom_site_fract_z
 _atom_site_occupancy
  Li  Li0  1  0.00000000  0.25000000  0.95821000  1.0
  Li  Li1  1  0.00000000  0.75000000  0.95821000  1.0
  Li  Li2  1  0.02965000  0.24433000  0.12678000  1.0
  Li  Li3  1  0.02966000  0.75557000  0.12677000  1.0
  Li  Li4  1  0.25000000  0.25000000  0.87464000  1.0
  Li  Li5  1  0.25000000  0.75000000  0.87464000  1.0
  Li  Li6  1  0.26020000  0.24720000  0.04354000  1.0
  Li  Li7  1  0.26020000  0.75268000  0.04355000  1.0
  Li  Li8  1  0.50000000  0.00000000  0.87464000  1.0
  Li  Li9  1  0.50000000  0.50000000  0.87464000  1.0
  Li  Li10  1  0.51329000  0.49990000  0.03637000  1.0
  Li  Li11  1  0.52929000  0.99992000  0.03701000  1.0
  Li  Li12  1  0.72634000  0.00005000  0.13617000  1.0
  Li  Li13  1  0.73353000  0.49988000  0.12468000  1.0
  Li  Li14  1  0.75000000  0.00000000  0.95821000  1.0
  Li  Li15  1  0.75000000  0.50000000  0.95821000  1.0
  Ge  Ge16  1  0.00000000  0.00000000  0.87464000  1.0
  Ge  Ge17  1  0.00000000  0.50000000  0.87464000  1.0
  Ge  Ge18  1  0.00043000  0.49998000  0.04394000  1.0
  Ge  Ge19  1  0.50000000  0.25000000  0.95821000  1.0
  Ge  Ge20  1  0.50000000  0.75000000  0.95821000  1.0
  Ge  Ge21  1  0.50500000  0.25201000  0.13137000  1.0
  Ge  Ge22  1  0.50513000  0.74789000  0.13138000  1.0
  Ge  Ge23  1  0.99746000  0.99993000  0.04495000  1.0
  Au  Au24  1  0.25000000  0.00000000  0.95821000  1.0
  Au  Au25  1  0.25000000  0.50000000  0.95821000  1.0
  Au  Au26  1  0.28186000  0.50006000  0.11682000  1.0
  Au  Au27  1  0.29729000  0.99993000  0.11531000  1.0
  Au  Au28  1  0.75000000  0.25000000  0.87464000  1.0
  Au  Au29  1  0.75000000  0.75000000  0.87464000  1.0
  Au  Au30  1  0.75066000  0.74803000  0.04712000  1.0
  Au  Au31  1  0.75074000  0.25176000  0.04715000  1.0
  C  C32  1  0.91964000  0.00067000  0.19993000  1.0
  O  O33  1  0.00385000  0.00045000  0.23792000  1.0
