# generated using pymatgen
data_Y4In4Ag4Pd4CO
_symmetry_space_group_name_H-M   Cmm2
_cell_length_a   9.79573409
_cell_length_b   9.79573409
_cell_length_c   25.19500000
_cell_angle_alpha   90.00000000
_cell_angle_beta   90.00000000
_cell_angle_gamma   90.00000000
_symmetry_Int_Tables_number   35
_chemical_formula_structural   Y4In4Ag4Pd4CO
_chemical_formula_sum   'Y8 In8 Ag8 Pd8 C2 O2'
_cell_volume   2417.62165708
_cell_formula_units_Z   2
loop_
 _symmetry_equiv_pos_site_id
 _symmetry_equiv_pos_as_xyz
  1  'x, y, z'
  2  '-x, -y, z'
  3  '-x, y, z'
  4  'x, -y, z'
  5  'x+1/2, y+1/2, z'
  6  '-x+1/2, -y+1/2, z'
  7  '-x+1/2, y+1/2, z'
  8  'x+1/2, -y+1/2, z'
loop_
 _atom_site_type_symbol
 _atom_site_label
 _atom_site_symmetry_multiplicity
 _atom_site_fract_x
 _atom_site_fract_y
 _atom_site_fract_z
 _atom_site_occupancy
  Y  Y0  4  0.00000000  0.25000000  0.89690000  1.0
  Y  Y1  4  0.25000000  0.00000000  0.03437000  1.0
  In  In2  4  0.00000000  0.25000000  0.03437000  1.0
  In  In3  4  0.25000000  0.00000000  0.89690000  1.0
  Ag  Ag4  4  0.25000000  0.25000000  0.96563000  1.0
  Ag  Ag5  2  0.00000000  0.00000000  0.10310000  1.0
  Ag  Ag6  2  0.00000000  0.50000000  0.10310000  1.0
  Pd  Pd7  4  0.25000000  0.25000000  0.10310000  1.0
  Pd  Pd8  2  0.00000000  0.00000000  0.96563000  1.0
  Pd  Pd9  2  0.00000000  0.50000000  0.96563000  1.0
  C  C10  2  0.00000000  0.00000000  0.17851000  1.0
  O  O11  2  0.00000000  0.00000000  0.22415000  1.0
