# generated using pymatgen
data_Li8In8Ga8Pd8CO
_symmetry_space_group_name_H-M   Pm
_cell_length_a   6.46680000
_cell_length_b   9.14544000
_cell_length_c   26.85910000
_cell_angle_alpha   90.00000000
_cell_angle_beta   90.00000000
_cell_angle_gamma   90.00000000
_symmetry_Int_Tables_number   6
_chemical_formula_structural   Li8In8Ga8Pd8CO
_chemical_formula_sum   'Li8 In8 Ga8 Pd8 C1 O1'
_cell_volume   1588.49367763
_cell_formula_units_Z   1
loop_
 _symmetry_equiv_pos_site_id
 _symmetry_equiv_pos_as_xyz
  1  'x, y, z'
  2  'x, -y, z'
loop_
 _atom_site_type_symbol
 _atom_site_label
 _atom_site_symmetry_multiplicity
 _atom_site_fract_x
 _atom_site_fract_y
 _atom_site_fract_z
 _atom_site_occupancy
  Li  Li0  2  0.21363000  0.25293000  0.04866000  1.0
  Li  Li1  2  0.25000000  0.25000000  0.87231000  1.0
  Li  Li2  1  0.65158000  0.50000000  0.17491000  1.0
  Li  Li3  1  0.69033000  0.00000000  0.15020000  1.0
  Li  Li4  1  0.75000000  0.00000000  0.95744000  1.0
  Li  Li5  1  0.75000000  0.50000000  0.95744000  1.0
  In  In6  2  0.00000000  0.25000000  0.95744000  1.0
  In  In7  2  0.94920000  0.26699000  0.14027000  1.0
  In  In8  1  0.47988000  0.00000000  0.04992000  1.0
  In  In9  1  0.50000000  0.00000000  0.87231000  1.0
  In  In10  1  0.50000000  0.50000000  0.87231000  1.0
  In  In11  1  0.50361000  0.50000000  0.04519000  1.0
  Ga  Ga12  2  0.48191000  0.26135000  0.12939000  1.0
  Ga  Ga13  2  0.50000000  0.25000000  0.95744000  1.0
  Ga  Ga14  1  -0.00000000  0.50000000  0.87231000  1.0
  Ga  Ga15  1  0.00000000  0.00000000  0.87231000  1.0
  Ga  Ga16  1  0.96322000  0.00000000  0.05743000  1.0
  Ga  Ga17  1  0.96541000  0.50000000  0.04930000  1.0
  Pd  Pd18  2  0.74360000  0.24338000  0.03880000  1.0
  Pd  Pd19  2  0.75000000  0.25000000  0.87231000  1.0
  Pd  Pd20  1  0.22082000  0.00000000  0.13618000  1.0
  Pd  Pd21  1  0.23542000  0.50000000  0.12341000  1.0
  Pd  Pd22  1  0.25000000  0.00000000  0.95744000  1.0
  Pd  Pd23  1  0.25000000  0.50000000  0.95744000  1.0
  C  C24  1  0.25696000  0.00000000  0.20877000  1.0
  O  O25  1  0.27897000  0.00000000  0.25144000  1.0
