# generated using pymatgen
data_Li8Y8Ge8Pd8C
_symmetry_space_group_name_H-M   Pm
_cell_length_a   6.55453000
_cell_length_b   9.26950000
_cell_length_c   26.95210000
_cell_angle_alpha   90.00000000
_cell_angle_beta   90.00000000
_cell_angle_gamma   90.00000000
_symmetry_Int_Tables_number   6
_chemical_formula_structural   Li8Y8Ge8Pd8C
_chemical_formula_sum   'Li8 Y8 Ge8 Pd8 C1'
_cell_volume   1637.53455691
_cell_formula_units_Z   1
loop_
 _symmetry_equiv_pos_site_id
 _symmetry_equiv_pos_as_xyz
  1  'x, y, z'
  2  'x, -y, z'
loop_
 _atom_site_type_symbol
 _atom_site_label
 _atom_site_symmetry_multiplicity
 _atom_site_fract_x
 _atom_site_fract_y
 _atom_site_fract_z
 _atom_site_occupancy
  Li  Li0  2  0.21327000  0.25224000  0.05316000  1.0
  Li  Li1  2  0.25000000  0.24998000  0.87103000  1.0
  Li  Li2  1  0.53229000  0.00000000  0.18667000  1.0
  Li  Li3  1  0.65598000  0.50000000  0.17589000  1.0
  Li  Li4  1  0.75000000  0.00000000  0.95701000  1.0
  Li  Li5  1  0.75000000  0.50000000  0.95701000  1.0
  Y  Y6  2  -0.00000000  0.24998000  0.95701000  1.0
  Y  Y7  2  0.92054000  0.21002000  0.13785000  1.0
  Y  Y8  1  0.50000000  0.00000000  0.87103000  1.0
  Y  Y9  1  0.50000000  0.50000000  0.87103000  1.0
  Y  Y10  1  0.50124000  0.00000000  0.04727000  1.0
  Y  Y11  1  0.50670000  0.50000000  0.04712000  1.0
  Ge  Ge12  2  0.47134000  0.27514000  0.13362000  1.0
  Ge  Ge13  2  0.50000000  0.25002000  0.95701000  1.0
  Ge  Ge14  1  0.00000000  0.50000000  0.87103000  1.0
  Ge  Ge15  1  0.00000000  0.00000000  0.87103000  1.0
  Ge  Ge16  1  0.97805000  0.50000000  0.03800000  1.0
  Ge  Ge17  1  0.99374000  0.00000000  0.04175000  1.0
  Pd  Pd18  2  0.75000000  0.24998000  0.87103000  1.0
  Pd  Pd19  2  0.75357000  0.24721000  0.04249000  1.0
  Pd  Pd20  1  0.09424000  0.50000000  0.12695000  1.0
  Pd  Pd21  1  0.23033000  0.00000000  0.12628000  1.0
  Pd  Pd22  1  0.25000000  0.00000000  0.95701000  1.0
  Pd  Pd23  1  0.25000000  0.50000000  0.95701000  1.0
  C  C24  1  0.39726000  0.50000000  0.13132000  1.0
