data_image0
_chemical_formula_structural       Mg4In4Ni8CO
_chemical_formula_sum              "Mg4 In4 Ni8 C1 O1"
_cell_length_a       6.23499
_cell_length_b       6.23499
_cell_length_c       24.6762
_cell_angle_alpha    90
_cell_angle_beta     90
_cell_angle_gamma    90

_space_group_name_H-M_alt    "P 1"
_space_group_IT_number       1

loop_
  _space_group_symop_operation_xyz
  'x, y, z'

loop_
  _atom_site_type_symbol
  _atom_site_label
  _atom_site_symmetry_multiplicity
  _atom_site_fract_x
  _atom_site_fract_y
  _atom_site_fract_z
  _atom_site_occupancy
  Mg  Mg1       1.0  0.00000  0.00000  0.90525  1.0000
  Mg  Mg2       1.0  0.50000  0.50000  0.90525  1.0000
  Mg  Mg3       1.0  0.50122  0.99764  0.03308  1.0000
  Mg  Mg4       1.0  0.99766  0.50122  0.03304  1.0000
  In  In1       1.0  0.99874  0.99877  0.03303  1.0000
  In  In2       1.0  0.50000  0.00000  0.90525  1.0000
  In  In3       1.0  0.00000  0.50000  0.90525  1.0000
  In  In4       1.0  0.50118  0.50111  0.03273  1.0000
  Ni  Ni1       1.0  0.25000  0.25000  0.96842  1.0000
  Ni  Ni2       1.0  0.74965  0.74940  0.09013  1.0000
  Ni  Ni3       1.0  0.75000  0.25000  0.96842  1.0000
  Ni  Ni4       1.0  0.24986  0.74859  0.08947  1.0000
  Ni  Ni5       1.0  0.75000  0.75000  0.96842  1.0000
  Ni  Ni6       1.0  0.25068  0.25090  0.09202  1.0000
  Ni  Ni7       1.0  0.25000  0.75000  0.96842  1.0000
  Ni  Ni8       1.0  0.74882  0.25013  0.08947  1.0000
  C   C1        1.0  0.24901  0.24905  0.16359  1.0000
  O   O1        1.0  0.24848  0.24850  0.21035  1.0000
