# generated using pymatgen
data_Mg4In4Ni8CO
_symmetry_space_group_name_H-M   P1
_cell_length_a   6.23499000
_cell_length_b   6.23499000
_cell_length_c   24.67620000
_cell_angle_alpha   90.00000000
_cell_angle_beta   90.00000000
_cell_angle_gamma   90.00000000
_symmetry_Int_Tables_number   1
_chemical_formula_structural   Mg4In4Ni8CO
_chemical_formula_sum   'Mg4 In4 Ni8 C1 O1'
_cell_volume   959.28975003
_cell_formula_units_Z   1
loop_
 _symmetry_equiv_pos_site_id
 _symmetry_equiv_pos_as_xyz
  1  'x, y, z'
loop_
 _atom_site_type_symbol
 _atom_site_label
 _atom_site_symmetry_multiplicity
 _atom_site_fract_x
 _atom_site_fract_y
 _atom_site_fract_z
 _atom_site_occupancy
  Mg  Mg0  1  0.00000000  0.00000000  0.90525000  1.0
  Mg  Mg1  1  0.50000000  0.50000000  0.90525000  1.0
  Mg  Mg2  1  0.50122000  0.99764000  0.03308000  1.0
  Mg  Mg3  1  0.99766000  0.50122000  0.03304000  1.0
  In  In4  1  0.00000000  0.50000000  0.90525000  1.0
  In  In5  1  0.50000000  0.00000000  0.90525000  1.0
  In  In6  1  0.50118000  0.50111000  0.03273000  1.0
  In  In7  1  0.99874000  0.99877000  0.03303000  1.0
  Ni  Ni8  1  0.24986000  0.74859000  0.08947000  1.0
  Ni  Ni9  1  0.25000000  0.25000000  0.96842000  1.0
  Ni  Ni10  1  0.25000000  0.75000000  0.96842000  1.0
  Ni  Ni11  1  0.25068000  0.25090000  0.09202000  1.0
  Ni  Ni12  1  0.74882000  0.25013000  0.08947000  1.0
  Ni  Ni13  1  0.74965000  0.74940000  0.09013000  1.0
  Ni  Ni14  1  0.75000000  0.25000000  0.96842000  1.0
  Ni  Ni15  1  0.75000000  0.75000000  0.96842000  1.0
  C  C16  1  0.24901000  0.24905000  0.16359000  1.0
  O  O17  1  0.24848000  0.24850000  0.21035000  1.0
