# generated using pymatgen
data_Ge32CO
_symmetry_space_group_name_H-M   P1
_cell_length_a   8.62086000
_cell_length_b   8.62086000
_cell_length_c   26.46560000
_cell_angle_alpha   90.00000000
_cell_angle_beta   90.00000000
_cell_angle_gamma   90.00000000
_symmetry_Int_Tables_number   1
_chemical_formula_structural   Ge32CO
_chemical_formula_sum   'Ge32 C1 O1'
_cell_volume   1966.90293779
_cell_formula_units_Z   1
loop_
 _symmetry_equiv_pos_site_id
 _symmetry_equiv_pos_as_xyz
  1  'x, y, z'
loop_
 _atom_site_type_symbol
 _atom_site_label
 _atom_site_symmetry_multiplicity
 _atom_site_fract_x
 _atom_site_fract_y
 _atom_site_fract_z
 _atom_site_occupancy
  Ge  Ge0  1  0.00000000  0.00000000  0.87785000  1.0
  Ge  Ge1  1  0.00000000  0.25000000  0.95928000  1.0
  Ge  Ge2  1  0.00000000  0.50000000  0.87785000  1.0
  Ge  Ge3  1  0.00000000  0.75000000  0.95928000  1.0
  Ge  Ge4  1  0.00064000  0.49998000  0.04900000  1.0
  Ge  Ge5  1  0.00298000  0.24688000  0.12346000  1.0
  Ge  Ge6  1  0.00298000  0.75306000  0.12347000  1.0
  Ge  Ge7  1  0.24995000  0.74850000  0.04733000  1.0
  Ge  Ge8  1  0.24998000  0.25154000  0.04733000  1.0
  Ge  Ge9  1  0.25000000  0.00000000  0.95928000  1.0
  Ge  Ge10  1  0.25000000  0.25000000  0.87785000  1.0
  Ge  Ge11  1  0.25000000  0.50000000  0.95928000  1.0
  Ge  Ge12  1  0.25000000  0.75000000  0.87785000  1.0
  Ge  Ge13  1  0.25006000  0.00005000  0.12286000  1.0
  Ge  Ge14  1  0.25009000  0.50005000  0.12391000  1.0
  Ge  Ge15  1  0.49691000  0.24689000  0.12347000  1.0
  Ge  Ge16  1  0.49692000  0.75304000  0.12346000  1.0
  Ge  Ge17  1  0.49941000  0.49998000  0.04900000  1.0
  Ge  Ge18  1  0.50000000  0.00000000  0.87785000  1.0
  Ge  Ge19  1  0.50000000  0.25000000  0.95928000  1.0
  Ge  Ge20  1  0.50000000  0.50000000  0.87785000  1.0
  Ge  Ge21  1  0.50000000  0.75000000  0.95928000  1.0
  Ge  Ge22  1  0.50158000  0.99999000  0.04733000  1.0
  Ge  Ge23  1  0.74996000  0.24940000  0.04898000  1.0
  Ge  Ge24  1  0.74997000  0.75064000  0.04898000  1.0
  Ge  Ge25  1  0.75000000  0.00000000  0.95928000  1.0
  Ge  Ge26  1  0.75000000  0.25000000  0.87785000  1.0
  Ge  Ge27  1  0.75000000  0.50000000  0.95928000  1.0
  Ge  Ge28  1  0.75000000  0.75000000  0.87785000  1.0
  Ge  Ge29  1  0.75007000  0.50007000  0.12398000  1.0
  Ge  Ge30  1  0.75008000  0.00005000  0.12391000  1.0
  Ge  Ge31  1  0.99846000  0.99997000  0.04734000  1.0
  C  C32  1  0.25004000  0.99983000  0.27200000  1.0
  O  O33  1  0.25000000  0.00001000  0.31489000  1.0
