# generated using pymatgen
data_Y4Pb12CO
_symmetry_space_group_name_H-M   Pm
_cell_length_a   7.01086000
_cell_length_b   9.91485000
_cell_length_c   25.25810000
_cell_angle_alpha   90.00000000
_cell_angle_beta   90.00000000
_cell_angle_gamma   90.00000000
_symmetry_Int_Tables_number   6
_chemical_formula_structural   Y4Pb12CO
_chemical_formula_sum   'Y4 Pb12 C1 O1'
_cell_volume   1755.73158226
_cell_formula_units_Z   1
loop_
 _symmetry_equiv_pos_site_id
 _symmetry_equiv_pos_as_xyz
  1  'x, y, z'
  2  'x, -y, z'
loop_
 _atom_site_type_symbol
 _atom_site_label
 _atom_site_symmetry_multiplicity
 _atom_site_fract_x
 _atom_site_fract_y
 _atom_site_fract_z
 _atom_site_occupancy
  Y  Y0  1  0.50000000  0.00000000  0.03470000  1.0
  Y  Y1  1  0.50000000  0.50000000  0.03470000  1.0
  Y  Y2  1  0.99999000  0.00000000  0.91071000  1.0
  Y  Y3  1  0.99999000  0.50000000  0.91110000  1.0
  Pb  Pb4  2  0.25000000  0.25001000  0.10409000  1.0
  Pb  Pb5  2  0.26175000  0.24906000  0.96139000  1.0
  Pb  Pb6  2  0.73823000  0.24906000  0.96139000  1.0
  Pb  Pb7  2  0.75000000  0.25001000  0.10409000  1.0
  Pb  Pb8  1  0.00000000  0.00000000  0.03470000  1.0
  Pb  Pb9  1  0.00000000  0.50000000  0.03470000  1.0
  Pb  Pb10  1  0.49998000  0.00000000  0.89013000  1.0
  Pb  Pb11  1  0.49999000  0.50000000  0.89161000  1.0
  C  C12  1  0.50023000  0.00000000  0.72331000  1.0
  O  O13  1  0.49994000  0.00000000  0.67836000  1.0
