# generated using pymatgen
data_Li4Al4Ag4Pd4CO
_symmetry_space_group_name_H-M   'P 1'
_cell_length_a   6.21941000
_cell_length_b   6.21941000
_cell_length_c   24.66460000
_cell_angle_alpha   90.00000000
_cell_angle_beta   90.00000000
_cell_angle_gamma   90.00000000
_symmetry_Int_Tables_number   1
_chemical_formula_structural   Li4Al4Ag4Pd4CO
_chemical_formula_sum   'Li4 Al4 Ag4 Pd4 C1 O1'
_cell_volume   954.05289093
_cell_formula_units_Z   1
loop_
 _symmetry_equiv_pos_site_id
 _symmetry_equiv_pos_as_xyz
  1  'x, y, z'
loop_
 _atom_site_type_symbol
 _atom_site_label
 _atom_site_symmetry_multiplicity
 _atom_site_fract_x
 _atom_site_fract_y
 _atom_site_fract_z
 _atom_site_occupancy
  Li  Li0  1  0.25000000  0.75000000  0.03152000  1
  Li  Li1  1  0.74988000  0.74973000  0.89817000  1
  Li  Li2  1  0.25027000  0.25012000  0.89817000  1
  Li  Li3  1  0.75000000  0.25000000  0.03152000  1
  Al  Al4  1  0.25000000  0.25000000  0.03152000  1
  Al  Al5  1  0.75011000  0.24989000  0.91321000  1
  Al  Al6  1  0.24999000  0.75001000  0.91012000  1
  Al  Al7  1  0.75000000  0.75000000  0.03152000  1
  Ag  Ag8  1  0.00000000  0.00000000  0.09456000  1
  Ag  Ag9  1  0.49779000  0.99774000  0.96737000  1
  Ag  Ag10  1  0.00226000  0.50221000  0.96737000  1
  Ag  Ag11  1  0.50000000  0.50000000  0.09456000  1
  Pd  Pd12  1  0.50000000  1.00000000  0.09456000  1
  Pd  Pd13  1  0.00049000  0.99951000  0.96456000  1
  Pd  Pd14  1  0.49958000  0.50042000  0.96447000  1
  Pd  Pd15  1  1.00000000  0.50000000  0.09456000  1
  C  C16  1  0.24915000  0.75085000  0.83075000  1
  O  O17  1  0.24923000  0.75077000  0.78349000  1
