# generated using pymatgen
data_Li8Mg8Ga8Pd8CO
_symmetry_space_group_name_H-M   'P 1'
_cell_length_a   6.27706000
_cell_length_b   8.87710000
_cell_length_c   26.65780000
_cell_angle_alpha   90.00000000
_cell_angle_beta   90.00000000
_cell_angle_gamma   90.00000000
_symmetry_Int_Tables_number   1
_chemical_formula_structural   Li8Mg8Ga8Pd8CO
_chemical_formula_sum   'Li8 Mg8 Ga8 Pd8 C1 O1'
_cell_volume   1485.42831283
_cell_formula_units_Z   1
loop_
 _symmetry_equiv_pos_site_id
 _symmetry_equiv_pos_as_xyz
  1  'x, y, z'
loop_
 _atom_site_type_symbol
 _atom_site_label
 _atom_site_symmetry_multiplicity
 _atom_site_fract_x
 _atom_site_fract_y
 _atom_site_fract_z
 _atom_site_occupancy
  Li  Li0  1  0.25000000  0.00000000  0.95837000  1.0
  Li  Li1  1  0.25000000  0.50000000  0.95837000  1.0
  Li  Li2  1  0.75000000  0.25000000  0.87512000  1.0
  Li  Li3  1  0.75000000  0.75000000  0.87512000  1.0
  Li  Li4  1  0.28523000  0.49827000  0.13562000  1.0
  Li  Li5  1  0.28517000  0.99902000  0.13529000  1.0
  Li  Li6  1  0.75434000  0.74970000  0.04209000  1.0
  Li  Li7  1  0.76388000  0.25007000  0.04186000  1.0
  Mg  Mg8  1  1.00000000  0.25000000  0.95837000  1.0
  Mg  Mg9  1  1.00000000  0.75000000  0.95837000  1.0
  Mg  Mg10  1  0.50000000  0.50000000  0.87512000  1.0
  Mg  Mg11  1  0.50000000  0.00000000  0.87512000  1.0
  Mg  Mg12  1  0.99307000  0.74775000  0.13087000  1.0
  Mg  Mg13  1  0.98336000  0.24894000  0.13316000  1.0
  Mg  Mg14  1  0.49345000  0.00172000  0.04056000  1.0
  Mg  Mg15  1  0.49224000  0.49786000  0.04055000  1.0
  Ga  Ga16  1  0.00000000  0.00000000  0.87512000  1.0
  Ga  Ga17  1  0.00000000  0.50000000  0.87512000  1.0
  Ga  Ga18  1  0.50000000  0.75000000  0.95837000  1.0
  Ga  Ga19  1  0.50000000  0.25000000  0.95837000  1.0
  Ga  Ga20  1  0.00788000  0.50029000  0.04484000  1.0
  Ga  Ga21  1  0.00786000  0.99916000  0.04469000  1.0
  Ga  Ga22  1  0.52152000  0.24849000  0.12498000  1.0
  Ga  Ga23  1  0.51437000  0.74891000  0.12695000  1.0
  Pd  Pd24  1  0.75000000  0.00000000  0.95837000  1.0
  Pd  Pd25  1  0.75000000  0.50000000  0.95837000  1.0
  Pd  Pd26  1  0.25000000  0.25000000  0.87512000  1.0
  Pd  Pd27  1  0.25000000  0.75000000  0.87512000  1.0
  Pd  Pd28  1  0.73871000  0.50143000  0.11949000  1.0
  Pd  Pd29  1  0.74031000  0.99600000  0.11952000  1.0
  Pd  Pd30  1  0.24677000  0.75000000  0.04277000  1.0
  Pd  Pd31  1  0.24102000  0.24965000  0.04756000  1.0
  C  C32  1  0.10955000  0.25525000  0.21174000  1.0
  O  O33  1  0.16328000  0.25912000  0.25293000  1.0
