# generated using pymatgen
data_Li16Ga8Au8C
_symmetry_space_group_name_H-M   'P 1'
_cell_length_a   8.90130000
_cell_length_b   6.29417000
_cell_length_c   26.67600000
_cell_angle_alpha   90.00000000
_cell_angle_beta   90.00000000
_cell_angle_gamma   90.00000000
_symmetry_Int_Tables_number   1
_chemical_formula_structural   Li16Ga8Au8C
_chemical_formula_sum   'Li16 Ga8 Au8 C1'
_cell_volume   1494.55745665
_cell_formula_units_Z   1
loop_
 _symmetry_equiv_pos_site_id
 _symmetry_equiv_pos_as_xyz
  1  'x, y, z'
loop_
 _atom_site_type_symbol
 _atom_site_label
 _atom_site_symmetry_multiplicity
 _atom_site_fract_x
 _atom_site_fract_y
 _atom_site_fract_z
 _atom_site_occupancy
  Li  Li0  1  0.50000000  0.00000000  0.04171000  1.0
  Li  Li1  1  0.75000000  0.50000000  0.12513000  1.0
  Li  Li2  1  0.00000000  1.00000000  0.04171000  1.0
  Li  Li3  1  0.25000000  0.50000000  0.12513000  1.0
  Li  Li4  1  0.00000000  0.25000000  0.12513000  1.0
  Li  Li5  1  0.50000000  0.25000000  0.12513000  1.0
  Li  Li6  1  0.25000000  0.75000000  0.04171000  1.0
  Li  Li7  1  0.75000000  0.75000000  0.04171000  1.0
  Li  Li8  1  0.00000000  0.03108000  0.85663000  1.0
  Li  Li9  1  0.24997000  0.50658000  0.96165000  1.0
  Li  Li10  1  0.50000000  0.00293000  0.87169000  1.0
  Li  Li11  1  0.75003000  0.50658000  0.96165000  1.0
  Li  Li12  1  0.50000000  0.26051000  0.95623000  1.0
  Li  Li13  1  0.00000000  0.24359000  0.95548000  1.0
  Li  Li14  1  0.76636000  0.72784000  0.87251000  1.0
  Li  Li15  1  0.23364000  0.72784000  0.87251000  1.0
  Ga  Ga16  1  0.75000000  0.00000000  0.12513000  1.0
  Ga  Ga17  1  0.00000000  0.50000000  0.04171000  1.0
  Ga  Ga18  1  0.50000000  0.50000000  0.04171000  1.0
  Ga  Ga19  1  0.25000000  0.00000000  0.12513000  1.0
  Ga  Ga20  1  0.25561000  0.99429000  0.95992000  1.0
  Ga  Ga21  1  0.50000000  0.50221000  0.86479000  1.0
  Ga  Ga22  1  0.00000000  0.43968000  0.85724000  1.0
  Ga  Ga23  1  0.74439000  0.99429000  0.95992000  1.0
  Au  Au24  1  0.75000000  0.25000000  0.04171000  1.0
  Au  Au25  1  0.25000000  0.25000000  0.04171000  1.0
  Au  Au26  1  0.50000000  0.75000000  0.12513000  1.0
  Au  Au27  1  0.00000000  0.75000000  0.12513000  1.0
  Au  Au28  1  0.26262000  0.26204000  0.88187000  1.0
  Au  Au29  1  0.73738000  0.26204000  0.88187000  1.0
  Au  Au30  1  0.00000000  0.73725000  0.95925000  1.0
  Au  Au31  1  0.50000000  0.73651000  0.95286000  1.0
  C  C32  1  0.00000000  0.72887000  0.87702000  1.0
