# generated using pymatgen
data_Li16Ga8Au8C
_symmetry_space_group_name_H-M   Pm
_cell_length_a   6.29417000
_cell_length_b   8.90130000
_cell_length_c   26.67600000
_cell_angle_alpha   90.00000000
_cell_angle_beta   90.00000000
_cell_angle_gamma   90.00000000
_symmetry_Int_Tables_number   6
_chemical_formula_structural   Li16Ga8Au8C
_chemical_formula_sum   'Li16 Ga8 Au8 C1'
_cell_volume   1494.55745665
_cell_formula_units_Z   1
loop_
 _symmetry_equiv_pos_site_id
 _symmetry_equiv_pos_as_xyz
  1  'x, y, z'
  2  'x, -y, z'
loop_
 _atom_site_type_symbol
 _atom_site_label
 _atom_site_symmetry_multiplicity
 _atom_site_fract_x
 _atom_site_fract_y
 _atom_site_fract_z
 _atom_site_occupancy
  Li  Li0  2  0.50000000  0.25000000  0.87487000  1.0
  Li  Li1  2  0.50658000  0.24997000  0.03835000  1.0
  Li  Li2  2  0.72784000  0.23364000  0.12749000  1.0
  Li  Li3  2  0.75000000  0.25000000  0.95829000  1.0
  Li  Li4  1  -0.00000000  0.00000000  0.95829000  1.0
  Li  Li5  1  0.00000000  0.50000000  0.95829000  1.0
  Li  Li6  1  0.00293000  0.50000000  0.12831000  1.0
  Li  Li7  1  0.03108000  0.00000000  0.14337000  1.0
  Li  Li8  1  0.24359000  0.00000000  0.04452000  1.0
  Li  Li9  1  0.25000000  0.00000000  0.87487000  1.0
  Li  Li10  1  0.25000000  0.50000000  0.87487000  1.0
  Li  Li11  1  0.26051000  0.50000000  0.04377000  1.0
  Ga  Ga12  2  0.00000000  0.25000000  0.87487000  1.0
  Ga  Ga13  2  0.99429000  0.25561000  0.04008000  1.0
  Ga  Ga14  1  0.43968000  0.00000000  0.14276000  1.0
  Ga  Ga15  1  0.50000000  0.00000000  0.95829000  1.0
  Ga  Ga16  1  0.50000000  0.50000000  0.95829000  1.0
  Ga  Ga17  1  0.50221000  0.50000000  0.13521000  1.0
  Au  Au18  2  0.25000000  0.25000000  0.95829000  1.0
  Au  Au19  2  0.26204000  0.26262000  0.11813000  1.0
  Au  Au20  1  0.73651000  0.50000000  0.04714000  1.0
  Au  Au21  1  0.73725000  0.00000000  0.04075000  1.0
  Au  Au22  1  0.75000000  0.00000000  0.87487000  1.0
  Au  Au23  1  0.75000000  0.50000000  0.87487000  1.0
  C  C24  1  0.72887000  0.00000000  0.12298000  1.0
