data_image0
_chemical_formula_structural       Al16Pt16C
_chemical_formula_sum              "Al16 Pt16 C1"
_cell_length_a       6.19423
_cell_length_b       8.75996
_cell_length_c       26.57
_cell_angle_alpha    90
_cell_angle_beta     90
_cell_angle_gamma    90

_space_group_name_H-M_alt    "P 1"
_space_group_IT_number       1

loop_
  _space_group_symop_operation_xyz
  'x, y, z'

loop_
  _atom_site_type_symbol
  _atom_site_label
  _atom_site_symmetry_multiplicity
  _atom_site_fract_x
  _atom_site_fract_y
  _atom_site_fract_z
  _atom_site_occupancy
  Al  Al1       1.0  0.00000  0.00000  0.87636  1.0000
  Al  Al2       1.0  0.00000  0.25000  0.95879  1.0000
  Al  Al3       1.0  0.00081  0.00034  0.04181  1.0000
  Al  Al4       1.0  0.95210  0.25000  0.12937  1.0000
  Al  Al5       1.0  0.00000  0.50000  0.87636  1.0000
  Al  Al6       1.0  0.00000  0.75000  0.95879  1.0000
  Al  Al7       1.0  0.00081  0.49966  0.04181  1.0000
  Al  Al8       1.0  0.00788  0.75000  0.12484  1.0000
  Al  Al9       1.0  0.50000  0.00000  0.87636  1.0000
  Al  Al10      1.0  0.50000  0.25000  0.95879  1.0000
  Al  Al11      1.0  0.49912  0.00035  0.04181  1.0000
  Al  Al12      1.0  0.54772  0.25000  0.12934  1.0000
  Al  Al13      1.0  0.50000  0.50000  0.87636  1.0000
  Al  Al14      1.0  0.50000  0.75000  0.95879  1.0000
  Al  Al15      1.0  0.49912  0.49965  0.04181  1.0000
  Al  Al16      1.0  0.49200  0.75000  0.12484  1.0000
  Pt  Pt1       1.0  0.25000  0.25000  0.87636  1.0000
  Pt  Pt2       1.0  0.25000  0.00000  0.95879  1.0000
  Pt  Pt3       1.0  0.24993  0.25000  0.04135  1.0000
  Pt  Pt4       1.0  0.24990  0.50766  0.11920  1.0000
  Pt  Pt5       1.0  0.25000  0.75000  0.87636  1.0000
  Pt  Pt6       1.0  0.25000  0.50000  0.95879  1.0000
  Pt  Pt7       1.0  0.24997  0.75000  0.03669  1.0000
  Pt  Pt8       1.0  0.24990  0.99234  0.11920  1.0000
  Pt  Pt9       1.0  0.75000  0.25000  0.87636  1.0000
  Pt  Pt10      1.0  0.75000  0.00000  0.95879  1.0000
  Pt  Pt11      1.0  0.74999  0.25000  0.03807  1.0000
  Pt  Pt12      1.0  0.74995  0.50806  0.11898  1.0000
  Pt  Pt13      1.0  0.75000  0.75000  0.87636  1.0000
  Pt  Pt14      1.0  0.75000  0.50000  0.95879  1.0000
  Pt  Pt15      1.0  0.74997  0.75000  0.03739  1.0000
  Pt  Pt16      1.0  0.74995  0.99194  0.11898  1.0000
  C   C1        1.0  0.24990  0.25000  0.13906  1.0000
