# generated using pymatgen
data_Al16Pt16C
_symmetry_space_group_name_H-M   'P 1'
_cell_length_a   8.75996000
_cell_length_b   6.19423000
_cell_length_c   26.57000000
_cell_angle_alpha   90.00000000
_cell_angle_beta   90.00000000
_cell_angle_gamma   90.00000000
_symmetry_Int_Tables_number   1
_chemical_formula_structural   Al16Pt16C
_chemical_formula_sum   'Al16 Pt16 C1'
_cell_volume   1441.72027081
_cell_formula_units_Z   1
loop_
 _symmetry_equiv_pos_site_id
 _symmetry_equiv_pos_as_xyz
  1  'x, y, z'
loop_
 _atom_site_type_symbol
 _atom_site_label
 _atom_site_symmetry_multiplicity
 _atom_site_fract_x
 _atom_site_fract_y
 _atom_site_fract_z
 _atom_site_occupancy
  Al  Al0  1  0.75000000  0.00000000  0.12364000  1.0
  Al  Al1  1  0.00000000  1.00000000  0.04121000  1.0
  Al  Al2  1  0.75034000  0.00081000  0.95819000  1.0
  Al  Al3  1  0.00000000  0.95210000  0.87063000  1.0
  Al  Al4  1  0.25000000  0.00000000  0.12364000  1.0
  Al  Al5  1  0.50000000  1.00000000  0.04121000  1.0
  Al  Al6  1  0.24966000  0.00081000  0.95819000  1.0
  Al  Al7  1  0.50000000  0.00788000  0.87516000  1.0
  Al  Al8  1  0.75000000  0.50000000  0.12364000  1.0
  Al  Al9  1  0.00000000  0.50000000  0.04121000  1.0
  Al  Al10  1  0.75035000  0.49912000  0.95819000  1.0
  Al  Al11  1  0.00000000  0.54772000  0.87066000  1.0
  Al  Al12  1  0.25000000  0.50000000  0.12364000  1.0
  Al  Al13  1  0.50000000  0.50000000  0.04121000  1.0
  Al  Al14  1  0.24965000  0.49912000  0.95819000  1.0
  Al  Al15  1  0.50000000  0.49200000  0.87516000  1.0
  Pt  Pt16  1  0.00000000  0.25000000  0.12364000  1.0
  Pt  Pt17  1  0.75000000  0.25000000  0.04121000  1.0
  Pt  Pt18  1  0.00000000  0.24993000  0.95865000  1.0
  Pt  Pt19  1  0.25766000  0.24990000  0.88080000  1.0
  Pt  Pt20  1  0.50000000  0.25000000  0.12364000  1.0
  Pt  Pt21  1  0.25000000  0.25000000  0.04121000  1.0
  Pt  Pt22  1  0.50000000  0.24997000  0.96331000  1.0
  Pt  Pt23  1  0.74234000  0.24990000  0.88080000  1.0
  Pt  Pt24  1  0.00000000  0.75000000  0.12364000  1.0
  Pt  Pt25  1  0.75000000  0.75000000  0.04121000  1.0
  Pt  Pt26  1  0.00000000  0.74999000  0.96193000  1.0
  Pt  Pt27  1  0.25806000  0.74995000  0.88102000  1.0
  Pt  Pt28  1  0.50000000  0.75000000  0.12364000  1.0
  Pt  Pt29  1  0.25000000  0.75000000  0.04121000  1.0
  Pt  Pt30  1  0.50000000  0.74997000  0.96261000  1.0
  Pt  Pt31  1  0.74194000  0.74995000  0.88102000  1.0
  C  C32  1  0.00000000  0.24990000  0.86094000  1.0
