# generated using pymatgen
data_Al16Pt16C
_symmetry_space_group_name_H-M   Pm
_cell_length_a   6.19423000
_cell_length_b   8.75996000
_cell_length_c   26.57000000
_cell_angle_alpha   90.00000000
_cell_angle_beta   90.00000000
_cell_angle_gamma   90.00000000
_symmetry_Int_Tables_number   6
_chemical_formula_structural   Al16Pt16C
_chemical_formula_sum   'Al16 Pt16 C1'
_cell_volume   1441.72027081
_cell_formula_units_Z   1
loop_
 _symmetry_equiv_pos_site_id
 _symmetry_equiv_pos_as_xyz
  1  'x, y, z'
  2  'x, -y, z'
loop_
 _atom_site_type_symbol
 _atom_site_label
 _atom_site_symmetry_multiplicity
 _atom_site_fract_x
 _atom_site_fract_y
 _atom_site_fract_z
 _atom_site_occupancy
  Al  Al0  2  0.00000000  0.25000000  0.87636000  1.0
  Al  Al1  2  0.00081000  0.24966000  0.04181000  1.0
  Al  Al2  2  0.49912000  0.24965000  0.04181000  1.0
  Al  Al3  2  0.50000000  0.25000000  0.87636000  1.0
  Al  Al4  1  -0.00000000  0.50000000  0.95879000  1.0
  Al  Al5  1  -0.00000000  0.00000000  0.95879000  1.0
  Al  Al6  1  0.00788000  0.50000000  0.12484000  1.0
  Al  Al7  1  0.49200000  0.50000000  0.12484000  1.0
  Al  Al8  1  0.50000000  0.00000000  0.95879000  1.0
  Al  Al9  1  0.50000000  0.50000000  0.95879000  1.0
  Al  Al10  1  0.54772000  0.00000000  0.12934000  1.0
  Al  Al11  1  0.95210000  0.00000000  0.12937000  1.0
  Pt  Pt12  2  0.24990000  0.25766000  0.11920000  1.0
  Pt  Pt13  2  0.25000000  0.25000000  0.95879000  1.0
  Pt  Pt14  2  0.74995000  0.25806000  0.11898000  1.0
  Pt  Pt15  2  0.75000000  0.25000000  0.95879000  1.0
  Pt  Pt16  1  0.24993000  0.00000000  0.04135000  1.0
  Pt  Pt17  1  0.24997000  0.50000000  0.03669000  1.0
  Pt  Pt18  1  0.25000000  0.00000000  0.87636000  1.0
  Pt  Pt19  1  0.25000000  0.50000000  0.87636000  1.0
  Pt  Pt20  1  0.74997000  0.50000000  0.03739000  1.0
  Pt  Pt21  1  0.74999000  0.00000000  0.03807000  1.0
  Pt  Pt22  1  0.75000000  0.00000000  0.87636000  1.0
  Pt  Pt23  1  0.75000000  0.50000000  0.87636000  1.0
  C  C24  1  0.24990000  0.00000000  0.13906000  1.0
