# generated using pymatgen
data_Nb24Ge8C
_symmetry_space_group_name_H-M   'P 1'
_cell_length_a   8.21286000
_cell_length_b   8.21286000
_cell_length_c   26.15960000
_cell_angle_alpha   90.00000000
_cell_angle_beta   90.00000000
_cell_angle_gamma   90.00000000
_symmetry_Int_Tables_number   1
_chemical_formula_structural   Nb24Ge8C
_chemical_formula_sum   'Nb24 Ge8 C1'
_cell_volume   1764.49299454
_cell_formula_units_Z   1
loop_
 _symmetry_equiv_pos_site_id
 _symmetry_equiv_pos_as_xyz
  1  'x, y, z'
loop_
 _atom_site_type_symbol
 _atom_site_label
 _atom_site_symmetry_multiplicity
 _atom_site_fract_x
 _atom_site_fract_y
 _atom_site_fract_z
 _atom_site_occupancy
  Nb  Nb0  1  0.75000000  0.00000000  0.96076000  1.0
  Nb  Nb1  1  0.00000000  0.75000000  0.96076000  1.0
  Nb  Nb2  1  0.00000000  0.00000000  0.88227000  1.0
  Nb  Nb3  1  0.75000000  0.00000000  0.11773000  1.0
  Nb  Nb4  1  0.00000000  0.75000000  0.11773000  1.0
  Nb  Nb5  1  0.00000000  0.00000000  0.03924000  1.0
  Nb  Nb6  1  0.75000000  0.50000000  0.96076000  1.0
  Nb  Nb7  1  0.00000000  0.25000000  0.96076000  1.0
  Nb  Nb8  1  0.00000000  0.50000000  0.88227000  1.0
  Nb  Nb9  1  0.75000000  0.50000000  0.11773000  1.0
  Nb  Nb10  1  0.00000000  0.25000000  0.11773000  1.0
  Nb  Nb11  1  0.00000000  0.50000000  0.03924000  1.0
  Nb  Nb12  1  0.25000000  0.00000000  0.96076000  1.0
  Nb  Nb13  1  0.50000000  0.75000000  0.96076000  1.0
  Nb  Nb14  1  0.50000000  0.00000000  0.88227000  1.0
  Nb  Nb15  1  0.25000000  0.00000000  0.11773000  1.0
  Nb  Nb16  1  0.50000000  0.75000000  0.11773000  1.0
  Nb  Nb17  1  0.50000000  0.00000000  0.03924000  1.0
  Nb  Nb18  1  0.25000000  0.50000000  0.96076000  1.0
  Nb  Nb19  1  0.50000000  0.25000000  0.96076000  1.0
  Nb  Nb20  1  0.50000000  0.50000000  0.88227000  1.0
  Nb  Nb21  1  0.25000000  0.50000000  0.11773000  1.0
  Nb  Nb22  1  0.50000000  0.25000000  0.11773000  1.0
  Nb  Nb23  1  0.50000000  0.50000000  0.03924000  1.0
  Ge  Ge24  1  0.75000000  0.75000000  0.88227000  1.0
  Ge  Ge25  1  0.75000000  0.75000000  0.03924000  1.0
  Ge  Ge26  1  0.75000000  0.25000000  0.88227000  1.0
  Ge  Ge27  1  0.75000000  0.25000000  0.03924000  1.0
  Ge  Ge28  1  0.25000000  0.75000000  0.88227000  1.0
  Ge  Ge29  1  0.25000000  0.75000000  0.03924000  1.0
  Ge  Ge30  1  0.25000000  0.25000000  0.88227000  1.0
  Ge  Ge31  1  0.25000000  0.25000000  0.03924000  1.0
  C  C32  1  0.00000000  0.00000000  0.14831000  1.0
