data_image0
_chemical_formula_structural       ZrRhZrRhZrRhZrRhZrRhZrRhZrRhZrRhCO
_chemical_formula_sum              "Zr8 Rh8 C1 O1"
_cell_length_a       6.65024
_cell_length_b       6.65024
_cell_length_c       24.9877
_cell_angle_alpha    90
_cell_angle_beta     90
_cell_angle_gamma    90

_space_group_name_H-M_alt    "P 1"
_space_group_IT_number       1

loop_
  _space_group_symop_operation_xyz
  'x, y, z'

loop_
  _atom_site_type_symbol
  _atom_site_label
  _atom_site_symmetry_multiplicity
  _atom_site_fract_x
  _atom_site_fract_y
  _atom_site_fract_z
  _atom_site_occupancy
  Zr  Zr1       1.0  0.25000  0.25000  0.96873  1.0000
  Rh  Rh1       1.0  0.00000  0.00000  0.90220  1.0000
  Zr  Zr2       1.0  0.25000  0.25000  0.10180  1.0000
  Rh  Rh2       1.0  0.00000  0.00000  0.03527  1.0000
  Zr  Zr3       1.0  0.25000  0.75000  0.96873  1.0000
  Rh  Rh3       1.0  0.00000  0.50000  0.90220  1.0000
  Zr  Zr4       1.0  0.25000  0.75000  0.10180  1.0000
  Rh  Rh4       1.0  0.00000  0.50000  0.03527  1.0000
  Zr  Zr5       1.0  0.75000  0.25000  0.96873  1.0000
  Rh  Rh5       1.0  0.50000  0.00000  0.90220  1.0000
  Zr  Zr6       1.0  0.75000  0.25000  0.10180  1.0000
  Rh  Rh6       1.0  0.50000  0.00000  0.03527  1.0000
  Zr  Zr7       1.0  0.75000  0.75000  0.96873  1.0000
  Rh  Rh7       1.0  0.50000  0.50000  0.90220  1.0000
  Zr  Zr8       1.0  0.75000  0.75000  0.10180  1.0000
  Rh  Rh8       1.0  0.50000  0.50000  0.03527  1.0000
  C   C1        1.0  0.25000  0.25000  0.17784  1.0000
  O   O1        1.0  0.25000  0.25000  0.22386  1.0000
