# generated using pymatgen
data_Ta8Co24C
_symmetry_space_group_name_H-M   Pmm2
_cell_length_a   7.30495000
_cell_length_b   7.30495000
_cell_length_c   25.47870000
_cell_angle_alpha   90.00000000
_cell_angle_beta   90.00000000
_cell_angle_gamma   90.00000000
_symmetry_Int_Tables_number   25
_chemical_formula_structural   Ta8Co24C
_chemical_formula_sum   'Ta8 Co24 C1'
_cell_volume   1359.60189294
_cell_formula_units_Z   1
loop_
 _symmetry_equiv_pos_site_id
 _symmetry_equiv_pos_as_xyz
  1  'x, y, z'
  2  '-x, -y, z'
  3  '-x, y, z'
  4  'x, -y, z'
loop_
 _atom_site_type_symbol
 _atom_site_label
 _atom_site_symmetry_multiplicity
 _atom_site_fract_x
 _atom_site_fract_y
 _atom_site_fract_z
 _atom_site_occupancy
  Ta  Ta0  2  0.25000000  0.00000000  0.10752000  1.0
  Ta  Ta1  2  0.25000000  0.00000000  0.96416000  1.0
  Ta  Ta2  2  0.25000000  0.50000000  0.10752000  1.0
  Ta  Ta3  2  0.25000000  0.50000000  0.96416000  1.0
  Co  Co4  4  0.25000000  0.25000000  0.03584000  1.0
  Co  Co5  4  0.25000000  0.25000000  0.89248000  1.0
  Co  Co6  2  0.00000000  0.25000000  0.10752000  1.0
  Co  Co7  2  0.00000000  0.25000000  0.96416000  1.0
  Co  Co8  2  0.50000000  0.25000000  0.10752000  1.0
  Co  Co9  2  0.50000000  0.25000000  0.96416000  1.0
  Co  Co10  1  0.00000000  0.00000000  0.03584000  1.0
  Co  Co11  1  0.00000000  0.00000000  0.89248000  1.0
  Co  Co12  1  0.00000000  0.50000000  0.03584000  1.0
  Co  Co13  1  0.00000000  0.50000000  0.89248000  1.0
  Co  Co14  1  0.50000000  0.00000000  0.03584000  1.0
  Co  Co15  1  0.50000000  0.00000000  0.89248000  1.0
  Co  Co16  1  0.50000000  0.50000000  0.03584000  1.0
  Co  Co17  1  0.50000000  0.50000000  0.89248000  1.0
  C  C18  1  0.00000000  0.00000000  0.13891000  1.0
