# generated using pymatgen
data_Ta8Ga8Ni16C
_symmetry_space_group_name_H-M   'P 1'
_cell_length_a   8.48992000
_cell_length_b   6.00328000
_cell_length_c   26.36740000
_cell_angle_alpha   90.00000000
_cell_angle_beta   90.00000000
_cell_angle_gamma   90.00000000
_symmetry_Int_Tables_number   1
_chemical_formula_structural   Ta8Ga8Ni16C
_chemical_formula_sum   'Ta8 Ga8 Ni16 C1'
_cell_volume   1343.87695099
_cell_formula_units_Z   1
loop_
 _symmetry_equiv_pos_site_id
 _symmetry_equiv_pos_as_xyz
  1  'x, y, z'
loop_
 _atom_site_type_symbol
 _atom_site_label
 _atom_site_symmetry_multiplicity
 _atom_site_fract_x
 _atom_site_fract_y
 _atom_site_fract_z
 _atom_site_occupancy
  Ta  Ta0  1  0.75000000  0.00000000  0.12074000  1.0
  Ta  Ta1  1  0.00000000  0.50000000  0.04025000  1.0
  Ta  Ta2  1  0.50000000  0.50000000  0.04025000  1.0
  Ta  Ta3  1  0.25000000  0.00000000  0.12074000  1.0
  Ta  Ta4  1  0.25546000  0.99550000  0.95633000  1.0
  Ta  Ta5  1  0.50000000  0.45863000  0.88228000  1.0
  Ta  Ta6  1  0.00000000  0.51818000  0.88717000  1.0
  Ta  Ta7  1  0.74454000  0.99550000  0.95633000  1.0
  Ga  Ga8  1  0.50000000  0.00000000  0.04025000  1.0
  Ga  Ga9  1  0.75000000  0.50000000  0.12074000  1.0
  Ga  Ga10  1  0.00000000  1.00000000  0.04025000  1.0
  Ga  Ga11  1  0.25000000  0.50000000  0.12074000  1.0
  Ga  Ga12  1  0.00000000  0.91248000  0.84996000  1.0
  Ga  Ga13  1  0.24524000  0.49255000  0.96045000  1.0
  Ga  Ga14  1  0.50000000  0.99684000  0.87483000  1.0
  Ga  Ga15  1  0.75476000  0.49255000  0.96045000  1.0
  Ni  Ni16  1  0.75000000  0.25000000  0.04025000  1.0
  Ni  Ni17  1  0.25000000  0.75000000  0.04025000  1.0
  Ni  Ni18  1  0.75000000  0.75000000  0.04025000  1.0
  Ni  Ni19  1  0.25000000  0.25000000  0.04025000  1.0
  Ni  Ni20  1  0.50000000  0.75000000  0.12074000  1.0
  Ni  Ni21  1  0.00000000  0.25000000  0.12074000  1.0
  Ni  Ni22  1  0.50000000  0.25000000  0.12074000  1.0
  Ni  Ni23  1  0.00000000  0.75000000  0.12074000  1.0
  Ni  Ni24  1  0.23135000  0.22076000  0.87474000  1.0
  Ni  Ni25  1  0.73416000  0.72339000  0.88167000  1.0
  Ni  Ni26  1  0.26584000  0.72339000  0.88167000  1.0
  Ni  Ni27  1  0.76865000  0.22076000  0.87474000  1.0
  Ni  Ni28  1  0.00000000  0.77718000  0.96482000  1.0
  Ni  Ni29  1  0.50000000  0.25608000  0.96408000  1.0
  Ni  Ni30  1  0.00000000  0.22424000  0.95905000  1.0
  Ni  Ni31  1  0.50000000  0.73388000  0.95565000  1.0
  C  C32  1  0.00000000  0.23105000  0.85162000  1.0
