# generated using pymatgen
data_Ta8Ga8Ni16C
_symmetry_space_group_name_H-M   Pm
_cell_length_a   6.00328000
_cell_length_b   8.48992000
_cell_length_c   26.36740000
_cell_angle_alpha   90.00000000
_cell_angle_beta   90.00000000
_cell_angle_gamma   90.00000000
_symmetry_Int_Tables_number   6
_chemical_formula_structural   Ta8Ga8Ni16C
_chemical_formula_sum   'Ta8 Ga8 Ni16 C1'
_cell_volume   1343.87695099
_cell_formula_units_Z   1
loop_
 _symmetry_equiv_pos_site_id
 _symmetry_equiv_pos_as_xyz
  1  'x, y, z'
  2  'x, -y, z'
loop_
 _atom_site_type_symbol
 _atom_site_label
 _atom_site_symmetry_multiplicity
 _atom_site_fract_x
 _atom_site_fract_y
 _atom_site_fract_z
 _atom_site_occupancy
  Ta  Ta0  2  0.00000000  0.25000000  0.87926000  1.0
  Ta  Ta1  2  0.99550000  0.25546000  0.04367000  1.0
  Ta  Ta2  1  0.45863000  0.50000000  0.11772000  1.0
  Ta  Ta3  1  0.50000000  0.00000000  0.95975000  1.0
  Ta  Ta4  1  0.50000000  0.50000000  0.95975000  1.0
  Ta  Ta5  1  0.51818000  0.00000000  0.11283000  1.0
  Ga  Ga6  2  0.49255000  0.24524000  0.03955000  1.0
  Ga  Ga7  2  0.50000000  0.25000000  0.87926000  1.0
  Ga  Ga8  1  -0.00000000  0.00000000  0.95975000  1.0
  Ga  Ga9  1  0.00000000  0.50000000  0.95975000  1.0
  Ga  Ga10  1  0.91248000  0.00000000  0.15004000  1.0
  Ga  Ga11  1  0.99684000  0.50000000  0.12517000  1.0
  Ni  Ni12  2  0.22076000  0.23135000  0.12526000  1.0
  Ni  Ni13  2  0.25000000  0.25000000  0.95975000  1.0
  Ni  Ni14  2  0.72339000  0.26584000  0.11833000  1.0
  Ni  Ni15  2  0.75000000  0.25000000  0.95975000  1.0
  Ni  Ni16  1  0.22424000  0.00000000  0.04095000  1.0
  Ni  Ni17  1  0.25000000  0.00000000  0.87926000  1.0
  Ni  Ni18  1  0.25000000  0.50000000  0.87926000  1.0
  Ni  Ni19  1  0.25608000  0.50000000  0.03592000  1.0
  Ni  Ni20  1  0.73388000  0.50000000  0.04435000  1.0
  Ni  Ni21  1  0.75000000  0.00000000  0.87926000  1.0
  Ni  Ni22  1  0.75000000  0.50000000  0.87926000  1.0
  Ni  Ni23  1  0.77718000  0.00000000  0.03518000  1.0
  C  C24  1  0.23105000  0.00000000  0.14838000  1.0
