# generated using pymatgen
data_Nb8Ga8Ni16CO
_symmetry_space_group_name_H-M   P1
_cell_length_a   6.01786000
_cell_length_b   8.51054000
_cell_length_c   26.38290000
_cell_angle_alpha   90.00000000
_cell_angle_beta   90.00000000
_cell_angle_gamma   90.00000000
_symmetry_Int_Tables_number   1
_chemical_formula_structural   Nb8Ga8Ni16CO
_chemical_formula_sum   'Nb8 Ga8 Ni16 C1 O1'
_cell_volume   1351.20650908
_cell_formula_units_Z   1
loop_
 _symmetry_equiv_pos_site_id
 _symmetry_equiv_pos_as_xyz
  1  'x, y, z'
loop_
 _atom_site_type_symbol
 _atom_site_label
 _atom_site_symmetry_multiplicity
 _atom_site_fract_x
 _atom_site_fract_y
 _atom_site_fract_z
 _atom_site_occupancy
  Nb  Nb0  1  0.00000000  0.00000000  0.87903000  1.0
  Nb  Nb1  1  0.00000000  0.50000000  0.87903000  1.0
  Nb  Nb2  1  0.01046000  0.00015000  0.04187000  1.0
  Nb  Nb3  1  0.48425000  0.24150000  0.11999000  1.0
  Nb  Nb4  1  0.48440000  0.75847000  0.11997000  1.0
  Nb  Nb5  1  0.50000000  0.25000000  0.95968000  1.0
  Nb  Nb6  1  0.50000000  0.75000000  0.95968000  1.0
  Nb  Nb7  1  0.99310000  0.50001000  0.04084000  1.0
  Ga  Ga8  1  0.00000000  0.25000000  0.95968000  1.0
  Ga  Ga9  1  0.00000000  0.75000000  0.95968000  1.0
  Ga  Ga10  1  0.49476000  0.99998000  0.04112000  1.0
  Ga  Ga11  1  0.49974000  0.50017000  0.03747000  1.0
  Ga  Ga12  1  0.50000000  0.00000000  0.87903000  1.0
  Ga  Ga13  1  0.50000000  0.50000000  0.87903000  1.0
  Ga  Ga14  1  0.99503000  0.74240000  0.12238000  1.0
  Ga  Ga15  1  0.99514000  0.25760000  0.12238000  1.0
  Ni  Ni16  1  0.21260000  0.99995000  0.13742000  1.0
  Ni  Ni17  1  0.25000000  0.00000000  0.95968000  1.0
  Ni  Ni18  1  0.25000000  0.25000000  0.87903000  1.0
  Ni  Ni19  1  0.25000000  0.50000000  0.95968000  1.0
  Ni  Ni20  1  0.25000000  0.75000000  0.87903000  1.0
  Ni  Ni21  1  0.25441000  0.74506000  0.04078000  1.0
  Ni  Ni22  1  0.25466000  0.25534000  0.04075000  1.0
  Ni  Ni23  1  0.26712000  0.50000000  0.11504000  1.0
  Ni  Ni24  1  0.72129000  0.49998000  0.11648000  1.0
  Ni  Ni25  1  0.74349000  0.24812000  0.04217000  1.0
  Ni  Ni26  1  0.74384000  0.75198000  0.04212000  1.0
  Ni  Ni27  1  0.75000000  0.00000000  0.95968000  1.0
  Ni  Ni28  1  0.75000000  0.25000000  0.87903000  1.0
  Ni  Ni29  1  0.75000000  0.50000000  0.95968000  1.0
  Ni  Ni30  1  0.75000000  0.75000000  0.87903000  1.0
  Ni  Ni31  1  0.75724000  0.00001000  0.11536000  1.0
  C  C32  1  0.33022000  0.99992000  0.19853000  1.0
  O  O33  1  0.38891000  0.99996000  0.24050000  1.0
