# generated using pymatgen
data_Ga16Ni16C
_symmetry_space_group_name_H-M   'P 1'
_cell_length_a   8.31345000
_cell_length_b   5.87849000
_cell_length_c   26.23510000
_cell_angle_alpha   90.00000000
_cell_angle_beta   90.00000000
_cell_angle_gamma   90.00000000
_symmetry_Int_Tables_number   1
_chemical_formula_structural   Ga16Ni16C
_chemical_formula_sum   'Ga16 Ni16 C1'
_cell_volume   1282.12331219
_cell_formula_units_Z   1
loop_
 _symmetry_equiv_pos_site_id
 _symmetry_equiv_pos_as_xyz
  1  'x, y, z'
loop_
 _atom_site_type_symbol
 _atom_site_label
 _atom_site_symmetry_multiplicity
 _atom_site_fract_x
 _atom_site_fract_y
 _atom_site_fract_z
 _atom_site_occupancy
  Ga  Ga0  1  0.00000000  0.74999000  0.11883000  1.0
  Ga  Ga1  1  0.25000000  0.74999000  0.03961000  1.0
  Ga  Ga2  1  0.00031000  0.75263000  0.96102000  1.0
  Ga  Ga3  1  0.25003000  0.80435000  0.86033000  1.0
  Ga  Ga4  1  0.50000000  0.74999000  0.11883000  1.0
  Ga  Ga5  1  0.75000000  0.74999000  0.03961000  1.0
  Ga  Ga6  1  0.49966000  0.75263000  0.96095000  1.0
  Ga  Ga7  1  0.74994000  0.73722000  0.87551000  1.0
  Ga  Ga8  1  0.00000000  0.25001000  0.11883000  1.0
  Ga  Ga9  1  0.25000000  0.25001000  0.03961000  1.0
  Ga  Ga10  1  0.00031000  0.24737000  0.96102000  1.0
  Ga  Ga11  1  0.25003000  0.19565000  0.86033000  1.0
  Ga  Ga12  1  0.50000000  0.25001000  0.11883000  1.0
  Ga  Ga13  1  0.75000000  0.25001000  0.03961000  1.0
  Ga  Ga14  1  0.49966000  0.24737000  0.96095000  1.0
  Ga  Ga15  1  0.74994000  0.26278000  0.87551000  1.0
  Ni  Ni16  1  0.25000000  0.50000000  0.11883000  1.0
  Ni  Ni17  1  0.00000000  0.50000000  0.03961000  1.0
  Ni  Ni18  1  0.25000000  0.50000000  0.95859000  1.0
  Ni  Ni19  1  0.01193000  0.50000000  0.88730000  1.0
  Ni  Ni20  1  0.75000000  0.50000000  0.11883000  1.0
  Ni  Ni21  1  0.50000000  0.50000000  0.03961000  1.0
  Ni  Ni22  1  0.74998000  0.50000000  0.96204000  1.0
  Ni  Ni23  1  0.48790000  0.50000000  0.88717000  1.0
  Ni  Ni24  1  0.25000000  0.00000000  0.11883000  1.0
  Ni  Ni25  1  0.00000000  0.00000000  0.03961000  1.0
  Ni  Ni26  1  0.25007000  0.00000000  0.96105000  1.0
  Ni  Ni27  1  0.98461000  0.00000000  0.88622000  1.0
  Ni  Ni28  1  0.75000000  0.00000000  0.11883000  1.0
  Ni  Ni29  1  0.50000000  0.00000000  0.03961000  1.0
  Ni  Ni30  1  0.74995000  0.00000000  0.96220000  1.0
  Ni  Ni31  1  0.51551000  0.00000000  0.88610000  1.0
  C  C32  1  0.24985000  0.50000000  0.88324000  1.0
