# generated using pymatgen
data_Ga16Ni16C
_symmetry_space_group_name_H-M   Pm
_cell_length_a   8.31345000
_cell_length_b   5.87849000
_cell_length_c   26.23510000
_cell_angle_alpha   90.00000000
_cell_angle_beta   90.00000000
_cell_angle_gamma   90.00000000
_symmetry_Int_Tables_number   6
_chemical_formula_structural   Ga16Ni16C
_chemical_formula_sum   'Ga16 Ni16 C1'
_cell_volume   1282.12331219
_cell_formula_units_Z   1
loop_
 _symmetry_equiv_pos_site_id
 _symmetry_equiv_pos_as_xyz
  1  'x, y, z'
  2  'x, -y, z'
loop_
 _atom_site_type_symbol
 _atom_site_label
 _atom_site_symmetry_multiplicity
 _atom_site_fract_x
 _atom_site_fract_y
 _atom_site_fract_z
 _atom_site_occupancy
  Ga  Ga0  2  0.00000000  0.25001000  0.88117000  1.0
  Ga  Ga1  2  0.00031000  0.24737000  0.03898000  1.0
  Ga  Ga2  2  0.25000000  0.25001000  0.96039000  1.0
  Ga  Ga3  2  0.25003000  0.19565000  0.13967000  1.0
  Ga  Ga4  2  0.49966000  0.24737000  0.03905000  1.0
  Ga  Ga5  2  0.50000000  0.25001000  0.88117000  1.0
  Ga  Ga6  2  0.74994000  0.26278000  0.12449000  1.0
  Ga  Ga7  2  0.75000000  0.25001000  0.96039000  1.0
  Ni  Ni8  1  0.00000000  0.00000000  0.96039000  1.0
  Ni  Ni9  1  0.00000000  0.50000000  0.96039000  1.0
  Ni  Ni10  1  0.01193000  0.50000000  0.11270000  1.0
  Ni  Ni11  1  0.25000000  0.00000000  0.88117000  1.0
  Ni  Ni12  1  0.25000000  0.50000000  0.04141000  1.0
  Ni  Ni13  1  0.25000000  0.50000000  0.88117000  1.0
  Ni  Ni14  1  0.25007000  0.00000000  0.03895000  1.0
  Ni  Ni15  1  0.48790000  0.50000000  0.11283000  1.0
  Ni  Ni16  1  0.50000000  0.00000000  0.96039000  1.0
  Ni  Ni17  1  0.50000000  0.50000000  0.96039000  1.0
  Ni  Ni18  1  0.51551000  0.00000000  0.11390000  1.0
  Ni  Ni19  1  0.74995000  0.00000000  0.03780000  1.0
  Ni  Ni20  1  0.74998000  0.50000000  0.03796000  1.0
  Ni  Ni21  1  0.75000000  0.00000000  0.88117000  1.0
  Ni  Ni22  1  0.75000000  0.50000000  0.88117000  1.0
  Ni  Ni23  1  0.98461000  0.00000000  0.11378000  1.0
  C  C24  1  0.24985000  0.50000000  0.11676000  1.0
