# generated using pymatgen
data_Li8Ga16Rh8CO
_symmetry_space_group_name_H-M   'P 1'
_cell_length_a   8.66047000
_cell_length_b   6.12388000
_cell_length_c   26.49540000
_cell_angle_alpha   90.00000000
_cell_angle_beta   90.00000000
_cell_angle_gamma   90.00000000
_symmetry_Int_Tables_number   1
_chemical_formula_structural   Li8Ga16Rh8CO
_chemical_formula_sum   'Li8 Ga16 Rh8 C1 O1'
_cell_volume   1405.20153000
_cell_formula_units_Z   1
loop_
 _symmetry_equiv_pos_site_id
 _symmetry_equiv_pos_as_xyz
  1  'x, y, z'
loop_
 _atom_site_type_symbol
 _atom_site_label
 _atom_site_symmetry_multiplicity
 _atom_site_fract_x
 _atom_site_fract_y
 _atom_site_fract_z
 _atom_site_occupancy
  Li  Li0  1  0.00000000  0.00000000  0.12258000  1.0
  Li  Li1  1  0.25000000  0.50000000  0.04086000  1.0
  Li  Li2  1  0.75000000  0.50000000  0.04086000  1.0
  Li  Li3  1  0.50000000  0.00000000  0.12258000  1.0
  Li  Li4  1  0.49819000  0.00000000  0.96202000  1.0
  Li  Li5  1  0.75000000  0.50000000  0.86868000  1.0
  Li  Li6  1  0.24991000  0.50000000  0.86184000  1.0
  Li  Li7  1  0.00185000  0.00000000  0.96202000  1.0
  Ga  Ga8  1  0.00000000  0.75000000  0.04086000  1.0
  Ga  Ga9  1  0.50000000  0.25000000  0.04086000  1.0
  Ga  Ga10  1  0.00000000  0.25000000  0.04086000  1.0
  Ga  Ga11  1  0.50000000  0.75000000  0.04086000  1.0
  Ga  Ga12  1  0.75000000  0.25000000  0.12258000  1.0
  Ga  Ga13  1  0.25000000  0.75000000  0.12258000  1.0
  Ga  Ga14  1  0.75000000  0.75000000  0.12258000  1.0
  Ga  Ga15  1  0.25000000  0.25000000  0.12258000  1.0
  Ga  Ga16  1  0.50067000  0.76788000  0.87664000  1.0
  Ga  Ga17  1  0.99915000  0.23194000  0.87662000  1.0
  Ga  Ga18  1  0.50067000  0.23212000  0.87664000  1.0
  Ga  Ga19  1  0.99915000  0.76806000  0.87662000  1.0
  Ga  Ga20  1  0.25002000  0.26014000  0.95875000  1.0
  Ga  Ga21  1  0.75004000  0.74476000  0.95909000  1.0
  Ga  Ga22  1  0.25002000  0.73986000  0.95875000  1.0
  Ga  Ga23  1  0.75004000  0.25524000  0.95909000  1.0
  Rh  Rh24  1  0.75000000  0.00000000  0.04086000  1.0
  Rh  Rh25  1  0.00000000  0.50000000  0.12258000  1.0
  Rh  Rh26  1  0.25000000  0.00000000  0.04086000  1.0
  Rh  Rh27  1  0.50000000  0.50000000  0.12258000  1.0
  Rh  Rh28  1  0.24995000  0.00000000  0.88527000  1.0
  Rh  Rh29  1  0.50116000  0.50000000  0.96104000  1.0
  Rh  Rh30  1  0.74993000  0.00000000  0.88397000  1.0
  Rh  Rh31  1  0.99894000  0.50000000  0.96102000  1.0
  C  C32  1  0.24997000  0.50000000  0.78168000  1.0
  O  O33  1  0.25001000  0.50000000  0.73868000  1.0
