# generated using pymatgen
data_Li8Ga16Rh8CO
_symmetry_space_group_name_H-M   Pm
_cell_length_a   8.66047000
_cell_length_b   6.12388000
_cell_length_c   26.49540000
_cell_angle_alpha   90.00000000
_cell_angle_beta   90.00000000
_cell_angle_gamma   90.00000000
_symmetry_Int_Tables_number   6
_chemical_formula_structural   Li8Ga16Rh8CO
_chemical_formula_sum   'Li8 Ga16 Rh8 C1 O1'
_cell_volume   1405.20153000
_cell_formula_units_Z   1
loop_
 _symmetry_equiv_pos_site_id
 _symmetry_equiv_pos_as_xyz
  1  'x, y, z'
  2  'x, -y, z'
loop_
 _atom_site_type_symbol
 _atom_site_label
 _atom_site_symmetry_multiplicity
 _atom_site_fract_x
 _atom_site_fract_y
 _atom_site_fract_z
 _atom_site_occupancy
  Li  Li0  1  0.00000000  0.00000000  0.87742000  1.0
  Li  Li1  1  0.00185000  0.00000000  0.03798000  1.0
  Li  Li2  1  0.24991000  0.50000000  0.13816000  1.0
  Li  Li3  1  0.25000000  0.50000000  0.95914000  1.0
  Li  Li4  1  0.49819000  0.00000000  0.03798000  1.0
  Li  Li5  1  0.50000000  0.00000000  0.87742000  1.0
  Li  Li6  1  0.75000000  0.50000000  0.13132000  1.0
  Li  Li7  1  0.75000000  0.50000000  0.95914000  1.0
  Ga  Ga8  2  0.00000000  0.25000000  0.95914000  1.0
  Ga  Ga9  2  0.25000000  0.25000000  0.87742000  1.0
  Ga  Ga10  2  0.25002000  0.26014000  0.04125000  1.0
  Ga  Ga11  2  0.50000000  0.25000000  0.95914000  1.0
  Ga  Ga12  2  0.50067000  0.23212000  0.12336000  1.0
  Ga  Ga13  2  0.75000000  0.25000000  0.87742000  1.0
  Ga  Ga14  2  0.75004000  0.25524000  0.04091000  1.0
  Ga  Ga15  2  0.99915000  0.23194000  0.12338000  1.0
  Rh  Rh16  1  0.00000000  0.50000000  0.87742000  1.0
  Rh  Rh17  1  0.24995000  0.00000000  0.11473000  1.0
  Rh  Rh18  1  0.25000000  0.00000000  0.95914000  1.0
  Rh  Rh19  1  0.50000000  0.50000000  0.87742000  1.0
  Rh  Rh20  1  0.50116000  0.50000000  0.03896000  1.0
  Rh  Rh21  1  0.74993000  0.00000000  0.11603000  1.0
  Rh  Rh22  1  0.75000000  0.00000000  0.95914000  1.0
  Rh  Rh23  1  0.99894000  0.50000000  0.03898000  1.0
  C  C24  1  0.24997000  0.50000000  0.21832000  1.0
  O  O25  1  0.25001000  0.50000000  0.26132000  1.0
