data_image0
_chemical_formula_structural       Li4Au12
_chemical_formula_sum              "Li4 Au12"
_cell_length_a       8.24301
_cell_length_b       5.82869
_cell_length_c       24.3715
_cell_angle_alpha    90
_cell_angle_beta     90
_cell_angle_gamma    90

_space_group_name_H-M_alt    "P 1"
_space_group_IT_number       1

loop_
  _space_group_symop_operation_xyz
  'x, y, z'

loop_
  _atom_site_type_symbol
  _atom_site_label
  _atom_site_symmetry_multiplicity
  _atom_site_fract_x
  _atom_site_fract_y
  _atom_site_fract_z
  _atom_site_occupancy
  Li  Li1       1.0  0.00000  0.00000  0.91032  1.0000
  Li  Li2       1.0  0.99988  0.49997  0.03652  1.0000
  Li  Li3       1.0  0.50000  0.00000  0.91032  1.0000
  Li  Li4       1.0  0.50010  0.50009  0.03656  1.0000
  Au  Au1       1.0  0.00000  0.50000  0.91032  1.0000
  Au  Au2       1.0  0.25000  0.75000  0.97011  1.0000
  Au  Au3       1.0  0.25000  0.25000  0.97011  1.0000
  Au  Au4       1.0  0.00001  0.99999  0.03272  1.0000
  Au  Au5       1.0  0.24998  0.26020  0.09068  1.0000
  Au  Au6       1.0  0.25001  0.73980  0.09068  1.0000
  Au  Au7       1.0  0.50000  0.50000  0.91032  1.0000
  Au  Au8       1.0  0.75000  0.75000  0.97011  1.0000
  Au  Au9       1.0  0.75000  0.25000  0.97011  1.0000
  Au  Au10      1.0  0.49999  0.00001  0.03269  1.0000
  Au  Au11      1.0  0.74999  0.26012  0.09067  1.0000
  Au  Au12      1.0  0.75001  0.73988  0.09067  1.0000
