# generated using pymatgen
data_LiAu3
_symmetry_space_group_name_H-M   P1
_cell_length_a   5.82869000
_cell_length_b   8.24301000
_cell_length_c   24.37150000
_cell_angle_alpha   90.00000000
_cell_angle_beta   90.00000000
_cell_angle_gamma   90.00000000
_symmetry_Int_Tables_number   1
_chemical_formula_structural   LiAu3
_chemical_formula_sum   'Li4 Au12'
_cell_volume   1170.95186937
_cell_formula_units_Z   4
loop_
 _symmetry_equiv_pos_site_id
 _symmetry_equiv_pos_as_xyz
  1  'x, y, z'
loop_
 _atom_site_type_symbol
 _atom_site_label
 _atom_site_symmetry_multiplicity
 _atom_site_fract_x
 _atom_site_fract_y
 _atom_site_fract_z
 _atom_site_occupancy
  Li  Li0  1  0.00000000  0.00000000  0.08968000  1.0
  Li  Li1  1  0.00000000  0.50000000  0.08968000  1.0
  Li  Li2  1  0.49991000  0.49990000  0.96344000  1.0
  Li  Li3  1  0.50003000  0.00012000  0.96348000  1.0
  Au  Au4  1  0.00001000  0.99999000  0.96728000  1.0
  Au  Au5  1  0.25000000  0.25000000  0.02989000  1.0
  Au  Au6  1  0.25000000  0.75000000  0.02989000  1.0
  Au  Au7  1  0.26012000  0.24999000  0.90933000  1.0
  Au  Au8  1  0.26020000  0.74999000  0.90932000  1.0
  Au  Au9  1  0.50000000  0.00000000  0.08968000  1.0
  Au  Au10  1  0.50000000  0.50000000  0.08968000  1.0
  Au  Au11  1  0.73980000  0.75002000  0.90932000  1.0
  Au  Au12  1  0.73988000  0.25001000  0.90933000  1.0
  Au  Au13  1  0.75000000  0.25000000  0.02989000  1.0
  Au  Au14  1  0.75000000  0.75000000  0.02989000  1.0
  Au  Au15  1  0.99999000  0.50001000  0.96731000  1.0
