# generated using pymatgen
data_Li8Mg8Cu8Sn8CO
_symmetry_space_group_name_H-M   Pm
_cell_length_a   6.48317000
_cell_length_b   9.16858000
_cell_length_c   26.87640000
_cell_angle_alpha   90.00000000
_cell_angle_beta   90.00000000
_cell_angle_gamma   90.00000000
_symmetry_Int_Tables_number   6
_chemical_formula_structural   Li8Mg8Cu8Sn8CO
_chemical_formula_sum   'Li8 Mg8 Cu8 Sn8 C1 O1'
_cell_volume   1597.57253076
_cell_formula_units_Z   1
loop_
 _symmetry_equiv_pos_site_id
 _symmetry_equiv_pos_as_xyz
  1  'x, y, z'
  2  'x, -y, z'
loop_
 _atom_site_type_symbol
 _atom_site_label
 _atom_site_symmetry_multiplicity
 _atom_site_fract_x
 _atom_site_fract_y
 _atom_site_fract_z
 _atom_site_occupancy
  Li  Li0  2  0.50000000  0.24999000  0.87207000  1.0
  Li  Li1  2  0.50239000  0.25039000  0.04472000  1.0
  Li  Li2  1  -0.00000000  0.50000000  0.95736000  1.0
  Li  Li3  1  -0.00000000  0.00000000  0.95736000  1.0
  Li  Li4  1  0.03120000  0.00000000  0.15147000  1.0
  Li  Li5  1  0.10301000  0.50000000  0.17771000  1.0
  Mg  Mg6  2  0.75000000  0.25001000  0.95736000  1.0
  Mg  Mg7  2  0.77105000  0.27766000  0.13100000  1.0
  Mg  Mg8  1  0.23030000  0.50000000  0.04893000  1.0
  Mg  Mg9  1  0.24750000  0.00000000  0.04989000  1.0
  Mg  Mg10  1  0.25000000  0.00000000  0.87207000  1.0
  Mg  Mg11  1  0.25000000  0.50000000  0.87207000  1.0
  Cu  Cu12  2  0.00000000  0.25001000  0.87207000  1.0
  Cu  Cu13  2  0.00278000  0.24836000  0.04067000  1.0
  Cu  Cu14  1  0.48874000  0.50000000  0.12574000  1.0
  Cu  Cu15  1  0.50000000  0.00000000  0.95736000  1.0
  Cu  Cu16  1  0.50000000  0.50000000  0.95736000  1.0
  Cu  Cu17  1  0.51317000  0.00000000  0.13229000  1.0
  Sn  Sn18  2  0.25000000  0.25001000  0.95736000  1.0
  Sn  Sn19  2  0.25674000  0.25290000  0.13157000  1.0
  Sn  Sn20  1  0.75000000  0.00000000  0.87207000  1.0
  Sn  Sn21  1  0.75000000  0.50000000  0.87207000  1.0
  Sn  Sn22  1  0.75458000  0.50000000  0.04427000  1.0
  Sn  Sn23  1  0.76009000  0.00000000  0.04829000  1.0
  C  C24  1  0.59141000  0.00000000  0.19950000  1.0
  O  O25  1  0.61047000  0.00000000  0.24247000  1.0
