# generated using pymatgen
data_Ga16Rh16CO
_symmetry_space_group_name_H-M   'P 1'
_cell_length_a   6.09666000
_cell_length_b   8.62198000
_cell_length_c   26.46650000
_cell_angle_alpha   90.00000000
_cell_angle_beta   90.00000000
_cell_angle_gamma   90.00000000
_symmetry_Int_Tables_number   1
_chemical_formula_structural   Ga16Rh16CO
_chemical_formula_sum   'Ga16 Rh16 C1 O1'
_cell_volume   1391.21899865
_cell_formula_units_Z   1
loop_
 _symmetry_equiv_pos_site_id
 _symmetry_equiv_pos_as_xyz
  1  'x, y, z'
loop_
 _atom_site_type_symbol
 _atom_site_label
 _atom_site_symmetry_multiplicity
 _atom_site_fract_x
 _atom_site_fract_y
 _atom_site_fract_z
 _atom_site_occupancy
  Ga  Ga0  1  0.50000000  0.75001000  0.87784000  1.0
  Ga  Ga1  1  0.50000000  0.00000000  0.95928000  1.0
  Ga  Ga2  1  0.50000000  0.75017000  0.04156000  1.0
  Ga  Ga3  1  0.50000000  0.00000000  0.12923000  1.0
  Ga  Ga4  1  0.50000000  0.24999000  0.87784000  1.0
  Ga  Ga5  1  0.50000000  0.50000000  0.95928000  1.0
  Ga  Ga6  1  0.50000000  0.24983000  0.04156000  1.0
  Ga  Ga7  1  0.50000000  0.50000000  0.12941000  1.0
  Ga  Ga8  1  0.00000000  0.75001000  0.87784000  1.0
  Ga  Ga9  1  0.00000000  0.00000000  0.95928000  1.0
  Ga  Ga10  1  0.00000000  0.74982000  0.04133000  1.0
  Ga  Ga11  1  0.00000000  0.00000000  0.12987000  1.0
  Ga  Ga12  1  0.00000000  0.24999000  0.87784000  1.0
  Ga  Ga13  1  0.00000000  0.50000000  0.95928000  1.0
  Ga  Ga14  1  0.00000000  0.25018000  0.04133000  1.0
  Ga  Ga15  1  0.00000000  0.50000000  0.12919000  1.0
  Rh  Rh16  1  0.75006000  0.00000000  0.87784000  1.0
  Rh  Rh17  1  0.75006000  0.75001000  0.95928000  1.0
  Rh  Rh18  1  0.75026000  0.00000000  0.03776000  1.0
  Rh  Rh19  1  0.75046000  0.75030000  0.11820000  1.0
  Rh  Rh20  1  0.75006000  0.50000000  0.87784000  1.0
  Rh  Rh21  1  0.75006000  0.24999000  0.95928000  1.0
  Rh  Rh22  1  0.74989000  0.50000000  0.03781000  1.0
  Rh  Rh23  1  0.75046000  0.24970000  0.11820000  1.0
  Rh  Rh24  1  0.24994000  0.00000000  0.87784000  1.0
  Rh  Rh25  1  0.24994000  0.75001000  0.95928000  1.0
  Rh  Rh26  1  0.24974000  0.00000000  0.03776000  1.0
  Rh  Rh27  1  0.24954000  0.75030000  0.11820000  1.0
  Rh  Rh28  1  0.24994000  0.50000000  0.87784000  1.0
  Rh  Rh29  1  0.24994000  0.24999000  0.95928000  1.0
  Rh  Rh30  1  0.25011000  0.50000000  0.03781000  1.0
  Rh  Rh31  1  0.24954000  0.24970000  0.11820000  1.0
  C  C32  1  0.50000000  0.00000000  0.27170000  1.0
  O  O33  1  0.50000000  0.00000000  0.31457000  1.0
