data_image0
_chemical_formula_structural       Y4Sn4Pd8C
_chemical_formula_sum              "Y4 Sn4 Pd8 C1"
_cell_length_a       6.84524
_cell_length_b       6.84524
_cell_length_c       25.1339
_cell_angle_alpha    90
_cell_angle_beta     90
_cell_angle_gamma    90

_space_group_name_H-M_alt    "P 1"
_space_group_IT_number       1

loop_
  _space_group_symop_operation_xyz
  'x, y, z'

loop_
  _atom_site_type_symbol
  _atom_site_label
  _atom_site_symmetry_multiplicity
  _atom_site_fract_x
  _atom_site_fract_y
  _atom_site_fract_z
  _atom_site_occupancy
  Y   Y1        1.0  0.00000  0.00000  0.89787  1.0000
  Y   Y2        1.0  0.50000  0.50000  0.89787  1.0000
  Y   Y3        1.0  0.50000  1.00000  0.03784  1.0000
  Y   Y4        1.0  1.00000  0.50000  0.03784  1.0000
  Sn  Sn1       1.0  0.00000  0.00000  0.02261  1.0000
  Sn  Sn2       1.0  0.50000  0.00000  0.89787  1.0000
  Sn  Sn3       1.0  0.00000  0.50000  0.89787  1.0000
  Sn  Sn4       1.0  0.50000  0.50000  0.05519  1.0000
  Pd  Pd1       1.0  0.25000  0.25000  0.96596  1.0000
  Pd  Pd2       1.0  0.78563  0.78562  0.10078  1.0000
  Pd  Pd3       1.0  0.75000  0.25000  0.96596  1.0000
  Pd  Pd4       1.0  0.21437  0.78562  0.10078  1.0000
  Pd  Pd5       1.0  0.75000  0.75000  0.96596  1.0000
  Pd  Pd6       1.0  0.21437  0.21438  0.10078  1.0000
  Pd  Pd7       1.0  0.25000  0.75000  0.96596  1.0000
  Pd  Pd8       1.0  0.78563  0.21438  0.10078  1.0000
  C   C1        1.0  1.00000  1.00000  0.11958  1.0000
