# generated using pymatgen
data_Li4Y4In4Cu4CO
_symmetry_space_group_name_H-M   'P 1'
_cell_length_a   6.68415000
_cell_length_b   6.68415000
_cell_length_c   25.01310000
_cell_angle_alpha   90.00000000
_cell_angle_beta   90.00000000
_cell_angle_gamma   90.00000000
_symmetry_Int_Tables_number   1
_chemical_formula_structural   Li4Y4In4Cu4CO
_chemical_formula_sum   'Li4 Y4 In4 Cu4 C1 O1'
_cell_volume   1117.53181054
_cell_formula_units_Z   1
loop_
 _symmetry_equiv_pos_site_id
 _symmetry_equiv_pos_as_xyz
  1  'x, y, z'
loop_
 _atom_site_type_symbol
 _atom_site_label
 _atom_site_symmetry_multiplicity
 _atom_site_fract_x
 _atom_site_fract_y
 _atom_site_fract_z
 _atom_site_occupancy
  Li  Li0  1  0.00000000  0.50000000  0.89979000  1.0
  Li  Li1  1  0.00996000  0.99005000  0.03658000  1.0
  Li  Li2  1  0.49016000  0.50976000  0.03672000  1.0
  Li  Li3  1  0.50000000  0.00000000  0.89979000  1.0
  Y  Y4  1  0.75000000  0.25000000  0.96660000  1.0
  Y  Y5  1  0.75048000  0.74970000  0.10610000  1.0
  Y  Y6  1  0.25026000  0.24951000  0.10611000  1.0
  Y  Y7  1  0.25000000  0.75000000  0.96660000  1.0
  In  In8  1  0.25000000  0.25000000  0.96660000  1.0
  In  In9  1  0.25028000  0.74968000  0.10683000  1.0
  In  In10  1  0.75073000  0.24911000  0.09151000  1.0
  In  In11  1  0.75000000  0.75000000  0.96660000  1.0
  Cu  Cu12  1  0.00000000  0.00000000  0.89979000  1.0
  Cu  Cu13  1  0.00897000  0.50839000  0.03514000  1.0
  Cu  Cu14  1  0.49152000  0.99098000  0.03514000  1.0
  Cu  Cu15  1  0.50000000  0.50000000  0.89979000  1.0
  C  C16  1  0.74791000  0.25274000  0.18035000  1.0
  O  O17  1  0.74716000  0.25279000  0.22701000  1.0
