data_image0
_chemical_formula_structural       Li4Al4Sn4Pd4
_chemical_formula_sum              "Li4 Al4 Sn4 Pd4"
_cell_length_a       6.48942
_cell_length_b       6.48942
_cell_length_c       24.8671
_cell_angle_alpha    90
_cell_angle_beta     90
_cell_angle_gamma    90

_space_group_name_H-M_alt    "P 1"
_space_group_IT_number       1

loop_
  _space_group_symop_operation_xyz
  'x, y, z'

loop_
  _atom_site_type_symbol
  _atom_site_label
  _atom_site_symmetry_multiplicity
  _atom_site_fract_x
  _atom_site_fract_y
  _atom_site_fract_z
  _atom_site_occupancy
  Li  Li1       1.0  0.75000  0.25000  0.03262  1.0000
  Li  Li2       1.0  0.75000  0.75000  0.90214  1.0000
  Li  Li3       1.0  0.25000  0.25000  0.90214  1.0000
  Li  Li4       1.0  0.25000  0.75000  0.03262  1.0000
  Al  Al1       1.0  0.00000  0.00000  0.09786  1.0000
  Al  Al2       1.0  0.00000  0.50000  0.96738  1.0000
  Al  Al3       1.0  0.50000  0.00000  0.96738  1.0000
  Al  Al4       1.0  0.50000  0.50000  0.09786  1.0000
  Sn  Sn1       1.0  0.00000  0.50000  0.09786  1.0000
  Sn  Sn2       1.0  0.00000  0.00000  0.96738  1.0000
  Sn  Sn3       1.0  0.50000  0.50000  0.96738  1.0000
  Sn  Sn4       1.0  0.50000  0.00000  0.09786  1.0000
  Pd  Pd1       1.0  0.25000  0.25000  0.03262  1.0000
  Pd  Pd2       1.0  0.25000  0.75000  0.90214  1.0000
  Pd  Pd3       1.0  0.75000  0.25000  0.90214  1.0000
  Pd  Pd4       1.0  0.75000  0.75000  0.03262  1.0000
