# generated using pymatgen
data_Ti4Rh12C
_symmetry_space_group_name_H-M   Pm
_cell_length_a   5.46745000
_cell_length_b   7.73214000
_cell_length_c   24.10060000
_cell_angle_alpha   90.00000000
_cell_angle_beta   90.00000000
_cell_angle_gamma   90.00000000
_symmetry_Int_Tables_number   6
_chemical_formula_structural   Ti4Rh12C
_chemical_formula_sum   'Ti4 Rh12 C1'
_cell_volume   1018.85500617
_cell_formula_units_Z   1
loop_
 _symmetry_equiv_pos_site_id
 _symmetry_equiv_pos_as_xyz
  1  'x, y, z'
  2  'x, -y, z'
loop_
 _atom_site_type_symbol
 _atom_site_label
 _atom_site_symmetry_multiplicity
 _atom_site_fract_x
 _atom_site_fract_y
 _atom_site_fract_z
 _atom_site_occupancy
  Ti  Ti0  2  0.00020000  0.23589000  0.92700000  1.0
  Ti  Ti1  2  0.50000000  0.25000000  0.02836000  1.0
  Rh  Rh2  2  0.00000000  0.25000000  0.02836000  1.0
  Rh  Rh3  2  0.50034000  0.24915000  0.91487000  1.0
  Rh  Rh4  1  0.24579000  0.50000000  0.97010000  1.0
  Rh  Rh5  1  0.25000000  0.00000000  0.08507000  1.0
  Rh  Rh6  1  0.25000000  0.50000000  0.08507000  1.0
  Rh  Rh7  1  0.25091000  0.00000000  0.96920000  1.0
  Rh  Rh8  1  0.74956000  0.00000000  0.96919000  1.0
  Rh  Rh9  1  0.75000000  0.00000000  0.08507000  1.0
  Rh  Rh10  1  0.75000000  0.50000000  0.08507000  1.0
  Rh  Rh11  1  0.75431000  0.50000000  0.97004000  1.0
  C  C12  1  0.50018000  0.50000000  0.90948000  1.0
